
     RDKit          3D

 48 52  0  0  0  0  0  0  0  0999 V2000
  140.7730   75.1040  221.9540 O   0  0  0  0  0  0  0  0  0  0  0  0
  140.3360   75.8510  220.7250 S   0  0  0  0  0  0  0  0  0  0  0  0
  138.9380   75.4570  220.4030 O   0  0  0  0  0  0  0  0  0  0  0  0
  141.3580   75.3730  219.3340 C   0  0  0  0  0  0  0  0  0  0  0  0
  142.5170   74.6070  219.8600 C   0  0  0  0  0  0  0  0  0  0  0  0
  143.7550   75.2310  219.9780 C   0  0  0  0  0  0  0  0  0  0  0  0
  144.8380   74.4990  220.4740 C   0  0  0  0  0  0  0  0  0  0  0  0
  144.6890   73.1710  220.8460 C   0  0  0  0  0  0  0  0  0  0  0  0
  143.4440   72.5770  220.7180 C   0  0  0  0  0  0  0  0  0  0  0  0
  142.3450   73.2770  220.2260 C   0  0  0  0  0  0  0  0  0  0  0  0
  140.5600   77.4970  220.9960 N   0  0  0  0  0  0  0  0  0  0  0  0
  139.7610   78.1240  221.9810 C   0  0  0  0  0  0  0  0  0  0  0  0
  140.6490   79.1070  222.6760 C   0  0  0  0  0  0  0  0  0  0  0  0
  140.4860   80.0100  223.6840 C   0  0  0  0  0  0  0  0  0  0  0  0
  141.4790   80.8320  224.1710 C   0  0  0  0  0  0  0  0  0  0  0  0
  142.7460   80.7520  223.6080 C   0  0  0  0  0  0  0  0  0  0  0  0
  142.9420   79.8370  222.5750 C   0  0  0  0  0  0  0  0  0  0  0  0
  141.9260   79.0280  222.1110 C   0  0  0  0  0  0  0  0  0  0  0  0
  141.8950   77.9830  221.0280 C   0  0  2  0  0  0  0  0  0  0  0  0
  142.1450   78.6340  219.6940 C   0  0  0  0  0  0  0  0  0  0  0  0
  142.7990   77.9690  218.6790 C   0  0  0  0  0  0  0  0  0  0  0  0
  142.8570   78.8250  217.6370 N   0  0  0  0  0  0  0  0  0  0  0  0
  142.2550   79.9990  217.9830 C   0  0  0  0  0  0  0  0  0  0  0  0
  142.0570   81.1790  217.2680 C   0  0  0  0  0  0  0  0  0  0  0  0
  141.4030   82.2180  217.8950 C   0  0  0  0  0  0  0  0  0  0  0  0
  140.9420   82.1140  219.2080 C   0  0  0  0  0  0  0  0  0  0  0  0
  141.1430   80.9290  219.9190 C   0  0  0  0  0  0  0  0  0  0  0  0
  141.7950   79.9020  219.2860 C   0  0  0  0  0  0  0  0  0  0  0  0
  140.7776   74.7446  218.6425 H   0  0  0  0  0  0  0  0  0  0  0  0
  141.7034   76.2637  218.7887 H   0  0  0  0  0  0  0  0  0  0  0  0
  143.8798   76.2840  219.6855 H   0  0  0  0  0  0  0  0  0  0  0  0
  145.8213   74.9826  220.5705 H   0  0  0  0  0  0  0  0  0  0  0  0
  145.5443   72.5996  221.2357 H   0  0  0  0  0  0  0  0  0  0  0  0
  143.3201   71.5245  221.0128 H   0  0  0  0  0  0  0  0  0  0  0  0
  141.3640   72.7889  220.1293 H   0  0  0  0  0  0  0  0  0  0  0  0
  138.9129   78.6428  221.5103 H   0  0  0  0  0  0  0  0  0  0  0  0
  139.3462   77.3898  222.6873 H   0  0  0  0  0  0  0  0  0  0  0  0
  139.4890   80.0883  224.1421 H   0  0  0  0  0  0  0  0  0  0  0  0
  141.2723   81.5374  224.9893 H   0  0  0  0  0  0  0  0  0  0  0  0
  143.5678   81.3898  223.9655 H   0  0  0  0  0  0  0  0  0  0  0  0
  143.9383   79.7576  222.1154 H   0  0  0  0  0  0  0  0  0  0  0  0
  142.6452   77.2010  221.2166 H   0  0  0  0  0  0  0  0  0  0  0  0
  143.1953   76.9434  218.7118 H   0  0  0  0  0  0  0  0  0  0  0  0
  143.2910   78.6510  216.6810 H   0  0  0  0  0  0  0  0  0  0  0  0
  142.4128   81.2784  216.2319 H   0  0  0  0  0  0  0  0  0  0  0  0
  141.2398   83.1562  217.3444 H   0  0  0  0  0  0  0  0  0  0  0  0
  140.4230   82.9610  219.6805 H   0  0  0  0  0  0  0  0  0  0  0  0
  140.7892   80.8226  220.9551 H   0  0  0  0  0  0  0  0  0  0  0  0
  1  2  2  0
  2  3  2  0
  2  4  1  0
  4  5  1  0
  5  6  2  0
  6  7  1  0
  7  8  2  0
  8  9  1  0
  9 10  2  0
  2 11  1  0
 11 12  1  0
 12 13  1  0
 13 14  2  0
 14 15  1  0
 15 16  2  0
 16 17  1  0
 17 18  2  0
 18 19  1  0
 19 20  1  0
 20 21  2  0
 21 22  1  0
 22 23  1  0
 23 24  2  0
 24 25  1  0
 25 26  2  0
 26 27  1  0
 27 28  2  0
 10  5  1  0
 19 11  1  0
 28 20  1  0
 18 13  1  0
 28 23  1  0
  4 29  1  0
  4 30  1  0
  6 31  1  0
  7 32  1  0
  8 33  1  0
  9 34  1  0
 10 35  1  0
 12 36  1  0
 12 37  1  0
 14 38  1  0
 15 39  1  0
 16 40  1  0
 17 41  1  0
 19 42  1  1
 21 43  1  0
 22 44  1  0
 24 45  1  0
 25 46  1  0
 26 47  1  0
 27 48  1  0
M  END
>  <smiles>  (1) 
O=S(=O)(Cc1ccccc1)N1Cc2ccccc2C1c1c[nH]c2ccccc12

>  <score_type>  (1) 
oracle

>  <origin>  (1) 
autodockgpu

>  <m_score__min__energy>  (1) 
-8.2400000000000002

>  <m_primary>  (1) 
energy

>  <rmsd>  (1) 
5.172096330183351

>  <m_score__min__rmsd>  (1) 
5.172096330183351

>  <meeko>  (1) 
{"free_energy": -8.02, "intermolecular_energy": -9.21, "internal_energy": -1.76, "cluster_size": 11, "cluster_id": 2, "rank_in_cluster": 5}

>  <energy>  (1) 
-8.24

>  <cluster_rmsd>  (1) 
0.0

>  <cluster>  (1) 
1

$$$$

     RDKit          3D

 48 52  0  0  0  0  0  0  0  0999 V2000
  134.9240   68.2040  224.1200 O   0  0  0  0  0  0  0  0  0  0  0  0
  135.6090   69.4820  224.5170 S   0  0  0  0  0  0  0  0  0  0  0  0
  135.4420   69.6740  225.9830 O   0  0  0  0  0  0  0  0  0  0  0  0
  134.8140   70.8680  223.7060 C   0  0  0  0  0  0  0  0  0  0  0  0
  134.2300   71.7390  224.7570 C   0  0  0  0  0  0  0  0  0  0  0  0
  133.1730   71.2670  225.5300 C   0  0  0  0  0  0  0  0  0  0  0  0
  132.6310   72.0970  226.5160 C   0  0  0  0  0  0  0  0  0  0  0  0
  133.1340   73.3710  226.7280 C   0  0  0  0  0  0  0  0  0  0  0  0
  134.1870   73.8140  225.9450 C   0  0  0  0  0  0  0  0  0  0  0  0
  134.7490   73.0130  224.9530 C   0  0  0  0  0  0  0  0  0  0  0  0
  137.2060   69.4160  223.9920 N   0  0  0  0  0  0  0  0  0  0  0  0
  137.4460   69.3110  222.6020 C   0  0  0  0  0  0  0  0  0  0  0  0
  138.6440   70.1620  222.3190 C   0  0  0  0  0  0  0  0  0  0  0  0
  139.3690   70.4680  221.2050 C   0  0  0  0  0  0  0  0  0  0  0  0
  140.4650   71.3020  221.1870 C   0  0  0  0  0  0  0  0  0  0  0  0
  140.8800   71.8840  222.3770 C   0  0  0  0  0  0  0  0  0  0  0  0
  140.1570   71.5890  223.5320 C   0  0  0  0  0  0  0  0  0  0  0  0
  139.0630   70.7500  223.5160 C   0  0  0  0  0  0  0  0  0  0  0  0
  138.1390   70.2900  224.6120 C   0  0  2  0  0  0  0  0  0  0  0  0
  138.9100   69.4590  225.6030 C   0  0  0  0  0  0  0  0  0  0  0  0
  138.8310   68.0820  225.6040 C   0  0  0  0  0  0  0  0  0  0  0  0
  139.6320   67.6540  226.6030 N   0  0  0  0  0  0  0  0  0  0  0  0
  140.2010   68.7310  227.2170 C   0  0  0  0  0  0  0  0  0  0  0  0
  141.0910   68.8180  228.2870 C   0  0  0  0  0  0  0  0  0  0  0  0
  141.4980   70.0710  228.6940 C   0  0  0  0  0  0  0  0  0  0  0  0
  141.0480   71.2330  228.0670 C   0  0  0  0  0  0  0  0  0  0  0  0
  140.1570   71.1390  226.9960 C   0  0  0  0  0  0  0  0  0  0  0  0
  139.7580   69.8890  226.6000 C   0  0  0  0  0  0  0  0  0  0  0  0
  135.5544   71.4334  223.1211 H   0  0  0  0  0  0  0  0  0  0  0  0
  134.0283   70.5126  223.0231 H   0  0  0  0  0  0  0  0  0  0  0  0
  132.7702   70.2563  225.3676 H   0  0  0  0  0  0  0  0  0  0  0  0
  131.7946   71.7342  227.1314 H   0  0  0  0  0  0  0  0  0  0  0  0
  132.7039   74.0196  227.5054 H   0  0  0  0  0  0  0  0  0  0  0  0
  134.5900   74.8241  226.1105 H   0  0  0  0  0  0  0  0  0  0  0  0
  135.5844   73.3808  224.3391 H   0  0  0  0  0  0  0  0  0  0  0  0
  137.6481   68.2650  222.3280 H   0  0  0  0  0  0  0  0  0  0  0  0
  136.5736   69.6409  222.0188 H   0  0  0  0  0  0  0  0  0  0  0  0
  139.0558   70.0161  220.2522 H   0  0  0  0  0  0  0  0  0  0  0  0
  141.0011   71.5030  220.2478 H   0  0  0  0  0  0  0  0  0  0  0  0
  141.7505   72.5557  222.4077 H   0  0  0  0  0  0  0  0  0  0  0  0
  140.4691   72.0396  224.4857 H   0  0  0  0  0  0  0  0  0  0  0  0
  137.6715   71.1485  225.1164 H   0  0  0  0  0  0  0  0  0  0  0  0
  138.2334   67.4561  224.9250 H   0  0  0  0  0  0  0  0  0  0  0  0
  139.8170   66.6490  226.8970 H   0  0  0  0  0  0  0  0  0  0  0  0
  141.4581   67.9124  228.7922 H   0  0  0  0  0  0  0  0  0  0  0  0
  142.1982   70.1568  229.5380 H   0  0  0  0  0  0  0  0  0  0  0  0
  141.3932   72.2180  228.4144 H   0  0  0  0  0  0  0  0  0  0  0  0
  139.7867   72.0404  226.4858 H   0  0  0  0  0  0  0  0  0  0  0  0
  1  2  2  0
  2  3  2  0
  2  4  1  0
  4  5  1  0
  5  6  2  0
  6  7  1  0
  7  8  2  0
  8  9  1  0
  9 10  2  0
  2 11  1  0
 11 12  1  0
 12 13  1  0
 13 14  2  0
 14 15  1  0
 15 16  2  0
 16 17  1  0
 17 18  2  0
 18 19  1  0
 19 20  1  0
 20 21  2  0
 21 22  1  0
 22 23  1  0
 23 24  2  0
 24 25  1  0
 25 26  2  0
 26 27  1  0
 27 28  2  0
 10  5  1  0
 19 11  1  0
 28 20  1  0
 18 13  1  0
 28 23  1  0
  4 29  1  0
  4 30  1  0
  6 31  1  0
  7 32  1  0
  8 33  1  0
  9 34  1  0
 10 35  1  0
 12 36  1  0
 12 37  1  0
 14 38  1  0
 15 39  1  0
 16 40  1  0
 17 41  1  0
 19 42  1  1
 21 43  1  0
 22 44  1  0
 24 45  1  0
 25 46  1  0
 26 47  1  0
 27 48  1  0
M  END
>  <smiles>  (2) 
O=S(=O)(Cc1ccccc1)N1Cc2ccccc2C1c1c[nH]c2ccccc12

>  <score_type>  (2) 
oracle

>  <origin>  (2) 
autodockgpu

>  <m_score__min__energy>  (2) 
-8.2400000000000002

>  <m_primary>  (2) 
energy

>  <rmsd>  (2) 
10.755261153073272

>  <m_score__min__rmsd>  (2) 
10.755261153073272

>  <meeko>  (2) 
{"free_energy": -8.23, "intermolecular_energy": -9.43, "internal_energy": -1.63, "cluster_size": 13, "cluster_id": 1, "rank_in_cluster": 3}

>  <energy>  (2) 
-8.24

>  <cluster_rmsd>  (2) 
0.03

>  <cluster>  (2) 
1

$$$$

     RDKit          3D

 48 52  0  0  0  0  0  0  0  0999 V2000
  140.7080   75.1190  221.9410 O   0  0  0  0  0  0  0  0  0  0  0  0
  140.2910   75.8770  220.7120 S   0  0  0  0  0  0  0  0  0  0  0  0
  138.8900   75.5060  220.3800 O   0  0  0  0  0  0  0  0  0  0  0  0
  141.3140   75.3870  219.3250 C   0  0  0  0  0  0  0  0  0  0  0  0
  142.4670   74.6170  219.8580 C   0  0  0  0  0  0  0  0  0  0  0  0
  142.2870   73.2920  220.2470 C   0  0  0  0  0  0  0  0  0  0  0  0
  143.3800   72.5780  220.7470 C   0  0  0  0  0  0  0  0  0  0  0  0
  144.6280   73.1720  220.8550 C   0  0  0  0  0  0  0  0  0  0  0  0
  144.7780   74.4910  220.4600 C   0  0  0  0  0  0  0  0  0  0  0  0
  143.7100   75.2310  219.9580 C   0  0  0  0  0  0  0  0  0  0  0  0
  140.5400   77.5190  220.9890 N   0  0  0  0  0  0  0  0  0  0  0  0
  139.7430   78.1560  221.9690 C   0  0  0  0  0  0  0  0  0  0  0  0
  140.6410   79.1220  222.6740 C   0  0  0  0  0  0  0  0  0  0  0  0
  140.4830   80.0250  223.6840 C   0  0  0  0  0  0  0  0  0  0  0  0
  141.4850   80.8290  224.1820 C   0  0  0  0  0  0  0  0  0  0  0  0
  142.7560   80.7300  223.6300 C   0  0  0  0  0  0  0  0  0  0  0  0
  142.9460   79.8140  222.5950 C   0  0  0  0  0  0  0  0  0  0  0  0
  141.9210   79.0230  222.1200 C   0  0  0  0  0  0  0  0  0  0  0  0
  141.8820   77.9820  221.0340 C   0  0  2  0  0  0  0  0  0  0  0  0
  142.1540   78.6330  219.7050 C   0  0  0  0  0  0  0  0  0  0  0  0
  142.8120   77.9620  218.6950 C   0  0  0  0  0  0  0  0  0  0  0  0
  142.8910   78.8190  217.6550 N   0  0  0  0  0  0  0  0  0  0  0  0
  142.2990   79.9990  217.9970 C   0  0  0  0  0  0  0  0  0  0  0  0
  142.1220   81.1820  217.2820 C   0  0  0  0  0  0  0  0  0  0  0  0
  141.4730   82.2280  217.9040 C   0  0  0  0  0  0  0  0  0  0  0  0
  140.9960   82.1270  219.2120 C   0  0  0  0  0  0  0  0  0  0  0  0
  141.1760   80.9380  219.9220 C   0  0  0  0  0  0  0  0  0  0  0  0
  141.8240   79.9060  219.2950 C   0  0  0  0  0  0  0  0  0  0  0  0
  140.7319   74.7587  218.6348 H   0  0  0  0  0  0  0  0  0  0  0  0
  141.6657   76.2731  218.7762 H   0  0  0  0  0  0  0  0  0  0  0  0
  141.2997   72.8144  220.1621 H   0  0  0  0  0  0  0  0  0  0  0  0
  143.2481   71.5314  221.0587 H   0  0  0  0  0  0  0  0  0  0  0  0
  145.4849   72.6051  221.2479 H   0  0  0  0  0  0  0  0  0  0  0  0
  145.7662   74.9666  220.5450 H   0  0  0  0  0  0  0  0  0  0  0  0
  143.8472   76.2774  219.6478 H   0  0  0  0  0  0  0  0  0  0  0  0
  138.9075   78.6900  221.4928 H   0  0  0  0  0  0  0  0  0  0  0  0
  139.3101   77.4267  222.6695 H   0  0  0  0  0  0  0  0  0  0  0  0
  139.4833   80.1181  224.1335 H   0  0  0  0  0  0  0  0  0  0  0  0
  141.2825   81.5354  225.0006 H   0  0  0  0  0  0  0  0  0  0  0  0
  143.5850   81.3531  223.9968 H   0  0  0  0  0  0  0  0  0  0  0  0
  143.9447   79.7197  222.1437 H   0  0  0  0  0  0  0  0  0  0  0  0
  142.6172   77.1868  221.2265 H   0  0  0  0  0  0  0  0  0  0  0  0
  143.1964   76.9319  218.7302 H   0  0  0  0  0  0  0  0  0  0  0  0
  143.3340   78.6420  216.7050 H   0  0  0  0  0  0  0  0  0  0  0  0
  142.4898   81.2789  216.2498 H   0  0  0  0  0  0  0  0  0  0  0  0
  141.3271   83.1691  217.3535 H   0  0  0  0  0  0  0  0  0  0  0  0
  140.4814   82.9788  219.6806 H   0  0  0  0  0  0  0  0  0  0  0  0
  140.8087   80.8330  220.9535 H   0  0  0  0  0  0  0  0  0  0  0  0
  1  2  2  0
  2  3  2  0
  2  4  1  0
  4  5  1  0
  5  6  2  0
  6  7  1  0
  7  8  2  0
  8  9  1  0
  9 10  2  0
  2 11  1  0
 11 12  1  0
 12 13  1  0
 13 14  2  0
 14 15  1  0
 15 16  2  0
 16 17  1  0
 17 18  2  0
 18 19  1  0
 19 20  1  0
 20 21  2  0
 21 22  1  0
 22 23  1  0
 23 24  2  0
 24 25  1  0
 25 26  2  0
 26 27  1  0
 27 28  2  0
 10  5  1  0
 19 11  1  0
 28 20  1  0
 18 13  1  0
 28 23  1  0
  4 29  1  0
  4 30  1  0
  6 31  1  0
  7 32  1  0
  8 33  1  0
  9 34  1  0
 10 35  1  0
 12 36  1  0
 12 37  1  0
 14 38  1  0
 15 39  1  0
 16 40  1  0
 17 41  1  0
 19 42  1  1
 21 43  1  0
 22 44  1  0
 24 45  1  0
 25 46  1  0
 26 47  1  0
 27 48  1  0
M  END
>  <smiles>  (3) 
O=S(=O)(Cc1ccccc1)N1Cc2ccccc2C1c1c[nH]c2ccccc12

>  <score_type>  (3) 
oracle

>  <origin>  (3) 
autodockgpu

>  <m_score__min__energy>  (3) 
-8.2400000000000002

>  <m_primary>  (3) 
energy

>  <rmsd>  (3) 
5.1776081976046076

>  <m_score__min__rmsd>  (3) 
5.1776081976046076

>  <meeko>  (3) 
{"free_energy": -8.03, "intermolecular_energy": -9.22, "internal_energy": -1.75, "cluster_size": 11, "cluster_id": 2, "rank_in_cluster": 3}

>  <energy>  (3) 
-8.23

>  <cluster_rmsd>  (3) 
0.27

>  <cluster>  (3) 
1

$$$$

     RDKit          3D

 48 52  0  0  0  0  0  0  0  0999 V2000
  140.7110   75.1440  221.9720 O   0  0  0  0  0  0  0  0  0  0  0  0
  140.2900   75.8980  220.7420 S   0  0  0  0  0  0  0  0  0  0  0  0
  138.8870   75.5250  220.4140 O   0  0  0  0  0  0  0  0  0  0  0  0
  141.3090   75.4060  219.3530 C   0  0  0  0  0  0  0  0  0  0  0  0
  142.4640   74.6370  219.8840 C   0  0  0  0  0  0  0  0  0  0  0  0
  143.7120   75.2460  219.9710 C   0  0  0  0  0  0  0  0  0  0  0  0
  144.7920   74.5120  220.4720 C   0  0  0  0  0  0  0  0  0  0  0  0
  144.6280   73.1970  220.8800 C   0  0  0  0  0  0  0  0  0  0  0  0
  143.3740   72.6170  220.7830 C   0  0  0  0  0  0  0  0  0  0  0  0
  142.2790   73.3200  220.2870 C   0  0  0  0  0  0  0  0  0  0  0  0
  140.5370   77.5410  221.0140 N   0  0  0  0  0  0  0  0  0  0  0  0
  139.7390   78.1810  221.9910 C   0  0  0  0  0  0  0  0  0  0  0  0
  140.6360   79.1500  222.6930 C   0  0  0  0  0  0  0  0  0  0  0  0
  140.4780   80.0560  223.7000 C   0  0  0  0  0  0  0  0  0  0  0  0
  141.4790   80.8620  224.1950 C   0  0  0  0  0  0  0  0  0  0  0  0
  142.7500   80.7630  223.6440 C   0  0  0  0  0  0  0  0  0  0  0  0
  142.9410   79.8440  222.6130 C   0  0  0  0  0  0  0  0  0  0  0  0
  141.9170   79.0500  222.1400 C   0  0  0  0  0  0  0  0  0  0  0  0
  141.8790   78.0060  221.0570 C   0  0  2  0  0  0  0  0  0  0  0  0
  142.1510   78.6520  219.7260 C   0  0  0  0  0  0  0  0  0  0  0  0
  142.8050   77.9770  218.7170 C   0  0  0  0  0  0  0  0  0  0  0  0
  142.8850   78.8310  217.6750 N   0  0  0  0  0  0  0  0  0  0  0  0
  142.2970   80.0130  218.0150 C   0  0  0  0  0  0  0  0  0  0  0  0
  142.1230   81.1960  217.2970 C   0  0  0  0  0  0  0  0  0  0  0  0
  141.4770   82.2450  217.9170 C   0  0  0  0  0  0  0  0  0  0  0  0
  141.0020   82.1480  219.2260 C   0  0  0  0  0  0  0  0  0  0  0  0
  141.1800   80.9610  219.9390 C   0  0  0  0  0  0  0  0  0  0  0  0
  141.8230   79.9250  219.3130 C   0  0  0  0  0  0  0  0  0  0  0  0
  140.7251   74.7764  218.6655 H   0  0  0  0  0  0  0  0  0  0  0  0
  141.6589   76.2913  218.8017 H   0  0  0  0  0  0  0  0  0  0  0  0
  143.8473   76.2895  219.6504 H   0  0  0  0  0  0  0  0  0  0  0  0
  145.7833   74.9835  220.5432 H   0  0  0  0  0  0  0  0  0  0  0  0
  145.4800   72.6237  221.2743 H   0  0  0  0  0  0  0  0  0  0  0  0
  143.2395   71.5741  221.1061 H   0  0  0  0  0  0  0  0  0  0  0  0
  141.2901   72.8436  220.2158 H   0  0  0  0  0  0  0  0  0  0  0  0
  138.9035   78.7127  221.5123 H   0  0  0  0  0  0  0  0  0  0  0  0
  139.3060   77.4540  222.6939 H   0  0  0  0  0  0  0  0  0  0  0  0
  139.4784   80.1498  224.1495 H   0  0  0  0  0  0  0  0  0  0  0  0
  141.2757   81.5707  225.0113 H   0  0  0  0  0  0  0  0  0  0  0  0
  143.5781   81.3885  224.0087 H   0  0  0  0  0  0  0  0  0  0  0  0
  143.9400   79.7491  222.1625 H   0  0  0  0  0  0  0  0  0  0  0  0
  142.6153   77.2123  221.2518 H   0  0  0  0  0  0  0  0  0  0  0  0
  143.1863   76.9459  218.7540 H   0  0  0  0  0  0  0  0  0  0  0  0
  143.3260   78.6500  216.7240 H   0  0  0  0  0  0  0  0  0  0  0  0
  142.4909   81.2898  216.2646 H   0  0  0  0  0  0  0  0  0  0  0  0
  141.3320   83.1849  217.3642 H   0  0  0  0  0  0  0  0  0  0  0  0
  140.4902   83.0022  219.6932 H   0  0  0  0  0  0  0  0  0  0  0  0
  140.8152   80.8602  220.9719 H   0  0  0  0  0  0  0  0  0  0  0  0
  1  2  2  0
  2  3  2  0
  2  4  1  0
  4  5  1  0
  5  6  2  0
  6  7  1  0
  7  8  2  0
  8  9  1  0
  9 10  2  0
  2 11  1  0
 11 12  1  0
 12 13  1  0
 13 14  2  0
 14 15  1  0
 15 16  2  0
 16 17  1  0
 17 18  2  0
 18 19  1  0
 19 20  1  0
 20 21  2  0
 21 22  1  0
 22 23  1  0
 23 24  2  0
 24 25  1  0
 25 26  2  0
 26 27  1  0
 27 28  2  0
 10  5  1  0
 19 11  1  0
 28 20  1  0
 18 13  1  0
 28 23  1  0
  4 29  1  0
  4 30  1  0
  6 31  1  0
  7 32  1  0
  8 33  1  0
  9 34  1  0
 10 35  1  0
 12 36  1  0
 12 37  1  0
 14 38  1  0
 15 39  1  0
 16 40  1  0
 17 41  1  0
 19 42  1  1
 21 43  1  0
 22 44  1  0
 24 45  1  0
 25 46  1  0
 26 47  1  0
 27 48  1  0
M  END
>  <smiles>  (4) 
O=S(=O)(Cc1ccccc1)N1Cc2ccccc2C1c1c[nH]c2ccccc12

>  <score_type>  (4) 
oracle

>  <origin>  (4) 
autodockgpu

>  <m_score__min__energy>  (4) 
-8.2400000000000002

>  <m_primary>  (4) 
energy

>  <rmsd>  (4) 
5.185183953368492

>  <m_score__min__rmsd>  (4) 
5.185183953368492

>  <meeko>  (4) 
{"free_energy": -8.05, "intermolecular_energy": -9.24, "internal_energy": -1.75, "cluster_size": 11, "cluster_id": 2, "rank_in_cluster": 1}

>  <energy>  (4) 
-8.22

>  <cluster_rmsd>  (4) 
0.34

>  <cluster>  (4) 
1

$$$$

     RDKit          3D

 48 52  0  0  0  0  0  0  0  0999 V2000
  140.8020   75.1110  221.9490 O   0  0  0  0  0  0  0  0  0  0  0  0
  140.3550   75.8520  220.7200 S   0  0  0  0  0  0  0  0  0  0  0  0
  138.9580   75.4500  220.4070 O   0  0  0  0  0  0  0  0  0  0  0  0
  141.3720   75.3740  219.3240 C   0  0  0  0  0  0  0  0  0  0  0  0
  142.5390   74.6180  219.8460 C   0  0  0  0  0  0  0  0  0  0  0  0
  142.3830   73.2840  220.2140 C   0  0  0  0  0  0  0  0  0  0  0  0
  143.4890   72.5830  220.7040 C   0  0  0  0  0  0  0  0  0  0  0  0
  144.7250   73.1990  220.8250 C   0  0  0  0  0  0  0  0  0  0  0  0
  144.8500   74.5270  220.4510 C   0  0  0  0  0  0  0  0  0  0  0  0
  143.7690   75.2540  219.9590 C   0  0  0  0  0  0  0  0  0  0  0  0
  140.5730   77.5000  220.9840 N   0  0  0  0  0  0  0  0  0  0  0  0
  139.7700   78.1280  221.9660 C   0  0  0  0  0  0  0  0  0  0  0  0
  140.6540   79.1180  222.6570 C   0  0  0  0  0  0  0  0  0  0  0  0
  140.4860   80.0240  223.6620 C   0  0  0  0  0  0  0  0  0  0  0  0
  141.4760   80.8520  224.1460 C   0  0  0  0  0  0  0  0  0  0  0  0
  142.7440   80.7740  223.5850 C   0  0  0  0  0  0  0  0  0  0  0  0
  142.9450   79.8550  222.5550 C   0  0  0  0  0  0  0  0  0  0  0  0
  141.9320   79.0400  222.0940 C   0  0  0  0  0  0  0  0  0  0  0  0
  141.9060   77.9910  221.0150 C   0  0  2  0  0  0  0  0  0  0  0  0
  142.1540   78.6380  219.6790 C   0  0  0  0  0  0  0  0  0  0  0  0
  142.8120   77.9700  218.6670 C   0  0  0  0  0  0  0  0  0  0  0  0
  142.8670   78.8220  217.6210 N   0  0  0  0  0  0  0  0  0  0  0  0
  142.2610   79.9960  217.9620 C   0  0  0  0  0  0  0  0  0  0  0  0
  142.0600   81.1720  217.2420 C   0  0  0  0  0  0  0  0  0  0  0  0
  141.4010   82.2120  217.8640 C   0  0  0  0  0  0  0  0  0  0  0  0
  140.9390   82.1110  219.1780 C   0  0  0  0  0  0  0  0  0  0  0  0
  141.1450   80.9300  219.8930 C   0  0  0  0  0  0  0  0  0  0  0  0
  141.8010   79.9030  219.2650 C   0  0  0  0  0  0  0  0  0  0  0  0
  140.7914   74.7387  218.6390 H   0  0  0  0  0  0  0  0  0  0  0  0
  141.7082   76.2645  218.7726 H   0  0  0  0  0  0  0  0  0  0  0  0
  141.4048   72.7895  220.1206 H   0  0  0  0  0  0  0  0  0  0  0  0
  143.3769   71.5288  220.9974 H   0  0  0  0  0  0  0  0  0  0  0  0
  145.5918   72.6427  221.2114 H   0  0  0  0  0  0  0  0  0  0  0  0
  145.8288   75.0201  220.5451 H   0  0  0  0  0  0  0  0  0  0  0  0
  143.8863   76.3079  219.6665 H   0  0  0  0  0  0  0  0  0  0  0  0
  138.9200   78.6411  221.4925 H   0  0  0  0  0  0  0  0  0  0  0  0
  139.3575   77.3953  222.6752 H   0  0  0  0  0  0  0  0  0  0  0  0
  139.4885   80.0996  224.1195 H   0  0  0  0  0  0  0  0  0  0  0  0
  141.2658   81.5607  224.9606 H   0  0  0  0  0  0  0  0  0  0  0  0
  143.5631   81.4160  223.9413 H   0  0  0  0  0  0  0  0  0  0  0  0
  143.9418   79.7778  222.0963 H   0  0  0  0  0  0  0  0  0  0  0  0
  142.6592   77.2126  221.2069 H   0  0  0  0  0  0  0  0  0  0  0  0
  143.2125   76.9462  218.7048 H   0  0  0  0  0  0  0  0  0  0  0  0
  143.3030   78.6460  216.6670 H   0  0  0  0  0  0  0  0  0  0  0  0
  142.4171   81.2683  216.2060 H   0  0  0  0  0  0  0  0  0  0  0  0
  141.2347   83.1473  217.3094 H   0  0  0  0  0  0  0  0  0  0  0  0
  140.4157   82.9573  219.6469 H   0  0  0  0  0  0  0  0  0  0  0  0
  140.7915   80.8264  220.9295 H   0  0  0  0  0  0  0  0  0  0  0  0
  1  2  2  0
  2  3  2  0
  2  4  1  0
  4  5  1  0
  5  6  2  0
  6  7  1  0
  7  8  2  0
  8  9  1  0
  9 10  2  0
  2 11  1  0
 11 12  1  0
 12 13  1  0
 13 14  2  0
 14 15  1  0
 15 16  2  0
 16 17  1  0
 17 18  2  0
 18 19  1  0
 19 20  1  0
 20 21  2  0
 21 22  1  0
 22 23  1  0
 23 24  2  0
 24 25  1  0
 25 26  2  0
 26 27  1  0
 27 28  2  0
 10  5  1  0
 19 11  1  0
 28 20  1  0
 18 13  1  0
 28 23  1  0
  4 29  1  0
  4 30  1  0
  6 31  1  0
  7 32  1  0
  8 33  1  0
  9 34  1  0
 10 35  1  0
 12 36  1  0
 12 37  1  0
 14 38  1  0
 15 39  1  0
 16 40  1  0
 17 41  1  0
 19 42  1  1
 21 43  1  0
 22 44  1  0
 24 45  1  0
 25 46  1  0
 26 47  1  0
 27 48  1  0
M  END
>  <smiles>  (5) 
O=S(=O)(Cc1ccccc1)N1Cc2ccccc2C1c1c[nH]c2ccccc12

>  <score_type>  (5) 
oracle

>  <origin>  (5) 
autodockgpu

>  <m_score__min__energy>  (5) 
-8.2400000000000002

>  <m_primary>  (5) 
energy

>  <rmsd>  (5) 
5.172926132389344

>  <m_score__min__rmsd>  (5) 
5.172926132389344

>  <meeko>  (5) 
{"free_energy": -8.01, "intermolecular_energy": -9.2, "internal_energy": -1.76, "cluster_size": 11, "cluster_id": 2, "rank_in_cluster": 6}

>  <energy>  (5) 
-8.22

>  <cluster_rmsd>  (5) 
0.68

>  <cluster>  (5) 
1

$$$$

     RDKit          3D

 48 52  0  0  0  0  0  0  0  0999 V2000
  135.0300   68.1700  224.2050 O   0  0  0  0  0  0  0  0  0  0  0  0
  135.6530   69.5200  224.4270 S   0  0  0  0  0  0  0  0  0  0  0  0
  135.4280   69.9190  225.8420 O   0  0  0  0  0  0  0  0  0  0  0  0
  134.8380   70.7380  223.3960 C   0  0  0  0  0  0  0  0  0  0  0  0
  134.7270   71.9960  224.1760 C   0  0  0  0  0  0  0  0  0  0  0  0
  133.7870   72.0900  225.1980 C   0  0  0  0  0  0  0  0  0  0  0  0
  133.6920   73.2810  225.9250 C   0  0  0  0  0  0  0  0  0  0  0  0
  134.5190   74.3560  225.6390 C   0  0  0  0  0  0  0  0  0  0  0  0
  135.4450   74.2340  224.6160 C   0  0  0  0  0  0  0  0  0  0  0  0
  135.5650   73.0630  223.8720 C   0  0  0  0  0  0  0  0  0  0  0  0
  137.2690   69.4430  223.9650 N   0  0  0  0  0  0  0  0  0  0  0  0
  137.5610   69.2540  222.5930 C   0  0  0  0  0  0  0  0  0  0  0  0
  138.7580   70.1020  222.3000 C   0  0  0  0  0  0  0  0  0  0  0  0
  139.5200   70.3470  221.1960 C   0  0  0  0  0  0  0  0  0  0  0  0
  140.6060   71.1940  221.1640 C   0  0  0  0  0  0  0  0  0  0  0  0
  140.9710   71.8560  222.3290 C   0  0  0  0  0  0  0  0  0  0  0  0
  140.2090   71.6250  223.4740 C   0  0  0  0  0  0  0  0  0  0  0  0
  139.1260   70.7710  223.4720 C   0  0  0  0  0  0  0  0  0  0  0  0
  138.1690   70.3680  224.5610 C   0  0  2  0  0  0  0  0  0  0  0  0
  138.9120   69.6120  225.6290 C   0  0  0  0  0  0  0  0  0  0  0  0
  138.7980   68.2430  225.7560 C   0  0  0  0  0  0  0  0  0  0  0  0
  139.5820   67.8900  226.7970 N   0  0  0  0  0  0  0  0  0  0  0  0
  140.1750   69.0030  227.3140 C   0  0  0  0  0  0  0  0  0  0  0  0
  141.0600   69.1660  228.3780 C   0  0  0  0  0  0  0  0  0  0  0  0
  141.4980   70.4400  228.6720 C   0  0  0  0  0  0  0  0  0  0  0  0
  141.0800   71.5510  227.9380 C   0  0  0  0  0  0  0  0  0  0  0  0
  140.1940   71.3810  226.8730 C   0  0  0  0  0  0  0  0  0  0  0  0
  139.7650   70.1100  226.5900 C   0  0  0  0  0  0  0  0  0  0  0  0
  135.4304   70.9137  222.4859 H   0  0  0  0  0  0  0  0  0  0  0  0
  133.8404   70.3823  223.0989 H   0  0  0  0  0  0  0  0  0  0  0  0
  133.1285   71.2401  225.4305 H   0  0  0  0  0  0  0  0  0  0  0  0
  132.9516   73.3657  226.7341 H   0  0  0  0  0  0  0  0  0  0  0  0
  134.4413   75.2901  226.2146 H   0  0  0  0  0  0  0  0  0  0  0  0
  136.1030   75.0847  224.3852 H   0  0  0  0  0  0  0  0  0  0  0  0
  136.3056   72.9840  223.0625 H   0  0  0  0  0  0  0  0  0  0  0  0
  137.7853   68.1958  222.3932 H   0  0  0  0  0  0  0  0  0  0  0  0
  136.7067   69.5341  221.9592 H   0  0  0  0  0  0  0  0  0  0  0  0
  139.2478   69.8310  220.2635 H   0  0  0  0  0  0  0  0  0  0  0  0
  141.1733   71.3431  220.2334 H   0  0  0  0  0  0  0  0  0  0  0  0
  141.8324   72.5398  222.3480 H   0  0  0  0  0  0  0  0  0  0  0  0
  140.4801   72.1398  224.4075 H   0  0  0  0  0  0  0  0  0  0  0  0
  137.6740   71.2503  224.9928 H   0  0  0  0  0  0  0  0  0  0  0  0
  138.1889   67.5719  225.1326 H   0  0  0  0  0  0  0  0  0  0  0  0
  139.7400   66.9110  227.1830 H   0  0  0  0  0  0  0  0  0  0  0  0
  141.4000   68.3017  228.9674 H   0  0  0  0  0  0  0  0  0  0  0  0
  142.1969   70.5848  229.5090 H   0  0  0  0  0  0  0  0  0  0  0  0
  141.4468   72.5551  228.1974 H   0  0  0  0  0  0  0  0  0  0  0  0
  139.8504   72.2406  226.2788 H   0  0  0  0  0  0  0  0  0  0  0  0
  1  2  2  0
  2  3  2  0
  2  4  1  0
  4  5  1  0
  5  6  2  0
  6  7  1  0
  7  8  2  0
  8  9  1  0
  9 10  2  0
  2 11  1  0
 11 12  1  0
 12 13  1  0
 13 14  2  0
 14 15  1  0
 15 16  2  0
 16 17  1  0
 17 18  2  0
 18 19  1  0
 19 20  1  0
 20 21  2  0
 21 22  1  0
 22 23  1  0
 23 24  2  0
 24 25  1  0
 25 26  2  0
 26 27  1  0
 27 28  2  0
 10  5  1  0
 19 11  1  0
 28 20  1  0
 18 13  1  0
 28 23  1  0
  4 29  1  0
  4 30  1  0
  6 31  1  0
  7 32  1  0
  8 33  1  0
  9 34  1  0
 10 35  1  0
 12 36  1  0
 12 37  1  0
 14 38  1  0
 15 39  1  0
 16 40  1  0
 17 41  1  0
 19 42  1  1
 21 43  1  0
 22 44  1  0
 24 45  1  0
 25 46  1  0
 26 47  1  0
 27 48  1  0
M  END
>  <smiles>  (6) 
O=S(=O)(Cc1ccccc1)N1Cc2ccccc2C1c1c[nH]c2ccccc12

>  <score_type>  (6) 
oracle

>  <origin>  (6) 
autodockgpu

>  <m_score__min__energy>  (6) 
-8.2400000000000002

>  <m_primary>  (6) 
energy

>  <rmsd>  (6) 
10.63943045292533

>  <m_score__min__rmsd>  (6) 
10.63943045292533

>  <meeko>  (6) 
{"free_energy": -8.1, "intermolecular_energy": -9.3, "internal_energy": -1.84, "cluster_size": 13, "cluster_id": 1, "rank_in_cluster": 9}

>  <energy>  (6) 
-8.21

>  <cluster_rmsd>  (6) 
0.69

>  <cluster>  (6) 
1

$$$$

     RDKit          3D

 48 52  0  0  0  0  0  0  0  0999 V2000
  140.7600   75.0970  221.9550 O   0  0  0  0  0  0  0  0  0  0  0  0
  140.3380   75.8530  220.7270 S   0  0  0  0  0  0  0  0  0  0  0  0
  138.9390   75.4730  220.3930 O   0  0  0  0  0  0  0  0  0  0  0  0
  141.3660   75.3720  219.3400 C   0  0  0  0  0  0  0  0  0  0  0  0
  142.5270   74.6140  219.8730 C   0  0  0  0  0  0  0  0  0  0  0  0
  143.7690   75.2360  219.9620 C   0  0  0  0  0  0  0  0  0  0  0  0
  144.8540   74.5110  220.4650 C   0  0  0  0  0  0  0  0  0  0  0  0
  144.7030   73.1950  220.8730 C   0  0  0  0  0  0  0  0  0  0  0  0
  143.4550   72.6030  220.7740 C   0  0  0  0  0  0  0  0  0  0  0  0
  142.3530   73.2960  220.2760 C   0  0  0  0  0  0  0  0  0  0  0  0
  140.5740   77.4960  221.0060 N   0  0  0  0  0  0  0  0  0  0  0  0
  139.7840   78.1230  221.9980 C   0  0  0  0  0  0  0  0  0  0  0  0
  140.6820   79.0960  222.6940 C   0  0  0  0  0  0  0  0  0  0  0  0
  140.5300   79.9940  223.7080 C   0  0  0  0  0  0  0  0  0  0  0  0
  141.5300   80.8060  224.1950 C   0  0  0  0  0  0  0  0  0  0  0  0
  142.7950   80.7210  223.6270 C   0  0  0  0  0  0  0  0  0  0  0  0
  142.9800   79.8100  222.5870 C   0  0  0  0  0  0  0  0  0  0  0  0
  141.9560   79.0110  222.1230 C   0  0  0  0  0  0  0  0  0  0  0  0
  141.9130   77.9730  221.0340 C   0  0  2  0  0  0  0  0  0  0  0  0
  142.1610   78.6300  219.7030 C   0  0  0  0  0  0  0  0  0  0  0  0
  142.8340   77.9760  218.6920 C   0  0  0  0  0  0  0  0  0  0  0  0
  142.8840   78.8350  217.6510 N   0  0  0  0  0  0  0  0  0  0  0  0
  142.2610   79.9980  217.9940 C   0  0  0  0  0  0  0  0  0  0  0  0
  142.0490   81.1760  217.2790 C   0  0  0  0  0  0  0  0  0  0  0  0
  141.3730   82.2030  217.9030 C   0  0  0  0  0  0  0  0  0  0  0  0
  140.9040   82.0890  219.2130 C   0  0  0  0  0  0  0  0  0  0  0  0
  141.1200   80.9070  219.9240 C   0  0  0  0  0  0  0  0  0  0  0  0
  141.7940   79.8920  219.2940 C   0  0  0  0  0  0  0  0  0  0  0  0
  140.7901   74.7373  218.6504 H   0  0  0  0  0  0  0  0  0  0  0  0
  141.7087   76.2613  218.7907 H   0  0  0  0  0  0  0  0  0  0  0  0
  143.8951   76.2808  219.6419 H   0  0  0  0  0  0  0  0  0  0  0  0
  145.8407   74.9917  220.5378 H   0  0  0  0  0  0  0  0  0  0  0  0
  145.5600   72.6303  221.2688 H   0  0  0  0  0  0  0  0  0  0  0  0
  143.3302   71.5588  221.0967 H   0  0  0  0  0  0  0  0  0  0  0  0
  141.3685   72.8106  220.2038 H   0  0  0  0  0  0  0  0  0  0  0  0
  138.9373   78.6502  221.5342 H   0  0  0  0  0  0  0  0  0  0  0  0
  139.3674   77.3878  222.7022 H   0  0  0  0  0  0  0  0  0  0  0  0
  139.5357   80.0762  224.1713 H   0  0  0  0  0  0  0  0  0  0  0  0
  141.3310   81.5083  225.0179 H   0  0  0  0  0  0  0  0  0  0  0  0
  143.6227   81.3508  223.9853 H   0  0  0  0  0  0  0  0  0  0  0  0
  143.9736   79.7262  222.1225 H   0  0  0  0  0  0  0  0  0  0  0  0
  142.6590   77.1849  221.2140 H   0  0  0  0  0  0  0  0  0  0  0  0
  143.2477   76.9574  218.7267 H   0  0  0  0  0  0  0  0  0  0  0  0
  143.3280   78.6690  216.6990 H   0  0  0  0  0  0  0  0  0  0  0  0
  142.4110   81.2831  216.2458 H   0  0  0  0  0  0  0  0  0  0  0  0
  141.1982   83.1393  217.3527 H   0  0  0  0  0  0  0  0  0  0  0  0
  140.3670   82.9263  219.6827 H   0  0  0  0  0  0  0  0  0  0  0  0
  140.7607   80.7932  220.9574 H   0  0  0  0  0  0  0  0  0  0  0  0
  1  2  2  0
  2  3  2  0
  2  4  1  0
  4  5  1  0
  5  6  2  0
  6  7  1  0
  7  8  2  0
  8  9  1  0
  9 10  2  0
  2 11  1  0
 11 12  1  0
 12 13  1  0
 13 14  2  0
 14 15  1  0
 15 16  2  0
 16 17  1  0
 17 18  2  0
 18 19  1  0
 19 20  1  0
 20 21  2  0
 21 22  1  0
 22 23  1  0
 23 24  2  0
 24 25  1  0
 25 26  2  0
 26 27  1  0
 27 28  2  0
 10  5  1  0
 19 11  1  0
 28 20  1  0
 18 13  1  0
 28 23  1  0
  4 29  1  0
  4 30  1  0
  6 31  1  0
  7 32  1  0
  8 33  1  0
  9 34  1  0
 10 35  1  0
 12 36  1  0
 12 37  1  0
 14 38  1  0
 15 39  1  0
 16 40  1  0
 17 41  1  0
 19 42  1  1
 21 43  1  0
 22 44  1  0
 24 45  1  0
 25 46  1  0
 26 47  1  0
 27 48  1  0
M  END
>  <smiles>  (7) 
O=S(=O)(Cc1ccccc1)N1Cc2ccccc2C1c1c[nH]c2ccccc12

>  <score_type>  (7) 
oracle

>  <origin>  (7) 
autodockgpu

>  <m_score__min__energy>  (7) 
-8.2400000000000002

>  <m_primary>  (7) 
energy

>  <rmsd>  (7) 
5.176203290229456

>  <m_score__min__rmsd>  (7) 
5.176203290229456

>  <meeko>  (7) 
{"free_energy": -8.0, "intermolecular_energy": -9.19, "internal_energy": -1.78, "cluster_size": 11, "cluster_id": 2, "rank_in_cluster": 8}

>  <energy>  (7) 
-8.15

>  <cluster_rmsd>  (7) 
0.64

>  <cluster>  (7) 
1

$$$$

     RDKit          3D

 48 52  0  0  0  0  0  0  0  0999 V2000
  143.6470   80.2710  222.9440 O   0  0  0  0  0  0  0  0  0  0  0  0
  142.2290   80.4510  222.4780 S   0  0  0  0  0  0  0  0  0  0  0  0
  142.1980   81.5390  221.4650 O   0  0  0  0  0  0  0  0  0  0  0  0
  141.2050   80.9740  223.8520 C   0  0  0  0  0  0  0  0  0  0  0  0
  139.7860   80.8900  223.4230 C   0  0  0  0  0  0  0  0  0  0  0  0
  139.3780   81.5540  222.2690 C   0  0  0  0  0  0  0  0  0  0  0  0
  138.0390   81.4670  221.8750 C   0  0  0  0  0  0  0  0  0  0  0  0
  137.1260   80.7320  222.6160 C   0  0  0  0  0  0  0  0  0  0  0  0
  137.5610   80.0810  223.7580 C   0  0  0  0  0  0  0  0  0  0  0  0
  138.8880   80.1470  224.1790 C   0  0  0  0  0  0  0  0  0  0  0  0
  141.6550   78.9650  221.9350 N   0  0  0  0  0  0  0  0  0  0  0  0
  141.1860   78.0400  222.8980 C   0  0  0  0  0  0  0  0  0  0  0  0
  139.9910   77.3750  222.2910 C   0  0  0  0  0  0  0  0  0  0  0  0
  139.1190   76.4060  222.6920 C   0  0  0  0  0  0  0  0  0  0  0  0
  138.0620   75.9410  221.9400 C   0  0  0  0  0  0  0  0  0  0  0  0
  137.8510   76.4840  220.6790 C   0  0  0  0  0  0  0  0  0  0  0  0
  138.7280   77.4770  220.2440 C   0  0  0  0  0  0  0  0  0  0  0  0
  139.7760   77.9210  221.0220 C   0  0  0  0  0  0  0  0  0  0  0  0
  140.8360   78.9610  220.7740 C   0  0  2  0  0  0  0  0  0  0  0  0
  141.7140   78.5220  219.6330 C   0  0  0  0  0  0  0  0  0  0  0  0
  142.0840   79.3960  218.6320 C   0  0  0  0  0  0  0  0  0  0  0  0
  142.8590   78.6920  217.7790 N   0  0  0  0  0  0  0  0  0  0  0  0
  142.9750   77.4100  218.2280 C   0  0  0  0  0  0  0  0  0  0  0  0
  143.6580   76.3100  217.7110 C   0  0  0  0  0  0  0  0  0  0  0  0
  143.5890   75.1180  218.4000 C   0  0  0  0  0  0  0  0  0  0  0  0
  142.8630   74.9910  219.5850 C   0  0  0  0  0  0  0  0  0  0  0  0
  142.1800   76.0960  220.0970 C   0  0  0  0  0  0  0  0  0  0  0  0
  142.2550   77.2770  219.4040 C   0  0  0  0  0  0  0  0  0  0  0  0
  141.3737   80.3143  224.7159 H   0  0  0  0  0  0  0  0  0  0  0  0
  141.4557   82.0040  224.1458 H   0  0  0  0  0  0  0  0  0  0  0  0
  140.0978   82.1379  221.6765 H   0  0  0  0  0  0  0  0  0  0  0  0
  137.7057   81.9884  220.9655 H   0  0  0  0  0  0  0  0  0  0  0  0
  136.0738   80.6672  222.3018 H   0  0  0  0  0  0  0  0  0  0  0  0
  136.8403   79.4963  224.3485 H   0  0  0  0  0  0  0  0  0  0  0  0
  139.2166   79.6230  225.0886 H   0  0  0  0  0  0  0  0  0  0  0  0
  141.9640   77.2953  223.1220 H   0  0  0  0  0  0  0  0  0  0  0  0
  140.9290   78.5409  223.8430 H   0  0  0  0  0  0  0  0  0  0  0  0
  139.2704   75.9637  223.6877 H   0  0  0  0  0  0  0  0  0  0  0  0
  137.3985   75.1554  222.3306 H   0  0  0  0  0  0  0  0  0  0  0  0
  137.0198   76.1421  220.0448 H   0  0  0  0  0  0  0  0  0  0  0  0
  138.5789   77.9202  219.2483 H   0  0  0  0  0  0  0  0  0  0  0  0
  140.3817   79.9376  220.5509 H   0  0  0  0  0  0  0  0  0  0  0  0
  141.8035   80.4561  218.5457 H   0  0  0  0  0  0  0  0  0  0  0  0
  143.3240   79.0440  216.8900 H   0  0  0  0  0  0  0  0  0  0  0  0
  144.2362   76.3911  216.7787 H   0  0  0  0  0  0  0  0  0  0  0  0
  144.1220   74.2410  218.0040 H   0  0  0  0  0  0  0  0  0  0  0  0
  142.8290   74.0263  220.1125 H   0  0  0  0  0  0  0  0  0  0  0  0
  141.5992   76.0214  221.0282 H   0  0  0  0  0  0  0  0  0  0  0  0
  1  2  2  0
  2  3  2  0
  2  4  1  0
  4  5  1  0
  5  6  2  0
  6  7  1  0
  7  8  2  0
  8  9  1  0
  9 10  2  0
  2 11  1  0
 11 12  1  0
 12 13  1  0
 13 14  2  0
 14 15  1  0
 15 16  2  0
 16 17  1  0
 17 18  2  0
 18 19  1  0
 19 20  1  0
 20 21  2  0
 21 22  1  0
 22 23  1  0
 23 24  2  0
 24 25  1  0
 25 26  2  0
 26 27  1  0
 27 28  2  0
 10  5  1  0
 19 11  1  0
 28 20  1  0
 18 13  1  0
 28 23  1  0
  4 29  1  0
  4 30  1  0
  6 31  1  0
  7 32  1  0
  8 33  1  0
  9 34  1  0
 10 35  1  0
 12 36  1  0
 12 37  1  0
 14 38  1  0
 15 39  1  0
 16 40  1  0
 17 41  1  0
 19 42  1  6
 21 43  1  0
 22 44  1  0
 24 45  1  0
 25 46  1  0
 26 47  1  0
 27 48  1  0
M  END
>  <smiles>  (8) 
O=S(=O)(Cc1ccccc1)N1Cc2ccccc2C1c1c[nH]c2ccccc12

>  <score_type>  (8) 
oracle

>  <origin>  (8) 
autodockgpu

>  <m_score__min__energy>  (8) 
-8.2400000000000002

>  <m_primary>  (8) 
energy

>  <rmsd>  (8) 
5.237410190084116

>  <m_score__min__rmsd>  (8) 
5.237410190084116

>  <meeko>  (8) 
{"free_energy": -7.12, "intermolecular_energy": -8.31, "internal_energy": -2.55, "cluster_size": 22, "cluster_id": 3, "rank_in_cluster": 17}

>  <energy>  (8) 
-8.15

>  <cluster_rmsd>  (8) 
0.64

>  <cluster>  (8) 
1

$$$$

     RDKit          3D

 48 52  0  0  0  0  0  0  0  0999 V2000
  143.6810   80.2880  222.9330 O   0  0  0  0  0  0  0  0  0  0  0  0
  142.2610   80.4570  222.4700 S   0  0  0  0  0  0  0  0  0  0  0  0
  142.2220   81.5410  221.4520 O   0  0  0  0  0  0  0  0  0  0  0  0
  141.2370   80.9810  223.8440 C   0  0  0  0  0  0  0  0  0  0  0  0
  139.8180   80.8900  223.4160 C   0  0  0  0  0  0  0  0  0  0  0  0
  138.9160   80.1570  224.1820 C   0  0  0  0  0  0  0  0  0  0  0  0
  137.5820   80.0800  223.7680 C   0  0  0  0  0  0  0  0  0  0  0  0
  137.1570   80.7210  222.6150 C   0  0  0  0  0  0  0  0  0  0  0  0
  138.0770   81.4440  221.8740 C   0  0  0  0  0  0  0  0  0  0  0  0
  139.4130   81.5410  222.2570 C   0  0  0  0  0  0  0  0  0  0  0  0
  141.6940   78.9660  221.9350 N   0  0  0  0  0  0  0  0  0  0  0  0
  141.2390   78.0400  222.9030 C   0  0  0  0  0  0  0  0  0  0  0  0
  140.0460   77.3640  222.3060 C   0  0  0  0  0  0  0  0  0  0  0  0
  139.1840   76.3900  222.7160 C   0  0  0  0  0  0  0  0  0  0  0  0
  138.1250   75.9150  221.9730 C   0  0  0  0  0  0  0  0  0  0  0  0
  137.9000   76.4540  220.7120 C   0  0  0  0  0  0  0  0  0  0  0  0
  138.7660   77.4520  220.2680 C   0  0  0  0  0  0  0  0  0  0  0  0
  139.8170   77.9060  221.0380 C   0  0  0  0  0  0  0  0  0  0  0  0
  140.8660   78.9530  220.7800 C   0  0  2  0  0  0  0  0  0  0  0  0
  141.7390   78.5190  219.6330 C   0  0  0  0  0  0  0  0  0  0  0  0
  142.0920   79.3920  218.6250 C   0  0  0  0  0  0  0  0  0  0  0  0
  142.8670   78.6920  217.7690 N   0  0  0  0  0  0  0  0  0  0  0  0
  143.0000   77.4130  218.2220 C   0  0  0  0  0  0  0  0  0  0  0  0
  143.6910   76.3190  217.7040 C   0  0  0  0  0  0  0  0  0  0  0  0
  143.6400   75.1290  218.3980 C   0  0  0  0  0  0  0  0  0  0  0  0
  142.9250   75.0000  219.5900 C   0  0  0  0  0  0  0  0  0  0  0  0
  142.2360   76.1000  220.1040 C   0  0  0  0  0  0  0  0  0  0  0  0
  142.2920   77.2780  219.4050 C   0  0  0  0  0  0  0  0  0  0  0  0
  141.4091   80.3249  224.7100 H   0  0  0  0  0  0  0  0  0  0  0  0
  141.4843   82.0127  224.1347 H   0  0  0  0  0  0  0  0  0  0  0  0
  139.2470   79.6464  225.0984 H   0  0  0  0  0  0  0  0  0  0  0  0
  136.8608   79.5031  224.3655 H   0  0  0  0  0  0  0  0  0  0  0  0
  136.1069   80.6566  222.2939 H   0  0  0  0  0  0  0  0  0  0  0  0
  137.7440   81.9552  220.9587 H   0  0  0  0  0  0  0  0  0  0  0  0
  140.1303   82.1193  221.6561 H   0  0  0  0  0  0  0  0  0  0  0  0
  142.0245   77.3023  223.1237 H   0  0  0  0  0  0  0  0  0  0  0  0
  140.9841   78.5413  223.8484 H   0  0  0  0  0  0  0  0  0  0  0  0
  139.3457   75.9518  223.7119 H   0  0  0  0  0  0  0  0  0  0  0  0
  137.4708   75.1249  222.3702 H   0  0  0  0  0  0  0  0  0  0  0  0
  137.0663   76.1047  220.0851 H   0  0  0  0  0  0  0  0  0  0  0  0
  138.6064   77.8915  219.2723 H   0  0  0  0  0  0  0  0  0  0  0  0
  140.4020   79.9254  220.5584 H   0  0  0  0  0  0  0  0  0  0  0  0
  141.8000   80.4488  218.5361 H   0  0  0  0  0  0  0  0  0  0  0  0
  143.3210   79.0450  216.8740 H   0  0  0  0  0  0  0  0  0  0  0  0
  144.2613   76.4029  216.7672 H   0  0  0  0  0  0  0  0  0  0  0  0
  144.1783   74.2557  218.0010 H   0  0  0  0  0  0  0  0  0  0  0  0
  142.9046   74.0370  220.1213 H   0  0  0  0  0  0  0  0  0  0  0  0
  141.6655   76.0238  221.0414 H   0  0  0  0  0  0  0  0  0  0  0  0
  1  2  2  0
  2  3  2  0
  2  4  1  0
  4  5  1  0
  5  6  2  0
  6  7  1  0
  7  8  2  0
  8  9  1  0
  9 10  2  0
  2 11  1  0
 11 12  1  0
 12 13  1  0
 13 14  2  0
 14 15  1  0
 15 16  2  0
 16 17  1  0
 17 18  2  0
 18 19  1  0
 19 20  1  0
 20 21  2  0
 21 22  1  0
 22 23  1  0
 23 24  2  0
 24 25  1  0
 25 26  2  0
 26 27  1  0
 27 28  2  0
 10  5  1  0
 19 11  1  0
 28 20  1  0
 18 13  1  0
 28 23  1  0
  4 29  1  0
  4 30  1  0
  6 31  1  0
  7 32  1  0
  8 33  1  0
  9 34  1  0
 10 35  1  0
 12 36  1  0
 12 37  1  0
 14 38  1  0
 15 39  1  0
 16 40  1  0
 17 41  1  0
 19 42  1  6
 21 43  1  0
 22 44  1  0
 24 45  1  0
 25 46  1  0
 26 47  1  0
 27 48  1  0
M  END
>  <smiles>  (9) 
O=S(=O)(Cc1ccccc1)N1Cc2ccccc2C1c1c[nH]c2ccccc12

>  <score_type>  (9) 
oracle

>  <origin>  (9) 
autodockgpu

>  <m_score__min__energy>  (9) 
-8.2400000000000002

>  <m_primary>  (9) 
energy

>  <rmsd>  (9) 
5.245120396943143

>  <m_score__min__rmsd>  (9) 
5.245120396943143

>  <meeko>  (9) 
{"free_energy": -7.13, "intermolecular_energy": -8.32, "internal_energy": -2.55, "cluster_size": 22, "cluster_id": 3, "rank_in_cluster": 9}

>  <energy>  (9) 
-8.1

>  <cluster_rmsd>  (9) 
0.66

>  <cluster>  (9) 
1

$$$$

     RDKit          3D

 48 52  0  0  0  0  0  0  0  0999 V2000
  143.6960   80.2820  222.9500 O   0  0  0  0  0  0  0  0  0  0  0  0
  142.2760   80.4600  222.4890 S   0  0  0  0  0  0  0  0  0  0  0  0
  142.2400   81.5490  221.4760 O   0  0  0  0  0  0  0  0  0  0  0  0
  141.2560   80.9820  223.8670 C   0  0  0  0  0  0  0  0  0  0  0  0
  139.8350   80.8890  223.4440 C   0  0  0  0  0  0  0  0  0  0  0  0
  139.4230   81.5320  222.2800 C   0  0  0  0  0  0  0  0  0  0  0  0
  138.0820   81.4370  221.8930 C   0  0  0  0  0  0  0  0  0  0  0  0
  137.1720   80.7160  222.6510 C   0  0  0  0  0  0  0  0  0  0  0  0
  137.6120   80.0870  223.8040 C   0  0  0  0  0  0  0  0  0  0  0  0
  138.9400   80.1610  224.2180 C   0  0  0  0  0  0  0  0  0  0  0  0
  141.7010   78.9740  221.9480 N   0  0  0  0  0  0  0  0  0  0  0  0
  141.2440   78.0460  222.9130 C   0  0  0  0  0  0  0  0  0  0  0  0
  140.0460   77.3770  222.3150 C   0  0  0  0  0  0  0  0  0  0  0  0
  139.1810   76.4050  222.7210 C   0  0  0  0  0  0  0  0  0  0  0  0
  138.1190   75.9390  221.9770 C   0  0  0  0  0  0  0  0  0  0  0  0
  137.8940   76.4840  220.7200 C   0  0  0  0  0  0  0  0  0  0  0  0
  138.7640   77.4800  220.2790 C   0  0  0  0  0  0  0  0  0  0  0  0
  139.8180   77.9260  221.0490 C   0  0  0  0  0  0  0  0  0  0  0  0
  140.8720   78.9700  220.7940 C   0  0  2  0  0  0  0  0  0  0  0  0
  141.7410   78.5370  219.6440 C   0  0  0  0  0  0  0  0  0  0  0  0
  142.0990   79.4140  218.6420 C   0  0  0  0  0  0  0  0  0  0  0  0
  142.8690   78.7140  217.7800 N   0  0  0  0  0  0  0  0  0  0  0  0
  142.9940   77.4320  218.2260 C   0  0  0  0  0  0  0  0  0  0  0  0
  143.6770   76.3360  217.7000 C   0  0  0  0  0  0  0  0  0  0  0  0
  143.6190   75.1420  218.3870 C   0  0  0  0  0  0  0  0  0  0  0  0
  142.9030   75.0100  219.5790 C   0  0  0  0  0  0  0  0  0  0  0  0
  142.2220   76.1120  220.1000 C   0  0  0  0  0  0  0  0  0  0  0  0
  142.2860   77.2940  219.4080 C   0  0  0  0  0  0  0  0  0  0  0  0
  141.4322   80.3258  224.7321 H   0  0  0  0  0  0  0  0  0  0  0  0
  141.5027   82.0140  224.1572 H   0  0  0  0  0  0  0  0  0  0  0  0
  140.1402   82.1054  221.6744 H   0  0  0  0  0  0  0  0  0  0  0  0
  137.7450   81.9410  220.9752 H   0  0  0  0  0  0  0  0  0  0  0  0
  136.1187   80.6447  222.3420 H   0  0  0  0  0  0  0  0  0  0  0  0
  136.8938   79.5139  224.4087 H   0  0  0  0  0  0  0  0  0  0  0  0
  139.2723   79.6548  225.1364 H   0  0  0  0  0  0  0  0  0  0  0  0
  142.0268   77.3040  223.1291 H   0  0  0  0  0  0  0  0  0  0  0  0
  140.9931   78.5445  223.8609 H   0  0  0  0  0  0  0  0  0  0  0  0
  139.3424   75.9606  223.7142 H   0  0  0  0  0  0  0  0  0  0  0  0
  137.4618   75.1500  222.3715 H   0  0  0  0  0  0  0  0  0  0  0  0
  137.0575   76.1414  220.0932 H   0  0  0  0  0  0  0  0  0  0  0  0
  138.6049   77.9244  219.2854 H   0  0  0  0  0  0  0  0  0  0  0  0
  140.4127   79.9457  220.5772 H   0  0  0  0  0  0  0  0  0  0  0  0
  141.8142   80.4734  218.5605 H   0  0  0  0  0  0  0  0  0  0  0  0
  143.3240   79.0690  216.8870 H   0  0  0  0  0  0  0  0  0  0  0  0
  144.2464   76.4216  216.7627 H   0  0  0  0  0  0  0  0  0  0  0  0
  144.1521   74.2680  217.9847 H   0  0  0  0  0  0  0  0  0  0  0  0
  142.8758   74.0438  220.1041 H   0  0  0  0  0  0  0  0  0  0  0  0
  141.6514   76.0343  221.0372 H   0  0  0  0  0  0  0  0  0  0  0  0
  1  2  2  0
  2  3  2  0
  2  4  1  0
  4  5  1  0
  5  6  2  0
  6  7  1  0
  7  8  2  0
  8  9  1  0
  9 10  2  0
  2 11  1  0
 11 12  1  0
 12 13  1  0
 13 14  2  0
 14 15  1  0
 15 16  2  0
 16 17  1  0
 17 18  2  0
 18 19  1  0
 19 20  1  0
 20 21  2  0
 21 22  1  0
 22 23  1  0
 23 24  2  0
 24 25  1  0
 25 26  2  0
 26 27  1  0
 27 28  2  0
 10  5  1  0
 19 11  1  0
 28 20  1  0
 18 13  1  0
 28 23  1  0
  4 29  1  0
  4 30  1  0
  6 31  1  0
  7 32  1  0
  8 33  1  0
  9 34  1  0
 10 35  1  0
 12 36  1  0
 12 37  1  0
 14 38  1  0
 15 39  1  0
 16 40  1  0
 17 41  1  0
 19 42  1  6
 21 43  1  0
 22 44  1  0
 24 45  1  0
 25 46  1  0
 26 47  1  0
 27 48  1  0
M  END
>  <smiles>  (10) 
O=S(=O)(Cc1ccccc1)N1Cc2ccccc2C1c1c[nH]c2ccccc12

>  <score_type>  (10) 
oracle

>  <origin>  (10) 
autodockgpu

>  <m_score__min__energy>  (10) 
-8.2400000000000002

>  <m_primary>  (10) 
energy

>  <rmsd>  (10) 
5.23792054727151

>  <m_score__min__rmsd>  (10) 
5.23792054727151

>  <meeko>  (10) 
{"free_energy": -7.11, "intermolecular_energy": -8.3, "internal_energy": -2.55, "cluster_size": 22, "cluster_id": 3, "rank_in_cluster": 18}

>  <energy>  (10) 
-7.99

>  <cluster_rmsd>  (10) 
0.81

>  <cluster>  (10) 
1

$$$$

     RDKit          3D

 48 52  0  0  0  0  0  0  0  0999 V2000
  143.6570   80.2840  222.9230 O   0  0  0  0  0  0  0  0  0  0  0  0
  142.2350   80.4570  222.4670 S   0  0  0  0  0  0  0  0  0  0  0  0
  142.1920   81.5420  221.4500 O   0  0  0  0  0  0  0  0  0  0  0  0
  141.2190   80.9790  223.8470 C   0  0  0  0  0  0  0  0  0  0  0  0
  139.7970   80.8910  223.4260 C   0  0  0  0  0  0  0  0  0  0  0  0
  139.3840   81.5400  222.2660 C   0  0  0  0  0  0  0  0  0  0  0  0
  138.0420   81.4500  221.8800 C   0  0  0  0  0  0  0  0  0  0  0  0
  137.1330   80.7260  222.6360 C   0  0  0  0  0  0  0  0  0  0  0  0
  137.5730   80.0900  223.7840 C   0  0  0  0  0  0  0  0  0  0  0  0
  138.9020   80.1610  224.1970 C   0  0  0  0  0  0  0  0  0  0  0  0
  141.6630   78.9660  221.9320 N   0  0  0  0  0  0  0  0  0  0  0  0
  141.2020   78.0440  222.9010 C   0  0  0  0  0  0  0  0  0  0  0  0
  140.0070   77.3720  222.3020 C   0  0  0  0  0  0  0  0  0  0  0  0
  139.1400   76.4020  222.7110 C   0  0  0  0  0  0  0  0  0  0  0  0
  138.0820   75.9300  221.9660 C   0  0  0  0  0  0  0  0  0  0  0  0
  137.8630   76.4670  220.7040 C   0  0  0  0  0  0  0  0  0  0  0  0
  138.7340   77.4620  220.2600 C   0  0  0  0  0  0  0  0  0  0  0  0
  139.7850   77.9120  221.0320 C   0  0  0  0  0  0  0  0  0  0  0  0
  140.8390   78.9550  220.7750 C   0  0  2  0  0  0  0  0  0  0  0  0
  141.7130   78.5150  219.6320 C   0  0  0  0  0  0  0  0  0  0  0  0
  142.0720   79.3850  218.6230 C   0  0  0  0  0  0  0  0  0  0  0  0
  142.8470   78.6810  217.7700 N   0  0  0  0  0  0  0  0  0  0  0  0
  142.9740   77.4020  218.2270 C   0  0  0  0  0  0  0  0  0  0  0  0
  143.6620   76.3040  217.7120 C   0  0  0  0  0  0  0  0  0  0  0  0
  143.6050   75.1150  218.4090 C   0  0  0  0  0  0  0  0  0  0  0  0
  142.8860   74.9920  219.5990 C   0  0  0  0  0  0  0  0  0  0  0  0
  142.1990   76.0950  220.1090 C   0  0  0  0  0  0  0  0  0  0  0  0
  142.2620   77.2720  219.4080 C   0  0  0  0  0  0  0  0  0  0  0  0
  141.3946   80.3206  224.7105 H   0  0  0  0  0  0  0  0  0  0  0  0
  141.4692   82.0097  224.1388 H   0  0  0  0  0  0  0  0  0  0  0  0
  140.1015   82.1148  221.6620 H   0  0  0  0  0  0  0  0  0  0  0  0
  137.7042   81.9598  220.9657 H   0  0  0  0  0  0  0  0  0  0  0  0
  136.0790   80.6581  222.3285 H   0  0  0  0  0  0  0  0  0  0  0  0
  136.8550   79.5136  224.3859 H   0  0  0  0  0  0  0  0  0  0  0  0
  139.2345   79.6505  225.1129 H   0  0  0  0  0  0  0  0  0  0  0  0
  141.9838   77.3033  223.1249 H   0  0  0  0  0  0  0  0  0  0  0  0
  140.9474   78.5481  223.8450 H   0  0  0  0  0  0  0  0  0  0  0  0
  139.2970   75.9649  223.7081 H   0  0  0  0  0  0  0  0  0  0  0  0
  137.4235   75.1433  222.3627 H   0  0  0  0  0  0  0  0  0  0  0  0
  137.0301   76.1191  220.0753 H   0  0  0  0  0  0  0  0  0  0  0  0
  138.5780   77.9013  219.2637 H   0  0  0  0  0  0  0  0  0  0  0  0
  140.3801   79.9291  220.5502 H   0  0  0  0  0  0  0  0  0  0  0  0
  141.7840   80.4427  218.5315 H   0  0  0  0  0  0  0  0  0  0  0  0
  143.3040   79.0300  216.8760 H   0  0  0  0  0  0  0  0  0  0  0  0
  144.2343   76.3837  216.7760 H   0  0  0  0  0  0  0  0  0  0  0  0
  144.1414   74.2389  218.0158 H   0  0  0  0  0  0  0  0  0  0  0  0
  142.8608   74.0304  220.1325 H   0  0  0  0  0  0  0  0  0  0  0  0
  141.6248   76.0223  221.0444 H   0  0  0  0  0  0  0  0  0  0  0  0
  1  2  2  0
  2  3  2  0
  2  4  1  0
  4  5  1  0
  5  6  2  0
  6  7  1  0
  7  8  2  0
  8  9  1  0
  9 10  2  0
  2 11  1  0
 11 12  1  0
 12 13  1  0
 13 14  2  0
 14 15  1  0
 15 16  2  0
 16 17  1  0
 17 18  2  0
 18 19  1  0
 19 20  1  0
 20 21  2  0
 21 22  1  0
 22 23  1  0
 23 24  2  0
 24 25  1  0
 25 26  2  0
 26 27  1  0
 27 28  2  0
 10  5  1  0
 19 11  1  0
 28 20  1  0
 18 13  1  0
 28 23  1  0
  4 29  1  0
  4 30  1  0
  6 31  1  0
  7 32  1  0
  8 33  1  0
  9 34  1  0
 10 35  1  0
 12 36  1  0
 12 37  1  0
 14 38  1  0
 15 39  1  0
 16 40  1  0
 17 41  1  0
 19 42  1  6
 21 43  1  0
 22 44  1  0
 24 45  1  0
 25 46  1  0
 26 47  1  0
 27 48  1  0
M  END
>  <smiles>  (11) 
O=S(=O)(Cc1ccccc1)N1Cc2ccccc2C1c1c[nH]c2ccccc12

>  <score_type>  (11) 
oracle

>  <origin>  (11) 
autodockgpu

>  <m_score__min__energy>  (11) 
-8.2400000000000002

>  <m_primary>  (11) 
energy

>  <rmsd>  (11) 
5.244283615018607

>  <m_score__min__rmsd>  (11) 
5.244283615018607

>  <meeko>  (11) 
{"free_energy": -7.12, "intermolecular_energy": -8.32, "internal_energy": -2.55, "cluster_size": 22, "cluster_id": 3, "rank_in_cluster": 11}

>  <energy>  (11) 
-7.75

>  <cluster_rmsd>  (11) 
1.03

>  <cluster>  (11) 
1

$$$$

     RDKit          3D

 48 52  0  0  0  0  0  0  0  0999 V2000
  143.6540   80.2590  222.9390 O   0  0  0  0  0  0  0  0  0  0  0  0
  142.2350   80.4350  222.4750 S   0  0  0  0  0  0  0  0  0  0  0  0
  142.2000   81.5210  221.4590 O   0  0  0  0  0  0  0  0  0  0  0  0
  141.2120   80.9590  223.8490 C   0  0  0  0  0  0  0  0  0  0  0  0
  139.7930   80.8770  223.4190 C   0  0  0  0  0  0  0  0  0  0  0  0
  139.3870   81.5350  222.2610 C   0  0  0  0  0  0  0  0  0  0  0  0
  138.0480   81.4500  221.8670 C   0  0  0  0  0  0  0  0  0  0  0  0
  137.1330   80.7220  222.6120 C   0  0  0  0  0  0  0  0  0  0  0  0
  137.5650   80.0770  223.7580 C   0  0  0  0  0  0  0  0  0  0  0  0
  138.8910   80.1420  224.1800 C   0  0  0  0  0  0  0  0  0  0  0  0
  141.6630   78.9460  221.9360 N   0  0  0  0  0  0  0  0  0  0  0  0
  141.1970   78.0230  222.9010 C   0  0  0  0  0  0  0  0  0  0  0  0
  140.0040   77.3540  222.2970 C   0  0  0  0  0  0  0  0  0  0  0  0
  139.1340   76.3840  222.7010 C   0  0  0  0  0  0  0  0  0  0  0  0
  138.0780   75.9150  221.9510 C   0  0  0  0  0  0  0  0  0  0  0  0
  137.8640   76.4550  220.6890 C   0  0  0  0  0  0  0  0  0  0  0  0
  138.7380   77.4490  220.2500 C   0  0  0  0  0  0  0  0  0  0  0  0
  139.7860   77.8960  221.0270 C   0  0  0  0  0  0  0  0  0  0  0  0
  140.8430   78.9380  220.7760 C   0  0  2  0  0  0  0  0  0  0  0  0
  141.7210   78.4990  219.6350 C   0  0  0  0  0  0  0  0  0  0  0  0
  142.0920   79.3720  218.6330 C   0  0  0  0  0  0  0  0  0  0  0  0
  142.8660   78.6680  217.7810 N   0  0  0  0  0  0  0  0  0  0  0  0
  142.9820   77.3860  218.2300 C   0  0  0  0  0  0  0  0  0  0  0  0
  143.6660   76.2860  217.7140 C   0  0  0  0  0  0  0  0  0  0  0  0
  143.5970   75.0940  218.4030 C   0  0  0  0  0  0  0  0  0  0  0  0
  142.8700   74.9680  219.5880 C   0  0  0  0  0  0  0  0  0  0  0  0
  142.1880   76.0730  220.1000 C   0  0  0  0  0  0  0  0  0  0  0  0
  142.2630   77.2530  219.4060 C   0  0  0  0  0  0  0  0  0  0  0  0
  141.3795   80.2988  224.7127 H   0  0  0  0  0  0  0  0  0  0  0  0
  141.4642   81.9884  224.1437 H   0  0  0  0  0  0  0  0  0  0  0  0
  140.1087   82.1130  221.6651 H   0  0  0  0  0  0  0  0  0  0  0  0
  137.7165   81.9672  220.9545 H   0  0  0  0  0  0  0  0  0  0  0  0
  136.0809   80.6580  222.2975 H   0  0  0  0  0  0  0  0  0  0  0  0
  136.8421   79.4978  224.3512 H   0  0  0  0  0  0  0  0  0  0  0  0
  139.2168   79.6239  225.0940 H   0  0  0  0  0  0  0  0  0  0  0  0
  141.9769   77.2808  223.1264 H   0  0  0  0  0  0  0  0  0  0  0  0
  140.9393   78.5259  223.8448 H   0  0  0  0  0  0  0  0  0  0  0  0
  139.2868   75.9446  223.6978 H   0  0  0  0  0  0  0  0  0  0  0  0
  137.4171   75.1283  222.3437 H   0  0  0  0  0  0  0  0  0  0  0  0
  137.0325   76.1099  220.0569 H   0  0  0  0  0  0  0  0  0  0  0  0
  138.5869   77.8899  219.2536 H   0  0  0  0  0  0  0  0  0  0  0  0
  140.3861   79.9131  220.5515 H   0  0  0  0  0  0  0  0  0  0  0  0
  141.8121   80.4322  218.5460 H   0  0  0  0  0  0  0  0  0  0  0  0
  143.3310   79.0190  216.8910 H   0  0  0  0  0  0  0  0  0  0  0  0
  144.2451   76.3672  216.7823 H   0  0  0  0  0  0  0  0  0  0  0  0
  144.1302   74.2169  218.0076 H   0  0  0  0  0  0  0  0  0  0  0  0
  142.8348   74.0033  220.1153 H   0  0  0  0  0  0  0  0  0  0  0  0
  141.6081   75.9993  221.0318 H   0  0  0  0  0  0  0  0  0  0  0  0
  1  2  2  0
  2  3  2  0
  2  4  1  0
  4  5  1  0
  5  6  2  0
  6  7  1  0
  7  8  2  0
  8  9  1  0
  9 10  2  0
  2 11  1  0
 11 12  1  0
 12 13  1  0
 13 14  2  0
 14 15  1  0
 15 16  2  0
 16 17  1  0
 17 18  2  0
 18 19  1  0
 19 20  1  0
 20 21  2  0
 21 22  1  0
 22 23  1  0
 23 24  2  0
 24 25  1  0
 25 26  2  0
 26 27  1  0
 27 28  2  0
 10  5  1  0
 19 11  1  0
 28 20  1  0
 18 13  1  0
 28 23  1  0
  4 29  1  0
  4 30  1  0
  6 31  1  0
  7 32  1  0
  8 33  1  0
  9 34  1  0
 10 35  1  0
 12 36  1  0
 12 37  1  0
 14 38  1  0
 15 39  1  0
 16 40  1  0
 17 41  1  0
 19 42  1  6
 21 43  1  0
 22 44  1  0
 24 45  1  0
 25 46  1  0
 26 47  1  0
 27 48  1  0
M  END
>  <smiles>  (12) 
O=S(=O)(Cc1ccccc1)N1Cc2ccccc2C1c1c[nH]c2ccccc12

>  <score_type>  (12) 
oracle

>  <origin>  (12) 
autodockgpu

>  <m_score__min__energy>  (12) 
-8.2400000000000002

>  <m_primary>  (12) 
energy

>  <rmsd>  (12) 
5.248593350735842

>  <m_score__min__rmsd>  (12) 
5.248593350735842

>  <meeko>  (12) 
{"free_energy": -7.13, "intermolecular_energy": -8.32, "internal_energy": -2.54, "cluster_size": 22, "cluster_id": 3, "rank_in_cluster": 8}

>  <energy>  (12) 
-7.71

>  <cluster_rmsd>  (12) 
1.05

>  <cluster>  (12) 
1

$$$$

     RDKit          3D

 48 52  0  0  0  0  0  0  0  0999 V2000
  140.9210   75.0810  221.9410 O   0  0  0  0  0  0  0  0  0  0  0  0
  140.4620   75.7940  220.6990 S   0  0  0  0  0  0  0  0  0  0  0  0
  139.0760   75.3530  220.3860 O   0  0  0  0  0  0  0  0  0  0  0  0
  141.4960   75.3210  219.3150 C   0  0  0  0  0  0  0  0  0  0  0  0
  142.6590   74.5680  219.8500 C   0  0  0  0  0  0  0  0  0  0  0  0
  143.8920   75.2030  219.9690 C   0  0  0  0  0  0  0  0  0  0  0  0
  144.9790   74.4820  220.4740 C   0  0  0  0  0  0  0  0  0  0  0  0
  144.8390   73.1560  220.8540 C   0  0  0  0  0  0  0  0  0  0  0  0
  143.6000   72.5510  220.7240 C   0  0  0  0  0  0  0  0  0  0  0  0
  142.4970   73.2400  220.2250 C   0  0  0  0  0  0  0  0  0  0  0  0
  140.6360   77.4500  220.9400 N   0  0  0  0  0  0  0  0  0  0  0  0
  139.8200   78.0710  221.9140 C   0  0  0  0  0  0  0  0  0  0  0  0
  140.6780   79.0920  222.5900 C   0  0  0  0  0  0  0  0  0  0  0  0
  140.4880   80.0080  223.5830 C   0  0  0  0  0  0  0  0  0  0  0  0
  141.4570   80.8670  224.0540 C   0  0  0  0  0  0  0  0  0  0  0  0
  142.7260   80.8150  223.4920 C   0  0  0  0  0  0  0  0  0  0  0  0
  142.9490   79.8870  222.4750 C   0  0  0  0  0  0  0  0  0  0  0  0
  141.9570   79.0400  222.0270 C   0  0  0  0  0  0  0  0  0  0  0  0
  141.9560   77.9760  220.9630 C   0  0  2  0  0  0  0  0  0  0  0  0
  142.1870   78.6100  219.6170 C   0  0  0  0  0  0  0  0  0  0  0  0
  142.8760   77.9530  218.6200 C   0  0  0  0  0  0  0  0  0  0  0  0
  142.9040   78.7900  217.5600 N   0  0  0  0  0  0  0  0  0  0  0  0
  142.2490   79.9430  217.8790 C   0  0  0  0  0  0  0  0  0  0  0  0
  142.0050   81.0990  217.1390 C   0  0  0  0  0  0  0  0  0  0  0  0
  141.3030   82.1210  217.7400 C   0  0  0  0  0  0  0  0  0  0  0  0
  140.8370   82.0240  219.0530 C   0  0  0  0  0  0  0  0  0  0  0  0
  141.0850   80.8630  219.7890 C   0  0  0  0  0  0  0  0  0  0  0  0
  141.7860   79.8530  219.1810 C   0  0  0  0  0  0  0  0  0  0  0  0
  140.9254   74.6847  218.6225 H   0  0  0  0  0  0  0  0  0  0  0  0
  141.8359   76.2130  218.7683 H   0  0  0  0  0  0  0  0  0  0  0  0
  144.0096   76.2552  219.6706 H   0  0  0  0  0  0  0  0  0  0  0  0
  145.9582   74.9737  220.5710 H   0  0  0  0  0  0  0  0  0  0  0  0
  145.6970   72.5943  221.2518 H   0  0  0  0  0  0  0  0  0  0  0  0
  143.4839   71.4987  221.0226 H   0  0  0  0  0  0  0  0  0  0  0  0
  141.5198   72.7439  220.1300 H   0  0  0  0  0  0  0  0  0  0  0  0
  138.9566   78.5558  221.4349 H   0  0  0  0  0  0  0  0  0  0  0  0
  139.4280   77.3377  222.6341 H   0  0  0  0  0  0  0  0  0  0  0  0
  139.4893   80.0649  224.0406 H   0  0  0  0  0  0  0  0  0  0  0  0
  141.2298   81.5804  224.8599 H   0  0  0  0  0  0  0  0  0  0  0  0
  143.5284   81.4834  223.8375 H   0  0  0  0  0  0  0  0  0  0  0  0
  143.9470   79.8288  222.0160 H   0  0  0  0  0  0  0  0  0  0  0  0
  142.7288   77.2198  221.1655 H   0  0  0  0  0  0  0  0  0  0  0  0
  143.3159   76.9464  218.6764 H   0  0  0  0  0  0  0  0  0  0  0  0
  143.3520   78.6160  216.6110 H   0  0  0  0  0  0  0  0  0  0  0  0
  142.3633   81.1927  216.1032 H   0  0  0  0  0  0  0  0  0  0  0  0
  141.1038   83.0399  217.1691 H   0  0  0  0  0  0  0  0  0  0  0  0
  140.2781   82.8568  219.5048 H   0  0  0  0  0  0  0  0  0  0  0  0
  140.7289   80.7618  220.8248 H   0  0  0  0  0  0  0  0  0  0  0  0
  1  2  2  0
  2  3  2  0
  2  4  1  0
  4  5  1  0
  5  6  2  0
  6  7  1  0
  7  8  2  0
  8  9  1  0
  9 10  2  0
  2 11  1  0
 11 12  1  0
 12 13  1  0
 13 14  2  0
 14 15  1  0
 15 16  2  0
 16 17  1  0
 17 18  2  0
 18 19  1  0
 19 20  1  0
 20 21  2  0
 21 22  1  0
 22 23  1  0
 23 24  2  0
 24 25  1  0
 25 26  2  0
 26 27  1  0
 27 28  2  0
 10  5  1  0
 19 11  1  0
 28 20  1  0
 18 13  1  0
 28 23  1  0
  4 29  1  0
  4 30  1  0
  6 31  1  0
  7 32  1  0
  8 33  1  0
  9 34  1  0
 10 35  1  0
 12 36  1  0
 12 37  1  0
 14 38  1  0
 15 39  1  0
 16 40  1  0
 17 41  1  0
 19 42  1  1
 21 43  1  0
 22 44  1  0
 24 45  1  0
 25 46  1  0
 26 47  1  0
 27 48  1  0
M  END
>  <smiles>  (13) 
O=S(=O)(Cc1ccccc1)N1Cc2ccccc2C1c1c[nH]c2ccccc12

>  <score_type>  (13) 
oracle

>  <origin>  (13) 
autodockgpu

>  <m_score__min__energy>  (13) 
-8.2400000000000002

>  <m_primary>  (13) 
energy

>  <rmsd>  (13) 
5.161904297993902

>  <m_score__min__rmsd>  (13) 
5.161904297993902

>  <meeko>  (13) 
{"free_energy": -7.98, "intermolecular_energy": -9.18, "internal_energy": -1.78, "cluster_size": 11, "cluster_id": 2, "rank_in_cluster": 9}

>  <energy>  (13) 
-7.52

>  <cluster_rmsd>  (13) 
1.26

>  <cluster>  (13) 
1

$$$$

     RDKit          3D

 48 52  0  0  0  0  0  0  0  0999 V2000
  141.0440   75.0080  221.9510 O   0  0  0  0  0  0  0  0  0  0  0  0
  140.5950   75.6960  220.6920 S   0  0  0  0  0  0  0  0  0  0  0  0
  139.2330   75.2080  220.3450 O   0  0  0  0  0  0  0  0  0  0  0  0
  141.6810   75.2490  219.3400 C   0  0  0  0  0  0  0  0  0  0  0  0
  142.8440   74.5220  219.9090 C   0  0  0  0  0  0  0  0  0  0  0  0
  142.7040   73.1880  220.2810 C   0  0  0  0  0  0  0  0  0  0  0  0
  143.8070   72.5140  220.8160 C   0  0  0  0  0  0  0  0  0  0  0  0
  145.0250   73.1580  220.9750 C   0  0  0  0  0  0  0  0  0  0  0  0
  145.1340   74.4850  220.5960 C   0  0  0  0  0  0  0  0  0  0  0  0
  144.0560   75.1860  220.0600 C   0  0  0  0  0  0  0  0  0  0  0  0
  140.7090   77.3590  220.9260 N   0  0  0  0  0  0  0  0  0  0  0  0
  139.8800   77.9520  221.9070 C   0  0  0  0  0  0  0  0  0  0  0  0
  140.7070   79.0080  222.5700 C   0  0  0  0  0  0  0  0  0  0  0  0
  140.4930   79.9200  223.5610 C   0  0  0  0  0  0  0  0  0  0  0  0
  141.4330   80.8170  224.0190 C   0  0  0  0  0  0  0  0  0  0  0  0
  142.6970   80.8110  223.4430 C   0  0  0  0  0  0  0  0  0  0  0  0
  142.9440   79.8880  222.4270 C   0  0  0  0  0  0  0  0  0  0  0  0
  141.9800   79.0030  221.9920 C   0  0  0  0  0  0  0  0  0  0  0  0
  142.0090   77.9350  220.9320 C   0  0  2  0  0  0  0  0  0  0  0  0
  142.2000   78.5720  219.5820 C   0  0  0  0  0  0  0  0  0  0  0  0
  142.9290   77.9510  218.5890 C   0  0  0  0  0  0  0  0  0  0  0  0
  142.9050   78.7800  217.5230 N   0  0  0  0  0  0  0  0  0  0  0  0
  142.1820   79.8940  217.8340 C   0  0  0  0  0  0  0  0  0  0  0  0
  141.8670   81.0270  217.0850 C   0  0  0  0  0  0  0  0  0  0  0  0
  141.1040   82.0090  217.6800 C   0  0  0  0  0  0  0  0  0  0  0  0
  140.6450   81.8930  218.9930 C   0  0  0  0  0  0  0  0  0  0  0  0
  140.9630   80.7550  219.7370 C   0  0  0  0  0  0  0  0  0  0  0  0
  141.7240   79.7850  219.1360 C   0  0  0  0  0  0  0  0  0  0  0  0
  141.1463   74.6010  218.6299 H   0  0  0  0  0  0  0  0  0  0  0  0
  142.0169   76.1495  218.8050 H   0  0  0  0  0  0  0  0  0  0  0  0
  141.7408   72.6716  220.1562 H   0  0  0  0  0  0  0  0  0  0  0  0
  143.7070   71.4600  221.1143 H   0  0  0  0  0  0  0  0  0  0  0  0
  145.8897   72.6234  221.3951 H   0  0  0  0  0  0  0  0  0  0  0  0
  146.0979   74.9999  220.7215 H   0  0  0  0  0  0  0  0  0  0  0  0
  144.1613   76.2400  219.7633 H   0  0  0  0  0  0  0  0  0  0  0  0
  138.9936   78.4018  221.4358 H   0  0  0  0  0  0  0  0  0  0  0  0
  139.5235   77.2072  222.6337 H   0  0  0  0  0  0  0  0  0  0  0  0
  139.4976   79.9410  224.0286 H   0  0  0  0  0  0  0  0  0  0  0  0
  141.1874   81.5241  224.8250 H   0  0  0  0  0  0  0  0  0  0  0  0
  143.4771   81.5109  223.7770 H   0  0  0  0  0  0  0  0  0  0  0  0
  143.9388   79.8652  221.9580 H   0  0  0  0  0  0  0  0  0  0  0  0
  142.8126   77.2099  221.1282 H   0  0  0  0  0  0  0  0  0  0  0  0
  143.4305   76.9741  218.6528 H   0  0  0  0  0  0  0  0  0  0  0  0
  143.3630   78.6270  216.5760 H   0  0  0  0  0  0  0  0  0  0  0  0
  142.2176   81.1344  216.0479 H   0  0  0  0  0  0  0  0  0  0  0  0
  140.8495   82.9103  217.1031 H   0  0  0  0  0  0  0  0  0  0  0  0
  140.0363   82.6934  219.4390 H   0  0  0  0  0  0  0  0  0  0  0  0
  140.6138   80.6399  220.7737 H   0  0  0  0  0  0  0  0  0  0  0  0
  1  2  2  0
  2  3  2  0
  2  4  1  0
  4  5  1  0
  5  6  2  0
  6  7  1  0
  7  8  2  0
  8  9  1  0
  9 10  2  0
  2 11  1  0
 11 12  1  0
 12 13  1  0
 13 14  2  0
 14 15  1  0
 15 16  2  0
 16 17  1  0
 17 18  2  0
 18 19  1  0
 19 20  1  0
 20 21  2  0
 21 22  1  0
 22 23  1  0
 23 24  2  0
 24 25  1  0
 25 26  2  0
 26 27  1  0
 27 28  2  0
 10  5  1  0
 19 11  1  0
 28 20  1  0
 18 13  1  0
 28 23  1  0
  4 29  1  0
  4 30  1  0
  6 31  1  0
  7 32  1  0
  8 33  1  0
  9 34  1  0
 10 35  1  0
 12 36  1  0
 12 37  1  0
 14 38  1  0
 15 39  1  0
 16 40  1  0
 17 41  1  0
 19 42  1  1
 21 43  1  0
 22 44  1  0
 24 45  1  0
 25 46  1  0
 26 47  1  0
 27 48  1  0
M  END
>  <smiles>  (14) 
O=S(=O)(Cc1ccccc1)N1Cc2ccccc2C1c1c[nH]c2ccccc12

>  <score_type>  (14) 
oracle

>  <origin>  (14) 
autodockgpu

>  <m_score__min__energy>  (14) 
-8.2400000000000002

>  <m_primary>  (14) 
energy

>  <rmsd>  (14) 
5.142560152489783

>  <m_score__min__rmsd>  (14) 
5.142560152489783

>  <meeko>  (14) 
{"free_energy": -7.95, "intermolecular_energy": -9.14, "internal_energy": -1.81, "cluster_size": 11, "cluster_id": 2, "rank_in_cluster": 11}

>  <energy>  (14) 
-8.05

>  <cluster_rmsd>  (14) 
0.0

>  <cluster>  (14) 
2

$$$$

     RDKit          3D

 48 52  0  0  0  0  0  0  0  0999 V2000
  135.0120   68.1430  224.3690 O   0  0  0  0  0  0  0  0  0  0  0  0
  135.5960   69.5240  224.4740 S   0  0  0  0  0  0  0  0  0  0  0  0
  135.4060   70.0140  225.8660 O   0  0  0  0  0  0  0  0  0  0  0  0
  134.7060   70.6390  223.3910 C   0  0  0  0  0  0  0  0  0  0  0  0
  134.8460   72.0140  223.9360 C   0  0  0  0  0  0  0  0  0  0  0  0
  135.7000   72.9160  223.3090 C   0  0  0  0  0  0  0  0  0  0  0  0
  135.8240   74.2080  223.8320 C   0  0  0  0  0  0  0  0  0  0  0  0
  135.1090   74.5910  224.9560 C   0  0  0  0  0  0  0  0  0  0  0  0
  134.2660   73.6720  225.5580 C   0  0  0  0  0  0  0  0  0  0  0  0
  134.1200   72.3780  225.0630 C   0  0  0  0  0  0  0  0  0  0  0  0
  137.1980   69.4650  223.9600 N   0  0  0  0  0  0  0  0  0  0  0  0
  137.4480   69.3740  222.5700 C   0  0  0  0  0  0  0  0  0  0  0  0
  138.6460   70.2290  222.3040 C   0  0  0  0  0  0  0  0  0  0  0  0
  139.3780   70.5470  221.1980 C   0  0  0  0  0  0  0  0  0  0  0  0
  140.4730   71.3830  221.1950 C   0  0  0  0  0  0  0  0  0  0  0  0
  140.8780   71.9560  222.3930 C   0  0  0  0  0  0  0  0  0  0  0  0
  140.1470   71.6490  223.5410 C   0  0  0  0  0  0  0  0  0  0  0  0
  139.0550   70.8080  223.5100 C   0  0  0  0  0  0  0  0  0  0  0  0
  138.1250   70.3360  224.5950 C   0  0  2  0  0  0  0  0  0  0  0  0
  138.8900   69.4980  225.5830 C   0  0  0  0  0  0  0  0  0  0  0  0
  138.7990   68.1210  225.5840 C   0  0  0  0  0  0  0  0  0  0  0  0
  139.5980   67.6870  226.5810 N   0  0  0  0  0  0  0  0  0  0  0  0
  140.1780   68.7580  227.1950 C   0  0  0  0  0  0  0  0  0  0  0  0
  141.0700   68.8370  228.2630 C   0  0  0  0  0  0  0  0  0  0  0  0
  141.4890   70.0860  228.6700 C   0  0  0  0  0  0  0  0  0  0  0  0
  141.0470   71.2520  228.0440 C   0  0  0  0  0  0  0  0  0  0  0  0
  140.1540   71.1660  226.9750 C   0  0  0  0  0  0  0  0  0  0  0  0
  139.7430   69.9200  226.5790 C   0  0  0  0  0  0  0  0  0  0  0  0
  135.1307   70.5938  222.3773 H   0  0  0  0  0  0  0  0  0  0  0  0
  133.6448   70.3546  223.3368 H   0  0  0  0  0  0  0  0  0  0  0  0
  136.2689   72.6180  222.4159 H   0  0  0  0  0  0  0  0  0  0  0  0
  136.4974   74.9287  223.3450 H   0  0  0  0  0  0  0  0  0  0  0  0
  135.2095   75.6080  225.3630 H   0  0  0  0  0  0  0  0  0  0  0  0
  133.6968   73.9715  226.4503 H   0  0  0  0  0  0  0  0  0  0  0  0
  133.4452   71.6609  225.5534 H   0  0  0  0  0  0  0  0  0  0  0  0
  137.6536   68.3311  222.2871 H   0  0  0  0  0  0  0  0  0  0  0  0
  136.5792   69.7083  221.9840 H   0  0  0  0  0  0  0  0  0  0  0  0
  139.0719   70.1038  220.2389 H   0  0  0  0  0  0  0  0  0  0  0  0
  141.0159   71.5925  220.2615 H   0  0  0  0  0  0  0  0  0  0  0  0
  141.7465   72.6297  222.4357 H   0  0  0  0  0  0  0  0  0  0  0  0
  140.4514   72.0918  224.5008 H   0  0  0  0  0  0  0  0  0  0  0  0
  137.6523   71.1889  225.1041 H   0  0  0  0  0  0  0  0  0  0  0  0
  138.1947   67.5001  224.9062 H   0  0  0  0  0  0  0  0  0  0  0  0
  139.7750   66.6800  226.8750 H   0  0  0  0  0  0  0  0  0  0  0  0
  141.4298   67.9280  228.7673 H   0  0  0  0  0  0  0  0  0  0  0  0
  142.1919   70.1654  229.5124 H   0  0  0  0  0  0  0  0  0  0  0  0
  141.4006   72.2340  228.3913 H   0  0  0  0  0  0  0  0  0  0  0  0
  139.7910   72.0709  226.4657 H   0  0  0  0  0  0  0  0  0  0  0  0
  1  2  2  0
  2  3  2  0
  2  4  1  0
  4  5  1  0
  5  6  2  0
  6  7  1  0
  7  8  2  0
  8  9  1  0
  9 10  2  0
  2 11  1  0
 11 12  1  0
 12 13  1  0
 13 14  2  0
 14 15  1  0
 15 16  2  0
 16 17  1  0
 17 18  2  0
 18 19  1  0
 19 20  1  0
 20 21  2  0
 21 22  1  0
 22 23  1  0
 23 24  2  0
 24 25  1  0
 25 26  2  0
 26 27  1  0
 27 28  2  0
 10  5  1  0
 19 11  1  0
 28 20  1  0
 18 13  1  0
 28 23  1  0
  4 29  1  0
  4 30  1  0
  6 31  1  0
  7 32  1  0
  8 33  1  0
  9 34  1  0
 10 35  1  0
 12 36  1  0
 12 37  1  0
 14 38  1  0
 15 39  1  0
 16 40  1  0
 17 41  1  0
 19 42  1  1
 21 43  1  0
 22 44  1  0
 24 45  1  0
 25 46  1  0
 26 47  1  0
 27 48  1  0
M  END
>  <smiles>  (15) 
O=S(=O)(Cc1ccccc1)N1Cc2ccccc2C1c1c[nH]c2ccccc12

>  <score_type>  (15) 
oracle

>  <origin>  (15) 
autodockgpu

>  <m_score__min__energy>  (15) 
-8.2400000000000002

>  <m_primary>  (15) 
energy

>  <rmsd>  (15) 
10.715947471683036

>  <m_score__min__rmsd>  (15) 
10.715947471683036

>  <meeko>  (15) 
{"free_energy": -7.99, "intermolecular_energy": -9.18, "internal_energy": -1.97, "cluster_size": 13, "cluster_id": 1, "rank_in_cluster": 10}

>  <energy>  (15) 
-8.03

>  <cluster_rmsd>  (15) 
0.03

>  <cluster>  (15) 
2

$$$$

     RDKit          3D

 48 52  0  0  0  0  0  0  0  0999 V2000
  141.0800   75.0270  221.9640 O   0  0  0  0  0  0  0  0  0  0  0  0
  140.6070   75.6840  220.6970 S   0  0  0  0  0  0  0  0  0  0  0  0
  139.2500   75.1670  220.3740 O   0  0  0  0  0  0  0  0  0  0  0  0
  141.6860   75.2270  219.3420 C   0  0  0  0  0  0  0  0  0  0  0  0
  142.8600   74.5180  219.9110 C   0  0  0  0  0  0  0  0  0  0  0  0
  142.7380   73.1840  220.2910 C   0  0  0  0  0  0  0  0  0  0  0  0
  143.8510   72.5280  220.8260 C   0  0  0  0  0  0  0  0  0  0  0  0
  145.0610   73.1880  220.9790 C   0  0  0  0  0  0  0  0  0  0  0  0
  145.1520   74.5140  220.5920 C   0  0  0  0  0  0  0  0  0  0  0  0
  144.0640   75.1980  220.0560 C   0  0  0  0  0  0  0  0  0  0  0  0
  140.6970   77.3530  220.8960 N   0  0  0  0  0  0  0  0  0  0  0  0
  139.8390   77.9570  221.8450 C   0  0  0  0  0  0  0  0  0  0  0  0
  140.6380   79.0360  222.5040 C   0  0  0  0  0  0  0  0  0  0  0  0
  140.3910   79.9670  223.4700 C   0  0  0  0  0  0  0  0  0  0  0  0
  141.3100   80.8840  223.9290 C   0  0  0  0  0  0  0  0  0  0  0  0
  142.5870   80.8810  223.3820 C   0  0  0  0  0  0  0  0  0  0  0  0
  142.8680   79.9400  222.3920 C   0  0  0  0  0  0  0  0  0  0  0  0
  141.9240   79.0330  221.9550 C   0  0  0  0  0  0  0  0  0  0  0  0
  141.9890   77.9430  220.9190 C   0  0  2  0  0  0  0  0  0  0  0  0
  142.2040   78.5540  219.5600 C   0  0  0  0  0  0  0  0  0  0  0  0
  142.9340   77.9050  218.5860 C   0  0  0  0  0  0  0  0  0  0  0  0
  142.9330   78.7150  217.5060 N   0  0  0  0  0  0  0  0  0  0  0  0
  142.2230   79.8440  217.7890 C   0  0  0  0  0  0  0  0  0  0  0  0
  141.9340   80.9680  217.0170 C   0  0  0  0  0  0  0  0  0  0  0  0
  141.1780   81.9710  217.5860 C   0  0  0  0  0  0  0  0  0  0  0  0
  140.7040   81.8850  218.8960 C   0  0  0  0  0  0  0  0  0  0  0  0
  140.9980   80.7570  219.6640 C   0  0  0  0  0  0  0  0  0  0  0  0
  141.7500   79.7660  219.0880 C   0  0  0  0  0  0  0  0  0  0  0  0
  141.1510   74.5645  218.6456 H   0  0  0  0  0  0  0  0  0  0  0  0
  142.0097   76.1228  218.7918 H   0  0  0  0  0  0  0  0  0  0  0  0
  141.7812   72.6545  220.1722 H   0  0  0  0  0  0  0  0  0  0  0  0
  143.7656   71.4742  221.1296 H   0  0  0  0  0  0  0  0  0  0  0  0
  145.9333   72.6670  221.4005 H   0  0  0  0  0  0  0  0  0  0  0  0
  146.1098   75.0416  220.7111 H   0  0  0  0  0  0  0  0  0  0  0  0
  144.1550   76.2519  219.7543 H   0  0  0  0  0  0  0  0  0  0  0  0
  138.9588   78.3864  221.3442 H   0  0  0  0  0  0  0  0  0  0  0  0
  139.4743   77.2235  222.5792 H   0  0  0  0  0  0  0  0  0  0  0  0
  139.3850   79.9866  223.9144 H   0  0  0  0  0  0  0  0  0  0  0  0
  141.0382   81.6052  224.7138 H   0  0  0  0  0  0  0  0  0  0  0  0
  143.3511   81.5971  223.7187 H   0  0  0  0  0  0  0  0  0  0  0  0
  143.8731   79.9200  221.9455 H   0  0  0  0  0  0  0  0  0  0  0  0
  142.7956   77.2312  221.1487 H   0  0  0  0  0  0  0  0  0  0  0  0
  143.4205   76.9222  218.6722 H   0  0  0  0  0  0  0  0  0  0  0  0
  143.3990   78.5380  216.5660 H   0  0  0  0  0  0  0  0  0  0  0  0
  142.2989   81.0525  215.9827 H   0  0  0  0  0  0  0  0  0  0  0  0
  140.9416   82.8649  216.9902 H   0  0  0  0  0  0  0  0  0  0  0  0
  140.1020   82.7017  219.3209 H   0  0  0  0  0  0  0  0  0  0  0  0
  140.6375   80.6661  220.6993 H   0  0  0  0  0  0  0  0  0  0  0  0
  1  2  2  0
  2  3  2  0
  2  4  1  0
  4  5  1  0
  5  6  2  0
  6  7  1  0
  7  8  2  0
  8  9  1  0
  9 10  2  0
  2 11  1  0
 11 12  1  0
 12 13  1  0
 13 14  2  0
 14 15  1  0
 15 16  2  0
 16 17  1  0
 17 18  2  0
 18 19  1  0
 19 20  1  0
 20 21  2  0
 21 22  1  0
 22 23  1  0
 23 24  2  0
 24 25  1  0
 25 26  2  0
 26 27  1  0
 27 28  2  0
 10  5  1  0
 19 11  1  0
 28 20  1  0
 18 13  1  0
 28 23  1  0
  4 29  1  0
  4 30  1  0
  6 31  1  0
  7 32  1  0
  8 33  1  0
  9 34  1  0
 10 35  1  0
 12 36  1  0
 12 37  1  0
 14 38  1  0
 15 39  1  0
 16 40  1  0
 17 41  1  0
 19 42  1  1
 21 43  1  0
 22 44  1  0
 24 45  1  0
 25 46  1  0
 26 47  1  0
 27 48  1  0
M  END
>  <smiles>  (16) 
O=S(=O)(Cc1ccccc1)N1Cc2ccccc2C1c1c[nH]c2ccccc12

>  <score_type>  (16) 
oracle

>  <origin>  (16) 
autodockgpu

>  <m_score__min__energy>  (16) 
-8.2400000000000002

>  <m_primary>  (16) 
energy

>  <rmsd>  (16) 
5.137430262329425

>  <m_score__min__rmsd>  (16) 
5.137430262329425

>  <meeko>  (16) 
{"free_energy": -7.98, "intermolecular_energy": -9.17, "internal_energy": -1.78, "cluster_size": 11, "cluster_id": 2, "rank_in_cluster": 10}

>  <energy>  (16) 
-8.03

>  <cluster_rmsd>  (16) 
0.03

>  <cluster>  (16) 
2

$$$$

     RDKit          3D

 48 52  0  0  0  0  0  0  0  0999 V2000
  143.6550   80.2800  222.9200 O   0  0  0  0  0  0  0  0  0  0  0  0
  142.2320   80.4500  222.4660 S   0  0  0  0  0  0  0  0  0  0  0  0
  142.1860   81.5340  221.4480 O   0  0  0  0  0  0  0  0  0  0  0  0
  141.2170   80.9720  223.8460 C   0  0  0  0  0  0  0  0  0  0  0  0
  139.7950   80.8840  223.4260 C   0  0  0  0  0  0  0  0  0  0  0  0
  139.3800   81.5340  222.2680 C   0  0  0  0  0  0  0  0  0  0  0  0
  138.0380   81.4430  221.8830 C   0  0  0  0  0  0  0  0  0  0  0  0
  137.1300   80.7180  222.6390 C   0  0  0  0  0  0  0  0  0  0  0  0
  137.5720   80.0810  223.7860 C   0  0  0  0  0  0  0  0  0  0  0  0
  138.9010   80.1510  224.1980 C   0  0  0  0  0  0  0  0  0  0  0  0
  141.6620   78.9580  221.9330 N   0  0  0  0  0  0  0  0  0  0  0  0
  141.2020   78.0370  222.9030 C   0  0  0  0  0  0  0  0  0  0  0  0
  140.0080   77.3630  222.3050 C   0  0  0  0  0  0  0  0  0  0  0  0
  139.1420   76.3920  222.7150 C   0  0  0  0  0  0  0  0  0  0  0  0
  138.0840   75.9180  221.9700 C   0  0  0  0  0  0  0  0  0  0  0  0
  137.8650   76.4530  220.7080 C   0  0  0  0  0  0  0  0  0  0  0  0
  138.7350   77.4480  220.2630 C   0  0  0  0  0  0  0  0  0  0  0  0
  139.7850   77.9010  221.0340 C   0  0  0  0  0  0  0  0  0  0  0  0
  140.8380   78.9450  220.7760 C   0  0  2  0  0  0  0  0  0  0  0  0
  141.7130   78.5040  219.6330 C   0  0  0  0  0  0  0  0  0  0  0  0
  142.0750   79.3740  218.6260 C   0  0  0  0  0  0  0  0  0  0  0  0
  142.8490   78.6690  217.7730 N   0  0  0  0  0  0  0  0  0  0  0  0
  142.9730   77.3900  218.2280 C   0  0  0  0  0  0  0  0  0  0  0  0
  143.6590   76.2910  217.7140 C   0  0  0  0  0  0  0  0  0  0  0  0
  143.5990   75.1020  218.4090 C   0  0  0  0  0  0  0  0  0  0  0  0
  142.8790   74.9780  219.5980 C   0  0  0  0  0  0  0  0  0  0  0  0
  142.1930   76.0830  220.1080 C   0  0  0  0  0  0  0  0  0  0  0  0
  142.2590   77.2600  219.4080 C   0  0  0  0  0  0  0  0  0  0  0  0
  141.3931   80.3137  224.7095 H   0  0  0  0  0  0  0  0  0  0  0  0
  141.4673   82.0027  224.1374 H   0  0  0  0  0  0  0  0  0  0  0  0
  140.0962   82.1107  221.6643 H   0  0  0  0  0  0  0  0  0  0  0  0
  137.6992   81.9530  220.9692 H   0  0  0  0  0  0  0  0  0  0  0  0
  136.0757   80.6499  222.3327 H   0  0  0  0  0  0  0  0  0  0  0  0
  136.8546   79.5041  224.3882 H   0  0  0  0  0  0  0  0  0  0  0  0
  139.2349   79.6385  225.1123 H   0  0  0  0  0  0  0  0  0  0  0  0
  141.9846   77.2974  223.1280 H   0  0  0  0  0  0  0  0  0  0  0  0
  140.9467   78.5421  223.8462 H   0  0  0  0  0  0  0  0  0  0  0  0
  139.2996   75.9558  223.7124 H   0  0  0  0  0  0  0  0  0  0  0  0
  137.4260   75.1312  222.3675 H   0  0  0  0  0  0  0  0  0  0  0  0
  137.0326   76.1036  220.0795 H   0  0  0  0  0  0  0  0  0  0  0  0
  138.5789   77.8852  219.2658 H   0  0  0  0  0  0  0  0  0  0  0  0
  140.3782   79.9185  220.5502 H   0  0  0  0  0  0  0  0  0  0  0  0
  141.7898   80.4325  218.5356 H   0  0  0  0  0  0  0  0  0  0  0  0
  143.3080   79.0180  216.8800 H   0  0  0  0  0  0  0  0  0  0  0  0
  144.2329   76.3703  216.7789 H   0  0  0  0  0  0  0  0  0  0  0  0
  144.1342   74.2255  218.0149 H   0  0  0  0  0  0  0  0  0  0  0  0
  142.8518   74.0159  220.1305 H   0  0  0  0  0  0  0  0  0  0  0  0
  141.6175   76.0109  221.0426 H   0  0  0  0  0  0  0  0  0  0  0  0
  1  2  2  0
  2  3  2  0
  2  4  1  0
  4  5  1  0
  5  6  2  0
  6  7  1  0
  7  8  2  0
  8  9  1  0
  9 10  2  0
  2 11  1  0
 11 12  1  0
 12 13  1  0
 13 14  2  0
 14 15  1  0
 15 16  2  0
 16 17  1  0
 17 18  2  0
 18 19  1  0
 19 20  1  0
 20 21  2  0
 21 22  1  0
 22 23  1  0
 23 24  2  0
 24 25  1  0
 25 26  2  0
 26 27  1  0
 27 28  2  0
 10  5  1  0
 19 11  1  0
 28 20  1  0
 18 13  1  0
 28 23  1  0
  4 29  1  0
  4 30  1  0
  6 31  1  0
  7 32  1  0
  8 33  1  0
  9 34  1  0
 10 35  1  0
 12 36  1  0
 12 37  1  0
 14 38  1  0
 15 39  1  0
 16 40  1  0
 17 41  1  0
 19 42  1  6
 21 43  1  0
 22 44  1  0
 24 45  1  0
 25 46  1  0
 26 47  1  0
 27 48  1  0
M  END
>  <smiles>  (17) 
O=S(=O)(Cc1ccccc1)N1Cc2ccccc2C1c1c[nH]c2ccccc12

>  <score_type>  (17) 
oracle

>  <origin>  (17) 
autodockgpu

>  <m_score__min__energy>  (17) 
-8.2400000000000002

>  <m_primary>  (17) 
energy

>  <rmsd>  (17) 
5.248704264837561

>  <m_score__min__rmsd>  (17) 
5.248704264837561

>  <meeko>  (17) 
{"free_energy": -7.13, "intermolecular_energy": -8.32, "internal_energy": -2.55, "cluster_size": 22, "cluster_id": 3, "rank_in_cluster": 10}

>  <energy>  (17) 
-8.03

>  <cluster_rmsd>  (17) 
0.02

>  <cluster>  (17) 
2

$$$$

     RDKit          3D

 48 52  0  0  0  0  0  0  0  0999 V2000
  135.1290   68.0850  223.0460 O   0  0  0  0  0  0  0  0  0  0  0  0
  135.7690   69.0750  223.9800 S   0  0  0  0  0  0  0  0  0  0  0  0
  135.4480   68.6830  225.3780 O   0  0  0  0  0  0  0  0  0  0  0  0
  135.0670   70.7010  223.7080 C   0  0  0  0  0  0  0  0  0  0  0  0
  134.1730   71.0090  224.8540 C   0  0  0  0  0  0  0  0  0  0  0  0
  133.0540   70.2150  225.0830 C   0  0  0  0  0  0  0  0  0  0  0  0
  132.2200   70.5160  226.1650 C   0  0  0  0  0  0  0  0  0  0  0  0
  132.4980   71.5870  227.0010 C   0  0  0  0  0  0  0  0  0  0  0  0
  133.6200   72.3590  226.7480 C   0  0  0  0  0  0  0  0  0  0  0  0
  134.4700   72.0870  225.6790 C   0  0  0  0  0  0  0  0  0  0  0  0
  137.4140   69.1510  223.6290 N   0  0  0  0  0  0  0  0  0  0  0  0
  137.8180   68.9540  222.2870 C   0  0  0  0  0  0  0  0  0  0  0  0
  138.9400   69.9120  222.0440 C   0  0  0  0  0  0  0  0  0  0  0  0
  139.7490   70.2020  220.9840 C   0  0  0  0  0  0  0  0  0  0  0  0
  140.7440   71.1540  220.9940 C   0  0  0  0  0  0  0  0  0  0  0  0
  140.9580   71.8840  222.1560 C   0  0  0  0  0  0  0  0  0  0  0  0
  140.1450   71.6090  223.2550 C   0  0  0  0  0  0  0  0  0  0  0  0
  139.1570   70.6490  223.2130 C   0  0  0  0  0  0  0  0  0  0  0  0
  138.1710   70.1810  224.2500 C   0  0  2  0  0  0  0  0  0  0  0  0
  138.9110   69.5370  225.3910 C   0  0  0  0  0  0  0  0  0  0  0  0
  138.8130   68.1840  225.6420 C   0  0  0  0  0  0  0  0  0  0  0  0
  139.5880   67.9390  226.7200 N   0  0  0  0  0  0  0  0  0  0  0  0
  140.1610   69.1040  227.1390 C   0  0  0  0  0  0  0  0  0  0  0  0
  141.0310   69.3760  228.1940 C   0  0  0  0  0  0  0  0  0  0  0  0
  141.4480   70.6780  228.3740 C   0  0  0  0  0  0  0  0  0  0  0  0
  141.0250   71.7100  227.5350 C   0  0  0  0  0  0  0  0  0  0  0  0
  140.1540   71.4310  226.4810 C   0  0  0  0  0  0  0  0  0  0  0  0
  139.7450   70.1330  226.3110 C   0  0  0  0  0  0  0  0  0  0  0  0
  135.8704   71.4500  223.6487 H   0  0  0  0  0  0  0  0  0  0  0  0
  134.5020   70.7219  222.7644 H   0  0  0  0  0  0  0  0  0  0  0  0
  132.8285   69.3639  224.4237 H   0  0  0  0  0  0  0  0  0  0  0  0
  131.3321   69.8951  226.3552 H   0  0  0  0  0  0  0  0  0  0  0  0
  131.8389   71.8195  227.8504 H   0  0  0  0  0  0  0  0  0  0  0  0
  133.8454   73.2091  227.4087 H   0  0  0  0  0  0  0  0  0  0  0  0
  135.3562   72.7112  225.4920 H   0  0  0  0  0  0  0  0  0  0  0  0
  138.1615   67.9194  222.1402 H   0  0  0  0  0  0  0  0  0  0  0  0
  136.9858   69.1261  221.5886 H   0  0  0  0  0  0  0  0  0  0  0  0
  139.5952   69.6343  220.0544 H   0  0  0  0  0  0  0  0  0  0  0  0
  141.3576   71.3328  220.0987 H   0  0  0  0  0  0  0  0  0  0  0  0
  141.7425   72.6533  222.2076 H   0  0  0  0  0  0  0  0  0  0  0  0
  140.2971   72.1763  224.1851 H   0  0  0  0  0  0  0  0  0  0  0  0
  137.5597   71.0191  224.6159 H   0  0  0  0  0  0  0  0  0  0  0  0
  138.2207   67.4501  225.0759 H   0  0  0  0  0  0  0  0  0  0  0  0
  139.7540   67.0030  227.1970 H   0  0  0  0  0  0  0  0  0  0  0  0
  141.3752   68.5744  228.8640 H   0  0  0  0  0  0  0  0  0  0  0  0
  142.1335   70.9098  229.2024 H   0  0  0  0  0  0  0  0  0  0  0  0
  141.3765   72.7386  227.7038 H   0  0  0  0  0  0  0  0  0  0  0  0
  139.8061   72.2278  225.8071 H   0  0  0  0  0  0  0  0  0  0  0  0
  1  2  2  0
  2  3  2  0
  2  4  1  0
  4  5  1  0
  5  6  2  0
  6  7  1  0
  7  8  2  0
  8  9  1  0
  9 10  2  0
  2 11  1  0
 11 12  1  0
 12 13  1  0
 13 14  2  0
 14 15  1  0
 15 16  2  0
 16 17  1  0
 17 18  2  0
 18 19  1  0
 19 20  1  0
 20 21  2  0
 21 22  1  0
 22 23  1  0
 23 24  2  0
 24 25  1  0
 25 26  2  0
 26 27  1  0
 27 28  2  0
 10  5  1  0
 19 11  1  0
 28 20  1  0
 18 13  1  0
 28 23  1  0
  4 29  1  0
  4 30  1  0
  6 31  1  0
  7 32  1  0
  8 33  1  0
  9 34  1  0
 10 35  1  0
 12 36  1  0
 12 37  1  0
 14 38  1  0
 15 39  1  0
 16 40  1  0
 17 41  1  0
 19 42  1  1
 21 43  1  0
 22 44  1  0
 24 45  1  0
 25 46  1  0
 26 47  1  0
 27 48  1  0
M  END
>  <smiles>  (18) 
O=S(=O)(Cc1ccccc1)N1Cc2ccccc2C1c1c[nH]c2ccccc12

>  <score_type>  (18) 
oracle

>  <origin>  (18) 
autodockgpu

>  <m_score__min__energy>  (18) 
-8.2400000000000002

>  <m_primary>  (18) 
energy

>  <rmsd>  (18) 
10.566032110380256

>  <m_score__min__rmsd>  (18) 
10.566032110380256

>  <meeko>  (18) 
{"free_energy": -8.22, "intermolecular_energy": -9.41, "internal_energy": -1.61, "cluster_size": 13, "cluster_id": 1, "rank_in_cluster": 5}

>  <energy>  (18) 
-8.02

>  <cluster_rmsd>  (18) 
0.06

>  <cluster>  (18) 
2

$$$$

     RDKit          3D

 48 52  0  0  0  0  0  0  0  0999 V2000
  135.0680   68.1720  224.3880 O   0  0  0  0  0  0  0  0  0  0  0  0
  135.6300   69.5660  224.3700 S   0  0  0  0  0  0  0  0  0  0  0  0
  135.4150   70.1810  225.7080 O   0  0  0  0  0  0  0  0  0  0  0  0
  134.7380   70.5610  223.1770 C   0  0  0  0  0  0  0  0  0  0  0  0
  135.2470   71.9530  223.2710 C   0  0  0  0  0  0  0  0  0  0  0  0
  136.0860   72.4460  222.2760 C   0  0  0  0  0  0  0  0  0  0  0  0
  136.5590   73.7580  222.3770 C   0  0  0  0  0  0  0  0  0  0  0  0
  136.2000   74.5630  223.4480 C   0  0  0  0  0  0  0  0  0  0  0  0
  135.3630   74.0460  224.4220 C   0  0  0  0  0  0  0  0  0  0  0  0
  134.8750   72.7430  224.3530 C   0  0  0  0  0  0  0  0  0  0  0  0
  137.2400   69.4850  223.8830 N   0  0  0  0  0  0  0  0  0  0  0  0
  137.5110   69.3840  222.4980 C   0  0  0  0  0  0  0  0  0  0  0  0
  138.7240   70.2230  222.2480 C   0  0  0  0  0  0  0  0  0  0  0  0
  139.4780   70.5260  221.1530 C   0  0  0  0  0  0  0  0  0  0  0  0
  140.5830   71.3490  221.1640 C   0  0  0  0  0  0  0  0  0  0  0  0
  140.9760   71.9220  222.3670 C   0  0  0  0  0  0  0  0  0  0  0  0
  140.2220   71.6300  223.5030 C   0  0  0  0  0  0  0  0  0  0  0  0
  139.1200   70.8020  223.4580 C   0  0  0  0  0  0  0  0  0  0  0  0
  138.1660   70.3470  224.5290 C   0  0  2  0  0  0  0  0  0  0  0  0
  138.9050   69.5040  225.5340 C   0  0  0  0  0  0  0  0  0  0  0  0
  138.7910   68.1290  225.5430 C   0  0  0  0  0  0  0  0  0  0  0  0
  139.5700   67.6890  226.5550 N   0  0  0  0  0  0  0  0  0  0  0  0
  140.1590   68.7560  227.1680 C   0  0  0  0  0  0  0  0  0  0  0  0
  141.0380   68.8280  228.2470 C   0  0  0  0  0  0  0  0  0  0  0  0
  141.4720   70.0730  228.6510 C   0  0  0  0  0  0  0  0  0  0  0  0
  141.0580   71.2420  228.0110 C   0  0  0  0  0  0  0  0  0  0  0  0
  140.1770   71.1630  226.9300 C   0  0  0  0  0  0  0  0  0  0  0  0
  139.7510   69.9200  226.5380 C   0  0  0  0  0  0  0  0  0  0  0  0
  134.9067   70.1692  222.1631 H   0  0  0  0  0  0  0  0  0  0  0  0
  133.6584   70.5331  223.3860 H   0  0  0  0  0  0  0  0  0  0  0  0
  136.3727   71.8132  221.4231 H   0  0  0  0  0  0  0  0  0  0  0  0
  137.2244   74.1568  221.5971 H   0  0  0  0  0  0  0  0  0  0  0  0
  136.5740   75.5948  223.5222 H   0  0  0  0  0  0  0  0  0  0  0  0
  135.0756   74.6809  225.2730 H   0  0  0  0  0  0  0  0  0  0  0  0
  134.2110   72.3484  225.1362 H   0  0  0  0  0  0  0  0  0  0  0  0
  137.7081   68.3372  222.2233 H   0  0  0  0  0  0  0  0  0  0  0  0
  136.6560   69.7259  221.8962 H   0  0  0  0  0  0  0  0  0  0  0  0
  139.1827   70.0812  220.1913 H   0  0  0  0  0  0  0  0  0  0  0  0
  141.1430   71.5484  220.2384 H   0  0  0  0  0  0  0  0  0  0  0  0
  141.8528   72.5840  222.4215 H   0  0  0  0  0  0  0  0  0  0  0  0
  140.5155   72.0741  224.4656 H   0  0  0  0  0  0  0  0  0  0  0  0
  137.6950   71.2079  225.0260 H   0  0  0  0  0  0  0  0  0  0  0  0
  138.1858   67.5133  224.8613 H   0  0  0  0  0  0  0  0  0  0  0  0
  139.7270   66.6820  226.8580 H   0  0  0  0  0  0  0  0  0  0  0  0
  141.3763   67.9169  228.7622 H   0  0  0  0  0  0  0  0  0  0  0  0
  142.1646   70.1468  229.5024 H   0  0  0  0  0  0  0  0  0  0  0  0
  141.4235   72.2204  228.3560 H   0  0  0  0  0  0  0  0  0  0  0  0
  139.8355   72.0698  226.4093 H   0  0  0  0  0  0  0  0  0  0  0  0
  1  2  2  0
  2  3  2  0
  2  4  1  0
  4  5  1  0
  5  6  2  0
  6  7  1  0
  7  8  2  0
  8  9  1  0
  9 10  2  0
  2 11  1  0
 11 12  1  0
 12 13  1  0
 13 14  2  0
 14 15  1  0
 15 16  2  0
 16 17  1  0
 17 18  2  0
 18 19  1  0
 19 20  1  0
 20 21  2  0
 21 22  1  0
 22 23  1  0
 23 24  2  0
 24 25  1  0
 25 26  2  0
 26 27  1  0
 27 28  2  0
 10  5  1  0
 19 11  1  0
 28 20  1  0
 18 13  1  0
 28 23  1  0
  4 29  1  0
  4 30  1  0
  6 31  1  0
  7 32  1  0
  8 33  1  0
  9 34  1  0
 10 35  1  0
 12 36  1  0
 12 37  1  0
 14 38  1  0
 15 39  1  0
 16 40  1  0
 17 41  1  0
 19 42  1  1
 21 43  1  0
 22 44  1  0
 24 45  1  0
 25 46  1  0
 26 47  1  0
 27 48  1  0
M  END
>  <smiles>  (19) 
O=S(=O)(Cc1ccccc1)N1Cc2ccccc2C1c1c[nH]c2ccccc12

>  <score_type>  (19) 
oracle

>  <origin>  (19) 
autodockgpu

>  <m_score__min__energy>  (19) 
-8.2400000000000002

>  <m_primary>  (19) 
energy

>  <rmsd>  (19) 
10.702544205421587

>  <m_score__min__rmsd>  (19) 
10.702544205421587

>  <meeko>  (19) 
{"free_energy": -7.52, "intermolecular_energy": -8.71, "internal_energy": -2.27, "cluster_size": 13, "cluster_id": 1, "rank_in_cluster": 13}

>  <energy>  (19) 
-8.01

>  <cluster_rmsd>  (19) 
0.08

>  <cluster>  (19) 
2

$$$$

     RDKit          3D

 48 52  0  0  0  0  0  0  0  0999 V2000
  134.9020   68.3250  224.2320 O   0  0  0  0  0  0  0  0  0  0  0  0
  135.6110   69.6150  224.5370 S   0  0  0  0  0  0  0  0  0  0  0  0
  135.4650   69.9040  225.9890 O   0  0  0  0  0  0  0  0  0  0  0  0
  134.8300   70.9580  223.6460 C   0  0  0  0  0  0  0  0  0  0  0  0
  134.2640   71.9010  224.6440 C   0  0  0  0  0  0  0  0  0  0  0  0
  134.8290   73.1640  224.7930 C   0  0  0  0  0  0  0  0  0  0  0  0
  134.2860   74.0420  225.7360 C   0  0  0  0  0  0  0  0  0  0  0  0
  133.2020   73.6680  226.5150 C   0  0  0  0  0  0  0  0  0  0  0  0
  132.6610   72.4050  226.3450 C   0  0  0  0  0  0  0  0  0  0  0  0
  133.1770   71.5060  225.4150 C   0  0  0  0  0  0  0  0  0  0  0  0
  137.2020   69.4880  224.0000 N   0  0  0  0  0  0  0  0  0  0  0  0
  137.4270   69.3650  222.6090 C   0  0  0  0  0  0  0  0  0  0  0  0
  138.6520   70.1710  222.3120 C   0  0  0  0  0  0  0  0  0  0  0  0
  139.3780   70.4430  221.1900 C   0  0  0  0  0  0  0  0  0  0  0  0
  140.5040   71.2370  221.1580 C   0  0  0  0  0  0  0  0  0  0  0  0
  140.9490   71.8120  222.3410 C   0  0  0  0  0  0  0  0  0  0  0  0
  140.2240   71.5510  223.5040 C   0  0  0  0  0  0  0  0  0  0  0  0
  139.1010   70.7520  223.5020 C   0  0  0  0  0  0  0  0  0  0  0  0
  138.1700   70.3320  224.6080 C   0  0  2  0  0  0  0  0  0  0  0  0
  138.9180   69.4810  225.5980 C   0  0  0  0  0  0  0  0  0  0  0  0
  138.8170   68.1050  225.5870 C   0  0  0  0  0  0  0  0  0  0  0  0
  139.6020   67.6570  226.5900 N   0  0  0  0  0  0  0  0  0  0  0  0
  140.1830   68.7190  227.2180 C   0  0  0  0  0  0  0  0  0  0  0  0
  141.0640   68.7830  228.2960 C   0  0  0  0  0  0  0  0  0  0  0  0
  141.4880   70.0260  228.7170 C   0  0  0  0  0  0  0  0  0  0  0  0
  141.0620   71.2010  228.0950 C   0  0  0  0  0  0  0  0  0  0  0  0
  140.1800   71.1290  227.0160 C   0  0  0  0  0  0  0  0  0  0  0  0
  139.7640   69.8890  226.6060 C   0  0  0  0  0  0  0  0  0  0  0  0
  135.5743   71.4757  223.0230 H   0  0  0  0  0  0  0  0  0  0  0  0
  134.0354   70.5716  222.9908 H   0  0  0  0  0  0  0  0  0  0  0  0
  135.6895   73.4669  224.1784 H   0  0  0  0  0  0  0  0  0  0  0  0
  134.7248   75.0429  225.8614 H   0  0  0  0  0  0  0  0  0  0  0  0
  132.7790   74.3628  227.2555 H   0  0  0  0  0  0  0  0  0  0  0  0
  131.8008   72.1036  226.9608 H   0  0  0  0  0  0  0  0  0  0  0  0
  132.7345   70.5063  225.2933 H   0  0  0  0  0  0  0  0  0  0  0  0
  137.5898   68.3107  222.3407 H   0  0  0  0  0  0  0  0  0  0  0  0
  136.5623   69.7212  222.0298 H   0  0  0  0  0  0  0  0  0  0  0  0
  139.0407   69.9967  220.2428 H   0  0  0  0  0  0  0  0  0  0  0  0
  141.0399   71.4119  220.2134 H   0  0  0  0  0  0  0  0  0  0  0  0
  141.8434   72.4520  222.3605 H   0  0  0  0  0  0  0  0  0  0  0  0
  140.5591   71.9968  224.4521 H   0  0  0  0  0  0  0  0  0  0  0  0
  137.7372   71.2095  225.1108 H   0  0  0  0  0  0  0  0  0  0  0  0
  138.2159   67.4940  224.8976 H   0  0  0  0  0  0  0  0  0  0  0  0
  139.7680   66.6470  226.8780 H   0  0  0  0  0  0  0  0  0  0  0  0
  141.4115   67.8675  228.7972 H   0  0  0  0  0  0  0  0  0  0  0  0
  142.1821   70.0936  229.5677 H   0  0  0  0  0  0  0  0  0  0  0  0
  141.4194   72.1777  228.4533 H   0  0  0  0  0  0  0  0  0  0  0  0
  139.8290   72.0402  226.5096 H   0  0  0  0  0  0  0  0  0  0  0  0
  1  2  2  0
  2  3  2  0
  2  4  1  0
  4  5  1  0
  5  6  2  0
  6  7  1  0
  7  8  2  0
  8  9  1  0
  9 10  2  0
  2 11  1  0
 11 12  1  0
 12 13  1  0
 13 14  2  0
 14 15  1  0
 15 16  2  0
 16 17  1  0
 17 18  2  0
 18 19  1  0
 19 20  1  0
 20 21  2  0
 21 22  1  0
 22 23  1  0
 23 24  2  0
 24 25  1  0
 25 26  2  0
 26 27  1  0
 27 28  2  0
 10  5  1  0
 19 11  1  0
 28 20  1  0
 18 13  1  0
 28 23  1  0
  4 29  1  0
  4 30  1  0
  6 31  1  0
  7 32  1  0
  8 33  1  0
  9 34  1  0
 10 35  1  0
 12 36  1  0
 12 37  1  0
 14 38  1  0
 15 39  1  0
 16 40  1  0
 17 41  1  0
 19 42  1  1
 21 43  1  0
 22 44  1  0
 24 45  1  0
 25 46  1  0
 26 47  1  0
 27 48  1  0
M  END
>  <smiles>  (20) 
O=S(=O)(Cc1ccccc1)N1Cc2ccccc2C1c1c[nH]c2ccccc12

>  <score_type>  (20) 
oracle

>  <origin>  (20) 
autodockgpu

>  <m_score__min__energy>  (20) 
-8.2400000000000002

>  <m_primary>  (20) 
energy

>  <rmsd>  (20) 
10.757392475131164

>  <m_score__min__rmsd>  (20) 
10.757392475131164

>  <meeko>  (20) 
{"free_energy": -8.22, "intermolecular_energy": -9.42, "internal_energy": -1.64, "cluster_size": 13, "cluster_id": 1, "rank_in_cluster": 4}

>  <energy>  (20) 
-8.01

>  <cluster_rmsd>  (20) 
0.09

>  <cluster>  (20) 
2

$$$$

     RDKit          3D

 48 52  0  0  0  0  0  0  0  0999 V2000
  143.6700   80.2810  222.9050 O   0  0  0  0  0  0  0  0  0  0  0  0
  142.2440   80.4460  222.4580 S   0  0  0  0  0  0  0  0  0  0  0  0
  142.1890   81.5290  221.4400 O   0  0  0  0  0  0  0  0  0  0  0  0
  141.2340   80.9660  223.8440 C   0  0  0  0  0  0  0  0  0  0  0  0
  139.8110   80.8900  223.4260 C   0  0  0  0  0  0  0  0  0  0  0  0
  138.9080   80.1630  224.1970 C   0  0  0  0  0  0  0  0  0  0  0  0
  137.5700   80.0990  223.7920 C   0  0  0  0  0  0  0  0  0  0  0  0
  137.1430   80.7470  222.6440 C   0  0  0  0  0  0  0  0  0  0  0  0
  138.0640   81.4630  221.8980 C   0  0  0  0  0  0  0  0  0  0  0  0
  139.4030   81.5470  222.2720 C   0  0  0  0  0  0  0  0  0  0  0  0
  141.6750   78.9520  221.9300 N   0  0  0  0  0  0  0  0  0  0  0  0
  141.2150   78.0330  222.9020 C   0  0  0  0  0  0  0  0  0  0  0  0
  140.0220   77.3560  222.3050 C   0  0  0  0  0  0  0  0  0  0  0  0
  139.1560   76.3860  222.7180 C   0  0  0  0  0  0  0  0  0  0  0  0
  138.0990   75.9100  221.9740 C   0  0  0  0  0  0  0  0  0  0  0  0
  137.8800   76.4410  220.7090 C   0  0  0  0  0  0  0  0  0  0  0  0
  138.7500   77.4350  220.2620 C   0  0  0  0  0  0  0  0  0  0  0  0
  139.7990   77.8910  221.0320 C   0  0  0  0  0  0  0  0  0  0  0  0
  140.8510   78.9340  220.7720 C   0  0  2  0  0  0  0  0  0  0  0  0
  141.7270   78.4910  219.6310 C   0  0  0  0  0  0  0  0  0  0  0  0
  142.0980   79.3610  218.6270 C   0  0  0  0  0  0  0  0  0  0  0  0
  142.8700   78.6540  217.7750 N   0  0  0  0  0  0  0  0  0  0  0  0
  142.9850   77.3730  218.2280 C   0  0  0  0  0  0  0  0  0  0  0  0
  143.6670   76.2710  217.7130 C   0  0  0  0  0  0  0  0  0  0  0  0
  143.5970   75.0810  218.4050 C   0  0  0  0  0  0  0  0  0  0  0  0
  142.8720   74.9590  219.5920 C   0  0  0  0  0  0  0  0  0  0  0  0
  142.1920   76.0660  220.1020 C   0  0  0  0  0  0  0  0  0  0  0  0
  142.2670   77.2440  219.4050 C   0  0  0  0  0  0  0  0  0  0  0  0
  141.4072   80.3010  224.7029 H   0  0  0  0  0  0  0  0  0  0  0  0
  141.4915   81.9932  224.1416 H   0  0  0  0  0  0  0  0  0  0  0  0
  139.2409   79.6472  225.1098 H   0  0  0  0  0  0  0  0  0  0  0  0
  136.8478   79.5268  224.3928 H   0  0  0  0  0  0  0  0  0  0  0  0
  136.0900   80.6935  222.3305 H   0  0  0  0  0  0  0  0  0  0  0  0
  137.7293   81.9790  220.9860 H   0  0  0  0  0  0  0  0  0  0  0  0
  140.1211   82.1205  221.6674 H   0  0  0  0  0  0  0  0  0  0  0  0
  141.9981   77.2948  223.1296 H   0  0  0  0  0  0  0  0  0  0  0  0
  140.9584   78.5405  223.8436 H   0  0  0  0  0  0  0  0  0  0  0  0
  139.3132   75.9530  223.7169 H   0  0  0  0  0  0  0  0  0  0  0  0
  137.4409   75.1245  222.3738 H   0  0  0  0  0  0  0  0  0  0  0  0
  137.0482   76.0892  220.0810 H   0  0  0  0  0  0  0  0  0  0  0  0
  138.5944   77.8691  219.2633 H   0  0  0  0  0  0  0  0  0  0  0  0
  140.3901   79.9062  220.5432 H   0  0  0  0  0  0  0  0  0  0  0  0
  141.8197   80.4215  218.5382 H   0  0  0  0  0  0  0  0  0  0  0  0
  143.3350   79.0020  216.8840 H   0  0  0  0  0  0  0  0  0  0  0  0
  144.2449   76.3493  216.7803 H   0  0  0  0  0  0  0  0  0  0  0  0
  144.1277   74.2019  218.0106 H   0  0  0  0  0  0  0  0  0  0  0  0
  142.8369   73.9958  220.1222 H   0  0  0  0  0  0  0  0  0  0  0  0
  141.6135   75.9953  221.0349 H   0  0  0  0  0  0  0  0  0  0  0  0
  1  2  2  0
  2  3  2  0
  2  4  1  0
  4  5  1  0
  5  6  2  0
  6  7  1  0
  7  8  2  0
  8  9  1  0
  9 10  2  0
  2 11  1  0
 11 12  1  0
 12 13  1  0
 13 14  2  0
 14 15  1  0
 15 16  2  0
 16 17  1  0
 17 18  2  0
 18 19  1  0
 19 20  1  0
 20 21  2  0
 21 22  1  0
 22 23  1  0
 23 24  2  0
 24 25  1  0
 25 26  2  0
 26 27  1  0
 27 28  2  0
 10  5  1  0
 19 11  1  0
 28 20  1  0
 18 13  1  0
 28 23  1  0
  4 29  1  0
  4 30  1  0
  6 31  1  0
  7 32  1  0
  8 33  1  0
  9 34  1  0
 10 35  1  0
 12 36  1  0
 12 37  1  0
 14 38  1  0
 15 39  1  0
 16 40  1  0
 17 41  1  0
 19 42  1  6
 21 43  1  0
 22 44  1  0
 24 45  1  0
 25 46  1  0
 26 47  1  0
 27 48  1  0
M  END
>  <smiles>  (21) 
O=S(=O)(Cc1ccccc1)N1Cc2ccccc2C1c1c[nH]c2ccccc12

>  <score_type>  (21) 
oracle

>  <origin>  (21) 
autodockgpu

>  <m_score__min__energy>  (21) 
-8.2400000000000002

>  <m_primary>  (21) 
energy

>  <rmsd>  (21) 
5.255563372643078

>  <m_score__min__rmsd>  (21) 
5.255563372643078

>  <meeko>  (21) 
{"free_energy": -7.14, "intermolecular_energy": -8.33, "internal_energy": -2.54, "cluster_size": 22, "cluster_id": 3, "rank_in_cluster": 1}

>  <energy>  (21) 
-8.0

>  <cluster_rmsd>  (21) 
0.07

>  <cluster>  (21) 
2

$$$$

     RDKit          3D

 48 52  0  0  0  0  0  0  0  0999 V2000
  143.6730   80.2590  222.9260 O   0  0  0  0  0  0  0  0  0  0  0  0
  142.2500   80.4350  222.4740 S   0  0  0  0  0  0  0  0  0  0  0  0
  142.2060   81.5220  221.4590 O   0  0  0  0  0  0  0  0  0  0  0  0
  141.2380   80.9590  223.8570 C   0  0  0  0  0  0  0  0  0  0  0  0
  139.8160   80.8840  223.4370 C   0  0  0  0  0  0  0  0  0  0  0  0
  138.9110   80.1540  224.2030 C   0  0  0  0  0  0  0  0  0  0  0  0
  137.5750   80.0910  223.7960 C   0  0  0  0  0  0  0  0  0  0  0  0
  137.1490   80.7440  222.6500 C   0  0  0  0  0  0  0  0  0  0  0  0
  138.0710   81.4630  221.9080 C   0  0  0  0  0  0  0  0  0  0  0  0
  139.4100   81.5460  222.2840 C   0  0  0  0  0  0  0  0  0  0  0  0
  141.6730   78.9470  221.9390 N   0  0  0  0  0  0  0  0  0  0  0  0
  141.2040   78.0280  222.9070 C   0  0  0  0  0  0  0  0  0  0  0  0
  140.0080   77.3610  222.3050 C   0  0  0  0  0  0  0  0  0  0  0  0
  139.1360   76.3950  222.7120 C   0  0  0  0  0  0  0  0  0  0  0  0
  138.0770   75.9280  221.9650 C   0  0  0  0  0  0  0  0  0  0  0  0
  137.8640   76.4650  220.7010 C   0  0  0  0  0  0  0  0  0  0  0  0
  138.7410   77.4550  220.2600 C   0  0  0  0  0  0  0  0  0  0  0  0
  139.7920   77.9010  221.0340 C   0  0  0  0  0  0  0  0  0  0  0  0
  140.8520   78.9390  220.7800 C   0  0  2  0  0  0  0  0  0  0  0  0
  141.7270   78.4940  219.6390 C   0  0  0  0  0  0  0  0  0  0  0  0
  142.1020   79.3640  218.6370 C   0  0  0  0  0  0  0  0  0  0  0  0
  142.8730   78.6550  217.7850 N   0  0  0  0  0  0  0  0  0  0  0  0
  142.9830   77.3730  218.2360 C   0  0  0  0  0  0  0  0  0  0  0  0
  143.6610   76.2700  217.7200 C   0  0  0  0  0  0  0  0  0  0  0  0
  143.5860   75.0780  218.4110 C   0  0  0  0  0  0  0  0  0  0  0  0
  142.8590   74.9570  219.5960 C   0  0  0  0  0  0  0  0  0  0  0  0
  142.1820   76.0670  220.1070 C   0  0  0  0  0  0  0  0  0  0  0  0
  142.2630   77.2460  219.4120 C   0  0  0  0  0  0  0  0  0  0  0  0
  141.4089   80.2955  224.7176 H   0  0  0  0  0  0  0  0  0  0  0  0
  141.4962   81.9865  224.1527 H   0  0  0  0  0  0  0  0  0  0  0  0
  139.2422   79.6348  225.1145 H   0  0  0  0  0  0  0  0  0  0  0  0
  136.8523   79.5156  224.3932 H   0  0  0  0  0  0  0  0  0  0  0  0
  136.0963   80.6920  222.3352 H   0  0  0  0  0  0  0  0  0  0  0  0
  137.7374   81.9824  220.9976 H   0  0  0  0  0  0  0  0  0  0  0  0
  140.1290   82.1218  221.6827 H   0  0  0  0  0  0  0  0  0  0  0  0
  141.9815   77.2838  223.1343 H   0  0  0  0  0  0  0  0  0  0  0  0
  140.9483   78.5344  223.8494 H   0  0  0  0  0  0  0  0  0  0  0  0
  139.2893   75.9568  223.7092 H   0  0  0  0  0  0  0  0  0  0  0  0
  137.4131   75.1455  222.3611 H   0  0  0  0  0  0  0  0  0  0  0  0
  137.0316   76.1206  220.0698 H   0  0  0  0  0  0  0  0  0  0  0  0
  138.5900   77.8945  219.2630 H   0  0  0  0  0  0  0  0  0  0  0  0
  140.3984   79.9153  220.5541 H   0  0  0  0  0  0  0  0  0  0  0  0
  141.8274   80.4255  218.5492 H   0  0  0  0  0  0  0  0  0  0  0  0
  143.3400   79.0030  216.8950 H   0  0  0  0  0  0  0  0  0  0  0  0
  144.2398   76.3476  216.7878 H   0  0  0  0  0  0  0  0  0  0  0  0
  144.1145   74.1977  218.0164 H   0  0  0  0  0  0  0  0  0  0  0  0
  142.8192   73.9932  220.1246 H   0  0  0  0  0  0  0  0  0  0  0  0
  141.6015   75.9972  221.0388 H   0  0  0  0  0  0  0  0  0  0  0  0
  1  2  2  0
  2  3  2  0
  2  4  1  0
  4  5  1  0
  5  6  2  0
  6  7  1  0
  7  8  2  0
  8  9  1  0
  9 10  2  0
  2 11  1  0
 11 12  1  0
 12 13  1  0
 13 14  2  0
 14 15  1  0
 15 16  2  0
 16 17  1  0
 17 18  2  0
 18 19  1  0
 19 20  1  0
 20 21  2  0
 21 22  1  0
 22 23  1  0
 23 24  2  0
 24 25  1  0
 25 26  2  0
 26 27  1  0
 27 28  2  0
 10  5  1  0
 19 11  1  0
 28 20  1  0
 18 13  1  0
 28 23  1  0
  4 29  1  0
  4 30  1  0
  6 31  1  0
  7 32  1  0
  8 33  1  0
  9 34  1  0
 10 35  1  0
 12 36  1  0
 12 37  1  0
 14 38  1  0
 15 39  1  0
 16 40  1  0
 17 41  1  0
 19 42  1  6
 21 43  1  0
 22 44  1  0
 24 45  1  0
 25 46  1  0
 26 47  1  0
 27 48  1  0
M  END
>  <smiles>  (22) 
O=S(=O)(Cc1ccccc1)N1Cc2ccccc2C1c1c[nH]c2ccccc12

>  <score_type>  (22) 
oracle

>  <origin>  (22) 
autodockgpu

>  <m_score__min__energy>  (22) 
-8.2400000000000002

>  <m_primary>  (22) 
energy

>  <rmsd>  (22) 
5.253415735307382

>  <m_score__min__rmsd>  (22) 
5.253415735307382

>  <meeko>  (22) 
{"free_energy": -7.13, "intermolecular_energy": -8.32, "internal_energy": -2.54, "cluster_size": 22, "cluster_id": 3, "rank_in_cluster": 4}

>  <energy>  (22) 
-7.98

>  <cluster_rmsd>  (22) 
0.19

>  <cluster>  (22) 
2

$$$$

     RDKit          3D

 48 52  0  0  0  0  0  0  0  0999 V2000
  143.6800   80.2600  222.9710 O   0  0  0  0  0  0  0  0  0  0  0  0
  142.2670   80.4040  222.4790 S   0  0  0  0  0  0  0  0  0  0  0  0
  142.2260   81.4930  221.4670 O   0  0  0  0  0  0  0  0  0  0  0  0
  141.2030   80.8960  223.8340 C   0  0  0  0  0  0  0  0  0  0  0  0
  139.7950   80.7780  223.3760 C   0  0  0  0  0  0  0  0  0  0  0  0
  138.9260   79.9220  224.0460 C   0  0  0  0  0  0  0  0  0  0  0  0
  137.6030   79.8190  223.6050 C   0  0  0  0  0  0  0  0  0  0  0  0
  137.1560   80.5550  222.5180 C   0  0  0  0  0  0  0  0  0  0  0  0
  138.0430   81.3990  221.8720 C   0  0  0  0  0  0  0  0  0  0  0  0
  139.3680   81.5250  222.2850 C   0  0  0  0  0  0  0  0  0  0  0  0
  141.7420   78.9050  221.9220 N   0  0  0  0  0  0  0  0  0  0  0  0
  141.3420   77.9420  222.8790 C   0  0  0  0  0  0  0  0  0  0  0  0
  140.1610   77.2360  222.2920 C   0  0  0  0  0  0  0  0  0  0  0  0
  139.3440   76.2220  222.6980 C   0  0  0  0  0  0  0  0  0  0  0  0
  138.2870   75.7250  221.9670 C   0  0  0  0  0  0  0  0  0  0  0  0
  138.0150   76.2820  220.7240 C   0  0  0  0  0  0  0  0  0  0  0  0
  138.8340   77.3210  220.2840 C   0  0  0  0  0  0  0  0  0  0  0  0
  139.8850   77.7960  221.0410 C   0  0  0  0  0  0  0  0  0  0  0  0
  140.8900   78.8870  220.7850 C   0  0  2  0  0  0  0  0  0  0  0  0
  141.7520   78.5100  219.6100 C   0  0  0  0  0  0  0  0  0  0  0  0
  142.0940   79.4310  218.6420 C   0  0  0  0  0  0  0  0  0  0  0  0
  142.8610   78.7750  217.7460 N   0  0  0  0  0  0  0  0  0  0  0  0
  143.0010   77.4760  218.1360 C   0  0  0  0  0  0  0  0  0  0  0  0
  143.6890   76.4090  217.5590 C   0  0  0  0  0  0  0  0  0  0  0  0
  143.6470   75.1870  218.1960 C   0  0  0  0  0  0  0  0  0  0  0  0
  142.9440   75.0000  219.3870 C   0  0  0  0  0  0  0  0  0  0  0  0
  142.2570   76.0720  219.9600 C   0  0  0  0  0  0  0  0  0  0  0  0
  142.3050   77.2830  219.3180 C   0  0  0  0  0  0  0  0  0  0  0  0
  141.3709   80.2375  224.6990 H   0  0  0  0  0  0  0  0  0  0  0  0
  141.4218   81.9308  224.1363 H   0  0  0  0  0  0  0  0  0  0  0  0
  139.2744   79.3356  224.9090 H   0  0  0  0  0  0  0  0  0  0  0  0
  136.9077   79.1453  224.1272 H   0  0  0  0  0  0  0  0  0  0  0  0
  136.1144   80.4696  222.1749 H   0  0  0  0  0  0  0  0  0  0  0  0
  137.6927   81.9857  221.0099 H   0  0  0  0  0  0  0  0  0  0  0  0
  140.0596   82.2000  221.7596 H   0  0  0  0  0  0  0  0  0  0  0  0
  142.1582   77.2288  223.0665 H   0  0  0  0  0  0  0  0  0  0  0  0
  141.0902   78.4130  223.8406 H   0  0  0  0  0  0  0  0  0  0  0  0
  139.5434   75.7682  223.6800 H   0  0  0  0  0  0  0  0  0  0  0  0
  137.6706   74.9031  222.3602 H   0  0  0  0  0  0  0  0  0  0  0  0
  137.1811   75.9156  220.1072 H   0  0  0  0  0  0  0  0  0  0  0  0
  138.6359   77.7763  219.3024 H   0  0  0  0  0  0  0  0  0  0  0  0
  140.3869   79.8467  220.5959 H   0  0  0  0  0  0  0  0  0  0  0  0
  141.7999   80.4904  218.6071 H   0  0  0  0  0  0  0  0  0  0  0  0
  143.3050   79.1710  216.8640 H   0  0  0  0  0  0  0  0  0  0  0  0
  144.2497   76.5387  216.6216 H   0  0  0  0  0  0  0  0  0  0  0  0
  144.1831   74.3349  217.7527 H   0  0  0  0  0  0  0  0  0  0  0  0
  142.9312   74.0128  219.8720 H   0  0  0  0  0  0  0  0  0  0  0  0
  141.6947   75.9491  220.8974 H   0  0  0  0  0  0  0  0  0  0  0  0
  1  2  2  0
  2  3  2  0
  2  4  1  0
  4  5  1  0
  5  6  2  0
  6  7  1  0
  7  8  2  0
  8  9  1  0
  9 10  2  0
  2 11  1  0
 11 12  1  0
 12 13  1  0
 13 14  2  0
 14 15  1  0
 15 16  2  0
 16 17  1  0
 17 18  2  0
 18 19  1  0
 19 20  1  0
 20 21  2  0
 21 22  1  0
 22 23  1  0
 23 24  2  0
 24 25  1  0
 25 26  2  0
 26 27  1  0
 27 28  2  0
 10  5  1  0
 19 11  1  0
 28 20  1  0
 18 13  1  0
 28 23  1  0
  4 29  1  0
  4 30  1  0
  6 31  1  0
  7 32  1  0
  8 33  1  0
  9 34  1  0
 10 35  1  0
 12 36  1  0
 12 37  1  0
 14 38  1  0
 15 39  1  0
 16 40  1  0
 17 41  1  0
 19 42  1  6
 21 43  1  0
 22 44  1  0
 24 45  1  0
 25 46  1  0
 26 47  1  0
 27 48  1  0
M  END
>  <smiles>  (23) 
O=S(=O)(Cc1ccccc1)N1Cc2ccccc2C1c1c[nH]c2ccccc12

>  <score_type>  (23) 
oracle

>  <origin>  (23) 
autodockgpu

>  <m_score__min__energy>  (23) 
-8.2400000000000002

>  <m_primary>  (23) 
energy

>  <rmsd>  (23) 
5.238168997863709

>  <m_score__min__rmsd>  (23) 
5.238168997863709

>  <meeko>  (23) 
{"free_energy": -7.06, "intermolecular_energy": -8.26, "internal_energy": -2.56, "cluster_size": 22, "cluster_id": 3, "rank_in_cluster": 20}

>  <energy>  (23) 
-7.98

>  <cluster_rmsd>  (23) 
0.35

>  <cluster>  (23) 
2

$$$$

     RDKit          3D

 48 52  0  0  0  0  0  0  0  0999 V2000
  143.6670   80.2740  222.9140 O   0  0  0  0  0  0  0  0  0  0  0  0
  142.2420   80.4460  222.4690 S   0  0  0  0  0  0  0  0  0  0  0  0
  142.1900   81.5360  221.4570 O   0  0  0  0  0  0  0  0  0  0  0  0
  141.2340   80.9610  223.8580 C   0  0  0  0  0  0  0  0  0  0  0  0
  139.8100   80.8840  223.4430 C   0  0  0  0  0  0  0  0  0  0  0  0
  139.3920   81.5550  222.2970 C   0  0  0  0  0  0  0  0  0  0  0  0
  138.0490   81.4740  221.9170 C   0  0  0  0  0  0  0  0  0  0  0  0
  137.1410   80.7380  222.6640 C   0  0  0  0  0  0  0  0  0  0  0  0
  137.5870   80.0800  223.7990 C   0  0  0  0  0  0  0  0  0  0  0  0
  138.9180   80.1410  224.2050 C   0  0  0  0  0  0  0  0  0  0  0  0
  141.6680   78.9580  221.9310 N   0  0  0  0  0  0  0  0  0  0  0  0
  141.2020   78.0360  222.8980 C   0  0  0  0  0  0  0  0  0  0  0  0
  140.0070   77.3670  222.2950 C   0  0  0  0  0  0  0  0  0  0  0  0
  139.1370   76.3990  222.7000 C   0  0  0  0  0  0  0  0  0  0  0  0
  138.0790   75.9300  221.9520 C   0  0  0  0  0  0  0  0  0  0  0  0
  137.8650   76.4690  220.6900 C   0  0  0  0  0  0  0  0  0  0  0  0
  138.7400   77.4620  220.2490 C   0  0  0  0  0  0  0  0  0  0  0  0
  139.7890   77.9090  221.0240 C   0  0  0  0  0  0  0  0  0  0  0  0
  140.8470   78.9500  220.7720 C   0  0  2  0  0  0  0  0  0  0  0  0
  141.7230   78.5090  219.6300 C   0  0  0  0  0  0  0  0  0  0  0  0
  142.0920   79.3800  218.6270 C   0  0  0  0  0  0  0  0  0  0  0  0
  142.8650   78.6750  217.7740 N   0  0  0  0  0  0  0  0  0  0  0  0
  142.9820   77.3930  218.2260 C   0  0  0  0  0  0  0  0  0  0  0  0
  143.6660   76.2930  217.7100 C   0  0  0  0  0  0  0  0  0  0  0  0
  143.5980   75.1020  218.4010 C   0  0  0  0  0  0  0  0  0  0  0  0
  142.8730   74.9780  219.5880 C   0  0  0  0  0  0  0  0  0  0  0  0
  142.1910   76.0840  220.0990 C   0  0  0  0  0  0  0  0  0  0  0  0
  142.2650   77.2630  219.4030 C   0  0  0  0  0  0  0  0  0  0  0  0
  141.4100   80.2941  224.7149 H   0  0  0  0  0  0  0  0  0  0  0  0
  141.4906   81.9879  224.1573 H   0  0  0  0  0  0  0  0  0  0  0  0
  140.1072   82.1397  221.6999 H   0  0  0  0  0  0  0  0  0  0  0  0
  137.7078   82.0009  221.0137 H   0  0  0  0  0  0  0  0  0  0  0  0
  136.0854   80.6777  222.3607 H   0  0  0  0  0  0  0  0  0  0  0  0
  136.8714   79.4943  224.3948 H   0  0  0  0  0  0  0  0  0  0  0  0
  139.2550   79.6125  225.1089 H   0  0  0  0  0  0  0  0  0  0  0  0
  141.9815   77.2933  223.1236 H   0  0  0  0  0  0  0  0  0  0  0  0
  140.9457   78.5399  223.8416 H   0  0  0  0  0  0  0  0  0  0  0  0
  139.2907   75.9601  223.6969 H   0  0  0  0  0  0  0  0  0  0  0  0
  137.4174   75.1447  222.3464 H   0  0  0  0  0  0  0  0  0  0  0  0
  137.0327   76.1242  220.0588 H   0  0  0  0  0  0  0  0  0  0  0  0
  138.5883   77.9019  219.2522 H   0  0  0  0  0  0  0  0  0  0  0  0
  140.3912   79.9257  220.5480 H   0  0  0  0  0  0  0  0  0  0  0  0
  141.8118   80.4401  218.5392 H   0  0  0  0  0  0  0  0  0  0  0  0
  143.3290   79.0240  216.8830 H   0  0  0  0  0  0  0  0  0  0  0  0
  144.2438   76.3733  216.7775 H   0  0  0  0  0  0  0  0  0  0  0  0
  144.1302   74.2241  218.0059 H   0  0  0  0  0  0  0  0  0  0  0  0
  142.8394   74.0144  220.1175 H   0  0  0  0  0  0  0  0  0  0  0  0
  141.6120   76.0117  221.0315 H   0  0  0  0  0  0  0  0  0  0  0  0
  1  2  2  0
  2  3  2  0
  2  4  1  0
  4  5  1  0
  5  6  2  0
  6  7  1  0
  7  8  2  0
  8  9  1  0
  9 10  2  0
  2 11  1  0
 11 12  1  0
 12 13  1  0
 13 14  2  0
 14 15  1  0
 15 16  2  0
 16 17  1  0
 17 18  2  0
 18 19  1  0
 19 20  1  0
 20 21  2  0
 21 22  1  0
 22 23  1  0
 23 24  2  0
 24 25  1  0
 25 26  2  0
 26 27  1  0
 27 28  2  0
 10  5  1  0
 19 11  1  0
 28 20  1  0
 18 13  1  0
 28 23  1  0
  4 29  1  0
  4 30  1  0
  6 31  1  0
  7 32  1  0
  8 33  1  0
  9 34  1  0
 10 35  1  0
 12 36  1  0
 12 37  1  0
 14 38  1  0
 15 39  1  0
 16 40  1  0
 17 41  1  0
 19 42  1  6
 21 43  1  0
 22 44  1  0
 24 45  1  0
 25 46  1  0
 26 47  1  0
 27 48  1  0
M  END
>  <smiles>  (24) 
O=S(=O)(Cc1ccccc1)N1Cc2ccccc2C1c1c[nH]c2ccccc12

>  <score_type>  (24) 
oracle

>  <origin>  (24) 
autodockgpu

>  <m_score__min__energy>  (24) 
-8.2400000000000002

>  <m_primary>  (24) 
energy

>  <rmsd>  (24) 
5.245656734404711

>  <m_score__min__rmsd>  (24) 
5.245656734404711

>  <meeko>  (24) 
{"free_energy": -7.13, "intermolecular_energy": -8.32, "internal_energy": -2.54, "cluster_size": 22, "cluster_id": 3, "rank_in_cluster": 5}

>  <energy>  (24) 
-7.95

>  <cluster_rmsd>  (24) 
0.32

>  <cluster>  (24) 
2

$$$$

     RDKit          3D

 48 52  0  0  0  0  0  0  0  0999 V2000
  135.0400   68.1580  224.2130 O   0  0  0  0  0  0  0  0  0  0  0  0
  135.6480   69.5150  224.4300 S   0  0  0  0  0  0  0  0  0  0  0  0
  135.4370   69.9070  225.8490 O   0  0  0  0  0  0  0  0  0  0  0  0
  134.8030   70.7240  223.4130 C   0  0  0  0  0  0  0  0  0  0  0  0
  134.7110   71.9880  224.1860 C   0  0  0  0  0  0  0  0  0  0  0  0
  135.5530   73.0500  223.8670 C   0  0  0  0  0  0  0  0  0  0  0  0
  135.4570   74.2360  224.6030 C   0  0  0  0  0  0  0  0  0  0  0  0
  134.5400   74.3590  225.6360 C   0  0  0  0  0  0  0  0  0  0  0  0
  133.7160   73.2860  225.9300 C   0  0  0  0  0  0  0  0  0  0  0  0
  133.7860   72.0910  225.2180 C   0  0  0  0  0  0  0  0  0  0  0  0
  137.2590   69.4610  223.9460 N   0  0  0  0  0  0  0  0  0  0  0  0
  137.5350   69.3700  222.5610 C   0  0  0  0  0  0  0  0  0  0  0  0
  138.7350   70.2290  222.3180 C   0  0  0  0  0  0  0  0  0  0  0  0
  139.4880   70.5480  221.2260 C   0  0  0  0  0  0  0  0  0  0  0  0
  140.5800   71.3870  221.2430 C   0  0  0  0  0  0  0  0  0  0  0  0
  140.9610   71.9610  222.4490 C   0  0  0  0  0  0  0  0  0  0  0  0
  140.2100   71.6520  223.5830 C   0  0  0  0  0  0  0  0  0  0  0  0
  139.1200   70.8080  223.5310 C   0  0  0  0  0  0  0  0  0  0  0  0
  138.1710   70.3340  224.5980 C   0  0  2  0  0  0  0  0  0  0  0  0
  138.9200   69.4970  225.6010 C   0  0  0  0  0  0  0  0  0  0  0  0
  138.8110   68.1220  225.6170 C   0  0  0  0  0  0  0  0  0  0  0  0
  139.5990   67.6890  226.6240 N   0  0  0  0  0  0  0  0  0  0  0  0
  140.1890   68.7600  227.2280 C   0  0  0  0  0  0  0  0  0  0  0  0
  141.0760   68.8400  228.3000 C   0  0  0  0  0  0  0  0  0  0  0  0
  141.5100   70.0880  228.6950 C   0  0  0  0  0  0  0  0  0  0  0  0
  141.0870   71.2530  228.0530 C   0  0  0  0  0  0  0  0  0  0  0  0
  140.1980   71.1660  226.9800 C   0  0  0  0  0  0  0  0  0  0  0  0
  139.7730   69.9200  226.5960 C   0  0  0  0  0  0  0  0  0  0  0  0
  135.3699   70.8937  222.4857 H   0  0  0  0  0  0  0  0  0  0  0  0
  133.7981   70.3645  223.1464 H   0  0  0  0  0  0  0  0  0  0  0  0
  136.2825   72.9580  223.0489 H   0  0  0  0  0  0  0  0  0  0  0  0
  136.1172   75.0814  224.3592 H   0  0  0  0  0  0  0  0  0  0  0  0
  134.4685   75.2934  226.2121 H   0  0  0  0  0  0  0  0  0  0  0  0
  132.9864   73.3798  226.7479 H   0  0  0  0  0  0  0  0  0  0  0  0
  133.1244   71.2482  225.4668 H   0  0  0  0  0  0  0  0  0  0  0  0
  137.7493   68.3277  222.2825 H   0  0  0  0  0  0  0  0  0  0  0  0
  136.6763   69.7007  221.9583 H   0  0  0  0  0  0  0  0  0  0  0  0
  139.2021   70.1026  220.2617 H   0  0  0  0  0  0  0  0  0  0  0  0
  141.1394   71.5983  220.3197 H   0  0  0  0  0  0  0  0  0  0  0  0
  141.8267   72.6371  222.5079 H   0  0  0  0  0  0  0  0  0  0  0  0
  140.4957   72.0949  224.5485 H   0  0  0  0  0  0  0  0  0  0  0  0
  137.6867   71.1857  225.0980 H   0  0  0  0  0  0  0  0  0  0  0  0
  138.2026   67.5013  224.9428 H   0  0  0  0  0  0  0  0  0  0  0  0
  139.7610   66.6840  226.9300 H   0  0  0  0  0  0  0  0  0  0  0  0
  141.4206   67.9323  228.8170 H   0  0  0  0  0  0  0  0  0  0  0  0
  142.2095   70.1676  229.5402 H   0  0  0  0  0  0  0  0  0  0  0  0
  141.4521   72.2342  228.3906 H   0  0  0  0  0  0  0  0  0  0  0  0
  139.8491   72.0695  226.4585 H   0  0  0  0  0  0  0  0  0  0  0  0
  1  2  2  0
  2  3  2  0
  2  4  1  0
  4  5  1  0
  5  6  2  0
  6  7  1  0
  7  8  2  0
  8  9  1  0
  9 10  2  0
  2 11  1  0
 11 12  1  0
 12 13  1  0
 13 14  2  0
 14 15  1  0
 15 16  2  0
 16 17  1  0
 17 18  2  0
 18 19  1  0
 19 20  1  0
 20 21  2  0
 21 22  1  0
 22 23  1  0
 23 24  2  0
 24 25  1  0
 25 26  2  0
 26 27  1  0
 27 28  2  0
 10  5  1  0
 19 11  1  0
 28 20  1  0
 18 13  1  0
 28 23  1  0
  4 29  1  0
  4 30  1  0
  6 31  1  0
  7 32  1  0
  8 33  1  0
  9 34  1  0
 10 35  1  0
 12 36  1  0
 12 37  1  0
 14 38  1  0
 15 39  1  0
 16 40  1  0
 17 41  1  0
 19 42  1  1
 21 43  1  0
 22 44  1  0
 24 45  1  0
 25 46  1  0
 26 47  1  0
 27 48  1  0
M  END
>  <smiles>  (25) 
O=S(=O)(Cc1ccccc1)N1Cc2ccccc2C1c1c[nH]c2ccccc12

>  <score_type>  (25) 
oracle

>  <origin>  (25) 
autodockgpu

>  <m_score__min__energy>  (25) 
-8.2400000000000002

>  <m_primary>  (25) 
energy

>  <rmsd>  (25) 
10.722086352126384

>  <m_score__min__rmsd>  (25) 
10.722086352126384

>  <meeko>  (25) 
{"free_energy": -8.15, "intermolecular_energy": -9.35, "internal_energy": -1.85, "cluster_size": 13, "cluster_id": 1, "rank_in_cluster": 8}

>  <energy>  (25) 
-7.14

>  <cluster_rmsd>  (25) 
0.0

>  <cluster>  (25) 
3

$$$$

     RDKit          3D

 48 52  0  0  0  0  0  0  0  0999 V2000
  134.8070   68.4090  224.1320 O   0  0  0  0  0  0  0  0  0  0  0  0
  135.5850   69.6000  224.6180 S   0  0  0  0  0  0  0  0  0  0  0  0
  135.4600   69.6760  226.0980 O   0  0  0  0  0  0  0  0  0  0  0  0
  134.8730   71.1000  223.9460 C   0  0  0  0  0  0  0  0  0  0  0  0
  134.0720   71.7450  225.0170 C   0  0  0  0  0  0  0  0  0  0  0  0
  133.0530   71.0280  225.6380 C   0  0  0  0  0  0  0  0  0  0  0  0
  132.3060   71.6470  226.6450 C   0  0  0  0  0  0  0  0  0  0  0  0
  132.5700   72.9540  227.0260 C   0  0  0  0  0  0  0  0  0  0  0  0
  133.5900   73.6420  226.3900 C   0  0  0  0  0  0  0  0  0  0  0  0
  134.3530   73.0560  225.3830 C   0  0  0  0  0  0  0  0  0  0  0  0
  137.1640   69.4720  224.0500 N   0  0  0  0  0  0  0  0  0  0  0  0
  137.3620   69.3420  222.6550 C   0  0  0  0  0  0  0  0  0  0  0  0
  138.5790   70.1470  222.3280 C   0  0  0  0  0  0  0  0  0  0  0  0
  139.2830   70.4140  221.1910 C   0  0  0  0  0  0  0  0  0  0  0  0
  140.4060   71.2090  221.1320 C   0  0  0  0  0  0  0  0  0  0  0  0
  140.8740   71.7920  222.3020 C   0  0  0  0  0  0  0  0  0  0  0  0
  140.1740   71.5360  223.4810 C   0  0  0  0  0  0  0  0  0  0  0  0
  139.0510   70.7350  223.5060 C   0  0  0  0  0  0  0  0  0  0  0  0
  138.1440   70.3200  224.6330 C   0  0  2  0  0  0  0  0  0  0  0  0
  138.9130   69.4750  225.6120 C   0  0  0  0  0  0  0  0  0  0  0  0
  138.8250   68.0990  225.6010 C   0  0  0  0  0  0  0  0  0  0  0  0
  139.6260   67.6570  226.5940 N   0  0  0  0  0  0  0  0  0  0  0  0
  140.2060   68.7240  227.2150 C   0  0  0  0  0  0  0  0  0  0  0  0
  141.1000   68.7950  228.2820 C   0  0  0  0  0  0  0  0  0  0  0  0
  141.5180   70.0420  228.6980 C   0  0  0  0  0  0  0  0  0  0  0  0
  141.0730   71.2130  228.0830 C   0  0  0  0  0  0  0  0  0  0  0  0
  140.1770   71.1340  227.0150 C   0  0  0  0  0  0  0  0  0  0  0  0
  139.7670   69.8900  226.6100 C   0  0  0  0  0  0  0  0  0  0  0  0
  135.6736   71.7792  223.6177 H   0  0  0  0  0  0  0  0  0  0  0  0
  134.2368   70.8672  223.0794 H   0  0  0  0  0  0  0  0  0  0  0  0
  132.8388   69.9907  225.3411 H   0  0  0  0  0  0  0  0  0  0  0  0
  131.4981   71.0897  227.1417 H   0  0  0  0  0  0  0  0  0  0  0  0
  131.9797   73.4358  227.8194 H   0  0  0  0  0  0  0  0  0  0  0  0
  133.8032   74.6791  226.6882 H   0  0  0  0  0  0  0  0  0  0  0  0
  135.1593   73.6177  224.8888 H   0  0  0  0  0  0  0  0  0  0  0  0
  137.5207   68.2864  222.3894 H   0  0  0  0  0  0  0  0  0  0  0  0
  136.4855   69.6949  222.0918 H   0  0  0  0  0  0  0  0  0  0  0  0
  138.9282   69.9617  220.2532 H   0  0  0  0  0  0  0  0  0  0  0  0
  140.9226   71.3789  220.1758 H   0  0  0  0  0  0  0  0  0  0  0  0
  141.7670   72.4343  222.2992 H   0  0  0  0  0  0  0  0  0  0  0  0
  140.5283   71.9867  224.4198 H   0  0  0  0  0  0  0  0  0  0  0  0
  137.7212   71.1999  225.1399 H   0  0  0  0  0  0  0  0  0  0  0  0
  138.2214   67.4830  224.9181 H   0  0  0  0  0  0  0  0  0  0  0  0
  139.8060   66.6480  226.8780 H   0  0  0  0  0  0  0  0  0  0  0  0
  141.4620   67.8825  228.7783 H   0  0  0  0  0  0  0  0  0  0  0  0
  142.2229   70.1156  229.5393 H   0  0  0  0  0  0  0  0  0  0  0  0
  141.4261   72.1926  228.4375 H   0  0  0  0  0  0  0  0  0  0  0  0
  139.8112   72.0423  226.5138 H   0  0  0  0  0  0  0  0  0  0  0  0
  1  2  2  0
  2  3  2  0
  2  4  1  0
  4  5  1  0
  5  6  2  0
  6  7  1  0
  7  8  2  0
  8  9  1  0
  9 10  2  0
  2 11  1  0
 11 12  1  0
 12 13  1  0
 13 14  2  0
 14 15  1  0
 15 16  2  0
 16 17  1  0
 17 18  2  0
 18 19  1  0
 19 20  1  0
 20 21  2  0
 21 22  1  0
 22 23  1  0
 23 24  2  0
 24 25  1  0
 25 26  2  0
 26 27  1  0
 27 28  2  0
 10  5  1  0
 19 11  1  0
 28 20  1  0
 18 13  1  0
 28 23  1  0
  4 29  1  0
  4 30  1  0
  6 31  1  0
  7 32  1  0
  8 33  1  0
  9 34  1  0
 10 35  1  0
 12 36  1  0
 12 37  1  0
 14 38  1  0
 15 39  1  0
 16 40  1  0
 17 41  1  0
 19 42  1  1
 21 43  1  0
 22 44  1  0
 24 45  1  0
 25 46  1  0
 26 47  1  0
 27 48  1  0
M  END
>  <smiles>  (26) 
O=S(=O)(Cc1ccccc1)N1Cc2ccccc2C1c1c[nH]c2ccccc12

>  <score_type>  (26) 
oracle

>  <origin>  (26) 
autodockgpu

>  <m_score__min__energy>  (26) 
-8.2400000000000002

>  <m_primary>  (26) 
energy

>  <rmsd>  (26) 
10.763614591315617

>  <m_score__min__rmsd>  (26) 
10.763614591315617

>  <meeko>  (26) 
{"free_energy": -8.24, "intermolecular_energy": -9.43, "internal_energy": -1.55, "cluster_size": 13, "cluster_id": 1, "rank_in_cluster": 2}

>  <energy>  (26) 
-7.13

>  <cluster_rmsd>  (26) 
0.02

>  <cluster>  (26) 
3

$$$$

     RDKit          3D

 48 52  0  0  0  0  0  0  0  0999 V2000
  143.6650   80.2740  222.9370 O   0  0  0  0  0  0  0  0  0  0  0  0
  142.2440   80.4460  222.4800 S   0  0  0  0  0  0  0  0  0  0  0  0
  142.2010   81.5320  221.4640 O   0  0  0  0  0  0  0  0  0  0  0  0
  141.2260   80.9680  223.8590 C   0  0  0  0  0  0  0  0  0  0  0  0
  139.8050   80.8790  223.4360 C   0  0  0  0  0  0  0  0  0  0  0  0
  138.9040   80.1490  224.2070 C   0  0  0  0  0  0  0  0  0  0  0  0
  137.5690   80.0730  223.7980 C   0  0  0  0  0  0  0  0  0  0  0  0
  137.1400   80.7130  222.6450 C   0  0  0  0  0  0  0  0  0  0  0  0
  138.0590   81.4330  221.8990 C   0  0  0  0  0  0  0  0  0  0  0  0
  139.3960   81.5280  222.2770 C   0  0  0  0  0  0  0  0  0  0  0  0
  141.6730   78.9560  221.9440 N   0  0  0  0  0  0  0  0  0  0  0  0
  141.2120   78.0330  222.9110 C   0  0  0  0  0  0  0  0  0  0  0  0
  140.0180   77.3600  222.3120 C   0  0  0  0  0  0  0  0  0  0  0  0
  139.1520   76.3890  222.7190 C   0  0  0  0  0  0  0  0  0  0  0  0
  138.0940   75.9180  221.9740 C   0  0  0  0  0  0  0  0  0  0  0  0
  137.8740   76.4560  220.7120 C   0  0  0  0  0  0  0  0  0  0  0  0
  138.7450   77.4520  220.2700 C   0  0  0  0  0  0  0  0  0  0  0  0
  139.7950   77.9020  221.0420 C   0  0  0  0  0  0  0  0  0  0  0  0
  140.8490   78.9460  220.7860 C   0  0  2  0  0  0  0  0  0  0  0  0
  141.7230   78.5080  219.6430 C   0  0  0  0  0  0  0  0  0  0  0  0
  142.0950   79.3830  218.6440 C   0  0  0  0  0  0  0  0  0  0  0  0
  142.8660   78.6790  217.7870 N   0  0  0  0  0  0  0  0  0  0  0  0
  142.9780   77.3950  218.2320 C   0  0  0  0  0  0  0  0  0  0  0  0
  143.6570   76.2950  217.7100 C   0  0  0  0  0  0  0  0  0  0  0  0
  143.5850   75.1010  218.3950 C   0  0  0  0  0  0  0  0  0  0  0  0
  142.8600   74.9730  219.5810 C   0  0  0  0  0  0  0  0  0  0  0  0
  142.1830   76.0790  220.0990 C   0  0  0  0  0  0  0  0  0  0  0  0
  142.2600   77.2610  219.4090 C   0  0  0  0  0  0  0  0  0  0  0  0
  141.4008   80.3099  224.7229 H   0  0  0  0  0  0  0  0  0  0  0  0
  141.4753   81.9988  224.1510 H   0  0  0  0  0  0  0  0  0  0  0  0
  139.2373   79.6401  225.1235 H   0  0  0  0  0  0  0  0  0  0  0  0
  136.8493   79.4977  224.3990 H   0  0  0  0  0  0  0  0  0  0  0  0
  136.0885   80.6501  222.3283 H   0  0  0  0  0  0  0  0  0  0  0  0
  137.7237   81.9431  220.9839 H   0  0  0  0  0  0  0  0  0  0  0  0
  140.1121   82.1036  221.6720 H   0  0  0  0  0  0  0  0  0  0  0  0
  141.9944   77.2928  223.1346 H   0  0  0  0  0  0  0  0  0  0  0  0
  140.9560   78.5366  223.8548 H   0  0  0  0  0  0  0  0  0  0  0  0
  139.3099   75.9498  223.7151 H   0  0  0  0  0  0  0  0  0  0  0  0
  137.4357   75.1309  222.3704 H   0  0  0  0  0  0  0  0  0  0  0  0
  137.0413   76.1084  220.0828 H   0  0  0  0  0  0  0  0  0  0  0  0
  138.5892   77.8923  219.2741 H   0  0  0  0  0  0  0  0  0  0  0  0
  140.3899   79.9202  220.5619 H   0  0  0  0  0  0  0  0  0  0  0  0
  141.8185   80.4445  218.5614 H   0  0  0  0  0  0  0  0  0  0  0  0
  143.3310   79.0320  216.8980 H   0  0  0  0  0  0  0  0  0  0  0  0
  144.2342   76.3776  216.7773 H   0  0  0  0  0  0  0  0  0  0  0  0
  144.1143   74.2234  217.9954 H   0  0  0  0  0  0  0  0  0  0  0  0
  142.8222   74.0063  220.1046 H   0  0  0  0  0  0  0  0  0  0  0  0
  141.6055   76.0041  221.0322 H   0  0  0  0  0  0  0  0  0  0  0  0
  1  2  2  0
  2  3  2  0
  2  4  1  0
  4  5  1  0
  5  6  2  0
  6  7  1  0
  7  8  2  0
  8  9  1  0
  9 10  2  0
  2 11  1  0
 11 12  1  0
 12 13  1  0
 13 14  2  0
 14 15  1  0
 15 16  2  0
 16 17  1  0
 17 18  2  0
 18 19  1  0
 19 20  1  0
 20 21  2  0
 21 22  1  0
 22 23  1  0
 23 24  2  0
 24 25  1  0
 25 26  2  0
 26 27  1  0
 27 28  2  0
 10  5  1  0
 19 11  1  0
 28 20  1  0
 18 13  1  0
 28 23  1  0
  4 29  1  0
  4 30  1  0
  6 31  1  0
  7 32  1  0
  8 33  1  0
  9 34  1  0
 10 35  1  0
 12 36  1  0
 12 37  1  0
 14 38  1  0
 15 39  1  0
 16 40  1  0
 17 41  1  0
 19 42  1  6
 21 43  1  0
 22 44  1  0
 24 45  1  0
 25 46  1  0
 26 47  1  0
 27 48  1  0
M  END
>  <smiles>  (27) 
O=S(=O)(Cc1ccccc1)N1Cc2ccccc2C1c1c[nH]c2ccccc12

>  <score_type>  (27) 
oracle

>  <origin>  (27) 
autodockgpu

>  <m_score__min__energy>  (27) 
-8.2400000000000002

>  <m_primary>  (27) 
energy

>  <rmsd>  (27) 
5.24692797379678

>  <m_score__min__rmsd>  (27) 
5.24692797379678

>  <meeko>  (27) 
{"free_energy": -7.13, "intermolecular_energy": -8.33, "internal_energy": -2.54, "cluster_size": 22, "cluster_id": 3, "rank_in_cluster": 2}

>  <energy>  (27) 
-7.13

>  <cluster_rmsd>  (27) 
0.02

>  <cluster>  (27) 
3

$$$$

     RDKit          3D

 48 52  0  0  0  0  0  0  0  0999 V2000
  142.0650   78.7070  224.0610 O   0  0  0  0  0  0  0  0  0  0  0  0
  142.2530   79.7900  223.0350 S   0  0  0  0  0  0  0  0  0  0  0  0
  143.6950   80.1530  222.9890 O   0  0  0  0  0  0  0  0  0  0  0  0
  141.3500   81.2550  223.5310 C   0  0  0  0  0  0  0  0  0  0  0  0
  139.9070   81.0110  223.2750 C   0  0  0  0  0  0  0  0  0  0  0  0
  139.2270   81.8150  222.3640 C   0  0  0  0  0  0  0  0  0  0  0  0
  137.8690   81.5750  222.1320 C   0  0  0  0  0  0  0  0  0  0  0  0
  137.2030   80.5550  222.7940 C   0  0  0  0  0  0  0  0  0  0  0  0
  137.9060   79.7710  223.6940 C   0  0  0  0  0  0  0  0  0  0  0  0
  139.2590   79.9830  223.9490 C   0  0  0  0  0  0  0  0  0  0  0  0
  141.6140   79.2540  221.5720 N   0  0  0  0  0  0  0  0  0  0  0  0
  141.7510   80.0900  220.4400 C   0  0  0  0  0  0  0  0  0  0  0  0
  142.0250   79.1840  219.2820 C   0  0  0  0  0  0  0  0  0  0  0  0
  142.2360   79.3630  217.9460 C   0  0  0  0  0  0  0  0  0  0  0  0
  142.4760   78.3470  217.0470 C   0  0  0  0  0  0  0  0  0  0  0  0
  142.5100   77.0380  217.5110 C   0  0  0  0  0  0  0  0  0  0  0  0
  142.2980   76.8270  218.8730 C   0  0  0  0  0  0  0  0  0  0  0  0
  142.0610   77.8660  219.7480 C   0  0  0  0  0  0  0  0  0  0  0  0
  141.8080   77.8880  221.2310 C   0  0  2  0  0  0  0  0  0  0  0  0
  140.5110   77.1850  221.5310 C   0  0  0  0  0  0  0  0  0  0  0  0
  140.4720   76.0440  222.3060 C   0  0  0  0  0  0  0  0  0  0  0  0
  139.1760   75.6750  222.3760 N   0  0  0  0  0  0  0  0  0  0  0  0
  138.4160   76.5570  221.6650 C   0  0  0  0  0  0  0  0  0  0  0  0
  137.0430   76.6120  221.4340 C   0  0  0  0  0  0  0  0  0  0  0  0
  136.5540   77.6420  220.6580 C   0  0  0  0  0  0  0  0  0  0  0  0
  137.3930   78.6150  220.1100 C   0  0  0  0  0  0  0  0  0  0  0  0
  138.7670   78.5530  220.3460 C   0  0  0  0  0  0  0  0  0  0  0  0
  139.2420   77.5250  221.1180 C   0  0  0  0  0  0  0  0  0  0  0  0
  141.5120   81.4492  224.6015 H   0  0  0  0  0  0  0  0  0  0  0  0
  141.6973   82.1300  222.9620 H   0  0  0  0  0  0  0  0  0  0  0  0
  139.7495   82.6258  221.8353 H   0  0  0  0  0  0  0  0  0  0  0  0
  137.3217   82.2040  221.4145 H   0  0  0  0  0  0  0  0  0  0  0  0
  136.1345   80.3714  222.6077 H   0  0  0  0  0  0  0  0  0  0  0  0
  137.3822   78.9599  224.2210 H   0  0  0  0  0  0  0  0  0  0  0  0
  139.8019   79.3512  224.6674 H   0  0  0  0  0  0  0  0  0  0  0  0
  140.8234   80.6563  220.2698 H   0  0  0  0  0  0  0  0  0  0  0  0
  142.5617   80.8207  220.5775 H   0  0  0  0  0  0  0  0  0  0  0  0
  142.2128   80.3924  217.5589 H   0  0  0  0  0  0  0  0  0  0  0  0
  142.6377   78.5682  215.9817 H   0  0  0  0  0  0  0  0  0  0  0  0
  142.6977   76.1968  216.8275 H   0  0  0  0  0  0  0  0  0  0  0  0
  142.3206   75.7983  219.2620 H   0  0  0  0  0  0  0  0  0  0  0  0
  142.6354   77.4099  221.7758 H   0  0  0  0  0  0  0  0  0  0  0  0
  141.3280   75.5358  222.7741 H   0  0  0  0  0  0  0  0  0  0  0  0
  138.7700   74.8390  222.8920 H   0  0  0  0  0  0  0  0  0  0  0  0
  136.3677   75.8548  221.8589 H   0  0  0  0  0  0  0  0  0  0  0  0
  135.4725   77.6988  220.4652 H   0  0  0  0  0  0  0  0  0  0  0  0
  136.9732   79.4254  219.4960 H   0  0  0  0  0  0  0  0  0  0  0  0
  139.4485   79.3068  219.9249 H   0  0  0  0  0  0  0  0  0  0  0  0
  1  2  2  0
  2  3  2  0
  2  4  1  0
  4  5  1  0
  5  6  2  0
  6  7  1  0
  7  8  2  0
  8  9  1  0
  9 10  2  0
  2 11  1  0
 11 12  1  0
 12 13  1  0
 13 14  2  0
 14 15  1  0
 15 16  2  0
 16 17  1  0
 17 18  2  0
 18 19  1  0
 19 20  1  0
 20 21  2  0
 21 22  1  0
 22 23  1  0
 23 24  2  0
 24 25  1  0
 25 26  2  0
 26 27  1  0
 27 28  2  0
 10  5  1  0
 19 11  1  0
 28 20  1  0
 18 13  1  0
 28 23  1  0
  4 29  1  0
  4 30  1  0
  6 31  1  0
  7 32  1  0
  8 33  1  0
  9 34  1  0
 10 35  1  0
 12 36  1  0
 12 37  1  0
 14 38  1  0
 15 39  1  0
 16 40  1  0
 17 41  1  0
 19 42  1  1
 21 43  1  0
 22 44  1  0
 24 45  1  0
 25 46  1  0
 26 47  1  0
 27 48  1  0
M  END
>  <smiles>  (28) 
O=S(=O)(Cc1ccccc1)N1Cc2ccccc2C1c1c[nH]c2ccccc12

>  <score_type>  (28) 
oracle

>  <origin>  (28) 
autodockgpu

>  <m_score__min__energy>  (28) 
-8.2400000000000002

>  <m_primary>  (28) 
energy

>  <rmsd>  (28) 
4.148046498706676

>  <m_score__min__rmsd>  (28) 
4.148046498706676

>  <meeko>  (28) 
{"free_energy": -6.66, "intermolecular_energy": -7.85, "internal_energy": -2.91, "cluster_size": 3, "cluster_id": 4, "rank_in_cluster": 1}

>  <energy>  (28) 
-7.13

>  <cluster_rmsd>  (28) 
0.02

>  <cluster>  (28) 
3

$$$$

     RDKit          3D

 48 52  0  0  0  0  0  0  0  0999 V2000
  143.7110   80.2550  222.9810 O   0  0  0  0  0  0  0  0  0  0  0  0
  142.3010   80.4310  222.4880 S   0  0  0  0  0  0  0  0  0  0  0  0
  142.2860   81.5200  221.4750 O   0  0  0  0  0  0  0  0  0  0  0  0
  141.2500   80.9500  223.8430 C   0  0  0  0  0  0  0  0  0  0  0  0
  139.8390   80.8580  223.3870 C   0  0  0  0  0  0  0  0  0  0  0  0
  138.9400   80.0670  224.0960 C   0  0  0  0  0  0  0  0  0  0  0  0
  137.6140   79.9880  223.6570 C   0  0  0  0  0  0  0  0  0  0  0  0
  137.1950   80.6850  222.5340 C   0  0  0  0  0  0  0  0  0  0  0  0
  138.1120   81.4650  221.8500 C   0  0  0  0  0  0  0  0  0  0  0  0
  139.4390   81.5650  222.2600 C   0  0  0  0  0  0  0  0  0  0  0  0
  141.7410   78.9430  221.9330 N   0  0  0  0  0  0  0  0  0  0  0  0
  141.3060   77.9970  222.8910 C   0  0  0  0  0  0  0  0  0  0  0  0
  140.1120   77.3210  222.2960 C   0  0  0  0  0  0  0  0  0  0  0  0
  139.2630   76.3320  222.6980 C   0  0  0  0  0  0  0  0  0  0  0  0
  138.2000   75.8600  221.9580 C   0  0  0  0  0  0  0  0  0  0  0  0
  137.9570   76.4180  220.7100 C   0  0  0  0  0  0  0  0  0  0  0  0
  138.8090   77.4320  220.2730 C   0  0  0  0  0  0  0  0  0  0  0  0
  139.8640   77.8820  221.0390 C   0  0  0  0  0  0  0  0  0  0  0  0
  140.9010   78.9430  220.7880 C   0  0  2  0  0  0  0  0  0  0  0  0
  141.7650   78.5360  219.6240 C   0  0  0  0  0  0  0  0  0  0  0  0
  142.1200   79.4360  218.6410 C   0  0  0  0  0  0  0  0  0  0  0  0
  142.8850   78.7570  217.7600 N   0  0  0  0  0  0  0  0  0  0  0  0
  143.0110   77.4640  218.1750 C   0  0  0  0  0  0  0  0  0  0  0  0
  143.6900   76.3800  217.6210 C   0  0  0  0  0  0  0  0  0  0  0  0
  143.6340   75.1700  218.2800 C   0  0  0  0  0  0  0  0  0  0  0  0
  142.9230   75.0110  219.4710 C   0  0  0  0  0  0  0  0  0  0  0  0
  142.2450   76.1010  220.0210 C   0  0  0  0  0  0  0  0  0  0  0  0
  142.3070   77.2990  219.3570 C   0  0  0  0  0  0  0  0  0  0  0  0
  141.4062   80.2919  224.7105 H   0  0  0  0  0  0  0  0  0  0  0  0
  141.4901   81.9812  224.1411 H   0  0  0  0  0  0  0  0  0  0  0  0
  139.2670   79.5124  224.9879 H   0  0  0  0  0  0  0  0  0  0  0  0
  136.8950   79.3653  224.2095 H   0  0  0  0  0  0  0  0  0  0  0  0
  136.1515   80.6194  222.1922 H   0  0  0  0  0  0  0  0  0  0  0  0
  137.7835   82.0204  220.9591 H   0  0  0  0  0  0  0  0  0  0  0  0
  140.1541   82.1894  221.7043 H   0  0  0  0  0  0  0  0  0  0  0  0
  142.1004   77.2627  223.0900 H   0  0  0  0  0  0  0  0  0  0  0  0
  141.0584   78.4797  223.8479 H   0  0  0  0  0  0  0  0  0  0  0  0
  139.4394   75.8781  223.6843 H   0  0  0  0  0  0  0  0  0  0  0  0
  137.5571   75.0573  222.3484 H   0  0  0  0  0  0  0  0  0  0  0  0
  137.1198   76.0716  220.0863 H   0  0  0  0  0  0  0  0  0  0  0  0
  138.6342   77.8869  219.2869 H   0  0  0  0  0  0  0  0  0  0  0  0
  140.4264   79.9151  220.5886 H   0  0  0  0  0  0  0  0  0  0  0  0
  141.8359   80.4973  218.5858 H   0  0  0  0  0  0  0  0  0  0  0  0
  143.3370   79.1320  216.8740 H   0  0  0  0  0  0  0  0  0  0  0  0
  144.2553   76.4869  216.6834 H   0  0  0  0  0  0  0  0  0  0  0  0
  144.1647   74.3052  217.8551 H   0  0  0  0  0  0  0  0  0  0  0  0
  142.8970   74.0327  219.9733 H   0  0  0  0  0  0  0  0  0  0  0  0
  141.6783   76.0014  220.9585 H   0  0  0  0  0  0  0  0  0  0  0  0
  1  2  2  0
  2  3  2  0
  2  4  1  0
  4  5  1  0
  5  6  2  0
  6  7  1  0
  7  8  2  0
  8  9  1  0
  9 10  2  0
  2 11  1  0
 11 12  1  0
 12 13  1  0
 13 14  2  0
 14 15  1  0
 15 16  2  0
 16 17  1  0
 17 18  2  0
 18 19  1  0
 19 20  1  0
 20 21  2  0
 21 22  1  0
 22 23  1  0
 23 24  2  0
 24 25  1  0
 25 26  2  0
 26 27  1  0
 27 28  2  0
 10  5  1  0
 19 11  1  0
 28 20  1  0
 18 13  1  0
 28 23  1  0
  4 29  1  0
  4 30  1  0
  6 31  1  0
  7 32  1  0
  8 33  1  0
  9 34  1  0
 10 35  1  0
 12 36  1  0
 12 37  1  0
 14 38  1  0
 15 39  1  0
 16 40  1  0
 17 41  1  0
 19 42  1  6
 21 43  1  0
 22 44  1  0
 24 45  1  0
 25 46  1  0
 26 47  1  0
 27 48  1  0
M  END
>  <smiles>  (29) 
O=S(=O)(Cc1ccccc1)N1Cc2ccccc2C1c1c[nH]c2ccccc12

>  <score_type>  (29) 
oracle

>  <origin>  (29) 
autodockgpu

>  <m_score__min__energy>  (29) 
-8.2400000000000002

>  <m_primary>  (29) 
energy

>  <rmsd>  (29) 
5.233418081273369

>  <m_score__min__rmsd>  (29) 
5.233418081273369

>  <meeko>  (29) 
{"free_energy": -7.06, "intermolecular_energy": -8.25, "internal_energy": -2.56, "cluster_size": 22, "cluster_id": 3, "rank_in_cluster": 21}

>  <energy>  (29) 
-7.13

>  <cluster_rmsd>  (29) 
0.02

>  <cluster>  (29) 
3

$$$$

     RDKit          3D

 48 52  0  0  0  0  0  0  0  0999 V2000
  143.6600   80.2630  222.9410 O   0  0  0  0  0  0  0  0  0  0  0  0
  142.2390   80.4360  222.4830 S   0  0  0  0  0  0  0  0  0  0  0  0
  142.1970   81.5230  221.4690 O   0  0  0  0  0  0  0  0  0  0  0  0
  141.2200   80.9560  223.8630 C   0  0  0  0  0  0  0  0  0  0  0  0
  139.7990   80.8680  223.4390 C   0  0  0  0  0  0  0  0  0  0  0  0
  139.3890   81.5140  222.2770 C   0  0  0  0  0  0  0  0  0  0  0  0
  138.0480   81.4240  221.8890 C   0  0  0  0  0  0  0  0  0  0  0  0
  137.1360   80.7030  222.6460 C   0  0  0  0  0  0  0  0  0  0  0  0
  137.5740   80.0710  223.7970 C   0  0  0  0  0  0  0  0  0  0  0  0
  138.9020   80.1410  224.2120 C   0  0  0  0  0  0  0  0  0  0  0  0
  141.6680   78.9470  221.9450 N   0  0  0  0  0  0  0  0  0  0  0  0
  141.2030   78.0230  222.9100 C   0  0  0  0  0  0  0  0  0  0  0  0
  140.0100   77.3530  222.3070 C   0  0  0  0  0  0  0  0  0  0  0  0
  139.1410   76.3820  222.7120 C   0  0  0  0  0  0  0  0  0  0  0  0
  138.0850   75.9130  221.9630 C   0  0  0  0  0  0  0  0  0  0  0  0
  137.8690   76.4520  220.7020 C   0  0  0  0  0  0  0  0  0  0  0  0
  138.7420   77.4470  220.2620 C   0  0  0  0  0  0  0  0  0  0  0  0
  139.7910   77.8960  221.0370 C   0  0  0  0  0  0  0  0  0  0  0  0
  140.8460   78.9380  220.7850 C   0  0  2  0  0  0  0  0  0  0  0  0
  141.7230   78.5000  219.6430 C   0  0  0  0  0  0  0  0  0  0  0  0
  142.0920   79.3740  218.6420 C   0  0  0  0  0  0  0  0  0  0  0  0
  142.8660   78.6700  217.7880 N   0  0  0  0  0  0  0  0  0  0  0  0
  142.9830   77.3880  218.2370 C   0  0  0  0  0  0  0  0  0  0  0  0
  143.6670   76.2890  217.7190 C   0  0  0  0  0  0  0  0  0  0  0  0
  143.5990   75.0960  218.4080 C   0  0  0  0  0  0  0  0  0  0  0  0
  142.8740   74.9700  219.5940 C   0  0  0  0  0  0  0  0  0  0  0  0
  142.1920   76.0740  220.1080 C   0  0  0  0  0  0  0  0  0  0  0  0
  142.2650   77.2550  219.4140 C   0  0  0  0  0  0  0  0  0  0  0  0
  141.3942   80.2964  224.7259 H   0  0  0  0  0  0  0  0  0  0  0  0
  141.4694   81.9862  224.1571 H   0  0  0  0  0  0  0  0  0  0  0  0
  140.1081   82.0866  221.6728 H   0  0  0  0  0  0  0  0  0  0  0  0
  137.7125   81.9312  220.9724 H   0  0  0  0  0  0  0  0  0  0  0  0
  136.0826   80.6347  222.3368 H   0  0  0  0  0  0  0  0  0  0  0  0
  136.8542   79.4982  224.4001 H   0  0  0  0  0  0  0  0  0  0  0  0
  139.2326   79.6328  225.1298 H   0  0  0  0  0  0  0  0  0  0  0  0
  141.9837   77.2813  223.1346 H   0  0  0  0  0  0  0  0  0  0  0  0
  140.9454   78.5256  223.8539 H   0  0  0  0  0  0  0  0  0  0  0  0
  139.2951   75.9423  223.7085 H   0  0  0  0  0  0  0  0  0  0  0  0
  137.4249   75.1260  222.3565 H   0  0  0  0  0  0  0  0  0  0  0  0
  137.0372   76.1060  220.0709 H   0  0  0  0  0  0  0  0  0  0  0  0
  138.5891   77.8874  219.2657 H   0  0  0  0  0  0  0  0  0  0  0  0
  140.3879   79.9126  220.5610 H   0  0  0  0  0  0  0  0  0  0  0  0
  141.8115   80.4342  218.5562 H   0  0  0  0  0  0  0  0  0  0  0  0
  143.3300   79.0220  216.8980 H   0  0  0  0  0  0  0  0  0  0  0  0
  144.2449   76.3711  216.7866 H   0  0  0  0  0  0  0  0  0  0  0  0
  144.1313   74.2189  218.0115 H   0  0  0  0  0  0  0  0  0  0  0  0
  142.8402   74.0051  220.1211 H   0  0  0  0  0  0  0  0  0  0  0  0
  141.6138   75.9993  221.0408 H   0  0  0  0  0  0  0  0  0  0  0  0
  1  2  2  0
  2  3  2  0
  2  4  1  0
  4  5  1  0
  5  6  2  0
  6  7  1  0
  7  8  2  0
  8  9  1  0
  9 10  2  0
  2 11  1  0
 11 12  1  0
 12 13  1  0
 13 14  2  0
 14 15  1  0
 15 16  2  0
 16 17  1  0
 17 18  2  0
 18 19  1  0
 19 20  1  0
 20 21  2  0
 21 22  1  0
 22 23  1  0
 23 24  2  0
 24 25  1  0
 25 26  2  0
 26 27  1  0
 27 28  2  0
 10  5  1  0
 19 11  1  0
 28 20  1  0
 18 13  1  0
 28 23  1  0
  4 29  1  0
  4 30  1  0
  6 31  1  0
  7 32  1  0
  8 33  1  0
  9 34  1  0
 10 35  1  0
 12 36  1  0
 12 37  1  0
 14 38  1  0
 15 39  1  0
 16 40  1  0
 17 41  1  0
 19 42  1  6
 21 43  1  0
 22 44  1  0
 24 45  1  0
 25 46  1  0
 26 47  1  0
 27 48  1  0
M  END
>  <smiles>  (30) 
O=S(=O)(Cc1ccccc1)N1Cc2ccccc2C1c1c[nH]c2ccccc12

>  <score_type>  (30) 
oracle

>  <origin>  (30) 
autodockgpu

>  <m_score__min__energy>  (30) 
-8.2400000000000002

>  <m_primary>  (30) 
energy

>  <rmsd>  (30) 
5.2492451629116985

>  <m_score__min__rmsd>  (30) 
5.2492451629116985

>  <meeko>  (30) 
{"free_energy": -7.13, "intermolecular_energy": -8.32, "internal_energy": -2.54, "cluster_size": 22, "cluster_id": 3, "rank_in_cluster": 7}

>  <energy>  (30) 
-7.13

>  <cluster_rmsd>  (30) 
0.03

>  <cluster>  (30) 
3

$$$$

     RDKit          3D

 48 52  0  0  0  0  0  0  0  0999 V2000
  142.1300   78.7300  224.0500 O   0  0  0  0  0  0  0  0  0  0  0  0
  142.3040   79.8060  223.0150 S   0  0  0  0  0  0  0  0  0  0  0  0
  143.7460   80.1670  222.9460 O   0  0  0  0  0  0  0  0  0  0  0  0
  141.4110   81.2760  223.5160 C   0  0  0  0  0  0  0  0  0  0  0  0
  139.9660   81.0390  223.2690 C   0  0  0  0  0  0  0  0  0  0  0  0
  139.3140   80.0110  223.9440 C   0  0  0  0  0  0  0  0  0  0  0  0
  137.9530   79.7990  223.7020 C   0  0  0  0  0  0  0  0  0  0  0  0
  137.2570   80.5950  222.8060 C   0  0  0  0  0  0  0  0  0  0  0  0
  137.9320   81.6110  222.1500 C   0  0  0  0  0  0  0  0  0  0  0  0
  139.2870   81.8500  222.3670 C   0  0  0  0  0  0  0  0  0  0  0  0
  141.6440   79.2630  221.5650 N   0  0  0  0  0  0  0  0  0  0  0  0
  141.7680   80.0910  220.4250 C   0  0  0  0  0  0  0  0  0  0  0  0
  142.0220   79.1750  219.2700 C   0  0  0  0  0  0  0  0  0  0  0  0
  142.2150   79.3430  217.9300 C   0  0  0  0  0  0  0  0  0  0  0  0
  142.4380   78.3200  217.0350 C   0  0  0  0  0  0  0  0  0  0  0  0
  142.4730   77.0150  217.5080 C   0  0  0  0  0  0  0  0  0  0  0  0
  142.2790   76.8140  218.8750 C   0  0  0  0  0  0  0  0  0  0  0  0
  142.0590   77.8610  219.7450 C   0  0  0  0  0  0  0  0  0  0  0  0
  141.8270   77.8940  221.2310 C   0  0  2  0  0  0  0  0  0  0  0  0
  140.5320   77.1980  221.5540 C   0  0  0  0  0  0  0  0  0  0  0  0
  140.4970   76.0720  222.3490 C   0  0  0  0  0  0  0  0  0  0  0  0
  139.2000   75.7060  222.4360 N   0  0  0  0  0  0  0  0  0  0  0  0
  138.4370   76.5760  221.7160 C   0  0  0  0  0  0  0  0  0  0  0  0
  137.0610   76.6310  221.4950 C   0  0  0  0  0  0  0  0  0  0  0  0
  136.5680   77.6480  220.7060 C   0  0  0  0  0  0  0  0  0  0  0  0
  137.4030   78.6090  220.1350 C   0  0  0  0  0  0  0  0  0  0  0  0
  138.7800   78.5500  220.3600 C   0  0  0  0  0  0  0  0  0  0  0  0
  139.2590   77.5330  221.1460 C   0  0  0  0  0  0  0  0  0  0  0  0
  141.5804   81.4698  224.5855 H   0  0  0  0  0  0  0  0  0  0  0  0
  141.7591   82.1491  222.9445 H   0  0  0  0  0  0  0  0  0  0  0  0
  139.8605   79.3755  224.6564 H   0  0  0  0  0  0  0  0  0  0  0  0
  137.4278   78.9895  224.2300 H   0  0  0  0  0  0  0  0  0  0  0  0
  136.1868   80.4228  222.6191 H   0  0  0  0  0  0  0  0  0  0  0  0
  137.3835   82.2460  221.4387 H   0  0  0  0  0  0  0  0  0  0  0  0
  139.8075   82.6614  221.8371 H   0  0  0  0  0  0  0  0  0  0  0  0
  140.8403   80.6597  220.2639 H   0  0  0  0  0  0  0  0  0  0  0  0
  142.5830   80.8199  220.5455 H   0  0  0  0  0  0  0  0  0  0  0  0
  142.1908   80.3696  217.5358 H   0  0  0  0  0  0  0  0  0  0  0  0
  142.5856   78.5328  215.9659 H   0  0  0  0  0  0  0  0  0  0  0  0
  142.6478   76.1682  216.8280 H   0  0  0  0  0  0  0  0  0  0  0  0
  142.3023   75.7881  219.2712 H   0  0  0  0  0  0  0  0  0  0  0  0
  142.6598   77.4161  221.7678 H   0  0  0  0  0  0  0  0  0  0  0  0
  141.3558   75.5708  222.8194 H   0  0  0  0  0  0  0  0  0  0  0  0
  138.7970   74.8790  222.9700 H   0  0  0  0  0  0  0  0  0  0  0  0
  136.3874   75.8829  221.9384 H   0  0  0  0  0  0  0  0  0  0  0  0
  135.4851   77.7036  220.5212 H   0  0  0  0  0  0  0  0  0  0  0  0
  136.9788   79.4092  219.5107 H   0  0  0  0  0  0  0  0  0  0  0  0
  139.4591   79.2956  219.9208 H   0  0  0  0  0  0  0  0  0  0  0  0
  1  2  2  0
  2  3  2  0
  2  4  1  0
  4  5  1  0
  5  6  2  0
  6  7  1  0
  7  8  2  0
  8  9  1  0
  9 10  2  0
  2 11  1  0
 11 12  1  0
 12 13  1  0
 13 14  2  0
 14 15  1  0
 15 16  2  0
 16 17  1  0
 17 18  2  0
 18 19  1  0
 19 20  1  0
 20 21  2  0
 21 22  1  0
 22 23  1  0
 23 24  2  0
 24 25  1  0
 25 26  2  0
 26 27  1  0
 27 28  2  0
 10  5  1  0
 19 11  1  0
 28 20  1  0
 18 13  1  0
 28 23  1  0
  4 29  1  0
  4 30  1  0
  6 31  1  0
  7 32  1  0
  8 33  1  0
  9 34  1  0
 10 35  1  0
 12 36  1  0
 12 37  1  0
 14 38  1  0
 15 39  1  0
 16 40  1  0
 17 41  1  0
 19 42  1  1
 21 43  1  0
 22 44  1  0
 24 45  1  0
 25 46  1  0
 26 47  1  0
 27 48  1  0
M  END
>  <smiles>  (31) 
O=S(=O)(Cc1ccccc1)N1Cc2ccccc2C1c1c[nH]c2ccccc12

>  <score_type>  (31) 
oracle

>  <origin>  (31) 
autodockgpu

>  <m_score__min__energy>  (31) 
-8.2400000000000002

>  <m_primary>  (31) 
energy

>  <rmsd>  (31) 
4.135892349978176

>  <m_score__min__rmsd>  (31) 
4.135892349978176

>  <meeko>  (31) 
{"free_energy": -6.66, "intermolecular_energy": -7.85, "internal_energy": -2.91, "cluster_size": 3, "cluster_id": 4, "rank_in_cluster": 2}

>  <energy>  (31) 
-7.13

>  <cluster_rmsd>  (31) 
0.02

>  <cluster>  (31) 
3

$$$$

     RDKit          3D

 48 52  0  0  0  0  0  0  0  0999 V2000
  135.1080   68.0860  223.0480 O   0  0  0  0  0  0  0  0  0  0  0  0
  135.7670   69.0590  223.9850 S   0  0  0  0  0  0  0  0  0  0  0  0
  135.4520   68.6590  225.3820 O   0  0  0  0  0  0  0  0  0  0  0  0
  135.0830   70.6960  223.7330 C   0  0  0  0  0  0  0  0  0  0  0  0
  134.1640   70.9860  224.8640 C   0  0  0  0  0  0  0  0  0  0  0  0
  134.4360   72.0550  225.7120 C   0  0  0  0  0  0  0  0  0  0  0  0
  133.5630   72.3170  226.7730 C   0  0  0  0  0  0  0  0  0  0  0  0
  132.4410   71.5290  226.9820 C   0  0  0  0  0  0  0  0  0  0  0  0
  132.1960   70.4730  226.1210 C   0  0  0  0  0  0  0  0  0  0  0  0
  133.0460   70.1840  225.0550 C   0  0  0  0  0  0  0  0  0  0  0  0
  137.4100   69.1190  223.6220 N   0  0  0  0  0  0  0  0  0  0  0  0
  137.8030   68.9020  222.2800 C   0  0  0  0  0  0  0  0  0  0  0  0
  138.9310   69.8480  222.0170 C   0  0  0  0  0  0  0  0  0  0  0  0
  139.7340   70.1190  220.9490 C   0  0  0  0  0  0  0  0  0  0  0  0
  140.7370   71.0640  220.9400 C   0  0  0  0  0  0  0  0  0  0  0  0
  140.9650   71.8060  222.0920 C   0  0  0  0  0  0  0  0  0  0  0  0
  140.1580   71.5500  223.2000 C   0  0  0  0  0  0  0  0  0  0  0  0
  139.1610   70.5970  223.1760 C   0  0  0  0  0  0  0  0  0  0  0  0
  138.1800   70.1490  224.2250 C   0  0  2  0  0  0  0  0  0  0  0  0
  138.9230   69.5130  225.3690 C   0  0  0  0  0  0  0  0  0  0  0  0
  138.8320   68.1600  225.6240 C   0  0  0  0  0  0  0  0  0  0  0  0
  139.6080   67.9220  226.7030 N   0  0  0  0  0  0  0  0  0  0  0  0
  140.1740   69.0910  227.1180 C   0  0  0  0  0  0  0  0  0  0  0  0
  141.0410   69.3710  228.1730 C   0  0  0  0  0  0  0  0  0  0  0  0
  141.4520   70.6760  228.3490 C   0  0  0  0  0  0  0  0  0  0  0  0
  141.0240   71.7040  227.5070 C   0  0  0  0  0  0  0  0  0  0  0  0
  140.1550   71.4170  226.4530 C   0  0  0  0  0  0  0  0  0  0  0  0
  139.7530   70.1160  226.2870 C   0  0  0  0  0  0  0  0  0  0  0  0
  135.8929   71.4399  223.7094 H   0  0  0  0  0  0  0  0  0  0  0  0
  134.5406   70.7417  222.7771 H   0  0  0  0  0  0  0  0  0  0  0  0
  135.3237   72.6842  225.5506 H   0  0  0  0  0  0  0  0  0  0  0  0
  133.7690   73.1589  227.4503 H   0  0  0  0  0  0  0  0  0  0  0  0
  131.7574   71.7395  227.8177 H   0  0  0  0  0  0  0  0  0  0  0  0
  131.3071   69.8455  226.2825 H   0  0  0  0  0  0  0  0  0  0  0  0
  132.8365   69.3406  224.3807 H   0  0  0  0  0  0  0  0  0  0  0  0
  138.1373   67.8629  222.1439 H   0  0  0  0  0  0  0  0  0  0  0  0
  136.9673   69.0720  221.5853 H   0  0  0  0  0  0  0  0  0  0  0  0
  139.5693   69.5413  220.0275 H   0  0  0  0  0  0  0  0  0  0  0  0
  141.3452   71.2276  220.0382 H   0  0  0  0  0  0  0  0  0  0  0  0
  141.7556   72.5699  222.1289 H   0  0  0  0  0  0  0  0  0  0  0  0
  140.3217   72.1263  224.1225 H   0  0  0  0  0  0  0  0  0  0  0  0
  137.5783   70.9963  224.5856 H   0  0  0  0  0  0  0  0  0  0  0  0
  138.2436   67.4214  225.0598 H   0  0  0  0  0  0  0  0  0  0  0  0
  139.7780   66.9880  227.1830 H   0  0  0  0  0  0  0  0  0  0  0  0
  141.3878   68.5734  228.8465 H   0  0  0  0  0  0  0  0  0  0  0  0
  142.1366   70.9134  229.1766 H   0  0  0  0  0  0  0  0  0  0  0  0
  141.3698   72.7349  227.6733 H   0  0  0  0  0  0  0  0  0  0  0  0
  139.8033   72.2097  225.7763 H   0  0  0  0  0  0  0  0  0  0  0  0
  1  2  2  0
  2  3  2  0
  2  4  1  0
  4  5  1  0
  5  6  2  0
  6  7  1  0
  7  8  2  0
  8  9  1  0
  9 10  2  0
  2 11  1  0
 11 12  1  0
 12 13  1  0
 13 14  2  0
 14 15  1  0
 15 16  2  0
 16 17  1  0
 17 18  2  0
 18 19  1  0
 19 20  1  0
 20 21  2  0
 21 22  1  0
 22 23  1  0
 23 24  2  0
 24 25  1  0
 25 26  2  0
 26 27  1  0
 27 28  2  0
 10  5  1  0
 19 11  1  0
 28 20  1  0
 18 13  1  0
 28 23  1  0
  4 29  1  0
  4 30  1  0
  6 31  1  0
  7 32  1  0
  8 33  1  0
  9 34  1  0
 10 35  1  0
 12 36  1  0
 12 37  1  0
 14 38  1  0
 15 39  1  0
 16 40  1  0
 17 41  1  0
 19 42  1  1
 21 43  1  0
 22 44  1  0
 24 45  1  0
 25 46  1  0
 26 47  1  0
 27 48  1  0
M  END
>  <smiles>  (32) 
O=S(=O)(Cc1ccccc1)N1Cc2ccccc2C1c1c[nH]c2ccccc12

>  <score_type>  (32) 
oracle

>  <origin>  (32) 
autodockgpu

>  <m_score__min__energy>  (32) 
-8.2400000000000002

>  <m_primary>  (32) 
energy

>  <rmsd>  (32) 
10.582696543400903

>  <m_score__min__rmsd>  (32) 
10.582696543400903

>  <meeko>  (32) 
{"free_energy": -8.21, "intermolecular_energy": -9.4, "internal_energy": -1.61, "cluster_size": 13, "cluster_id": 1, "rank_in_cluster": 6}

>  <energy>  (32) 
-7.13

>  <cluster_rmsd>  (32) 
0.02

>  <cluster>  (32) 
3

$$$$

     RDKit          3D

 48 52  0  0  0  0  0  0  0  0999 V2000
  134.7880   68.4200  224.1080 O   0  0  0  0  0  0  0  0  0  0  0  0
  135.5760   69.5980  224.6070 S   0  0  0  0  0  0  0  0  0  0  0  0
  135.4460   69.6620  226.0880 O   0  0  0  0  0  0  0  0  0  0  0  0
  134.8820   71.1120  223.9460 C   0  0  0  0  0  0  0  0  0  0  0  0
  134.0740   71.7500  225.0160 C   0  0  0  0  0  0  0  0  0  0  0  0
  134.3380   73.0670  225.3830 C   0  0  0  0  0  0  0  0  0  0  0  0
  133.5700   73.6560  226.3920 C   0  0  0  0  0  0  0  0  0  0  0  0
  132.5590   72.9460  227.0220 C   0  0  0  0  0  0  0  0  0  0  0  0
  132.3190   71.6380  226.6370 C   0  0  0  0  0  0  0  0  0  0  0  0
  133.0660   71.0210  225.6350 C   0  0  0  0  0  0  0  0  0  0  0  0
  137.1560   69.4590  224.0440 N   0  0  0  0  0  0  0  0  0  0  0  0
  137.3560   69.3210  222.6500 C   0  0  0  0  0  0  0  0  0  0  0  0
  138.5790   70.1190  222.3230 C   0  0  0  0  0  0  0  0  0  0  0  0
  139.2870   70.3760  221.1850 C   0  0  0  0  0  0  0  0  0  0  0  0
  140.4140   71.1650  221.1250 C   0  0  0  0  0  0  0  0  0  0  0  0
  140.8820   71.7510  222.2930 C   0  0  0  0  0  0  0  0  0  0  0  0
  140.1770   71.5060  223.4720 C   0  0  0  0  0  0  0  0  0  0  0  0
  139.0510   70.7100  223.4980 C   0  0  0  0  0  0  0  0  0  0  0  0
  138.1390   70.3060  224.6250 C   0  0  2  0  0  0  0  0  0  0  0  0
  138.9010   69.4630  225.6110 C   0  0  0  0  0  0  0  0  0  0  0  0
  138.8170   68.0860  225.5980 C   0  0  0  0  0  0  0  0  0  0  0  0
  139.6110   67.6460  226.5980 N   0  0  0  0  0  0  0  0  0  0  0  0
  140.1810   68.7150  227.2250 C   0  0  0  0  0  0  0  0  0  0  0  0
  141.0650   68.7880  228.3000 C   0  0  0  0  0  0  0  0  0  0  0  0
  141.4750   70.0350  228.7220 C   0  0  0  0  0  0  0  0  0  0  0  0
  141.0320   71.2050  228.1040 C   0  0  0  0  0  0  0  0  0  0  0  0
  140.1470   71.1250  227.0270 C   0  0  0  0  0  0  0  0  0  0  0  0
  139.7450   69.8800  226.6170 C   0  0  0  0  0  0  0  0  0  0  0  0
  135.6911   71.7891  223.6348 H   0  0  0  0  0  0  0  0  0  0  0  0
  134.2534   70.8944  223.0699 H   0  0  0  0  0  0  0  0  0  0  0  0
  135.1385   73.6353  224.8867 H   0  0  0  0  0  0  0  0  0  0  0  0
  133.7703   74.6958  226.6899 H   0  0  0  0  0  0  0  0  0  0  0  0
  131.9575   73.4145  227.8149 H   0  0  0  0  0  0  0  0  0  0  0  0
  131.5183   71.0712  227.1346 H   0  0  0  0  0  0  0  0  0  0  0  0
  132.8622   69.9808  225.3410 H   0  0  0  0  0  0  0  0  0  0  0  0
  137.5098   68.2634  222.3896 H   0  0  0  0  0  0  0  0  0  0  0  0
  136.4826   69.6750  222.0826 H   0  0  0  0  0  0  0  0  0  0  0  0
  138.9321   69.9204  220.2488 H   0  0  0  0  0  0  0  0  0  0  0  0
  140.9337   71.3278  220.1693 H   0  0  0  0  0  0  0  0  0  0  0  0
  141.7791   72.3876  222.2893 H   0  0  0  0  0  0  0  0  0  0  0  0
  140.5300   71.9615  224.4090 H   0  0  0  0  0  0  0  0  0  0  0  0
  137.7192   71.1910  225.1256 H   0  0  0  0  0  0  0  0  0  0  0  0
  138.2213   67.4687  224.9095 H   0  0  0  0  0  0  0  0  0  0  0  0
  139.7910   66.6380  226.8830 H   0  0  0  0  0  0  0  0  0  0  0  0
  141.4257   67.8759  228.7981 H   0  0  0  0  0  0  0  0  0  0  0  0
  142.1714   70.1096  229.5702 H   0  0  0  0  0  0  0  0  0  0  0  0
  141.3782   72.1853  228.4634 H   0  0  0  0  0  0  0  0  0  0  0  0
  139.7836   72.0327  226.5231 H   0  0  0  0  0  0  0  0  0  0  0  0
  1  2  2  0
  2  3  2  0
  2  4  1  0
  4  5  1  0
  5  6  2  0
  6  7  1  0
  7  8  2  0
  8  9  1  0
  9 10  2  0
  2 11  1  0
 11 12  1  0
 12 13  1  0
 13 14  2  0
 14 15  1  0
 15 16  2  0
 16 17  1  0
 17 18  2  0
 18 19  1  0
 19 20  1  0
 20 21  2  0
 21 22  1  0
 22 23  1  0
 23 24  2  0
 24 25  1  0
 25 26  2  0
 26 27  1  0
 27 28  2  0
 10  5  1  0
 19 11  1  0
 28 20  1  0
 18 13  1  0
 28 23  1  0
  4 29  1  0
  4 30  1  0
  6 31  1  0
  7 32  1  0
  8 33  1  0
  9 34  1  0
 10 35  1  0
 12 36  1  0
 12 37  1  0
 14 38  1  0
 15 39  1  0
 16 40  1  0
 17 41  1  0
 19 42  1  1
 21 43  1  0
 22 44  1  0
 24 45  1  0
 25 46  1  0
 26 47  1  0
 27 48  1  0
M  END
>  <smiles>  (33) 
O=S(=O)(Cc1ccccc1)N1Cc2ccccc2C1c1c[nH]c2ccccc12

>  <score_type>  (33) 
oracle

>  <origin>  (33) 
autodockgpu

>  <m_score__min__energy>  (33) 
-8.2400000000000002

>  <m_primary>  (33) 
energy

>  <rmsd>  (33) 
10.7792128474434

>  <m_score__min__rmsd>  (33) 
10.7792128474434

>  <meeko>  (33) 
{"free_energy": -8.24, "intermolecular_energy": -9.44, "internal_energy": -1.53, "cluster_size": 13, "cluster_id": 1, "rank_in_cluster": 1}

>  <energy>  (33) 
-7.13

>  <cluster_rmsd>  (33) 
0.04

>  <cluster>  (33) 
3

$$$$

     RDKit          3D

 48 52  0  0  0  0  0  0  0  0999 V2000
  134.9810   68.2240  224.2440 O   0  0  0  0  0  0  0  0  0  0  0  0
  135.6010   69.5780  224.4510 S   0  0  0  0  0  0  0  0  0  0  0  0
  135.4070   69.9760  225.8710 O   0  0  0  0  0  0  0  0  0  0  0  0
  134.7540   70.7900  223.4390 C   0  0  0  0  0  0  0  0  0  0  0  0
  134.6800   72.0570  224.2090 C   0  0  0  0  0  0  0  0  0  0  0  0
  135.5240   73.1130  223.8750 C   0  0  0  0  0  0  0  0  0  0  0  0
  135.4450   74.3010  224.6090 C   0  0  0  0  0  0  0  0  0  0  0  0
  134.5430   74.4340  225.6530 C   0  0  0  0  0  0  0  0  0  0  0  0
  133.7160   73.3670  225.9620 C   0  0  0  0  0  0  0  0  0  0  0  0
  133.7690   72.1700  225.2520 C   0  0  0  0  0  0  0  0  0  0  0  0
  137.2060   69.5110  223.9510 N   0  0  0  0  0  0  0  0  0  0  0  0
  137.4680   69.4310  222.5630 C   0  0  0  0  0  0  0  0  0  0  0  0
  138.6750   70.2790  222.3160 C   0  0  0  0  0  0  0  0  0  0  0  0
  139.4210   70.6010  221.2200 C   0  0  0  0  0  0  0  0  0  0  0  0
  140.5220   71.4280  221.2350 C   0  0  0  0  0  0  0  0  0  0  0  0
  140.9220   71.9850  222.4430 C   0  0  0  0  0  0  0  0  0  0  0  0
  140.1780   71.6730  223.5810 C   0  0  0  0  0  0  0  0  0  0  0  0
  139.0790   70.8420  223.5310 C   0  0  0  0  0  0  0  0  0  0  0  0
  138.1350   70.3660  224.6030 C   0  0  2  0  0  0  0  0  0  0  0  0
  138.8840   69.5110  225.5890 C   0  0  0  0  0  0  0  0  0  0  0  0
  138.7760   68.1360  225.5790 C   0  0  0  0  0  0  0  0  0  0  0  0
  139.5640   67.6850  226.5780 N   0  0  0  0  0  0  0  0  0  0  0  0
  140.1520   68.7440  227.2030 C   0  0  0  0  0  0  0  0  0  0  0  0
  141.0390   68.8040  228.2770 C   0  0  0  0  0  0  0  0  0  0  0  0
  141.4710   70.0440  228.6970 C   0  0  0  0  0  0  0  0  0  0  0  0
  141.0470   71.2210  228.0770 C   0  0  0  0  0  0  0  0  0  0  0  0
  140.1590   71.1540  227.0020 C   0  0  0  0  0  0  0  0  0  0  0  0
  139.7360   69.9150  226.5930 C   0  0  0  0  0  0  0  0  0  0  0  0
  135.3120   70.9525  222.5051 H   0  0  0  0  0  0  0  0  0  0  0  0
  133.7437   70.4372  223.1843 H   0  0  0  0  0  0  0  0  0  0  0  0
  136.2415   73.0144  223.0470 H   0  0  0  0  0  0  0  0  0  0  0  0
  136.1077   75.1412  224.3543 H   0  0  0  0  0  0  0  0  0  0  0  0
  134.4850   75.3710  226.2263 H   0  0  0  0  0  0  0  0  0  0  0  0
  132.9986   73.4675  226.7898 H   0  0  0  0  0  0  0  0  0  0  0  0
  133.1044   71.3327  225.5112 H   0  0  0  0  0  0  0  0  0  0  0  0
  137.6681   68.3892  222.2723 H   0  0  0  0  0  0  0  0  0  0  0  0
  136.6072   69.7776  221.9722 H   0  0  0  0  0  0  0  0  0  0  0  0
  139.1212   70.1685  220.2540 H   0  0  0  0  0  0  0  0  0  0  0  0
  141.0741   71.6434  220.3083 H   0  0  0  0  0  0  0  0  0  0  0  0
  141.7963   72.6500  222.5003 H   0  0  0  0  0  0  0  0  0  0  0  0
  140.4774   72.1032  224.5481 H   0  0  0  0  0  0  0  0  0  0  0  0
  137.6653   71.2175  225.1172 H   0  0  0  0  0  0  0  0  0  0  0  0
  138.1683   67.5276  224.8930 H   0  0  0  0  0  0  0  0  0  0  0  0
  139.7270   66.6730  226.8640 H   0  0  0  0  0  0  0  0  0  0  0  0
  141.3848   67.8866  228.7758 H   0  0  0  0  0  0  0  0  0  0  0  0
  142.1694   70.1079  229.5445 H   0  0  0  0  0  0  0  0  0  0  0  0
  141.4108   72.1959  228.4337 H   0  0  0  0  0  0  0  0  0  0  0  0
  139.8091   72.0671  226.4982 H   0  0  0  0  0  0  0  0  0  0  0  0
  1  2  2  0
  2  3  2  0
  2  4  1  0
  4  5  1  0
  5  6  2  0
  6  7  1  0
  7  8  2  0
  8  9  1  0
  9 10  2  0
  2 11  1  0
 11 12  1  0
 12 13  1  0
 13 14  2  0
 14 15  1  0
 15 16  2  0
 16 17  1  0
 17 18  2  0
 18 19  1  0
 19 20  1  0
 20 21  2  0
 21 22  1  0
 22 23  1  0
 23 24  2  0
 24 25  1  0
 25 26  2  0
 26 27  1  0
 27 28  2  0
 10  5  1  0
 19 11  1  0
 28 20  1  0
 18 13  1  0
 28 23  1  0
  4 29  1  0
  4 30  1  0
  6 31  1  0
  7 32  1  0
  8 33  1  0
  9 34  1  0
 10 35  1  0
 12 36  1  0
 12 37  1  0
 14 38  1  0
 15 39  1  0
 16 40  1  0
 17 41  1  0
 19 42  1  1
 21 43  1  0
 22 44  1  0
 24 45  1  0
 25 46  1  0
 26 47  1  0
 27 48  1  0
M  END
>  <smiles>  (34) 
O=S(=O)(Cc1ccccc1)N1Cc2ccccc2C1c1c[nH]c2ccccc12

>  <score_type>  (34) 
oracle

>  <origin>  (34) 
autodockgpu

>  <m_score__min__energy>  (34) 
-8.2400000000000002

>  <m_primary>  (34) 
energy

>  <rmsd>  (34) 
10.714750417336274

>  <m_score__min__rmsd>  (34) 
10.714750417336274

>  <meeko>  (34) 
{"free_energy": -8.15, "intermolecular_energy": -9.35, "internal_energy": -1.85, "cluster_size": 13, "cluster_id": 1, "rank_in_cluster": 7}

>  <energy>  (34) 
-7.13

>  <cluster_rmsd>  (34) 
0.02

>  <cluster>  (34) 
3

$$$$

     RDKit          3D

 48 52  0  0  0  0  0  0  0  0999 V2000
  140.7990   75.0870  221.9660 O   0  0  0  0  0  0  0  0  0  0  0  0
  140.3640   75.8320  220.7350 S   0  0  0  0  0  0  0  0  0  0  0  0
  138.9690   75.4320  220.4070 O   0  0  0  0  0  0  0  0  0  0  0  0
  141.3940   75.3570  219.3480 C   0  0  0  0  0  0  0  0  0  0  0  0
  142.5590   74.6050  219.8800 C   0  0  0  0  0  0  0  0  0  0  0  0
  143.7960   75.2350  219.9790 C   0  0  0  0  0  0  0  0  0  0  0  0
  144.8850   74.5160  220.4810 C   0  0  0  0  0  0  0  0  0  0  0  0
  144.7430   73.1950  220.8780 C   0  0  0  0  0  0  0  0  0  0  0  0
  143.5000   72.5940  220.7680 C   0  0  0  0  0  0  0  0  0  0  0  0
  142.3950   73.2810  220.2720 C   0  0  0  0  0  0  0  0  0  0  0  0
  140.5800   77.4790  221.0050 N   0  0  0  0  0  0  0  0  0  0  0  0
  139.7790   78.1030  221.9900 C   0  0  0  0  0  0  0  0  0  0  0  0
  140.6630   79.0900  222.6840 C   0  0  0  0  0  0  0  0  0  0  0  0
  140.4950   79.9920  223.6930 C   0  0  0  0  0  0  0  0  0  0  0  0
  141.4850   80.8190  224.1790 C   0  0  0  0  0  0  0  0  0  0  0  0
  142.7520   80.7440  223.6160 C   0  0  0  0  0  0  0  0  0  0  0  0
  142.9520   79.8300  222.5830 C   0  0  0  0  0  0  0  0  0  0  0  0
  141.9400   79.0160  222.1190 C   0  0  0  0  0  0  0  0  0  0  0  0
  141.9130   77.9710  221.0370 C   0  0  2  0  0  0  0  0  0  0  0  0
  142.1600   78.6230  219.7030 C   0  0  0  0  0  0  0  0  0  0  0  0
  142.8380   77.9690  218.6950 C   0  0  0  0  0  0  0  0  0  0  0  0
  142.8850   78.8230  217.6510 N   0  0  0  0  0  0  0  0  0  0  0  0
  142.2540   79.9840  217.9870 C   0  0  0  0  0  0  0  0  0  0  0  0
  142.0350   81.1570  217.2660 C   0  0  0  0  0  0  0  0  0  0  0  0
  141.3520   82.1830  217.8840 C   0  0  0  0  0  0  0  0  0  0  0  0
  140.8820   82.0730  219.1940 C   0  0  0  0  0  0  0  0  0  0  0  0
  141.1040   80.8950  219.9100 C   0  0  0  0  0  0  0  0  0  0  0  0
  141.7850   79.8820  219.2870 C   0  0  0  0  0  0  0  0  0  0  0  0
  140.8212   74.7196  218.6583 H   0  0  0  0  0  0  0  0  0  0  0  0
  141.7319   76.2484  218.7991 H   0  0  0  0  0  0  0  0  0  0  0  0
  143.9152   76.2831  219.6669 H   0  0  0  0  0  0  0  0  0  0  0  0
  145.8672   75.0046  220.5621 H   0  0  0  0  0  0  0  0  0  0  0  0
  145.6027   72.6341  221.2735 H   0  0  0  0  0  0  0  0  0  0  0  0
  143.3826   71.5460  221.0808 H   0  0  0  0  0  0  0  0  0  0  0  0
  141.4151   72.7877  220.1921 H   0  0  0  0  0  0  0  0  0  0  0  0
  138.9284   78.6179  221.5195 H   0  0  0  0  0  0  0  0  0  0  0  0
  139.3678   77.3673  222.6969 H   0  0  0  0  0  0  0  0  0  0  0  0
  139.4980   80.0648  224.1519 H   0  0  0  0  0  0  0  0  0  0  0  0
  141.2754   81.5244  224.9966 H   0  0  0  0  0  0  0  0  0  0  0  0
  143.5712   81.3851  223.9736 H   0  0  0  0  0  0  0  0  0  0  0  0
  143.9485   79.7555  222.1232 H   0  0  0  0  0  0  0  0  0  0  0  0
  142.6663   77.1920  221.2260 H   0  0  0  0  0  0  0  0  0  0  0  0
  143.2572   76.9528  218.7344 H   0  0  0  0  0  0  0  0  0  0  0  0
  143.3320   78.6560  216.7000 H   0  0  0  0  0  0  0  0  0  0  0  0
  142.3971   81.2611  216.2326 H   0  0  0  0  0  0  0  0  0  0  0  0
  141.1722   83.1154  217.3287 H   0  0  0  0  0  0  0  0  0  0  0  0
  140.3400   82.9094  219.6594 H   0  0  0  0  0  0  0  0  0  0  0  0
  140.7431   80.7834  220.9431 H   0  0  0  0  0  0  0  0  0  0  0  0
  1  2  2  0
  2  3  2  0
  2  4  1  0
  4  5  1  0
  5  6  2  0
  6  7  1  0
  7  8  2  0
  8  9  1  0
  9 10  2  0
  2 11  1  0
 11 12  1  0
 12 13  1  0
 13 14  2  0
 14 15  1  0
 15 16  2  0
 16 17  1  0
 17 18  2  0
 18 19  1  0
 19 20  1  0
 20 21  2  0
 21 22  1  0
 22 23  1  0
 23 24  2  0
 24 25  1  0
 25 26  2  0
 26 27  1  0
 27 28  2  0
 10  5  1  0
 19 11  1  0
 28 20  1  0
 18 13  1  0
 28 23  1  0
  4 29  1  0
  4 30  1  0
  6 31  1  0
  7 32  1  0
  8 33  1  0
  9 34  1  0
 10 35  1  0
 12 36  1  0
 12 37  1  0
 14 38  1  0
 15 39  1  0
 16 40  1  0
 17 41  1  0
 19 42  1  1
 21 43  1  0
 22 44  1  0
 24 45  1  0
 25 46  1  0
 26 47  1  0
 27 48  1  0
M  END
>  <smiles>  (35) 
O=S(=O)(Cc1ccccc1)N1Cc2ccccc2C1c1c[nH]c2ccccc12

>  <score_type>  (35) 
oracle

>  <origin>  (35) 
autodockgpu

>  <m_score__min__energy>  (35) 
-8.2400000000000002

>  <m_primary>  (35) 
energy

>  <rmsd>  (35) 
5.171293206118915

>  <m_score__min__rmsd>  (35) 
5.171293206118915

>  <meeko>  (35) 
{"free_energy": -8.01, "intermolecular_energy": -9.2, "internal_energy": -1.78, "cluster_size": 11, "cluster_id": 2, "rank_in_cluster": 7}

>  <energy>  (35) 
-7.12

>  <cluster_rmsd>  (35) 
0.03

>  <cluster>  (35) 
3

$$$$

     RDKit          3D

 48 52  0  0  0  0  0  0  0  0999 V2000
  143.6680   80.2740  222.9120 O   0  0  0  0  0  0  0  0  0  0  0  0
  142.2440   80.4460  222.4600 S   0  0  0  0  0  0  0  0  0  0  0  0
  142.1990   81.5290  221.4410 O   0  0  0  0  0  0  0  0  0  0  0  0
  141.2320   80.9720  223.8410 C   0  0  0  0  0  0  0  0  0  0  0  0
  139.8090   80.8820  223.4260 C   0  0  0  0  0  0  0  0  0  0  0  0
  138.9120   80.1550  224.2040 C   0  0  0  0  0  0  0  0  0  0  0  0
  137.5750   80.0780  223.8010 C   0  0  0  0  0  0  0  0  0  0  0  0
  137.1420   80.7120  222.6470 C   0  0  0  0  0  0  0  0  0  0  0  0
  138.0570   81.4280  221.8940 C   0  0  0  0  0  0  0  0  0  0  0  0
  139.3960   81.5250  222.2650 C   0  0  0  0  0  0  0  0  0  0  0  0
  141.6700   78.9550  221.9290 N   0  0  0  0  0  0  0  0  0  0  0  0
  141.2030   78.0380  222.9010 C   0  0  0  0  0  0  0  0  0  0  0  0
  140.0090   77.3670  222.3010 C   0  0  0  0  0  0  0  0  0  0  0  0
  139.1380   76.4010  222.7120 C   0  0  0  0  0  0  0  0  0  0  0  0
  138.0800   75.9290  221.9660 C   0  0  0  0  0  0  0  0  0  0  0  0
  137.8660   76.4620  220.7010 C   0  0  0  0  0  0  0  0  0  0  0  0
  138.7410   77.4520  220.2560 C   0  0  0  0  0  0  0  0  0  0  0  0
  139.7910   77.9030  221.0280 C   0  0  0  0  0  0  0  0  0  0  0  0
  140.8480   78.9420  220.7700 C   0  0  2  0  0  0  0  0  0  0  0  0
  141.7250   78.4950  219.6310 C   0  0  0  0  0  0  0  0  0  0  0  0
  142.0900   79.3600  218.6210 C   0  0  0  0  0  0  0  0  0  0  0  0
  142.8640   78.6500  217.7730 N   0  0  0  0  0  0  0  0  0  0  0  0
  142.9850   77.3720  218.2330 C   0  0  0  0  0  0  0  0  0  0  0  0
  143.6700   76.2700  217.7240 C   0  0  0  0  0  0  0  0  0  0  0  0
  143.6060   75.0840  218.4240 C   0  0  0  0  0  0  0  0  0  0  0  0
  142.8830   74.9660  219.6120 C   0  0  0  0  0  0  0  0  0  0  0  0
  142.1990   76.0740  220.1160 C   0  0  0  0  0  0  0  0  0  0  0  0
  142.2690   77.2480  219.4120 C   0  0  0  0  0  0  0  0  0  0  0  0
  141.4109   80.3167  224.7062 H   0  0  0  0  0  0  0  0  0  0  0  0
  141.4824   82.0040  224.1278 H   0  0  0  0  0  0  0  0  0  0  0  0
  139.2494   79.6494  225.1208 H   0  0  0  0  0  0  0  0  0  0  0  0
  136.8574   79.5066  224.4080 H   0  0  0  0  0  0  0  0  0  0  0  0
  136.0892   80.6474  222.3347 H   0  0  0  0  0  0  0  0  0  0  0  0
  137.7174   81.9338  220.9781 H   0  0  0  0  0  0  0  0  0  0  0  0
  140.1097   82.0969  221.6537 H   0  0  0  0  0  0  0  0  0  0  0  0
  141.9820   77.2962  223.1309 H   0  0  0  0  0  0  0  0  0  0  0  0
  140.9465   78.5468  223.8419 H   0  0  0  0  0  0  0  0  0  0  0  0
  139.2913   75.9675  223.7113 H   0  0  0  0  0  0  0  0  0  0  0  0
  137.4181   75.1458  222.3641 H   0  0  0  0  0  0  0  0  0  0  0  0
  137.0337   76.1144  220.0713 H   0  0  0  0  0  0  0  0  0  0  0  0
  138.5890   77.8873  219.2573 H   0  0  0  0  0  0  0  0  0  0  0  0
  140.3915   79.9161  220.5405 H   0  0  0  0  0  0  0  0  0  0  0  0
  141.8067   80.4186  218.5253 H   0  0  0  0  0  0  0  0  0  0  0  0
  143.3260   78.9940  216.8780 H   0  0  0  0  0  0  0  0  0  0  0  0
  144.2457   76.3445  216.7897 H   0  0  0  0  0  0  0  0  0  0  0  0
  144.1405   74.2049  218.0348 H   0  0  0  0  0  0  0  0  0  0  0  0
  142.8522   74.0059  220.1480 H   0  0  0  0  0  0  0  0  0  0  0  0
  141.6215   76.0068  221.0498 H   0  0  0  0  0  0  0  0  0  0  0  0
  1  2  2  0
  2  3  2  0
  2  4  1  0
  4  5  1  0
  5  6  2  0
  6  7  1  0
  7  8  2  0
  8  9  1  0
  9 10  2  0
  2 11  1  0
 11 12  1  0
 12 13  1  0
 13 14  2  0
 14 15  1  0
 15 16  2  0
 16 17  1  0
 17 18  2  0
 18 19  1  0
 19 20  1  0
 20 21  2  0
 21 22  1  0
 22 23  1  0
 23 24  2  0
 24 25  1  0
 25 26  2  0
 26 27  1  0
 27 28  2  0
 10  5  1  0
 19 11  1  0
 28 20  1  0
 18 13  1  0
 28 23  1  0
  4 29  1  0
  4 30  1  0
  6 31  1  0
  7 32  1  0
  8 33  1  0
  9 34  1  0
 10 35  1  0
 12 36  1  0
 12 37  1  0
 14 38  1  0
 15 39  1  0
 16 40  1  0
 17 41  1  0
 19 42  1  6
 21 43  1  0
 22 44  1  0
 24 45  1  0
 25 46  1  0
 26 47  1  0
 27 48  1  0
M  END
>  <smiles>  (36) 
O=S(=O)(Cc1ccccc1)N1Cc2ccccc2C1c1c[nH]c2ccccc12

>  <score_type>  (36) 
oracle

>  <origin>  (36) 
autodockgpu

>  <m_score__min__energy>  (36) 
-8.2400000000000002

>  <m_primary>  (36) 
energy

>  <rmsd>  (36) 
5.254519765972399

>  <m_score__min__rmsd>  (36) 
5.254519765972399

>  <meeko>  (36) 
{"free_energy": -7.13, "intermolecular_energy": -8.33, "internal_energy": -2.54, "cluster_size": 22, "cluster_id": 3, "rank_in_cluster": 3}

>  <energy>  (36) 
-7.12

>  <cluster_rmsd>  (36) 
0.03

>  <cluster>  (36) 
3

$$$$

     RDKit          3D

 48 52  0  0  0  0  0  0  0  0999 V2000
  140.6950   75.1450  221.9660 O   0  0  0  0  0  0  0  0  0  0  0  0
  140.2760   75.9000  220.7360 S   0  0  0  0  0  0  0  0  0  0  0  0
  138.8710   75.5340  220.4110 O   0  0  0  0  0  0  0  0  0  0  0  0
  141.2910   75.4010  219.3470 C   0  0  0  0  0  0  0  0  0  0  0  0
  142.4450   74.6320  219.8780 C   0  0  0  0  0  0  0  0  0  0  0  0
  143.6870   75.2490  219.9930 C   0  0  0  0  0  0  0  0  0  0  0  0
  144.7660   74.5140  220.4940 C   0  0  0  0  0  0  0  0  0  0  0  0
  144.6080   73.1890  220.8730 C   0  0  0  0  0  0  0  0  0  0  0  0
  143.3600   72.6020  220.7480 C   0  0  0  0  0  0  0  0  0  0  0  0
  142.2660   73.3050  220.2520 C   0  0  0  0  0  0  0  0  0  0  0  0
  140.5310   77.5420  221.0060 N   0  0  0  0  0  0  0  0  0  0  0  0
  139.7350   78.1880  221.9810 C   0  0  0  0  0  0  0  0  0  0  0  0
  140.6360   79.1530  222.6840 C   0  0  0  0  0  0  0  0  0  0  0  0
  140.4810   80.0610  223.6890 C   0  0  0  0  0  0  0  0  0  0  0  0
  141.4860   80.8630  224.1860 C   0  0  0  0  0  0  0  0  0  0  0  0
  142.7580   80.7550  223.6370 C   0  0  0  0  0  0  0  0  0  0  0  0
  142.9450   79.8330  222.6070 C   0  0  0  0  0  0  0  0  0  0  0  0
  141.9170   79.0450  222.1340 C   0  0  0  0  0  0  0  0  0  0  0  0
  141.8760   78.0000  221.0520 C   0  0  2  0  0  0  0  0  0  0  0  0
  142.1540   78.6430  219.7200 C   0  0  0  0  0  0  0  0  0  0  0  0
  142.8090   77.9630  218.7150 C   0  0  0  0  0  0  0  0  0  0  0  0
  142.8950   78.8150  217.6710 N   0  0  0  0  0  0  0  0  0  0  0  0
  142.3110   80.0000  218.0070 C   0  0  0  0  0  0  0  0  0  0  0  0
  142.1430   81.1820  217.2870 C   0  0  0  0  0  0  0  0  0  0  0  0
  141.5000   82.2350  217.9030 C   0  0  0  0  0  0  0  0  0  0  0  0
  141.0210   82.1420  219.2110 C   0  0  0  0  0  0  0  0  0  0  0  0
  141.1920   80.9560  219.9270 C   0  0  0  0  0  0  0  0  0  0  0  0
  141.8330   79.9160  219.3040 C   0  0  0  0  0  0  0  0  0  0  0  0
  140.7044   74.7701  218.6630 H   0  0  0  0  0  0  0  0  0  0  0  0
  141.6415   76.2836  218.7919 H   0  0  0  0  0  0  0  0  0  0  0  0
  143.8181   76.2995  219.6942 H   0  0  0  0  0  0  0  0  0  0  0  0
  145.7520   74.9923  220.5887 H   0  0  0  0  0  0  0  0  0  0  0  0
  145.4596   72.6143  221.2662 H   0  0  0  0  0  0  0  0  0  0  0  0
  143.2298   71.5520  221.0488 H   0  0  0  0  0  0  0  0  0  0  0  0
  141.2823   72.8218  220.1580 H   0  0  0  0  0  0  0  0  0  0  0  0
  138.9034   78.7240  221.5001 H   0  0  0  0  0  0  0  0  0  0  0  0
  139.2969   77.4642  222.6840 H   0  0  0  0  0  0  0  0  0  0  0  0
  139.4809   80.1610  224.1360 H   0  0  0  0  0  0  0  0  0  0  0  0
  141.2851   81.5742  225.0008 H   0  0  0  0  0  0  0  0  0  0  0  0
  143.5894   81.3757  224.0023 H   0  0  0  0  0  0  0  0  0  0  0  0
  143.9440   79.7314  222.1580 H   0  0  0  0  0  0  0  0  0  0  0  0
  142.6079   77.2030  221.2498 H   0  0  0  0  0  0  0  0  0  0  0  0
  143.1867   76.9307  218.7557 H   0  0  0  0  0  0  0  0  0  0  0  0
  143.3380   78.6310  216.7220 H   0  0  0  0  0  0  0  0  0  0  0  0
  142.5134   81.2722  216.2552 H   0  0  0  0  0  0  0  0  0  0  0  0
  141.3606   83.1746  217.3482 H   0  0  0  0  0  0  0  0  0  0  0  0
  140.5113   82.9992  219.6751 H   0  0  0  0  0  0  0  0  0  0  0  0
  140.8240   80.8586  220.9590 H   0  0  0  0  0  0  0  0  0  0  0  0
  1  2  2  0
  2  3  2  0
  2  4  1  0
  4  5  1  0
  5  6  2  0
  6  7  1  0
  7  8  2  0
  8  9  1  0
  9 10  2  0
  2 11  1  0
 11 12  1  0
 12 13  1  0
 13 14  2  0
 14 15  1  0
 15 16  2  0
 16 17  1  0
 17 18  2  0
 18 19  1  0
 19 20  1  0
 20 21  2  0
 21 22  1  0
 22 23  1  0
 23 24  2  0
 24 25  1  0
 25 26  2  0
 26 27  1  0
 27 28  2  0
 10  5  1  0
 19 11  1  0
 28 20  1  0
 18 13  1  0
 28 23  1  0
  4 29  1  0
  4 30  1  0
  6 31  1  0
  7 32  1  0
  8 33  1  0
  9 34  1  0
 10 35  1  0
 12 36  1  0
 12 37  1  0
 14 38  1  0
 15 39  1  0
 16 40  1  0
 17 41  1  0
 19 42  1  1
 21 43  1  0
 22 44  1  0
 24 45  1  0
 25 46  1  0
 26 47  1  0
 27 48  1  0
M  END
>  <smiles>  (37) 
O=S(=O)(Cc1ccccc1)N1Cc2ccccc2C1c1c[nH]c2ccccc12

>  <score_type>  (37) 
oracle

>  <origin>  (37) 
autodockgpu

>  <m_score__min__energy>  (37) 
-8.2400000000000002

>  <m_primary>  (37) 
energy

>  <rmsd>  (37) 
5.186659760142193

>  <m_score__min__rmsd>  (37) 
5.186659760142193

>  <meeko>  (37) 
{"free_energy": -8.03, "intermolecular_energy": -9.22, "internal_energy": -1.75, "cluster_size": 11, "cluster_id": 2, "rank_in_cluster": 4}

>  <energy>  (37) 
-7.12

>  <cluster_rmsd>  (37) 
0.03

>  <cluster>  (37) 
3

$$$$

     RDKit          3D

 48 52  0  0  0  0  0  0  0  0999 V2000
  143.6570   80.2650  222.9550 O   0  0  0  0  0  0  0  0  0  0  0  0
  142.2410   80.4410  222.4830 S   0  0  0  0  0  0  0  0  0  0  0  0
  142.2130   81.5230  221.4630 O   0  0  0  0  0  0  0  0  0  0  0  0
  141.2110   80.9710  223.8490 C   0  0  0  0  0  0  0  0  0  0  0  0
  139.7940   80.8820  223.4150 C   0  0  0  0  0  0  0  0  0  0  0  0
  139.3890   81.5350  222.2540 C   0  0  0  0  0  0  0  0  0  0  0  0
  138.0520   81.4430  221.8550 C   0  0  0  0  0  0  0  0  0  0  0  0
  137.1370   80.7140  222.5990 C   0  0  0  0  0  0  0  0  0  0  0  0
  137.5680   80.0740  223.7490 C   0  0  0  0  0  0  0  0  0  0  0  0
  138.8930   80.1460  224.1750 C   0  0  0  0  0  0  0  0  0  0  0  0
  141.6690   78.9510  221.9460 N   0  0  0  0  0  0  0  0  0  0  0  0
  141.2080   78.0280  222.9130 C   0  0  0  0  0  0  0  0  0  0  0  0
  140.0130   77.3560  222.3120 C   0  0  0  0  0  0  0  0  0  0  0  0
  139.1460   76.3850  222.7190 C   0  0  0  0  0  0  0  0  0  0  0  0
  138.0880   75.9150  221.9730 C   0  0  0  0  0  0  0  0  0  0  0  0
  137.8700   76.4540  220.7110 C   0  0  0  0  0  0  0  0  0  0  0  0
  138.7410   77.4490  220.2700 C   0  0  0  0  0  0  0  0  0  0  0  0
  139.7910   77.8980  221.0430 C   0  0  0  0  0  0  0  0  0  0  0  0
  140.8460   78.9420  220.7880 C   0  0  2  0  0  0  0  0  0  0  0  0
  141.7200   78.5040  219.6440 C   0  0  0  0  0  0  0  0  0  0  0  0
  142.0870   79.3770  218.6420 C   0  0  0  0  0  0  0  0  0  0  0  0
  142.8600   78.6740  217.7870 N   0  0  0  0  0  0  0  0  0  0  0  0
  142.9780   77.3920  218.2360 C   0  0  0  0  0  0  0  0  0  0  0  0
  143.6620   76.2930  217.7170 C   0  0  0  0  0  0  0  0  0  0  0  0
  143.5960   75.1010  218.4060 C   0  0  0  0  0  0  0  0  0  0  0  0
  142.8730   74.9740  219.5940 C   0  0  0  0  0  0  0  0  0  0  0  0
  142.1910   76.0780  220.1080 C   0  0  0  0  0  0  0  0  0  0  0  0
  142.2630   77.2580  219.4140 C   0  0  0  0  0  0  0  0  0  0  0  0
  141.3773   80.3172  224.7178 H   0  0  0  0  0  0  0  0  0  0  0  0
  141.4588   82.0033  224.1371 H   0  0  0  0  0  0  0  0  0  0  0  0
  140.1102   82.1148  221.6593 H   0  0  0  0  0  0  0  0  0  0  0  0
  137.7220   81.9555  220.9393 H   0  0  0  0  0  0  0  0  0  0  0  0
  136.0862   80.6451  222.2811 H   0  0  0  0  0  0  0  0  0  0  0  0
  136.8456   79.4936  224.3417 H   0  0  0  0  0  0  0  0  0  0  0  0
  139.2181   79.6321  225.0917 H   0  0  0  0  0  0  0  0  0  0  0  0
  141.9899   77.2873  223.1365 H   0  0  0  0  0  0  0  0  0  0  0  0
  140.9526   78.5307  223.8575 H   0  0  0  0  0  0  0  0  0  0  0  0
  139.3031   75.9455  223.7151 H   0  0  0  0  0  0  0  0  0  0  0  0
  137.4285   75.1284  222.3685 H   0  0  0  0  0  0  0  0  0  0  0  0
  137.0378   76.1071  220.0809 H   0  0  0  0  0  0  0  0  0  0  0  0
  138.5859   77.8898  219.2742 H   0  0  0  0  0  0  0  0  0  0  0  0
  140.3879   79.9168  220.5645 H   0  0  0  0  0  0  0  0  0  0  0  0
  141.8056   80.4369  218.5561 H   0  0  0  0  0  0  0  0  0  0  0  0
  143.3220   79.0250  216.8960 H   0  0  0  0  0  0  0  0  0  0  0  0
  144.2382   76.3752  216.7836 H   0  0  0  0  0  0  0  0  0  0  0  0
  144.1283   74.2243  218.0085 H   0  0  0  0  0  0  0  0  0  0  0  0
  142.8412   74.0094  220.1217 H   0  0  0  0  0  0  0  0  0  0  0  0
  141.6135   76.0035  221.0412 H   0  0  0  0  0  0  0  0  0  0  0  0
  1  2  2  0
  2  3  2  0
  2  4  1  0
  4  5  1  0
  5  6  2  0
  6  7  1  0
  7  8  2  0
  8  9  1  0
  9 10  2  0
  2 11  1  0
 11 12  1  0
 12 13  1  0
 13 14  2  0
 14 15  1  0
 15 16  2  0
 16 17  1  0
 17 18  2  0
 18 19  1  0
 19 20  1  0
 20 21  2  0
 21 22  1  0
 22 23  1  0
 23 24  2  0
 24 25  1  0
 25 26  2  0
 26 27  1  0
 27 28  2  0
 10  5  1  0
 19 11  1  0
 28 20  1  0
 18 13  1  0
 28 23  1  0
  4 29  1  0
  4 30  1  0
  6 31  1  0
  7 32  1  0
  8 33  1  0
  9 34  1  0
 10 35  1  0
 12 36  1  0
 12 37  1  0
 14 38  1  0
 15 39  1  0
 16 40  1  0
 17 41  1  0
 19 42  1  6
 21 43  1  0
 22 44  1  0
 24 45  1  0
 25 46  1  0
 26 47  1  0
 27 48  1  0
M  END
>  <smiles>  (38) 
O=S(=O)(Cc1ccccc1)N1Cc2ccccc2C1c1c[nH]c2ccccc12

>  <score_type>  (38) 
oracle

>  <origin>  (38) 
autodockgpu

>  <m_score__min__energy>  (38) 
-8.2400000000000002

>  <m_primary>  (38) 
energy

>  <rmsd>  (38) 
5.248714554090335

>  <m_score__min__rmsd>  (38) 
5.248714554090335

>  <meeko>  (38) 
{"free_energy": -7.12, "intermolecular_energy": -8.31, "internal_energy": -2.55, "cluster_size": 22, "cluster_id": 3, "rank_in_cluster": 16}

>  <energy>  (38) 
-7.12

>  <cluster_rmsd>  (38) 
0.03

>  <cluster>  (38) 
3

$$$$

     RDKit          3D

 48 52  0  0  0  0  0  0  0  0999 V2000
  143.6550   80.2730  222.9580 O   0  0  0  0  0  0  0  0  0  0  0  0
  142.2390   80.4480  222.4850 S   0  0  0  0  0  0  0  0  0  0  0  0
  142.2100   81.5310  221.4660 O   0  0  0  0  0  0  0  0  0  0  0  0
  141.2080   80.9760  223.8520 C   0  0  0  0  0  0  0  0  0  0  0  0
  139.7910   80.8840  223.4180 C   0  0  0  0  0  0  0  0  0  0  0  0
  138.8870   80.1480  224.1790 C   0  0  0  0  0  0  0  0  0  0  0  0
  137.5550   80.0680  223.7590 C   0  0  0  0  0  0  0  0  0  0  0  0
  137.1340   80.7110  222.6050 C   0  0  0  0  0  0  0  0  0  0  0  0
  138.0560   81.4370  221.8690 C   0  0  0  0  0  0  0  0  0  0  0  0
  139.3890   81.5360  222.2590 C   0  0  0  0  0  0  0  0  0  0  0  0
  141.6700   78.9580  221.9480 N   0  0  0  0  0  0  0  0  0  0  0  0
  141.2090   78.0330  222.9150 C   0  0  0  0  0  0  0  0  0  0  0  0
  140.0150   77.3610  222.3140 C   0  0  0  0  0  0  0  0  0  0  0  0
  139.1490   76.3890  222.7210 C   0  0  0  0  0  0  0  0  0  0  0  0
  138.0920   75.9170  221.9740 C   0  0  0  0  0  0  0  0  0  0  0  0
  137.8730   76.4560  220.7130 C   0  0  0  0  0  0  0  0  0  0  0  0
  138.7430   77.4520  220.2710 C   0  0  0  0  0  0  0  0  0  0  0  0
  139.7930   77.9030  221.0440 C   0  0  0  0  0  0  0  0  0  0  0  0
  140.8460   78.9470  220.7900 C   0  0  2  0  0  0  0  0  0  0  0  0
  141.7220   78.5110  219.6470 C   0  0  0  0  0  0  0  0  0  0  0  0
  142.0920   79.3860  218.6470 C   0  0  0  0  0  0  0  0  0  0  0  0
  142.8640   78.6830  217.7910 N   0  0  0  0  0  0  0  0  0  0  0  0
  142.9790   77.4000  218.2370 C   0  0  0  0  0  0  0  0  0  0  0  0
  143.6610   76.3010  217.7160 C   0  0  0  0  0  0  0  0  0  0  0  0
  143.5920   75.1070  218.4020 C   0  0  0  0  0  0  0  0  0  0  0  0
  142.8670   74.9790  219.5880 C   0  0  0  0  0  0  0  0  0  0  0  0
  142.1860   76.0830  220.1040 C   0  0  0  0  0  0  0  0  0  0  0  0
  142.2620   77.2650  219.4140 C   0  0  0  0  0  0  0  0  0  0  0  0
  141.3758   80.3224  224.7207 H   0  0  0  0  0  0  0  0  0  0  0  0
  141.4538   82.0087  224.1404 H   0  0  0  0  0  0  0  0  0  0  0  0
  139.2150   79.6373  225.0964 H   0  0  0  0  0  0  0  0  0  0  0  0
  136.8326   79.4877  224.3517 H   0  0  0  0  0  0  0  0  0  0  0  0
  136.0853   80.6457  222.2793 H   0  0  0  0  0  0  0  0  0  0  0  0
  137.7265   81.9486  220.9526 H   0  0  0  0  0  0  0  0  0  0  0  0
  140.1077   82.1174  221.6628 H   0  0  0  0  0  0  0  0  0  0  0  0
  141.9914   77.2926  223.1378 H   0  0  0  0  0  0  0  0  0  0  0  0
  140.9532   78.5349  223.8598 H   0  0  0  0  0  0  0  0  0  0  0  0
  139.3059   75.9503  223.7175 H   0  0  0  0  0  0  0  0  0  0  0  0
  137.4343   75.1286  222.3687 H   0  0  0  0  0  0  0  0  0  0  0  0
  137.0405   76.1086  220.0835 H   0  0  0  0  0  0  0  0  0  0  0  0
  138.5873   77.8919  219.2749 H   0  0  0  0  0  0  0  0  0  0  0  0
  140.3851   79.9205  220.5666 H   0  0  0  0  0  0  0  0  0  0  0  0
  141.8132   80.4468  218.5634 H   0  0  0  0  0  0  0  0  0  0  0  0
  143.3280   79.0370  216.9020 H   0  0  0  0  0  0  0  0  0  0  0  0
  144.2382   76.3843  216.7833 H   0  0  0  0  0  0  0  0  0  0  0  0
  144.1234   74.2303  218.0033 H   0  0  0  0  0  0  0  0  0  0  0  0
  142.8325   74.0131  220.1133 H   0  0  0  0  0  0  0  0  0  0  0  0
  141.6062   76.0067  221.0357 H   0  0  0  0  0  0  0  0  0  0  0  0
  1  2  2  0
  2  3  2  0
  2  4  1  0
  4  5  1  0
  5  6  2  0
  6  7  1  0
  7  8  2  0
  8  9  1  0
  9 10  2  0
  2 11  1  0
 11 12  1  0
 12 13  1  0
 13 14  2  0
 14 15  1  0
 15 16  2  0
 16 17  1  0
 17 18  2  0
 18 19  1  0
 19 20  1  0
 20 21  2  0
 21 22  1  0
 22 23  1  0
 23 24  2  0
 24 25  1  0
 25 26  2  0
 26 27  1  0
 27 28  2  0
 10  5  1  0
 19 11  1  0
 28 20  1  0
 18 13  1  0
 28 23  1  0
  4 29  1  0
  4 30  1  0
  6 31  1  0
  7 32  1  0
  8 33  1  0
  9 34  1  0
 10 35  1  0
 12 36  1  0
 12 37  1  0
 14 38  1  0
 15 39  1  0
 16 40  1  0
 17 41  1  0
 19 42  1  6
 21 43  1  0
 22 44  1  0
 24 45  1  0
 25 46  1  0
 26 47  1  0
 27 48  1  0
M  END
>  <smiles>  (39) 
O=S(=O)(Cc1ccccc1)N1Cc2ccccc2C1c1c[nH]c2ccccc12

>  <score_type>  (39) 
oracle

>  <origin>  (39) 
autodockgpu

>  <m_score__min__energy>  (39) 
-8.2400000000000002

>  <m_primary>  (39) 
energy

>  <rmsd>  (39) 
5.245496961363352

>  <m_score__min__rmsd>  (39) 
5.245496961363352

>  <meeko>  (39) 
{"free_energy": -7.12, "intermolecular_energy": -8.32, "internal_energy": -2.55, "cluster_size": 22, "cluster_id": 3, "rank_in_cluster": 13}

>  <energy>  (39) 
-7.12

>  <cluster_rmsd>  (39) 
0.04

>  <cluster>  (39) 
3

$$$$

     RDKit          3D

 48 52  0  0  0  0  0  0  0  0999 V2000
  143.6760   80.2950  222.9380 O   0  0  0  0  0  0  0  0  0  0  0  0
  142.2550   80.4650  222.4770 S   0  0  0  0  0  0  0  0  0  0  0  0
  142.2130   81.5490  221.4590 O   0  0  0  0  0  0  0  0  0  0  0  0
  141.2330   80.9870  223.8530 C   0  0  0  0  0  0  0  0  0  0  0  0
  139.8130   80.8990  223.4260 C   0  0  0  0  0  0  0  0  0  0  0  0
  139.4030   81.5510  222.2670 C   0  0  0  0  0  0  0  0  0  0  0  0
  138.0640   81.4610  221.8760 C   0  0  0  0  0  0  0  0  0  0  0  0
  137.1520   80.7330  222.6260 C   0  0  0  0  0  0  0  0  0  0  0  0
  137.5890   80.0940  223.7740 C   0  0  0  0  0  0  0  0  0  0  0  0
  138.9160   80.1650  224.1920 C   0  0  0  0  0  0  0  0  0  0  0  0
  141.6870   78.9730  221.9420 N   0  0  0  0  0  0  0  0  0  0  0  0
  141.2320   78.0480  222.9110 C   0  0  0  0  0  0  0  0  0  0  0  0
  140.0380   77.3720  222.3150 C   0  0  0  0  0  0  0  0  0  0  0  0
  139.1750   76.3980  222.7240 C   0  0  0  0  0  0  0  0  0  0  0  0
  138.1170   75.9240  221.9810 C   0  0  0  0  0  0  0  0  0  0  0  0
  137.8930   76.4620  220.7200 C   0  0  0  0  0  0  0  0  0  0  0  0
  138.7590   77.4600  220.2750 C   0  0  0  0  0  0  0  0  0  0  0  0
  139.8100   77.9130  221.0450 C   0  0  0  0  0  0  0  0  0  0  0  0
  140.8600   78.9600  220.7870 C   0  0  2  0  0  0  0  0  0  0  0  0
  141.7330   78.5250  219.6410 C   0  0  0  0  0  0  0  0  0  0  0  0
  142.0960   79.4000  218.6390 C   0  0  0  0  0  0  0  0  0  0  0  0
  142.8680   78.6980  217.7810 N   0  0  0  0  0  0  0  0  0  0  0  0
  142.9900   77.4160  218.2290 C   0  0  0  0  0  0  0  0  0  0  0  0
  143.6740   76.3190  217.7070 C   0  0  0  0  0  0  0  0  0  0  0  0
  143.6120   75.1260  218.3960 C   0  0  0  0  0  0  0  0  0  0  0  0
  142.8930   74.9970  219.5850 C   0  0  0  0  0  0  0  0  0  0  0  0
  142.2100   76.1000  220.1020 C   0  0  0  0  0  0  0  0  0  0  0  0
  142.2770   77.2810  219.4090 C   0  0  0  0  0  0  0  0  0  0  0  0
  141.4049   80.3285  224.7172 H   0  0  0  0  0  0  0  0  0  0  0  0
  141.4819   82.0176  224.1459 H   0  0  0  0  0  0  0  0  0  0  0  0
  140.1219   82.1286  221.6674 H   0  0  0  0  0  0  0  0  0  0  0  0
  137.7293   81.9738  220.9622 H   0  0  0  0  0  0  0  0  0  0  0  0
  136.0994   80.6645  222.3140 H   0  0  0  0  0  0  0  0  0  0  0  0
  136.8695   79.5151  224.3716 H   0  0  0  0  0  0  0  0  0  0  0  0
  139.2459   79.6518  225.1073 H   0  0  0  0  0  0  0  0  0  0  0  0
  142.0172   77.3100  223.1319 H   0  0  0  0  0  0  0  0  0  0  0  0
  140.9779   78.5502  223.8561 H   0  0  0  0  0  0  0  0  0  0  0  0
  139.3360   75.9593  223.7198 H   0  0  0  0  0  0  0  0  0  0  0  0
  137.4619   75.1347  222.3783 H   0  0  0  0  0  0  0  0  0  0  0  0
  137.0596   76.1121  220.0931 H   0  0  0  0  0  0  0  0  0  0  0  0
  138.5992   77.8996  219.2794 H   0  0  0  0  0  0  0  0  0  0  0  0
  140.3968   79.9326  220.5647 H   0  0  0  0  0  0  0  0  0  0  0  0
  141.8130   80.4597  218.5550 H   0  0  0  0  0  0  0  0  0  0  0  0
  143.3270   79.0520  216.8890 H   0  0  0  0  0  0  0  0  0  0  0  0
  144.2470   76.4027  216.7718 H   0  0  0  0  0  0  0  0  0  0  0  0
  144.1449   74.2505  217.9966 H   0  0  0  0  0  0  0  0  0  0  0  0
  142.8644   74.0319  220.1121 H   0  0  0  0  0  0  0  0  0  0  0  0
  141.6356   76.0235  221.0370 H   0  0  0  0  0  0  0  0  0  0  0  0
  1  2  2  0
  2  3  2  0
  2  4  1  0
  4  5  1  0
  5  6  2  0
  6  7  1  0
  7  8  2  0
  8  9  1  0
  9 10  2  0
  2 11  1  0
 11 12  1  0
 12 13  1  0
 13 14  2  0
 14 15  1  0
 15 16  2  0
 16 17  1  0
 17 18  2  0
 18 19  1  0
 19 20  1  0
 20 21  2  0
 21 22  1  0
 22 23  1  0
 23 24  2  0
 24 25  1  0
 25 26  2  0
 26 27  1  0
 27 28  2  0
 10  5  1  0
 19 11  1  0
 28 20  1  0
 18 13  1  0
 28 23  1  0
  4 29  1  0
  4 30  1  0
  6 31  1  0
  7 32  1  0
  8 33  1  0
  9 34  1  0
 10 35  1  0
 12 36  1  0
 12 37  1  0
 14 38  1  0
 15 39  1  0
 16 40  1  0
 17 41  1  0
 19 42  1  6
 21 43  1  0
 22 44  1  0
 24 45  1  0
 25 46  1  0
 26 47  1  0
 27 48  1  0
M  END
>  <smiles>  (40) 
O=S(=O)(Cc1ccccc1)N1Cc2ccccc2C1c1c[nH]c2ccccc12

>  <score_type>  (40) 
oracle

>  <origin>  (40) 
autodockgpu

>  <m_score__min__energy>  (40) 
-8.2400000000000002

>  <m_primary>  (40) 
energy

>  <rmsd>  (40) 
5.242206102575147

>  <m_score__min__rmsd>  (40) 
5.242206102575147

>  <meeko>  (40) 
{"free_energy": -7.12, "intermolecular_energy": -8.32, "internal_energy": -2.55, "cluster_size": 22, "cluster_id": 3, "rank_in_cluster": 12}

>  <energy>  (40) 
-7.12

>  <cluster_rmsd>  (40) 
0.03

>  <cluster>  (40) 
3

$$$$

     RDKit          3D

 48 52  0  0  0  0  0  0  0  0999 V2000
  143.6500   80.2650  222.9520 O   0  0  0  0  0  0  0  0  0  0  0  0
  142.2330   80.4410  222.4830 S   0  0  0  0  0  0  0  0  0  0  0  0
  142.2010   81.5270  221.4670 O   0  0  0  0  0  0  0  0  0  0  0  0
  141.2040   80.9640  223.8540 C   0  0  0  0  0  0  0  0  0  0  0  0
  139.7870   80.8760  223.4210 C   0  0  0  0  0  0  0  0  0  0  0  0
  139.3810   81.5330  222.2630 C   0  0  0  0  0  0  0  0  0  0  0  0
  138.0430   81.4430  221.8660 C   0  0  0  0  0  0  0  0  0  0  0  0
  137.1290   80.7110  222.6080 C   0  0  0  0  0  0  0  0  0  0  0  0
  137.5620   80.0670  223.7560 C   0  0  0  0  0  0  0  0  0  0  0  0
  138.8860   80.1370  224.1800 C   0  0  0  0  0  0  0  0  0  0  0  0
  141.6630   78.9520  221.9420 N   0  0  0  0  0  0  0  0  0  0  0  0
  141.2000   78.0260  222.9060 C   0  0  0  0  0  0  0  0  0  0  0  0
  140.0070   77.3560  222.3020 C   0  0  0  0  0  0  0  0  0  0  0  0
  139.1390   76.3830  222.7060 C   0  0  0  0  0  0  0  0  0  0  0  0
  138.0830   75.9140  221.9570 C   0  0  0  0  0  0  0  0  0  0  0  0
  137.8660   76.4560  220.6960 C   0  0  0  0  0  0  0  0  0  0  0  0
  138.7380   77.4520  220.2580 C   0  0  0  0  0  0  0  0  0  0  0  0
  139.7860   77.9000  221.0330 C   0  0  0  0  0  0  0  0  0  0  0  0
  140.8410   78.9440  220.7830 C   0  0  2  0  0  0  0  0  0  0  0  0
  141.7180   78.5090  219.6400 C   0  0  0  0  0  0  0  0  0  0  0  0
  142.0860   79.3850  218.6400 C   0  0  0  0  0  0  0  0  0  0  0  0
  142.8610   78.6830  217.7850 N   0  0  0  0  0  0  0  0  0  0  0  0
  142.9790   77.4000  218.2320 C   0  0  0  0  0  0  0  0  0  0  0  0
  143.6630   76.3030  217.7110 C   0  0  0  0  0  0  0  0  0  0  0  0
  143.5970   75.1090  218.3980 C   0  0  0  0  0  0  0  0  0  0  0  0
  142.8720   74.9800  219.5840 C   0  0  0  0  0  0  0  0  0  0  0  0
  142.1890   76.0830  220.1000 C   0  0  0  0  0  0  0  0  0  0  0  0
  142.2610   77.2650  219.4080 C   0  0  0  0  0  0  0  0  0  0  0  0
  141.3718   80.3060  224.7194 H   0  0  0  0  0  0  0  0  0  0  0  0
  141.4516   81.9949  224.1472 H   0  0  0  0  0  0  0  0  0  0  0  0
  140.1017   82.1142  221.6691 H   0  0  0  0  0  0  0  0  0  0  0  0
  137.7116   81.9597  220.9532 H   0  0  0  0  0  0  0  0  0  0  0  0
  136.0779   80.6426  222.2909 H   0  0  0  0  0  0  0  0  0  0  0  0
  136.8403   79.4850  224.3480 H   0  0  0  0  0  0  0  0  0  0  0  0
  139.2121   79.6197  225.0944 H   0  0  0  0  0  0  0  0  0  0  0  0
  141.9815   77.2847  223.1288 H   0  0  0  0  0  0  0  0  0  0  0  0
  140.9428   78.5264  223.8513 H   0  0  0  0  0  0  0  0  0  0  0  0
  139.2943   75.9418  223.7016 H   0  0  0  0  0  0  0  0  0  0  0  0
  137.4239   75.1255  222.3493 H   0  0  0  0  0  0  0  0  0  0  0  0
  137.0341   76.1109  220.0644 H   0  0  0  0  0  0  0  0  0  0  0  0
  138.5847   77.8941  219.2625 H   0  0  0  0  0  0  0  0  0  0  0  0
  140.3818   79.9187  220.5613 H   0  0  0  0  0  0  0  0  0  0  0  0
  141.8042   80.4449  218.5556 H   0  0  0  0  0  0  0  0  0  0  0  0
  143.3240   79.0370  216.8950 H   0  0  0  0  0  0  0  0  0  0  0  0
  144.2394   76.3872  216.7779 H   0  0  0  0  0  0  0  0  0  0  0  0
  144.1308   74.2334  218.0001 H   0  0  0  0  0  0  0  0  0  0  0  0
  142.8390   74.0141  220.1094 H   0  0  0  0  0  0  0  0  0  0  0  0
  141.6110   76.0064  221.0328 H   0  0  0  0  0  0  0  0  0  0  0  0
  1  2  2  0
  2  3  2  0
  2  4  1  0
  4  5  1  0
  5  6  2  0
  6  7  1  0
  7  8  2  0
  8  9  1  0
  9 10  2  0
  2 11  1  0
 11 12  1  0
 12 13  1  0
 13 14  2  0
 14 15  1  0
 15 16  2  0
 16 17  1  0
 17 18  2  0
 18 19  1  0
 19 20  1  0
 20 21  2  0
 21 22  1  0
 22 23  1  0
 23 24  2  0
 24 25  1  0
 25 26  2  0
 26 27  1  0
 27 28  2  0
 10  5  1  0
 19 11  1  0
 28 20  1  0
 18 13  1  0
 28 23  1  0
  4 29  1  0
  4 30  1  0
  6 31  1  0
  7 32  1  0
  8 33  1  0
  9 34  1  0
 10 35  1  0
 12 36  1  0
 12 37  1  0
 14 38  1  0
 15 39  1  0
 16 40  1  0
 17 41  1  0
 19 42  1  6
 21 43  1  0
 22 44  1  0
 24 45  1  0
 25 46  1  0
 26 47  1  0
 27 48  1  0
M  END
>  <smiles>  (41) 
O=S(=O)(Cc1ccccc1)N1Cc2ccccc2C1c1c[nH]c2ccccc12

>  <score_type>  (41) 
oracle

>  <origin>  (41) 
autodockgpu

>  <m_score__min__energy>  (41) 
-8.2400000000000002

>  <m_primary>  (41) 
energy

>  <rmsd>  (41) 
5.244086608433467

>  <m_score__min__rmsd>  (41) 
5.244086608433467

>  <meeko>  (41) 
{"free_energy": -7.12, "intermolecular_energy": -8.32, "internal_energy": -2.55, "cluster_size": 22, "cluster_id": 3, "rank_in_cluster": 14}

>  <energy>  (41) 
-7.12

>  <cluster_rmsd>  (41) 
0.04

>  <cluster>  (41) 
3

$$$$

     RDKit          3D

 48 52  0  0  0  0  0  0  0  0999 V2000
  135.0390   68.1550  224.4360 O   0  0  0  0  0  0  0  0  0  0  0  0
  135.6050   69.5470  224.4600 S   0  0  0  0  0  0  0  0  0  0  0  0
  135.4090   70.1140  225.8210 O   0  0  0  0  0  0  0  0  0  0  0  0
  134.7000   70.5860  223.3150 C   0  0  0  0  0  0  0  0  0  0  0  0
  135.0290   72.0010  223.6240 C   0  0  0  0  0  0  0  0  0  0  0  0
  134.4490   72.6140  224.7300 C   0  0  0  0  0  0  0  0  0  0  0  0
  134.7670   73.9470  225.0100 C   0  0  0  0  0  0  0  0  0  0  0  0
  135.6460   74.6530  224.2040 C   0  0  0  0  0  0  0  0  0  0  0  0
  136.2090   74.0160  223.1100 C   0  0  0  0  0  0  0  0  0  0  0  0
  135.9130   72.6900  222.8030 C   0  0  0  0  0  0  0  0  0  0  0  0
  137.2080   69.4790  223.9500 N   0  0  0  0  0  0  0  0  0  0  0  0
  137.4600   69.3920  222.5600 C   0  0  0  0  0  0  0  0  0  0  0  0
  138.6640   70.2400  222.3000 C   0  0  0  0  0  0  0  0  0  0  0  0
  139.4010   70.5570  221.1970 C   0  0  0  0  0  0  0  0  0  0  0  0
  140.5010   71.3860  221.2000 C   0  0  0  0  0  0  0  0  0  0  0  0
  140.9080   71.9510  222.4010 C   0  0  0  0  0  0  0  0  0  0  0  0
  140.1720   71.6450  223.5460 C   0  0  0  0  0  0  0  0  0  0  0  0
  139.0740   70.8110  223.5090 C   0  0  0  0  0  0  0  0  0  0  0  0
  138.1390   70.3410  224.5900 C   0  0  2  0  0  0  0  0  0  0  0  0
  138.8960   69.4940  225.5770 C   0  0  0  0  0  0  0  0  0  0  0  0
  138.7940   68.1180  225.5730 C   0  0  0  0  0  0  0  0  0  0  0  0
  139.5880   67.6740  226.5700 N   0  0  0  0  0  0  0  0  0  0  0  0
  140.1760   68.7390  227.1870 C   0  0  0  0  0  0  0  0  0  0  0  0
  141.0680   68.8070  228.2570 C   0  0  0  0  0  0  0  0  0  0  0  0
  141.4970   70.0510  228.6680 C   0  0  0  0  0  0  0  0  0  0  0  0
  141.0660   71.2230  228.0450 C   0  0  0  0  0  0  0  0  0  0  0  0
  140.1720   71.1480  226.9740 C   0  0  0  0  0  0  0  0  0  0  0  0
  139.7520   69.9060  226.5740 C   0  0  0  0  0  0  0  0  0  0  0  0
  134.9964   70.3504  222.2822 H   0  0  0  0  0  0  0  0  0  0  0  0
  133.6181   70.4138  223.4146 H   0  0  0  0  0  0  0  0  0  0  0  0
  133.7512   72.0590  225.3743 H   0  0  0  0  0  0  0  0  0  0  0  0
  134.3134   74.4416  225.8816 H   0  0  0  0  0  0  0  0  0  0  0  0
  135.8925   75.7012  224.4290 H   0  0  0  0  0  0  0  0  0  0  0  0
  136.9077   74.5717  222.4674 H   0  0  0  0  0  0  0  0  0  0  0  0
  136.3688   72.1995  221.9303 H   0  0  0  0  0  0  0  0  0  0  0  0
  137.6592   68.3489  222.2732 H   0  0  0  0  0  0  0  0  0  0  0  0
  136.5946   69.7344  221.9737 H   0  0  0  0  0  0  0  0  0  0  0  0
  139.0948   70.1190  220.2356 H   0  0  0  0  0  0  0  0  0  0  0  0
  141.0467   71.5964  220.2683 H   0  0  0  0  0  0  0  0  0  0  0  0
  141.7817   72.6177  222.4483 H   0  0  0  0  0  0  0  0  0  0  0  0
  140.4768   72.0824  224.5082 H   0  0  0  0  0  0  0  0  0  0  0  0
  137.6712   71.1953  225.1013 H   0  0  0  0  0  0  0  0  0  0  0  0
  138.1860   67.5044  224.8920 H   0  0  0  0  0  0  0  0  0  0  0  0
  139.7560   66.6650  226.8610 H   0  0  0  0  0  0  0  0  0  0  0  0
  141.4194   67.8935  228.7590 H   0  0  0  0  0  0  0  0  0  0  0  0
  142.1994   70.1219  229.5115 H   0  0  0  0  0  0  0  0  0  0  0  0
  141.4283   72.2008  228.3953 H   0  0  0  0  0  0  0  0  0  0  0  0
  139.8162   72.0573  226.4675 H   0  0  0  0  0  0  0  0  0  0  0  0
  1  2  2  0
  2  3  2  0
  2  4  1  0
  4  5  1  0
  5  6  2  0
  6  7  1  0
  7  8  2  0
  8  9  1  0
  9 10  2  0
  2 11  1  0
 11 12  1  0
 12 13  1  0
 13 14  2  0
 14 15  1  0
 15 16  2  0
 16 17  1  0
 17 18  2  0
 18 19  1  0
 19 20  1  0
 20 21  2  0
 21 22  1  0
 22 23  1  0
 23 24  2  0
 24 25  1  0
 25 26  2  0
 26 27  1  0
 27 28  2  0
 10  5  1  0
 19 11  1  0
 28 20  1  0
 18 13  1  0
 28 23  1  0
  4 29  1  0
  4 30  1  0
  6 31  1  0
  7 32  1  0
  8 33  1  0
  9 34  1  0
 10 35  1  0
 12 36  1  0
 12 37  1  0
 14 38  1  0
 15 39  1  0
 16 40  1  0
 17 41  1  0
 19 42  1  1
 21 43  1  0
 22 44  1  0
 24 45  1  0
 25 46  1  0
 26 47  1  0
 27 48  1  0
M  END
>  <smiles>  (42) 
O=S(=O)(Cc1ccccc1)N1Cc2ccccc2C1c1c[nH]c2ccccc12

>  <score_type>  (42) 
oracle

>  <origin>  (42) 
autodockgpu

>  <m_score__min__energy>  (42) 
-8.2400000000000002

>  <m_primary>  (42) 
energy

>  <rmsd>  (42) 
10.720712986171666

>  <m_score__min__rmsd>  (42) 
10.720712986171666

>  <meeko>  (42) 
{"free_energy": -7.75, "intermolecular_energy": -8.94, "internal_energy": -2.14, "cluster_size": 13, "cluster_id": 1, "rank_in_cluster": 11}

>  <energy>  (42) 
-7.11

>  <cluster_rmsd>  (42) 
0.05

>  <cluster>  (42) 
3

$$$$

     RDKit          3D

 48 52  0  0  0  0  0  0  0  0999 V2000
  135.0290   68.1480  224.4140 O   0  0  0  0  0  0  0  0  0  0  0  0
  135.5850   69.5430  224.4500 S   0  0  0  0  0  0  0  0  0  0  0  0
  135.3820   70.0990  225.8150 O   0  0  0  0  0  0  0  0  0  0  0  0
  134.6750   70.5850  223.3110 C   0  0  0  0  0  0  0  0  0  0  0  0
  135.0410   71.9970  223.5910 C   0  0  0  0  0  0  0  0  0  0  0  0
  135.8810   72.6750  222.7120 C   0  0  0  0  0  0  0  0  0  0  0  0
  136.2180   74.0040  222.9870 C   0  0  0  0  0  0  0  0  0  0  0  0
  135.7270   74.6440  224.1150 C   0  0  0  0  0  0  0  0  0  0  0  0
  134.8930   73.9440  224.9710 C   0  0  0  0  0  0  0  0  0  0  0  0
  134.5380   72.6190  224.7270 C   0  0  0  0  0  0  0  0  0  0  0  0
  137.1890   69.4910  223.9420 N   0  0  0  0  0  0  0  0  0  0  0  0
  137.4450   69.4170  222.5520 C   0  0  0  0  0  0  0  0  0  0  0  0
  138.6430   70.2760  222.3020 C   0  0  0  0  0  0  0  0  0  0  0  0
  139.3800   70.6070  221.2030 C   0  0  0  0  0  0  0  0  0  0  0  0
  140.4750   71.4430  221.2150 C   0  0  0  0  0  0  0  0  0  0  0  0
  140.8760   72.0000  222.4230 C   0  0  0  0  0  0  0  0  0  0  0  0
  140.1400   71.6790  223.5630 C   0  0  0  0  0  0  0  0  0  0  0  0
  139.0480   70.8390  223.5160 C   0  0  0  0  0  0  0  0  0  0  0  0
  138.1130   70.3530  224.5910 C   0  0  2  0  0  0  0  0  0  0  0  0
  138.8740   69.5020  225.5720 C   0  0  0  0  0  0  0  0  0  0  0  0
  138.7690   68.1260  225.5660 C   0  0  0  0  0  0  0  0  0  0  0  0
  139.5680   67.6790  226.5580 N   0  0  0  0  0  0  0  0  0  0  0  0
  140.1620   68.7400  227.1740 C   0  0  0  0  0  0  0  0  0  0  0  0
  141.0590   68.8040  228.2380 C   0  0  0  0  0  0  0  0  0  0  0  0
  141.4940   70.0470  228.6500 C   0  0  0  0  0  0  0  0  0  0  0  0
  141.0610   71.2210  228.0320 C   0  0  0  0  0  0  0  0  0  0  0  0
  140.1620   71.1500  226.9660 C   0  0  0  0  0  0  0  0  0  0  0  0
  139.7360   69.9100  226.5660 C   0  0  0  0  0  0  0  0  0  0  0  0
  134.9418   70.3282  222.2752 H   0  0  0  0  0  0  0  0  0  0  0  0
  133.5924   70.4375  223.4387 H   0  0  0  0  0  0  0  0  0  0  0  0
  136.2735   72.1732  221.8152 H   0  0  0  0  0  0  0  0  0  0  0  0
  136.8814   74.5490  222.2994 H   0  0  0  0  0  0  0  0  0  0  0  0
  135.9953   75.6896  224.3263 H   0  0  0  0  0  0  0  0  0  0  0  0
  134.5006   74.4473  225.8669 H   0  0  0  0  0  0  0  0  0  0  0  0
  133.8748   72.0778  225.4178 H   0  0  0  0  0  0  0  0  0  0  0  0
  137.6528   68.3778  222.2574 H   0  0  0  0  0  0  0  0  0  0  0  0
  136.5784   69.7575  221.9662 H   0  0  0  0  0  0  0  0  0  0  0  0
  139.0783   70.1752  220.2373 H   0  0  0  0  0  0  0  0  0  0  0  0
  141.0211   71.6651  220.2863 H   0  0  0  0  0  0  0  0  0  0  0  0
  141.7452   72.6719  222.4783 H   0  0  0  0  0  0  0  0  0  0  0  0
  140.4401   72.1094  224.5298 H   0  0  0  0  0  0  0  0  0  0  0  0
  137.6383   71.1996  225.1086 H   0  0  0  0  0  0  0  0  0  0  0  0
  138.1559   67.5147  224.8875 H   0  0  0  0  0  0  0  0  0  0  0  0
  139.7360   66.6680  226.8450 H   0  0  0  0  0  0  0  0  0  0  0  0
  141.4109   67.8886  228.7361 H   0  0  0  0  0  0  0  0  0  0  0  0
  142.2020   70.1145  229.4892 H   0  0  0  0  0  0  0  0  0  0  0  0
  141.4262   72.1975  228.3830 H   0  0  0  0  0  0  0  0  0  0  0  0
  139.8065   72.0612  226.4626 H   0  0  0  0  0  0  0  0  0  0  0  0
  1  2  2  0
  2  3  2  0
  2  4  1  0
  4  5  1  0
  5  6  2  0
  6  7  1  0
  7  8  2  0
  8  9  1  0
  9 10  2  0
  2 11  1  0
 11 12  1  0
 12 13  1  0
 13 14  2  0
 14 15  1  0
 15 16  2  0
 16 17  1  0
 17 18  2  0
 18 19  1  0
 19 20  1  0
 20 21  2  0
 21 22  1  0
 22 23  1  0
 23 24  2  0
 24 25  1  0
 25 26  2  0
 26 27  1  0
 27 28  2  0
 10  5  1  0
 19 11  1  0
 28 20  1  0
 18 13  1  0
 28 23  1  0
  4 29  1  0
  4 30  1  0
  6 31  1  0
  7 32  1  0
  8 33  1  0
  9 34  1  0
 10 35  1  0
 12 36  1  0
 12 37  1  0
 14 38  1  0
 15 39  1  0
 16 40  1  0
 17 41  1  0
 19 42  1  1
 21 43  1  0
 22 44  1  0
 24 45  1  0
 25 46  1  0
 26 47  1  0
 27 48  1  0
M  END
>  <smiles>  (43) 
O=S(=O)(Cc1ccccc1)N1Cc2ccccc2C1c1c[nH]c2ccccc12

>  <score_type>  (43) 
oracle

>  <origin>  (43) 
autodockgpu

>  <m_score__min__energy>  (43) 
-8.2400000000000002

>  <m_primary>  (43) 
energy

>  <rmsd>  (43) 
10.709082771424763

>  <m_score__min__rmsd>  (43) 
10.709082771424763

>  <meeko>  (43) 
{"free_energy": -7.71, "intermolecular_energy": -8.91, "internal_energy": -2.17, "cluster_size": 13, "cluster_id": 1, "rank_in_cluster": 12}

>  <energy>  (43) 
-7.1

>  <cluster_rmsd>  (43) 
0.06

>  <cluster>  (43) 
3

$$$$

     RDKit          3D

 48 52  0  0  0  0  0  0  0  0999 V2000
  143.6580   80.2750  222.9470 O   0  0  0  0  0  0  0  0  0  0  0  0
  142.2400   80.4470  222.4780 S   0  0  0  0  0  0  0  0  0  0  0  0
  142.2050   81.5300  221.4590 O   0  0  0  0  0  0  0  0  0  0  0  0
  141.2120   80.9720  223.8480 C   0  0  0  0  0  0  0  0  0  0  0  0
  139.7940   80.8810  223.4160 C   0  0  0  0  0  0  0  0  0  0  0  0
  138.8910   80.1430  224.1770 C   0  0  0  0  0  0  0  0  0  0  0  0
  137.5580   80.0660  223.7590 C   0  0  0  0  0  0  0  0  0  0  0  0
  137.1350   80.7120  222.6080 C   0  0  0  0  0  0  0  0  0  0  0  0
  138.0560   81.4390  221.8720 C   0  0  0  0  0  0  0  0  0  0  0  0
  139.3900   81.5370  222.2590 C   0  0  0  0  0  0  0  0  0  0  0  0
  141.6720   78.9560  221.9410 N   0  0  0  0  0  0  0  0  0  0  0  0
  141.2100   78.0320  222.9080 C   0  0  0  0  0  0  0  0  0  0  0  0
  140.0180   77.3580  222.3070 C   0  0  0  0  0  0  0  0  0  0  0  0
  139.1520   76.3860  222.7130 C   0  0  0  0  0  0  0  0  0  0  0  0
  138.0960   75.9130  221.9650 C   0  0  0  0  0  0  0  0  0  0  0  0
  137.8780   76.4510  220.7030 C   0  0  0  0  0  0  0  0  0  0  0  0
  138.7480   77.4470  220.2620 C   0  0  0  0  0  0  0  0  0  0  0  0
  139.7970   77.8990  221.0360 C   0  0  0  0  0  0  0  0  0  0  0  0
  140.8490   78.9440  220.7820 C   0  0  2  0  0  0  0  0  0  0  0  0
  141.7270   78.5070  219.6400 C   0  0  0  0  0  0  0  0  0  0  0  0
  142.0950   79.3810  218.6390 C   0  0  0  0  0  0  0  0  0  0  0  0
  142.8700   78.6780  217.7850 N   0  0  0  0  0  0  0  0  0  0  0  0
  142.9880   77.3960  218.2340 C   0  0  0  0  0  0  0  0  0  0  0  0
  143.6740   76.2980  217.7170 C   0  0  0  0  0  0  0  0  0  0  0  0
  143.6080   75.1050  218.4060 C   0  0  0  0  0  0  0  0  0  0  0  0
  142.8830   74.9780  219.5920 C   0  0  0  0  0  0  0  0  0  0  0  0
  142.1990   76.0820  220.1050 C   0  0  0  0  0  0  0  0  0  0  0  0
  142.2710   77.2620  219.4110 C   0  0  0  0  0  0  0  0  0  0  0  0
  141.3814   80.3165  224.7150 H   0  0  0  0  0  0  0  0  0  0  0  0
  141.4585   82.0039  224.1385 H   0  0  0  0  0  0  0  0  0  0  0  0
  139.2204   79.6289  225.0920 H   0  0  0  0  0  0  0  0  0  0  0  0
  136.8361   79.4850  224.3517 H   0  0  0  0  0  0  0  0  0  0  0  0
  136.0856   80.6484  222.2845 H   0  0  0  0  0  0  0  0  0  0  0  0
  137.7248   81.9526  220.9574 H   0  0  0  0  0  0  0  0  0  0  0  0
  140.1075   82.1200  221.6630 H   0  0  0  0  0  0  0  0  0  0  0  0
  141.9927   77.2926  223.1331 H   0  0  0  0  0  0  0  0  0  0  0  0
  140.9519   78.5354  223.8514 H   0  0  0  0  0  0  0  0  0  0  0  0
  139.3078   75.9478  223.7099 H   0  0  0  0  0  0  0  0  0  0  0  0
  137.4382   75.1245  222.3596 H   0  0  0  0  0  0  0  0  0  0  0  0
  137.0466   76.1027  220.0726 H   0  0  0  0  0  0  0  0  0  0  0  0
  138.5933   77.8864  219.2655 H   0  0  0  0  0  0  0  0  0  0  0  0
  140.3877   79.9170  220.5573 H   0  0  0  0  0  0  0  0  0  0  0  0
  141.8132   80.4408  218.5530 H   0  0  0  0  0  0  0  0  0  0  0  0
  143.3330   79.0300  216.8950 H   0  0  0  0  0  0  0  0  0  0  0  0
  144.2522   76.3808  216.7849 H   0  0  0  0  0  0  0  0  0  0  0  0
  144.1419   74.2287  218.0096 H   0  0  0  0  0  0  0  0  0  0  0  0
  142.8506   74.0134  220.1197 H   0  0  0  0  0  0  0  0  0  0  0  0
  141.6202   76.0071  221.0374 H   0  0  0  0  0  0  0  0  0  0  0  0
  1  2  2  0
  2  3  2  0
  2  4  1  0
  4  5  1  0
  5  6  2  0
  6  7  1  0
  7  8  2  0
  8  9  1  0
  9 10  2  0
  2 11  1  0
 11 12  1  0
 12 13  1  0
 13 14  2  0
 14 15  1  0
 15 16  2  0
 16 17  1  0
 17 18  2  0
 18 19  1  0
 19 20  1  0
 20 21  2  0
 21 22  1  0
 22 23  1  0
 23 24  2  0
 24 25  1  0
 25 26  2  0
 26 27  1  0
 27 28  2  0
 10  5  1  0
 19 11  1  0
 28 20  1  0
 18 13  1  0
 28 23  1  0
  4 29  1  0
  4 30  1  0
  6 31  1  0
  7 32  1  0
  8 33  1  0
  9 34  1  0
 10 35  1  0
 12 36  1  0
 12 37  1  0
 14 38  1  0
 15 39  1  0
 16 40  1  0
 17 41  1  0
 19 42  1  6
 21 43  1  0
 22 44  1  0
 24 45  1  0
 25 46  1  0
 26 47  1  0
 27 48  1  0
M  END
>  <smiles>  (44) 
O=S(=O)(Cc1ccccc1)N1Cc2ccccc2C1c1c[nH]c2ccccc12

>  <score_type>  (44) 
oracle

>  <origin>  (44) 
autodockgpu

>  <m_score__min__energy>  (44) 
-8.2400000000000002

>  <m_primary>  (44) 
energy

>  <rmsd>  (44) 
5.247047822192984

>  <m_score__min__rmsd>  (44) 
5.247047822192984

>  <meeko>  (44) 
{"free_energy": -7.13, "intermolecular_energy": -8.32, "internal_energy": -2.55, "cluster_size": 22, "cluster_id": 3, "rank_in_cluster": 6}

>  <energy>  (44) 
-7.06

>  <cluster_rmsd>  (44) 
0.17

>  <cluster>  (44) 
3

$$$$

     RDKit          3D

 48 52  0  0  0  0  0  0  0  0999 V2000
  140.6910   75.1600  221.9720 O   0  0  0  0  0  0  0  0  0  0  0  0
  140.2790   75.9140  220.7380 S   0  0  0  0  0  0  0  0  0  0  0  0
  138.8760   75.5470  220.4060 O   0  0  0  0  0  0  0  0  0  0  0  0
  141.3020   75.4120  219.3560 C   0  0  0  0  0  0  0  0  0  0  0  0
  142.4600   74.6540  219.8950 C   0  0  0  0  0  0  0  0  0  0  0  0
  142.2810   73.3420  220.3250 C   0  0  0  0  0  0  0  0  0  0  0  0
  143.3780   72.6390  220.8310 C   0  0  0  0  0  0  0  0  0  0  0  0
  144.6290   73.2320  220.9050 C   0  0  0  0  0  0  0  0  0  0  0  0
  144.7780   74.5380  220.4700 C   0  0  0  0  0  0  0  0  0  0  0  0
  143.7050   75.2670  219.9610 C   0  0  0  0  0  0  0  0  0  0  0  0
  140.5340   77.5550  221.0080 N   0  0  0  0  0  0  0  0  0  0  0  0
  139.7420   78.2000  221.9870 C   0  0  0  0  0  0  0  0  0  0  0  0
  140.6450   79.1670  222.6850 C   0  0  0  0  0  0  0  0  0  0  0  0
  140.4930   80.0750  223.6910 C   0  0  0  0  0  0  0  0  0  0  0  0
  141.4990   80.8770  224.1830 C   0  0  0  0  0  0  0  0  0  0  0  0
  142.7680   80.7710  223.6280 C   0  0  0  0  0  0  0  0  0  0  0  0
  142.9520   79.8500  222.5970 C   0  0  0  0  0  0  0  0  0  0  0  0
  141.9230   79.0610  222.1290 C   0  0  0  0  0  0  0  0  0  0  0  0
  141.8780   78.0150  221.0470 C   0  0  2  0  0  0  0  0  0  0  0  0
  142.1490   78.6580  219.7140 C   0  0  0  0  0  0  0  0  0  0  0  0
  142.8110   77.9830  218.7090 C   0  0  0  0  0  0  0  0  0  0  0  0
  142.8870   78.8350  217.6640 N   0  0  0  0  0  0  0  0  0  0  0  0
  142.2910   80.0150  217.9990 C   0  0  0  0  0  0  0  0  0  0  0  0
  142.1110   81.1930  217.2760 C   0  0  0  0  0  0  0  0  0  0  0  0
  141.4580   82.2400  217.8910 C   0  0  0  0  0  0  0  0  0  0  0  0
  140.9800   82.1450  219.1990 C   0  0  0  0  0  0  0  0  0  0  0  0
  141.1640   80.9620  219.9170 C   0  0  0  0  0  0  0  0  0  0  0  0
  141.8150   79.9280  219.2960 C   0  0  0  0  0  0  0  0  0  0  0  0
  140.7216   74.7726  218.6746 H   0  0  0  0  0  0  0  0  0  0  0  0
  141.6486   76.2934  218.7966 H   0  0  0  0  0  0  0  0  0  0  0  0
  141.2911   72.8658  220.2674 H   0  0  0  0  0  0  0  0  0  0  0  0
  143.2471   71.6023  221.1748 H   0  0  0  0  0  0  0  0  0  0  0  0
  145.4893   72.6739  221.3029 H   0  0  0  0  0  0  0  0  0  0  0  0
  145.7688   75.0123  220.5277 H   0  0  0  0  0  0  0  0  0  0  0  0
  143.8406   76.3038  219.6194 H   0  0  0  0  0  0  0  0  0  0  0  0
  138.9070   78.7343  221.5103 H   0  0  0  0  0  0  0  0  0  0  0  0
  139.3090   77.4757  222.6926 H   0  0  0  0  0  0  0  0  0  0  0  0
  139.4947   80.1741  224.1422 H   0  0  0  0  0  0  0  0  0  0  0  0
  141.3014   81.5874  224.9993 H   0  0  0  0  0  0  0  0  0  0  0  0
  143.6002   81.3928  223.9897 H   0  0  0  0  0  0  0  0  0  0  0  0
  143.9490   79.7501  222.1432 H   0  0  0  0  0  0  0  0  0  0  0  0
  142.6117   77.2188  221.2412 H   0  0  0  0  0  0  0  0  0  0  0  0
  143.1998   76.9548  218.7507 H   0  0  0  0  0  0  0  0  0  0  0  0
  143.3320   78.6530  216.7150 H   0  0  0  0  0  0  0  0  0  0  0  0
  142.4796   81.2847  216.2437 H   0  0  0  0  0  0  0  0  0  0  0  0
  141.3094   83.1773  217.3348 H   0  0  0  0  0  0  0  0  0  0  0  0
  140.4612   82.9976  219.6615 H   0  0  0  0  0  0  0  0  0  0  0  0
  140.7978   80.8627  220.9495 H   0  0  0  0  0  0  0  0  0  0  0  0
  1  2  2  0
  2  3  2  0
  2  4  1  0
  4  5  1  0
  5  6  2  0
  6  7  1  0
  7  8  2  0
  8  9  1  0
  9 10  2  0
  2 11  1  0
 11 12  1  0
 12 13  1  0
 13 14  2  0
 14 15  1  0
 15 16  2  0
 16 17  1  0
 17 18  2  0
 18 19  1  0
 19 20  1  0
 20 21  2  0
 21 22  1  0
 22 23  1  0
 23 24  2  0
 24 25  1  0
 25 26  2  0
 26 27  1  0
 27 28  2  0
 10  5  1  0
 19 11  1  0
 28 20  1  0
 18 13  1  0
 28 23  1  0
  4 29  1  0
  4 30  1  0
  6 31  1  0
  7 32  1  0
  8 33  1  0
  9 34  1  0
 10 35  1  0
 12 36  1  0
 12 37  1  0
 14 38  1  0
 15 39  1  0
 16 40  1  0
 17 41  1  0
 19 42  1  1
 21 43  1  0
 22 44  1  0
 24 45  1  0
 25 46  1  0
 26 47  1  0
 27 48  1  0
M  END
>  <smiles>  (45) 
O=S(=O)(Cc1ccccc1)N1Cc2ccccc2C1c1c[nH]c2ccccc12

>  <score_type>  (45) 
oracle

>  <origin>  (45) 
autodockgpu

>  <m_score__min__energy>  (45) 
-8.2400000000000002

>  <m_primary>  (45) 
energy

>  <rmsd>  (45) 
5.186742232789906

>  <m_score__min__rmsd>  (45) 
5.186742232789906

>  <meeko>  (45) 
{"free_energy": -8.03, "intermolecular_energy": -9.23, "internal_energy": -1.75, "cluster_size": 11, "cluster_id": 2, "rank_in_cluster": 2}

>  <energy>  (45) 
-7.06

>  <cluster_rmsd>  (45) 
0.1

>  <cluster>  (45) 
3

$$$$

     RDKit          3D

 48 52  0  0  0  0  0  0  0  0999 V2000
  143.6710   80.2980  222.9630 O   0  0  0  0  0  0  0  0  0  0  0  0
  142.2540   80.4700  222.4900 S   0  0  0  0  0  0  0  0  0  0  0  0
  142.2230   81.5550  221.4730 O   0  0  0  0  0  0  0  0  0  0  0  0
  141.2220   80.9920  223.8580 C   0  0  0  0  0  0  0  0  0  0  0  0
  139.8050   80.8960  223.4240 C   0  0  0  0  0  0  0  0  0  0  0  0
  138.9050   80.1500  224.1800 C   0  0  0  0  0  0  0  0  0  0  0  0
  137.5740   80.0670  223.7600 C   0  0  0  0  0  0  0  0  0  0  0  0
  137.1490   80.7150  222.6110 C   0  0  0  0  0  0  0  0  0  0  0  0
  138.0660   81.4500  221.8790 C   0  0  0  0  0  0  0  0  0  0  0  0
  139.4000   81.5530  222.2690 C   0  0  0  0  0  0  0  0  0  0  0  0
  141.6890   78.9800  221.9490 N   0  0  0  0  0  0  0  0  0  0  0  0
  141.2420   78.0470  222.9140 C   0  0  0  0  0  0  0  0  0  0  0  0
  140.0470   77.3710  222.3190 C   0  0  0  0  0  0  0  0  0  0  0  0
  139.1900   76.3920  222.7270 C   0  0  0  0  0  0  0  0  0  0  0  0
  138.1290   75.9190  221.9870 C   0  0  0  0  0  0  0  0  0  0  0  0
  137.8960   76.4640  220.7310 C   0  0  0  0  0  0  0  0  0  0  0  0
  138.7560   77.4680  220.2880 C   0  0  0  0  0  0  0  0  0  0  0  0
  139.8100   77.9200  221.0550 C   0  0  0  0  0  0  0  0  0  0  0  0
  140.8550   78.9720  220.7980 C   0  0  2  0  0  0  0  0  0  0  0  0
  141.7230   78.5470  219.6440 C   0  0  0  0  0  0  0  0  0  0  0  0
  142.0750   79.4290  218.6440 C   0  0  0  0  0  0  0  0  0  0  0  0
  142.8450   78.7370  217.7780 N   0  0  0  0  0  0  0  0  0  0  0  0
  142.9770   77.4530  218.2180 C   0  0  0  0  0  0  0  0  0  0  0  0
  143.6630   76.3620  217.6870 C   0  0  0  0  0  0  0  0  0  0  0  0
  143.6120   75.1650  218.3690 C   0  0  0  0  0  0  0  0  0  0  0  0
  142.9000   75.0260  219.5620 C   0  0  0  0  0  0  0  0  0  0  0  0
  142.2150   76.1220  220.0890 C   0  0  0  0  0  0  0  0  0  0  0  0
  142.2720   77.3070  219.4020 C   0  0  0  0  0  0  0  0  0  0  0  0
  141.3923   80.3374  224.7255 H   0  0  0  0  0  0  0  0  0  0  0  0
  141.4645   82.0249  224.1483 H   0  0  0  0  0  0  0  0  0  0  0  0
  139.2358   79.6340  225.0934 H   0  0  0  0  0  0  0  0  0  0  0  0
  136.8546   79.4796  224.3494 H   0  0  0  0  0  0  0  0  0  0  0  0
  136.1004   80.6465  222.2859 H   0  0  0  0  0  0  0  0  0  0  0  0
  137.7331   81.9658  220.9663 H   0  0  0  0  0  0  0  0  0  0  0  0
  140.1158   82.1411  221.6758 H   0  0  0  0  0  0  0  0  0  0  0  0
  142.0308   77.3101  223.1260 H   0  0  0  0  0  0  0  0  0  0  0  0
  140.9910   78.5418  223.8638 H   0  0  0  0  0  0  0  0  0  0  0  0
  139.3582   75.9478  223.7191 H   0  0  0  0  0  0  0  0  0  0  0  0
  137.4788   75.1250  222.3831 H   0  0  0  0  0  0  0  0  0  0  0  0
  137.0605   76.1150  220.1063 H   0  0  0  0  0  0  0  0  0  0  0  0
  138.5890   77.9136  219.2962 H   0  0  0  0  0  0  0  0  0  0  0  0
  140.3875   79.9446  220.5848 H   0  0  0  0  0  0  0  0  0  0  0  0
  141.7854   80.4874  218.5673 H   0  0  0  0  0  0  0  0  0  0  0  0
  143.2970   79.0970  216.8850 H   0  0  0  0  0  0  0  0  0  0  0  0
  144.2299   76.4537  216.7488 H   0  0  0  0  0  0  0  0  0  0  0  0
  144.1475   74.2947  217.9617 H   0  0  0  0  0  0  0  0  0  0  0  0
  142.8790   74.0579  220.0838 H   0  0  0  0  0  0  0  0  0  0  0  0
  141.6467   76.0375  221.0270 H   0  0  0  0  0  0  0  0  0  0  0  0
  1  2  2  0
  2  3  2  0
  2  4  1  0
  4  5  1  0
  5  6  2  0
  6  7  1  0
  7  8  2  0
  8  9  1  0
  9 10  2  0
  2 11  1  0
 11 12  1  0
 12 13  1  0
 13 14  2  0
 14 15  1  0
 15 16  2  0
 16 17  1  0
 17 18  2  0
 18 19  1  0
 19 20  1  0
 20 21  2  0
 21 22  1  0
 22 23  1  0
 23 24  2  0
 24 25  1  0
 25 26  2  0
 26 27  1  0
 27 28  2  0
 10  5  1  0
 19 11  1  0
 28 20  1  0
 18 13  1  0
 28 23  1  0
  4 29  1  0
  4 30  1  0
  6 31  1  0
  7 32  1  0
  8 33  1  0
  9 34  1  0
 10 35  1  0
 12 36  1  0
 12 37  1  0
 14 38  1  0
 15 39  1  0
 16 40  1  0
 17 41  1  0
 19 42  1  6
 21 43  1  0
 22 44  1  0
 24 45  1  0
 25 46  1  0
 26 47  1  0
 27 48  1  0
M  END
>  <smiles>  (46) 
O=S(=O)(Cc1ccccc1)N1Cc2ccccc2C1c1c[nH]c2ccccc12

>  <score_type>  (46) 
oracle

>  <origin>  (46) 
autodockgpu

>  <m_score__min__energy>  (46) 
-8.2400000000000002

>  <m_primary>  (46) 
energy

>  <rmsd>  (46) 
5.2314990929686305

>  <m_score__min__rmsd>  (46) 
5.2314990929686305

>  <meeko>  (46) 
{"free_energy": -7.1, "intermolecular_energy": -8.29, "internal_energy": -2.55, "cluster_size": 22, "cluster_id": 3, "rank_in_cluster": 19}

>  <energy>  (46) 
-7.03

>  <cluster_rmsd>  (46) 
0.24

>  <cluster>  (46) 
3

$$$$

     RDKit          3D

 48 52  0  0  0  0  0  0  0  0999 V2000
  143.7150   80.3890  222.9100 O   0  0  0  0  0  0  0  0  0  0  0  0
  142.2870   80.5340  222.4630 S   0  0  0  0  0  0  0  0  0  0  0  0
  142.2120   81.6380  221.4690 O   0  0  0  0  0  0  0  0  0  0  0  0
  141.2630   81.0020  223.8570 C   0  0  0  0  0  0  0  0  0  0  0  0
  139.8430   80.8900  223.4380 C   0  0  0  0  0  0  0  0  0  0  0  0
  139.3940   81.6100  222.3350 C   0  0  0  0  0  0  0  0  0  0  0  0
  138.0540   81.4950  221.9510 C   0  0  0  0  0  0  0  0  0  0  0  0
  137.1800   80.6790  222.6520 C   0  0  0  0  0  0  0  0  0  0  0  0
  137.6560   79.9740  223.7460 C   0  0  0  0  0  0  0  0  0  0  0  0
  138.9840   80.0660  224.1550 C   0  0  0  0  0  0  0  0  0  0  0  0
  141.7510   79.0410  221.9000 N   0  0  0  0  0  0  0  0  0  0  0  0
  141.3890   78.0610  222.8540 C   0  0  0  0  0  0  0  0  0  0  0  0
  140.1930   77.3580  222.2970 C   0  0  0  0  0  0  0  0  0  0  0  0
  139.3950   76.3330  222.7140 C   0  0  0  0  0  0  0  0  0  0  0  0
  138.3170   75.8420  222.0110 C   0  0  0  0  0  0  0  0  0  0  0  0
  138.0000   76.4170  220.7870 C   0  0  0  0  0  0  0  0  0  0  0  0
  138.7980   77.4680  220.3360 C   0  0  0  0  0  0  0  0  0  0  0  0
  139.8720   77.9360  221.0650 C   0  0  0  0  0  0  0  0  0  0  0  0
  140.8620   79.0360  220.7920 C   0  0  2  0  0  0  0  0  0  0  0  0
  141.6860   78.6830  219.5840 C   0  0  0  0  0  0  0  0  0  0  0  0
  141.9620   79.6130  218.6030 C   0  0  0  0  0  0  0  0  0  0  0  0
  142.7100   78.9780  217.6760 N   0  0  0  0  0  0  0  0  0  0  0  0
  142.9020   77.6830  218.0590 C   0  0  0  0  0  0  0  0  0  0  0  0
  143.5940   76.6360  217.4540 C   0  0  0  0  0  0  0  0  0  0  0  0
  143.6120   75.4130  218.0910 C   0  0  0  0  0  0  0  0  0  0  0  0
  142.9630   75.2070  219.3100 C   0  0  0  0  0  0  0  0  0  0  0  0
  142.2710   76.2600  219.9100 C   0  0  0  0  0  0  0  0  0  0  0  0
  142.2600   77.4710  219.2680 C   0  0  0  0  0  0  0  0  0  0  0  0
  141.4565   80.3292  224.7055 H   0  0  0  0  0  0  0  0  0  0  0  0
  141.4899   82.0316  224.1706 H   0  0  0  0  0  0  0  0  0  0  0  0
  140.0821   82.2594  221.7740 H   0  0  0  0  0  0  0  0  0  0  0  0
  137.6887   82.0599  221.0807 H   0  0  0  0  0  0  0  0  0  0  0  0
  136.1271   80.5925  222.3454 H   0  0  0  0  0  0  0  0  0  0  0  0
  136.9669   79.3248  224.3060 H   0  0  0  0  0  0  0  0  0  0  0  0
  139.3448   79.4992  225.0259 H   0  0  0  0  0  0  0  0  0  0  0  0
  142.2148   77.3496  223.0020 H   0  0  0  0  0  0  0  0  0  0  0  0
  141.1678   78.5154  223.8310 H   0  0  0  0  0  0  0  0  0  0  0  0
  139.6294   75.8649  223.6814 H   0  0  0  0  0  0  0  0  0  0  0  0
  137.7186   75.0104  222.4113 H   0  0  0  0  0  0  0  0  0  0  0  0
  137.1477   76.0553  220.1931 H   0  0  0  0  0  0  0  0  0  0  0  0
  138.5641   77.9383  219.3695 H   0  0  0  0  0  0  0  0  0  0  0  0
  140.3477   79.9955  220.6341 H   0  0  0  0  0  0  0  0  0  0  0  0
  141.6370   80.6636  218.5807 H   0  0  0  0  0  0  0  0  0  0  0  0
  143.1080   79.3850  216.7770 H   0  0  0  0  0  0  0  0  0  0  0  0
  144.1119   76.7809  216.4944 H   0  0  0  0  0  0  0  0  0  0  0  0
  144.1530   74.5760  217.6255 H   0  0  0  0  0  0  0  0  0  0  0  0
  142.9970   74.2202  219.7948 H   0  0  0  0  0  0  0  0  0  0  0  0
  141.7502   76.1223  220.8691 H   0  0  0  0  0  0  0  0  0  0  0  0
  1  2  2  0
  2  3  2  0
  2  4  1  0
  4  5  1  0
  5  6  2  0
  6  7  1  0
  7  8  2  0
  8  9  1  0
  9 10  2  0
  2 11  1  0
 11 12  1  0
 12 13  1  0
 13 14  2  0
 14 15  1  0
 15 16  2  0
 16 17  1  0
 17 18  2  0
 18 19  1  0
 19 20  1  0
 20 21  2  0
 21 22  1  0
 22 23  1  0
 23 24  2  0
 24 25  1  0
 25 26  2  0
 26 27  1  0
 27 28  2  0
 10  5  1  0
 19 11  1  0
 28 20  1  0
 18 13  1  0
 28 23  1  0
  4 29  1  0
  4 30  1  0
  6 31  1  0
  7 32  1  0
  8 33  1  0
  9 34  1  0
 10 35  1  0
 12 36  1  0
 12 37  1  0
 14 38  1  0
 15 39  1  0
 16 40  1  0
 17 41  1  0
 19 42  1  6
 21 43  1  0
 22 44  1  0
 24 45  1  0
 25 46  1  0
 26 47  1  0
 27 48  1  0
M  END
>  <smiles>  (47) 
O=S(=O)(Cc1ccccc1)N1Cc2ccccc2C1c1c[nH]c2ccccc12

>  <score_type>  (47) 
oracle

>  <origin>  (47) 
autodockgpu

>  <m_score__min__energy>  (47) 
-8.2400000000000002

>  <m_primary>  (47) 
energy

>  <rmsd>  (47) 
5.168488090810064

>  <m_score__min__rmsd>  (47) 
5.168488090810064

>  <meeko>  (47) 
{"free_energy": -7.03, "intermolecular_energy": -8.23, "internal_energy": -2.57, "cluster_size": 22, "cluster_id": 3, "rank_in_cluster": 22}

>  <energy>  (47) 
-6.66

>  <cluster_rmsd>  (47) 
0.0

>  <cluster>  (47) 
4

$$$$

     RDKit          3D

 48 52  0  0  0  0  0  0  0  0999 V2000
  143.6720   80.2550  222.9540 O   0  0  0  0  0  0  0  0  0  0  0  0
  142.2550   80.4250  222.4820 S   0  0  0  0  0  0  0  0  0  0  0  0
  142.2220   81.5090  221.4640 O   0  0  0  0  0  0  0  0  0  0  0  0
  141.2230   80.9480  223.8500 C   0  0  0  0  0  0  0  0  0  0  0  0
  139.8060   80.8640  223.4110 C   0  0  0  0  0  0  0  0  0  0  0  0
  139.4060   81.5260  222.2540 C   0  0  0  0  0  0  0  0  0  0  0  0
  138.0690   81.4390  221.8520 C   0  0  0  0  0  0  0  0  0  0  0  0
  137.1520   80.7060  222.5880 C   0  0  0  0  0  0  0  0  0  0  0  0
  137.5790   80.0570  223.7340 C   0  0  0  0  0  0  0  0  0  0  0  0
  138.9030   80.1230  224.1630 C   0  0  0  0  0  0  0  0  0  0  0  0
  141.6910   78.9340  221.9430 N   0  0  0  0  0  0  0  0  0  0  0  0
  141.2350   78.0060  222.9080 C   0  0  0  0  0  0  0  0  0  0  0  0
  140.0430   77.3300  222.3080 C   0  0  0  0  0  0  0  0  0  0  0  0
  139.1810   76.3540  222.7140 C   0  0  0  0  0  0  0  0  0  0  0  0
  138.1250   75.8790  221.9670 C   0  0  0  0  0  0  0  0  0  0  0  0
  137.9030   76.4190  220.7070 C   0  0  0  0  0  0  0  0  0  0  0  0
  138.7690   77.4200  220.2660 C   0  0  0  0  0  0  0  0  0  0  0  0
  139.8170   77.8730  221.0390 C   0  0  0  0  0  0  0  0  0  0  0  0
  140.8660   78.9220  220.7860 C   0  0  2  0  0  0  0  0  0  0  0  0
  141.7420   78.4910  219.6410 C   0  0  0  0  0  0  0  0  0  0  0  0
  142.1050   79.3680  218.6400 C   0  0  0  0  0  0  0  0  0  0  0  0
  142.8800   78.6700  217.7830 N   0  0  0  0  0  0  0  0  0  0  0  0
  143.0040   77.3870  218.2290 C   0  0  0  0  0  0  0  0  0  0  0  0
  143.6910   76.2930  217.7060 C   0  0  0  0  0  0  0  0  0  0  0  0
  143.6300   75.0980  218.3920 C   0  0  0  0  0  0  0  0  0  0  0  0
  142.9080   74.9650  219.5790 C   0  0  0  0  0  0  0  0  0  0  0  0
  142.2220   76.0660  220.0970 C   0  0  0  0  0  0  0  0  0  0  0  0
  142.2890   77.2480  219.4070 C   0  0  0  0  0  0  0  0  0  0  0  0
  141.3861   80.2881  224.7149 H   0  0  0  0  0  0  0  0  0  0  0  0
  141.4721   81.9777  224.1462 H   0  0  0  0  0  0  0  0  0  0  0  0
  140.1298   82.1084  221.6650 H   0  0  0  0  0  0  0  0  0  0  0  0
  137.7414   81.9592  220.9398 H   0  0  0  0  0  0  0  0  0  0  0  0
  136.1019   80.6408  222.2670 H   0  0  0  0  0  0  0  0  0  0  0  0
  136.8541   79.4741  224.3211 H   0  0  0  0  0  0  0  0  0  0  0  0
  139.2257   79.6006  225.0757 H   0  0  0  0  0  0  0  0  0  0  0  0
  142.0207   77.2683  223.1285 H   0  0  0  0  0  0  0  0  0  0  0  0
  140.9781   78.5055  223.8538 H   0  0  0  0  0  0  0  0  0  0  0  0
  139.3403   75.9143  223.7096 H   0  0  0  0  0  0  0  0  0  0  0  0
  137.4706   75.0875  222.3611 H   0  0  0  0  0  0  0  0  0  0  0  0
  137.0717   76.0690  220.0774 H   0  0  0  0  0  0  0  0  0  0  0  0
  138.6108   77.8614  219.2710 H   0  0  0  0  0  0  0  0  0  0  0  0
  140.4016   79.8944  220.5652 H   0  0  0  0  0  0  0  0  0  0  0  0
  141.8193   80.4270  218.5566 H   0  0  0  0  0  0  0  0  0  0  0  0
  143.3400   79.0260  216.8930 H   0  0  0  0  0  0  0  0  0  0  0  0
  144.2658   76.3801  216.7722 H   0  0  0  0  0  0  0  0  0  0  0  0
  144.1659   74.2246  217.9920 H   0  0  0  0  0  0  0  0  0  0  0  0
  142.8794   73.9986  220.1036 H   0  0  0  0  0  0  0  0  0  0  0  0
  141.6455   75.9866  221.0305 H   0  0  0  0  0  0  0  0  0  0  0  0
  1  2  2  0
  2  3  2  0
  2  4  1  0
  4  5  1  0
  5  6  2  0
  6  7  1  0
  7  8  2  0
  8  9  1  0
  9 10  2  0
  2 11  1  0
 11 12  1  0
 12 13  1  0
 13 14  2  0
 14 15  1  0
 15 16  2  0
 16 17  1  0
 17 18  2  0
 18 19  1  0
 19 20  1  0
 20 21  2  0
 21 22  1  0
 22 23  1  0
 23 24  2  0
 24 25  1  0
 25 26  2  0
 26 27  1  0
 27 28  2  0
 10  5  1  0
 19 11  1  0
 28 20  1  0
 18 13  1  0
 28 23  1  0
  4 29  1  0
  4 30  1  0
  6 31  1  0
  7 32  1  0
  8 33  1  0
  9 34  1  0
 10 35  1  0
 12 36  1  0
 12 37  1  0
 14 38  1  0
 15 39  1  0
 16 40  1  0
 17 41  1  0
 19 42  1  6
 21 43  1  0
 22 44  1  0
 24 45  1  0
 25 46  1  0
 26 47  1  0
 27 48  1  0
M  END
>  <smiles>  (48) 
O=S(=O)(Cc1ccccc1)N1Cc2ccccc2C1c1c[nH]c2ccccc12

>  <score_type>  (48) 
oracle

>  <origin>  (48) 
autodockgpu

>  <m_score__min__energy>  (48) 
-8.2400000000000002

>  <m_primary>  (48) 
energy

>  <rmsd>  (48) 
5.254267531618015

>  <m_score__min__rmsd>  (48) 
5.254267531618015

>  <meeko>  (48) 
{"free_energy": -7.12, "intermolecular_energy": -8.31, "internal_energy": -2.55, "cluster_size": 22, "cluster_id": 3, "rank_in_cluster": 15}

>  <energy>  (48) 
-6.66

>  <cluster_rmsd>  (48) 
0.05

>  <cluster>  (48) 
4

$$$$

     RDKit          3D

 48 52  0  0  0  0  0  0  0  0999 V2000
  139.6700   75.1450  222.3330 O   0  0  0  0  0  0  0  0  0  0  0  0
  138.7400   76.3190  222.2120 S   0  0  0  0  0  0  0  0  0  0  0  0
  137.8900   76.3790  223.4310 O   0  0  0  0  0  0  0  0  0  0  0  0
  137.6480   76.0810  220.8120 C   0  0  0  0  0  0  0  0  0  0  0  0
  138.1850   76.8700  219.6740 C   0  0  0  0  0  0  0  0  0  0  0  0
  139.0020   76.2490  218.7340 C   0  0  0  0  0  0  0  0  0  0  0  0
  139.5020   77.0020  217.6670 C   0  0  0  0  0  0  0  0  0  0  0  0
  139.1920   78.3470  217.5390 C   0  0  0  0  0  0  0  0  0  0  0  0
  138.3760   78.9380  218.4890 C   0  0  0  0  0  0  0  0  0  0  0  0
  137.8620   78.2170  219.5650 C   0  0  0  0  0  0  0  0  0  0  0  0
  139.6610   77.7000  221.9260 N   0  0  0  0  0  0  0  0  0  0  0  0
  139.1690   78.9380  222.4030 C   0  0  0  0  0  0  0  0  0  0  0  0
  140.3590   79.6980  222.8960 C   0  0  0  0  0  0  0  0  0  0  0  0
  140.5560   80.9300  223.4480 C   0  0  0  0  0  0  0  0  0  0  0  0
  141.7800   81.4300  223.8350 C   0  0  0  0  0  0  0  0  0  0  0  0
  142.9090   80.6400  223.6590 C   0  0  0  0  0  0  0  0  0  0  0  0
  142.7370   79.3760  223.0960 C   0  0  0  0  0  0  0  0  0  0  0  0
  141.4970   78.9050  222.7200 C   0  0  0  0  0  0  0  0  0  0  0  0
  141.0670   77.6010  222.1030 C   0  0  2  0  0  0  0  0  0  0  0  0
  141.6630   77.4750  220.7270 C   0  0  0  0  0  0  0  0  0  0  0  0
  142.0920   76.2590  220.2360 C   0  0  0  0  0  0  0  0  0  0  0  0
  142.5660   76.4950  218.9940 N   0  0  0  0  0  0  0  0  0  0  0  0
  142.4400   77.8230  218.7080 C   0  0  0  0  0  0  0  0  0  0  0  0
  142.7770   78.5560  217.5710 C   0  0  0  0  0  0  0  0  0  0  0  0
  142.5270   79.9120  217.5740 C   0  0  0  0  0  0  0  0  0  0  0  0
  141.9510   80.5540  218.6710 C   0  0  0  0  0  0  0  0  0  0  0  0
  141.6160   79.8130  219.8060 C   0  0  0  0  0  0  0  0  0  0  0  0
  141.8700   78.4660  219.7930 C   0  0  0  0  0  0  0  0  0  0  0  0
  137.6118   75.0149  220.5434 H   0  0  0  0  0  0  0  0  0  0  0  0
  136.6290   76.4124  221.0606 H   0  0  0  0  0  0  0  0  0  0  0  0
  139.2508   75.1817  218.8289 H   0  0  0  0  0  0  0  0  0  0  0  0
  140.1498   76.5207  216.9195 H   0  0  0  0  0  0  0  0  0  0  0  0
  139.5873   78.9347  216.6974 H   0  0  0  0  0  0  0  0  0  0  0  0
  138.1269   80.0050  218.3917 H   0  0  0  0  0  0  0  0  0  0  0  0
  137.2156   78.7029  220.3107 H   0  0  0  0  0  0  0  0  0  0  0  0
  138.6738   79.4900  221.5906 H   0  0  0  0  0  0  0  0  0  0  0  0
  138.4268   78.7933  223.2018 H   0  0  0  0  0  0  0  0  0  0  0  0
  139.6737   81.5704  223.5947 H   0  0  0  0  0  0  0  0  0  0  0  0
  141.8617   82.4350  224.2747 H   0  0  0  0  0  0  0  0  0  0  0  0
  143.9058   80.9997  223.9540 H   0  0  0  0  0  0  0  0  0  0  0  0
  143.6182   78.7346  222.9472 H   0  0  0  0  0  0  0  0  0  0  0  0
  141.3742   76.7512  222.7303 H   0  0  0  0  0  0  0  0  0  0  0  0
  142.0551   75.2893  220.7539 H   0  0  0  0  0  0  0  0  0  0  0  0
  142.9790   75.7880  218.3150 H   0  0  0  0  0  0  0  0  0  0  0  0
  143.2296   78.0664  216.6961 H   0  0  0  0  0  0  0  0  0  0  0  0
  142.7893   80.5052  216.6855 H   0  0  0  0  0  0  0  0  0  0  0  0
  141.7620   81.6373  218.6417 H   0  0  0  0  0  0  0  0  0  0  0  0
  141.1620   80.2955  220.6841 H   0  0  0  0  0  0  0  0  0  0  0  0
  1  2  2  0
  2  3  2  0
  2  4  1  0
  4  5  1  0
  5  6  2  0
  6  7  1  0
  7  8  2  0
  8  9  1  0
  9 10  2  0
  2 11  1  0
 11 12  1  0
 12 13  1  0
 13 14  2  0
 14 15  1  0
 15 16  2  0
 16 17  1  0
 17 18  2  0
 18 19  1  0
 19 20  1  0
 20 21  2  0
 21 22  1  0
 22 23  1  0
 23 24  2  0
 24 25  1  0
 25 26  2  0
 26 27  1  0
 27 28  2  0
 10  5  1  0
 19 11  1  0
 28 20  1  0
 18 13  1  0
 28 23  1  0
  4 29  1  0
  4 30  1  0
  6 31  1  0
  7 32  1  0
  8 33  1  0
  9 34  1  0
 10 35  1  0
 12 36  1  0
 12 37  1  0
 14 38  1  0
 15 39  1  0
 16 40  1  0
 17 41  1  0
 19 42  1  1
 21 43  1  0
 22 44  1  0
 24 45  1  0
 25 46  1  0
 26 47  1  0
 27 48  1  0
M  END
>  <smiles>  (49) 
O=S(=O)(Cc1ccccc1)N1Cc2ccccc2C1c1c[nH]c2ccccc12

>  <score_type>  (49) 
oracle

>  <origin>  (49) 
autodockgpu

>  <m_score__min__energy>  (49) 
-8.2400000000000002

>  <m_primary>  (49) 
energy

>  <rmsd>  (49) 
5.5509352795218

>  <m_score__min__rmsd>  (49) 
5.5509352795218

>  <meeko>  (49) 
{"free_energy": -6.47, "intermolecular_energy": -7.66, "internal_energy": -2.97, "cluster_size": 1, "cluster_id": 5, "rank_in_cluster": 1}

>  <energy>  (49) 
-6.64

>  <cluster_rmsd>  (49) 
0.07

>  <cluster>  (49) 
4

$$$$

     RDKit          3D

 48 52  0  0  0  0  0  0  0  0999 V2000
  142.1230   78.6560  224.0730 O   0  0  0  0  0  0  0  0  0  0  0  0
  142.2790   79.7700  223.0760 S   0  0  0  0  0  0  0  0  0  0  0  0
  143.7140   80.1580  223.0200 O   0  0  0  0  0  0  0  0  0  0  0  0
  141.3600   81.2050  223.6270 C   0  0  0  0  0  0  0  0  0  0  0  0
  139.9270   80.9820  223.3070 C   0  0  0  0  0  0  0  0  0  0  0  0
  139.2990   81.7940  222.3670 C   0  0  0  0  0  0  0  0  0  0  0  0
  137.9500   81.5730  222.0740 C   0  0  0  0  0  0  0  0  0  0  0  0
  137.2410   80.5620  222.7050 C   0  0  0  0  0  0  0  0  0  0  0  0
  137.8930   79.7690  223.6350 C   0  0  0  0  0  0  0  0  0  0  0  0
  139.2350   79.9620  223.9510 C   0  0  0  0  0  0  0  0  0  0  0  0
  141.6280   79.2660  221.6080 N   0  0  0  0  0  0  0  0  0  0  0  0
  141.7510   80.1290  220.4940 C   0  0  0  0  0  0  0  0  0  0  0  0
  142.0160   79.2500  219.3120 C   0  0  0  0  0  0  0  0  0  0  0  0
  142.2130   79.4590  217.9790 C   0  0  0  0  0  0  0  0  0  0  0  0
  142.4470   78.4650  217.0550 C   0  0  0  0  0  0  0  0  0  0  0  0
  142.4890   77.1470  217.4890 C   0  0  0  0  0  0  0  0  0  0  0  0
  142.2910   76.9030  218.8480 C   0  0  0  0  0  0  0  0  0  0  0  0
  142.0600   77.9220  219.7480 C   0  0  0  0  0  0  0  0  0  0  0  0
  141.8220   77.9090  221.2340 C   0  0  2  0  0  0  0  0  0  0  0  0
  140.5300   77.1950  221.5300 C   0  0  0  0  0  0  0  0  0  0  0  0
  140.4950   76.0660  222.3220 C   0  0  0  0  0  0  0  0  0  0  0  0
  139.2020   75.6830  222.3830 N   0  0  0  0  0  0  0  0  0  0  0  0
  138.4410   76.5440  221.6500 C   0  0  0  0  0  0  0  0  0  0  0  0
  137.0690   76.5800  221.4020 C   0  0  0  0  0  0  0  0  0  0  0  0
  136.5780   77.5920  220.6050 C   0  0  0  0  0  0  0  0  0  0  0  0
  137.4110   78.5660  220.0520 C   0  0  0  0  0  0  0  0  0  0  0  0
  138.7840   78.5240  220.3040 C   0  0  0  0  0  0  0  0  0  0  0  0
  139.2610   77.5130  221.0970 C   0  0  0  0  0  0  0  0  0  0  0  0
  141.4846   81.3341  224.7123 H   0  0  0  0  0  0  0  0  0  0  0  0
  141.7278   82.1112  223.1234 H   0  0  0  0  0  0  0  0  0  0  0  0
  139.8556   82.5974  221.8623 H   0  0  0  0  0  0  0  0  0  0  0  0
  137.4442   82.2096  221.3331 H   0  0  0  0  0  0  0  0  0  0  0  0
  136.1796   80.3927  222.4712 H   0  0  0  0  0  0  0  0  0  0  0  0
  137.3353   78.9650  224.1374 H   0  0  0  0  0  0  0  0  0  0  0  0
  139.7362   79.3227  224.6927 H   0  0  0  0  0  0  0  0  0  0  0  0
  140.8201   80.6961  220.3464 H   0  0  0  0  0  0  0  0  0  0  0  0
  142.5607   80.8591  220.6401 H   0  0  0  0  0  0  0  0  0  0  0  0
  142.1828   80.4967  217.6154 H   0  0  0  0  0  0  0  0  0  0  0  0
  142.5978   78.7107  215.9934 H   0  0  0  0  0  0  0  0  0  0  0  0
  142.6723   76.3224  216.7845 H   0  0  0  0  0  0  0  0  0  0  0  0
  142.3200   75.8658  219.2131 H   0  0  0  0  0  0  0  0  0  0  0  0
  142.6559   77.4211  221.7599 H   0  0  0  0  0  0  0  0  0  0  0  0
  141.3512   75.5751  222.8077 H   0  0  0  0  0  0  0  0  0  0  0  0
  138.8000   74.8500  222.9080 H   0  0  0  0  0  0  0  0  0  0  0  0
  136.3972   75.8217  221.8306 H   0  0  0  0  0  0  0  0  0  0  0  0
  135.4983   77.6331  220.3988 H   0  0  0  0  0  0  0  0  0  0  0  0
  136.9884   79.3621  219.4214 H   0  0  0  0  0  0  0  0  0  0  0  0
  139.4617   79.2791  219.8791 H   0  0  0  0  0  0  0  0  0  0  0  0
  1  2  2  0
  2  3  2  0
  2  4  1  0
  4  5  1  0
  5  6  2  0
  6  7  1  0
  7  8  2  0
  8  9  1  0
  9 10  2  0
  2 11  1  0
 11 12  1  0
 12 13  1  0
 13 14  2  0
 14 15  1  0
 15 16  2  0
 16 17  1  0
 17 18  2  0
 18 19  1  0
 19 20  1  0
 20 21  2  0
 21 22  1  0
 22 23  1  0
 23 24  2  0
 24 25  1  0
 25 26  2  0
 26 27  1  0
 27 28  2  0
 10  5  1  0
 19 11  1  0
 28 20  1  0
 18 13  1  0
 28 23  1  0
  4 29  1  0
  4 30  1  0
  6 31  1  0
  7 32  1  0
  8 33  1  0
  9 34  1  0
 10 35  1  0
 12 36  1  0
 12 37  1  0
 14 38  1  0
 15 39  1  0
 16 40  1  0
 17 41  1  0
 19 42  1  1
 21 43  1  0
 22 44  1  0
 24 45  1  0
 25 46  1  0
 26 47  1  0
 27 48  1  0
M  END
>  <smiles>  (50) 
O=S(=O)(Cc1ccccc1)N1Cc2ccccc2C1c1c[nH]c2ccccc12

>  <score_type>  (50) 
oracle

>  <origin>  (50) 
autodockgpu

>  <m_score__min__energy>  (50) 
-8.2400000000000002

>  <m_primary>  (50) 
energy

>  <rmsd>  (50) 
4.171936316383307

>  <m_score__min__rmsd>  (50) 
4.171936316383307

>  <meeko>  (50) 
{"free_energy": -6.64, "intermolecular_energy": -7.84, "internal_energy": -2.93, "cluster_size": 3, "cluster_id": 4, "rank_in_cluster": 3}

>  <energy>  (50) 
-6.47

>  <cluster_rmsd>  (50) 
0.0

>  <cluster>  (50) 
5

$$$$

     RDKit          3D

 48 52  0  0  0  0  0  0  0  0999 V2000
  140.4830   75.5550  218.6130 O   0  0  0  0  0  0  0  0  0  0  0  0
  141.0830   76.9360  218.4490 S   0  0  0  0  0  0  0  0  0  0  0  0
  140.3510   77.6680  217.3660 O   0  0  0  0  0  0  0  0  0  0  0  0
  142.7910   76.8540  218.0230 C   0  0  0  0  0  0  0  0  0  0  0  0
  143.4920   75.7150  218.6590 C   0  0  0  0  0  0  0  0  0  0  0  0
  143.6010   74.4730  218.0630 C   0  0  0  0  0  0  0  0  0  0  0  0
  144.2400   73.4030  218.6230 C   0  0  0  0  0  0  0  0  0  0  0  0
  144.8110   73.5930  219.8750 C   0  0  0  0  0  0  0  0  0  0  0  0
  144.7030   74.8410  220.4770 C   0  0  0  0  0  0  0  0  0  0  0  0
  144.0620   75.8990  219.9020 C   0  0  0  0  0  0  0  0  0  0  0  0
  140.8910   77.8300  219.9120 N   0  0  0  0  0  0  0  0  0  0  0  0
  141.8070   78.9830  219.9310 C   0  0  0  0  0  0  0  0  0  0  0  0
  141.8070   79.3160  221.3750 C   0  0  0  0  0  0  0  0  0  0  0  0
  142.0560   80.5340  221.9900 C   0  0  0  0  0  0  0  0  0  0  0  0
  142.0020   80.6150  223.3800 C   0  0  0  0  0  0  0  0  0  0  0  0
  141.7020   79.4790  224.1040 C   0  0  0  0  0  0  0  0  0  0  0  0
  141.4580   78.2730  223.4490 C   0  0  0  0  0  0  0  0  0  0  0  0
  141.5050   78.1690  222.0770 C   0  0  0  0  0  0  0  0  0  0  0  0
  141.3080   77.1030  221.0640 C   0  0  1  0  0  0  0  0  0  0  0  0
  140.3590   76.0670  221.5280 C   0  0  0  0  0  0  0  0  0  0  0  0
  139.1040   76.1600  222.0540 C   0  0  0  0  0  0  0  0  0  0  0  0
  138.6160   74.9360  222.3470 N   0  0  0  0  0  0  0  0  0  0  0  0
  139.5600   74.0450  222.0100 C   0  0  0  0  0  0  0  0  0  0  0  0
  139.5770   72.6600  222.0980 C   0  0  0  0  0  0  0  0  0  0  0  0
  140.6560   71.9030  221.6920 C   0  0  0  0  0  0  0  0  0  0  0  0
  141.7530   72.5690  221.1800 C   0  0  0  0  0  0  0  0  0  0  0  0
  141.7240   73.9430  221.0970 C   0  0  0  0  0  0  0  0  0  0  0  0
  140.6540   74.7130  221.4990 C   0  0  0  0  0  0  0  0  0  0  0  0
  142.8754   76.7519  216.9310 H   0  0  0  0  0  0  0  0  0  0  0  0
  143.2656   77.7772  218.3870 H   0  0  0  0  0  0  0  0  0  0  0  0
  143.1430   74.3368  217.0722 H   0  0  0  0  0  0  0  0  0  0  0  0
  144.2996   72.4342  218.1054 H   0  0  0  0  0  0  0  0  0  0  0  0
  145.3389   72.7709  220.3806 H   0  0  0  0  0  0  0  0  0  0  0  0
  145.1579   74.9830  221.4684 H   0  0  0  0  0  0  0  0  0  0  0  0
  144.0013   76.8705  220.4143 H   0  0  0  0  0  0  0  0  0  0  0  0
  142.8121   78.7070  219.5795 H   0  0  0  0  0  0  0  0  0  0  0  0
  141.5080   79.8123  219.2730 H   0  0  0  0  0  0  0  0  0  0  0  0
  142.2929   81.4240  221.3886 H   0  0  0  0  0  0  0  0  0  0  0  0
  142.1954   81.5691  223.8921 H   0  0  0  0  0  0  0  0  0  0  0  0
  141.6553   79.5254  225.2020 H   0  0  0  0  0  0  0  0  0  0  0  0
  141.2212   77.3793  224.0451 H   0  0  0  0  0  0  0  0  0  0  0  0
  142.2091   76.5085  220.8529 H   0  0  0  0  0  0  0  0  0  0  0  0
  138.5632   77.1039  222.2172 H   0  0  0  0  0  0  0  0  0  0  0  0
  137.6980   74.6620  222.7560 H   0  0  0  0  0  0  0  0  0  0  0  0
  138.6951   72.1458  222.5077 H   0  0  0  0  0  0  0  0  0  0  0  0
  140.6437   70.8061  221.7731 H   0  0  0  0  0  0  0  0  0  0  0  0
  142.6378   72.0089  220.8432 H   0  0  0  0  0  0  0  0  0  0  0  0
  142.6060   74.4559  220.6860 H   0  0  0  0  0  0  0  0  0  0  0  0
  1  2  2  0
  2  3  2  0
  2  4  1  0
  4  5  1  0
  5  6  2  0
  6  7  1  0
  7  8  2  0
  8  9  1  0
  9 10  2  0
  2 11  1  0
 11 12  1  0
 12 13  1  0
 13 14  2  0
 14 15  1  0
 15 16  2  0
 16 17  1  0
 17 18  2  0
 18 19  1  0
 19 20  1  0
 20 21  2  0
 21 22  1  0
 22 23  1  0
 23 24  2  0
 24 25  1  0
 25 26  2  0
 26 27  1  0
 27 28  2  0
 10  5  1  0
 19 11  1  0
 28 20  1  0
 18 13  1  0
 28 23  1  0
  4 29  1  0
  4 30  1  0
  6 31  1  0
  7 32  1  0
  8 33  1  0
  9 34  1  0
 10 35  1  0
 12 36  1  0
 12 37  1  0
 14 38  1  0
 15 39  1  0
 16 40  1  0
 17 41  1  0
 19 42  1  6
 21 43  1  0
 22 44  1  0
 24 45  1  0
 25 46  1  0
 26 47  1  0
 27 48  1  0
M  END
>  <smiles>  (51) 
O=S(=O)(Cc1ccccc1)N1Cc2ccccc2C1c1c[nH]c2ccccc12

>  <score_type>  (51) 
oracle

>  <origin>  (51) 
autodockgpu

>  <m_score__min__energy>  (51) 
-8.3300000000000001

>  <m_primary>  (51) 
energy

>  <rmsd>  (51) 
7.094417719475562

>  <m_score__min__rmsd>  (51) 
7.094417719475562

>  <meeko>  (51) 
{"free_energy": -7.26, "intermolecular_energy": -8.45, "internal_energy": -2.4, "cluster_size": 4, "cluster_id": 3, "rank_in_cluster": 3}

>  <energy>  (51) 
-8.33

>  <cluster_rmsd>  (51) 
0.0

>  <cluster>  (51) 
1

$$$$

     RDKit          3D

 48 52  0  0  0  0  0  0  0  0999 V2000
  134.5790   70.3540  223.3970 O   0  0  0  0  0  0  0  0  0  0  0  0
  135.6210   69.9930  224.4350 S   0  0  0  0  0  0  0  0  0  0  0  0
  135.9810   68.5450  224.2930 O   0  0  0  0  0  0  0  0  0  0  0  0
  135.0300   70.2720  226.0720 C   0  0  0  0  0  0  0  0  0  0  0  0
  134.2660   71.5330  226.2050 C   0  0  0  0  0  0  0  0  0  0  0  0
  133.2140   71.6850  227.0870 C   0  0  0  0  0  0  0  0  0  0  0  0
  132.4890   72.8340  227.2320 C   0  0  0  0  0  0  0  0  0  0  0  0
  132.8460   73.9110  226.4310 C   0  0  0  0  0  0  0  0  0  0  0  0
  133.9040   73.7620  225.5420 C   0  0  0  0  0  0  0  0  0  0  0  0
  134.6170   72.6060  225.4110 C   0  0  0  0  0  0  0  0  0  0  0  0
  137.0520   70.9200  224.1690 N   0  0  0  0  0  0  0  0  0  0  0  0
  136.9260   71.7150  222.9370 C   0  0  0  0  0  0  0  0  0  0  0  0
  138.3450   72.0480  222.6730 C   0  0  0  0  0  0  0  0  0  0  0  0
  138.8750   73.1280  221.9820 C   0  0  0  0  0  0  0  0  0  0  0  0
  140.2580   73.2390  221.8550 C   0  0  0  0  0  0  0  0  0  0  0  0
  141.0610   72.2700  222.4220 C   0  0  0  0  0  0  0  0  0  0  0  0
  140.4910   71.2000  223.1090 C   0  0  0  0  0  0  0  0  0  0  0  0
  139.1270   71.0700  223.2470 C   0  0  0  0  0  0  0  0  0  0  0  0
  138.1900   70.1110  223.8840 C   0  0  1  0  0  0  0  0  0  0  0  0
  138.7940   69.4440  225.0590 C   0  0  0  0  0  0  0  0  0  0  0  0
  138.7680   68.1450  225.4740 C   0  0  0  0  0  0  0  0  0  0  0  0
  139.4600   67.9970  226.6240 N   0  0  0  0  0  0  0  0  0  0  0  0
  139.9360   69.2060  226.9550 C   0  0  0  0  0  0  0  0  0  0  0  0
  140.7080   69.6160  228.0330 C   0  0  0  0  0  0  0  0  0  0  0  0
  141.1080   70.9240  228.2060 C   0  0  0  0  0  0  0  0  0  0  0  0
  140.7150   71.8470  227.2570 C   0  0  0  0  0  0  0  0  0  0  0  0
  139.9490   71.4290  226.1920 C   0  0  0  0  0  0  0  0  0  0  0  0
  139.5410   70.1260  226.0050 C   0  0  0  0  0  0  0  0  0  0  0  0
  134.3759   69.4344  226.3558 H   0  0  0  0  0  0  0  0  0  0  0  0
  135.9083   70.3489  226.7298 H   0  0  0  0  0  0  0  0  0  0  0  0
  132.9417   70.8236  227.7146 H   0  0  0  0  0  0  0  0  0  0  0  0
  131.6595   72.9030  227.9511 H   0  0  0  0  0  0  0  0  0  0  0  0
  132.3015   74.8643  226.4989 H   0  0  0  0  0  0  0  0  0  0  0  0
  134.1807   74.6200  224.9117 H   0  0  0  0  0  0  0  0  0  0  0  0
  135.4474   72.5314  224.6934 H   0  0  0  0  0  0  0  0  0  0  0  0
  136.4898   71.1248  222.1176 H   0  0  0  0  0  0  0  0  0  0  0  0
  136.2628   72.5882  223.0251 H   0  0  0  0  0  0  0  0  0  0  0  0
  138.2121   73.8866  221.5403 H   0  0  0  0  0  0  0  0  0  0  0  0
  140.7030   74.0855  221.3114 H   0  0  0  0  0  0  0  0  0  0  0  0
  142.1548   72.3427  222.3312 H   0  0  0  0  0  0  0  0  0  0  0  0
  141.1486   70.4383  223.5533 H   0  0  0  0  0  0  0  0  0  0  0  0
  137.9196   69.2540  223.2497 H   0  0  0  0  0  0  0  0  0  0  0  0
  138.2537   67.3295  224.9444 H   0  0  0  0  0  0  0  0  0  0  0  0
  139.6310   67.1430  227.1960 H   0  0  0  0  0  0  0  0  0  0  0  0
  141.0129   68.8675  228.7792 H   0  0  0  0  0  0  0  0  0  0  0  0
  141.7194   71.2222  229.0705 H   0  0  0  0  0  0  0  0  0  0  0  0
  141.0101   72.9025  227.3507 H   0  0  0  0  0  0  0  0  0  0  0  0
  139.6449   72.1789  225.4469 H   0  0  0  0  0  0  0  0  0  0  0  0
  1  2  2  0
  2  3  2  0
  2  4  1  0
  4  5  1  0
  5  6  2  0
  6  7  1  0
  7  8  2  0
  8  9  1  0
  9 10  2  0
  2 11  1  0
 11 12  1  0
 12 13  1  0
 13 14  2  0
 14 15  1  0
 15 16  2  0
 16 17  1  0
 17 18  2  0
 18 19  1  0
 19 20  1  0
 20 21  2  0
 21 22  1  0
 22 23  1  0
 23 24  2  0
 24 25  1  0
 25 26  2  0
 26 27  1  0
 27 28  2  0
 10  5  1  0
 19 11  1  0
 28 20  1  0
 18 13  1  0
 28 23  1  0
  4 29  1  0
  4 30  1  0
  6 31  1  0
  7 32  1  0
  8 33  1  0
  9 34  1  0
 10 35  1  0
 12 36  1  0
 12 37  1  0
 14 38  1  0
 15 39  1  0
 16 40  1  0
 17 41  1  0
 19 42  1  6
 21 43  1  0
 22 44  1  0
 24 45  1  0
 25 46  1  0
 26 47  1  0
 27 48  1  0
M  END
>  <smiles>  (52) 
O=S(=O)(Cc1ccccc1)N1Cc2ccccc2C1c1c[nH]c2ccccc12

>  <score_type>  (52) 
oracle

>  <origin>  (52) 
autodockgpu

>  <m_score__min__energy>  (52) 
-8.3300000000000001

>  <m_primary>  (52) 
energy

>  <rmsd>  (52) 
10.17793301496579

>  <m_score__min__rmsd>  (52) 
10.17793301496579

>  <meeko>  (52) 
{"free_energy": -8.11, "intermolecular_energy": -9.3, "internal_energy": -1.7, "cluster_size": 13, "cluster_id": 1, "rank_in_cluster": 12}

>  <energy>  (52) 
-8.3

>  <cluster_rmsd>  (52) 
0.07

>  <cluster>  (52) 
1

$$$$

     RDKit          3D

 48 52  0  0  0  0  0  0  0  0999 V2000
  140.3060   74.8770  222.3450 O   0  0  0  0  0  0  0  0  0  0  0  0
  140.1800   76.3670  222.1040 S   0  0  0  0  0  0  0  0  0  0  0  0
  141.1010   77.0980  223.0330 O   0  0  0  0  0  0  0  0  0  0  0  0
  138.5340   76.9310  222.3800 C   0  0  0  0  0  0  0  0  0  0  0  0
  138.4540   78.3910  222.6160 C   0  0  0  0  0  0  0  0  0  0  0  0
  139.0630   79.0130  223.6880 C   0  0  0  0  0  0  0  0  0  0  0  0
  139.0080   80.3560  223.9330 C   0  0  0  0  0  0  0  0  0  0  0  0
  138.2850   81.1320  223.0360 C   0  0  0  0  0  0  0  0  0  0  0  0
  137.6700   80.5090  221.9560 C   0  0  0  0  0  0  0  0  0  0  0  0
  137.7380   79.1660  221.7270 C   0  0  0  0  0  0  0  0  0  0  0  0
  140.6570   76.7380  220.4880 N   0  0  0  0  0  0  0  0  0  0  0  0
  141.2130   75.5430  219.8310 C   0  0  0  0  0  0  0  0  0  0  0  0
  141.9370   76.1610  218.6950 C   0  0  0  0  0  0  0  0  0  0  0  0
  142.2580   75.6120  217.4630 C   0  0  0  0  0  0  0  0  0  0  0  0
  142.9540   76.3870  216.5360 C   0  0  0  0  0  0  0  0  0  0  0  0
  143.3030   77.6790  216.8740 C   0  0  0  0  0  0  0  0  0  0  0  0
  142.9630   78.1940  218.1240 C   0  0  0  0  0  0  0  0  0  0  0  0
  142.2760   77.4470  219.0550 C   0  0  0  0  0  0  0  0  0  0  0  0
  141.7550   77.6450  220.4300 C   0  0  1  0  0  0  0  0  0  0  0  0
  141.4130   79.0600  220.6950 C   0  0  0  0  0  0  0  0  0  0  0  0
  140.6730   79.9600  219.9860 C   0  0  0  0  0  0  0  0  0  0  0  0
  140.6410   81.1530  220.6160 N   0  0  0  0  0  0  0  0  0  0  0  0
  141.3640   81.0260  221.7380 C   0  0  0  0  0  0  0  0  0  0  0  0
  141.6530   81.9390  222.7420 C   0  0  0  0  0  0  0  0  0  0  0  0
  142.4260   81.6190  223.8380 C   0  0  0  0  0  0  0  0  0  0  0  0
  142.9220   80.3320  223.9210 C   0  0  0  0  0  0  0  0  0  0  0  0
  142.6270   79.4350  222.9180 C   0  0  0  0  0  0  0  0  0  0  0  0
  141.8570   79.7400  221.8170 C   0  0  0  0  0  0  0  0  0  0  0  0
  137.9265   76.6850  221.4966 H   0  0  0  0  0  0  0  0  0  0  0  0
  138.1625   76.4305  223.2864 H   0  0  0  0  0  0  0  0  0  0  0  0
  139.6301   78.3855  224.3914 H   0  0  0  0  0  0  0  0  0  0  0  0
  139.5136   80.8028  224.8017 H   0  0  0  0  0  0  0  0  0  0  0  0
  138.2006   82.2196  223.1776 H   0  0  0  0  0  0  0  0  0  0  0  0
  137.0995   81.1307  221.2502 H   0  0  0  0  0  0  0  0  0  0  0  0
  137.2365   78.7139  220.8586 H   0  0  0  0  0  0  0  0  0  0  0  0
  141.8966   74.9961  220.4971 H   0  0  0  0  0  0  0  0  0  0  0  0
  140.4626   74.7937  219.5388 H   0  0  0  0  0  0  0  0  0  0  0  0
  141.9676   74.5792  217.2201 H   0  0  0  0  0  0  0  0  0  0  0  0
  143.2206   75.9754  215.5513 H   0  0  0  0  0  0  0  0  0  0  0  0
  143.8514   78.3046  216.1543 H   0  0  0  0  0  0  0  0  0  0  0  0
  143.2515   79.2257  218.3737 H   0  0  0  0  0  0  0  0  0  0  0  0
  142.4861   77.4353  221.2247 H   0  0  0  0  0  0  0  0  0  0  0  0
  140.1711   79.7431  219.0315 H   0  0  0  0  0  0  0  0  0  0  0  0
  140.1680   82.0410  220.3420 H   0  0  0  0  0  0  0  0  0  0  0  0
  141.2493   82.9590  222.6603 H   0  0  0  0  0  0  0  0  0  0  0  0
  142.6405   82.3628  224.6195 H   0  0  0  0  0  0  0  0  0  0  0  0
  143.5437   80.0280  224.7760 H   0  0  0  0  0  0  0  0  0  0  0  0
  143.0301   78.4149  223.0011 H   0  0  0  0  0  0  0  0  0  0  0  0
  1  2  2  0
  2  3  2  0
  2  4  1  0
  4  5  1  0
  5  6  2  0
  6  7  1  0
  7  8  2  0
  8  9  1  0
  9 10  2  0
  2 11  1  0
 11 12  1  0
 12 13  1  0
 13 14  2  0
 14 15  1  0
 15 16  2  0
 16 17  1  0
 17 18  2  0
 18 19  1  0
 19 20  1  0
 20 21  2  0
 21 22  1  0
 22 23  1  0
 23 24  2  0
 24 25  1  0
 25 26  2  0
 26 27  1  0
 27 28  2  0
 10  5  1  0
 19 11  1  0
 28 20  1  0
 18 13  1  0
 28 23  1  0
  4 29  1  0
  4 30  1  0
  6 31  1  0
  7 32  1  0
  8 33  1  0
  9 34  1  0
 10 35  1  0
 12 36  1  0
 12 37  1  0
 14 38  1  0
 15 39  1  0
 16 40  1  0
 17 41  1  0
 19 42  1  1
 21 43  1  0
 22 44  1  0
 24 45  1  0
 25 46  1  0
 26 47  1  0
 27 48  1  0
M  END
>  <smiles>  (53) 
O=S(=O)(Cc1ccccc1)N1Cc2ccccc2C1c1c[nH]c2ccccc12

>  <score_type>  (53) 
oracle

>  <origin>  (53) 
autodockgpu

>  <m_score__min__energy>  (53) 
-8.3300000000000001

>  <m_primary>  (53) 
energy

>  <rmsd>  (53) 
4.050898189449124

>  <m_score__min__rmsd>  (53) 
4.050898189449124

>  <meeko>  (53) 
{"free_energy": -7.21, "intermolecular_energy": -8.4, "internal_energy": -2.61, "cluster_size": 26, "cluster_id": 4, "rank_in_cluster": 7}

>  <energy>  (53) 
-8.18

>  <cluster_rmsd>  (53) 
0.22

>  <cluster>  (53) 
1

$$$$

     RDKit          3D

 48 52  0  0  0  0  0  0  0  0999 V2000
  140.2620   74.8910  222.3450 O   0  0  0  0  0  0  0  0  0  0  0  0
  140.1620   76.3830  222.1060 S   0  0  0  0  0  0  0  0  0  0  0  0
  141.1010   77.0970  223.0300 O   0  0  0  0  0  0  0  0  0  0  0  0
  138.5270   76.9770  222.3900 C   0  0  0  0  0  0  0  0  0  0  0  0
  138.4770   78.4360  222.6430 C   0  0  0  0  0  0  0  0  0  0  0  0
  139.0710   79.0290  223.7410 C   0  0  0  0  0  0  0  0  0  0  0  0
  139.0420   80.3690  224.0020 C   0  0  0  0  0  0  0  0  0  0  0  0
  138.3650   81.1750  223.0960 C   0  0  0  0  0  0  0  0  0  0  0  0
  137.7660   80.5810  221.9910 C   0  0  0  0  0  0  0  0  0  0  0  0
  137.8070   79.2400  221.7450 C   0  0  0  0  0  0  0  0  0  0  0  0
  140.6380   76.7470  220.4880 N   0  0  0  0  0  0  0  0  0  0  0  0
  141.1740   75.5440  219.8290 C   0  0  0  0  0  0  0  0  0  0  0  0
  141.9020   76.1510  218.6900 C   0  0  0  0  0  0  0  0  0  0  0  0
  142.2100   75.5980  217.4560 C   0  0  0  0  0  0  0  0  0  0  0  0
  142.9130   76.3620  216.5270 C   0  0  0  0  0  0  0  0  0  0  0  0
  143.2830   77.6490  216.8620 C   0  0  0  0  0  0  0  0  0  0  0  0
  142.9550   78.1690  218.1140 C   0  0  0  0  0  0  0  0  0  0  0  0
  142.2600   77.4330  219.0470 C   0  0  0  0  0  0  0  0  0  0  0  0
  141.7480   77.6380  220.4250 C   0  0  1  0  0  0  0  0  0  0  0  0
  141.4280   79.0580  220.6900 C   0  0  0  0  0  0  0  0  0  0  0  0
  140.7080   79.9720  219.9780 C   0  0  0  0  0  0  0  0  0  0  0  0
  140.6910   81.1640  220.6100 N   0  0  0  0  0  0  0  0  0  0  0  0
  141.4020   81.0230  221.7380 C   0  0  0  0  0  0  0  0  0  0  0  0
  141.6990   81.9280  222.7460 C   0  0  0  0  0  0  0  0  0  0  0  0
  142.4570   81.5920  223.8480 C   0  0  0  0  0  0  0  0  0  0  0  0
  142.9300   80.2970  223.9320 C   0  0  0  0  0  0  0  0  0  0  0  0
  142.6290   79.4070  222.9250 C   0  0  0  0  0  0  0  0  0  0  0  0
  141.8730   79.7280  221.8180 C   0  0  0  0  0  0  0  0  0  0  0  0
  137.9141   76.7536  221.5043 H   0  0  0  0  0  0  0  0  0  0  0  0
  138.1458   76.4736  223.2907 H   0  0  0  0  0  0  0  0  0  0  0  0
  139.6022   78.3786  224.4515 H   0  0  0  0  0  0  0  0  0  0  0  0
  139.5333   80.7916  224.8909 H   0  0  0  0  0  0  0  0  0  0  0  0
  138.3039   82.2625  223.2498 H   0  0  0  0  0  0  0  0  0  0  0  0
  137.2313   81.2259  221.2781 H   0  0  0  0  0  0  0  0  0  0  0  0
  137.3199   78.8124  220.8563 H   0  0  0  0  0  0  0  0  0  0  0  0
  141.8524   74.9875  220.4924 H   0  0  0  0  0  0  0  0  0  0  0  0
  140.4116   74.8056  219.5401 H   0  0  0  0  0  0  0  0  0  0  0  0
  141.9033   74.5697  217.2139 H   0  0  0  0  0  0  0  0  0  0  0  0
  143.1693   75.9460  215.5415 H   0  0  0  0  0  0  0  0  0  0  0  0
  143.8379   78.2660  216.1399 H   0  0  0  0  0  0  0  0  0  0  0  0
  143.2602   79.1961  218.3629 H   0  0  0  0  0  0  0  0  0  0  0  0
  142.4787   77.4175  221.2171 H   0  0  0  0  0  0  0  0  0  0  0  0
  140.2093   79.7655  219.0195 H   0  0  0  0  0  0  0  0  0  0  0  0
  140.2350   82.0610  220.3350 H   0  0  0  0  0  0  0  0  0  0  0  0
  141.3145   82.9553  222.6632 H   0  0  0  0  0  0  0  0  0  0  0  0
  142.6774   82.3301  224.6333 H   0  0  0  0  0  0  0  0  0  0  0  0
  143.5390   79.9807  224.7917 H   0  0  0  0  0  0  0  0  0  0  0  0
  143.0143   78.3801  223.0090 H   0  0  0  0  0  0  0  0  0  0  0  0
  1  2  2  0
  2  3  2  0
  2  4  1  0
  4  5  1  0
  5  6  2  0
  6  7  1  0
  7  8  2  0
  8  9  1  0
  9 10  2  0
  2 11  1  0
 11 12  1  0
 12 13  1  0
 13 14  2  0
 14 15  1  0
 15 16  2  0
 16 17  1  0
 17 18  2  0
 18 19  1  0
 19 20  1  0
 20 21  2  0
 21 22  1  0
 22 23  1  0
 23 24  2  0
 24 25  1  0
 25 26  2  0
 26 27  1  0
 27 28  2  0
 10  5  1  0
 19 11  1  0
 28 20  1  0
 18 13  1  0
 28 23  1  0
  4 29  1  0
  4 30  1  0
  6 31  1  0
  7 32  1  0
  8 33  1  0
  9 34  1  0
 10 35  1  0
 12 36  1  0
 12 37  1  0
 14 38  1  0
 15 39  1  0
 16 40  1  0
 17 41  1  0
 19 42  1  1
 21 43  1  0
 22 44  1  0
 24 45  1  0
 25 46  1  0
 26 47  1  0
 27 48  1  0
M  END
>  <smiles>  (54) 
O=S(=O)(Cc1ccccc1)N1Cc2ccccc2C1c1c[nH]c2ccccc12

>  <score_type>  (54) 
oracle

>  <origin>  (54) 
autodockgpu

>  <m_score__min__energy>  (54) 
-8.3300000000000001

>  <m_primary>  (54) 
energy

>  <rmsd>  (54) 
4.050045318689377

>  <m_score__min__rmsd>  (54) 
4.050045318689377

>  <meeko>  (54) 
{"free_energy": -7.2, "intermolecular_energy": -8.39, "internal_energy": -2.62, "cluster_size": 26, "cluster_id": 4, "rank_in_cluster": 17}

>  <energy>  (54) 
-8.18

>  <cluster_rmsd>  (54) 
0.47

>  <cluster>  (54) 
1

$$$$

     RDKit          3D

 48 52  0  0  0  0  0  0  0  0999 V2000
  140.2840   74.8800  222.3290 O   0  0  0  0  0  0  0  0  0  0  0  0
  140.1720   76.3720  222.0910 S   0  0  0  0  0  0  0  0  0  0  0  0
  141.1060   77.0920  223.0160 O   0  0  0  0  0  0  0  0  0  0  0  0
  138.5330   76.9530  222.3780 C   0  0  0  0  0  0  0  0  0  0  0  0
  138.4700   78.4130  222.6190 C   0  0  0  0  0  0  0  0  0  0  0  0
  139.0610   79.0200  223.7100 C   0  0  0  0  0  0  0  0  0  0  0  0
  139.0200   80.3620  223.9620 C   0  0  0  0  0  0  0  0  0  0  0  0
  138.3340   81.1540  223.0510 C   0  0  0  0  0  0  0  0  0  0  0  0
  137.7370   80.5470  221.9520 C   0  0  0  0  0  0  0  0  0  0  0  0
  137.7900   79.2030  221.7170 C   0  0  0  0  0  0  0  0  0  0  0  0
  140.6440   76.7410  220.4730 N   0  0  0  0  0  0  0  0  0  0  0  0
  141.1820   75.5420  219.8100 C   0  0  0  0  0  0  0  0  0  0  0  0
  141.9060   76.1530  218.6710 C   0  0  0  0  0  0  0  0  0  0  0  0
  142.2130   75.6040  217.4360 C   0  0  0  0  0  0  0  0  0  0  0  0
  142.9120   76.3720  216.5070 C   0  0  0  0  0  0  0  0  0  0  0  0
  143.2790   77.6590  216.8450 C   0  0  0  0  0  0  0  0  0  0  0  0
  142.9520   78.1760  218.0980 C   0  0  0  0  0  0  0  0  0  0  0  0
  142.2610   77.4350  219.0310 C   0  0  0  0  0  0  0  0  0  0  0  0
  141.7520   77.6360  220.4100 C   0  0  1  0  0  0  0  0  0  0  0  0
  141.4270   79.0540  220.6800 C   0  0  0  0  0  0  0  0  0  0  0  0
  140.7020   79.9670  219.9720 C   0  0  0  0  0  0  0  0  0  0  0  0
  140.6830   81.1580  220.6060 N   0  0  0  0  0  0  0  0  0  0  0  0
  141.4000   81.0160  221.7310 C   0  0  0  0  0  0  0  0  0  0  0  0
  141.6970   81.9210  222.7410 C   0  0  0  0  0  0  0  0  0  0  0  0
  142.4610   81.5850  223.8380 C   0  0  0  0  0  0  0  0  0  0  0  0
  142.9390   80.2910  223.9180 C   0  0  0  0  0  0  0  0  0  0  0  0
  142.6370   79.4030  222.9100 C   0  0  0  0  0  0  0  0  0  0  0  0
  141.8760   79.7230  221.8070 C   0  0  0  0  0  0  0  0  0  0  0  0
  137.9180   76.7163  221.4972 H   0  0  0  0  0  0  0  0  0  0  0  0
  138.1612   76.4537  223.2849 H   0  0  0  0  0  0  0  0  0  0  0  0
  139.6007   78.3800  224.4236 H   0  0  0  0  0  0  0  0  0  0  0  0
  139.5086   80.7957  224.8470 H   0  0  0  0  0  0  0  0  0  0  0  0
  138.2642   82.2421  223.1962 H   0  0  0  0  0  0  0  0  0  0  0  0
  137.1946   81.1815  221.2356 H   0  0  0  0  0  0  0  0  0  0  0  0
  137.3041   78.7634  220.8334 H   0  0  0  0  0  0  0  0  0  0  0  0
  141.8633   74.9858  220.4707 H   0  0  0  0  0  0  0  0  0  0  0  0
  140.4208   74.8025  219.5206 H   0  0  0  0  0  0  0  0  0  0  0  0
  141.9088   74.5754  217.1924 H   0  0  0  0  0  0  0  0  0  0  0  0
  143.1673   75.9592  215.5199 H   0  0  0  0  0  0  0  0  0  0  0  0
  143.8313   78.2789  216.1234 H   0  0  0  0  0  0  0  0  0  0  0  0
  143.2541   79.2037  218.3482 H   0  0  0  0  0  0  0  0  0  0  0  0
  142.4862   77.4169  221.1993 H   0  0  0  0  0  0  0  0  0  0  0  0
  140.2011   79.7605  219.0147 H   0  0  0  0  0  0  0  0  0  0  0  0
  140.2240   82.0530  220.3350 H   0  0  0  0  0  0  0  0  0  0  0  0
  141.3073   82.9467  222.6627 H   0  0  0  0  0  0  0  0  0  0  0  0
  142.6828   82.3224  224.6235 H   0  0  0  0  0  0  0  0  0  0  0  0
  143.5521   79.9748  224.7748 H   0  0  0  0  0  0  0  0  0  0  0  0
  143.0264   78.3773  222.9901 H   0  0  0  0  0  0  0  0  0  0  0  0
  1  2  2  0
  2  3  2  0
  2  4  1  0
  4  5  1  0
  5  6  2  0
  6  7  1  0
  7  8  2  0
  8  9  1  0
  9 10  2  0
  2 11  1  0
 11 12  1  0
 12 13  1  0
 13 14  2  0
 14 15  1  0
 15 16  2  0
 16 17  1  0
 17 18  2  0
 18 19  1  0
 19 20  1  0
 20 21  2  0
 21 22  1  0
 22 23  1  0
 23 24  2  0
 24 25  1  0
 25 26  2  0
 26 27  1  0
 27 28  2  0
 10  5  1  0
 19 11  1  0
 28 20  1  0
 18 13  1  0
 28 23  1  0
  4 29  1  0
  4 30  1  0
  6 31  1  0
  7 32  1  0
  8 33  1  0
  9 34  1  0
 10 35  1  0
 12 36  1  0
 12 37  1  0
 14 38  1  0
 15 39  1  0
 16 40  1  0
 17 41  1  0
 19 42  1  1
 21 43  1  0
 22 44  1  0
 24 45  1  0
 25 46  1  0
 26 47  1  0
 27 48  1  0
M  END
>  <smiles>  (55) 
O=S(=O)(Cc1ccccc1)N1Cc2ccccc2C1c1c[nH]c2ccccc12

>  <score_type>  (55) 
oracle

>  <origin>  (55) 
autodockgpu

>  <m_score__min__energy>  (55) 
-8.3300000000000001

>  <m_primary>  (55) 
energy

>  <rmsd>  (55) 
4.055815881529266

>  <m_score__min__rmsd>  (55) 
4.055815881529266

>  <meeko>  (55) 
{"free_energy": -7.2, "intermolecular_energy": -8.39, "internal_energy": -2.62, "cluster_size": 26, "cluster_id": 4, "rank_in_cluster": 24}

>  <energy>  (55) 
-8.17

>  <cluster_rmsd>  (55) 
0.41

>  <cluster>  (55) 
1

$$$$

     RDKit          3D

 48 52  0  0  0  0  0  0  0  0999 V2000
  140.2890   74.8880  222.3430 O   0  0  0  0  0  0  0  0  0  0  0  0
  140.1790   76.3790  222.1020 S   0  0  0  0  0  0  0  0  0  0  0  0
  141.1130   77.1000  223.0260 O   0  0  0  0  0  0  0  0  0  0  0  0
  138.5400   76.9620  222.3860 C   0  0  0  0  0  0  0  0  0  0  0  0
  138.4790   78.4240  222.6200 C   0  0  0  0  0  0  0  0  0  0  0  0
  139.0610   79.0350  223.7130 C   0  0  0  0  0  0  0  0  0  0  0  0
  139.0210   80.3790  223.9570 C   0  0  0  0  0  0  0  0  0  0  0  0
  138.3450   81.1680  223.0360 C   0  0  0  0  0  0  0  0  0  0  0  0
  137.7580   80.5560  221.9340 C   0  0  0  0  0  0  0  0  0  0  0  0
  137.8090   79.2110  221.7070 C   0  0  0  0  0  0  0  0  0  0  0  0
  140.6520   76.7430  220.4830 N   0  0  0  0  0  0  0  0  0  0  0  0
  141.1890   75.5420  219.8240 C   0  0  0  0  0  0  0  0  0  0  0  0
  141.9150   76.1500  218.6840 C   0  0  0  0  0  0  0  0  0  0  0  0
  142.2220   75.5970  217.4500 C   0  0  0  0  0  0  0  0  0  0  0  0
  142.9220   76.3620  216.5190 C   0  0  0  0  0  0  0  0  0  0  0  0
  143.2900   77.6500  216.8540 C   0  0  0  0  0  0  0  0  0  0  0  0
  142.9630   78.1700  218.1060 C   0  0  0  0  0  0  0  0  0  0  0  0
  142.2710   77.4320  219.0410 C   0  0  0  0  0  0  0  0  0  0  0  0
  141.7610   77.6360  220.4190 C   0  0  1  0  0  0  0  0  0  0  0  0
  141.4380   79.0560  220.6850 C   0  0  0  0  0  0  0  0  0  0  0  0
  140.7180   79.9690  219.9720 C   0  0  0  0  0  0  0  0  0  0  0  0
  140.6980   81.1610  220.6050 N   0  0  0  0  0  0  0  0  0  0  0  0
  141.4100   81.0200  221.7330 C   0  0  0  0  0  0  0  0  0  0  0  0
  141.7040   81.9250  222.7430 C   0  0  0  0  0  0  0  0  0  0  0  0
  142.4620   81.5900  223.8440 C   0  0  0  0  0  0  0  0  0  0  0  0
  142.9370   80.2950  223.9280 C   0  0  0  0  0  0  0  0  0  0  0  0
  142.6380   79.4060  222.9210 C   0  0  0  0  0  0  0  0  0  0  0  0
  141.8820   79.7260  221.8130 C   0  0  0  0  0  0  0  0  0  0  0  0
  137.9249   76.7216  221.5063 H   0  0  0  0  0  0  0  0  0  0  0  0
  138.1670   76.4670  223.2948 H   0  0  0  0  0  0  0  0  0  0  0  0
  139.5921   78.3976  224.4352 H   0  0  0  0  0  0  0  0  0  0  0  0
  139.5030   80.8164  224.8438 H   0  0  0  0  0  0  0  0  0  0  0  0
  138.2751   82.2569  223.1755 H   0  0  0  0  0  0  0  0  0  0  0  0
  137.2253   81.1880  221.2082 H   0  0  0  0  0  0  0  0  0  0  0  0
  137.3297   78.7678  220.8217 H   0  0  0  0  0  0  0  0  0  0  0  0
  141.8690   74.9867  220.4868 H   0  0  0  0  0  0  0  0  0  0  0  0
  140.4275   74.8024  219.5358 H   0  0  0  0  0  0  0  0  0  0  0  0
  141.9170   74.5679  217.2091 H   0  0  0  0  0  0  0  0  0  0  0  0
  143.1773   75.9464  215.5330 H   0  0  0  0  0  0  0  0  0  0  0  0
  143.8428   78.2679  216.1311 H   0  0  0  0  0  0  0  0  0  0  0  0
  143.2660   79.1980  218.3538 H   0  0  0  0  0  0  0  0  0  0  0  0
  142.4936   77.4169  221.2098 H   0  0  0  0  0  0  0  0  0  0  0  0
  140.2216   79.7622  219.0124 H   0  0  0  0  0  0  0  0  0  0  0  0
  140.2420   82.0570  220.3310 H   0  0  0  0  0  0  0  0  0  0  0  0
  141.3163   82.9512  222.6615 H   0  0  0  0  0  0  0  0  0  0  0  0
  142.6815   82.3283  224.6293 H   0  0  0  0  0  0  0  0  0  0  0  0
  143.5458   79.9791  224.7880 H   0  0  0  0  0  0  0  0  0  0  0  0
  143.0248   78.3797  223.0049 H   0  0  0  0  0  0  0  0  0  0  0  0
  1  2  2  0
  2  3  2  0
  2  4  1  0
  4  5  1  0
  5  6  2  0
  6  7  1  0
  7  8  2  0
  8  9  1  0
  9 10  2  0
  2 11  1  0
 11 12  1  0
 12 13  1  0
 13 14  2  0
 14 15  1  0
 15 16  2  0
 16 17  1  0
 17 18  2  0
 18 19  1  0
 19 20  1  0
 20 21  2  0
 21 22  1  0
 22 23  1  0
 23 24  2  0
 24 25  1  0
 25 26  2  0
 26 27  1  0
 27 28  2  0
 10  5  1  0
 19 11  1  0
 28 20  1  0
 18 13  1  0
 28 23  1  0
  4 29  1  0
  4 30  1  0
  6 31  1  0
  7 32  1  0
  8 33  1  0
  9 34  1  0
 10 35  1  0
 12 36  1  0
 12 37  1  0
 14 38  1  0
 15 39  1  0
 16 40  1  0
 17 41  1  0
 19 42  1  1
 21 43  1  0
 22 44  1  0
 24 45  1  0
 25 46  1  0
 26 47  1  0
 27 48  1  0
M  END
>  <smiles>  (56) 
O=S(=O)(Cc1ccccc1)N1Cc2ccccc2C1c1c[nH]c2ccccc12

>  <score_type>  (56) 
oracle

>  <origin>  (56) 
autodockgpu

>  <m_score__min__energy>  (56) 
-8.3300000000000001

>  <m_primary>  (56) 
energy

>  <rmsd>  (56) 
4.055893803251589

>  <m_score__min__rmsd>  (56) 
4.055893803251589

>  <meeko>  (56) 
{"free_energy": -7.2, "intermolecular_energy": -8.39, "internal_energy": -2.62, "cluster_size": 26, "cluster_id": 4, "rank_in_cluster": 22}

>  <energy>  (56) 
-8.16

>  <cluster_rmsd>  (56) 
0.36

>  <cluster>  (56) 
1

$$$$

     RDKit          3D

 48 52  0  0  0  0  0  0  0  0999 V2000
  140.2820   74.8820  222.3130 O   0  0  0  0  0  0  0  0  0  0  0  0
  140.1710   76.3740  222.0780 S   0  0  0  0  0  0  0  0  0  0  0  0
  141.1030   77.0920  223.0050 O   0  0  0  0  0  0  0  0  0  0  0  0
  138.5310   76.9540  222.3620 C   0  0  0  0  0  0  0  0  0  0  0  0
  138.4680   78.4130  222.6100 C   0  0  0  0  0  0  0  0  0  0  0  0
  139.0570   79.0150  223.7050 C   0  0  0  0  0  0  0  0  0  0  0  0
  139.0160   80.3560  223.9620 C   0  0  0  0  0  0  0  0  0  0  0  0
  138.3330   81.1530  223.0530 C   0  0  0  0  0  0  0  0  0  0  0  0
  137.7390   80.5500  221.9500 C   0  0  0  0  0  0  0  0  0  0  0  0
  137.7910   79.2080  221.7090 C   0  0  0  0  0  0  0  0  0  0  0  0
  140.6450   76.7450  220.4610 N   0  0  0  0  0  0  0  0  0  0  0  0
  141.1880   75.5470  219.7990 C   0  0  0  0  0  0  0  0  0  0  0  0
  141.9130   76.1610  218.6620 C   0  0  0  0  0  0  0  0  0  0  0  0
  142.2250   75.6130  217.4260 C   0  0  0  0  0  0  0  0  0  0  0  0
  142.9240   76.3840  216.5000 C   0  0  0  0  0  0  0  0  0  0  0  0
  143.2860   77.6720  216.8390 C   0  0  0  0  0  0  0  0  0  0  0  0
  142.9550   78.1870  218.0920 C   0  0  0  0  0  0  0  0  0  0  0  0
  142.2640   77.4440  219.0230 C   0  0  0  0  0  0  0  0  0  0  0  0
  141.7500   77.6420  220.4010 C   0  0  1  0  0  0  0  0  0  0  0  0
  141.4220   79.0600  220.6710 C   0  0  0  0  0  0  0  0  0  0  0  0
  140.6960   79.9710  219.9610 C   0  0  0  0  0  0  0  0  0  0  0  0
  140.6720   81.1620  220.5960 N   0  0  0  0  0  0  0  0  0  0  0  0
  141.3850   81.0210  221.7230 C   0  0  0  0  0  0  0  0  0  0  0  0
  141.6770   81.9260  222.7340 C   0  0  0  0  0  0  0  0  0  0  0  0
  142.4380   81.5910  223.8340 C   0  0  0  0  0  0  0  0  0  0  0  0
  142.9190   80.2980  223.9140 C   0  0  0  0  0  0  0  0  0  0  0  0
  142.6230   79.4100  222.9050 C   0  0  0  0  0  0  0  0  0  0  0  0
  141.8640   79.7290  221.8000 C   0  0  0  0  0  0  0  0  0  0  0  0
  137.9191   76.7220  221.4778 H   0  0  0  0  0  0  0  0  0  0  0  0
  138.1555   76.4502  223.2649 H   0  0  0  0  0  0  0  0  0  0  0  0
  139.5947   78.3718  224.4172 H   0  0  0  0  0  0  0  0  0  0  0  0
  139.5027   80.7856  224.8500 H   0  0  0  0  0  0  0  0  0  0  0  0
  138.2632   82.2405  223.2027 H   0  0  0  0  0  0  0  0  0  0  0  0
  137.1992   81.1878  221.2346 H   0  0  0  0  0  0  0  0  0  0  0  0
  137.3071   78.7729  220.8221 H   0  0  0  0  0  0  0  0  0  0  0  0
  141.8692   74.9925  220.4612 H   0  0  0  0  0  0  0  0  0  0  0  0
  140.4298   74.8051  219.5078 H   0  0  0  0  0  0  0  0  0  0  0  0
  141.9245   74.5837  217.1807 H   0  0  0  0  0  0  0  0  0  0  0  0
  143.1835   75.9725  215.5134 H   0  0  0  0  0  0  0  0  0  0  0  0
  143.8373   78.2942  216.1186 H   0  0  0  0  0  0  0  0  0  0  0  0
  143.2542   79.2152  218.3436 H   0  0  0  0  0  0  0  0  0  0  0  0
  142.4818   77.4230  221.1925 H   0  0  0  0  0  0  0  0  0  0  0  0
  140.1983   79.7635  219.0023 H   0  0  0  0  0  0  0  0  0  0  0  0
  140.2110   82.0560  220.3240 H   0  0  0  0  0  0  0  0  0  0  0  0
  141.2859   82.9510  222.6546 H   0  0  0  0  0  0  0  0  0  0  0  0
  142.6549   82.3281  224.6212 H   0  0  0  0  0  0  0  0  0  0  0  0
  143.5302   79.9827  224.7725 H   0  0  0  0  0  0  0  0  0  0  0  0
  143.0153   78.3855  222.9854 H   0  0  0  0  0  0  0  0  0  0  0  0
  1  2  2  0
  2  3  2  0
  2  4  1  0
  4  5  1  0
  5  6  2  0
  6  7  1  0
  7  8  2  0
  8  9  1  0
  9 10  2  0
  2 11  1  0
 11 12  1  0
 12 13  1  0
 13 14  2  0
 14 15  1  0
 15 16  2  0
 16 17  1  0
 17 18  2  0
 18 19  1  0
 19 20  1  0
 20 21  2  0
 21 22  1  0
 22 23  1  0
 23 24  2  0
 24 25  1  0
 25 26  2  0
 26 27  1  0
 27 28  2  0
 10  5  1  0
 19 11  1  0
 28 20  1  0
 18 13  1  0
 28 23  1  0
  4 29  1  0
  4 30  1  0
  6 31  1  0
  7 32  1  0
  8 33  1  0
  9 34  1  0
 10 35  1  0
 12 36  1  0
 12 37  1  0
 14 38  1  0
 15 39  1  0
 16 40  1  0
 17 41  1  0
 19 42  1  1
 21 43  1  0
 22 44  1  0
 24 45  1  0
 25 46  1  0
 26 47  1  0
 27 48  1  0
M  END
>  <smiles>  (57) 
O=S(=O)(Cc1ccccc1)N1Cc2ccccc2C1c1c[nH]c2ccccc12

>  <score_type>  (57) 
oracle

>  <origin>  (57) 
autodockgpu

>  <m_score__min__energy>  (57) 
-8.3300000000000001

>  <m_primary>  (57) 
energy

>  <rmsd>  (57) 
4.054484936600231

>  <m_score__min__rmsd>  (57) 
4.054484936600231

>  <meeko>  (57) 
{"free_energy": -7.2, "intermolecular_energy": -8.39, "internal_energy": -2.62, "cluster_size": 26, "cluster_id": 4, "rank_in_cluster": 23}

>  <energy>  (57) 
-8.15

>  <cluster_rmsd>  (57) 
0.36

>  <cluster>  (57) 
1

$$$$

     RDKit          3D

 48 52  0  0  0  0  0  0  0  0999 V2000
  140.2900   74.8810  222.3310 O   0  0  0  0  0  0  0  0  0  0  0  0
  140.1770   76.3720  222.0910 S   0  0  0  0  0  0  0  0  0  0  0  0
  141.1100   77.0940  223.0150 O   0  0  0  0  0  0  0  0  0  0  0  0
  138.5370   76.9510  222.3770 C   0  0  0  0  0  0  0  0  0  0  0  0
  138.4730   78.4110  222.6210 C   0  0  0  0  0  0  0  0  0  0  0  0
  139.0590   79.0160  223.7160 C   0  0  0  0  0  0  0  0  0  0  0  0
  139.0170   80.3570  223.9690 C   0  0  0  0  0  0  0  0  0  0  0  0
  138.3360   81.1520  223.0570 C   0  0  0  0  0  0  0  0  0  0  0  0
  137.7440   80.5460  221.9540 C   0  0  0  0  0  0  0  0  0  0  0  0
  137.7970   79.2030  221.7170 C   0  0  0  0  0  0  0  0  0  0  0  0
  140.6480   76.7390  220.4730 N   0  0  0  0  0  0  0  0  0  0  0  0
  141.1890   75.5390  219.8130 C   0  0  0  0  0  0  0  0  0  0  0  0
  141.9120   76.1510  218.6730 C   0  0  0  0  0  0  0  0  0  0  0  0
  142.2210   75.5990  217.4380 C   0  0  0  0  0  0  0  0  0  0  0  0
  142.9180   76.3680  216.5080 C   0  0  0  0  0  0  0  0  0  0  0  0
  143.2810   77.6560  216.8430 C   0  0  0  0  0  0  0  0  0  0  0  0
  142.9530   78.1750  218.0950 C   0  0  0  0  0  0  0  0  0  0  0  0
  142.2640   77.4340  219.0300 C   0  0  0  0  0  0  0  0  0  0  0  0
  141.7530   77.6360  220.4080 C   0  0  1  0  0  0  0  0  0  0  0  0
  141.4250   79.0540  220.6750 C   0  0  0  0  0  0  0  0  0  0  0  0
  140.7040   79.9660  219.9620 C   0  0  0  0  0  0  0  0  0  0  0  0
  140.6790   81.1570  220.5960 N   0  0  0  0  0  0  0  0  0  0  0  0
  141.3880   81.0170  221.7250 C   0  0  0  0  0  0  0  0  0  0  0  0
  141.6770   81.9220  222.7370 C   0  0  0  0  0  0  0  0  0  0  0  0
  142.4330   81.5880  223.8400 C   0  0  0  0  0  0  0  0  0  0  0  0
  142.9120   80.2950  223.9230 C   0  0  0  0  0  0  0  0  0  0  0  0
  142.6190   79.4050  222.9140 C   0  0  0  0  0  0  0  0  0  0  0  0
  141.8650   79.7240  221.8050 C   0  0  0  0  0  0  0  0  0  0  0  0
  137.9234   76.7158  221.4949 H   0  0  0  0  0  0  0  0  0  0  0  0
  138.1641   76.4494  223.2821 H   0  0  0  0  0  0  0  0  0  0  0  0
  139.5949   78.3749  224.4314 H   0  0  0  0  0  0  0  0  0  0  0  0
  139.5017   80.7889  224.8570 H   0  0  0  0  0  0  0  0  0  0  0  0
  138.2660   82.2399  223.2039 H   0  0  0  0  0  0  0  0  0  0  0  0
  137.2055   81.1817  221.2358 H   0  0  0  0  0  0  0  0  0  0  0  0
  137.3145   78.7651  220.8307 H   0  0  0  0  0  0  0  0  0  0  0  0
  141.8713   74.9858  220.4751 H   0  0  0  0  0  0  0  0  0  0  0  0
  140.4302   74.7964  219.5252 H   0  0  0  0  0  0  0  0  0  0  0  0
  141.9200   74.5689  217.1965 H   0  0  0  0  0  0  0  0  0  0  0  0
  143.1748   75.9542  215.5217 H   0  0  0  0  0  0  0  0  0  0  0  0
  143.8312   78.2759  216.1198 H   0  0  0  0  0  0  0  0  0  0  0  0
  143.2525   79.2040  218.3428 H   0  0  0  0  0  0  0  0  0  0  0  0
  142.4870   77.4195  221.1982 H   0  0  0  0  0  0  0  0  0  0  0  0
  140.2102   79.7590  219.0011 H   0  0  0  0  0  0  0  0  0  0  0  0
  140.2200   82.0520  220.3210 H   0  0  0  0  0  0  0  0  0  0  0  0
  141.2869   82.9473  222.6554 H   0  0  0  0  0  0  0  0  0  0  0  0
  142.6476   82.3258  224.6272 H   0  0  0  0  0  0  0  0  0  0  0  0
  143.5198   79.9804  224.7842 H   0  0  0  0  0  0  0  0  0  0  0  0
  143.0093   78.3800  222.9978 H   0  0  0  0  0  0  0  0  0  0  0  0
  1  2  2  0
  2  3  2  0
  2  4  1  0
  4  5  1  0
  5  6  2  0
  6  7  1  0
  7  8  2  0
  8  9  1  0
  9 10  2  0
  2 11  1  0
 11 12  1  0
 12 13  1  0
 13 14  2  0
 14 15  1  0
 15 16  2  0
 16 17  1  0
 17 18  2  0
 18 19  1  0
 19 20  1  0
 20 21  2  0
 21 22  1  0
 22 23  1  0
 23 24  2  0
 24 25  1  0
 25 26  2  0
 26 27  1  0
 27 28  2  0
 10  5  1  0
 19 11  1  0
 28 20  1  0
 18 13  1  0
 28 23  1  0
  4 29  1  0
  4 30  1  0
  6 31  1  0
  7 32  1  0
  8 33  1  0
  9 34  1  0
 10 35  1  0
 12 36  1  0
 12 37  1  0
 14 38  1  0
 15 39  1  0
 16 40  1  0
 17 41  1  0
 19 42  1  1
 21 43  1  0
 22 44  1  0
 24 45  1  0
 25 46  1  0
 26 47  1  0
 27 48  1  0
M  END
>  <smiles>  (58) 
O=S(=O)(Cc1ccccc1)N1Cc2ccccc2C1c1c[nH]c2ccccc12

>  <score_type>  (58) 
oracle

>  <origin>  (58) 
autodockgpu

>  <m_score__min__energy>  (58) 
-8.3300000000000001

>  <m_primary>  (58) 
energy

>  <rmsd>  (58) 
4.052457796747341

>  <m_score__min__rmsd>  (58) 
4.052457796747341

>  <meeko>  (58) 
{"free_energy": -7.2, "intermolecular_energy": -8.4, "internal_energy": -2.61, "cluster_size": 26, "cluster_id": 4, "rank_in_cluster": 11}

>  <energy>  (58) 
-8.14

>  <cluster_rmsd>  (58) 
0.7

>  <cluster>  (58) 
1

$$$$

     RDKit          3D

 48 52  0  0  0  0  0  0  0  0999 V2000
  134.6050   70.3080  223.4110 O   0  0  0  0  0  0  0  0  0  0  0  0
  135.6360   69.9740  224.4690 S   0  0  0  0  0  0  0  0  0  0  0  0
  136.0080   68.5270  224.3580 O   0  0  0  0  0  0  0  0  0  0  0  0
  135.0210   70.2780  226.0930 C   0  0  0  0  0  0  0  0  0  0  0  0
  134.2970   71.5650  226.2060 C   0  0  0  0  0  0  0  0  0  0  0  0
  134.5980   72.6670  225.4300 C   0  0  0  0  0  0  0  0  0  0  0  0
  133.9500   73.8670  225.5110 C   0  0  0  0  0  0  0  0  0  0  0  0
  132.9230   73.9690  226.4410 C   0  0  0  0  0  0  0  0  0  0  0  0
  132.6170   72.8610  227.2240 C   0  0  0  0  0  0  0  0  0  0  0  0
  133.2760   71.6700  227.1280 C   0  0  0  0  0  0  0  0  0  0  0  0
  137.0640   70.9070  224.2060 N   0  0  0  0  0  0  0  0  0  0  0  0
  136.9320   71.7090  222.9780 C   0  0  0  0  0  0  0  0  0  0  0  0
  138.3500   72.0480  222.7130 C   0  0  0  0  0  0  0  0  0  0  0  0
  138.8750   73.1340  222.0270 C   0  0  0  0  0  0  0  0  0  0  0  0
  140.2570   73.2500  221.8980 C   0  0  0  0  0  0  0  0  0  0  0  0
  141.0650   72.2800  222.4570 C   0  0  0  0  0  0  0  0  0  0  0  0
  140.4990   71.2030  223.1380 C   0  0  0  0  0  0  0  0  0  0  0  0
  139.1360   71.0680  223.2790 C   0  0  0  0  0  0  0  0  0  0  0  0
  138.2040   70.1030  223.9120 C   0  0  1  0  0  0  0  0  0  0  0  0
  138.8130   69.4300  225.0810 C   0  0  0  0  0  0  0  0  0  0  0  0
  138.7970   68.1270  225.4850 C   0  0  0  0  0  0  0  0  0  0  0  0
  139.4890   67.9740  226.6330 N   0  0  0  0  0  0  0  0  0  0  0  0
  139.9560   69.1840  226.9760 C   0  0  0  0  0  0  0  0  0  0  0  0
  140.7240   69.5900  228.0570 C   0  0  0  0  0  0  0  0  0  0  0  0
  141.1140   70.8990  228.2420 C   0  0  0  0  0  0  0  0  0  0  0  0
  140.7140   71.8290  227.3010 C   0  0  0  0  0  0  0  0  0  0  0  0
  139.9520   71.4140  226.2320 C   0  0  0  0  0  0  0  0  0  0  0  0
  139.5540   70.1090  226.0340 C   0  0  0  0  0  0  0  0  0  0  0  0
  134.3333   69.4638  226.3655 H   0  0  0  0  0  0  0  0  0  0  0  0
  135.8873   70.3273  226.7691 H   0  0  0  0  0  0  0  0  0  0  0  0
  135.4137   72.5723  224.6981 H   0  0  0  0  0  0  0  0  0  0  0  0
  134.2291   74.7149  224.8683 H   0  0  0  0  0  0  0  0  0  0  0  0
  132.3624   74.9084  226.5559 H   0  0  0  0  0  0  0  0  0  0  0  0
  131.8024   72.9493  227.9579 H   0  0  0  0  0  0  0  0  0  0  0  0
  133.0011   70.8181  227.7673 H   0  0  0  0  0  0  0  0  0  0  0  0
  136.4959   71.1221  222.1563 H   0  0  0  0  0  0  0  0  0  0  0  0
  136.2660   72.5793  223.0722 H   0  0  0  0  0  0  0  0  0  0  0  0
  138.2088   73.8930  221.5910 H   0  0  0  0  0  0  0  0  0  0  0  0
  140.6980   74.1015  221.3590 H   0  0  0  0  0  0  0  0  0  0  0  0
  142.1584   72.3571  222.3648 H   0  0  0  0  0  0  0  0  0  0  0  0
  141.1598   70.4398  223.5748 H   0  0  0  0  0  0  0  0  0  0  0  0
  137.9343   69.2496  223.2725 H   0  0  0  0  0  0  0  0  0  0  0  0
  138.2892   67.3123  224.9480 H   0  0  0  0  0  0  0  0  0  0  0  0
  139.6670   67.1170  227.1980 H   0  0  0  0  0  0  0  0  0  0  0  0
  141.0344   68.8371  228.7965 H   0  0  0  0  0  0  0  0  0  0  0  0
  141.7231   71.1936  229.1093 H   0  0  0  0  0  0  0  0  0  0  0  0
  141.0005   72.8860  227.4047 H   0  0  0  0  0  0  0  0  0  0  0  0
  139.6427   72.1676  225.4928 H   0  0  0  0  0  0  0  0  0  0  0  0
  1  2  2  0
  2  3  2  0
  2  4  1  0
  4  5  1  0
  5  6  2  0
  6  7  1  0
  7  8  2  0
  8  9  1  0
  9 10  2  0
  2 11  1  0
 11 12  1  0
 12 13  1  0
 13 14  2  0
 14 15  1  0
 15 16  2  0
 16 17  1  0
 17 18  2  0
 18 19  1  0
 19 20  1  0
 20 21  2  0
 21 22  1  0
 22 23  1  0
 23 24  2  0
 24 25  1  0
 25 26  2  0
 26 27  1  0
 27 28  2  0
 10  5  1  0
 19 11  1  0
 28 20  1  0
 18 13  1  0
 28 23  1  0
  4 29  1  0
  4 30  1  0
  6 31  1  0
  7 32  1  0
  8 33  1  0
  9 34  1  0
 10 35  1  0
 12 36  1  0
 12 37  1  0
 14 38  1  0
 15 39  1  0
 16 40  1  0
 17 41  1  0
 19 42  1  6
 21 43  1  0
 22 44  1  0
 24 45  1  0
 25 46  1  0
 26 47  1  0
 27 48  1  0
M  END
>  <smiles>  (59) 
O=S(=O)(Cc1ccccc1)N1Cc2ccccc2C1c1c[nH]c2ccccc12

>  <score_type>  (59) 
oracle

>  <origin>  (59) 
autodockgpu

>  <m_score__min__energy>  (59) 
-8.3300000000000001

>  <m_primary>  (59) 
energy

>  <rmsd>  (59) 
10.19924647741194

>  <m_score__min__rmsd>  (59) 
10.19924647741194

>  <meeko>  (59) 
{"free_energy": -8.12, "intermolecular_energy": -9.31, "internal_energy": -1.72, "cluster_size": 13, "cluster_id": 1, "rank_in_cluster": 10}

>  <energy>  (59) 
-8.12

>  <cluster_rmsd>  (59) 
0.7

>  <cluster>  (59) 
1

$$$$

     RDKit          3D

 48 52  0  0  0  0  0  0  0  0999 V2000
  139.2670   78.4140  219.9130 O   0  0  0  0  0  0  0  0  0  0  0  0
  139.1760   77.0620  220.5880 S   0  0  0  0  0  0  0  0  0  0  0  0
  137.9120   76.3800  220.1600 O   0  0  0  0  0  0  0  0  0  0  0  0
  139.1700   77.2140  222.3440 C   0  0  0  0  0  0  0  0  0  0  0  0
  140.0490   78.3000  222.8340 C   0  0  0  0  0  0  0  0  0  0  0  0
  139.6020   79.5890  223.0500 C   0  0  0  0  0  0  0  0  0  0  0  0
  140.3880   80.6120  223.5000 C   0  0  0  0  0  0  0  0  0  0  0  0
  141.7220   80.3210  223.7510 C   0  0  0  0  0  0  0  0  0  0  0  0
  142.1760   79.0240  223.5350 C   0  0  0  0  0  0  0  0  0  0  0  0
  141.3750   78.0150  223.0850 C   0  0  0  0  0  0  0  0  0  0  0  0
  140.5010   76.0740  220.0960 N   0  0  0  0  0  0  0  0  0  0  0  0
  140.6620   74.9360  221.0160 C   0  0  0  0  0  0  0  0  0  0  0  0
  142.0450   74.5120  220.6980 C   0  0  0  0  0  0  0  0  0  0  0  0
  142.6290   73.2620  220.8350 C   0  0  0  0  0  0  0  0  0  0  0  0
  143.9630   73.0920  220.4700 C   0  0  0  0  0  0  0  0  0  0  0  0
  144.6640   74.1750  219.9800 C   0  0  0  0  0  0  0  0  0  0  0  0
  144.0420   75.4170  219.8570 C   0  0  0  0  0  0  0  0  0  0  0  0
  142.7250   75.6070  220.2110 C   0  0  0  0  0  0  0  0  0  0  0  0
  141.7590   76.7330  220.2190 C   0  0  1  0  0  0  0  0  0  0  0  0
  142.0530   77.7230  219.1590 C   0  0  0  0  0  0  0  0  0  0  0  0
  142.4960   77.5730  217.8780 C   0  0  0  0  0  0  0  0  0  0  0  0
  142.6350   78.7730  217.2770 N   0  0  0  0  0  0  0  0  0  0  0  0
  142.2810   79.7060  218.1730 C   0  0  0  0  0  0  0  0  0  0  0  0
  142.2360   81.0900  218.0760 C   0  0  0  0  0  0  0  0  0  0  0  0
  141.8370   81.8950  219.1220 C   0  0  0  0  0  0  0  0  0  0  0  0
  141.4690   81.2800  220.3030 C   0  0  0  0  0  0  0  0  0  0  0  0
  141.5170   79.9070  220.3860 C   0  0  0  0  0  0  0  0  0  0  0  0
  141.9140   79.0890  219.3510 C   0  0  0  0  0  0  0  0  0  0  0  0
  138.1412   77.4198  222.6744 H   0  0  0  0  0  0  0  0  0  0  0  0
  139.5530   76.2692  222.7572 H   0  0  0  0  0  0  0  0  0  0  0  0
  138.5431   79.8063  222.8462 H   0  0  0  0  0  0  0  0  0  0  0  0
  139.9815   81.6221  223.6566 H   0  0  0  0  0  0  0  0  0  0  0  0
  142.4071   81.1014  224.1139 H   0  0  0  0  0  0  0  0  0  0  0  0
  143.2339   78.8005  223.7371 H   0  0  0  0  0  0  0  0  0  0  0  0
  141.7756   77.0028  222.9269 H   0  0  0  0  0  0  0  0  0  0  0  0
  140.5663   75.2485  222.0663 H   0  0  0  0  0  0  0  0  0  0  0  0
  139.9060   74.1458  220.8979 H   0  0  0  0  0  0  0  0  0  0  0  0
  142.0466   72.4151  221.2269 H   0  0  0  0  0  0  0  0  0  0  0  0
  144.4494   72.1105  220.5708 H   0  0  0  0  0  0  0  0  0  0  0  0
  145.7173   74.0581  219.6853 H   0  0  0  0  0  0  0  0  0  0  0  0
  144.6192   76.2681  219.4665 H   0  0  0  0  0  0  0  0  0  0  0  0
  141.7958   77.3534  221.1266 H   0  0  0  0  0  0  0  0  0  0  0  0
  142.7107   76.6058  217.4000 H   0  0  0  0  0  0  0  0  0  0  0  0
  142.9500   79.0050  216.3110 H   0  0  0  0  0  0  0  0  0  0  0  0
  142.5301   81.5631  217.1275 H   0  0  0  0  0  0  0  0  0  0  0  0
  141.8126   82.9899  219.0195 H   0  0  0  0  0  0  0  0  0  0  0  0
  141.1420   81.8795  221.1654 H   0  0  0  0  0  0  0  0  0  0  0  0
  141.2210   79.4351  221.3345 H   0  0  0  0  0  0  0  0  0  0  0  0
  1  2  2  0
  2  3  2  0
  2  4  1  0
  4  5  1  0
  5  6  2  0
  6  7  1  0
  7  8  2  0
  8  9  1  0
  9 10  2  0
  2 11  1  0
 11 12  1  0
 12 13  1  0
 13 14  2  0
 14 15  1  0
 15 16  2  0
 16 17  1  0
 17 18  2  0
 18 19  1  0
 19 20  1  0
 20 21  2  0
 21 22  1  0
 22 23  1  0
 23 24  2  0
 24 25  1  0
 25 26  2  0
 26 27  1  0
 27 28  2  0
 10  5  1  0
 19 11  1  0
 28 20  1  0
 18 13  1  0
 28 23  1  0
  4 29  1  0
  4 30  1  0
  6 31  1  0
  7 32  1  0
  8 33  1  0
  9 34  1  0
 10 35  1  0
 12 36  1  0
 12 37  1  0
 14 38  1  0
 15 39  1  0
 16 40  1  0
 17 41  1  0
 19 42  1  1
 21 43  1  0
 22 44  1  0
 24 45  1  0
 25 46  1  0
 26 47  1  0
 27 48  1  0
M  END
>  <smiles>  (60) 
O=S(=O)(Cc1ccccc1)N1Cc2ccccc2C1c1c[nH]c2ccccc12

>  <score_type>  (60) 
oracle

>  <origin>  (60) 
autodockgpu

>  <m_score__min__energy>  (60) 
-8.3300000000000001

>  <m_primary>  (60) 
energy

>  <rmsd>  (60) 
4.507813182987361

>  <m_score__min__rmsd>  (60) 
4.507813182987361

>  <meeko>  (60) 
{"free_energy": -7.55, "intermolecular_energy": -8.74, "internal_energy": -2.23, "cluster_size": 7, "cluster_id": 2, "rank_in_cluster": 1}

>  <energy>  (60) 
-8.12

>  <cluster_rmsd>  (60) 
0.7

>  <cluster>  (60) 
1

$$$$

     RDKit          3D

 48 52  0  0  0  0  0  0  0  0999 V2000
  135.7070   68.6980  223.9850 O   0  0  0  0  0  0  0  0  0  0  0  0
  135.6430   70.0650  224.6340 S   0  0  0  0  0  0  0  0  0  0  0  0
  135.5520   69.9030  226.1210 O   0  0  0  0  0  0  0  0  0  0  0  0
  134.2440   70.9820  224.0780 C   0  0  0  0  0  0  0  0  0  0  0  0
  133.9590   72.1680  224.9180 C   0  0  0  0  0  0  0  0  0  0  0  0
  133.1120   72.1310  226.0090 C   0  0  0  0  0  0  0  0  0  0  0  0
  132.8280   73.2070  226.8010 C   0  0  0  0  0  0  0  0  0  0  0  0
  133.4380   74.4110  226.4740 C   0  0  0  0  0  0  0  0  0  0  0  0
  134.2910   74.4520  225.3770 C   0  0  0  0  0  0  0  0  0  0  0  0
  134.5630   73.3660  224.5970 C   0  0  0  0  0  0  0  0  0  0  0  0
  137.0870   70.9430  224.2870 N   0  0  0  0  0  0  0  0  0  0  0  0
  136.9250   71.7270  223.0510 C   0  0  0  0  0  0  0  0  0  0  0  0
  138.3400   72.0120  222.7140 C   0  0  0  0  0  0  0  0  0  0  0  0
  138.8680   73.0660  221.9830 C   0  0  0  0  0  0  0  0  0  0  0  0
  140.2460   73.1320  221.7880 C   0  0  0  0  0  0  0  0  0  0  0  0
  141.0460   72.1450  222.3280 C   0  0  0  0  0  0  0  0  0  0  0  0
  140.4770   71.1010  223.0560 C   0  0  0  0  0  0  0  0  0  0  0  0
  139.1180   71.0160  223.2620 C   0  0  0  0  0  0  0  0  0  0  0  0
  138.1840   70.0950  223.9570 C   0  0  1  0  0  0  0  0  0  0  0  0
  138.8240   69.4230  225.1090 C   0  0  0  0  0  0  0  0  0  0  0  0
  138.8320   68.1180  225.5060 C   0  0  0  0  0  0  0  0  0  0  0  0
  139.5480   67.9660  226.6390 N   0  0  0  0  0  0  0  0  0  0  0  0
  140.0070   69.1800  226.9800 C   0  0  0  0  0  0  0  0  0  0  0  0
  140.7920   69.5890  228.0480 C   0  0  0  0  0  0  0  0  0  0  0  0
  141.1700   70.9020  228.2330 C   0  0  0  0  0  0  0  0  0  0  0  0
  140.7410   71.8310  227.3060 C   0  0  0  0  0  0  0  0  0  0  0  0
  139.9620   71.4130  226.2500 C   0  0  0  0  0  0  0  0  0  0  0  0
  139.5770   70.1050  226.0510 C   0  0  0  0  0  0  0  0  0  0  0  0
  134.4325   71.3190  223.0480 H   0  0  0  0  0  0  0  0  0  0  0  0
  133.3695   70.3176  224.1389 H   0  0  0  0  0  0  0  0  0  0  0  0
  132.6347   71.1713  226.2562 H   0  0  0  0  0  0  0  0  0  0  0  0
  132.1461   73.1235  227.6601 H   0  0  0  0  0  0  0  0  0  0  0  0
  133.2498   75.3151  227.0717 H   0  0  0  0  0  0  0  0  0  0  0  0
  134.7713   75.4090  225.1249 H   0  0  0  0  0  0  0  0  0  0  0  0
  135.2444   73.4435  223.7369 H   0  0  0  0  0  0  0  0  0  0  0  0
  136.4313   71.1409  222.2619 H   0  0  0  0  0  0  0  0  0  0  0  0
  136.2940   72.6215  223.1590 H   0  0  0  0  0  0  0  0  0  0  0  0
  138.2078   73.8392  221.5630 H   0  0  0  0  0  0  0  0  0  0  0  0
  140.6897   73.9579  221.2126 H   0  0  0  0  0  0  0  0  0  0  0  0
  142.1358   72.1824  222.1834 H   0  0  0  0  0  0  0  0  0  0  0  0
  141.1315   70.3238  223.4774 H   0  0  0  0  0  0  0  0  0  0  0  0
  137.8558   69.2398  223.3479 H   0  0  0  0  0  0  0  0  0  0  0  0
  138.3234   67.3003  224.9742 H   0  0  0  0  0  0  0  0  0  0  0  0
  139.7480   67.1080  227.1960 H   0  0  0  0  0  0  0  0  0  0  0  0
  141.1263   68.8357  228.7765 H   0  0  0  0  0  0  0  0  0  0  0  0
  141.7922   71.1993  229.0900 H   0  0  0  0  0  0  0  0  0  0  0  0
  141.0177   72.8906  227.4095 H   0  0  0  0  0  0  0  0  0  0  0  0
  139.6276   72.1675  225.5228 H   0  0  0  0  0  0  0  0  0  0  0  0
  1  2  2  0
  2  3  2  0
  2  4  1  0
  4  5  1  0
  5  6  2  0
  6  7  1  0
  7  8  2  0
  8  9  1  0
  9 10  2  0
  2 11  1  0
 11 12  1  0
 12 13  1  0
 13 14  2  0
 14 15  1  0
 15 16  2  0
 16 17  1  0
 17 18  2  0
 18 19  1  0
 19 20  1  0
 20 21  2  0
 21 22  1  0
 22 23  1  0
 23 24  2  0
 24 25  1  0
 25 26  2  0
 26 27  1  0
 27 28  2  0
 10  5  1  0
 19 11  1  0
 28 20  1  0
 18 13  1  0
 28 23  1  0
  4 29  1  0
  4 30  1  0
  6 31  1  0
  7 32  1  0
  8 33  1  0
  9 34  1  0
 10 35  1  0
 12 36  1  0
 12 37  1  0
 14 38  1  0
 15 39  1  0
 16 40  1  0
 17 41  1  0
 19 42  1  6
 21 43  1  0
 22 44  1  0
 24 45  1  0
 25 46  1  0
 26 47  1  0
 27 48  1  0
M  END
>  <smiles>  (61) 
O=S(=O)(Cc1ccccc1)N1Cc2ccccc2C1c1c[nH]c2ccccc12

>  <score_type>  (61) 
oracle

>  <origin>  (61) 
autodockgpu

>  <m_score__min__energy>  (61) 
-8.3300000000000001

>  <m_primary>  (61) 
energy

>  <rmsd>  (61) 
10.203250015829889

>  <m_score__min__rmsd>  (61) 
10.203250015829889

>  <meeko>  (61) 
{"free_energy": -8.16, "intermolecular_energy": -9.36, "internal_energy": -1.79, "cluster_size": 13, "cluster_id": 1, "rank_in_cluster": 6}

>  <energy>  (61) 
-8.12

>  <cluster_rmsd>  (61) 
0.7

>  <cluster>  (61) 
1

$$$$

     RDKit          3D

 48 52  0  0  0  0  0  0  0  0999 V2000
  140.2310   74.9440  222.3390 O   0  0  0  0  0  0  0  0  0  0  0  0
  140.1390   76.4360  222.0960 S   0  0  0  0  0  0  0  0  0  0  0  0
  141.0820   77.1470  223.0170 O   0  0  0  0  0  0  0  0  0  0  0  0
  138.5070   77.0390  222.3800 C   0  0  0  0  0  0  0  0  0  0  0  0
  138.4600   78.5050  222.5870 C   0  0  0  0  0  0  0  0  0  0  0  0
  137.8360   79.3680  221.7070 C   0  0  0  0  0  0  0  0  0  0  0  0
  137.7760   80.7230  221.8690 C   0  0  0  0  0  0  0  0  0  0  0  0
  138.3890   81.2520  222.9970 C   0  0  0  0  0  0  0  0  0  0  0  0
  139.0180   80.3870  223.8850 C   0  0  0  0  0  0  0  0  0  0  0  0
  139.0670   79.0350  223.7070 C   0  0  0  0  0  0  0  0  0  0  0  0
  140.6150   76.7920  220.4760 N   0  0  0  0  0  0  0  0  0  0  0  0
  141.1350   75.5830  219.8170 C   0  0  0  0  0  0  0  0  0  0  0  0
  141.8670   76.1790  218.6760 C   0  0  0  0  0  0  0  0  0  0  0  0
  142.1650   75.6210  217.4420 C   0  0  0  0  0  0  0  0  0  0  0  0
  142.8750   76.3760  216.5100 C   0  0  0  0  0  0  0  0  0  0  0  0
  143.2610   77.6590  216.8430 C   0  0  0  0  0  0  0  0  0  0  0  0
  142.9420   78.1840  218.0950 C   0  0  0  0  0  0  0  0  0  0  0  0
  142.2410   77.4570  219.0310 C   0  0  0  0  0  0  0  0  0  0  0  0
  141.7350   77.6700  220.4090 C   0  0  1  0  0  0  0  0  0  0  0  0
  141.4320   79.0940  220.6740 C   0  0  0  0  0  0  0  0  0  0  0  0
  140.7320   80.0190  219.9570 C   0  0  0  0  0  0  0  0  0  0  0  0
  140.7250   81.2100  220.5900 N   0  0  0  0  0  0  0  0  0  0  0  0
  141.4250   81.0570  221.7240 C   0  0  0  0  0  0  0  0  0  0  0  0
  141.7250   81.9570  222.7370 C   0  0  0  0  0  0  0  0  0  0  0  0
  142.4680   81.6090  223.8450 C   0  0  0  0  0  0  0  0  0  0  0  0
  142.9220   80.3070  223.9310 C   0  0  0  0  0  0  0  0  0  0  0  0
  142.6190   79.4240  222.9200 C   0  0  0  0  0  0  0  0  0  0  0  0
  141.8770   79.7560  221.8070 C   0  0  0  0  0  0  0  0  0  0  0  0
  137.8839   76.7877  221.5091 H   0  0  0  0  0  0  0  0  0  0  0  0
  138.1362   76.5645  223.3005 H   0  0  0  0  0  0  0  0  0  0  0  0
  137.3557   78.9354  220.8170 H   0  0  0  0  0  0  0  0  0  0  0  0
  137.2646   81.3667  221.1381 H   0  0  0  0  0  0  0  0  0  0  0  0
  138.3771   82.3358  223.1845 H   0  0  0  0  0  0  0  0  0  0  0  0
  139.5007   80.8141  224.7764 H   0  0  0  0  0  0  0  0  0  0  0  0
  139.5757   78.3864  224.4354 H   0  0  0  0  0  0  0  0  0  0  0  0
  141.8084   75.0192  220.4794 H   0  0  0  0  0  0  0  0  0  0  0  0
  140.3629   74.8537  219.5306 H   0  0  0  0  0  0  0  0  0  0  0  0
  141.8453   74.5962  217.2019 H   0  0  0  0  0  0  0  0  0  0  0  0
  143.1240   75.9560  215.5243 H   0  0  0  0  0  0  0  0  0  0  0  0
  143.8215   78.2686  216.1190 H   0  0  0  0  0  0  0  0  0  0  0  0
  143.2594   79.2079  218.3418 H   0  0  0  0  0  0  0  0  0  0  0  0
  142.4655   77.4424  221.1993 H   0  0  0  0  0  0  0  0  0  0  0  0
  140.2399   79.8207  218.9934 H   0  0  0  0  0  0  0  0  0  0  0  0
  140.2850   82.1130  220.3130 H   0  0  0  0  0  0  0  0  0  0  0  0
  141.3551   82.9895  222.6525 H   0  0  0  0  0  0  0  0  0  0  0  0
  142.6916   82.3427  224.6334 H   0  0  0  0  0  0  0  0  0  0  0  0
  143.5178   79.9805  224.7961 H   0  0  0  0  0  0  0  0  0  0  0  0
  142.9910   78.3923  223.0052 H   0  0  0  0  0  0  0  0  0  0  0  0
  1  2  2  0
  2  3  2  0
  2  4  1  0
  4  5  1  0
  5  6  2  0
  6  7  1  0
  7  8  2  0
  8  9  1  0
  9 10  2  0
  2 11  1  0
 11 12  1  0
 12 13  1  0
 13 14  2  0
 14 15  1  0
 15 16  2  0
 16 17  1  0
 17 18  2  0
 18 19  1  0
 19 20  1  0
 20 21  2  0
 21 22  1  0
 22 23  1  0
 23 24  2  0
 24 25  1  0
 25 26  2  0
 26 27  1  0
 27 28  2  0
 10  5  1  0
 19 11  1  0
 28 20  1  0
 18 13  1  0
 28 23  1  0
  4 29  1  0
  4 30  1  0
  6 31  1  0
  7 32  1  0
  8 33  1  0
  9 34  1  0
 10 35  1  0
 12 36  1  0
 12 37  1  0
 14 38  1  0
 15 39  1  0
 16 40  1  0
 17 41  1  0
 19 42  1  1
 21 43  1  0
 22 44  1  0
 24 45  1  0
 25 46  1  0
 26 47  1  0
 27 48  1  0
M  END
>  <smiles>  (62) 
O=S(=O)(Cc1ccccc1)N1Cc2ccccc2C1c1c[nH]c2ccccc12

>  <score_type>  (62) 
oracle

>  <origin>  (62) 
autodockgpu

>  <m_score__min__energy>  (62) 
-8.3300000000000001

>  <m_primary>  (62) 
energy

>  <rmsd>  (62) 
4.035503749990761

>  <m_score__min__rmsd>  (62) 
4.035503749990761

>  <meeko>  (62) 
{"free_energy": -7.18, "intermolecular_energy": -8.38, "internal_energy": -2.58, "cluster_size": 26, "cluster_id": 4, "rank_in_cluster": 25}

>  <energy>  (62) 
-8.11

>  <cluster_rmsd>  (62) 
0.7

>  <cluster>  (62) 
1

$$$$

     RDKit          3D

 48 52  0  0  0  0  0  0  0  0999 V2000
  140.2400   74.8930  222.3310 O   0  0  0  0  0  0  0  0  0  0  0  0
  140.1460   76.3860  222.0910 S   0  0  0  0  0  0  0  0  0  0  0  0
  141.0890   77.0960  223.0140 O   0  0  0  0  0  0  0  0  0  0  0  0
  138.5140   76.9870  222.3760 C   0  0  0  0  0  0  0  0  0  0  0  0
  138.4700   78.4450  222.6320 C   0  0  0  0  0  0  0  0  0  0  0  0
  139.0680   79.0330  223.7300 C   0  0  0  0  0  0  0  0  0  0  0  0
  139.0450   80.3730  223.9940 C   0  0  0  0  0  0  0  0  0  0  0  0
  138.3710   81.1840  223.0900 C   0  0  0  0  0  0  0  0  0  0  0  0
  137.7680   80.5950  221.9840 C   0  0  0  0  0  0  0  0  0  0  0  0
  137.8020   79.2540  221.7370 C   0  0  0  0  0  0  0  0  0  0  0  0
  140.6220   76.7460  220.4720 N   0  0  0  0  0  0  0  0  0  0  0  0
  141.1560   75.5420  219.8150 C   0  0  0  0  0  0  0  0  0  0  0  0
  141.8850   76.1460  218.6750 C   0  0  0  0  0  0  0  0  0  0  0  0
  142.1910   75.5900  217.4420 C   0  0  0  0  0  0  0  0  0  0  0  0
  142.8950   76.3510  216.5110 C   0  0  0  0  0  0  0  0  0  0  0  0
  143.2670   77.6380  216.8450 C   0  0  0  0  0  0  0  0  0  0  0  0
  142.9410   78.1610  218.0950 C   0  0  0  0  0  0  0  0  0  0  0  0
  142.2450   77.4270  219.0300 C   0  0  0  0  0  0  0  0  0  0  0  0
  141.7340   77.6350  220.4080 C   0  0  1  0  0  0  0  0  0  0  0  0
  141.4160   79.0560  220.6710 C   0  0  0  0  0  0  0  0  0  0  0  0
  140.6990   79.9710  219.9570 C   0  0  0  0  0  0  0  0  0  0  0  0
  140.6840   81.1640  220.5880 N   0  0  0  0  0  0  0  0  0  0  0  0
  141.3950   81.0220  221.7160 C   0  0  0  0  0  0  0  0  0  0  0  0
  141.6920   81.9280  222.7240 C   0  0  0  0  0  0  0  0  0  0  0  0
  142.4490   81.5920  223.8260 C   0  0  0  0  0  0  0  0  0  0  0  0
  142.9200   80.2960  223.9120 C   0  0  0  0  0  0  0  0  0  0  0  0
  142.6180   79.4060  222.9060 C   0  0  0  0  0  0  0  0  0  0  0  0
  141.8630   79.7270  221.7990 C   0  0  0  0  0  0  0  0  0  0  0  0
  137.9003   76.7682  221.4898 H   0  0  0  0  0  0  0  0  0  0  0  0
  138.1308   76.4836  223.2758 H   0  0  0  0  0  0  0  0  0  0  0  0
  139.5975   78.3789  224.4383 H   0  0  0  0  0  0  0  0  0  0  0  0
  139.5386   80.7915  224.8835 H   0  0  0  0  0  0  0  0  0  0  0  0
  138.3153   82.2715  223.2460 H   0  0  0  0  0  0  0  0  0  0  0  0
  137.2365   81.2436  221.2720 H   0  0  0  0  0  0  0  0  0  0  0  0
  137.3105   78.8298  220.8490 H   0  0  0  0  0  0  0  0  0  0  0  0
  141.8335   74.9855  220.4793 H   0  0  0  0  0  0  0  0  0  0  0  0
  140.3924   74.8044  219.5271 H   0  0  0  0  0  0  0  0  0  0  0  0
  141.8821   74.5619  217.2021 H   0  0  0  0  0  0  0  0  0  0  0  0
  143.1503   75.9332  215.5260 H   0  0  0  0  0  0  0  0  0  0  0  0
  143.8228   78.2529  216.1218 H   0  0  0  0  0  0  0  0  0  0  0  0
  143.2479   79.1881  218.3417 H   0  0  0  0  0  0  0  0  0  0  0  0
  142.4647   77.4146  221.2002 H   0  0  0  0  0  0  0  0  0  0  0  0
  140.2011   79.7647  218.9981 H   0  0  0  0  0  0  0  0  0  0  0  0
  140.2300   82.0610  220.3120 H   0  0  0  0  0  0  0  0  0  0  0  0
  141.3081   82.9554  222.6405 H   0  0  0  0  0  0  0  0  0  0  0  0
  142.6706   82.3307  224.6103 H   0  0  0  0  0  0  0  0  0  0  0  0
  143.5279   79.9796  224.7724 H   0  0  0  0  0  0  0  0  0  0  0  0
  143.0018   78.3786  222.9909 H   0  0  0  0  0  0  0  0  0  0  0  0
  1  2  2  0
  2  3  2  0
  2  4  1  0
  4  5  1  0
  5  6  2  0
  6  7  1  0
  7  8  2  0
  8  9  1  0
  9 10  2  0
  2 11  1  0
 11 12  1  0
 12 13  1  0
 13 14  2  0
 14 15  1  0
 15 16  2  0
 16 17  1  0
 17 18  2  0
 18 19  1  0
 19 20  1  0
 20 21  2  0
 21 22  1  0
 22 23  1  0
 23 24  2  0
 24 25  1  0
 25 26  2  0
 26 27  1  0
 27 28  2  0
 10  5  1  0
 19 11  1  0
 28 20  1  0
 18 13  1  0
 28 23  1  0
  4 29  1  0
  4 30  1  0
  6 31  1  0
  7 32  1  0
  8 33  1  0
  9 34  1  0
 10 35  1  0
 12 36  1  0
 12 37  1  0
 14 38  1  0
 15 39  1  0
 16 40  1  0
 17 41  1  0
 19 42  1  1
 21 43  1  0
 22 44  1  0
 24 45  1  0
 25 46  1  0
 26 47  1  0
 27 48  1  0
M  END
>  <smiles>  (63) 
O=S(=O)(Cc1ccccc1)N1Cc2ccccc2C1c1c[nH]c2ccccc12

>  <score_type>  (63) 
oracle

>  <origin>  (63) 
autodockgpu

>  <m_score__min__energy>  (63) 
-8.3300000000000001

>  <m_primary>  (63) 
energy

>  <rmsd>  (63) 
4.044032259626838

>  <m_score__min__rmsd>  (63) 
4.044032259626838

>  <meeko>  (63) 
{"free_energy": -7.2, "intermolecular_energy": -8.39, "internal_energy": -2.62, "cluster_size": 26, "cluster_id": 4, "rank_in_cluster": 20}

>  <energy>  (63) 
-8.05

>  <cluster_rmsd>  (63) 
0.48

>  <cluster>  (63) 
1

$$$$

     RDKit          3D

 48 52  0  0  0  0  0  0  0  0999 V2000
  140.2400   74.8880  222.3360 O   0  0  0  0  0  0  0  0  0  0  0  0
  140.1370   76.3760  222.0750 S   0  0  0  0  0  0  0  0  0  0  0  0
  141.0670   77.1060  222.9960 O   0  0  0  0  0  0  0  0  0  0  0  0
  138.4980   76.9680  222.3400 C   0  0  0  0  0  0  0  0  0  0  0  0
  138.4410   78.4290  222.5740 C   0  0  0  0  0  0  0  0  0  0  0  0
  139.0530   79.0430  223.6500 C   0  0  0  0  0  0  0  0  0  0  0  0
  139.0180   80.3860  223.8930 C   0  0  0  0  0  0  0  0  0  0  0  0
  138.3170   81.1740  222.9900 C   0  0  0  0  0  0  0  0  0  0  0  0
  137.7000   80.5600  221.9060 C   0  0  0  0  0  0  0  0  0  0  0  0
  137.7460   79.2160  221.6780 C   0  0  0  0  0  0  0  0  0  0  0  0
  140.6220   76.7180  220.4550 N   0  0  0  0  0  0  0  0  0  0  0  0
  141.1760   75.5100  219.8210 C   0  0  0  0  0  0  0  0  0  0  0  0
  141.9080   76.1060  218.6780 C   0  0  0  0  0  0  0  0  0  0  0  0
  142.2310   75.5360  217.4560 C   0  0  0  0  0  0  0  0  0  0  0  0
  142.9340   76.2920  216.5200 C   0  0  0  0  0  0  0  0  0  0  0  0
  143.2870   77.5880  216.8370 C   0  0  0  0  0  0  0  0  0  0  0  0
  142.9440   78.1250  218.0770 C   0  0  0  0  0  0  0  0  0  0  0  0
  142.2490   77.3970  219.0170 C   0  0  0  0  0  0  0  0  0  0  0  0
  141.7240   77.6200  220.3870 C   0  0  1  0  0  0  0  0  0  0  0  0
  141.3860   79.0400  220.6260 C   0  0  0  0  0  0  0  0  0  0  0  0
  140.6610   79.9340  219.8930 C   0  0  0  0  0  0  0  0  0  0  0  0
  140.6270   81.1370  220.5050 N   0  0  0  0  0  0  0  0  0  0  0  0
  141.3320   81.0220  221.6400 C   0  0  0  0  0  0  0  0  0  0  0  0
  141.6120   81.9470  222.6350 C   0  0  0  0  0  0  0  0  0  0  0  0
  142.3660   81.6380  223.7470 C   0  0  0  0  0  0  0  0  0  0  0  0
  142.8530   80.3500  223.8560 C   0  0  0  0  0  0  0  0  0  0  0  0
  142.5690   79.4400  222.8620 C   0  0  0  0  0  0  0  0  0  0  0  0
  141.8170   79.7340  221.7450 C   0  0  0  0  0  0  0  0  0  0  0  0
  137.8921   76.7312  221.4529 H   0  0  0  0  0  0  0  0  0  0  0  0
  138.1124   76.4748  223.2444 H   0  0  0  0  0  0  0  0  0  0  0  0
  139.6051   78.4074  224.3579 H   0  0  0  0  0  0  0  0  0  0  0  0
  139.5232   80.8247  224.7662 H   0  0  0  0  0  0  0  0  0  0  0  0
  138.2511   82.2631  223.1296 H   0  0  0  0  0  0  0  0  0  0  0  0
  137.1459   81.1908  221.1953 H   0  0  0  0  0  0  0  0  0  0  0  0
  137.2439   78.7723  220.8056 H   0  0  0  0  0  0  0  0  0  0  0  0
  141.8542   74.9717  220.4994 H   0  0  0  0  0  0  0  0  0  0  0  0
  140.4239   74.7589  219.5379 H   0  0  0  0  0  0  0  0  0  0  0  0
  141.9363   74.5009  217.2284 H   0  0  0  0  0  0  0  0  0  0  0  0
  143.2034   75.8625  215.5438 H   0  0  0  0  0  0  0  0  0  0  0  0
  143.8407   78.1991  216.1090 H   0  0  0  0  0  0  0  0  0  0  0  0
  143.2367   79.1592  218.3111 H   0  0  0  0  0  0  0  0  0  0  0  0
  142.4510   77.4212  221.1883 H   0  0  0  0  0  0  0  0  0  0  0  0
  140.1713   79.7058  218.9348 H   0  0  0  0  0  0  0  0  0  0  0  0
  140.1630   82.0230  220.2120 H   0  0  0  0  0  0  0  0  0  0  0  0
  141.2165   82.9683  222.5326 H   0  0  0  0  0  0  0  0  0  0  0  0
  142.5728   82.3916  224.5212 H   0  0  0  0  0  0  0  0  0  0  0  0
  143.4595   80.0551  224.7250 H   0  0  0  0  0  0  0  0  0  0  0  0
  142.9654   78.4192  222.9656 H   0  0  0  0  0  0  0  0  0  0  0  0
  1  2  2  0
  2  3  2  0
  2  4  1  0
  4  5  1  0
  5  6  2  0
  6  7  1  0
  7  8  2  0
  8  9  1  0
  9 10  2  0
  2 11  1  0
 11 12  1  0
 12 13  1  0
 13 14  2  0
 14 15  1  0
 15 16  2  0
 16 17  1  0
 17 18  2  0
 18 19  1  0
 19 20  1  0
 20 21  2  0
 21 22  1  0
 22 23  1  0
 23 24  2  0
 24 25  1  0
 25 26  2  0
 26 27  1  0
 27 28  2  0
 10  5  1  0
 19 11  1  0
 28 20  1  0
 18 13  1  0
 28 23  1  0
  4 29  1  0
  4 30  1  0
  6 31  1  0
  7 32  1  0
  8 33  1  0
  9 34  1  0
 10 35  1  0
 12 36  1  0
 12 37  1  0
 14 38  1  0
 15 39  1  0
 16 40  1  0
 17 41  1  0
 19 42  1  1
 21 43  1  0
 22 44  1  0
 24 45  1  0
 25 46  1  0
 26 47  1  0
 27 48  1  0
M  END
>  <smiles>  (64) 
O=S(=O)(Cc1ccccc1)N1Cc2ccccc2C1c1c[nH]c2ccccc12

>  <score_type>  (64) 
oracle

>  <origin>  (64) 
autodockgpu

>  <m_score__min__energy>  (64) 
-8.3300000000000001

>  <m_primary>  (64) 
energy

>  <rmsd>  (64) 
4.026308019024517

>  <m_score__min__rmsd>  (64) 
4.026308019024517

>  <meeko>  (64) 
{"free_energy": -7.22, "intermolecular_energy": -8.41, "internal_energy": -2.6, "cluster_size": 26, "cluster_id": 4, "rank_in_cluster": 1}

>  <energy>  (64) 
-7.55

>  <cluster_rmsd>  (64) 
0.0

>  <cluster>  (64) 
2

$$$$

     RDKit          3D

 48 52  0  0  0  0  0  0  0  0999 V2000
  139.2590   78.3860  219.8610 O   0  0  0  0  0  0  0  0  0  0  0  0
  139.1650   77.0350  220.5380 S   0  0  0  0  0  0  0  0  0  0  0  0
  137.9160   76.3410  220.0880 O   0  0  0  0  0  0  0  0  0  0  0  0
  139.1250   77.1900  222.2930 C   0  0  0  0  0  0  0  0  0  0  0  0
  140.0050   78.2690  222.7990 C   0  0  0  0  0  0  0  0  0  0  0  0
  141.3440   78.0790  223.0760 C   0  0  0  0  0  0  0  0  0  0  0  0
  142.1810   79.0520  223.5440 C   0  0  0  0  0  0  0  0  0  0  0  0
  141.6320   80.3110  223.7500 C   0  0  0  0  0  0  0  0  0  0  0  0
  140.2840   80.5060  223.4730 C   0  0  0  0  0  0  0  0  0  0  0  0
  139.4630   79.5210  223.0050 C   0  0  0  0  0  0  0  0  0  0  0  0
  140.5080   76.0570  220.0730 N   0  0  0  0  0  0  0  0  0  0  0  0
  140.6610   74.9230  220.9990 C   0  0  0  0  0  0  0  0  0  0  0  0
  142.0540   74.5100  220.7080 C   0  0  0  0  0  0  0  0  0  0  0  0
  142.6460   73.2650  220.8600 C   0  0  0  0  0  0  0  0  0  0  0  0
  143.9870   73.1050  220.5190 C   0  0  0  0  0  0  0  0  0  0  0  0
  144.6890   74.1930  220.0400 C   0  0  0  0  0  0  0  0  0  0  0  0
  144.0580   75.4290  219.9020 C   0  0  0  0  0  0  0  0  0  0  0  0
  142.7340   75.6100  220.2310 C   0  0  0  0  0  0  0  0  0  0  0  0
  141.7570   76.7270  220.2180 C   0  0  1  0  0  0  0  0  0  0  0  0
  142.0630   77.7170  219.1610 C   0  0  0  0  0  0  0  0  0  0  0  0
  142.5260   77.5660  217.8870 C   0  0  0  0  0  0  0  0  0  0  0  0
  142.6680   78.7660  217.2850 N   0  0  0  0  0  0  0  0  0  0  0  0
  142.2970   79.6990  218.1740 C   0  0  0  0  0  0  0  0  0  0  0  0
  142.2470   81.0820  218.0750 C   0  0  0  0  0  0  0  0  0  0  0  0
  141.8290   81.8870  219.1130 C   0  0  0  0  0  0  0  0  0  0  0  0
  141.4470   81.2730  220.2900 C   0  0  0  0  0  0  0  0  0  0  0  0
  141.5000   79.9000  220.3760 C   0  0  0  0  0  0  0  0  0  0  0  0
  141.9160   79.0820  219.3480 C   0  0  0  0  0  0  0  0  0  0  0  0
  138.0918   77.4063  222.6023 H   0  0  0  0  0  0  0  0  0  0  0  0
  139.4902   76.2423  222.7154 H   0  0  0  0  0  0  0  0  0  0  0  0
  141.7653   77.0768  222.9086 H   0  0  0  0  0  0  0  0  0  0  0  0
  143.2423   78.8474  223.7485 H   0  0  0  0  0  0  0  0  0  0  0  0
  142.2523   81.1382  224.1253 H   0  0  0  0  0  0  0  0  0  0  0  0
  139.8567   81.5058  223.6395 H   0  0  0  0  0  0  0  0  0  0  0  0
  138.4010   79.7195  222.7983 H   0  0  0  0  0  0  0  0  0  0  0  0
  140.5428   75.2374  222.0465 H   0  0  0  0  0  0  0  0  0  0  0  0
  139.9140   74.1260  220.8690 H   0  0  0  0  0  0  0  0  0  0  0  0
  142.0639   72.4147  221.2450 H   0  0  0  0  0  0  0  0  0  0  0  0
  144.4789   72.1273  220.6296 H   0  0  0  0  0  0  0  0  0  0  0  0
  145.7489   74.0847  219.7664 H   0  0  0  0  0  0  0  0  0  0  0  0
  144.6351   76.2837  219.5192 H   0  0  0  0  0  0  0  0  0  0  0  0
  141.7700   77.3495  221.1248 H   0  0  0  0  0  0  0  0  0  0  0  0
  142.7527   76.5988  217.4146 H   0  0  0  0  0  0  0  0  0  0  0  0
  142.9970   78.9980  216.3240 H   0  0  0  0  0  0  0  0  0  0  0  0
  142.5532   81.5551  217.1303 H   0  0  0  0  0  0  0  0  0  0  0  0
  141.8006   82.9816  219.0076 H   0  0  0  0  0  0  0  0  0  0  0  0
  141.1053   81.8727  221.1465 H   0  0  0  0  0  0  0  0  0  0  0  0
  141.1922   79.4282  221.3208 H   0  0  0  0  0  0  0  0  0  0  0  0
  1  2  2  0
  2  3  2  0
  2  4  1  0
  4  5  1  0
  5  6  2  0
  6  7  1  0
  7  8  2  0
  8  9  1  0
  9 10  2  0
  2 11  1  0
 11 12  1  0
 12 13  1  0
 13 14  2  0
 14 15  1  0
 15 16  2  0
 16 17  1  0
 17 18  2  0
 18 19  1  0
 19 20  1  0
 20 21  2  0
 21 22  1  0
 22 23  1  0
 23 24  2  0
 24 25  1  0
 25 26  2  0
 26 27  1  0
 27 28  2  0
 10  5  1  0
 19 11  1  0
 28 20  1  0
 18 13  1  0
 28 23  1  0
  4 29  1  0
  4 30  1  0
  6 31  1  0
  7 32  1  0
  8 33  1  0
  9 34  1  0
 10 35  1  0
 12 36  1  0
 12 37  1  0
 14 38  1  0
 15 39  1  0
 16 40  1  0
 17 41  1  0
 19 42  1  1
 21 43  1  0
 22 44  1  0
 24 45  1  0
 25 46  1  0
 26 47  1  0
 27 48  1  0
M  END
>  <smiles>  (65) 
O=S(=O)(Cc1ccccc1)N1Cc2ccccc2C1c1c[nH]c2ccccc12

>  <score_type>  (65) 
oracle

>  <origin>  (65) 
autodockgpu

>  <m_score__min__energy>  (65) 
-8.3300000000000001

>  <m_primary>  (65) 
energy

>  <rmsd>  (65) 
4.520695712697072

>  <m_score__min__rmsd>  (65) 
4.520695712697072

>  <meeko>  (65) 
{"free_energy": -7.53, "intermolecular_energy": -8.72, "internal_energy": -2.25, "cluster_size": 7, "cluster_id": 2, "rank_in_cluster": 6}

>  <energy>  (65) 
-7.54

>  <cluster_rmsd>  (65) 
0.03

>  <cluster>  (65) 
2

$$$$

     RDKit          3D

 48 52  0  0  0  0  0  0  0  0999 V2000
  139.2660   78.4040  219.8880 O   0  0  0  0  0  0  0  0  0  0  0  0
  139.1720   77.0490  220.5570 S   0  0  0  0  0  0  0  0  0  0  0  0
  137.9190   76.3610  220.1070 O   0  0  0  0  0  0  0  0  0  0  0  0
  139.1380   77.1940  222.3130 C   0  0  0  0  0  0  0  0  0  0  0  0
  140.0210   78.2690  222.8230 C   0  0  0  0  0  0  0  0  0  0  0  0
  141.3580   78.0720  223.1060 C   0  0  0  0  0  0  0  0  0  0  0  0
  142.1970   79.0420  223.5770 C   0  0  0  0  0  0  0  0  0  0  0  0
  141.6540   80.3030  223.7800 C   0  0  0  0  0  0  0  0  0  0  0  0
  140.3080   80.5050  223.4960 C   0  0  0  0  0  0  0  0  0  0  0  0
  139.4850   79.5240  223.0250 C   0  0  0  0  0  0  0  0  0  0  0  0
  140.5110   76.0700  220.0820 N   0  0  0  0  0  0  0  0  0  0  0  0
  140.6640   74.9300  221.0000 C   0  0  0  0  0  0  0  0  0  0  0  0
  142.0550   74.5160  220.7010 C   0  0  0  0  0  0  0  0  0  0  0  0
  142.6440   73.2680  220.8430 C   0  0  0  0  0  0  0  0  0  0  0  0
  143.9840   73.1080  220.4980 C   0  0  0  0  0  0  0  0  0  0  0  0
  144.6870   74.1970  220.0230 C   0  0  0  0  0  0  0  0  0  0  0  0
  144.0590   75.4360  219.8960 C   0  0  0  0  0  0  0  0  0  0  0  0
  142.7360   75.6170  220.2300 C   0  0  0  0  0  0  0  0  0  0  0  0
  141.7620   76.7370  220.2270 C   0  0  1  0  0  0  0  0  0  0  0  0
  142.0680   77.7330  219.1760 C   0  0  0  0  0  0  0  0  0  0  0  0
  142.5290   77.5900  217.9010 C   0  0  0  0  0  0  0  0  0  0  0  0
  142.6710   78.7940  217.3070 N   0  0  0  0  0  0  0  0  0  0  0  0
  142.3000   79.7210  218.2020 C   0  0  0  0  0  0  0  0  0  0  0  0
  142.2510   81.1050  218.1110 C   0  0  0  0  0  0  0  0  0  0  0  0
  141.8340   81.9040  219.1540 C   0  0  0  0  0  0  0  0  0  0  0  0
  141.4530   81.2820  220.3280 C   0  0  0  0  0  0  0  0  0  0  0  0
  141.5050   79.9090  220.4060 C   0  0  0  0  0  0  0  0  0  0  0  0
  141.9200   79.0970  219.3720 C   0  0  0  0  0  0  0  0  0  0  0  0
  138.1060   77.4098  222.6269 H   0  0  0  0  0  0  0  0  0  0  0  0
  139.5037   76.2434  222.7285 H   0  0  0  0  0  0  0  0  0  0  0  0
  141.7753   77.0676  222.9414 H   0  0  0  0  0  0  0  0  0  0  0  0
  143.2565   78.8327  223.7861 H   0  0  0  0  0  0  0  0  0  0  0  0
  142.2767   81.1270  224.1584 H   0  0  0  0  0  0  0  0  0  0  0  0
  139.8849   81.5071  223.6594 H   0  0  0  0  0  0  0  0  0  0  0  0
  138.4251   79.7278  222.8125 H   0  0  0  0  0  0  0  0  0  0  0  0
  140.5503   75.2378  222.0499 H   0  0  0  0  0  0  0  0  0  0  0  0
  139.9145   74.1357  220.8679 H   0  0  0  0  0  0  0  0  0  0  0  0
  142.0607   72.4163  221.2229 H   0  0  0  0  0  0  0  0  0  0  0  0
  144.4745   72.1290  220.6024 H   0  0  0  0  0  0  0  0  0  0  0  0
  145.7453   74.0873  219.7439 H   0  0  0  0  0  0  0  0  0  0  0  0
  144.6371   76.2923  219.5184 H   0  0  0  0  0  0  0  0  0  0  0  0
  141.7787   77.3546  221.1371 H   0  0  0  0  0  0  0  0  0  0  0  0
  142.7544   76.6258  217.4219 H   0  0  0  0  0  0  0  0  0  0  0  0
  142.9990   79.0320  216.3460 H   0  0  0  0  0  0  0  0  0  0  0  0
  142.5571   81.5834  217.1690 H   0  0  0  0  0  0  0  0  0  0  0  0
  141.8054   82.9992  219.0553 H   0  0  0  0  0  0  0  0  0  0  0  0
  141.1127   81.8766  221.1886 H   0  0  0  0  0  0  0  0  0  0  0  0
  141.1976   79.4317  221.3482 H   0  0  0  0  0  0  0  0  0  0  0  0
  1  2  2  0
  2  3  2  0
  2  4  1  0
  4  5  1  0
  5  6  2  0
  6  7  1  0
  7  8  2  0
  8  9  1  0
  9 10  2  0
  2 11  1  0
 11 12  1  0
 12 13  1  0
 13 14  2  0
 14 15  1  0
 15 16  2  0
 16 17  1  0
 17 18  2  0
 18 19  1  0
 19 20  1  0
 20 21  2  0
 21 22  1  0
 22 23  1  0
 23 24  2  0
 24 25  1  0
 25 26  2  0
 26 27  1  0
 27 28  2  0
 10  5  1  0
 19 11  1  0
 28 20  1  0
 18 13  1  0
 28 23  1  0
  4 29  1  0
  4 30  1  0
  6 31  1  0
  7 32  1  0
  8 33  1  0
  9 34  1  0
 10 35  1  0
 12 36  1  0
 12 37  1  0
 14 38  1  0
 15 39  1  0
 16 40  1  0
 17 41  1  0
 19 42  1  1
 21 43  1  0
 22 44  1  0
 24 45  1  0
 25 46  1  0
 26 47  1  0
 27 48  1  0
M  END
>  <smiles>  (66) 
O=S(=O)(Cc1ccccc1)N1Cc2ccccc2C1c1c[nH]c2ccccc12

>  <score_type>  (66) 
oracle

>  <origin>  (66) 
autodockgpu

>  <m_score__min__energy>  (66) 
-8.3300000000000001

>  <m_primary>  (66) 
energy

>  <rmsd>  (66) 
4.508801639097548

>  <m_score__min__rmsd>  (66) 
4.508801639097548

>  <meeko>  (66) 
{"free_energy": -7.54, "intermolecular_energy": -8.73, "internal_energy": -2.25, "cluster_size": 7, "cluster_id": 2, "rank_in_cluster": 3}

>  <energy>  (66) 
-7.54

>  <cluster_rmsd>  (66) 
0.05

>  <cluster>  (66) 
2

$$$$

     RDKit          3D

 48 52  0  0  0  0  0  0  0  0999 V2000
  140.2930   74.8810  222.3420 O   0  0  0  0  0  0  0  0  0  0  0  0
  140.1780   76.3720  222.1000 S   0  0  0  0  0  0  0  0  0  0  0  0
  141.1080   77.0960  223.0250 O   0  0  0  0  0  0  0  0  0  0  0  0
  138.5360   76.9490  222.3810 C   0  0  0  0  0  0  0  0  0  0  0  0
  138.4700   78.4090  222.6230 C   0  0  0  0  0  0  0  0  0  0  0  0
  139.0560   79.0160  223.7170 C   0  0  0  0  0  0  0  0  0  0  0  0
  139.0110   80.3580  223.9690 C   0  0  0  0  0  0  0  0  0  0  0  0
  138.3270   81.1500  223.0560 C   0  0  0  0  0  0  0  0  0  0  0  0
  137.7360   80.5420  221.9540 C   0  0  0  0  0  0  0  0  0  0  0  0
  137.7920   79.1990  221.7180 C   0  0  0  0  0  0  0  0  0  0  0  0
  140.6520   76.7370  220.4820 N   0  0  0  0  0  0  0  0  0  0  0  0
  141.1980   75.5380  219.8250 C   0  0  0  0  0  0  0  0  0  0  0  0
  141.9230   76.1490  218.6860 C   0  0  0  0  0  0  0  0  0  0  0  0
  142.2360   75.5970  217.4530 C   0  0  0  0  0  0  0  0  0  0  0  0
  142.9340   76.3650  216.5240 C   0  0  0  0  0  0  0  0  0  0  0  0
  143.2940   77.6550  216.8580 C   0  0  0  0  0  0  0  0  0  0  0  0
  142.9610   78.1740  218.1090 C   0  0  0  0  0  0  0  0  0  0  0  0
  142.2710   77.4340  219.0430 C   0  0  0  0  0  0  0  0  0  0  0  0
  141.7560   77.6360  220.4190 C   0  0  1  0  0  0  0  0  0  0  0  0
  141.4250   79.0540  220.6840 C   0  0  0  0  0  0  0  0  0  0  0  0
  140.7020   79.9630  219.9690 C   0  0  0  0  0  0  0  0  0  0  0  0
  140.6740   81.1550  220.6000 N   0  0  0  0  0  0  0  0  0  0  0  0
  141.3840   81.0190  221.7300 C   0  0  0  0  0  0  0  0  0  0  0  0
  141.6710   81.9270  222.7390 C   0  0  0  0  0  0  0  0  0  0  0  0
  142.4290   81.5960  223.8430 C   0  0  0  0  0  0  0  0  0  0  0  0
  142.9110   80.3050  223.9280 C   0  0  0  0  0  0  0  0  0  0  0  0
  142.6190   79.4130  222.9210 C   0  0  0  0  0  0  0  0  0  0  0  0
  141.8640   79.7280  221.8120 C   0  0  0  0  0  0  0  0  0  0  0  0
  137.9250   76.7120  221.4976 H   0  0  0  0  0  0  0  0  0  0  0  0
  138.1609   76.4478  223.2855 H   0  0  0  0  0  0  0  0  0  0  0  0
  139.5942   78.3767  224.4322 H   0  0  0  0  0  0  0  0  0  0  0  0
  139.4953   80.7921  224.8561 H   0  0  0  0  0  0  0  0  0  0  0  0
  138.2541   82.2378  223.2019 H   0  0  0  0  0  0  0  0  0  0  0  0
  137.1956   81.1760  221.2356 H   0  0  0  0  0  0  0  0  0  0  0  0
  137.3106   78.7593  220.8320 H   0  0  0  0  0  0  0  0  0  0  0  0
  141.8797   74.9874  220.4899 H   0  0  0  0  0  0  0  0  0  0  0  0
  140.4415   74.7937  219.5358 H   0  0  0  0  0  0  0  0  0  0  0  0
  141.9370   74.5663  217.2118 H   0  0  0  0  0  0  0  0  0  0  0  0
  143.1944   75.9498  215.5392 H   0  0  0  0  0  0  0  0  0  0  0  0
  143.8449   78.2753  216.1357 H   0  0  0  0  0  0  0  0  0  0  0  0
  143.2580   79.2038  218.3566 H   0  0  0  0  0  0  0  0  0  0  0  0
  142.4881   77.4211  221.2113 H   0  0  0  0  0  0  0  0  0  0  0  0
  140.2088   79.7527  219.0085 H   0  0  0  0  0  0  0  0  0  0  0  0
  140.2130   82.0490  220.3240 H   0  0  0  0  0  0  0  0  0  0  0  0
  141.2786   82.9512  222.6553 H   0  0  0  0  0  0  0  0  0  0  0  0
  142.6422   82.3355  224.6289 H   0  0  0  0  0  0  0  0  0  0  0  0
  143.5204   79.9933  224.7891 H   0  0  0  0  0  0  0  0  0  0  0  0
  143.0113   78.3889  223.0065 H   0  0  0  0  0  0  0  0  0  0  0  0
  1  2  2  0
  2  3  2  0
  2  4  1  0
  4  5  1  0
  5  6  2  0
  6  7  1  0
  7  8  2  0
  8  9  1  0
  9 10  2  0
  2 11  1  0
 11 12  1  0
 12 13  1  0
 13 14  2  0
 14 15  1  0
 15 16  2  0
 16 17  1  0
 17 18  2  0
 18 19  1  0
 19 20  1  0
 20 21  2  0
 21 22  1  0
 22 23  1  0
 23 24  2  0
 24 25  1  0
 25 26  2  0
 26 27  1  0
 27 28  2  0
 10  5  1  0
 19 11  1  0
 28 20  1  0
 18 13  1  0
 28 23  1  0
  4 29  1  0
  4 30  1  0
  6 31  1  0
  7 32  1  0
  8 33  1  0
  9 34  1  0
 10 35  1  0
 12 36  1  0
 12 37  1  0
 14 38  1  0
 15 39  1  0
 16 40  1  0
 17 41  1  0
 19 42  1  1
 21 43  1  0
 22 44  1  0
 24 45  1  0
 25 46  1  0
 26 47  1  0
 27 48  1  0
M  END
>  <smiles>  (67) 
O=S(=O)(Cc1ccccc1)N1Cc2ccccc2C1c1c[nH]c2ccccc12

>  <score_type>  (67) 
oracle

>  <origin>  (67) 
autodockgpu

>  <m_score__min__energy>  (67) 
-8.3300000000000001

>  <m_primary>  (67) 
energy

>  <rmsd>  (67) 
4.0520017502444565

>  <m_score__min__rmsd>  (67) 
4.0520017502444565

>  <meeko>  (67) 
{"free_energy": -7.2, "intermolecular_energy": -8.4, "internal_energy": -2.62, "cluster_size": 26, "cluster_id": 4, "rank_in_cluster": 14}

>  <energy>  (67) 
-7.53

>  <cluster_rmsd>  (67) 
0.06

>  <cluster>  (67) 
2

$$$$

     RDKit          3D

 48 52  0  0  0  0  0  0  0  0999 V2000
  140.2550   74.8870  222.3370 O   0  0  0  0  0  0  0  0  0  0  0  0
  140.1580   76.3760  222.0760 S   0  0  0  0  0  0  0  0  0  0  0  0
  141.0930   77.1010  222.9950 O   0  0  0  0  0  0  0  0  0  0  0  0
  138.5220   76.9750  222.3460 C   0  0  0  0  0  0  0  0  0  0  0  0
  138.4740   78.4360  222.5880 C   0  0  0  0  0  0  0  0  0  0  0  0
  139.0680   79.0360  223.6820 C   0  0  0  0  0  0  0  0  0  0  0  0
  139.0400   80.3780  223.9340 C   0  0  0  0  0  0  0  0  0  0  0  0
  138.3640   81.1780  223.0210 C   0  0  0  0  0  0  0  0  0  0  0  0
  137.7650   80.5770  221.9200 C   0  0  0  0  0  0  0  0  0  0  0  0
  137.8040   79.2340  221.6840 C   0  0  0  0  0  0  0  0  0  0  0  0
  140.6410   76.7170  220.4560 N   0  0  0  0  0  0  0  0  0  0  0  0
  141.1870   75.5070  219.8190 C   0  0  0  0  0  0  0  0  0  0  0  0
  141.9190   76.0990  218.6750 C   0  0  0  0  0  0  0  0  0  0  0  0
  142.2360   75.5280  217.4510 C   0  0  0  0  0  0  0  0  0  0  0  0
  142.9410   76.2810  216.5140 C   0  0  0  0  0  0  0  0  0  0  0  0
  143.3020   77.5750  216.8320 C   0  0  0  0  0  0  0  0  0  0  0  0
  142.9650   78.1130  218.0730 C   0  0  0  0  0  0  0  0  0  0  0  0
  142.2690   77.3880  219.0140 C   0  0  0  0  0  0  0  0  0  0  0  0
  141.7480   77.6120  220.3850 C   0  0  1  0  0  0  0  0  0  0  0  0
  141.4190   79.0350  220.6270 C   0  0  0  0  0  0  0  0  0  0  0  0
  140.7050   79.9360  219.8930 C   0  0  0  0  0  0  0  0  0  0  0  0
  140.6750   81.1370  220.5080 N   0  0  0  0  0  0  0  0  0  0  0  0
  141.3740   81.0130  221.6460 C   0  0  0  0  0  0  0  0  0  0  0  0
  141.6540   81.9340  222.6460 C   0  0  0  0  0  0  0  0  0  0  0  0
  142.4000   81.6160  223.7610 C   0  0  0  0  0  0  0  0  0  0  0  0
  142.8770   80.3240  223.8690 C   0  0  0  0  0  0  0  0  0  0  0  0
  142.5920   79.4200  222.8710 C   0  0  0  0  0  0  0  0  0  0  0  0
  141.8480   79.7220  221.7500 C   0  0  0  0  0  0  0  0  0  0  0  0
  137.9139   76.7464  221.4584 H   0  0  0  0  0  0  0  0  0  0  0  0
  138.1341   76.4788  223.2478 H   0  0  0  0  0  0  0  0  0  0  0  0
  139.5984   78.3900  224.3971 H   0  0  0  0  0  0  0  0  0  0  0  0
  139.5308   80.8065  224.8203 H   0  0  0  0  0  0  0  0  0  0  0  0
  138.3040   82.2666  223.1667 H   0  0  0  0  0  0  0  0  0  0  0  0
  137.2320   81.2175  221.2019 H   0  0  0  0  0  0  0  0  0  0  0  0
  137.3156   78.8002  220.7990 H   0  0  0  0  0  0  0  0  0  0  0  0
  141.8640   74.9644  220.4952 H   0  0  0  0  0  0  0  0  0  0  0  0
  140.4297   74.7607  219.5369 H   0  0  0  0  0  0  0  0  0  0  0  0
  141.9349   74.4948  217.2232 H   0  0  0  0  0  0  0  0  0  0  0  0
  143.2056   75.8512  215.5366 H   0  0  0  0  0  0  0  0  0  0  0  0
  143.8576   78.1837  216.1034 H   0  0  0  0  0  0  0  0  0  0  0  0
  143.2634   79.1456  218.3070 H   0  0  0  0  0  0  0  0  0  0  0  0
  142.4760   77.4071  221.1838 H   0  0  0  0  0  0  0  0  0  0  0  0
  140.2198   79.7141  218.9311 H   0  0  0  0  0  0  0  0  0  0  0  0
  140.2200   82.0270  220.2150 H   0  0  0  0  0  0  0  0  0  0  0  0
  141.2654   82.9581  222.5449 H   0  0  0  0  0  0  0  0  0  0  0  0
  142.6083   82.3658  224.5384 H   0  0  0  0  0  0  0  0  0  0  0  0
  143.4763   80.0219  224.7405 H   0  0  0  0  0  0  0  0  0  0  0  0
  142.9807   78.3961  222.9737 H   0  0  0  0  0  0  0  0  0  0  0  0
  1  2  2  0
  2  3  2  0
  2  4  1  0
  4  5  1  0
  5  6  2  0
  6  7  1  0
  7  8  2  0
  8  9  1  0
  9 10  2  0
  2 11  1  0
 11 12  1  0
 12 13  1  0
 13 14  2  0
 14 15  1  0
 15 16  2  0
 16 17  1  0
 17 18  2  0
 18 19  1  0
 19 20  1  0
 20 21  2  0
 21 22  1  0
 22 23  1  0
 23 24  2  0
 24 25  1  0
 25 26  2  0
 26 27  1  0
 27 28  2  0
 10  5  1  0
 19 11  1  0
 28 20  1  0
 18 13  1  0
 28 23  1  0
  4 29  1  0
  4 30  1  0
  6 31  1  0
  7 32  1  0
  8 33  1  0
  9 34  1  0
 10 35  1  0
 12 36  1  0
 12 37  1  0
 14 38  1  0
 15 39  1  0
 16 40  1  0
 17 41  1  0
 19 42  1  1
 21 43  1  0
 22 44  1  0
 24 45  1  0
 25 46  1  0
 26 47  1  0
 27 48  1  0
M  END
>  <smiles>  (68) 
O=S(=O)(Cc1ccccc1)N1Cc2ccccc2C1c1c[nH]c2ccccc12

>  <score_type>  (68) 
oracle

>  <origin>  (68) 
autodockgpu

>  <m_score__min__energy>  (68) 
-8.3300000000000001

>  <m_primary>  (68) 
energy

>  <rmsd>  (68) 
4.0406131502065215

>  <m_score__min__rmsd>  (68) 
4.0406131502065215

>  <meeko>  (68) 
{"free_energy": -7.21, "intermolecular_energy": -8.41, "internal_energy": -2.6, "cluster_size": 26, "cluster_id": 4, "rank_in_cluster": 5}

>  <energy>  (68) 
-7.53

>  <cluster_rmsd>  (68) 
0.02

>  <cluster>  (68) 
2

$$$$

     RDKit          3D

 48 52  0  0  0  0  0  0  0  0999 V2000
  140.2410   74.9070  222.3430 O   0  0  0  0  0  0  0  0  0  0  0  0
  140.1480   76.3990  222.1000 S   0  0  0  0  0  0  0  0  0  0  0  0
  141.0920   77.1100  223.0210 O   0  0  0  0  0  0  0  0  0  0  0  0
  138.5170   77.0020  222.3850 C   0  0  0  0  0  0  0  0  0  0  0  0
  138.4760   78.4600  222.6440 C   0  0  0  0  0  0  0  0  0  0  0  0
  139.0710   79.0440  223.7460 C   0  0  0  0  0  0  0  0  0  0  0  0
  139.0500   80.3830  224.0130 C   0  0  0  0  0  0  0  0  0  0  0  0
  138.3820   81.1980  223.1080 C   0  0  0  0  0  0  0  0  0  0  0  0
  137.7830   80.6130  221.9980 C   0  0  0  0  0  0  0  0  0  0  0  0
  137.8150   79.2730  221.7470 C   0  0  0  0  0  0  0  0  0  0  0  0
  140.6230   76.7550  220.4800 N   0  0  0  0  0  0  0  0  0  0  0  0
  141.1530   75.5480  219.8240 C   0  0  0  0  0  0  0  0  0  0  0  0
  141.8830   76.1480  218.6820 C   0  0  0  0  0  0  0  0  0  0  0  0
  142.1860   75.5890  217.4500 C   0  0  0  0  0  0  0  0  0  0  0  0
  142.8910   76.3470  216.5170 C   0  0  0  0  0  0  0  0  0  0  0  0
  143.2660   77.6340  216.8480 C   0  0  0  0  0  0  0  0  0  0  0  0
  142.9430   78.1600  218.0970 C   0  0  0  0  0  0  0  0  0  0  0  0
  142.2460   77.4290  219.0350 C   0  0  0  0  0  0  0  0  0  0  0  0
  141.7370   77.6410  220.4120 C   0  0  1  0  0  0  0  0  0  0  0  0
  141.4220   79.0640  220.6730 C   0  0  0  0  0  0  0  0  0  0  0  0
  140.7140   79.9800  219.9540 C   0  0  0  0  0  0  0  0  0  0  0  0
  140.6980   81.1740  220.5840 N   0  0  0  0  0  0  0  0  0  0  0  0
  141.4000   81.0300  221.7180 C   0  0  0  0  0  0  0  0  0  0  0  0
  141.6940   81.9350  222.7280 C   0  0  0  0  0  0  0  0  0  0  0  0
  142.4410   81.5960  223.8350 C   0  0  0  0  0  0  0  0  0  0  0  0
  142.9060   80.2980  223.9250 C   0  0  0  0  0  0  0  0  0  0  0  0
  142.6080   79.4090  222.9170 C   0  0  0  0  0  0  0  0  0  0  0  0
  141.8630   79.7330  221.8040 C   0  0  0  0  0  0  0  0  0  0  0  0
  137.9035   76.7862  221.4979 H   0  0  0  0  0  0  0  0  0  0  0  0
  138.1318   76.4973  223.2833 H   0  0  0  0  0  0  0  0  0  0  0  0
  139.5962   78.3870  224.4549 H   0  0  0  0  0  0  0  0  0  0  0  0
  139.5406   80.7981  224.9057 H   0  0  0  0  0  0  0  0  0  0  0  0
  138.3280   82.2852  223.2664 H   0  0  0  0  0  0  0  0  0  0  0  0
  137.2561   81.2647  221.2855 H   0  0  0  0  0  0  0  0  0  0  0  0
  137.3277   78.8526  220.8549 H   0  0  0  0  0  0  0  0  0  0  0  0
  141.8295   74.9904  220.4885 H   0  0  0  0  0  0  0  0  0  0  0  0
  140.3868   74.8124  219.5379 H   0  0  0  0  0  0  0  0  0  0  0  0
  141.8742   74.5613  217.2122 H   0  0  0  0  0  0  0  0  0  0  0  0
  143.1447   75.9267  215.5326 H   0  0  0  0  0  0  0  0  0  0  0  0
  143.8219   78.2463  216.1228 H   0  0  0  0  0  0  0  0  0  0  0  0
  143.2527   79.1869  218.3413 H   0  0  0  0  0  0  0  0  0  0  0  0
  142.4687   77.4204  221.2032 H   0  0  0  0  0  0  0  0  0  0  0  0
  140.2226   79.7746  218.9916 H   0  0  0  0  0  0  0  0  0  0  0  0
  140.2500   82.0720  220.3050 H   0  0  0  0  0  0  0  0  0  0  0  0
  141.3156   82.9642  222.6414 H   0  0  0  0  0  0  0  0  0  0  0  0
  142.6598   82.3340  224.6208 H   0  0  0  0  0  0  0  0  0  0  0  0
  143.5060   79.9794  224.7901 H   0  0  0  0  0  0  0  0  0  0  0  0
  142.9867   78.3800  223.0052 H   0  0  0  0  0  0  0  0  0  0  0  0
  1  2  2  0
  2  3  2  0
  2  4  1  0
  4  5  1  0
  5  6  2  0
  6  7  1  0
  7  8  2  0
  8  9  1  0
  9 10  2  0
  2 11  1  0
 11 12  1  0
 12 13  1  0
 13 14  2  0
 14 15  1  0
 15 16  2  0
 16 17  1  0
 17 18  2  0
 18 19  1  0
 19 20  1  0
 20 21  2  0
 21 22  1  0
 22 23  1  0
 23 24  2  0
 24 25  1  0
 25 26  2  0
 26 27  1  0
 27 28  2  0
 10  5  1  0
 19 11  1  0
 28 20  1  0
 18 13  1  0
 28 23  1  0
  4 29  1  0
  4 30  1  0
  6 31  1  0
  7 32  1  0
  8 33  1  0
  9 34  1  0
 10 35  1  0
 12 36  1  0
 12 37  1  0
 14 38  1  0
 15 39  1  0
 16 40  1  0
 17 41  1  0
 19 42  1  1
 21 43  1  0
 22 44  1  0
 24 45  1  0
 25 46  1  0
 26 47  1  0
 27 48  1  0
M  END
>  <smiles>  (69) 
O=S(=O)(Cc1ccccc1)N1Cc2ccccc2C1c1c[nH]c2ccccc12

>  <score_type>  (69) 
oracle

>  <origin>  (69) 
autodockgpu

>  <m_score__min__energy>  (69) 
-8.3300000000000001

>  <m_primary>  (69) 
energy

>  <rmsd>  (69) 
4.03943676686246

>  <m_score__min__rmsd>  (69) 
4.03943676686246

>  <meeko>  (69) 
{"free_energy": -7.2, "intermolecular_energy": -8.4, "internal_energy": -2.62, "cluster_size": 26, "cluster_id": 4, "rank_in_cluster": 10}

>  <energy>  (69) 
-7.53

>  <cluster_rmsd>  (69) 
0.06

>  <cluster>  (69) 
2

$$$$

     RDKit          3D

 48 52  0  0  0  0  0  0  0  0999 V2000
  140.2970   74.8830  222.3240 O   0  0  0  0  0  0  0  0  0  0  0  0
  140.1840   76.3750  222.0870 S   0  0  0  0  0  0  0  0  0  0  0  0
  141.1210   77.0950  223.0090 O   0  0  0  0  0  0  0  0  0  0  0  0
  138.5460   76.9560  222.3780 C   0  0  0  0  0  0  0  0  0  0  0  0
  138.4850   78.4140  222.6280 C   0  0  0  0  0  0  0  0  0  0  0  0
  139.0720   79.0130  223.7260 C   0  0  0  0  0  0  0  0  0  0  0  0
  139.0320   80.3540  223.9860 C   0  0  0  0  0  0  0  0  0  0  0  0
  138.3520   81.1540  223.0760 C   0  0  0  0  0  0  0  0  0  0  0  0
  137.7610   80.5540  221.9700 C   0  0  0  0  0  0  0  0  0  0  0  0
  137.8110   79.2120  221.7270 C   0  0  0  0  0  0  0  0  0  0  0  0
  140.6520   76.7440  220.4680 N   0  0  0  0  0  0  0  0  0  0  0  0
  141.1930   75.5460  219.8050 C   0  0  0  0  0  0  0  0  0  0  0  0
  141.9140   76.1590  218.6650 C   0  0  0  0  0  0  0  0  0  0  0  0
  142.2210   75.6100  217.4290 C   0  0  0  0  0  0  0  0  0  0  0  0
  142.9150   76.3800  216.4980 C   0  0  0  0  0  0  0  0  0  0  0  0
  143.2770   77.6690  216.8340 C   0  0  0  0  0  0  0  0  0  0  0  0
  142.9510   78.1850  218.0870 C   0  0  0  0  0  0  0  0  0  0  0  0
  142.2640   77.4430  219.0220 C   0  0  0  0  0  0  0  0  0  0  0  0
  141.7560   77.6430  220.4020 C   0  0  1  0  0  0  0  0  0  0  0  0
  141.4270   79.0600  220.6710 C   0  0  0  0  0  0  0  0  0  0  0  0
  140.7030   79.9720  219.9600 C   0  0  0  0  0  0  0  0  0  0  0  0
  140.6780   81.1630  220.5950 N   0  0  0  0  0  0  0  0  0  0  0  0
  141.3890   81.0220  221.7230 C   0  0  0  0  0  0  0  0  0  0  0  0
  141.6790   81.9270  222.7350 C   0  0  0  0  0  0  0  0  0  0  0  0
  142.4370   81.5920  223.8360 C   0  0  0  0  0  0  0  0  0  0  0  0
  142.9180   80.2990  223.9180 C   0  0  0  0  0  0  0  0  0  0  0  0
  142.6240   79.4110  222.9080 C   0  0  0  0  0  0  0  0  0  0  0  0
  141.8670   79.7300  221.8010 C   0  0  0  0  0  0  0  0  0  0  0  0
  137.9305   76.7256  221.4959 H   0  0  0  0  0  0  0  0  0  0  0  0
  138.1737   76.4514  223.2818 H   0  0  0  0  0  0  0  0  0  0  0  0
  139.6071   78.3676  224.4382 H   0  0  0  0  0  0  0  0  0  0  0  0
  139.5167   80.7811  224.8763 H   0  0  0  0  0  0  0  0  0  0  0  0
  138.2826   82.2413  223.2278 H   0  0  0  0  0  0  0  0  0  0  0  0
  137.2253   81.1941  221.2536 H   0  0  0  0  0  0  0  0  0  0  0  0
  137.3279   78.7793  220.8385 H   0  0  0  0  0  0  0  0  0  0  0  0
  141.8766   74.9922  220.4653 H   0  0  0  0  0  0  0  0  0  0  0  0
  140.4339   74.8039  219.5168 H   0  0  0  0  0  0  0  0  0  0  0  0
  141.9205   74.5799  217.1868 H   0  0  0  0  0  0  0  0  0  0  0  0
  143.1704   75.9673  215.5109 H   0  0  0  0  0  0  0  0  0  0  0  0
  143.8245   78.2909  216.1105 H   0  0  0  0  0  0  0  0  0  0  0  0
  143.2508   79.2136  218.3361 H   0  0  0  0  0  0  0  0  0  0  0  0
  142.4918   77.4268  221.1906 H   0  0  0  0  0  0  0  0  0  0  0  0
  140.2072   79.7650  219.0001 H   0  0  0  0  0  0  0  0  0  0  0  0
  140.2180   82.0570  220.3220 H   0  0  0  0  0  0  0  0  0  0  0  0
  141.2882   82.9521  222.6548 H   0  0  0  0  0  0  0  0  0  0  0  0
  142.6521   82.3293  224.6235 H   0  0  0  0  0  0  0  0  0  0  0  0
  143.5271   79.9839  224.7781 H   0  0  0  0  0  0  0  0  0  0  0  0
  143.0162   78.3865  222.9891 H   0  0  0  0  0  0  0  0  0  0  0  0
  1  2  2  0
  2  3  2  0
  2  4  1  0
  4  5  1  0
  5  6  2  0
  6  7  1  0
  7  8  2  0
  8  9  1  0
  9 10  2  0
  2 11  1  0
 11 12  1  0
 12 13  1  0
 13 14  2  0
 14 15  1  0
 15 16  2  0
 16 17  1  0
 17 18  2  0
 18 19  1  0
 19 20  1  0
 20 21  2  0
 21 22  1  0
 22 23  1  0
 23 24  2  0
 24 25  1  0
 25 26  2  0
 26 27  1  0
 27 28  2  0
 10  5  1  0
 19 11  1  0
 28 20  1  0
 18 13  1  0
 28 23  1  0
  4 29  1  0
  4 30  1  0
  6 31  1  0
  7 32  1  0
  8 33  1  0
  9 34  1  0
 10 35  1  0
 12 36  1  0
 12 37  1  0
 14 38  1  0
 15 39  1  0
 16 40  1  0
 17 41  1  0
 19 42  1  1
 21 43  1  0
 22 44  1  0
 24 45  1  0
 25 46  1  0
 26 47  1  0
 27 48  1  0
M  END
>  <smiles>  (70) 
O=S(=O)(Cc1ccccc1)N1Cc2ccccc2C1c1c[nH]c2ccccc12

>  <score_type>  (70) 
oracle

>  <origin>  (70) 
autodockgpu

>  <m_score__min__energy>  (70) 
-8.3300000000000001

>  <m_primary>  (70) 
energy

>  <rmsd>  (70) 
4.053050346451705

>  <m_score__min__rmsd>  (70) 
4.053050346451705

>  <meeko>  (70) 
{"free_energy": -7.2, "intermolecular_energy": -8.39, "internal_energy": -2.61, "cluster_size": 26, "cluster_id": 4, "rank_in_cluster": 18}

>  <energy>  (70) 
-7.53

>  <cluster_rmsd>  (70) 
0.05

>  <cluster>  (70) 
2

$$$$

     RDKit          3D

 48 52  0  0  0  0  0  0  0  0999 V2000
  140.2680   74.8780  222.3230 O   0  0  0  0  0  0  0  0  0  0  0  0
  140.1630   76.3690  222.0800 S   0  0  0  0  0  0  0  0  0  0  0  0
  141.0980   77.0890  223.0040 O   0  0  0  0  0  0  0  0  0  0  0  0
  138.5250   76.9570  222.3620 C   0  0  0  0  0  0  0  0  0  0  0  0
  138.4690   78.4170  222.6080 C   0  0  0  0  0  0  0  0  0  0  0  0
  139.0620   79.0180  223.7010 C   0  0  0  0  0  0  0  0  0  0  0  0
  139.0270   80.3600  223.9560 C   0  0  0  0  0  0  0  0  0  0  0  0
  138.3450   81.1580  223.0470 C   0  0  0  0  0  0  0  0  0  0  0  0
  137.7470   80.5560  221.9460 C   0  0  0  0  0  0  0  0  0  0  0  0
  137.7930   79.2140  221.7070 C   0  0  0  0  0  0  0  0  0  0  0  0
  140.6390   76.7310  220.4620 N   0  0  0  0  0  0  0  0  0  0  0  0
  141.1820   75.5300  219.8070 C   0  0  0  0  0  0  0  0  0  0  0  0
  141.9080   76.1370  218.6670 C   0  0  0  0  0  0  0  0  0  0  0  0
  142.2200   75.5820  217.4350 C   0  0  0  0  0  0  0  0  0  0  0  0
  142.9200   76.3470  216.5040 C   0  0  0  0  0  0  0  0  0  0  0  0
  143.2830   77.6370  216.8370 C   0  0  0  0  0  0  0  0  0  0  0  0
  142.9510   78.1590  218.0860 C   0  0  0  0  0  0  0  0  0  0  0  0
  142.2590   77.4220  219.0210 C   0  0  0  0  0  0  0  0  0  0  0  0
  141.7440   77.6280  220.3980 C   0  0  1  0  0  0  0  0  0  0  0  0
  141.4160   79.0470  220.6590 C   0  0  0  0  0  0  0  0  0  0  0  0
  140.6940   79.9560  219.9420 C   0  0  0  0  0  0  0  0  0  0  0  0
  140.6690   81.1490  220.5710 N   0  0  0  0  0  0  0  0  0  0  0  0
  141.3770   81.0140  221.7020 C   0  0  0  0  0  0  0  0  0  0  0  0
  141.6650   81.9230  222.7100 C   0  0  0  0  0  0  0  0  0  0  0  0
  142.4210   81.5930  223.8140 C   0  0  0  0  0  0  0  0  0  0  0  0
  142.9000   80.3000  223.9030 C   0  0  0  0  0  0  0  0  0  0  0  0
  142.6070   79.4070  222.8970 C   0  0  0  0  0  0  0  0  0  0  0  0
  141.8540   79.7220  221.7870 C   0  0  0  0  0  0  0  0  0  0  0  0
  137.9127   76.7267  221.4777 H   0  0  0  0  0  0  0  0  0  0  0  0
  138.1462   76.4561  223.2651 H   0  0  0  0  0  0  0  0  0  0  0  0
  139.5980   78.3737  224.4135 H   0  0  0  0  0  0  0  0  0  0  0  0
  139.5174   80.7892  224.8422 H   0  0  0  0  0  0  0  0  0  0  0  0
  138.2792   82.2460  223.1954 H   0  0  0  0  0  0  0  0  0  0  0  0
  137.2088   81.1950  221.2305 H   0  0  0  0  0  0  0  0  0  0  0  0
  137.3054   78.7797  220.8218 H   0  0  0  0  0  0  0  0  0  0  0  0
  141.8626   74.9790  220.4727 H   0  0  0  0  0  0  0  0  0  0  0  0
  140.4236   74.7870  219.5192 H   0  0  0  0  0  0  0  0  0  0  0  0
  141.9189   74.5514  217.1958 H   0  0  0  0  0  0  0  0  0  0  0  0
  143.1792   75.9299  215.5197 H   0  0  0  0  0  0  0  0  0  0  0  0
  143.8361   78.2547  216.1141 H   0  0  0  0  0  0  0  0  0  0  0  0
  143.2502   79.1886  218.3317 H   0  0  0  0  0  0  0  0  0  0  0  0
  142.4749   77.4137  221.1917 H   0  0  0  0  0  0  0  0  0  0  0  0
  140.1998   79.7448  218.9822 H   0  0  0  0  0  0  0  0  0  0  0  0
  140.2100   82.0430  220.2930 H   0  0  0  0  0  0  0  0  0  0  0  0
  141.2743   82.9477  222.6245 H   0  0  0  0  0  0  0  0  0  0  0  0
  142.6359   82.3341  224.5980 H   0  0  0  0  0  0  0  0  0  0  0  0
  143.5071   79.9885  224.7658 H   0  0  0  0  0  0  0  0  0  0  0  0
  142.9968   78.3821  222.9845 H   0  0  0  0  0  0  0  0  0  0  0  0
  1  2  2  0
  2  3  2  0
  2  4  1  0
  4  5  1  0
  5  6  2  0
  6  7  1  0
  7  8  2  0
  8  9  1  0
  9 10  2  0
  2 11  1  0
 11 12  1  0
 12 13  1  0
 13 14  2  0
 14 15  1  0
 15 16  2  0
 16 17  1  0
 17 18  2  0
 18 19  1  0
 19 20  1  0
 20 21  2  0
 21 22  1  0
 22 23  1  0
 23 24  2  0
 24 25  1  0
 25 26  2  0
 26 27  1  0
 27 28  2  0
 10  5  1  0
 19 11  1  0
 28 20  1  0
 18 13  1  0
 28 23  1  0
  4 29  1  0
  4 30  1  0
  6 31  1  0
  7 32  1  0
  8 33  1  0
  9 34  1  0
 10 35  1  0
 12 36  1  0
 12 37  1  0
 14 38  1  0
 15 39  1  0
 16 40  1  0
 17 41  1  0
 19 42  1  1
 21 43  1  0
 22 44  1  0
 24 45  1  0
 25 46  1  0
 26 47  1  0
 27 48  1  0
M  END
>  <smiles>  (71) 
O=S(=O)(Cc1ccccc1)N1Cc2ccccc2C1c1c[nH]c2ccccc12

>  <score_type>  (71) 
oracle

>  <origin>  (71) 
autodockgpu

>  <m_score__min__energy>  (71) 
-8.3300000000000001

>  <m_primary>  (71) 
energy

>  <rmsd>  (71) 
4.048151431405521

>  <m_score__min__rmsd>  (71) 
4.048151431405521

>  <meeko>  (71) 
{"free_energy": -7.21, "intermolecular_energy": -8.4, "internal_energy": -2.61, "cluster_size": 26, "cluster_id": 4, "rank_in_cluster": 6}

>  <energy>  (71) 
-7.26

>  <cluster_rmsd>  (71) 
0.0

>  <cluster>  (71) 
3

$$$$

     RDKit          3D

 48 52  0  0  0  0  0  0  0  0999 V2000
  140.2310   74.9060  222.3380 O   0  0  0  0  0  0  0  0  0  0  0  0
  140.1410   76.3980  222.0960 S   0  0  0  0  0  0  0  0  0  0  0  0
  141.0830   77.1070  223.0210 O   0  0  0  0  0  0  0  0  0  0  0  0
  138.5100   77.0040  222.3760 C   0  0  0  0  0  0  0  0  0  0  0  0
  138.4720   78.4590  222.6510 C   0  0  0  0  0  0  0  0  0  0  0  0
  139.0820   79.0320  223.7500 C   0  0  0  0  0  0  0  0  0  0  0  0
  139.0640   80.3690  224.0310 C   0  0  0  0  0  0  0  0  0  0  0  0
  138.3820   81.1920  223.1440 C   0  0  0  0  0  0  0  0  0  0  0  0
  137.7670   80.6180  222.0370 C   0  0  0  0  0  0  0  0  0  0  0  0
  137.7960   79.2800  221.7720 C   0  0  0  0  0  0  0  0  0  0  0  0
  140.6230   76.7560  220.4780 N   0  0  0  0  0  0  0  0  0  0  0  0
  141.1640   75.5520  219.8270 C   0  0  0  0  0  0  0  0  0  0  0  0
  141.8960   76.1550  218.6880 C   0  0  0  0  0  0  0  0  0  0  0  0
  142.2100   75.5970  217.4580 C   0  0  0  0  0  0  0  0  0  0  0  0
  142.9150   76.3580  216.5280 C   0  0  0  0  0  0  0  0  0  0  0  0
  143.2810   77.6470  216.8600 C   0  0  0  0  0  0  0  0  0  0  0  0
  142.9470   78.1720  218.1070 C   0  0  0  0  0  0  0  0  0  0  0  0
  142.2500   77.4390  219.0410 C   0  0  0  0  0  0  0  0  0  0  0  0
  141.7320   77.6490  220.4160 C   0  0  1  0  0  0  0  0  0  0  0  0
  141.4070   79.0700  220.6740 C   0  0  0  0  0  0  0  0  0  0  0  0
  140.6900   79.9790  219.9540 C   0  0  0  0  0  0  0  0  0  0  0  0
  140.6670   81.1740  220.5810 N   0  0  0  0  0  0  0  0  0  0  0  0
  141.3730   81.0380  221.7130 C   0  0  0  0  0  0  0  0  0  0  0  0
  141.6620   81.9480  222.7200 C   0  0  0  0  0  0  0  0  0  0  0  0
  142.4150   81.6180  223.8270 C   0  0  0  0  0  0  0  0  0  0  0  0
  142.8900   80.3240  223.9190 C   0  0  0  0  0  0  0  0  0  0  0  0
  142.5970   79.4300  222.9140 C   0  0  0  0  0  0  0  0  0  0  0  0
  141.8460   79.7450  221.8020 C   0  0  0  0  0  0  0  0  0  0  0  0
  137.9022   76.8003  221.4821 H   0  0  0  0  0  0  0  0  0  0  0  0
  138.1168   76.4908  223.2659 H   0  0  0  0  0  0  0  0  0  0  0  0
  139.6175   78.3682  224.4447 H   0  0  0  0  0  0  0  0  0  0  0  0
  139.5674   80.7757  224.9205 H   0  0  0  0  0  0  0  0  0  0  0  0
  138.3294   82.2775  223.3141 H   0  0  0  0  0  0  0  0  0  0  0  0
  137.2294   81.2766  221.3389 H   0  0  0  0  0  0  0  0  0  0  0  0
  137.2951   78.8678  220.8836 H   0  0  0  0  0  0  0  0  0  0  0  0
  141.8406   74.9999  220.4959 H   0  0  0  0  0  0  0  0  0  0  0  0
  140.4041   74.8110  219.5380 H   0  0  0  0  0  0  0  0  0  0  0  0
  141.9064   74.5669  217.2197 H   0  0  0  0  0  0  0  0  0  0  0  0
  143.1757   75.9385  215.5451 H   0  0  0  0  0  0  0  0  0  0  0  0
  143.8382   78.2618  216.1378 H   0  0  0  0  0  0  0  0  0  0  0  0
  143.2488   79.2010  218.3519 H   0  0  0  0  0  0  0  0  0  0  0  0
  142.4604   77.4336  221.2117 H   0  0  0  0  0  0  0  0  0  0  0  0
  140.1976   79.7674  218.9934 H   0  0  0  0  0  0  0  0  0  0  0  0
  140.2120   82.0690  220.3010 H   0  0  0  0  0  0  0  0  0  0  0  0
  141.2748   82.9738  222.6316 H   0  0  0  0  0  0  0  0  0  0  0  0
  142.6301   82.3598  224.6102 H   0  0  0  0  0  0  0  0  0  0  0  0
  143.4942   80.0122  224.7837 H   0  0  0  0  0  0  0  0  0  0  0  0
  142.9848   78.4045  223.0036 H   0  0  0  0  0  0  0  0  0  0  0  0
  1  2  2  0
  2  3  2  0
  2  4  1  0
  4  5  1  0
  5  6  2  0
  6  7  1  0
  7  8  2  0
  8  9  1  0
  9 10  2  0
  2 11  1  0
 11 12  1  0
 12 13  1  0
 13 14  2  0
 14 15  1  0
 15 16  2  0
 16 17  1  0
 17 18  2  0
 18 19  1  0
 19 20  1  0
 20 21  2  0
 21 22  1  0
 22 23  1  0
 23 24  2  0
 24 25  1  0
 25 26  2  0
 26 27  1  0
 27 28  2  0
 10  5  1  0
 19 11  1  0
 28 20  1  0
 18 13  1  0
 28 23  1  0
  4 29  1  0
  4 30  1  0
  6 31  1  0
  7 32  1  0
  8 33  1  0
  9 34  1  0
 10 35  1  0
 12 36  1  0
 12 37  1  0
 14 38  1  0
 15 39  1  0
 16 40  1  0
 17 41  1  0
 19 42  1  1
 21 43  1  0
 22 44  1  0
 24 45  1  0
 25 46  1  0
 26 47  1  0
 27 48  1  0
M  END
>  <smiles>  (72) 
O=S(=O)(Cc1ccccc1)N1Cc2ccccc2C1c1c[nH]c2ccccc12

>  <score_type>  (72) 
oracle

>  <origin>  (72) 
autodockgpu

>  <m_score__min__energy>  (72) 
-8.3300000000000001

>  <m_primary>  (72) 
energy

>  <rmsd>  (72) 
4.034728814713318

>  <m_score__min__rmsd>  (72) 
4.034728814713318

>  <meeko>  (72) 
{"free_energy": -7.21, "intermolecular_energy": -8.41, "internal_energy": -2.61, "cluster_size": 26, "cluster_id": 4, "rank_in_cluster": 4}

>  <energy>  (72) 
-7.26

>  <cluster_rmsd>  (72) 
0.03

>  <cluster>  (72) 
3

$$$$

     RDKit          3D

 48 52  0  0  0  0  0  0  0  0999 V2000
  140.2650   74.8790  222.3190 O   0  0  0  0  0  0  0  0  0  0  0  0
  140.1540   76.3710  222.0820 S   0  0  0  0  0  0  0  0  0  0  0  0
  141.0850   77.0900  223.0100 O   0  0  0  0  0  0  0  0  0  0  0  0
  138.5140   76.9530  222.3620 C   0  0  0  0  0  0  0  0  0  0  0  0
  138.4510   78.4130  222.6030 C   0  0  0  0  0  0  0  0  0  0  0  0
  139.0320   79.0190  223.7000 C   0  0  0  0  0  0  0  0  0  0  0  0
  138.9910   80.3610  223.9510 C   0  0  0  0  0  0  0  0  0  0  0  0
  138.3150   81.1550  223.0330 C   0  0  0  0  0  0  0  0  0  0  0  0
  137.7290   80.5480  221.9280 C   0  0  0  0  0  0  0  0  0  0  0  0
  137.7810   79.2040  221.6940 C   0  0  0  0  0  0  0  0  0  0  0  0
  140.6330   76.7410  220.4650 N   0  0  0  0  0  0  0  0  0  0  0  0
  141.1750   75.5420  219.8050 C   0  0  0  0  0  0  0  0  0  0  0  0
  141.9030   76.1540  218.6700 C   0  0  0  0  0  0  0  0  0  0  0  0
  142.2160   75.6050  217.4350 C   0  0  0  0  0  0  0  0  0  0  0  0
  142.9180   76.3740  216.5090 C   0  0  0  0  0  0  0  0  0  0  0  0
  143.2820   77.6610  216.8480 C   0  0  0  0  0  0  0  0  0  0  0  0
  142.9490   78.1780  218.1000 C   0  0  0  0  0  0  0  0  0  0  0  0
  142.2550   77.4360  219.0300 C   0  0  0  0  0  0  0  0  0  0  0  0
  141.7390   77.6360  220.4070 C   0  0  1  0  0  0  0  0  0  0  0  0
  141.4120   79.0540  220.6750 C   0  0  0  0  0  0  0  0  0  0  0  0
  140.6900   79.9670  219.9640 C   0  0  0  0  0  0  0  0  0  0  0  0
  140.6670   81.1580  220.5980 N   0  0  0  0  0  0  0  0  0  0  0  0
  141.3770   81.0160  221.7270 C   0  0  0  0  0  0  0  0  0  0  0  0
  141.6680   81.9210  222.7380 C   0  0  0  0  0  0  0  0  0  0  0  0
  142.4260   81.5860  223.8400 C   0  0  0  0  0  0  0  0  0  0  0  0
  142.9050   80.2920  223.9220 C   0  0  0  0  0  0  0  0  0  0  0  0
  142.6090   79.4040  222.9120 C   0  0  0  0  0  0  0  0  0  0  0  0
  141.8540   79.7240  221.8050 C   0  0  0  0  0  0  0  0  0  0  0  0
  137.9027   76.7169  221.4785 H   0  0  0  0  0  0  0  0  0  0  0  0
  138.1379   76.4537  223.2671 H   0  0  0  0  0  0  0  0  0  0  0  0
  139.5630   78.3781  224.4193 H   0  0  0  0  0  0  0  0  0  0  0  0
  139.4719   80.7939  224.8406 H   0  0  0  0  0  0  0  0  0  0  0  0
  138.2448   82.2432  223.1777 H   0  0  0  0  0  0  0  0  0  0  0  0
  137.1961   81.1832  221.2052 H   0  0  0  0  0  0  0  0  0  0  0  0
  137.3024   78.7650  220.8062 H   0  0  0  0  0  0  0  0  0  0  0  0
  141.8538   74.9866  220.4689 H   0  0  0  0  0  0  0  0  0  0  0  0
  140.4162   74.8013  219.5126 H   0  0  0  0  0  0  0  0  0  0  0  0
  141.9140   74.5761  217.1900 H   0  0  0  0  0  0  0  0  0  0  0  0
  143.1780   75.9614  215.5230 H   0  0  0  0  0  0  0  0  0  0  0  0
  143.8366   78.2814  216.1286 H   0  0  0  0  0  0  0  0  0  0  0  0
  143.2488   79.2061  218.3514 H   0  0  0  0  0  0  0  0  0  0  0  0
  142.4691   77.4170  221.2000 H   0  0  0  0  0  0  0  0  0  0  0  0
  140.1939   79.7605  219.0042 H   0  0  0  0  0  0  0  0  0  0  0  0
  140.2080   82.0530  220.3250 H   0  0  0  0  0  0  0  0  0  0  0  0
  141.2784   82.9465  222.6570 H   0  0  0  0  0  0  0  0  0  0  0  0
  142.6422   82.3234  224.6271 H   0  0  0  0  0  0  0  0  0  0  0  0
  143.5140   79.9761  224.7818 H   0  0  0  0  0  0  0  0  0  0  0  0
  142.9984   78.3785  222.9940 H   0  0  0  0  0  0  0  0  0  0  0  0
  1  2  2  0
  2  3  2  0
  2  4  1  0
  4  5  1  0
  5  6  2  0
  6  7  1  0
  7  8  2  0
  8  9  1  0
  9 10  2  0
  2 11  1  0
 11 12  1  0
 12 13  1  0
 13 14  2  0
 14 15  1  0
 15 16  2  0
 16 17  1  0
 17 18  2  0
 18 19  1  0
 19 20  1  0
 20 21  2  0
 21 22  1  0
 22 23  1  0
 23 24  2  0
 24 25  1  0
 25 26  2  0
 26 27  1  0
 27 28  2  0
 10  5  1  0
 19 11  1  0
 28 20  1  0
 18 13  1  0
 28 23  1  0
  4 29  1  0
  4 30  1  0
  6 31  1  0
  7 32  1  0
  8 33  1  0
  9 34  1  0
 10 35  1  0
 12 36  1  0
 12 37  1  0
 14 38  1  0
 15 39  1  0
 16 40  1  0
 17 41  1  0
 19 42  1  1
 21 43  1  0
 22 44  1  0
 24 45  1  0
 25 46  1  0
 26 47  1  0
 27 48  1  0
M  END
>  <smiles>  (73) 
O=S(=O)(Cc1ccccc1)N1Cc2ccccc2C1c1c[nH]c2ccccc12

>  <score_type>  (73) 
oracle

>  <origin>  (73) 
autodockgpu

>  <m_score__min__energy>  (73) 
-8.3300000000000001

>  <m_primary>  (73) 
energy

>  <rmsd>  (73) 
4.050042074602011

>  <m_score__min__rmsd>  (73) 
4.050042074602011

>  <meeko>  (73) 
{"free_energy": -7.2, "intermolecular_energy": -8.39, "internal_energy": -2.62, "cluster_size": 26, "cluster_id": 4, "rank_in_cluster": 19}

>  <energy>  (73) 
-7.26

>  <cluster_rmsd>  (73) 
0.01

>  <cluster>  (73) 
3

$$$$

     RDKit          3D

 48 52  0  0  0  0  0  0  0  0999 V2000
  140.7210   75.0980  218.6540 O   0  0  0  0  0  0  0  0  0  0  0  0
  141.3170   76.4700  218.4190 S   0  0  0  0  0  0  0  0  0  0  0  0
  140.6700   77.0930  217.2200 O   0  0  0  0  0  0  0  0  0  0  0  0
  143.0560   76.3830  218.1420 C   0  0  0  0  0  0  0  0  0  0  0  0
  143.6890   75.2160  218.7990 C   0  0  0  0  0  0  0  0  0  0  0  0
  143.7320   73.9610  218.2240 C   0  0  0  0  0  0  0  0  0  0  0  0
  144.3070   72.8660  218.8040 C   0  0  0  0  0  0  0  0  0  0  0  0
  144.8810   73.0430  220.0560 C   0  0  0  0  0  0  0  0  0  0  0  0
  144.8390   74.3050  220.6380 C   0  0  0  0  0  0  0  0  0  0  0  0
  144.2610   75.3880  220.0430 C   0  0  0  0  0  0  0  0  0  0  0  0
  140.9970   77.4840  219.7780 N   0  0  0  0  0  0  0  0  0  0  0  0
  141.8840   78.6580  219.7610 C   0  0  0  0  0  0  0  0  0  0  0  0
  141.7680   79.1160  221.1660 C   0  0  0  0  0  0  0  0  0  0  0  0
  141.9440   80.3900  221.6860 C   0  0  0  0  0  0  0  0  0  0  0  0
  141.7830   80.5910  223.0560 C   0  0  0  0  0  0  0  0  0  0  0  0
  141.4520   79.5150  223.8550 C   0  0  0  0  0  0  0  0  0  0  0  0
  141.2840   78.2500  223.2940 C   0  0  0  0  0  0  0  0  0  0  0  0
  141.4370   78.0280  221.9430 C   0  0  0  0  0  0  0  0  0  0  0  0
  141.3400   76.8720  221.0180 C   0  0  1  0  0  0  0  0  0  0  0  0
  140.3800   75.8550  221.5020 C   0  0  0  0  0  0  0  0  0  0  0  0
  139.1180   75.9690  222.0060 C   0  0  0  0  0  0  0  0  0  0  0  0
  138.6210   74.7570  222.3310 N   0  0  0  0  0  0  0  0  0  0  0  0
  139.5660   73.8530  222.0370 C   0  0  0  0  0  0  0  0  0  0  0  0
  139.5770   72.4710  222.1700 C   0  0  0  0  0  0  0  0  0  0  0  0
  140.6580   71.6980  221.8050 C   0  0  0  0  0  0  0  0  0  0  0  0
  141.7650   72.3430  221.2880 C   0  0  0  0  0  0  0  0  0  0  0  0
  141.7430   73.7130  221.1600 C   0  0  0  0  0  0  0  0  0  0  0  0
  140.6700   74.5000  221.5200 C   0  0  0  0  0  0  0  0  0  0  0  0
  143.2355   76.3155  217.0588 H   0  0  0  0  0  0  0  0  0  0  0  0
  143.5042   77.2886  218.5768 H   0  0  0  0  0  0  0  0  0  0  0  0
  143.2724   73.8347  217.2326 H   0  0  0  0  0  0  0  0  0  0  0  0
  144.3150   71.8875  218.3016 H   0  0  0  0  0  0  0  0  0  0  0  0
  145.3597   72.2009  220.5773 H   0  0  0  0  0  0  0  0  0  0  0  0
  145.2957   74.4371  221.6300 H   0  0  0  0  0  0  0  0  0  0  0  0
  144.2512   76.3692  220.5401 H   0  0  0  0  0  0  0  0  0  0  0  0
  142.9183   78.3800  219.5102 H   0  0  0  0  0  0  0  0  0  0  0  0
  141.6183   79.4180  219.0115 H   0  0  0  0  0  0  0  0  0  0  0  0
  142.2070   81.2300  221.0263 H   0  0  0  0  0  0  0  0  0  0  0  0
  141.9176   81.5912  223.4935 H   0  0  0  0  0  0  0  0  0  0  0  0
  141.3204   79.6563  224.9379 H   0  0  0  0  0  0  0  0  0  0  0  0
  141.0220   77.4055  223.9483 H   0  0  0  0  0  0  0  0  0  0  0  0
  142.2664   76.2858  220.9279 H   0  0  0  0  0  0  0  0  0  0  0  0
  138.5785   76.9195  222.1307 H   0  0  0  0  0  0  0  0  0  0  0  0
  137.6950   74.5000  222.7350 H   0  0  0  0  0  0  0  0  0  0  0  0
  138.6874   71.9732  222.5832 H   0  0  0  0  0  0  0  0  0  0  0  0
  140.6401   70.6043  221.9214 H   0  0  0  0  0  0  0  0  0  0  0  0
  142.6523   71.7690  220.9827 H   0  0  0  0  0  0  0  0  0  0  0  0
  142.6335   74.2090  220.7464 H   0  0  0  0  0  0  0  0  0  0  0  0
  1  2  2  0
  2  3  2  0
  2  4  1  0
  4  5  1  0
  5  6  2  0
  6  7  1  0
  7  8  2  0
  8  9  1  0
  9 10  2  0
  2 11  1  0
 11 12  1  0
 12 13  1  0
 13 14  2  0
 14 15  1  0
 15 16  2  0
 16 17  1  0
 17 18  2  0
 18 19  1  0
 19 20  1  0
 20 21  2  0
 21 22  1  0
 22 23  1  0
 23 24  2  0
 24 25  1  0
 25 26  2  0
 26 27  1  0
 27 28  2  0
 10  5  1  0
 19 11  1  0
 28 20  1  0
 18 13  1  0
 28 23  1  0
  4 29  1  0
  4 30  1  0
  6 31  1  0
  7 32  1  0
  8 33  1  0
  9 34  1  0
 10 35  1  0
 12 36  1  0
 12 37  1  0
 14 38  1  0
 15 39  1  0
 16 40  1  0
 17 41  1  0
 19 42  1  6
 21 43  1  0
 22 44  1  0
 24 45  1  0
 25 46  1  0
 26 47  1  0
 27 48  1  0
M  END
>  <smiles>  (74) 
O=S(=O)(Cc1ccccc1)N1Cc2ccccc2C1c1c[nH]c2ccccc12

>  <score_type>  (74) 
oracle

>  <origin>  (74) 
autodockgpu

>  <m_score__min__energy>  (74) 
-8.3300000000000001

>  <m_primary>  (74) 
energy

>  <rmsd>  (74) 
7.120697887794775

>  <m_score__min__rmsd>  (74) 
7.120697887794775

>  <meeko>  (74) 
{"free_energy": -7.23, "intermolecular_energy": -8.42, "internal_energy": -2.36, "cluster_size": 4, "cluster_id": 3, "rank_in_cluster": 4}

>  <energy>  (74) 
-7.23

>  <cluster_rmsd>  (74) 
0.4

>  <cluster>  (74) 
3

$$$$

     RDKit          3D

 48 52  0  0  0  0  0  0  0  0999 V2000
  140.3580   74.7460  222.2730 O   0  0  0  0  0  0  0  0  0  0  0  0
  140.1690   76.2280  222.0290 S   0  0  0  0  0  0  0  0  0  0  0  0
  141.0410   77.0010  222.9720 O   0  0  0  0  0  0  0  0  0  0  0  0
  138.4940   76.7180  222.2780 C   0  0  0  0  0  0  0  0  0  0  0  0
  138.3380   78.1810  222.4490 C   0  0  0  0  0  0  0  0  0  0  0  0
  137.5470   78.9540  221.6220 C   0  0  0  0  0  0  0  0  0  0  0  0
  137.3830   80.3040  221.7530 C   0  0  0  0  0  0  0  0  0  0  0  0
  138.0650   80.9250  222.7920 C   0  0  0  0  0  0  0  0  0  0  0  0
  138.8620   80.1490  223.6260 C   0  0  0  0  0  0  0  0  0  0  0  0
  139.0130   78.8010  223.4800 C   0  0  0  0  0  0  0  0  0  0  0  0
  140.6550   76.6210  220.4210 N   0  0  0  0  0  0  0  0  0  0  0  0
  141.2490   75.4440  219.7640 C   0  0  0  0  0  0  0  0  0  0  0  0
  141.9700   76.0860  218.6400 C   0  0  0  0  0  0  0  0  0  0  0  0
  142.3190   75.5530  217.4090 C   0  0  0  0  0  0  0  0  0  0  0  0
  143.0060   76.3500  216.4950 C   0  0  0  0  0  0  0  0  0  0  0  0
  143.3190   77.6480  216.8430 C   0  0  0  0  0  0  0  0  0  0  0  0
  142.9510   78.1480  218.0920 C   0  0  0  0  0  0  0  0  0  0  0  0
  142.2720   77.3790  219.0100 C   0  0  0  0  0  0  0  0  0  0  0  0
  141.7300   77.5550  220.3800 C   0  0  1  0  0  0  0  0  0  0  0  0
  141.3490   78.9600  220.6490 C   0  0  0  0  0  0  0  0  0  0  0  0
  140.5590   79.8310  219.9580 C   0  0  0  0  0  0  0  0  0  0  0  0
  140.5060   81.0260  220.5820 N   0  0  0  0  0  0  0  0  0  0  0  0
  141.2650   80.9290  221.6830 C   0  0  0  0  0  0  0  0  0  0  0  0
  141.5530   81.8570  222.6750 C   0  0  0  0  0  0  0  0  0  0  0  0
  142.3670   81.5680  223.7490 C   0  0  0  0  0  0  0  0  0  0  0  0
  142.9070   80.2990  223.8240 C   0  0  0  0  0  0  0  0  0  0  0  0
  142.6140   79.3870  222.8340 C   0  0  0  0  0  0  0  0  0  0  0  0
  141.8020   79.6610  221.7550 C   0  0  0  0  0  0  0  0  0  0  0  0
  137.9031   76.4021  221.4056 H   0  0  0  0  0  0  0  0  0  0  0  0
  138.1457   76.2395  223.2052 H   0  0  0  0  0  0  0  0  0  0  0  0
  137.0134   78.4491  220.8032 H   0  0  0  0  0  0  0  0  0  0  0  0
  136.7396   80.8739  221.0665 H   0  0  0  0  0  0  0  0  0  0  0  0
  137.9761   82.0097  222.9517 H   0  0  0  0  0  0  0  0  0  0  0  0
  139.3988   80.6479  224.4463 H   0  0  0  0  0  0  0  0  0  0  0  0
  139.6540   78.2256  224.1641 H   0  0  0  0  0  0  0  0  0  0  0  0
  141.9385   74.9110  220.4352 H   0  0  0  0  0  0  0  0  0  0  0  0
  140.5212   74.6777  219.4590 H   0  0  0  0  0  0  0  0  0  0  0  0
  142.0572   74.5148  217.1568 H   0  0  0  0  0  0  0  0  0  0  0  0
  143.2942   75.9504  215.5115 H   0  0  0  0  0  0  0  0  0  0  0  0
  143.8605   78.2905  216.1331 H   0  0  0  0  0  0  0  0  0  0  0  0
  143.2104   79.1852  218.3506 H   0  0  0  0  0  0  0  0  0  0  0  0
  142.4572   77.3584  221.1816 H   0  0  0  0  0  0  0  0  0  0  0  0
  140.0365   79.5918  219.0200 H   0  0  0  0  0  0  0  0  0  0  0  0
  139.9960   81.8970  220.3190 H   0  0  0  0  0  0  0  0  0  0  0  0
  141.1140   82.8629  222.6007 H   0  0  0  0  0  0  0  0  0  0  0  0
  142.5795   82.3227  224.5205 H   0  0  0  0  0  0  0  0  0  0  0  0
  143.5620   80.0204  224.6627 H   0  0  0  0  0  0  0  0  0  0  0  0
  143.0538   78.3816  222.9092 H   0  0  0  0  0  0  0  0  0  0  0  0
  1  2  2  0
  2  3  2  0
  2  4  1  0
  4  5  1  0
  5  6  2  0
  6  7  1  0
  7  8  2  0
  8  9  1  0
  9 10  2  0
  2 11  1  0
 11 12  1  0
 12 13  1  0
 13 14  2  0
 14 15  1  0
 15 16  2  0
 16 17  1  0
 17 18  2  0
 18 19  1  0
 19 20  1  0
 20 21  2  0
 21 22  1  0
 22 23  1  0
 23 24  2  0
 24 25  1  0
 25 26  2  0
 26 27  1  0
 27 28  2  0
 10  5  1  0
 19 11  1  0
 28 20  1  0
 18 13  1  0
 28 23  1  0
  4 29  1  0
  4 30  1  0
  6 31  1  0
  7 32  1  0
  8 33  1  0
  9 34  1  0
 10 35  1  0
 12 36  1  0
 12 37  1  0
 14 38  1  0
 15 39  1  0
 16 40  1  0
 17 41  1  0
 19 42  1  1
 21 43  1  0
 22 44  1  0
 24 45  1  0
 25 46  1  0
 26 47  1  0
 27 48  1  0
M  END
>  <smiles>  (75) 
O=S(=O)(Cc1ccccc1)N1Cc2ccccc2C1c1c[nH]c2ccccc12

>  <score_type>  (75) 
oracle

>  <origin>  (75) 
autodockgpu

>  <m_score__min__energy>  (75) 
-8.3300000000000001

>  <m_primary>  (75) 
energy

>  <rmsd>  (75) 
4.077383453125837

>  <m_score__min__rmsd>  (75) 
4.077383453125837

>  <meeko>  (75) 
{"free_energy": -7.13, "intermolecular_energy": -8.32, "internal_energy": -2.55, "cluster_size": 26, "cluster_id": 4, "rank_in_cluster": 26}

>  <energy>  (75) 
-7.22

>  <cluster_rmsd>  (75) 
0.0

>  <cluster>  (75) 
4

$$$$

     RDKit          3D

 48 52  0  0  0  0  0  0  0  0999 V2000
  135.6970   68.6840  223.9980 O   0  0  0  0  0  0  0  0  0  0  0  0
  135.6310   70.0510  224.6450 S   0  0  0  0  0  0  0  0  0  0  0  0
  135.5380   69.8910  226.1330 O   0  0  0  0  0  0  0  0  0  0  0  0
  134.2330   70.9670  224.0860 C   0  0  0  0  0  0  0  0  0  0  0  0
  133.9680   72.1750  224.9020 C   0  0  0  0  0  0  0  0  0  0  0  0
  134.5380   73.4040  224.6320 C   0  0  0  0  0  0  0  0  0  0  0  0
  134.3150   74.5340  225.3650 C   0  0  0  0  0  0  0  0  0  0  0  0
  133.4560   74.4240  226.4510 C   0  0  0  0  0  0  0  0  0  0  0  0
  132.8800   73.1890  226.7260 C   0  0  0  0  0  0  0  0  0  0  0  0
  133.1150   72.0690  225.9810 C   0  0  0  0  0  0  0  0  0  0  0  0
  137.0760   70.9290  224.2990 N   0  0  0  0  0  0  0  0  0  0  0  0
  136.9170   71.7100  223.0610 C   0  0  0  0  0  0  0  0  0  0  0  0
  138.3320   71.9950  222.7270 C   0  0  0  0  0  0  0  0  0  0  0  0
  138.8610   73.0470  221.9950 C   0  0  0  0  0  0  0  0  0  0  0  0
  140.2400   73.1140  221.8030 C   0  0  0  0  0  0  0  0  0  0  0  0
  141.0390   72.1290  222.3490 C   0  0  0  0  0  0  0  0  0  0  0  0
  140.4680   71.0870  223.0780 C   0  0  0  0  0  0  0  0  0  0  0  0
  139.1090   71.0010  223.2810 C   0  0  0  0  0  0  0  0  0  0  0  0
  138.1740   70.0810  223.9750 C   0  0  1  0  0  0  0  0  0  0  0  0
  138.8120   69.4130  225.1310 C   0  0  0  0  0  0  0  0  0  0  0  0
  138.8160   68.1090  225.5330 C   0  0  0  0  0  0  0  0  0  0  0  0
  139.5310   67.9620  226.6690 N   0  0  0  0  0  0  0  0  0  0  0  0
  139.9920   69.1760  227.0040 C   0  0  0  0  0  0  0  0  0  0  0  0
  140.7760   69.5880  228.0720 C   0  0  0  0  0  0  0  0  0  0  0  0
  141.1560   70.9010  228.2520 C   0  0  0  0  0  0  0  0  0  0  0  0
  140.7300   71.8270  227.3200 C   0  0  0  0  0  0  0  0  0  0  0  0
  139.9520   71.4060  226.2650 C   0  0  0  0  0  0  0  0  0  0  0  0
  139.5640   70.0980  226.0720 C   0  0  0  0  0  0  0  0  0  0  0  0
  134.4111   71.2786  223.0462 H   0  0  0  0  0  0  0  0  0  0  0  0
  133.3539   70.3116  224.1736 H   0  0  0  0  0  0  0  0  0  0  0  0
  135.2165   73.4770  223.7693 H   0  0  0  0  0  0  0  0  0  0  0  0
  134.7946   75.4897  225.1069 H   0  0  0  0  0  0  0  0  0  0  0  0
  133.2356   75.2979  227.0817 H   0  0  0  0  0  0  0  0  0  0  0  0
  132.2005   73.1100  227.5874 H   0  0  0  0  0  0  0  0  0  0  0  0
  132.6382   71.1105  226.2338 H   0  0  0  0  0  0  0  0  0  0  0  0
  136.4256   71.1219  222.2719 H   0  0  0  0  0  0  0  0  0  0  0  0
  136.2853   72.6045  223.1655 H   0  0  0  0  0  0  0  0  0  0  0  0
  138.2012   73.8185  221.5714 H   0  0  0  0  0  0  0  0  0  0  0  0
  140.6846   73.9382  221.2259 H   0  0  0  0  0  0  0  0  0  0  0  0
  142.1293   72.1667  222.2083 H   0  0  0  0  0  0  0  0  0  0  0  0
  141.1219   70.3113  223.5032 H   0  0  0  0  0  0  0  0  0  0  0  0
  137.8479   69.2237  223.3678 H   0  0  0  0  0  0  0  0  0  0  0  0
  138.3066   67.2899  225.0042 H   0  0  0  0  0  0  0  0  0  0  0  0
  139.7280   67.1050  227.2290 H   0  0  0  0  0  0  0  0  0  0  0  0
  141.1076   68.8371  228.8043 H   0  0  0  0  0  0  0  0  0  0  0  0
  141.7773   71.2009  229.1087 H   0  0  0  0  0  0  0  0  0  0  0  0
  141.0085   72.8865  227.4193 H   0  0  0  0  0  0  0  0  0  0  0  0
  139.6208   72.1577  225.5334 H   0  0  0  0  0  0  0  0  0  0  0  0
  1  2  2  0
  2  3  2  0
  2  4  1  0
  4  5  1  0
  5  6  2  0
  6  7  1  0
  7  8  2  0
  8  9  1  0
  9 10  2  0
  2 11  1  0
 11 12  1  0
 12 13  1  0
 13 14  2  0
 14 15  1  0
 15 16  2  0
 16 17  1  0
 17 18  2  0
 18 19  1  0
 19 20  1  0
 20 21  2  0
 21 22  1  0
 22 23  1  0
 23 24  2  0
 24 25  1  0
 25 26  2  0
 26 27  1  0
 27 28  2  0
 10  5  1  0
 19 11  1  0
 28 20  1  0
 18 13  1  0
 28 23  1  0
  4 29  1  0
  4 30  1  0
  6 31  1  0
  7 32  1  0
  8 33  1  0
  9 34  1  0
 10 35  1  0
 12 36  1  0
 12 37  1  0
 14 38  1  0
 15 39  1  0
 16 40  1  0
 17 41  1  0
 19 42  1  6
 21 43  1  0
 22 44  1  0
 24 45  1  0
 25 46  1  0
 26 47  1  0
 27 48  1  0
M  END
>  <smiles>  (76) 
O=S(=O)(Cc1ccccc1)N1Cc2ccccc2C1c1c[nH]c2ccccc12

>  <score_type>  (76) 
oracle

>  <origin>  (76) 
autodockgpu

>  <m_score__min__energy>  (76) 
-8.3300000000000001

>  <m_primary>  (76) 
energy

>  <rmsd>  (76) 
10.218935311338859

>  <m_score__min__rmsd>  (76) 
10.218935311338859

>  <meeko>  (76) 
{"free_energy": -8.15, "intermolecular_energy": -9.35, "internal_energy": -1.8, "cluster_size": 13, "cluster_id": 1, "rank_in_cluster": 7}

>  <energy>  (76) 
-7.21

>  <cluster_rmsd>  (76) 
0.06

>  <cluster>  (76) 
4

$$$$

     RDKit          3D

 48 52  0  0  0  0  0  0  0  0999 V2000
  140.2400   74.8960  222.3440 O   0  0  0  0  0  0  0  0  0  0  0  0
  140.1430   76.3870  222.0980 S   0  0  0  0  0  0  0  0  0  0  0  0
  141.0810   77.1030  223.0210 O   0  0  0  0  0  0  0  0  0  0  0  0
  138.5080   76.9850  222.3750 C   0  0  0  0  0  0  0  0  0  0  0  0
  138.4610   78.4430  222.6290 C   0  0  0  0  0  0  0  0  0  0  0  0
  139.0550   79.0350  223.7270 C   0  0  0  0  0  0  0  0  0  0  0  0
  139.0280   80.3750  223.9890 C   0  0  0  0  0  0  0  0  0  0  0  0
  138.3540   81.1830  223.0820 C   0  0  0  0  0  0  0  0  0  0  0  0
  137.7550   80.5910  221.9760 C   0  0  0  0  0  0  0  0  0  0  0  0
  137.7930   79.2490  221.7300 C   0  0  0  0  0  0  0  0  0  0  0  0
  140.6240   76.7410  220.4790 N   0  0  0  0  0  0  0  0  0  0  0  0
  141.1640   75.5360  219.8290 C   0  0  0  0  0  0  0  0  0  0  0  0
  141.8950   76.1360  218.6890 C   0  0  0  0  0  0  0  0  0  0  0  0
  142.2080   75.5760  217.4600 C   0  0  0  0  0  0  0  0  0  0  0  0
  142.9130   76.3350  216.5280 C   0  0  0  0  0  0  0  0  0  0  0  0
  143.2790   77.6250  216.8570 C   0  0  0  0  0  0  0  0  0  0  0  0
  142.9460   78.1530  218.1040 C   0  0  0  0  0  0  0  0  0  0  0  0
  142.2500   77.4210  219.0400 C   0  0  0  0  0  0  0  0  0  0  0  0
  141.7330   77.6340  220.4140 C   0  0  1  0  0  0  0  0  0  0  0  0
  141.4090   79.0550  220.6700 C   0  0  0  0  0  0  0  0  0  0  0  0
  140.6950   79.9650  219.9470 C   0  0  0  0  0  0  0  0  0  0  0  0
  140.6710   81.1600  220.5730 N   0  0  0  0  0  0  0  0  0  0  0  0
  141.3730   81.0250  221.7070 C   0  0  0  0  0  0  0  0  0  0  0  0
  141.6600   81.9350  222.7140 C   0  0  0  0  0  0  0  0  0  0  0  0
  142.4090   81.6050  223.8230 C   0  0  0  0  0  0  0  0  0  0  0  0
  142.8820   80.3110  223.9180 C   0  0  0  0  0  0  0  0  0  0  0  0
  142.5910   79.4160  222.9130 C   0  0  0  0  0  0  0  0  0  0  0  0
  141.8440   79.7310  221.7980 C   0  0  0  0  0  0  0  0  0  0  0  0
  137.8986   76.7641  221.4863 H   0  0  0  0  0  0  0  0  0  0  0  0
  138.1211   76.4817  223.2733 H   0  0  0  0  0  0  0  0  0  0  0  0
  139.5850   78.3836  224.4375 H   0  0  0  0  0  0  0  0  0  0  0  0
  139.5184   80.7960  224.8791 H   0  0  0  0  0  0  0  0  0  0  0  0
  138.2954   82.2706  223.2360 H   0  0  0  0  0  0  0  0  0  0  0  0
  137.2230   81.2374  221.2624 H   0  0  0  0  0  0  0  0  0  0  0  0
  137.3054   78.8224  220.8410 H   0  0  0  0  0  0  0  0  0  0  0  0
  141.8409   74.9845  220.4981 H   0  0  0  0  0  0  0  0  0  0  0  0
  140.4033   74.7952  219.5416 H   0  0  0  0  0  0  0  0  0  0  0  0
  141.9037   74.5457  217.2236 H   0  0  0  0  0  0  0  0  0  0  0  0
  143.1737   75.9132  215.5461 H   0  0  0  0  0  0  0  0  0  0  0  0
  143.8353   78.2384  216.1329 H   0  0  0  0  0  0  0  0  0  0  0  0
  143.2476   79.1826  218.3467 H   0  0  0  0  0  0  0  0  0  0  0  0
  142.4620   77.4202  221.2095 H   0  0  0  0  0  0  0  0  0  0  0  0
  140.2056   79.7535  218.9849 H   0  0  0  0  0  0  0  0  0  0  0  0
  140.2170   82.0550  220.2900 H   0  0  0  0  0  0  0  0  0  0  0  0
  141.2743   82.9612  222.6238 H   0  0  0  0  0  0  0  0  0  0  0  0
  142.6228   82.3474  224.6061 H   0  0  0  0  0  0  0  0  0  0  0  0
  143.4832   79.9995  224.7849 H   0  0  0  0  0  0  0  0  0  0  0  0
  142.9770   78.3901  223.0051 H   0  0  0  0  0  0  0  0  0  0  0  0
  1  2  2  0
  2  3  2  0
  2  4  1  0
  4  5  1  0
  5  6  2  0
  6  7  1  0
  7  8  2  0
  8  9  1  0
  9 10  2  0
  2 11  1  0
 11 12  1  0
 12 13  1  0
 13 14  2  0
 14 15  1  0
 15 16  2  0
 16 17  1  0
 17 18  2  0
 18 19  1  0
 19 20  1  0
 20 21  2  0
 21 22  1  0
 22 23  1  0
 23 24  2  0
 24 25  1  0
 25 26  2  0
 26 27  1  0
 27 28  2  0
 10  5  1  0
 19 11  1  0
 28 20  1  0
 18 13  1  0
 28 23  1  0
  4 29  1  0
  4 30  1  0
  6 31  1  0
  7 32  1  0
  8 33  1  0
  9 34  1  0
 10 35  1  0
 12 36  1  0
 12 37  1  0
 14 38  1  0
 15 39  1  0
 16 40  1  0
 17 41  1  0
 19 42  1  1
 21 43  1  0
 22 44  1  0
 24 45  1  0
 25 46  1  0
 26 47  1  0
 27 48  1  0
M  END
>  <smiles>  (77) 
O=S(=O)(Cc1ccccc1)N1Cc2ccccc2C1c1c[nH]c2ccccc12

>  <score_type>  (77) 
oracle

>  <origin>  (77) 
autodockgpu

>  <m_score__min__energy>  (77) 
-8.3300000000000001

>  <m_primary>  (77) 
energy

>  <rmsd>  (77) 
4.0362580802331784

>  <m_score__min__rmsd>  (77) 
4.0362580802331784

>  <meeko>  (77) 
{"free_energy": -7.21, "intermolecular_energy": -8.41, "internal_energy": -2.61, "cluster_size": 26, "cluster_id": 4, "rank_in_cluster": 2}

>  <energy>  (77) 
-7.21

>  <cluster_rmsd>  (77) 
0.03

>  <cluster>  (77) 
4

$$$$

     RDKit          3D

 48 52  0  0  0  0  0  0  0  0999 V2000
  140.2690   74.8860  222.3360 O   0  0  0  0  0  0  0  0  0  0  0  0
  140.1660   76.3780  222.0970 S   0  0  0  0  0  0  0  0  0  0  0  0
  141.1040   77.0940  223.0210 O   0  0  0  0  0  0  0  0  0  0  0  0
  138.5310   76.9690  222.3810 C   0  0  0  0  0  0  0  0  0  0  0  0
  138.4770   78.4280  222.6290 C   0  0  0  0  0  0  0  0  0  0  0  0
  139.0670   79.0260  223.7260 C   0  0  0  0  0  0  0  0  0  0  0  0
  139.0350   80.3670  223.9830 C   0  0  0  0  0  0  0  0  0  0  0  0
  138.3590   81.1690  223.0720 C   0  0  0  0  0  0  0  0  0  0  0  0
  137.7640   80.5710  221.9670 C   0  0  0  0  0  0  0  0  0  0  0  0
  137.8070   79.2290  221.7270 C   0  0  0  0  0  0  0  0  0  0  0  0
  140.6420   76.7420  220.4780 N   0  0  0  0  0  0  0  0  0  0  0  0
  141.1790   75.5400  219.8200 C   0  0  0  0  0  0  0  0  0  0  0  0
  141.9060   76.1470  218.6810 C   0  0  0  0  0  0  0  0  0  0  0  0
  142.2150   75.5940  217.4470 C   0  0  0  0  0  0  0  0  0  0  0  0
  142.9170   76.3590  216.5170 C   0  0  0  0  0  0  0  0  0  0  0  0
  143.2850   77.6460  216.8530 C   0  0  0  0  0  0  0  0  0  0  0  0
  142.9570   78.1660  218.1040 C   0  0  0  0  0  0  0  0  0  0  0  0
  142.2630   77.4290  219.0380 C   0  0  0  0  0  0  0  0  0  0  0  0
  141.7510   77.6350  220.4150 C   0  0  1  0  0  0  0  0  0  0  0  0
  141.4300   79.0540  220.6810 C   0  0  0  0  0  0  0  0  0  0  0  0
  140.7100   79.9670  219.9680 C   0  0  0  0  0  0  0  0  0  0  0  0
  140.6910   81.1600  220.6000 N   0  0  0  0  0  0  0  0  0  0  0  0
  141.4020   81.0190  221.7280 C   0  0  0  0  0  0  0  0  0  0  0  0
  141.6980   81.9240  222.7370 C   0  0  0  0  0  0  0  0  0  0  0  0
  142.4560   81.5890  223.8390 C   0  0  0  0  0  0  0  0  0  0  0  0
  142.9300   80.2940  223.9230 C   0  0  0  0  0  0  0  0  0  0  0  0
  142.6310   79.4040  222.9160 C   0  0  0  0  0  0  0  0  0  0  0  0
  141.8750   79.7250  221.8090 C   0  0  0  0  0  0  0  0  0  0  0  0
  137.9175   76.7410  221.4969 H   0  0  0  0  0  0  0  0  0  0  0  0
  138.1527   76.4679  223.2842 H   0  0  0  0  0  0  0  0  0  0  0  0
  139.5978   78.3790  224.4399 H   0  0  0  0  0  0  0  0  0  0  0  0
  139.5229   80.7932  224.8720 H   0  0  0  0  0  0  0  0  0  0  0  0
  138.2957   82.2569  223.2222 H   0  0  0  0  0  0  0  0  0  0  0  0
  137.2314   81.2128  221.2497 H   0  0  0  0  0  0  0  0  0  0  0  0
  137.3213   78.7974  220.8394 H   0  0  0  0  0  0  0  0  0  0  0  0
  141.8580   74.9846  220.4837 H   0  0  0  0  0  0  0  0  0  0  0  0
  140.4174   74.8006  219.5315 H   0  0  0  0  0  0  0  0  0  0  0  0
  141.9100   74.5651  217.2055 H   0  0  0  0  0  0  0  0  0  0  0  0
  143.1735   75.9436  215.5313 H   0  0  0  0  0  0  0  0  0  0  0  0
  143.8392   78.2637  216.1309 H   0  0  0  0  0  0  0  0  0  0  0  0
  143.2609   79.1936  218.3523 H   0  0  0  0  0  0  0  0  0  0  0  0
  142.4823   77.4167  221.2072 H   0  0  0  0  0  0  0  0  0  0  0  0
  140.2127   79.7597  219.0090 H   0  0  0  0  0  0  0  0  0  0  0  0
  140.2350   82.0560  220.3250 H   0  0  0  0  0  0  0  0  0  0  0  0
  141.3122   82.9508  222.6545 H   0  0  0  0  0  0  0  0  0  0  0  0
  142.6757   82.3274  224.6242 H   0  0  0  0  0  0  0  0  0  0  0  0
  143.5384   79.9781  224.7833 H   0  0  0  0  0  0  0  0  0  0  0  0
  143.0177   78.3776  222.9997 H   0  0  0  0  0  0  0  0  0  0  0  0
  1  2  2  0
  2  3  2  0
  2  4  1  0
  4  5  1  0
  5  6  2  0
  6  7  1  0
  7  8  2  0
  8  9  1  0
  9 10  2  0
  2 11  1  0
 11 12  1  0
 12 13  1  0
 13 14  2  0
 14 15  1  0
 15 16  2  0
 16 17  1  0
 17 18  2  0
 18 19  1  0
 19 20  1  0
 20 21  2  0
 21 22  1  0
 22 23  1  0
 23 24  2  0
 24 25  1  0
 25 26  2  0
 26 27  1  0
 27 28  2  0
 10  5  1  0
 19 11  1  0
 28 20  1  0
 18 13  1  0
 28 23  1  0
  4 29  1  0
  4 30  1  0
  6 31  1  0
  7 32  1  0
  8 33  1  0
  9 34  1  0
 10 35  1  0
 12 36  1  0
 12 37  1  0
 14 38  1  0
 15 39  1  0
 16 40  1  0
 17 41  1  0
 19 42  1  1
 21 43  1  0
 22 44  1  0
 24 45  1  0
 25 46  1  0
 26 47  1  0
 27 48  1  0
M  END
>  <smiles>  (78) 
O=S(=O)(Cc1ccccc1)N1Cc2ccccc2C1c1c[nH]c2ccccc12

>  <score_type>  (78) 
oracle

>  <origin>  (78) 
autodockgpu

>  <m_score__min__energy>  (78) 
-8.3300000000000001

>  <m_primary>  (78) 
energy

>  <rmsd>  (78) 
4.053091330341137

>  <m_score__min__rmsd>  (78) 
4.053091330341137

>  <meeko>  (78) 
{"free_energy": -7.2, "intermolecular_energy": -8.39, "internal_energy": -2.62, "cluster_size": 26, "cluster_id": 4, "rank_in_cluster": 21}

>  <energy>  (78) 
-7.21

>  <cluster_rmsd>  (78) 
0.09

>  <cluster>  (78) 
4

$$$$

     RDKit          3D

 48 52  0  0  0  0  0  0  0  0999 V2000
  140.4830   75.5560  218.6070 O   0  0  0  0  0  0  0  0  0  0  0  0
  141.0820   76.9370  218.4410 S   0  0  0  0  0  0  0  0  0  0  0  0
  140.3480   77.6690  217.3590 O   0  0  0  0  0  0  0  0  0  0  0  0
  142.7890   76.8550  218.0110 C   0  0  0  0  0  0  0  0  0  0  0  0
  143.4920   75.7160  218.6450 C   0  0  0  0  0  0  0  0  0  0  0  0
  143.6080   74.4770  218.0460 C   0  0  0  0  0  0  0  0  0  0  0  0
  144.2480   73.4070  218.6050 C   0  0  0  0  0  0  0  0  0  0  0  0
  144.8130   73.5940  219.8590 C   0  0  0  0  0  0  0  0  0  0  0  0
  144.6990   74.8400  220.4650 C   0  0  0  0  0  0  0  0  0  0  0  0
  144.0560   75.8980  219.8910 C   0  0  0  0  0  0  0  0  0  0  0  0
  140.8950   77.8330  219.9040 N   0  0  0  0  0  0  0  0  0  0  0  0
  141.8130   78.9830  219.9210 C   0  0  0  0  0  0  0  0  0  0  0  0
  141.8160   79.3170  221.3650 C   0  0  0  0  0  0  0  0  0  0  0  0
  142.0680   80.5340  221.9800 C   0  0  0  0  0  0  0  0  0  0  0  0
  142.0160   80.6160  223.3700 C   0  0  0  0  0  0  0  0  0  0  0  0
  141.7140   79.4800  224.0950 C   0  0  0  0  0  0  0  0  0  0  0  0
  141.4660   78.2750  223.4400 C   0  0  0  0  0  0  0  0  0  0  0  0
  141.5120   78.1710  222.0680 C   0  0  0  0  0  0  0  0  0  0  0  0
  141.3110   77.1040  221.0560 C   0  0  1  0  0  0  0  0  0  0  0  0
  140.3600   76.0710  221.5210 C   0  0  0  0  0  0  0  0  0  0  0  0
  139.1050   76.1670  222.0460 C   0  0  0  0  0  0  0  0  0  0  0  0
  138.6150   74.9450  222.3410 N   0  0  0  0  0  0  0  0  0  0  0  0
  139.5570   74.0520  222.0060 C   0  0  0  0  0  0  0  0  0  0  0  0
  139.5720   72.6670  222.0960 C   0  0  0  0  0  0  0  0  0  0  0  0
  140.6500   71.9070  221.6930 C   0  0  0  0  0  0  0  0  0  0  0  0
  141.7480   72.5700  221.1800 C   0  0  0  0  0  0  0  0  0  0  0  0
  141.7210   73.9440  221.0950 C   0  0  0  0  0  0  0  0  0  0  0  0
  140.6530   74.7170  221.4940 C   0  0  0  0  0  0  0  0  0  0  0  0
  142.8707   76.7531  216.9188 H   0  0  0  0  0  0  0  0  0  0  0  0
  143.2643   77.7781  218.3743 H   0  0  0  0  0  0  0  0  0  0  0  0
  143.1550   74.3426  217.0527 H   0  0  0  0  0  0  0  0  0  0  0  0
  144.3126   72.4402  218.0843 H   0  0  0  0  0  0  0  0  0  0  0  0
  145.3411   72.7717  220.3638 H   0  0  0  0  0  0  0  0  0  0  0  0
  145.1503   74.9803  221.4583 H   0  0  0  0  0  0  0  0  0  0  0  0
  143.9893   76.8674  220.4065 H   0  0  0  0  0  0  0  0  0  0  0  0
  142.8169   78.7044  219.5682 H   0  0  0  0  0  0  0  0  0  0  0  0
  141.5149   79.8126  219.2630 H   0  0  0  0  0  0  0  0  0  0  0  0
  142.3059   81.4235  221.3781 H   0  0  0  0  0  0  0  0  0  0  0  0
  142.2123   81.5699  223.8815 H   0  0  0  0  0  0  0  0  0  0  0  0
  141.6690   79.5264  225.1931 H   0  0  0  0  0  0  0  0  0  0  0  0
  141.2268   77.3820  224.0361 H   0  0  0  0  0  0  0  0  0  0  0  0
  142.2097   76.5060  220.8447 H   0  0  0  0  0  0  0  0  0  0  0  0
  138.5656   77.1121  222.2070 H   0  0  0  0  0  0  0  0  0  0  0  0
  137.6950   74.6730  222.7500 H   0  0  0  0  0  0  0  0  0  0  0  0
  138.6886   72.1550  222.5052 H   0  0  0  0  0  0  0  0  0  0  0  0
  140.6360   70.8103  221.7772 H   0  0  0  0  0  0  0  0  0  0  0  0
  142.6318   72.0079  220.8440 H   0  0  0  0  0  0  0  0  0  0  0  0
  142.6045   74.4545  220.6842 H   0  0  0  0  0  0  0  0  0  0  0  0
  1  2  2  0
  2  3  2  0
  2  4  1  0
  4  5  1  0
  5  6  2  0
  6  7  1  0
  7  8  2  0
  8  9  1  0
  9 10  2  0
  2 11  1  0
 11 12  1  0
 12 13  1  0
 13 14  2  0
 14 15  1  0
 15 16  2  0
 16 17  1  0
 17 18  2  0
 18 19  1  0
 19 20  1  0
 20 21  2  0
 21 22  1  0
 22 23  1  0
 23 24  2  0
 24 25  1  0
 25 26  2  0
 26 27  1  0
 27 28  2  0
 10  5  1  0
 19 11  1  0
 28 20  1  0
 18 13  1  0
 28 23  1  0
  4 29  1  0
  4 30  1  0
  6 31  1  0
  7 32  1  0
  8 33  1  0
  9 34  1  0
 10 35  1  0
 12 36  1  0
 12 37  1  0
 14 38  1  0
 15 39  1  0
 16 40  1  0
 17 41  1  0
 19 42  1  6
 21 43  1  0
 22 44  1  0
 24 45  1  0
 25 46  1  0
 26 47  1  0
 27 48  1  0
M  END
>  <smiles>  (79) 
O=S(=O)(Cc1ccccc1)N1Cc2ccccc2C1c1c[nH]c2ccccc12

>  <score_type>  (79) 
oracle

>  <origin>  (79) 
autodockgpu

>  <m_score__min__energy>  (79) 
-8.3300000000000001

>  <m_primary>  (79) 
energy

>  <rmsd>  (79) 
7.092152099612262

>  <m_score__min__rmsd>  (79) 
7.092152099612262

>  <meeko>  (79) 
{"free_energy": -7.26, "intermolecular_energy": -8.46, "internal_energy": -2.4, "cluster_size": 4, "cluster_id": 3, "rank_in_cluster": 1}

>  <energy>  (79) 
-7.21

>  <cluster_rmsd>  (79) 
0.04

>  <cluster>  (79) 
4

$$$$

     RDKit          3D

 48 52  0  0  0  0  0  0  0  0999 V2000
  139.2780   78.4100  219.9370 O   0  0  0  0  0  0  0  0  0  0  0  0
  139.1910   77.0540  220.6060 S   0  0  0  0  0  0  0  0  0  0  0  0
  137.9320   76.3680  220.1720 O   0  0  0  0  0  0  0  0  0  0  0  0
  139.1810   77.1980  222.3620 C   0  0  0  0  0  0  0  0  0  0  0  0
  140.0560   78.2850  222.8600 C   0  0  0  0  0  0  0  0  0  0  0  0
  139.6050   79.5720  223.0770 C   0  0  0  0  0  0  0  0  0  0  0  0
  140.3870   80.5950  223.5330 C   0  0  0  0  0  0  0  0  0  0  0  0
  141.7200   80.3060  223.7910 C   0  0  0  0  0  0  0  0  0  0  0  0
  142.1770   79.0110  223.5730 C   0  0  0  0  0  0  0  0  0  0  0  0
  141.3810   78.0010  223.1170 C   0  0  0  0  0  0  0  0  0  0  0  0
  140.5230   76.0750  220.1120 N   0  0  0  0  0  0  0  0  0  0  0  0
  140.6900   74.9370  221.0310 C   0  0  0  0  0  0  0  0  0  0  0  0
  142.0760   74.5210  220.7120 C   0  0  0  0  0  0  0  0  0  0  0  0
  142.6670   73.2740  220.8480 C   0  0  0  0  0  0  0  0  0  0  0  0
  144.0020   73.1130  220.4810 C   0  0  0  0  0  0  0  0  0  0  0  0
  144.6970   74.2010  219.9930 C   0  0  0  0  0  0  0  0  0  0  0  0
  144.0670   75.4390  219.8710 C   0  0  0  0  0  0  0  0  0  0  0  0
  142.7490   75.6210  220.2270 C   0  0  0  0  0  0  0  0  0  0  0  0
  141.7760   76.7410  220.2360 C   0  0  1  0  0  0  0  0  0  0  0  0
  142.0650   77.7350  219.1770 C   0  0  0  0  0  0  0  0  0  0  0  0
  142.5100   77.5880  217.8970 C   0  0  0  0  0  0  0  0  0  0  0  0
  142.6410   78.7900  217.2960 N   0  0  0  0  0  0  0  0  0  0  0  0
  142.2790   79.7200  218.1920 C   0  0  0  0  0  0  0  0  0  0  0  0
  142.2240   81.1030  218.0970 C   0  0  0  0  0  0  0  0  0  0  0  0
  141.8180   81.9040  219.1430 C   0  0  0  0  0  0  0  0  0  0  0  0
  141.4530   81.2860  220.3230 C   0  0  0  0  0  0  0  0  0  0  0  0
  141.5110   79.9130  220.4060 C   0  0  0  0  0  0  0  0  0  0  0  0
  141.9160   79.0990  219.3700 C   0  0  0  0  0  0  0  0  0  0  0  0
  138.1508   77.3990  222.6911 H   0  0  0  0  0  0  0  0  0  0  0  0
  139.5664   76.2525  222.7713 H   0  0  0  0  0  0  0  0  0  0  0  0
  138.5466   79.7876  222.8690 H   0  0  0  0  0  0  0  0  0  0  0  0
  139.9781   81.6042  223.6890 H   0  0  0  0  0  0  0  0  0  0  0  0
  142.4015   81.0863  224.1607 H   0  0  0  0  0  0  0  0  0  0  0  0
  143.2346   78.7894  223.7787 H   0  0  0  0  0  0  0  0  0  0  0  0
  141.7842   76.9898  222.9590 H   0  0  0  0  0  0  0  0  0  0  0  0
  140.5927   75.2479  222.0817 H   0  0  0  0  0  0  0  0  0  0  0  0
  139.9382   74.1428  220.9125 H   0  0  0  0  0  0  0  0  0  0  0  0
  142.0902   72.4234  221.2402 H   0  0  0  0  0  0  0  0  0  0  0  0
  144.4940   72.1340  220.5788 H   0  0  0  0  0  0  0  0  0  0  0  0
  145.7514   74.0912  219.6993 H   0  0  0  0  0  0  0  0  0  0  0  0
  144.6383   76.2937  219.4797 H   0  0  0  0  0  0  0  0  0  0  0  0
  141.8083   77.3605  221.1444 H   0  0  0  0  0  0  0  0  0  0  0  0
  142.7320   76.6224  217.4191 H   0  0  0  0  0  0  0  0  0  0  0  0
  142.9550   79.0250  216.3310 H   0  0  0  0  0  0  0  0  0  0  0  0
  142.5159   81.5793  217.1494 H   0  0  0  0  0  0  0  0  0  0  0  0
  141.7858   82.9988  219.0412 H   0  0  0  0  0  0  0  0  0  0  0  0
  141.1204   81.8829  221.1850 H   0  0  0  0  0  0  0  0  0  0  0  0
  141.2172   79.4382  221.3538 H   0  0  0  0  0  0  0  0  0  0  0  0
  1  2  2  0
  2  3  2  0
  2  4  1  0
  4  5  1  0
  5  6  2  0
  6  7  1  0
  7  8  2  0
  8  9  1  0
  9 10  2  0
  2 11  1  0
 11 12  1  0
 12 13  1  0
 13 14  2  0
 14 15  1  0
 15 16  2  0
 16 17  1  0
 17 18  2  0
 18 19  1  0
 19 20  1  0
 20 21  2  0
 21 22  1  0
 22 23  1  0
 23 24  2  0
 24 25  1  0
 25 26  2  0
 26 27  1  0
 27 28  2  0
 10  5  1  0
 19 11  1  0
 28 20  1  0
 18 13  1  0
 28 23  1  0
  4 29  1  0
  4 30  1  0
  6 31  1  0
  7 32  1  0
  8 33  1  0
  9 34  1  0
 10 35  1  0
 12 36  1  0
 12 37  1  0
 14 38  1  0
 15 39  1  0
 16 40  1  0
 17 41  1  0
 19 42  1  1
 21 43  1  0
 22 44  1  0
 24 45  1  0
 25 46  1  0
 26 47  1  0
 27 48  1  0
M  END
>  <smiles>  (80) 
O=S(=O)(Cc1ccccc1)N1Cc2ccccc2C1c1c[nH]c2ccccc12

>  <score_type>  (80) 
oracle

>  <origin>  (80) 
autodockgpu

>  <m_score__min__energy>  (80) 
-8.3300000000000001

>  <m_primary>  (80) 
energy

>  <rmsd>  (80) 
4.5087406022894

>  <m_score__min__rmsd>  (80) 
4.5087406022894

>  <meeko>  (80) 
{"free_energy": -7.54, "intermolecular_energy": -8.74, "internal_energy": -2.23, "cluster_size": 7, "cluster_id": 2, "rank_in_cluster": 2}

>  <energy>  (80) 
-7.21

>  <cluster_rmsd>  (80) 
0.06

>  <cluster>  (80) 
4

$$$$

     RDKit          3D

 48 52  0  0  0  0  0  0  0  0999 V2000
  135.7100   68.6250  223.8640 O   0  0  0  0  0  0  0  0  0  0  0  0
  135.6280   69.9550  224.5840 S   0  0  0  0  0  0  0  0  0  0  0  0
  135.5640   69.7140  226.0620 O   0  0  0  0  0  0  0  0  0  0  0  0
  134.2010   70.8690  224.0980 C   0  0  0  0  0  0  0  0  0  0  0  0
  133.7100   71.7810  225.1560 C   0  0  0  0  0  0  0  0  0  0  0  0
  132.9190   71.3570  226.2070 C   0  0  0  0  0  0  0  0  0  0  0  0
  132.4500   72.1730  227.1960 C   0  0  0  0  0  0  0  0  0  0  0  0
  132.7980   73.5150  227.1270 C   0  0  0  0  0  0  0  0  0  0  0  0
  133.5940   73.9460  226.0700 C   0  0  0  0  0  0  0  0  0  0  0  0
  134.0540   73.1150  225.0910 C   0  0  0  0  0  0  0  0  0  0  0  0
  137.0470   70.8810  224.2610 N   0  0  0  0  0  0  0  0  0  0  0  0
  136.8880   71.6450  223.0130 C   0  0  0  0  0  0  0  0  0  0  0  0
  138.2990   71.9770  222.7070 C   0  0  0  0  0  0  0  0  0  0  0  0
  138.8070   73.0410  221.9770 C   0  0  0  0  0  0  0  0  0  0  0  0
  140.1860   73.1550  221.8140 C   0  0  0  0  0  0  0  0  0  0  0  0
  141.0070   72.2040  222.3850 C   0  0  0  0  0  0  0  0  0  0  0  0
  140.4580   71.1480  223.1120 C   0  0  0  0  0  0  0  0  0  0  0  0
  139.0990   71.0160  223.2860 C   0  0  0  0  0  0  0  0  0  0  0  0
  138.1820   70.0690  223.9690 C   0  0  1  0  0  0  0  0  0  0  0  0
  138.8170   69.4340  225.1440 C   0  0  0  0  0  0  0  0  0  0  0  0
  138.8250   68.1410  225.5800 C   0  0  0  0  0  0  0  0  0  0  0  0
  139.5360   68.0260  226.7220 N   0  0  0  0  0  0  0  0  0  0  0  0
  139.9910   69.2500  227.0270 C   0  0  0  0  0  0  0  0  0  0  0  0
  140.7700   69.6930  228.0870 C   0  0  0  0  0  0  0  0  0  0  0  0
  141.1440   71.0120  228.2340 C   0  0  0  0  0  0  0  0  0  0  0  0
  140.7180   71.9120  227.2760 C   0  0  0  0  0  0  0  0  0  0  0  0
  139.9460   71.4600  226.2290 C   0  0  0  0  0  0  0  0  0  0  0  0
  139.5630   70.1460  226.0690 C   0  0  0  0  0  0  0  0  0  0  0  0
  134.4533   71.4665  223.2095 H   0  0  0  0  0  0  0  0  0  0  0  0
  133.4003   70.1436  223.8913 H   0  0  0  0  0  0  0  0  0  0  0  0
  132.6494   70.2914  226.2495 H   0  0  0  0  0  0  0  0  0  0  0  0
  131.8235   71.7839  228.0121 H   0  0  0  0  0  0  0  0  0  0  0  0
  132.4513   74.2241  227.8931 H   0  0  0  0  0  0  0  0  0  0  0  0
  133.8660   75.0107  226.0215 H   0  0  0  0  0  0  0  0  0  0  0  0
  134.6816   73.4980  224.2728 H   0  0  0  0  0  0  0  0  0  0  0  0
  136.4351   71.0331  222.2190 H   0  0  0  0  0  0  0  0  0  0  0  0
  136.2231   72.5174  223.0955 H   0  0  0  0  0  0  0  0  0  0  0  0
  138.1300   73.7853  221.5324 H   0  0  0  0  0  0  0  0  0  0  0  0
  140.6136   73.9898  221.2393 H   0  0  0  0  0  0  0  0  0  0  0  0
  142.0980   72.2791  222.2663 H   0  0  0  0  0  0  0  0  0  0  0  0
  141.1295   70.4000  223.5587 H   0  0  0  0  0  0  0  0  0  0  0  0
  137.9001   69.1951  223.3633 H   0  0  0  0  0  0  0  0  0  0  0  0
  138.3210   67.3064  225.0706 H   0  0  0  0  0  0  0  0  0  0  0  0
  139.7340   67.1850  227.3050 H   0  0  0  0  0  0  0  0  0  0  0  0
  141.1022   68.9628  228.8397 H   0  0  0  0  0  0  0  0  0  0  0  0
  141.7606   71.3368  229.0851 H   0  0  0  0  0  0  0  0  0  0  0  0
  140.9918   72.9749  227.3486 H   0  0  0  0  0  0  0  0  0  0  0  0
  139.6157   72.1908  225.4762 H   0  0  0  0  0  0  0  0  0  0  0  0
  1  2  2  0
  2  3  2  0
  2  4  1  0
  4  5  1  0
  5  6  2  0
  6  7  1  0
  7  8  2  0
  8  9  1  0
  9 10  2  0
  2 11  1  0
 11 12  1  0
 12 13  1  0
 13 14  2  0
 14 15  1  0
 15 16  2  0
 16 17  1  0
 17 18  2  0
 18 19  1  0
 19 20  1  0
 20 21  2  0
 21 22  1  0
 22 23  1  0
 23 24  2  0
 24 25  1  0
 25 26  2  0
 26 27  1  0
 27 28  2  0
 10  5  1  0
 19 11  1  0
 28 20  1  0
 18 13  1  0
 28 23  1  0
  4 29  1  0
  4 30  1  0
  6 31  1  0
  7 32  1  0
  8 33  1  0
  9 34  1  0
 10 35  1  0
 12 36  1  0
 12 37  1  0
 14 38  1  0
 15 39  1  0
 16 40  1  0
 17 41  1  0
 19 42  1  6
 21 43  1  0
 22 44  1  0
 24 45  1  0
 25 46  1  0
 26 47  1  0
 27 48  1  0
M  END
>  <smiles>  (81) 
O=S(=O)(Cc1ccccc1)N1Cc2ccccc2C1c1c[nH]c2ccccc12

>  <score_type>  (81) 
oracle

>  <origin>  (81) 
autodockgpu

>  <m_score__min__energy>  (81) 
-8.3300000000000001

>  <m_primary>  (81) 
energy

>  <rmsd>  (81) 
10.191659463770677

>  <m_score__min__rmsd>  (81) 
10.191659463770677

>  <meeko>  (81) 
{"free_energy": -8.3, "intermolecular_energy": -9.5, "internal_energy": -1.69, "cluster_size": 13, "cluster_id": 1, "rank_in_cluster": 2}

>  <energy>  (81) 
-7.21

>  <cluster_rmsd>  (81) 
0.08

>  <cluster>  (81) 
4

$$$$

     RDKit          3D

 48 52  0  0  0  0  0  0  0  0999 V2000
  134.5620   70.3310  223.4240 O   0  0  0  0  0  0  0  0  0  0  0  0
  135.6090   69.9700  224.4560 S   0  0  0  0  0  0  0  0  0  0  0  0
  135.9680   68.5220  224.3120 O   0  0  0  0  0  0  0  0  0  0  0  0
  135.0260   70.2480  226.0960 C   0  0  0  0  0  0  0  0  0  0  0  0
  134.2590   71.5080  226.2320 C   0  0  0  0  0  0  0  0  0  0  0  0
  134.5440   72.6430  225.4990 C   0  0  0  0  0  0  0  0  0  0  0  0
  133.8580   73.8200  225.6020 C   0  0  0  0  0  0  0  0  0  0  0  0
  132.8070   73.8600  226.5090 C   0  0  0  0  0  0  0  0  0  0  0  0
  132.5170   72.7190  227.2490 C   0  0  0  0  0  0  0  0  0  0  0  0
  133.2140   71.5520  227.1320 C   0  0  0  0  0  0  0  0  0  0  0  0
  137.0390   70.8970  224.1840 N   0  0  0  0  0  0  0  0  0  0  0  0
  136.9080   71.6890  222.9510 C   0  0  0  0  0  0  0  0  0  0  0  0
  138.3270   72.0230  222.6820 C   0  0  0  0  0  0  0  0  0  0  0  0
  138.8530   73.1010  221.9870 C   0  0  0  0  0  0  0  0  0  0  0  0
  140.2360   73.2130  221.8550 C   0  0  0  0  0  0  0  0  0  0  0  0
  141.0420   72.2460  222.4220 C   0  0  0  0  0  0  0  0  0  0  0  0
  140.4740   71.1760  223.1120 C   0  0  0  0  0  0  0  0  0  0  0  0
  139.1100   71.0450  223.2550 C   0  0  0  0  0  0  0  0  0  0  0  0
  138.1760   70.0870  223.8970 C   0  0  1  0  0  0  0  0  0  0  0  0
  138.7850   69.4220  225.0700 C   0  0  0  0  0  0  0  0  0  0  0  0
  138.7590   68.1240  225.4880 C   0  0  0  0  0  0  0  0  0  0  0  0
  139.4550   67.9780  226.6360 N   0  0  0  0  0  0  0  0  0  0  0  0
  139.9330   69.1880  226.9630 C   0  0  0  0  0  0  0  0  0  0  0  0
  140.7100   69.5990  228.0370 C   0  0  0  0  0  0  0  0  0  0  0  0
  141.1110   70.9070  228.2060 C   0  0  0  0  0  0  0  0  0  0  0  0
  140.7150   71.8290  227.2560 C   0  0  0  0  0  0  0  0  0  0  0  0
  139.9450   71.4090  226.1950 C   0  0  0  0  0  0  0  0  0  0  0  0
  139.5360   70.1060  226.0130 C   0  0  0  0  0  0  0  0  0  0  0  0
  134.3755   69.4089  226.3837 H   0  0  0  0  0  0  0  0  0  0  0  0
  135.9073   70.3272  226.7494 H   0  0  0  0  0  0  0  0  0  0  0  0
  135.3791   72.5964  224.7845 H   0  0  0  0  0  0  0  0  0  0  0  0
  134.1260   74.6966  224.9939 H   0  0  0  0  0  0  0  0  0  0  0  0
  132.2147   74.7777  226.6396 H   0  0  0  0  0  0  0  0  0  0  0  0
  131.6831   72.7594  227.9652 H   0  0  0  0  0  0  0  0  0  0  0  0
  132.9507   70.6721  227.7373 H   0  0  0  0  0  0  0  0  0  0  0  0
  136.4699   71.0966  222.1342 H   0  0  0  0  0  0  0  0  0  0  0  0
  136.2440   72.5616  223.0391 H   0  0  0  0  0  0  0  0  0  0  0  0
  138.1878   73.8578  221.5456 H   0  0  0  0  0  0  0  0  0  0  0  0
  140.6783   74.0585  221.3077 H   0  0  0  0  0  0  0  0  0  0  0  0
  142.1356   72.3200  222.3290 H   0  0  0  0  0  0  0  0  0  0  0  0
  141.1334   70.4150  223.5547 H   0  0  0  0  0  0  0  0  0  0  0  0
  137.9028   69.2283  223.2662 H   0  0  0  0  0  0  0  0  0  0  0  0
  138.2419   67.3079  224.9621 H   0  0  0  0  0  0  0  0  0  0  0  0
  139.6280   67.1250  227.2090 H   0  0  0  0  0  0  0  0  0  0  0  0
  141.0180   68.8515  228.7829 H   0  0  0  0  0  0  0  0  0  0  0  0
  141.7254   71.2066  229.0678 H   0  0  0  0  0  0  0  0  0  0  0  0
  141.0111   72.8845  227.3464 H   0  0  0  0  0  0  0  0  0  0  0  0
  139.6385   72.1572  225.4492 H   0  0  0  0  0  0  0  0  0  0  0  0
  1  2  2  0
  2  3  2  0
  2  4  1  0
  4  5  1  0
  5  6  2  0
  6  7  1  0
  7  8  2  0
  8  9  1  0
  9 10  2  0
  2 11  1  0
 11 12  1  0
 12 13  1  0
 13 14  2  0
 14 15  1  0
 15 16  2  0
 16 17  1  0
 17 18  2  0
 18 19  1  0
 19 20  1  0
 20 21  2  0
 21 22  1  0
 22 23  1  0
 23 24  2  0
 24 25  1  0
 25 26  2  0
 26 27  1  0
 27 28  2  0
 10  5  1  0
 19 11  1  0
 28 20  1  0
 18 13  1  0
 28 23  1  0
  4 29  1  0
  4 30  1  0
  6 31  1  0
  7 32  1  0
  8 33  1  0
  9 34  1  0
 10 35  1  0
 12 36  1  0
 12 37  1  0
 14 38  1  0
 15 39  1  0
 16 40  1  0
 17 41  1  0
 19 42  1  6
 21 43  1  0
 22 44  1  0
 24 45  1  0
 25 46  1  0
 26 47  1  0
 27 48  1  0
M  END
>  <smiles>  (82) 
O=S(=O)(Cc1ccccc1)N1Cc2ccccc2C1c1c[nH]c2ccccc12

>  <score_type>  (82) 
oracle

>  <origin>  (82) 
autodockgpu

>  <m_score__min__energy>  (82) 
-8.3300000000000001

>  <m_primary>  (82) 
energy

>  <rmsd>  (82) 
10.198125299964804

>  <m_score__min__rmsd>  (82) 
10.198125299964804

>  <meeko>  (82) 
{"free_energy": -8.12, "intermolecular_energy": -9.31, "internal_energy": -1.71, "cluster_size": 13, "cluster_id": 1, "rank_in_cluster": 11}

>  <energy>  (82) 
-7.21

>  <cluster_rmsd>  (82) 
0.05

>  <cluster>  (82) 
4

$$$$

     RDKit          3D

 48 52  0  0  0  0  0  0  0  0999 V2000
  135.7480   68.5400  223.8840 O   0  0  0  0  0  0  0  0  0  0  0  0
  135.6400   69.8830  224.5740 S   0  0  0  0  0  0  0  0  0  0  0  0
  135.5610   69.6730  226.0560 O   0  0  0  0  0  0  0  0  0  0  0  0
  134.2080   70.7670  224.0510 C   0  0  0  0  0  0  0  0  0  0  0  0
  133.4370   71.3410  225.1780 C   0  0  0  0  0  0  0  0  0  0  0  0
  133.7910   72.5180  225.8090 C   0  0  0  0  0  0  0  0  0  0  0  0
  133.1030   73.0710  226.8510 C   0  0  0  0  0  0  0  0  0  0  0  0
  131.9750   72.3930  227.2940 C   0  0  0  0  0  0  0  0  0  0  0  0
  131.6160   71.2080  226.6620 C   0  0  0  0  0  0  0  0  0  0  0  0
  132.3160   70.6700  225.6220 C   0  0  0  0  0  0  0  0  0  0  0  0
  137.0520   70.8200  224.2500 N   0  0  0  0  0  0  0  0  0  0  0  0
  136.8770   71.5970  223.0110 C   0  0  0  0  0  0  0  0  0  0  0  0
  138.2840   71.9400  222.6960 C   0  0  0  0  0  0  0  0  0  0  0  0
  138.7790   73.0150  221.9740 C   0  0  0  0  0  0  0  0  0  0  0  0
  140.1560   73.1390  221.8010 C   0  0  0  0  0  0  0  0  0  0  0  0
  140.9880   72.1860  222.3550 C   0  0  0  0  0  0  0  0  0  0  0  0
  140.4510   71.1190  223.0740 C   0  0  0  0  0  0  0  0  0  0  0  0
  139.0940   70.9780  223.2580 C   0  0  0  0  0  0  0  0  0  0  0  0
  138.1880   70.0190  223.9380 C   0  0  1  0  0  0  0  0  0  0  0  0
  138.8370   69.3740  225.1010 C   0  0  0  0  0  0  0  0  0  0  0  0
  138.8620   68.0750  225.5180 C   0  0  0  0  0  0  0  0  0  0  0  0
  139.5810   67.9520  226.6550 N   0  0  0  0  0  0  0  0  0  0  0  0
  140.0230   69.1770  226.9750 C   0  0  0  0  0  0  0  0  0  0  0  0
  140.8010   69.6140  228.0380 C   0  0  0  0  0  0  0  0  0  0  0  0
  141.1610   70.9350  228.2020 C   0  0  0  0  0  0  0  0  0  0  0  0
  140.7190   71.8430  227.2590 C   0  0  0  0  0  0  0  0  0  0  0  0
  139.9470   71.3980  226.2100 C   0  0  0  0  0  0  0  0  0  0  0  0
  139.5790   70.0820  226.0330 C   0  0  0  0  0  0  0  0  0  0  0  0
  134.5246   71.5869  223.3896 H   0  0  0  0  0  0  0  0  0  0  0  0
  133.5511   70.0519  223.5341 H   0  0  0  0  0  0  0  0  0  0  0  0
  134.6867   73.0447  225.4480 H   0  0  0  0  0  0  0  0  0  0  0  0
  133.4280   74.0120  227.3188 H   0  0  0  0  0  0  0  0  0  0  0  0
  131.3768   72.7862  228.1292 H   0  0  0  0  0  0  0  0  0  0  0  0
  130.7214   70.6767  227.0189 H   0  0  0  0  0  0  0  0  0  0  0  0
  131.9961   69.7288  225.1511 H   0  0  0  0  0  0  0  0  0  0  0  0
  136.4201   70.9912  222.2146 H   0  0  0  0  0  0  0  0  0  0  0  0
  136.2080   72.4647  223.1087 H   0  0  0  0  0  0  0  0  0  0  0  0
  138.0938   73.7601  221.5435 H   0  0  0  0  0  0  0  0  0  0  0  0
  140.5738   73.9827  221.2321 H   0  0  0  0  0  0  0  0  0  0  0  0
  142.0776   72.2690  222.2286 H   0  0  0  0  0  0  0  0  0  0  0  0
  141.1302   70.3693  223.5061 H   0  0  0  0  0  0  0  0  0  0  0  0
  137.9054   69.1513  223.3239 H   0  0  0  0  0  0  0  0  0  0  0  0
  138.3648   67.2421  224.9994 H   0  0  0  0  0  0  0  0  0  0  0  0
  139.7920   67.1060  227.2250 H   0  0  0  0  0  0  0  0  0  0  0  0
  141.1441   68.8772  228.7792 H   0  0  0  0  0  0  0  0  0  0  0  0
  141.7787   71.2548  229.0541 H   0  0  0  0  0  0  0  0  0  0  0  0
  140.9807   72.9079  227.3455 H   0  0  0  0  0  0  0  0  0  0  0  0
  139.6038   72.1359  225.4699 H   0  0  0  0  0  0  0  0  0  0  0  0
  1  2  2  0
  2  3  2  0
  2  4  1  0
  4  5  1  0
  5  6  2  0
  6  7  1  0
  7  8  2  0
  8  9  1  0
  9 10  2  0
  2 11  1  0
 11 12  1  0
 12 13  1  0
 13 14  2  0
 14 15  1  0
 15 16  2  0
 16 17  1  0
 17 18  2  0
 18 19  1  0
 19 20  1  0
 20 21  2  0
 21 22  1  0
 22 23  1  0
 23 24  2  0
 24 25  1  0
 25 26  2  0
 26 27  1  0
 27 28  2  0
 10  5  1  0
 19 11  1  0
 28 20  1  0
 18 13  1  0
 28 23  1  0
  4 29  1  0
  4 30  1  0
  6 31  1  0
  7 32  1  0
  8 33  1  0
  9 34  1  0
 10 35  1  0
 12 36  1  0
 12 37  1  0
 14 38  1  0
 15 39  1  0
 16 40  1  0
 17 41  1  0
 19 42  1  6
 21 43  1  0
 22 44  1  0
 24 45  1  0
 25 46  1  0
 26 47  1  0
 27 48  1  0
M  END
>  <smiles>  (83) 
O=S(=O)(Cc1ccccc1)N1Cc2ccccc2C1c1c[nH]c2ccccc12

>  <score_type>  (83) 
oracle

>  <origin>  (83) 
autodockgpu

>  <m_score__min__energy>  (83) 
-8.3300000000000001

>  <m_primary>  (83) 
energy

>  <rmsd>  (83) 
10.224534409798627

>  <m_score__min__rmsd>  (83) 
10.224534409798627

>  <meeko>  (83) 
{"free_energy": -8.17, "intermolecular_energy": -9.36, "internal_energy": -1.63, "cluster_size": 13, "cluster_id": 1, "rank_in_cluster": 5}

>  <energy>  (83) 
-7.21

>  <cluster_rmsd>  (83) 
0.06

>  <cluster>  (83) 
4

$$$$

     RDKit          3D

 48 52  0  0  0  0  0  0  0  0999 V2000
  134.5840   70.3040  223.4160 O   0  0  0  0  0  0  0  0  0  0  0  0
  135.6270   69.9730  224.4640 S   0  0  0  0  0  0  0  0  0  0  0  0
  135.9940   68.5240  224.3560 O   0  0  0  0  0  0  0  0  0  0  0  0
  135.0310   70.2850  226.0930 C   0  0  0  0  0  0  0  0  0  0  0  0
  134.2810   71.5580  226.2010 C   0  0  0  0  0  0  0  0  0  0  0  0
  133.2450   71.7460  227.0960 C   0  0  0  0  0  0  0  0  0  0  0  0
  132.5340   72.9060  227.2190 C   0  0  0  0  0  0  0  0  0  0  0  0
  132.8880   73.9560  226.3810 C   0  0  0  0  0  0  0  0  0  0  0  0
  133.9300   73.7700  225.4790 C   0  0  0  0  0  0  0  0  0  0  0  0
  134.6300   72.6030  225.3710 C   0  0  0  0  0  0  0  0  0  0  0  0
  137.0530   70.9020  224.1800 N   0  0  0  0  0  0  0  0  0  0  0  0
  136.9120   71.6920  222.9460 C   0  0  0  0  0  0  0  0  0  0  0  0
  138.3280   72.0270  222.6660 C   0  0  0  0  0  0  0  0  0  0  0  0
  138.8480   73.1050  221.9650 C   0  0  0  0  0  0  0  0  0  0  0  0
  140.2300   73.2180  221.8240 C   0  0  0  0  0  0  0  0  0  0  0  0
  141.0410   72.2530  222.3860 C   0  0  0  0  0  0  0  0  0  0  0  0
  140.4800   71.1840  223.0830 C   0  0  0  0  0  0  0  0  0  0  0  0
  139.1170   71.0520  223.2360 C   0  0  0  0  0  0  0  0  0  0  0  0
  138.1890   70.0940  223.8860 C   0  0  1  0  0  0  0  0  0  0  0  0
  138.8070   69.4320  225.0560 C   0  0  0  0  0  0  0  0  0  0  0  0
  138.7940   68.1330  225.4730 C   0  0  0  0  0  0  0  0  0  0  0  0
  139.4950   67.9910  226.6180 N   0  0  0  0  0  0  0  0  0  0  0  0
  139.9640   69.2040  226.9450 C   0  0  0  0  0  0  0  0  0  0  0  0
  140.7410   69.6210  228.0170 C   0  0  0  0  0  0  0  0  0  0  0  0
  141.1330   70.9320  228.1850 C   0  0  0  0  0  0  0  0  0  0  0  0
  140.7260   71.8510  227.2380 C   0  0  0  0  0  0  0  0  0  0  0  0
  139.9560   71.4260  226.1790 C   0  0  0  0  0  0  0  0  0  0  0  0
  139.5560   70.1200  225.9970 C   0  0  0  0  0  0  0  0  0  0  0  0
  134.3654   69.4600  226.3867 H   0  0  0  0  0  0  0  0  0  0  0  0
  135.9064   70.3617  226.7546 H   0  0  0  0  0  0  0  0  0  0  0  0
  132.9750   70.9060  227.7529 H   0  0  0  0  0  0  0  0  0  0  0  0
  131.7173   73.0043  227.9493 H   0  0  0  0  0  0  0  0  0  0  0  0
  132.3541   74.9165  226.4300 H   0  0  0  0  0  0  0  0  0  0  0  0
  134.2042   74.6060  224.8188 H   0  0  0  0  0  0  0  0  0  0  0  0
  135.4484   72.4990  224.6434 H   0  0  0  0  0  0  0  0  0  0  0  0
  136.4685   71.0977  222.1335 H   0  0  0  0  0  0  0  0  0  0  0  0
  136.2477   72.5640  223.0375 H   0  0  0  0  0  0  0  0  0  0  0  0
  138.1791   73.8601  221.5265 H   0  0  0  0  0  0  0  0  0  0  0  0
  140.6677   74.0635  221.2731 H   0  0  0  0  0  0  0  0  0  0  0  0
  142.1337   72.3277  222.2836 H   0  0  0  0  0  0  0  0  0  0  0  0
  141.1436   70.4250  223.5229 H   0  0  0  0  0  0  0  0  0  0  0  0
  137.9129   69.2342  223.2580 H   0  0  0  0  0  0  0  0  0  0  0  0
  138.2821   67.3131  224.9478 H   0  0  0  0  0  0  0  0  0  0  0  0
  139.6760   67.1390  227.1900 H   0  0  0  0  0  0  0  0  0  0  0  0
  141.0565   68.8758  228.7621 H   0  0  0  0  0  0  0  0  0  0  0  0
  141.7491   71.2357  229.0442 H   0  0  0  0  0  0  0  0  0  0  0  0
  141.0134   72.9089  227.3287 H   0  0  0  0  0  0  0  0  0  0  0  0
  139.6417   72.1725  225.4347 H   0  0  0  0  0  0  0  0  0  0  0  0
  1  2  2  0
  2  3  2  0
  2  4  1  0
  4  5  1  0
  5  6  2  0
  6  7  1  0
  7  8  2  0
  8  9  1  0
  9 10  2  0
  2 11  1  0
 11 12  1  0
 12 13  1  0
 13 14  2  0
 14 15  1  0
 15 16  2  0
 16 17  1  0
 17 18  2  0
 18 19  1  0
 19 20  1  0
 20 21  2  0
 21 22  1  0
 22 23  1  0
 23 24  2  0
 24 25  1  0
 25 26  2  0
 26 27  1  0
 27 28  2  0
 10  5  1  0
 19 11  1  0
 28 20  1  0
 18 13  1  0
 28 23  1  0
  4 29  1  0
  4 30  1  0
  6 31  1  0
  7 32  1  0
  8 33  1  0
  9 34  1  0
 10 35  1  0
 12 36  1  0
 12 37  1  0
 14 38  1  0
 15 39  1  0
 16 40  1  0
 17 41  1  0
 19 42  1  6
 21 43  1  0
 22 44  1  0
 24 45  1  0
 25 46  1  0
 26 47  1  0
 27 48  1  0
M  END
>  <smiles>  (84) 
O=S(=O)(Cc1ccccc1)N1Cc2ccccc2C1c1c[nH]c2ccccc12

>  <score_type>  (84) 
oracle

>  <origin>  (84) 
autodockgpu

>  <m_score__min__energy>  (84) 
-8.3300000000000001

>  <m_primary>  (84) 
energy

>  <rmsd>  (84) 
10.17923388019951

>  <m_score__min__rmsd>  (84) 
10.17923388019951

>  <meeko>  (84) 
{"free_energy": -8.12, "intermolecular_energy": -9.31, "internal_energy": -1.71, "cluster_size": 13, "cluster_id": 1, "rank_in_cluster": 9}

>  <energy>  (84) 
-7.2

>  <cluster_rmsd>  (84) 
0.09

>  <cluster>  (84) 
4

$$$$

     RDKit          3D

 48 52  0  0  0  0  0  0  0  0999 V2000
  140.2810   74.8910  222.3280 O   0  0  0  0  0  0  0  0  0  0  0  0
  140.1680   76.3820  222.0860 S   0  0  0  0  0  0  0  0  0  0  0  0
  141.1000   77.1050  223.0100 O   0  0  0  0  0  0  0  0  0  0  0  0
  138.5280   76.9620  222.3680 C   0  0  0  0  0  0  0  0  0  0  0  0
  138.4630   78.4230  222.6030 C   0  0  0  0  0  0  0  0  0  0  0  0
  139.0600   79.0370  223.6870 C   0  0  0  0  0  0  0  0  0  0  0  0
  139.0180   80.3800  223.9310 C   0  0  0  0  0  0  0  0  0  0  0  0
  138.3240   81.1660  223.0210 C   0  0  0  0  0  0  0  0  0  0  0  0
  137.7220   80.5520  221.9290 C   0  0  0  0  0  0  0  0  0  0  0  0
  137.7760   79.2080  221.7000 C   0  0  0  0  0  0  0  0  0  0  0  0
  140.6420   76.7460  220.4680 N   0  0  0  0  0  0  0  0  0  0  0  0
  141.1880   75.5470  219.8110 C   0  0  0  0  0  0  0  0  0  0  0  0
  141.9130   76.1580  218.6720 C   0  0  0  0  0  0  0  0  0  0  0  0
  142.2260   75.6050  217.4390 C   0  0  0  0  0  0  0  0  0  0  0  0
  142.9230   76.3730  216.5090 C   0  0  0  0  0  0  0  0  0  0  0  0
  143.2820   77.6630  216.8430 C   0  0  0  0  0  0  0  0  0  0  0  0
  142.9500   78.1830  218.0930 C   0  0  0  0  0  0  0  0  0  0  0  0
  142.2600   77.4430  219.0270 C   0  0  0  0  0  0  0  0  0  0  0  0
  141.7460   77.6460  220.4040 C   0  0  1  0  0  0  0  0  0  0  0  0
  141.4140   79.0640  220.6670 C   0  0  0  0  0  0  0  0  0  0  0  0
  140.6830   79.9690  219.9560 C   0  0  0  0  0  0  0  0  0  0  0  0
  140.6580   81.1630  220.5850 N   0  0  0  0  0  0  0  0  0  0  0  0
  141.3760   81.0310  221.7090 C   0  0  0  0  0  0  0  0  0  0  0  0
  141.6690   81.9420  222.7140 C   0  0  0  0  0  0  0  0  0  0  0  0
  142.4360   81.6160  223.8120 C   0  0  0  0  0  0  0  0  0  0  0  0
  142.9210   80.3250  223.8980 C   0  0  0  0  0  0  0  0  0  0  0  0
  142.6240   79.4310  222.8950 C   0  0  0  0  0  0  0  0  0  0  0  0
  141.8590   79.7410  221.7910 C   0  0  0  0  0  0  0  0  0  0  0  0
  137.9147   76.7211  221.4872 H   0  0  0  0  0  0  0  0  0  0  0  0
  138.1552   76.4658  223.2762 H   0  0  0  0  0  0  0  0  0  0  0  0
  139.6053   78.4021  224.4008 H   0  0  0  0  0  0  0  0  0  0  0  0
  139.5123   80.8197  224.8099 H   0  0  0  0  0  0  0  0  0  0  0  0
  138.2519   82.2546  223.1616 H   0  0  0  0  0  0  0  0  0  0  0  0
  137.1740   81.1818  221.2128 H   0  0  0  0  0  0  0  0  0  0  0  0
  137.2862   78.7634  220.8212 H   0  0  0  0  0  0  0  0  0  0  0  0
  141.8698   74.9964  220.4759 H   0  0  0  0  0  0  0  0  0  0  0  0
  140.4315   74.8027  219.5218 H   0  0  0  0  0  0  0  0  0  0  0  0
  141.9278   74.5738  217.1988 H   0  0  0  0  0  0  0  0  0  0  0  0
  143.1831   75.9578  215.5241 H   0  0  0  0  0  0  0  0  0  0  0  0
  143.8322   78.2832  216.1201 H   0  0  0  0  0  0  0  0  0  0  0  0
  143.2474   79.2128  218.3401 H   0  0  0  0  0  0  0  0  0  0  0  0
  142.4785   77.4325  221.1963 H   0  0  0  0  0  0  0  0  0  0  0  0
  140.1820   79.7553  219.0003 H   0  0  0  0  0  0  0  0  0  0  0  0
  140.1930   82.0550  220.3100 H   0  0  0  0  0  0  0  0  0  0  0  0
  141.2734   82.9651  222.6311 H   0  0  0  0  0  0  0  0  0  0  0  0
  142.6546   82.3586  224.5935 H   0  0  0  0  0  0  0  0  0  0  0  0
  143.5359   80.0163  224.7562 H   0  0  0  0  0  0  0  0  0  0  0  0
  143.0205   78.4084  222.9792 H   0  0  0  0  0  0  0  0  0  0  0  0
  1  2  2  0
  2  3  2  0
  2  4  1  0
  4  5  1  0
  5  6  2  0
  6  7  1  0
  7  8  2  0
  8  9  1  0
  9 10  2  0
  2 11  1  0
 11 12  1  0
 12 13  1  0
 13 14  2  0
 14 15  1  0
 15 16  2  0
 16 17  1  0
 17 18  2  0
 18 19  1  0
 19 20  1  0
 20 21  2  0
 21 22  1  0
 22 23  1  0
 23 24  2  0
 24 25  1  0
 25 26  2  0
 26 27  1  0
 27 28  2  0
 10  5  1  0
 19 11  1  0
 28 20  1  0
 18 13  1  0
 28 23  1  0
  4 29  1  0
  4 30  1  0
  6 31  1  0
  7 32  1  0
  8 33  1  0
  9 34  1  0
 10 35  1  0
 12 36  1  0
 12 37  1  0
 14 38  1  0
 15 39  1  0
 16 40  1  0
 17 41  1  0
 19 42  1  1
 21 43  1  0
 22 44  1  0
 24 45  1  0
 25 46  1  0
 26 47  1  0
 27 48  1  0
M  END
>  <smiles>  (85) 
O=S(=O)(Cc1ccccc1)N1Cc2ccccc2C1c1c[nH]c2ccccc12

>  <score_type>  (85) 
oracle

>  <origin>  (85) 
autodockgpu

>  <m_score__min__energy>  (85) 
-8.3300000000000001

>  <m_primary>  (85) 
energy

>  <rmsd>  (85) 
4.0458029295566496

>  <m_score__min__rmsd>  (85) 
4.0458029295566496

>  <meeko>  (85) 
{"free_energy": -7.21, "intermolecular_energy": -8.4, "internal_energy": -2.61, "cluster_size": 26, "cluster_id": 4, "rank_in_cluster": 9}

>  <energy>  (85) 
-7.2

>  <cluster_rmsd>  (85) 
0.08

>  <cluster>  (85) 
4

$$$$

     RDKit          3D

 48 52  0  0  0  0  0  0  0  0999 V2000
  140.2440   74.8830  222.3440 O   0  0  0  0  0  0  0  0  0  0  0  0
  140.1540   76.3750  222.1020 S   0  0  0  0  0  0  0  0  0  0  0  0
  141.1000   77.0840  223.0230 O   0  0  0  0  0  0  0  0  0  0  0  0
  138.5250   76.9820  222.3880 C   0  0  0  0  0  0  0  0  0  0  0  0
  138.4870   78.4390  222.6500 C   0  0  0  0  0  0  0  0  0  0  0  0
  139.0940   79.0210  223.7460 C   0  0  0  0  0  0  0  0  0  0  0  0
  139.0760   80.3600  224.0160 C   0  0  0  0  0  0  0  0  0  0  0  0
  138.3990   81.1770  223.1190 C   0  0  0  0  0  0  0  0  0  0  0  0
  137.7870   80.5940  222.0150 C   0  0  0  0  0  0  0  0  0  0  0  0
  137.8160   79.2540  221.7610 C   0  0  0  0  0  0  0  0  0  0  0  0
  140.6300   76.7310  220.4820 N   0  0  0  0  0  0  0  0  0  0  0  0
  141.1600   75.5240  219.8260 C   0  0  0  0  0  0  0  0  0  0  0  0
  141.8900   76.1240  218.6850 C   0  0  0  0  0  0  0  0  0  0  0  0
  142.1940   75.5650  217.4520 C   0  0  0  0  0  0  0  0  0  0  0  0
  142.8990   76.3230  216.5190 C   0  0  0  0  0  0  0  0  0  0  0  0
  143.2740   77.6100  216.8500 C   0  0  0  0  0  0  0  0  0  0  0  0
  142.9500   78.1360  218.1000 C   0  0  0  0  0  0  0  0  0  0  0  0
  142.2530   77.4060  219.0370 C   0  0  0  0  0  0  0  0  0  0  0  0
  141.7440   77.6180  220.4140 C   0  0  1  0  0  0  0  0  0  0  0  0
  141.4290   79.0400  220.6750 C   0  0  0  0  0  0  0  0  0  0  0  0
  140.7110   79.9540  219.9610 C   0  0  0  0  0  0  0  0  0  0  0  0
  140.6990   81.1490  220.5890 N   0  0  0  0  0  0  0  0  0  0  0  0
  141.4130   81.0090  221.7150 C   0  0  0  0  0  0  0  0  0  0  0  0
  141.7150   81.9170  222.7200 C   0  0  0  0  0  0  0  0  0  0  0  0
  142.4740   81.5820  223.8210 C   0  0  0  0  0  0  0  0  0  0  0  0
  142.9430   80.2850  223.9090 C   0  0  0  0  0  0  0  0  0  0  0  0
  142.6370   79.3930  222.9060 C   0  0  0  0  0  0  0  0  0  0  0  0
  141.8800   79.7130  221.8000 C   0  0  0  0  0  0  0  0  0  0  0  0
  137.9111   76.7696  221.5003 H   0  0  0  0  0  0  0  0  0  0  0  0
  138.1389   76.4766  223.2855 H   0  0  0  0  0  0  0  0  0  0  0  0
  139.6271   78.3627  224.4477 H   0  0  0  0  0  0  0  0  0  0  0  0
  139.5756   80.7733  224.9046 H   0  0  0  0  0  0  0  0  0  0  0  0
  138.3482   82.2641  223.2792 H   0  0  0  0  0  0  0  0  0  0  0  0
  137.2518   81.2470  221.3100 H   0  0  0  0  0  0  0  0  0  0  0  0
  137.3190   78.8352  220.8735 H   0  0  0  0  0  0  0  0  0  0  0  0
  141.8362   74.9662  220.4906 H   0  0  0  0  0  0  0  0  0  0  0  0
  140.3939   74.7885  219.5396 H   0  0  0  0  0  0  0  0  0  0  0  0
  141.8827   74.5372  217.2141 H   0  0  0  0  0  0  0  0  0  0  0  0
  143.1527   75.9027  215.5346 H   0  0  0  0  0  0  0  0  0  0  0  0
  143.8303   78.2224  216.1251 H   0  0  0  0  0  0  0  0  0  0  0  0
  143.2598   79.1628  218.3446 H   0  0  0  0  0  0  0  0  0  0  0  0
  142.4757   77.3979  221.2053 H   0  0  0  0  0  0  0  0  0  0  0  0
  140.2101   79.7458  219.0041 H   0  0  0  0  0  0  0  0  0  0  0  0
  140.2470   82.0460  220.3110 H   0  0  0  0  0  0  0  0  0  0  0  0
  141.3335   82.9452  222.6347 H   0  0  0  0  0  0  0  0  0  0  0  0
  142.6988   82.3221  224.6031 H   0  0  0  0  0  0  0  0  0  0  0  0
  143.5525   79.9697  224.7687 H   0  0  0  0  0  0  0  0  0  0  0  0
  143.0190   78.3651  222.9926 H   0  0  0  0  0  0  0  0  0  0  0  0
  1  2  2  0
  2  3  2  0
  2  4  1  0
  4  5  1  0
  5  6  2  0
  6  7  1  0
  7  8  2  0
  8  9  1  0
  9 10  2  0
  2 11  1  0
 11 12  1  0
 12 13  1  0
 13 14  2  0
 14 15  1  0
 15 16  2  0
 16 17  1  0
 17 18  2  0
 18 19  1  0
 19 20  1  0
 20 21  2  0
 21 22  1  0
 22 23  1  0
 23 24  2  0
 24 25  1  0
 25 26  2  0
 26 27  1  0
 27 28  2  0
 10  5  1  0
 19 11  1  0
 28 20  1  0
 18 13  1  0
 28 23  1  0
  4 29  1  0
  4 30  1  0
  6 31  1  0
  7 32  1  0
  8 33  1  0
  9 34  1  0
 10 35  1  0
 12 36  1  0
 12 37  1  0
 14 38  1  0
 15 39  1  0
 16 40  1  0
 17 41  1  0
 19 42  1  1
 21 43  1  0
 22 44  1  0
 24 45  1  0
 25 46  1  0
 26 47  1  0
 27 48  1  0
M  END
>  <smiles>  (86) 
O=S(=O)(Cc1ccccc1)N1Cc2ccccc2C1c1c[nH]c2ccccc12

>  <score_type>  (86) 
oracle

>  <origin>  (86) 
autodockgpu

>  <m_score__min__energy>  (86) 
-8.3300000000000001

>  <m_primary>  (86) 
energy

>  <rmsd>  (86) 
4.051266789322523

>  <m_score__min__rmsd>  (86) 
4.051266789322523

>  <meeko>  (86) 
{"free_energy": -7.2, "intermolecular_energy": -8.39, "internal_energy": -2.62, "cluster_size": 26, "cluster_id": 4, "rank_in_cluster": 16}

>  <energy>  (86) 
-7.2

>  <cluster_rmsd>  (86) 
0.07

>  <cluster>  (86) 
4

$$$$

     RDKit          3D

 48 52  0  0  0  0  0  0  0  0999 V2000
  135.7380   68.6560  223.8510 O   0  0  0  0  0  0  0  0  0  0  0  0
  135.6600   69.9950  224.5540 S   0  0  0  0  0  0  0  0  0  0  0  0
  135.5800   69.7730  226.0340 O   0  0  0  0  0  0  0  0  0  0  0  0
  134.2460   70.9140  224.0420 C   0  0  0  0  0  0  0  0  0  0  0  0
  134.1040   72.2040  224.7580 C   0  0  0  0  0  0  0  0  0  0  0  0
  134.7210   73.3670  224.3390 C   0  0  0  0  0  0  0  0  0  0  0  0
  134.6110   74.5700  224.9760 C   0  0  0  0  0  0  0  0  0  0  0  0
  133.8240   74.6090  226.1200 C   0  0  0  0  0  0  0  0  0  0  0  0
  133.2020   73.4400  226.5440 C   0  0  0  0  0  0  0  0  0  0  0  0
  133.3230   72.2470  225.8940 C   0  0  0  0  0  0  0  0  0  0  0  0
  137.0910   70.9050  224.2340 N   0  0  0  0  0  0  0  0  0  0  0  0
  136.9390   71.6760  222.9890 C   0  0  0  0  0  0  0  0  0  0  0  0
  138.3540   71.9920  222.6830 C   0  0  0  0  0  0  0  0  0  0  0  0
  138.8740   73.0530  221.9570 C   0  0  0  0  0  0  0  0  0  0  0  0
  140.2540   73.1510  221.7930 C   0  0  0  0  0  0  0  0  0  0  0  0
  141.0640   72.1870  222.3590 C   0  0  0  0  0  0  0  0  0  0  0  0
  140.5030   71.1350  223.0810 C   0  0  0  0  0  0  0  0  0  0  0  0
  139.1420   71.0190  223.2570 C   0  0  0  0  0  0  0  0  0  0  0  0
  138.2150   70.0810  223.9360 C   0  0  1  0  0  0  0  0  0  0  0  0
  138.8440   69.4320  225.1080 C   0  0  0  0  0  0  0  0  0  0  0  0
  138.8520   68.1340  225.5270 C   0  0  0  0  0  0  0  0  0  0  0  0
  139.5550   68.0060  226.6730 N   0  0  0  0  0  0  0  0  0  0  0  0
  140.0040   69.2280  226.9970 C   0  0  0  0  0  0  0  0  0  0  0  0
  140.7740   69.6600  228.0680 C   0  0  0  0  0  0  0  0  0  0  0  0
  141.1430   70.9770  228.2340 C   0  0  0  0  0  0  0  0  0  0  0  0
  140.7210   71.8880  227.2850 C   0  0  0  0  0  0  0  0  0  0  0  0
  139.9580   71.4480  226.2270 C   0  0  0  0  0  0  0  0  0  0  0  0
  139.5810   70.1350  226.0470 C   0  0  0  0  0  0  0  0  0  0  0  0
  134.3320   71.1186  222.9646 H   0  0  0  0  0  0  0  0  0  0  0  0
  133.3577   70.3085  224.2751 H   0  0  0  0  0  0  0  0  0  0  0  0
  135.3420   73.3209  223.4322 H   0  0  0  0  0  0  0  0  0  0  0  0
  135.1228   75.4681  224.5999 H   0  0  0  0  0  0  0  0  0  0  0  0
  133.6953   75.5471  226.6799 H   0  0  0  0  0  0  0  0  0  0  0  0
  132.5802   73.4793  227.4505 H   0  0  0  0  0  0  0  0  0  0  0  0
  132.8128   71.3458  226.2648 H   0  0  0  0  0  0  0  0  0  0  0  0
  136.4778   71.0728  222.1931 H   0  0  0  0  0  0  0  0  0  0  0  0
  136.2845   72.5559  223.0754 H   0  0  0  0  0  0  0  0  0  0  0  0
  138.2056   73.8074  221.5164 H   0  0  0  0  0  0  0  0  0  0  0  0
  140.6912   73.9832  221.2217 H   0  0  0  0  0  0  0  0  0  0  0  0
  142.1557   72.2493  222.2398 H   0  0  0  0  0  0  0  0  0  0  0  0
  141.1658   70.3762  223.5225 H   0  0  0  0  0  0  0  0  0  0  0  0
  137.9216   69.2140  223.3259 H   0  0  0  0  0  0  0  0  0  0  0  0
  138.3540   67.3048  225.0031 H   0  0  0  0  0  0  0  0  0  0  0  0
  139.7520   67.1590  227.2460 H   0  0  0  0  0  0  0  0  0  0  0  0
  141.1027   68.9214  228.8140 H   0  0  0  0  0  0  0  0  0  0  0  0
  141.7531   71.2925  229.0932 H   0  0  0  0  0  0  0  0  0  0  0  0
  140.9910   72.9507  227.3736 H   0  0  0  0  0  0  0  0  0  0  0  0
  139.6302   72.1878  225.4819 H   0  0  0  0  0  0  0  0  0  0  0  0
  1  2  2  0
  2  3  2  0
  2  4  1  0
  4  5  1  0
  5  6  2  0
  6  7  1  0
  7  8  2  0
  8  9  1  0
  9 10  2  0
  2 11  1  0
 11 12  1  0
 12 13  1  0
 13 14  2  0
 14 15  1  0
 15 16  2  0
 16 17  1  0
 17 18  2  0
 18 19  1  0
 19 20  1  0
 20 21  2  0
 21 22  1  0
 22 23  1  0
 23 24  2  0
 24 25  1  0
 25 26  2  0
 26 27  1  0
 27 28  2  0
 10  5  1  0
 19 11  1  0
 28 20  1  0
 18 13  1  0
 28 23  1  0
  4 29  1  0
  4 30  1  0
  6 31  1  0
  7 32  1  0
  8 33  1  0
  9 34  1  0
 10 35  1  0
 12 36  1  0
 12 37  1  0
 14 38  1  0
 15 39  1  0
 16 40  1  0
 17 41  1  0
 19 42  1  6
 21 43  1  0
 22 44  1  0
 24 45  1  0
 25 46  1  0
 26 47  1  0
 27 48  1  0
M  END
>  <smiles>  (87) 
O=S(=O)(Cc1ccccc1)N1Cc2ccccc2C1c1c[nH]c2ccccc12

>  <score_type>  (87) 
oracle

>  <origin>  (87) 
autodockgpu

>  <m_score__min__energy>  (87) 
-8.3300000000000001

>  <m_primary>  (87) 
energy

>  <rmsd>  (87) 
10.184542742669253

>  <m_score__min__rmsd>  (87) 
10.184542742669253

>  <meeko>  (87) 
{"free_energy": -8.18, "intermolecular_energy": -9.37, "internal_energy": -1.77, "cluster_size": 13, "cluster_id": 1, "rank_in_cluster": 4}

>  <energy>  (87) 
-7.2

>  <cluster_rmsd>  (87) 
0.08

>  <cluster>  (87) 
4

$$$$

     RDKit          3D

 48 52  0  0  0  0  0  0  0  0999 V2000
  139.2580   78.3980  219.8830 O   0  0  0  0  0  0  0  0  0  0  0  0
  139.1680   77.0450  220.5580 S   0  0  0  0  0  0  0  0  0  0  0  0
  137.9180   76.3510  220.1110 O   0  0  0  0  0  0  0  0  0  0  0  0
  139.1350   77.1970  222.3130 C   0  0  0  0  0  0  0  0  0  0  0  0
  140.0140   78.2780  222.8180 C   0  0  0  0  0  0  0  0  0  0  0  0
  141.3510   78.0860  223.1060 C   0  0  0  0  0  0  0  0  0  0  0  0
  142.1860   79.0610  223.5730 C   0  0  0  0  0  0  0  0  0  0  0  0
  141.6390   80.3220  223.7660 C   0  0  0  0  0  0  0  0  0  0  0  0
  140.2940   80.5190  223.4760 C   0  0  0  0  0  0  0  0  0  0  0  0
  139.4740   79.5330  223.0100 C   0  0  0  0  0  0  0  0  0  0  0  0
  140.5100   76.0690  220.0850 N   0  0  0  0  0  0  0  0  0  0  0  0
  140.6680   74.9340  221.0090 C   0  0  0  0  0  0  0  0  0  0  0  0
  142.0600   74.5230  220.7110 C   0  0  0  0  0  0  0  0  0  0  0  0
  142.6540   73.2780  220.8580 C   0  0  0  0  0  0  0  0  0  0  0  0
  143.9940   73.1210  220.5120 C   0  0  0  0  0  0  0  0  0  0  0  0
  144.6930   74.2100  220.0310 C   0  0  0  0  0  0  0  0  0  0  0  0
  144.0610   75.4460  219.8980 C   0  0  0  0  0  0  0  0  0  0  0  0
  142.7370   75.6240  220.2340 C   0  0  0  0  0  0  0  0  0  0  0  0
  141.7600   76.7410  220.2260 C   0  0  1  0  0  0  0  0  0  0  0  0
  142.0600   77.7330  219.1700 C   0  0  0  0  0  0  0  0  0  0  0  0
  142.5140   77.5850  217.8930 C   0  0  0  0  0  0  0  0  0  0  0  0
  142.6540   78.7860  217.2930 N   0  0  0  0  0  0  0  0  0  0  0  0
  142.2900   79.7170  218.1870 C   0  0  0  0  0  0  0  0  0  0  0  0
  142.2420   81.1010  218.0920 C   0  0  0  0  0  0  0  0  0  0  0  0
  141.8320   81.9040  219.1350 C   0  0  0  0  0  0  0  0  0  0  0  0
  141.4560   81.2870  220.3120 C   0  0  0  0  0  0  0  0  0  0  0  0
  141.5080   79.9130  220.3950 C   0  0  0  0  0  0  0  0  0  0  0  0
  141.9160   79.0970  219.3620 C   0  0  0  0  0  0  0  0  0  0  0  0
  138.1024   77.4097  222.6269 H   0  0  0  0  0  0  0  0  0  0  0  0
  139.5052   76.2497  222.7320 H   0  0  0  0  0  0  0  0  0  0  0  0
  141.7712   77.0816  222.9490 H   0  0  0  0  0  0  0  0  0  0  0  0
  143.2454   78.8558  223.7867 H   0  0  0  0  0  0  0  0  0  0  0  0
  142.2583   81.1499  224.1414 H   0  0  0  0  0  0  0  0  0  0  0  0
  139.8686   81.5216  223.6301 H   0  0  0  0  0  0  0  0  0  0  0  0
  138.4141   79.7327  222.7939 H   0  0  0  0  0  0  0  0  0  0  0  0
  140.5542   75.2470  222.0574 H   0  0  0  0  0  0  0  0  0  0  0  0
  139.9212   74.1365  220.8816 H   0  0  0  0  0  0  0  0  0  0  0  0
  142.0743   72.4260  221.2428 H   0  0  0  0  0  0  0  0  0  0  0  0
  144.4879   72.1441  220.6203 H   0  0  0  0  0  0  0  0  0  0  0  0
  145.7515   74.1025  219.7519 H   0  0  0  0  0  0  0  0  0  0  0  0
  144.6354   76.3021  219.5143 H   0  0  0  0  0  0  0  0  0  0  0  0
  141.7773   77.3629  221.1331 H   0  0  0  0  0  0  0  0  0  0  0  0
  142.7360   76.6187  217.4166 H   0  0  0  0  0  0  0  0  0  0  0  0
  142.9770   79.0200  216.3300 H   0  0  0  0  0  0  0  0  0  0  0  0
  142.5432   81.5761  217.1467 H   0  0  0  0  0  0  0  0  0  0  0  0
  141.8053   82.9989  219.0332 H   0  0  0  0  0  0  0  0  0  0  0  0
  141.1194   81.8849  221.1718 H   0  0  0  0  0  0  0  0  0  0  0  0
  141.2063   79.4395  221.3409 H   0  0  0  0  0  0  0  0  0  0  0  0
  1  2  2  0
  2  3  2  0
  2  4  1  0
  4  5  1  0
  5  6  2  0
  6  7  1  0
  7  8  2  0
  8  9  1  0
  9 10  2  0
  2 11  1  0
 11 12  1  0
 12 13  1  0
 13 14  2  0
 14 15  1  0
 15 16  2  0
 16 17  1  0
 17 18  2  0
 18 19  1  0
 19 20  1  0
 20 21  2  0
 21 22  1  0
 22 23  1  0
 23 24  2  0
 24 25  1  0
 25 26  2  0
 26 27  1  0
 27 28  2  0
 10  5  1  0
 19 11  1  0
 28 20  1  0
 18 13  1  0
 28 23  1  0
  4 29  1  0
  4 30  1  0
  6 31  1  0
  7 32  1  0
  8 33  1  0
  9 34  1  0
 10 35  1  0
 12 36  1  0
 12 37  1  0
 14 38  1  0
 15 39  1  0
 16 40  1  0
 17 41  1  0
 19 42  1  1
 21 43  1  0
 22 44  1  0
 24 45  1  0
 25 46  1  0
 26 47  1  0
 27 48  1  0
M  END
>  <smiles>  (88) 
O=S(=O)(Cc1ccccc1)N1Cc2ccccc2C1c1c[nH]c2ccccc12

>  <score_type>  (88) 
oracle

>  <origin>  (88) 
autodockgpu

>  <m_score__min__energy>  (88) 
-8.3300000000000001

>  <m_primary>  (88) 
energy

>  <rmsd>  (88) 
4.5118554278060525

>  <m_score__min__rmsd>  (88) 
4.5118554278060525

>  <meeko>  (88) 
{"free_energy": -7.53, "intermolecular_energy": -8.72, "internal_energy": -2.26, "cluster_size": 7, "cluster_id": 2, "rank_in_cluster": 7}

>  <energy>  (88) 
-7.2

>  <cluster_rmsd>  (88) 
0.08

>  <cluster>  (88) 
4

$$$$

     RDKit          3D

 48 52  0  0  0  0  0  0  0  0999 V2000
  139.2670   78.4090  219.9140 O   0  0  0  0  0  0  0  0  0  0  0  0
  139.1740   77.0530  220.5820 S   0  0  0  0  0  0  0  0  0  0  0  0
  137.9150   76.3700  220.1420 O   0  0  0  0  0  0  0  0  0  0  0  0
  139.1560   77.1960  222.3390 C   0  0  0  0  0  0  0  0  0  0  0  0
  140.0390   78.2730  222.8410 C   0  0  0  0  0  0  0  0  0  0  0  0
  139.6000   79.5650  223.0560 C   0  0  0  0  0  0  0  0  0  0  0  0
  140.3890   80.5810  223.5170 C   0  0  0  0  0  0  0  0  0  0  0  0
  141.7180   80.2780  223.7820 C   0  0  0  0  0  0  0  0  0  0  0  0
  142.1630   78.9780  223.5670 C   0  0  0  0  0  0  0  0  0  0  0  0
  141.3600   77.9760  223.1060 C   0  0  0  0  0  0  0  0  0  0  0  0
  140.5060   76.0710  220.0930 N   0  0  0  0  0  0  0  0  0  0  0  0
  140.6680   74.9330  221.0130 C   0  0  0  0  0  0  0  0  0  0  0  0
  142.0540   74.5150  220.7000 C   0  0  0  0  0  0  0  0  0  0  0  0
  142.6430   73.2670  220.8380 C   0  0  0  0  0  0  0  0  0  0  0  0
  143.9790   73.1030  220.4770 C   0  0  0  0  0  0  0  0  0  0  0  0
  144.6770   74.1900  219.9910 C   0  0  0  0  0  0  0  0  0  0  0  0
  144.0500   75.4290  219.8660 C   0  0  0  0  0  0  0  0  0  0  0  0
  142.7310   75.6140  220.2170 C   0  0  0  0  0  0  0  0  0  0  0  0
  141.7600   76.7360  220.2220 C   0  0  1  0  0  0  0  0  0  0  0  0
  142.0540   77.7280  219.1640 C   0  0  0  0  0  0  0  0  0  0  0  0
  142.5010   77.5800  217.8840 C   0  0  0  0  0  0  0  0  0  0  0  0
  142.6370   78.7820  217.2840 N   0  0  0  0  0  0  0  0  0  0  0  0
  142.2770   79.7120  218.1800 C   0  0  0  0  0  0  0  0  0  0  0  0
  142.2270   81.0960  218.0850 C   0  0  0  0  0  0  0  0  0  0  0  0
  141.8210   81.8990  219.1300 C   0  0  0  0  0  0  0  0  0  0  0  0
  141.4530   81.2810  220.3090 C   0  0  0  0  0  0  0  0  0  0  0  0
  141.5060   79.9080  220.3910 C   0  0  0  0  0  0  0  0  0  0  0  0
  141.9090   79.0920  219.3560 C   0  0  0  0  0  0  0  0  0  0  0  0
  138.1263   77.4075  222.6629 H   0  0  0  0  0  0  0  0  0  0  0  0
  139.5291   76.2464  222.7501 H   0  0  0  0  0  0  0  0  0  0  0  0
  138.5450   79.7910  222.8418 H   0  0  0  0  0  0  0  0  0  0  0  0
  139.9891   81.5940  223.6713 H   0  0  0  0  0  0  0  0  0  0  0  0
  142.4057   81.0514  224.1548 H   0  0  0  0  0  0  0  0  0  0  0  0
  143.2169   78.7456  223.7797 H   0  0  0  0  0  0  0  0  0  0  0  0
  141.7543   76.9610  222.9502 H   0  0  0  0  0  0  0  0  0  0  0  0
  140.5669   75.2444  222.0632 H   0  0  0  0  0  0  0  0  0  0  0  0
  139.9157   74.1397  220.8915 H   0  0  0  0  0  0  0  0  0  0  0  0
  142.0630   72.4174  221.2275 H   0  0  0  0  0  0  0  0  0  0  0  0
  144.4692   72.1234  220.5777 H   0  0  0  0  0  0  0  0  0  0  0  0
  145.7322   74.0783  219.7011 H   0  0  0  0  0  0  0  0  0  0  0  0
  144.6245   76.2823  219.4763 H   0  0  0  0  0  0  0  0  0  0  0  0
  141.7900   77.3561  221.1300 H   0  0  0  0  0  0  0  0  0  0  0  0
  142.7206   76.6139  217.4060 H   0  0  0  0  0  0  0  0  0  0  0  0
  142.9540   79.0160  216.3190 H   0  0  0  0  0  0  0  0  0  0  0  0
  142.5231   81.5712  217.1382 H   0  0  0  0  0  0  0  0  0  0  0  0
  141.7913   82.9939  219.0281 H   0  0  0  0  0  0  0  0  0  0  0  0
  141.1218   81.8783  221.1713 H   0  0  0  0  0  0  0  0  0  0  0  0
  141.2092   79.4342  221.3383 H   0  0  0  0  0  0  0  0  0  0  0  0
  1  2  2  0
  2  3  2  0
  2  4  1  0
  4  5  1  0
  5  6  2  0
  6  7  1  0
  7  8  2  0
  8  9  1  0
  9 10  2  0
  2 11  1  0
 11 12  1  0
 12 13  1  0
 13 14  2  0
 14 15  1  0
 15 16  2  0
 16 17  1  0
 17 18  2  0
 18 19  1  0
 19 20  1  0
 20 21  2  0
 21 22  1  0
 22 23  1  0
 23 24  2  0
 24 25  1  0
 25 26  2  0
 26 27  1  0
 27 28  2  0
 10  5  1  0
 19 11  1  0
 28 20  1  0
 18 13  1  0
 28 23  1  0
  4 29  1  0
  4 30  1  0
  6 31  1  0
  7 32  1  0
  8 33  1  0
  9 34  1  0
 10 35  1  0
 12 36  1  0
 12 37  1  0
 14 38  1  0
 15 39  1  0
 16 40  1  0
 17 41  1  0
 19 42  1  1
 21 43  1  0
 22 44  1  0
 24 45  1  0
 25 46  1  0
 26 47  1  0
 27 48  1  0
M  END
>  <smiles>  (89) 
O=S(=O)(Cc1ccccc1)N1Cc2ccccc2C1c1c[nH]c2ccccc12

>  <score_type>  (89) 
oracle

>  <origin>  (89) 
autodockgpu

>  <m_score__min__energy>  (89) 
-8.3300000000000001

>  <m_primary>  (89) 
energy

>  <rmsd>  (89) 
4.507466308180824

>  <m_score__min__rmsd>  (89) 
4.507466308180824

>  <meeko>  (89) 
{"free_energy": -7.53, "intermolecular_energy": -8.73, "internal_energy": -2.25, "cluster_size": 7, "cluster_id": 2, "rank_in_cluster": 5}

>  <energy>  (89) 
-7.2

>  <cluster_rmsd>  (89) 
0.06

>  <cluster>  (89) 
4

$$$$

     RDKit          3D

 48 52  0  0  0  0  0  0  0  0999 V2000
  140.2590   74.8790  222.3320 O   0  0  0  0  0  0  0  0  0  0  0  0
  140.1540   76.3670  222.0730 S   0  0  0  0  0  0  0  0  0  0  0  0
  141.0850   77.0970  222.9940 O   0  0  0  0  0  0  0  0  0  0  0  0
  138.5150   76.9580  222.3410 C   0  0  0  0  0  0  0  0  0  0  0  0
  138.4570   78.4190  222.5750 C   0  0  0  0  0  0  0  0  0  0  0  0
  139.0440   79.0280  223.6680 C   0  0  0  0  0  0  0  0  0  0  0  0
  139.0070   80.3720  223.9120 C   0  0  0  0  0  0  0  0  0  0  0  0
  138.3310   81.1630  222.9930 C   0  0  0  0  0  0  0  0  0  0  0  0
  137.7400   80.5530  221.8920 C   0  0  0  0  0  0  0  0  0  0  0  0
  137.7870   79.2090  221.6640 C   0  0  0  0  0  0  0  0  0  0  0  0
  140.6380   76.7120  220.4530 N   0  0  0  0  0  0  0  0  0  0  0  0
  141.1870   75.5050  219.8150 C   0  0  0  0  0  0  0  0  0  0  0  0
  141.9180   76.1010  218.6720 C   0  0  0  0  0  0  0  0  0  0  0  0
  142.2380   75.5330  217.4480 C   0  0  0  0  0  0  0  0  0  0  0  0
  142.9420   76.2890  216.5130 C   0  0  0  0  0  0  0  0  0  0  0  0
  143.2990   77.5840  216.8330 C   0  0  0  0  0  0  0  0  0  0  0  0
  142.9590   78.1190  218.0740 C   0  0  0  0  0  0  0  0  0  0  0  0
  142.2640   77.3900  219.0140 C   0  0  0  0  0  0  0  0  0  0  0  0
  141.7420   77.6110  220.3850 C   0  0  1  0  0  0  0  0  0  0  0  0
  141.4090   79.0320  220.6290 C   0  0  0  0  0  0  0  0  0  0  0  0
  140.6910   79.9310  219.8960 C   0  0  0  0  0  0  0  0  0  0  0  0
  140.6580   81.1320  220.5130 N   0  0  0  0  0  0  0  0  0  0  0  0
  141.3580   81.0090  221.6500 C   0  0  0  0  0  0  0  0  0  0  0  0
  141.6370   81.9300  222.6510 C   0  0  0  0  0  0  0  0  0  0  0  0
  142.3850   81.6130  223.7650 C   0  0  0  0  0  0  0  0  0  0  0  0
  142.8650   80.3220  223.8710 C   0  0  0  0  0  0  0  0  0  0  0  0
  142.5820   79.4180  222.8720 C   0  0  0  0  0  0  0  0  0  0  0  0
  141.8370   79.7190  221.7530 C   0  0  0  0  0  0  0  0  0  0  0  0
  137.9077   76.7207  221.4551 H   0  0  0  0  0  0  0  0  0  0  0  0
  138.1316   76.4646  223.2463 H   0  0  0  0  0  0  0  0  0  0  0  0
  139.5757   78.3891  224.3885 H   0  0  0  0  0  0  0  0  0  0  0  0
  139.4917   80.8081  224.7979 H   0  0  0  0  0  0  0  0  0  0  0  0
  138.2641   82.2520  223.1332 H   0  0  0  0  0  0  0  0  0  0  0  0
  137.2073   81.1868  221.1678 H   0  0  0  0  0  0  0  0  0  0  0  0
  137.3046   78.7679  220.7793 H   0  0  0  0  0  0  0  0  0  0  0  0
  141.8652   74.9632  220.4906 H   0  0  0  0  0  0  0  0  0  0  0  0
  140.4319   74.7570  219.5316 H   0  0  0  0  0  0  0  0  0  0  0  0
  141.9400   74.4993  217.2183 H   0  0  0  0  0  0  0  0  0  0  0  0
  143.2092   75.8611  215.5355 H   0  0  0  0  0  0  0  0  0  0  0  0
  143.8536   78.1953  216.1059 H   0  0  0  0  0  0  0  0  0  0  0  0
  143.2538   79.1522  218.3097 H   0  0  0  0  0  0  0  0  0  0  0  0
  142.4698   77.4081  221.1845 H   0  0  0  0  0  0  0  0  0  0  0  0
  140.2055   79.7083  218.9344 H   0  0  0  0  0  0  0  0  0  0  0  0
  140.2000   82.0210  220.2210 H   0  0  0  0  0  0  0  0  0  0  0  0
  141.2457   82.9532  222.5513 H   0  0  0  0  0  0  0  0  0  0  0  0
  142.5925   82.3626  224.5429 H   0  0  0  0  0  0  0  0  0  0  0  0
  143.4653   80.0203  224.7420 H   0  0  0  0  0  0  0  0  0  0  0  0
  142.9738   78.3951  222.9732 H   0  0  0  0  0  0  0  0  0  0  0  0
  1  2  2  0
  2  3  2  0
  2  4  1  0
  4  5  1  0
  5  6  2  0
  6  7  1  0
  7  8  2  0
  8  9  1  0
  9 10  2  0
  2 11  1  0
 11 12  1  0
 12 13  1  0
 13 14  2  0
 14 15  1  0
 15 16  2  0
 16 17  1  0
 17 18  2  0
 18 19  1  0
 19 20  1  0
 20 21  2  0
 21 22  1  0
 22 23  1  0
 23 24  2  0
 24 25  1  0
 25 26  2  0
 26 27  1  0
 27 28  2  0
 10  5  1  0
 19 11  1  0
 28 20  1  0
 18 13  1  0
 28 23  1  0
  4 29  1  0
  4 30  1  0
  6 31  1  0
  7 32  1  0
  8 33  1  0
  9 34  1  0
 10 35  1  0
 12 36  1  0
 12 37  1  0
 14 38  1  0
 15 39  1  0
 16 40  1  0
 17 41  1  0
 19 42  1  1
 21 43  1  0
 22 44  1  0
 24 45  1  0
 25 46  1  0
 26 47  1  0
 27 48  1  0
M  END
>  <smiles>  (90) 
O=S(=O)(Cc1ccccc1)N1Cc2ccccc2C1c1c[nH]c2ccccc12

>  <score_type>  (90) 
oracle

>  <origin>  (90) 
autodockgpu

>  <m_score__min__energy>  (90) 
-8.3300000000000001

>  <m_primary>  (90) 
energy

>  <rmsd>  (90) 
4.039800205901771

>  <m_score__min__rmsd>  (90) 
4.039800205901771

>  <meeko>  (90) 
{"free_energy": -7.21, "intermolecular_energy": -8.41, "internal_energy": -2.61, "cluster_size": 26, "cluster_id": 4, "rank_in_cluster": 3}

>  <energy>  (90) 
-7.2

>  <cluster_rmsd>  (90) 
0.09

>  <cluster>  (90) 
4

$$$$

     RDKit          3D

 48 52  0  0  0  0  0  0  0  0999 V2000
  140.4810   75.5560  218.6110 O   0  0  0  0  0  0  0  0  0  0  0  0
  141.0750   76.9390  218.4510 S   0  0  0  0  0  0  0  0  0  0  0  0
  140.3380   77.6740  217.3740 O   0  0  0  0  0  0  0  0  0  0  0  0
  142.7820   76.8650  218.0190 C   0  0  0  0  0  0  0  0  0  0  0  0
  143.4920   75.7310  218.6550 C   0  0  0  0  0  0  0  0  0  0  0  0
  143.6070   74.4890  218.0610 C   0  0  0  0  0  0  0  0  0  0  0  0
  144.2540   73.4240  218.6220 C   0  0  0  0  0  0  0  0  0  0  0  0
  144.8260   73.6190  219.8720 C   0  0  0  0  0  0  0  0  0  0  0  0
  144.7110   74.8680  220.4730 C   0  0  0  0  0  0  0  0  0  0  0  0
  144.0620   75.9210  219.8970 C   0  0  0  0  0  0  0  0  0  0  0  0
  140.8860   77.8270  219.9190 N   0  0  0  0  0  0  0  0  0  0  0  0
  141.7990   78.9820  219.9400 C   0  0  0  0  0  0  0  0  0  0  0  0
  141.8020   79.3080  221.3860 C   0  0  0  0  0  0  0  0  0  0  0  0
  142.0500   80.5240  222.0060 C   0  0  0  0  0  0  0  0  0  0  0  0
  142.0000   80.5980  223.3960 C   0  0  0  0  0  0  0  0  0  0  0  0
  141.7050   79.4580  224.1160 C   0  0  0  0  0  0  0  0  0  0  0  0
  141.4620   78.2540  223.4560 C   0  0  0  0  0  0  0  0  0  0  0  0
  141.5050   78.1570  222.0830 C   0  0  0  0  0  0  0  0  0  0  0  0
  141.3080   77.0950  221.0660 C   0  0  1  0  0  0  0  0  0  0  0  0
  140.3630   76.0540  221.5290 C   0  0  0  0  0  0  0  0  0  0  0  0
  139.1090   76.1420  222.0570 C   0  0  0  0  0  0  0  0  0  0  0  0
  138.6250   74.9160  222.3470 N   0  0  0  0  0  0  0  0  0  0  0  0
  139.5710   74.0290  222.0040 C   0  0  0  0  0  0  0  0  0  0  0  0
  139.5920   72.6440  222.0860 C   0  0  0  0  0  0  0  0  0  0  0  0
  140.6720   71.8910  221.6760 C   0  0  0  0  0  0  0  0  0  0  0  0
  141.7660   72.5620  221.1630 C   0  0  0  0  0  0  0  0  0  0  0  0
  141.7330   73.9360  221.0860 C   0  0  0  0  0  0  0  0  0  0  0  0
  140.6620   74.7020  221.4930 C   0  0  0  0  0  0  0  0  0  0  0  0
  142.8629   76.7609  216.9269 H   0  0  0  0  0  0  0  0  0  0  0  0
  143.2528   77.7915  218.3795 H   0  0  0  0  0  0  0  0  0  0  0  0
  143.1476   74.3481  217.0715 H   0  0  0  0  0  0  0  0  0  0  0  0
  144.3188   72.4548  218.1059 H   0  0  0  0  0  0  0  0  0  0  0  0
  145.3601   72.8010  220.3775 H   0  0  0  0  0  0  0  0  0  0  0  0
  145.1666   75.0144  221.4635 H   0  0  0  0  0  0  0  0  0  0  0  0
  143.9952   76.8929  220.4079 H   0  0  0  0  0  0  0  0  0  0  0  0
  142.8038   78.7102  219.5843 H   0  0  0  0  0  0  0  0  0  0  0  0
  141.4964   79.8135  219.2865 H   0  0  0  0  0  0  0  0  0  0  0  0
  142.2829   81.4175  221.4081 H   0  0  0  0  0  0  0  0  0  0  0  0
  142.1926   81.5502  223.9119 H   0  0  0  0  0  0  0  0  0  0  0  0
  141.6614   79.4994  225.2144 H   0  0  0  0  0  0  0  0  0  0  0  0
  141.2295   77.3568  224.0485 H   0  0  0  0  0  0  0  0  0  0  0  0
  142.2094   76.5032  220.8488 H   0  0  0  0  0  0  0  0  0  0  0  0
  138.5658   77.0839  222.2239 H   0  0  0  0  0  0  0  0  0  0  0  0
  137.7080   74.6370  222.7570 H   0  0  0  0  0  0  0  0  0  0  0  0
  138.7118   72.1259  222.4945 H   0  0  0  0  0  0  0  0  0  0  0  0
  140.6631   70.7938  221.7545 H   0  0  0  0  0  0  0  0  0  0  0  0
  142.6511   72.0056  220.8209 H   0  0  0  0  0  0  0  0  0  0  0  0
  142.6130   74.4529  220.6756 H   0  0  0  0  0  0  0  0  0  0  0  0
  1  2  2  0
  2  3  2  0
  2  4  1  0
  4  5  1  0
  5  6  2  0
  6  7  1  0
  7  8  2  0
  8  9  1  0
  9 10  2  0
  2 11  1  0
 11 12  1  0
 12 13  1  0
 13 14  2  0
 14 15  1  0
 15 16  2  0
 16 17  1  0
 17 18  2  0
 18 19  1  0
 19 20  1  0
 20 21  2  0
 21 22  1  0
 22 23  1  0
 23 24  2  0
 24 25  1  0
 25 26  2  0
 26 27  1  0
 27 28  2  0
 10  5  1  0
 19 11  1  0
 28 20  1  0
 18 13  1  0
 28 23  1  0
  4 29  1  0
  4 30  1  0
  6 31  1  0
  7 32  1  0
  8 33  1  0
  9 34  1  0
 10 35  1  0
 12 36  1  0
 12 37  1  0
 14 38  1  0
 15 39  1  0
 16 40  1  0
 17 41  1  0
 19 42  1  6
 21 43  1  0
 22 44  1  0
 24 45  1  0
 25 46  1  0
 26 47  1  0
 27 48  1  0
M  END
>  <smiles>  (91) 
O=S(=O)(Cc1ccccc1)N1Cc2ccccc2C1c1c[nH]c2ccccc12

>  <score_type>  (91) 
oracle

>  <origin>  (91) 
autodockgpu

>  <m_score__min__energy>  (91) 
-8.3300000000000001

>  <m_primary>  (91) 
energy

>  <rmsd>  (91) 
7.099796355130362

>  <m_score__min__rmsd>  (91) 
7.099796355130362

>  <meeko>  (91) 
{"free_energy": -7.26, "intermolecular_energy": -8.45, "internal_energy": -2.41, "cluster_size": 4, "cluster_id": 3, "rank_in_cluster": 2}

>  <energy>  (91) 
-7.2

>  <cluster_rmsd>  (91) 
0.09

>  <cluster>  (91) 
4

$$$$

     RDKit          3D

 48 52  0  0  0  0  0  0  0  0999 V2000
  140.2310   74.8740  222.3220 O   0  0  0  0  0  0  0  0  0  0  0  0
  140.1400   76.3660  222.0750 S   0  0  0  0  0  0  0  0  0  0  0  0
  141.0810   77.0790  222.9990 O   0  0  0  0  0  0  0  0  0  0  0  0
  138.5080   76.9710  222.3530 C   0  0  0  0  0  0  0  0  0  0  0  0
  138.4670   78.4280  222.6110 C   0  0  0  0  0  0  0  0  0  0  0  0
  139.0660   79.0140  223.7100 C   0  0  0  0  0  0  0  0  0  0  0  0
  139.0450   80.3530  223.9770 C   0  0  0  0  0  0  0  0  0  0  0  0
  138.3730   81.1670  223.0750 C   0  0  0  0  0  0  0  0  0  0  0  0
  137.7690   80.5810  221.9670 C   0  0  0  0  0  0  0  0  0  0  0  0
  137.8010   79.2400  221.7170 C   0  0  0  0  0  0  0  0  0  0  0  0
  140.6220   76.7190  220.4560 N   0  0  0  0  0  0  0  0  0  0  0  0
  141.1600   75.5120  219.8080 C   0  0  0  0  0  0  0  0  0  0  0  0
  141.8930   76.1100  218.6680 C   0  0  0  0  0  0  0  0  0  0  0  0
  142.2060   75.5490  217.4390 C   0  0  0  0  0  0  0  0  0  0  0  0
  142.9120   76.3060  216.5070 C   0  0  0  0  0  0  0  0  0  0  0  0
  143.2810   77.5950  216.8350 C   0  0  0  0  0  0  0  0  0  0  0  0
  142.9490   78.1240  218.0820 C   0  0  0  0  0  0  0  0  0  0  0  0
  142.2500   77.3940  219.0180 C   0  0  0  0  0  0  0  0  0  0  0  0
  141.7330   77.6090  220.3920 C   0  0  1  0  0  0  0  0  0  0  0  0
  141.4120   79.0310  220.6470 C   0  0  0  0  0  0  0  0  0  0  0  0
  140.6960   79.9400  219.9250 C   0  0  0  0  0  0  0  0  0  0  0  0
  140.6760   81.1370  220.5500 N   0  0  0  0  0  0  0  0  0  0  0  0
  141.3830   81.0020  221.6810 C   0  0  0  0  0  0  0  0  0  0  0  0
  141.6760   81.9140  222.6850 C   0  0  0  0  0  0  0  0  0  0  0  0
  142.4300   81.5850  223.7920 C   0  0  0  0  0  0  0  0  0  0  0  0
  142.9020   80.2900  223.8860 C   0  0  0  0  0  0  0  0  0  0  0  0
  142.6050   79.3940  222.8840 C   0  0  0  0  0  0  0  0  0  0  0  0
  141.8540   79.7080  221.7720 C   0  0  0  0  0  0  0  0  0  0  0  0
  137.8980   76.7553  221.4634 H   0  0  0  0  0  0  0  0  0  0  0  0
  138.1188   76.4671  223.2500 H   0  0  0  0  0  0  0  0  0  0  0  0
  139.5950   78.3579  224.4169 H   0  0  0  0  0  0  0  0  0  0  0  0
  139.5389   80.7686  224.8677 H   0  0  0  0  0  0  0  0  0  0  0  0
  138.3192   82.2542  223.2333 H   0  0  0  0  0  0  0  0  0  0  0  0
  137.2387   81.2319  221.2564 H   0  0  0  0  0  0  0  0  0  0  0  0
  137.3096   78.8185  220.8277 H   0  0  0  0  0  0  0  0  0  0  0  0
  141.8353   74.9599  220.4782 H   0  0  0  0  0  0  0  0  0  0  0  0
  140.3983   74.7721  219.5210 H   0  0  0  0  0  0  0  0  0  0  0  0
  141.9005   74.5190  217.2031 H   0  0  0  0  0  0  0  0  0  0  0  0
  143.1714   75.8833  215.5251 H   0  0  0  0  0  0  0  0  0  0  0  0
  143.8386   78.2069  216.1107 H   0  0  0  0  0  0  0  0  0  0  0  0
  143.2538   79.1527  218.3248 H   0  0  0  0  0  0  0  0  0  0  0  0
  142.4610   77.3940  221.1882 H   0  0  0  0  0  0  0  0  0  0  0  0
  140.2025   79.7273  218.9652 H   0  0  0  0  0  0  0  0  0  0  0  0
  140.2220   82.0320  220.2670 H   0  0  0  0  0  0  0  0  0  0  0  0
  141.2914   82.9406  222.5943 H   0  0  0  0  0  0  0  0  0  0  0  0
  142.6480   82.3281  224.5732 H   0  0  0  0  0  0  0  0  0  0  0  0
  143.5072   79.9789  224.7502 H   0  0  0  0  0  0  0  0  0  0  0  0
  142.9895   78.3675  222.9763 H   0  0  0  0  0  0  0  0  0  0  0  0
  1  2  2  0
  2  3  2  0
  2  4  1  0
  4  5  1  0
  5  6  2  0
  6  7  1  0
  7  8  2  0
  8  9  1  0
  9 10  2  0
  2 11  1  0
 11 12  1  0
 12 13  1  0
 13 14  2  0
 14 15  1  0
 15 16  2  0
 16 17  1  0
 17 18  2  0
 18 19  1  0
 19 20  1  0
 20 21  2  0
 21 22  1  0
 22 23  1  0
 23 24  2  0
 24 25  1  0
 25 26  2  0
 26 27  1  0
 27 28  2  0
 10  5  1  0
 19 11  1  0
 28 20  1  0
 18 13  1  0
 28 23  1  0
  4 29  1  0
  4 30  1  0
  6 31  1  0
  7 32  1  0
  8 33  1  0
  9 34  1  0
 10 35  1  0
 12 36  1  0
 12 37  1  0
 14 38  1  0
 15 39  1  0
 16 40  1  0
 17 41  1  0
 19 42  1  1
 21 43  1  0
 22 44  1  0
 24 45  1  0
 25 46  1  0
 26 47  1  0
 27 48  1  0
M  END
>  <smiles>  (92) 
O=S(=O)(Cc1ccccc1)N1Cc2ccccc2C1c1c[nH]c2ccccc12

>  <score_type>  (92) 
oracle

>  <origin>  (92) 
autodockgpu

>  <m_score__min__energy>  (92) 
-8.3300000000000001

>  <m_primary>  (92) 
energy

>  <rmsd>  (92) 
4.046613006295895

>  <m_score__min__rmsd>  (92) 
4.046613006295895

>  <meeko>  (92) 
{"free_energy": -7.2, "intermolecular_energy": -8.39, "internal_energy": -2.61, "cluster_size": 26, "cluster_id": 4, "rank_in_cluster": 15}

>  <energy>  (92) 
-7.2

>  <cluster_rmsd>  (92) 
0.08

>  <cluster>  (92) 
4

$$$$

     RDKit          3D

 48 52  0  0  0  0  0  0  0  0999 V2000
  135.6210   68.6940  224.2420 O   0  0  0  0  0  0  0  0  0  0  0  0
  135.5720   70.0930  224.8190 S   0  0  0  0  0  0  0  0  0  0  0  0
  135.5080   70.0100  226.3140 O   0  0  0  0  0  0  0  0  0  0  0  0
  134.1660   70.9840  224.2410 C   0  0  0  0  0  0  0  0  0  0  0  0
  133.6720   71.9830  225.2170 C   0  0  0  0  0  0  0  0  0  0  0  0
  134.0400   73.3140  225.1810 C   0  0  0  0  0  0  0  0  0  0  0  0
  133.6040   74.2590  226.0660 C   0  0  0  0  0  0  0  0  0  0  0  0
  132.7340   73.8370  227.0630 C   0  0  0  0  0  0  0  0  0  0  0  0
  132.3610   72.4980  227.1020 C   0  0  0  0  0  0  0  0  0  0  0  0
  132.8070   71.5680  226.2080 C   0  0  0  0  0  0  0  0  0  0  0  0
  137.0120   70.9460  224.4000 N   0  0  0  0  0  0  0  0  0  0  0  0
  136.8090   71.7150  223.1600 C   0  0  0  0  0  0  0  0  0  0  0  0
  138.2120   71.9760  222.7610 C   0  0  0  0  0  0  0  0  0  0  0  0
  138.7230   73.0120  221.9940 C   0  0  0  0  0  0  0  0  0  0  0  0
  140.0930   73.0570  221.7410 C   0  0  0  0  0  0  0  0  0  0  0  0
  140.9010   72.0670  222.2630 C   0  0  0  0  0  0  0  0  0  0  0  0
  140.3490   71.0410  223.0290 C   0  0  0  0  0  0  0  0  0  0  0  0
  138.9990   70.9770  223.2920 C   0  0  0  0  0  0  0  0  0  0  0  0
  138.0830   70.0790  224.0380 C   0  0  1  0  0  0  0  0  0  0  0  0
  138.7620   69.4140  225.1720 C   0  0  0  0  0  0  0  0  0  0  0  0
  138.7740   68.1140  225.5830 C   0  0  0  0  0  0  0  0  0  0  0  0
  139.5320   67.9690  226.6910 N   0  0  0  0  0  0  0  0  0  0  0  0
  140.0140   69.1830  226.9990 C   0  0  0  0  0  0  0  0  0  0  0  0
  140.8420   69.5970  228.0320 C   0  0  0  0  0  0  0  0  0  0  0  0
  141.2370   70.9090  228.1870 C   0  0  0  0  0  0  0  0  0  0  0  0
  140.7800   71.8310  227.2660 C   0  0  0  0  0  0  0  0  0  0  0  0
  139.9590   71.4080  226.2450 C   0  0  0  0  0  0  0  0  0  0  0  0
  139.5550   70.1010  226.0770 C   0  0  0  0  0  0  0  0  0  0  0  0
  134.4397   71.5067  223.3126 H   0  0  0  0  0  0  0  0  0  0  0  0
  133.3583   70.2550  224.0792 H   0  0  0  0  0  0  0  0  0  0  0  0
  134.7302   73.6344  224.3867 H   0  0  0  0  0  0  0  0  0  0  0  0
  133.9277   75.3077  225.9922 H   0  0  0  0  0  0  0  0  0  0  0  0
  132.3474   74.5484  227.8076 H   0  0  0  0  0  0  0  0  0  0  0  0
  131.6710   72.1715  227.8940 H   0  0  0  0  0  0  0  0  0  0  0  0
  132.4860   70.5181  226.2759 H   0  0  0  0  0  0  0  0  0  0  0  0
  136.2755   71.1246  222.4005 H   0  0  0  0  0  0  0  0  0  0  0  0
  136.1946   72.6194  223.2809 H   0  0  0  0  0  0  0  0  0  0  0  0
  138.0560   73.7881  221.5905 H   0  0  0  0  0  0  0  0  0  0  0  0
  140.5232   73.8682  221.1353 H   0  0  0  0  0  0  0  0  0  0  0  0
  141.9844   72.0876  222.0740 H   0  0  0  0  0  0  0  0  0  0  0  0
  141.0104   70.2611  223.4344 H   0  0  0  0  0  0  0  0  0  0  0  0
  137.7182   69.2198  223.4559 H   0  0  0  0  0  0  0  0  0  0  0  0
  138.2390   67.2948  225.0803 H   0  0  0  0  0  0  0  0  0  0  0  0
  139.7460   67.1160  227.2490 H   0  0  0  0  0  0  0  0  0  0  0  0
  141.1975   68.8492  228.7561 H   0  0  0  0  0  0  0  0  0  0  0  0
  141.8938   71.2110  229.0161 H   0  0  0  0  0  0  0  0  0  0  0  0
  141.0682   72.8895  227.3471 H   0  0  0  0  0  0  0  0  0  0  0  0
  139.6048   72.1567  225.5211 H   0  0  0  0  0  0  0  0  0  0  0  0
  1  2  2  0
  2  3  2  0
  2  4  1  0
  4  5  1  0
  5  6  2  0
  6  7  1  0
  7  8  2  0
  8  9  1  0
  9 10  2  0
  2 11  1  0
 11 12  1  0
 12 13  1  0
 13 14  2  0
 14 15  1  0
 15 16  2  0
 16 17  1  0
 17 18  2  0
 18 19  1  0
 19 20  1  0
 20 21  2  0
 21 22  1  0
 22 23  1  0
 23 24  2  0
 24 25  1  0
 25 26  2  0
 26 27  1  0
 27 28  2  0
 10  5  1  0
 19 11  1  0
 28 20  1  0
 18 13  1  0
 28 23  1  0
  4 29  1  0
  4 30  1  0
  6 31  1  0
  7 32  1  0
  8 33  1  0
  9 34  1  0
 10 35  1  0
 12 36  1  0
 12 37  1  0
 14 38  1  0
 15 39  1  0
 16 40  1  0
 17 41  1  0
 19 42  1  6
 21 43  1  0
 22 44  1  0
 24 45  1  0
 25 46  1  0
 26 47  1  0
 27 48  1  0
M  END
>  <smiles>  (93) 
O=S(=O)(Cc1ccccc1)N1Cc2ccccc2C1c1c[nH]c2ccccc12

>  <score_type>  (93) 
oracle

>  <origin>  (93) 
autodockgpu

>  <m_score__min__energy>  (93) 
-8.3300000000000001

>  <m_primary>  (93) 
energy

>  <rmsd>  (93) 
10.225092098989352

>  <m_score__min__rmsd>  (93) 
10.225092098989352

>  <meeko>  (93) 
{"free_energy": -8.18, "intermolecular_energy": -9.37, "internal_energy": -1.73, "cluster_size": 13, "cluster_id": 1, "rank_in_cluster": 3}

>  <energy>  (93) 
-7.2

>  <cluster_rmsd>  (93) 
0.07

>  <cluster>  (93) 
4

$$$$

     RDKit          3D

 48 52  0  0  0  0  0  0  0  0999 V2000
  140.2570   74.8840  222.3340 O   0  0  0  0  0  0  0  0  0  0  0  0
  140.1440   76.3740  222.0900 S   0  0  0  0  0  0  0  0  0  0  0  0
  141.0740   77.0990  223.0140 O   0  0  0  0  0  0  0  0  0  0  0  0
  138.5030   76.9540  222.3690 C   0  0  0  0  0  0  0  0  0  0  0  0
  138.4370   78.4160  222.5970 C   0  0  0  0  0  0  0  0  0  0  0  0
  139.0240   79.0340  223.6840 C   0  0  0  0  0  0  0  0  0  0  0  0
  138.9800   80.3790  223.9220 C   0  0  0  0  0  0  0  0  0  0  0  0
  138.2940   81.1610  223.0020 C   0  0  0  0  0  0  0  0  0  0  0  0
  137.7020   80.5420  221.9080 C   0  0  0  0  0  0  0  0  0  0  0  0
  137.7570   79.1970  221.6850 C   0  0  0  0  0  0  0  0  0  0  0  0
  140.6200   76.7370  220.4720 N   0  0  0  0  0  0  0  0  0  0  0  0
  141.1660   75.5360  219.8170 C   0  0  0  0  0  0  0  0  0  0  0  0
  141.8920   76.1450  218.6780 C   0  0  0  0  0  0  0  0  0  0  0  0
  142.2060   75.5910  217.4460 C   0  0  0  0  0  0  0  0  0  0  0  0
  142.9050   76.3570  216.5160 C   0  0  0  0  0  0  0  0  0  0  0  0
  143.2650   77.6480  216.8490 C   0  0  0  0  0  0  0  0  0  0  0  0
  142.9310   78.1690  218.0980 C   0  0  0  0  0  0  0  0  0  0  0  0
  142.2400   77.4310  219.0320 C   0  0  0  0  0  0  0  0  0  0  0  0
  141.7240   77.6360  220.4080 C   0  0  1  0  0  0  0  0  0  0  0  0
  141.3930   79.0540  220.6700 C   0  0  0  0  0  0  0  0  0  0  0  0
  140.6690   79.9610  219.9530 C   0  0  0  0  0  0  0  0  0  0  0  0
  140.6410   81.1550  220.5820 N   0  0  0  0  0  0  0  0  0  0  0  0
  141.3510   81.0210  221.7120 C   0  0  0  0  0  0  0  0  0  0  0  0
  141.6380   81.9310  222.7200 C   0  0  0  0  0  0  0  0  0  0  0  0
  142.3950   81.6030  223.8240 C   0  0  0  0  0  0  0  0  0  0  0  0
  142.8770   80.3110  223.9120 C   0  0  0  0  0  0  0  0  0  0  0  0
  142.5860   79.4170  222.9070 C   0  0  0  0  0  0  0  0  0  0  0  0
  141.8310   79.7300  221.7970 C   0  0  0  0  0  0  0  0  0  0  0  0
  137.8901   76.7084  221.4892 H   0  0  0  0  0  0  0  0  0  0  0  0
  138.1303   76.4618  223.2794 H   0  0  0  0  0  0  0  0  0  0  0  0
  139.5623   78.4019  224.4056 H   0  0  0  0  0  0  0  0  0  0  0  0
  139.4664   80.8225  224.8033 H   0  0  0  0  0  0  0  0  0  0  0  0
  138.2207   82.2502  223.1369 H   0  0  0  0  0  0  0  0  0  0  0  0
  137.1608   81.1688  221.1840 H   0  0  0  0  0  0  0  0  0  0  0  0
  137.2737   78.7486  220.8044 H   0  0  0  0  0  0  0  0  0  0  0  0
  141.8469   74.9860  220.4832 H   0  0  0  0  0  0  0  0  0  0  0  0
  140.4094   74.7916  219.5284 H   0  0  0  0  0  0  0  0  0  0  0  0
  141.9069   74.5599  217.2063 H   0  0  0  0  0  0  0  0  0  0  0  0
  143.1661   75.9403  215.5321 H   0  0  0  0  0  0  0  0  0  0  0  0
  143.8170   78.2670  216.1264 H   0  0  0  0  0  0  0  0  0  0  0  0
  143.2281   79.1991  218.3442 H   0  0  0  0  0  0  0  0  0  0  0  0
  142.4557   77.4229  221.2013 H   0  0  0  0  0  0  0  0  0  0  0  0
  140.1754   79.7484  218.9932 H   0  0  0  0  0  0  0  0  0  0  0  0
  140.1800   82.0480  220.3040 H   0  0  0  0  0  0  0  0  0  0  0  0
  141.2455   82.9550  222.6343 H   0  0  0  0  0  0  0  0  0  0  0  0
  142.6082   82.3443  224.6082 H   0  0  0  0  0  0  0  0  0  0  0  0
  143.4855   80.0010  224.7743 H   0  0  0  0  0  0  0  0  0  0  0  0
  142.9787   78.3932  222.9946 H   0  0  0  0  0  0  0  0  0  0  0  0
  1  2  2  0
  2  3  2  0
  2  4  1  0
  4  5  1  0
  5  6  2  0
  6  7  1  0
  7  8  2  0
  8  9  1  0
  9 10  2  0
  2 11  1  0
 11 12  1  0
 12 13  1  0
 13 14  2  0
 14 15  1  0
 15 16  2  0
 16 17  1  0
 17 18  2  0
 18 19  1  0
 19 20  1  0
 20 21  2  0
 21 22  1  0
 22 23  1  0
 23 24  2  0
 24 25  1  0
 25 26  2  0
 26 27  1  0
 27 28  2  0
 10  5  1  0
 19 11  1  0
 28 20  1  0
 18 13  1  0
 28 23  1  0
  4 29  1  0
  4 30  1  0
  6 31  1  0
  7 32  1  0
  8 33  1  0
  9 34  1  0
 10 35  1  0
 12 36  1  0
 12 37  1  0
 14 38  1  0
 15 39  1  0
 16 40  1  0
 17 41  1  0
 19 42  1  1
 21 43  1  0
 22 44  1  0
 24 45  1  0
 25 46  1  0
 26 47  1  0
 27 48  1  0
M  END
>  <smiles>  (94) 
O=S(=O)(Cc1ccccc1)N1Cc2ccccc2C1c1c[nH]c2ccccc12

>  <score_type>  (94) 
oracle

>  <origin>  (94) 
autodockgpu

>  <m_score__min__energy>  (94) 
-8.3300000000000001

>  <m_primary>  (94) 
energy

>  <rmsd>  (94) 
4.035810421469275

>  <m_score__min__rmsd>  (94) 
4.035810421469275

>  <meeko>  (94) 
{"free_energy": -7.21, "intermolecular_energy": -8.4, "internal_energy": -2.61, "cluster_size": 26, "cluster_id": 4, "rank_in_cluster": 8}

>  <energy>  (94) 
-7.2

>  <cluster_rmsd>  (94) 
0.08

>  <cluster>  (94) 
4

$$$$

     RDKit          3D

 48 52  0  0  0  0  0  0  0  0999 V2000
  134.5810   70.3070  223.3980 O   0  0  0  0  0  0  0  0  0  0  0  0
  135.6180   69.9720  224.4490 S   0  0  0  0  0  0  0  0  0  0  0  0
  135.9910   68.5250  224.3320 O   0  0  0  0  0  0  0  0  0  0  0  0
  135.0110   70.2700  226.0770 C   0  0  0  0  0  0  0  0  0  0  0  0
  134.2820   71.5540  226.1960 C   0  0  0  0  0  0  0  0  0  0  0  0
  134.5750   72.6590  225.4210 C   0  0  0  0  0  0  0  0  0  0  0  0
  133.9220   73.8560  225.5080 C   0  0  0  0  0  0  0  0  0  0  0  0
  132.9010   73.9520  226.4440 C   0  0  0  0  0  0  0  0  0  0  0  0
  132.6040   72.8420  227.2260 C   0  0  0  0  0  0  0  0  0  0  0  0
  133.2660   71.6530  227.1240 C   0  0  0  0  0  0  0  0  0  0  0  0
  137.0430   70.9070  224.1810 N   0  0  0  0  0  0  0  0  0  0  0  0
  136.9090   71.7000  222.9480 C   0  0  0  0  0  0  0  0  0  0  0  0
  138.3260   72.0420  222.6810 C   0  0  0  0  0  0  0  0  0  0  0  0
  138.8480   73.1250  221.9890 C   0  0  0  0  0  0  0  0  0  0  0  0
  140.2310   73.2450  221.8600 C   0  0  0  0  0  0  0  0  0  0  0  0
  141.0410   72.2810  222.4270 C   0  0  0  0  0  0  0  0  0  0  0  0
  140.4780   71.2070  223.1150 C   0  0  0  0  0  0  0  0  0  0  0  0
  139.1150   71.0690  223.2550 C   0  0  0  0  0  0  0  0  0  0  0  0
  138.1850   70.1050  223.8940 C   0  0  1  0  0  0  0  0  0  0  0  0
  138.7950   69.4420  225.0680 C   0  0  0  0  0  0  0  0  0  0  0  0
  138.7740   68.1440  225.4870 C   0  0  0  0  0  0  0  0  0  0  0  0
  139.4700   68.0000  226.6340 N   0  0  0  0  0  0  0  0  0  0  0  0
  139.9440   69.2110  226.9610 C   0  0  0  0  0  0  0  0  0  0  0  0
  140.7190   69.6260  228.0350 C   0  0  0  0  0  0  0  0  0  0  0  0
  141.1160   70.9350  228.2030 C   0  0  0  0  0  0  0  0  0  0  0  0
  140.7180   71.8550  227.2530 C   0  0  0  0  0  0  0  0  0  0  0  0
  139.9500   71.4320  226.1920 C   0  0  0  0  0  0  0  0  0  0  0  0
  139.5440   70.1280  226.0100 C   0  0  0  0  0  0  0  0  0  0  0  0
  134.3284   69.4524  226.3519 H   0  0  0  0  0  0  0  0  0  0  0  0
  135.8807   70.3215  226.7485 H   0  0  0  0  0  0  0  0  0  0  0  0
  135.3877   72.5695  224.6852 H   0  0  0  0  0  0  0  0  0  0  0  0
  134.1932   74.7062  224.8648 H   0  0  0  0  0  0  0  0  0  0  0  0
  132.3376   74.8891  226.5644 H   0  0  0  0  0  0  0  0  0  0  0  0
  131.7937   72.9262  227.9651 H   0  0  0  0  0  0  0  0  0  0  0  0
  132.9974   70.7988  227.7629 H   0  0  0  0  0  0  0  0  0  0  0  0
  136.4751   71.1061  222.1301 H   0  0  0  0  0  0  0  0  0  0  0  0
  136.2401   72.5688  223.0363 H   0  0  0  0  0  0  0  0  0  0  0  0
  138.1796   73.8791  221.5479 H   0  0  0  0  0  0  0  0  0  0  0  0
  140.6699   74.0939  221.3153 H   0  0  0  0  0  0  0  0  0  0  0  0
  142.1343   72.3607  222.3355 H   0  0  0  0  0  0  0  0  0  0  0  0
  141.1407   70.4491  223.5582 H   0  0  0  0  0  0  0  0  0  0  0  0
  137.9185   69.2463  223.2602 H   0  0  0  0  0  0  0  0  0  0  0  0
  138.2597   67.3260  224.9613 H   0  0  0  0  0  0  0  0  0  0  0  0
  139.6450   67.1480  227.2080 H   0  0  0  0  0  0  0  0  0  0  0  0
  141.0287   68.8803  228.7820 H   0  0  0  0  0  0  0  0  0  0  0  0
  141.7293   71.2369  229.0648 H   0  0  0  0  0  0  0  0  0  0  0  0
  141.0108   72.9115  227.3431 H   0  0  0  0  0  0  0  0  0  0  0  0
  139.6422   72.1790  225.4454 H   0  0  0  0  0  0  0  0  0  0  0  0
  1  2  2  0
  2  3  2  0
  2  4  1  0
  4  5  1  0
  5  6  2  0
  6  7  1  0
  7  8  2  0
  8  9  1  0
  9 10  2  0
  2 11  1  0
 11 12  1  0
 12 13  1  0
 13 14  2  0
 14 15  1  0
 15 16  2  0
 16 17  1  0
 17 18  2  0
 18 19  1  0
 19 20  1  0
 20 21  2  0
 21 22  1  0
 22 23  1  0
 23 24  2  0
 24 25  1  0
 25 26  2  0
 26 27  1  0
 27 28  2  0
 10  5  1  0
 19 11  1  0
 28 20  1  0
 18 13  1  0
 28 23  1  0
  4 29  1  0
  4 30  1  0
  6 31  1  0
  7 32  1  0
  8 33  1  0
  9 34  1  0
 10 35  1  0
 12 36  1  0
 12 37  1  0
 14 38  1  0
 15 39  1  0
 16 40  1  0
 17 41  1  0
 19 42  1  6
 21 43  1  0
 22 44  1  0
 24 45  1  0
 25 46  1  0
 26 47  1  0
 27 48  1  0
M  END
>  <smiles>  (95) 
O=S(=O)(Cc1ccccc1)N1Cc2ccccc2C1c1c[nH]c2ccccc12

>  <score_type>  (95) 
oracle

>  <origin>  (95) 
autodockgpu

>  <m_score__min__energy>  (95) 
-8.3300000000000001

>  <m_primary>  (95) 
energy

>  <rmsd>  (95) 
10.179968192968497

>  <m_score__min__rmsd>  (95) 
10.179968192968497

>  <meeko>  (95) 
{"free_energy": -8.14, "intermolecular_energy": -9.33, "internal_energy": -1.7, "cluster_size": 13, "cluster_id": 1, "rank_in_cluster": 8}

>  <energy>  (95) 
-7.2

>  <cluster_rmsd>  (95) 
0.08

>  <cluster>  (95) 
4

$$$$

     RDKit          3D

 48 52  0  0  0  0  0  0  0  0999 V2000
  140.2360   74.8920  222.3190 O   0  0  0  0  0  0  0  0  0  0  0  0
  140.1390   76.3850  222.0840 S   0  0  0  0  0  0  0  0  0  0  0  0
  141.0770   77.0950  223.0140 O   0  0  0  0  0  0  0  0  0  0  0  0
  138.5050   76.9820  222.3650 C   0  0  0  0  0  0  0  0  0  0  0  0
  138.4570   78.4380  222.6310 C   0  0  0  0  0  0  0  0  0  0  0  0
  139.0560   79.0210  223.7310 C   0  0  0  0  0  0  0  0  0  0  0  0
  139.0300   80.3590  224.0040 C   0  0  0  0  0  0  0  0  0  0  0  0
  138.3510   81.1740  223.1070 C   0  0  0  0  0  0  0  0  0  0  0  0
  137.7470   80.5900  221.9990 C   0  0  0  0  0  0  0  0  0  0  0  0
  137.7840   79.2500  221.7420 C   0  0  0  0  0  0  0  0  0  0  0  0
  140.6210   76.7530  220.4680 N   0  0  0  0  0  0  0  0  0  0  0  0
  141.1630   75.5520  219.8100 C   0  0  0  0  0  0  0  0  0  0  0  0
  141.8940   76.1620  218.6750 C   0  0  0  0  0  0  0  0  0  0  0  0
  142.2080   75.6120  217.4420 C   0  0  0  0  0  0  0  0  0  0  0  0
  142.9130   76.3790  216.5160 C   0  0  0  0  0  0  0  0  0  0  0  0
  143.2780   77.6660  216.8550 C   0  0  0  0  0  0  0  0  0  0  0  0
  142.9440   78.1840  218.1060 C   0  0  0  0  0  0  0  0  0  0  0  0
  142.2480   77.4440  219.0360 C   0  0  0  0  0  0  0  0  0  0  0  0
  141.7290   77.6470  220.4110 C   0  0  1  0  0  0  0  0  0  0  0  0
  141.4040   79.0660  220.6780 C   0  0  0  0  0  0  0  0  0  0  0  0
  140.6840   79.9780  219.9640 C   0  0  0  0  0  0  0  0  0  0  0  0
  140.6620   81.1700  220.5980 N   0  0  0  0  0  0  0  0  0  0  0  0
  141.3710   81.0290  221.7270 C   0  0  0  0  0  0  0  0  0  0  0  0
  141.6620   81.9340  222.7380 C   0  0  0  0  0  0  0  0  0  0  0  0
  142.4190   81.5990  223.8400 C   0  0  0  0  0  0  0  0  0  0  0  0
  142.8950   80.3050  223.9240 C   0  0  0  0  0  0  0  0  0  0  0  0
  142.6000   79.4160  222.9150 C   0  0  0  0  0  0  0  0  0  0  0  0
  141.8450   79.7360  221.8070 C   0  0  0  0  0  0  0  0  0  0  0  0
  137.8961   76.7685  221.4742 H   0  0  0  0  0  0  0  0  0  0  0  0
  138.1184   76.4719  223.2596 H   0  0  0  0  0  0  0  0  0  0  0  0
  139.5893   78.3639  224.4337 H   0  0  0  0  0  0  0  0  0  0  0  0
  139.5249   80.7730  224.8949 H   0  0  0  0  0  0  0  0  0  0  0  0
  138.2923   82.2603  223.2701 H   0  0  0  0  0  0  0  0  0  0  0  0
  137.2116   81.2418  221.2929 H   0  0  0  0  0  0  0  0  0  0  0  0
  137.2917   78.8301  220.8524 H   0  0  0  0  0  0  0  0  0  0  0  0
  141.8400   74.9966  220.4757 H   0  0  0  0  0  0  0  0  0  0  0  0
  140.4038   74.8119  219.5171 H   0  0  0  0  0  0  0  0  0  0  0  0
  141.9047   74.5833  217.1974 H   0  0  0  0  0  0  0  0  0  0  0  0
  143.1742   75.9651  215.5309 H   0  0  0  0  0  0  0  0  0  0  0  0
  143.8343   78.2854  216.1360 H   0  0  0  0  0  0  0  0  0  0  0  0
  143.2447   79.2119  218.3569 H   0  0  0  0  0  0  0  0  0  0  0  0
  142.4574   77.4282  221.2057 H   0  0  0  0  0  0  0  0  0  0  0  0
  140.1892   79.7710  219.0036 H   0  0  0  0  0  0  0  0  0  0  0  0
  140.2040   82.0650  220.3230 H   0  0  0  0  0  0  0  0  0  0  0  0
  141.2730   82.9597  222.6566 H   0  0  0  0  0  0  0  0  0  0  0  0
  142.6367   82.3371  224.6260 H   0  0  0  0  0  0  0  0  0  0  0  0
  143.5016   79.9891  224.7855 H   0  0  0  0  0  0  0  0  0  0  0  0
  142.9895   78.3906  222.9978 H   0  0  0  0  0  0  0  0  0  0  0  0
  1  2  2  0
  2  3  2  0
  2  4  1  0
  4  5  1  0
  5  6  2  0
  6  7  1  0
  7  8  2  0
  8  9  1  0
  9 10  2  0
  2 11  1  0
 11 12  1  0
 12 13  1  0
 13 14  2  0
 14 15  1  0
 15 16  2  0
 16 17  1  0
 17 18  2  0
 18 19  1  0
 19 20  1  0
 20 21  2  0
 21 22  1  0
 22 23  1  0
 23 24  2  0
 24 25  1  0
 25 26  2  0
 26 27  1  0
 27 28  2  0
 10  5  1  0
 19 11  1  0
 28 20  1  0
 18 13  1  0
 28 23  1  0
  4 29  1  0
  4 30  1  0
  6 31  1  0
  7 32  1  0
  8 33  1  0
  9 34  1  0
 10 35  1  0
 12 36  1  0
 12 37  1  0
 14 38  1  0
 15 39  1  0
 16 40  1  0
 17 41  1  0
 19 42  1  1
 21 43  1  0
 22 44  1  0
 24 45  1  0
 25 46  1  0
 26 47  1  0
 27 48  1  0
M  END
>  <smiles>  (96) 
O=S(=O)(Cc1ccccc1)N1Cc2ccccc2C1c1c[nH]c2ccccc12

>  <score_type>  (96) 
oracle

>  <origin>  (96) 
autodockgpu

>  <m_score__min__energy>  (96) 
-8.3300000000000001

>  <m_primary>  (96) 
energy

>  <rmsd>  (96) 
4.041801081830777

>  <m_score__min__rmsd>  (96) 
4.041801081830777

>  <meeko>  (96) 
{"free_energy": -7.2, "intermolecular_energy": -8.4, "internal_energy": -2.62, "cluster_size": 26, "cluster_id": 4, "rank_in_cluster": 13}

>  <energy>  (96) 
-7.2

>  <cluster_rmsd>  (96) 
0.08

>  <cluster>  (96) 
4

$$$$

     RDKit          3D

 48 52  0  0  0  0  0  0  0  0999 V2000
  135.7280   68.5720  223.8830 O   0  0  0  0  0  0  0  0  0  0  0  0
  135.6450   69.9040  224.5990 S   0  0  0  0  0  0  0  0  0  0  0  0
  135.5870   69.6680  226.0780 O   0  0  0  0  0  0  0  0  0  0  0  0
  134.2150   70.8140  224.1150 C   0  0  0  0  0  0  0  0  0  0  0  0
  133.7270   71.7300  225.1710 C   0  0  0  0  0  0  0  0  0  0  0  0
  132.9390   71.3110  226.2250 C   0  0  0  0  0  0  0  0  0  0  0  0
  132.4730   72.1310  227.2120 C   0  0  0  0  0  0  0  0  0  0  0  0
  132.8230   73.4730  227.1370 C   0  0  0  0  0  0  0  0  0  0  0  0
  133.6160   73.8990  226.0780 C   0  0  0  0  0  0  0  0  0  0  0  0
  134.0730   73.0640  225.1000 C   0  0  0  0  0  0  0  0  0  0  0  0
  137.0620   70.8320  224.2690 N   0  0  0  0  0  0  0  0  0  0  0  0
  136.8890   71.6080  223.0300 C   0  0  0  0  0  0  0  0  0  0  0  0
  138.2970   71.9420  222.7100 C   0  0  0  0  0  0  0  0  0  0  0  0
  138.7970   73.0130  221.9850 C   0  0  0  0  0  0  0  0  0  0  0  0
  140.1740   73.1270  221.8070 C   0  0  0  0  0  0  0  0  0  0  0  0
  141.0010   72.1690  222.3590 C   0  0  0  0  0  0  0  0  0  0  0  0
  140.4600   71.1070  223.0810 C   0  0  0  0  0  0  0  0  0  0  0  0
  139.1020   70.9740  223.2700 C   0  0  0  0  0  0  0  0  0  0  0  0
  138.1920   70.0220  223.9540 C   0  0  1  0  0  0  0  0  0  0  0  0
  138.8410   69.3740  225.1160 C   0  0  0  0  0  0  0  0  0  0  0  0
  138.8600   68.0760  225.5330 C   0  0  0  0  0  0  0  0  0  0  0  0
  139.5810   67.9490  226.6680 N   0  0  0  0  0  0  0  0  0  0  0  0
  140.0310   69.1710  226.9860 C   0  0  0  0  0  0  0  0  0  0  0  0
  140.8150   69.6040  228.0460 C   0  0  0  0  0  0  0  0  0  0  0  0
  141.1830   70.9230  228.2080 C   0  0  0  0  0  0  0  0  0  0  0  0
  140.7440   71.8340  227.2670 C   0  0  0  0  0  0  0  0  0  0  0  0
  139.9660   71.3920  226.2200 C   0  0  0  0  0  0  0  0  0  0  0  0
  139.5900   70.0780  226.0440 C   0  0  0  0  0  0  0  0  0  0  0  0
  134.4629   71.4079  223.2229 H   0  0  0  0  0  0  0  0  0  0  0  0
  133.4144   70.0866  223.9148 H   0  0  0  0  0  0  0  0  0  0  0  0
  132.6689   70.2457  226.2723 H   0  0  0  0  0  0  0  0  0  0  0  0
  131.8477   71.7457  228.0309 H   0  0  0  0  0  0  0  0  0  0  0  0
  132.4790   74.1853  227.9014 H   0  0  0  0  0  0  0  0  0  0  0  0
  133.8891   74.9633  226.0255 H   0  0  0  0  0  0  0  0  0  0  0  0
  134.6990   73.4434  224.2789 H   0  0  0  0  0  0  0  0  0  0  0  0
  136.4261   71.0040  222.2358 H   0  0  0  0  0  0  0  0  0  0  0  0
  136.2261   72.4802  223.1287 H   0  0  0  0  0  0  0  0  0  0  0  0
  138.1156   73.7625  221.5562 H   0  0  0  0  0  0  0  0  0  0  0  0
  140.5958   73.9670  221.2357 H   0  0  0  0  0  0  0  0  0  0  0  0
  142.0906   72.2444  222.2284 H   0  0  0  0  0  0  0  0  0  0  0  0
  141.1361   70.3540  223.5120 H   0  0  0  0  0  0  0  0  0  0  0  0
  137.9013   69.1554  223.3421 H   0  0  0  0  0  0  0  0  0  0  0  0
  138.3569   67.2457  225.0157 H   0  0  0  0  0  0  0  0  0  0  0  0
  139.7880   67.1010  227.2370 H   0  0  0  0  0  0  0  0  0  0  0  0
  141.1565   68.8657  228.7865 H   0  0  0  0  0  0  0  0  0  0  0  0
  141.8053   71.2392  229.0581 H   0  0  0  0  0  0  0  0  0  0  0  0
  141.0120   72.8974  227.3527 H   0  0  0  0  0  0  0  0  0  0  0  0
  139.6246   72.1315  225.4807 H   0  0  0  0  0  0  0  0  0  0  0  0
  1  2  2  0
  2  3  2  0
  2  4  1  0
  4  5  1  0
  5  6  2  0
  6  7  1  0
  7  8  2  0
  8  9  1  0
  9 10  2  0
  2 11  1  0
 11 12  1  0
 12 13  1  0
 13 14  2  0
 14 15  1  0
 15 16  2  0
 16 17  1  0
 17 18  2  0
 18 19  1  0
 19 20  1  0
 20 21  2  0
 21 22  1  0
 22 23  1  0
 23 24  2  0
 24 25  1  0
 25 26  2  0
 26 27  1  0
 27 28  2  0
 10  5  1  0
 19 11  1  0
 28 20  1  0
 18 13  1  0
 28 23  1  0
  4 29  1  0
  4 30  1  0
  6 31  1  0
  7 32  1  0
  8 33  1  0
  9 34  1  0
 10 35  1  0
 12 36  1  0
 12 37  1  0
 14 38  1  0
 15 39  1  0
 16 40  1  0
 17 41  1  0
 19 42  1  6
 21 43  1  0
 22 44  1  0
 24 45  1  0
 25 46  1  0
 26 47  1  0
 27 48  1  0
M  END
>  <smiles>  (97) 
O=S(=O)(Cc1ccccc1)N1Cc2ccccc2C1c1c[nH]c2ccccc12

>  <score_type>  (97) 
oracle

>  <origin>  (97) 
autodockgpu

>  <m_score__min__energy>  (97) 
-8.3300000000000001

>  <m_primary>  (97) 
energy

>  <rmsd>  (97) 
10.230488656125258

>  <m_score__min__rmsd>  (97) 
10.230488656125258

>  <meeko>  (97) 
{"free_energy": -8.33, "intermolecular_energy": -9.52, "internal_energy": -1.7, "cluster_size": 13, "cluster_id": 1, "rank_in_cluster": 1}

>  <energy>  (97) 
-7.2

>  <cluster_rmsd>  (97) 
0.08

>  <cluster>  (97) 
4

$$$$

     RDKit          3D

 48 52  0  0  0  0  0  0  0  0999 V2000
  135.7990   68.4790  223.4150 O   0  0  0  0  0  0  0  0  0  0  0  0
  135.6980   69.7200  224.2770 S   0  0  0  0  0  0  0  0  0  0  0  0
  135.6610   69.3190  225.7200 O   0  0  0  0  0  0  0  0  0  0  0  0
  134.2460   70.6480  223.9100 C   0  0  0  0  0  0  0  0  0  0  0  0
  134.1750   71.9290  224.6500 C   0  0  0  0  0  0  0  0  0  0  0  0
  134.7510   73.0970  224.1880 C   0  0  0  0  0  0  0  0  0  0  0  0
  134.7040   74.2920  224.8470 C   0  0  0  0  0  0  0  0  0  0  0  0
  134.0290   74.3190  226.0600 C   0  0  0  0  0  0  0  0  0  0  0  0
  133.4480   73.1460  226.5280 C   0  0  0  0  0  0  0  0  0  0  0  0
  133.5050   71.9600  225.8560 C   0  0  0  0  0  0  0  0  0  0  0  0
  137.0930   70.7080  224.0410 N   0  0  0  0  0  0  0  0  0  0  0  0
  136.9690   71.4780  222.7930 C   0  0  0  0  0  0  0  0  0  0  0  0
  138.3800   71.8730  222.5670 C   0  0  0  0  0  0  0  0  0  0  0  0
  138.8810   72.9660  221.8760 C   0  0  0  0  0  0  0  0  0  0  0  0
  140.2610   73.1390  221.7890 C   0  0  0  0  0  0  0  0  0  0  0  0
  141.0890   72.2160  222.3960 C   0  0  0  0  0  0  0  0  0  0  0  0
  140.5470   71.1300  223.0820 C   0  0  0  0  0  0  0  0  0  0  0  0
  139.1870   70.9390  223.1800 C   0  0  0  0  0  0  0  0  0  0  0  0
  138.2750   69.9480  223.8030 C   0  0  1  0  0  0  0  0  0  0  0  0
  138.8720   69.3260  225.0060 C   0  0  0  0  0  0  0  0  0  0  0  0
  138.8660   68.0390  225.4560 C   0  0  0  0  0  0  0  0  0  0  0  0
  139.5390   67.9370  226.6220 N   0  0  0  0  0  0  0  0  0  0  0  0
  139.9840   69.1640  226.9280 C   0  0  0  0  0  0  0  0  0  0  0  0
  140.7280   69.6200  228.0070 C   0  0  0  0  0  0  0  0  0  0  0  0
  141.0970   70.9400  228.1510 C   0  0  0  0  0  0  0  0  0  0  0  0
  140.7020   71.8290  227.1700 C   0  0  0  0  0  0  0  0  0  0  0  0
  139.9650   71.3650  226.1040 C   0  0  0  0  0  0  0  0  0  0  0  0
  139.5880   70.0490  225.9460 C   0  0  0  0  0  0  0  0  0  0  0  0
  134.2319   70.8649  222.8317 H   0  0  0  0  0  0  0  0  0  0  0  0
  133.3815   70.0417  224.2184 H   0  0  0  0  0  0  0  0  0  0  0  0
  135.2826   73.0618  223.2256 H   0  0  0  0  0  0  0  0  0  0  0  0
  135.1801   75.1939  224.4348 H   0  0  0  0  0  0  0  0  0  0  0  0
  133.9554   75.2509  226.6397 H   0  0  0  0  0  0  0  0  0  0  0  0
  132.9148   73.1756  227.4897 H   0  0  0  0  0  0  0  0  0  0  0  0
  133.0308   71.0550  226.2636 H   0  0  0  0  0  0  0  0  0  0  0  0
  136.5862   70.8562  221.9703 H   0  0  0  0  0  0  0  0  0  0  0  0
  136.2638   72.3205  222.8466 H   0  0  0  0  0  0  0  0  0  0  0  0
  138.1981   73.6869  221.4028 H   0  0  0  0  0  0  0  0  0  0  0  0
  140.6837   73.9969  221.2456 H   0  0  0  0  0  0  0  0  0  0  0  0
  142.1807   72.3379  222.3382 H   0  0  0  0  0  0  0  0  0  0  0  0
  141.2245   70.4059  223.5580 H   0  0  0  0  0  0  0  0  0  0  0  0
  138.0631   69.0709  223.1739 H   0  0  0  0  0  0  0  0  0  0  0  0
  138.3793   67.1985  224.9396 H   0  0  0  0  0  0  0  0  0  0  0  0
  139.7180   67.1030  227.2210 H   0  0  0  0  0  0  0  0  0  0  0  0
  141.0356   68.8988  228.7785 H   0  0  0  0  0  0  0  0  0  0  0  0
  141.6861   71.2744  229.0177 H   0  0  0  0  0  0  0  0  0  0  0  0
  140.9727   72.8929  227.2398 H   0  0  0  0  0  0  0  0  0  0  0  0
  139.6590   72.0872  225.3328 H   0  0  0  0  0  0  0  0  0  0  0  0
  1  2  2  0
  2  3  2  0
  2  4  1  0
  4  5  1  0
  5  6  2  0
  6  7  1  0
  7  8  2  0
  8  9  1  0
  9 10  2  0
  2 11  1  0
 11 12  1  0
 12 13  1  0
 13 14  2  0
 14 15  1  0
 15 16  2  0
 16 17  1  0
 17 18  2  0
 18 19  1  0
 19 20  1  0
 20 21  2  0
 21 22  1  0
 22 23  1  0
 23 24  2  0
 24 25  1  0
 25 26  2  0
 26 27  1  0
 27 28  2  0
 10  5  1  0
 19 11  1  0
 28 20  1  0
 18 13  1  0
 28 23  1  0
  4 29  1  0
  4 30  1  0
  6 31  1  0
  7 32  1  0
  8 33  1  0
  9 34  1  0
 10 35  1  0
 12 36  1  0
 12 37  1  0
 14 38  1  0
 15 39  1  0
 16 40  1  0
 17 41  1  0
 19 42  1  6
 21 43  1  0
 22 44  1  0
 24 45  1  0
 25 46  1  0
 26 47  1  0
 27 48  1  0
M  END
>  <smiles>  (98) 
O=S(=O)(Cc1ccccc1)N1Cc2ccccc2C1c1c[nH]c2ccccc12

>  <score_type>  (98) 
oracle

>  <origin>  (98) 
autodockgpu

>  <m_score__min__energy>  (98) 
-8.3300000000000001

>  <m_primary>  (98) 
energy

>  <rmsd>  (98) 
10.222702347829209

>  <m_score__min__rmsd>  (98) 
10.222702347829209

>  <meeko>  (98) 
{"free_energy": -8.05, "intermolecular_energy": -9.25, "internal_energy": -1.73, "cluster_size": 13, "cluster_id": 1, "rank_in_cluster": 13}

>  <energy>  (98) 
-7.2

>  <cluster_rmsd>  (98) 
0.08

>  <cluster>  (98) 
4

$$$$

     RDKit          3D

 48 52  0  0  0  0  0  0  0  0999 V2000
  139.2660   78.3950  219.9050 O   0  0  0  0  0  0  0  0  0  0  0  0
  139.1780   77.0380  220.5730 S   0  0  0  0  0  0  0  0  0  0  0  0
  137.9270   76.3460  220.1240 O   0  0  0  0  0  0  0  0  0  0  0  0
  139.1460   77.1820  222.3290 C   0  0  0  0  0  0  0  0  0  0  0  0
  140.0220   78.2630  222.8380 C   0  0  0  0  0  0  0  0  0  0  0  0
  141.3600   78.0730  223.1250 C   0  0  0  0  0  0  0  0  0  0  0  0
  142.1930   79.0480  223.5950 C   0  0  0  0  0  0  0  0  0  0  0  0
  141.6430   80.3080  223.7930 C   0  0  0  0  0  0  0  0  0  0  0  0
  140.2970   80.5020  223.5050 C   0  0  0  0  0  0  0  0  0  0  0  0
  139.4800   79.5160  223.0350 C   0  0  0  0  0  0  0  0  0  0  0  0
  140.5190   76.0650  220.0950 N   0  0  0  0  0  0  0  0  0  0  0  0
  140.6780   74.9250  221.0130 C   0  0  0  0  0  0  0  0  0  0  0  0
  142.0700   74.5160  220.7120 C   0  0  0  0  0  0  0  0  0  0  0  0
  142.6640   73.2710  220.8530 C   0  0  0  0  0  0  0  0  0  0  0  0
  144.0040   73.1150  220.5040 C   0  0  0  0  0  0  0  0  0  0  0  0
  144.7020   74.2070  220.0280 C   0  0  0  0  0  0  0  0  0  0  0  0
  144.0700   75.4430  219.9010 C   0  0  0  0  0  0  0  0  0  0  0  0
  142.7460   75.6200  220.2390 C   0  0  0  0  0  0  0  0  0  0  0  0
  141.7690   76.7360  220.2370 C   0  0  1  0  0  0  0  0  0  0  0  0
  142.0680   77.7330  219.1860 C   0  0  0  0  0  0  0  0  0  0  0  0
  142.5250   77.5910  217.9090 C   0  0  0  0  0  0  0  0  0  0  0  0
  142.6620   78.7950  217.3140 N   0  0  0  0  0  0  0  0  0  0  0  0
  142.2920   79.7220  218.2100 C   0  0  0  0  0  0  0  0  0  0  0  0
  142.2390   81.1050  218.1200 C   0  0  0  0  0  0  0  0  0  0  0  0
  141.8230   81.9030  219.1640 C   0  0  0  0  0  0  0  0  0  0  0  0
  141.4470   81.2800  220.3390 C   0  0  0  0  0  0  0  0  0  0  0  0
  141.5040   79.9070  220.4170 C   0  0  0  0  0  0  0  0  0  0  0  0
  141.9180   79.0960  219.3820 C   0  0  0  0  0  0  0  0  0  0  0  0
  138.1130   77.3902  222.6447 H   0  0  0  0  0  0  0  0  0  0  0  0
  139.5193   76.2339  222.7434 H   0  0  0  0  0  0  0  0  0  0  0  0
  141.7824   77.0701  222.9643 H   0  0  0  0  0  0  0  0  0  0  0  0
  143.2529   78.8443  223.8074 H   0  0  0  0  0  0  0  0  0  0  0  0
  142.2606   81.1363  224.1704 H   0  0  0  0  0  0  0  0  0  0  0  0
  139.8685   81.5025  223.6644 H   0  0  0  0  0  0  0  0  0  0  0  0
  138.4197   79.7143  222.8194 H   0  0  0  0  0  0  0  0  0  0  0  0
  140.5648   75.2324  222.0631 H   0  0  0  0  0  0  0  0  0  0  0  0
  139.9314   74.1279  220.8818 H   0  0  0  0  0  0  0  0  0  0  0  0
  142.0849   72.4175  221.2354 H   0  0  0  0  0  0  0  0  0  0  0  0
  144.4978   72.1374  220.6061 H   0  0  0  0  0  0  0  0  0  0  0  0
  145.7605   74.1013  219.7480 H   0  0  0  0  0  0  0  0  0  0  0  0
  144.6441   76.3007  219.5205 H   0  0  0  0  0  0  0  0  0  0  0  0
  141.7869   77.3537  221.1470 H   0  0  0  0  0  0  0  0  0  0  0  0
  142.7511   76.6272  217.4294 H   0  0  0  0  0  0  0  0  0  0  0  0
  142.9860   79.0340  216.3520 H   0  0  0  0  0  0  0  0  0  0  0  0
  142.5412   81.5844  217.1772 H   0  0  0  0  0  0  0  0  0  0  0  0
  141.7913   82.9981  219.0654 H   0  0  0  0  0  0  0  0  0  0  0  0
  141.1067   81.8735  221.2004 H   0  0  0  0  0  0  0  0  0  0  0  0
  141.2015   79.4289  221.3604 H   0  0  0  0  0  0  0  0  0  0  0  0
  1  2  2  0
  2  3  2  0
  2  4  1  0
  4  5  1  0
  5  6  2  0
  6  7  1  0
  7  8  2  0
  8  9  1  0
  9 10  2  0
  2 11  1  0
 11 12  1  0
 12 13  1  0
 13 14  2  0
 14 15  1  0
 15 16  2  0
 16 17  1  0
 17 18  2  0
 18 19  1  0
 19 20  1  0
 20 21  2  0
 21 22  1  0
 22 23  1  0
 23 24  2  0
 24 25  1  0
 25 26  2  0
 26 27  1  0
 27 28  2  0
 10  5  1  0
 19 11  1  0
 28 20  1  0
 18 13  1  0
 28 23  1  0
  4 29  1  0
  4 30  1  0
  6 31  1  0
  7 32  1  0
  8 33  1  0
  9 34  1  0
 10 35  1  0
 12 36  1  0
 12 37  1  0
 14 38  1  0
 15 39  1  0
 16 40  1  0
 17 41  1  0
 19 42  1  1
 21 43  1  0
 22 44  1  0
 24 45  1  0
 25 46  1  0
 26 47  1  0
 27 48  1  0
M  END
>  <smiles>  (99) 
O=S(=O)(Cc1ccccc1)N1Cc2ccccc2C1c1c[nH]c2ccccc12

>  <score_type>  (99) 
oracle

>  <origin>  (99) 
autodockgpu

>  <m_score__min__energy>  (99) 
-8.3300000000000001

>  <m_primary>  (99) 
energy

>  <rmsd>  (99) 
4.51175008044088

>  <m_score__min__rmsd>  (99) 
4.51175008044088

>  <meeko>  (99) 
{"free_energy": -7.53, "intermolecular_energy": -8.73, "internal_energy": -2.25, "cluster_size": 7, "cluster_id": 2, "rank_in_cluster": 4}

>  <energy>  (99) 
-7.18

>  <cluster_rmsd>  (99) 
0.11

>  <cluster>  (99) 
4

$$$$

     RDKit          3D

 48 52  0  0  0  0  0  0  0  0999 V2000
  140.2190   74.8800  222.3380 O   0  0  0  0  0  0  0  0  0  0  0  0
  140.1350   76.3730  222.0940 S   0  0  0  0  0  0  0  0  0  0  0  0
  141.0740   77.0800  223.0240 O   0  0  0  0  0  0  0  0  0  0  0  0
  138.5040   76.9830  222.3650 C   0  0  0  0  0  0  0  0  0  0  0  0
  138.4660   78.4430  222.6160 C   0  0  0  0  0  0  0  0  0  0  0  0
  139.0820   79.0340  223.7020 C   0  0  0  0  0  0  0  0  0  0  0  0
  139.0650   80.3750  223.9620 C   0  0  0  0  0  0  0  0  0  0  0  0
  138.3780   81.1830  223.0660 C   0  0  0  0  0  0  0  0  0  0  0  0
  137.7560   80.5910  221.9720 C   0  0  0  0  0  0  0  0  0  0  0  0
  137.7850   79.2490  221.7280 C   0  0  0  0  0  0  0  0  0  0  0  0
  140.6270   76.7270  220.4790 N   0  0  0  0  0  0  0  0  0  0  0  0
  141.1640   75.5200  219.8300 C   0  0  0  0  0  0  0  0  0  0  0  0
  141.9050   76.1180  218.6950 C   0  0  0  0  0  0  0  0  0  0  0  0
  142.2210   75.5580  217.4670 C   0  0  0  0  0  0  0  0  0  0  0  0
  142.9360   76.3150  216.5400 C   0  0  0  0  0  0  0  0  0  0  0  0
  143.3070   77.6020  216.8730 C   0  0  0  0  0  0  0  0  0  0  0  0
  142.9700   78.1290  218.1190 C   0  0  0  0  0  0  0  0  0  0  0  0
  142.2650   77.4000  219.0500 C   0  0  0  0  0  0  0  0  0  0  0  0
  141.7410   77.6140  220.4220 C   0  0  1  0  0  0  0  0  0  0  0  0
  141.4230   79.0360  220.6780 C   0  0  0  0  0  0  0  0  0  0  0  0
  140.7040   79.9460  219.9600 C   0  0  0  0  0  0  0  0  0  0  0  0
  140.6900   81.1430  220.5840 N   0  0  0  0  0  0  0  0  0  0  0  0
  141.4040   81.0080  221.7110 C   0  0  0  0  0  0  0  0  0  0  0  0
  141.7040   81.9200  222.7130 C   0  0  0  0  0  0  0  0  0  0  0  0
  142.4640   81.5910  223.8150 C   0  0  0  0  0  0  0  0  0  0  0  0
  142.9350   80.2950  223.9070 C   0  0  0  0  0  0  0  0  0  0  0  0
  142.6310   79.3990  222.9070 C   0  0  0  0  0  0  0  0  0  0  0  0
  141.8730   79.7130  221.8000 C   0  0  0  0  0  0  0  0  0  0  0  0
  137.8956   76.7644  221.4750 H   0  0  0  0  0  0  0  0  0  0  0  0
  138.1113   76.4844  223.2635 H   0  0  0  0  0  0  0  0  0  0  0  0
  139.6220   78.3816  224.4040 H   0  0  0  0  0  0  0  0  0  0  0  0
  139.5730   80.7960  224.8422 H   0  0  0  0  0  0  0  0  0  0  0  0
  138.3266   82.2712  223.2186 H   0  0  0  0  0  0  0  0  0  0  0  0
  137.2128   81.2379  221.2674 H   0  0  0  0  0  0  0  0  0  0  0  0
  137.2800   78.8224  220.8488 H   0  0  0  0  0  0  0  0  0  0  0  0
  141.8339   74.9636  220.5020 H   0  0  0  0  0  0  0  0  0  0  0  0
  140.4008   74.7840  219.5370 H   0  0  0  0  0  0  0  0  0  0  0  0
  141.9117   74.5300  217.2271 H   0  0  0  0  0  0  0  0  0  0  0  0
  143.2002   75.8934  215.5590 H   0  0  0  0  0  0  0  0  0  0  0  0
  143.8703   78.2139  216.1531 H   0  0  0  0  0  0  0  0  0  0  0  0
  143.2761   79.1565  218.3652 H   0  0  0  0  0  0  0  0  0  0  0  0
  142.4642   77.3953  221.2214 H   0  0  0  0  0  0  0  0  0  0  0  0
  140.2040   79.7336  219.0035 H   0  0  0  0  0  0  0  0  0  0  0  0
  140.2360   82.0380  220.3040 H   0  0  0  0  0  0  0  0  0  0  0  0
  141.3198   82.9469  222.6243 H   0  0  0  0  0  0  0  0  0  0  0  0
  142.6879   82.3344  224.5943 H   0  0  0  0  0  0  0  0  0  0  0  0
  143.5448   79.9835  224.7679 H   0  0  0  0  0  0  0  0  0  0  0  0
  143.0157   78.3724  222.9970 H   0  0  0  0  0  0  0  0  0  0  0  0
  1  2  2  0
  2  3  2  0
  2  4  1  0
  4  5  1  0
  5  6  2  0
  6  7  1  0
  7  8  2  0
  8  9  1  0
  9 10  2  0
  2 11  1  0
 11 12  1  0
 12 13  1  0
 13 14  2  0
 14 15  1  0
 15 16  2  0
 16 17  1  0
 17 18  2  0
 18 19  1  0
 19 20  1  0
 20 21  2  0
 21 22  1  0
 22 23  1  0
 23 24  2  0
 24 25  1  0
 25 26  2  0
 26 27  1  0
 27 28  2  0
 10  5  1  0
 19 11  1  0
 28 20  1  0
 18 13  1  0
 28 23  1  0
  4 29  1  0
  4 30  1  0
  6 31  1  0
  7 32  1  0
  8 33  1  0
  9 34  1  0
 10 35  1  0
 12 36  1  0
 12 37  1  0
 14 38  1  0
 15 39  1  0
 16 40  1  0
 17 41  1  0
 19 42  1  1
 21 43  1  0
 22 44  1  0
 24 45  1  0
 25 46  1  0
 26 47  1  0
 27 48  1  0
M  END
>  <smiles>  (100) 
O=S(=O)(Cc1ccccc1)N1Cc2ccccc2C1c1c[nH]c2ccccc12

>  <score_type>  (100) 
oracle

>  <origin>  (100) 
autodockgpu

>  <m_score__min__energy>  (100) 
-8.3300000000000001

>  <m_primary>  (100) 
energy

>  <rmsd>  (100) 
4.052576803785721

>  <m_score__min__rmsd>  (100) 
4.052576803785721

>  <meeko>  (100) 
{"free_energy": -7.2, "intermolecular_energy": -8.4, "internal_energy": -2.62, "cluster_size": 26, "cluster_id": 4, "rank_in_cluster": 12}

>  <energy>  (100) 
-7.13

>  <cluster_rmsd>  (100) 
0.2

>  <cluster>  (100) 
4

$$$$
