
     RDKit          3D

 50 52  0  0  0  0  0  0  0  0999 V2000
  146.0110   73.3930  221.2110 C   0  0  0  0  0  0  0  0  0  0  0  0
  144.5480   73.3820  220.7890 C   0  0  0  0  0  0  0  0  0  0  0  0
  144.3070   74.2340  219.5930 C   0  0  0  0  0  0  0  0  0  0  0  0
  143.2640   75.2620  219.8400 C   0  0  2  0  0  0  0  0  0  0  0  0
  141.9350   74.7500  220.0770 N   0  0  0  0  0  0  0  0  0  0  0  0
  141.0160   75.4540  220.8780 C   0  0  0  0  0  0  0  0  0  0  0  0
  141.4110   76.5550  221.3720 O   0  0  0  0  0  0  0  0  0  0  0  0
  139.6440   75.0340  221.1950 C   0  0  0  0  0  0  0  0  0  0  0  0
  139.6550   74.0010  222.1810 N   0  0  0  0  0  0  0  0  0  0  0  0
  140.1600   72.7040  221.8960 C   0  0  0  0  0  0  0  0  0  0  0  0
  140.6340   72.3660  220.7790 O   0  0  0  0  0  0  0  0  0  0  0  0
  140.1150   71.7130  222.9810 C   0  0  0  0  0  0  0  0  0  0  0  0
  139.5790   70.4450  222.7420 C   0  0  0  0  0  0  0  0  0  0  0  0
  139.5540   69.5340  223.7970 C   0  0  0  0  0  0  0  0  0  0  0  0
  140.0400   69.8600  225.0460 C   0  0  0  0  0  0  0  0  0  0  0  0
  140.0340   68.9900  226.1140 C   0  0  0  0  0  0  0  0  0  0  0  0
  140.5370   69.3770  227.3470 C   0  0  0  0  0  0  0  0  0  0  0  0
  140.5440   68.2970  228.7240 Cl  0  0  0  0  0  0  0  0  0  0  0  0
  141.0540   70.6460  227.5200 C   0  0  0  0  0  0  0  0  0  0  0  0
  141.0730   71.5470  226.4560 C   0  0  0  0  0  0  0  0  0  0  0  0
  140.5610   71.1230  225.2460 C   0  0  0  0  0  0  0  0  0  0  0  0
  140.5650   71.9640  224.2050 N   0  0  0  0  0  0  0  0  0  0  0  0
  143.1630   76.1570  218.6610 C   0  0  0  0  0  0  0  0  0  0  0  0
  143.5070   75.7770  217.3810 C   0  0  0  0  0  0  0  0  0  0  0  0
  143.4130   76.6170  216.2910 C   0  0  0  0  0  0  0  0  0  0  0  0
  142.9550   77.9110  216.4520 C   0  0  0  0  0  0  0  0  0  0  0  0
  142.6020   78.3230  217.7200 C   0  0  0  0  0  0  0  0  0  0  0  0
  142.7020   77.4680  218.8000 C   0  0  0  0  0  0  0  0  0  0  0  0
  146.0759   73.3935  222.3091 H   0  0  0  0  0  0  0  0  0  0  0  0
  146.5138   72.4986  220.8144 H   0  0  0  0  0  0  0  0  0  0  0  0
  146.5003   74.2948  220.8144 H   0  0  0  0  0  0  0  0  0  0  0  0
  144.2538   72.3485  220.5540 H   0  0  0  0  0  0  0  0  0  0  0  0
  143.9513   73.7860  221.6201 H   0  0  0  0  0  0  0  0  0  0  0  0
  145.2459   74.7393  219.3225 H   0  0  0  0  0  0  0  0  0  0  0  0
  143.9549   73.5832  218.7791 H   0  0  0  0  0  0  0  0  0  0  0  0
  143.5935   75.7725  220.7570 H   0  0  0  0  0  0  0  0  0  0  0  0
  141.6840   73.8510  219.6200 H   0  0  0  0  0  0  0  0  0  0  0  0
  139.0807   75.8967  221.5802 H   0  0  0  0  0  0  0  0  0  0  0  0
  139.1682   74.6496  220.2807 H   0  0  0  0  0  0  0  0  0  0  0  0
  139.2770   74.2110  223.1470 H   0  0  0  0  0  0  0  0  0  0  0  0
  139.1881   70.1735  221.7503 H   0  0  0  0  0  0  0  0  0  0  0  0
  139.1363   68.5303  223.6292 H   0  0  0  0  0  0  0  0  0  0  0  0
  139.6255   67.9766  225.9873 H   0  0  0  0  0  0  0  0  0  0  0  0
  141.4521   70.9469  228.5003 H   0  0  0  0  0  0  0  0  0  0  0  0
  141.4820   72.5610  226.5766 H   0  0  0  0  0  0  0  0  0  0  0  0
  143.8748   74.7527  217.2211 H   0  0  0  0  0  0  0  0  0  0  0  0
  143.7027   76.2567  215.2929 H   0  0  0  0  0  0  0  0  0  0  0  0
  142.8743   78.5932  215.5929 H   0  0  0  0  0  0  0  0  0  0  0  0
  142.2351   79.3486  217.8735 H   0  0  0  0  0  0  0  0  0  0  0  0
  142.4105   77.8295  219.7972 H   0  0  0  0  0  0  0  0  0  0  0  0
  1  2  1  0
  2  3  1  0
  3  4  1  0
  4  5  1  0
  5  6  1  0
  6  7  2  0
  6  8  1  0
  8  9  1  0
  9 10  1  0
 10 11  2  0
 10 12  1  0
 12 13  2  0
 13 14  1  0
 14 15  2  0
 15 16  1  0
 16 17  2  0
 17 18  1  0
 17 19  1  0
 19 20  2  0
 20 21  1  0
 21 22  2  0
  4 23  1  0
 23 24  2  0
 24 25  1  0
 25 26  2  0
 26 27  1  0
 27 28  2  0
 22 12  1  0
 28 23  1  0
 21 15  1  0
  1 29  1  0
  1 30  1  0
  1 31  1  0
  2 32  1  0
  2 33  1  0
  3 34  1  0
  3 35  1  0
  4 36  1  1
  5 37  1  0
  8 38  1  0
  8 39  1  0
  9 40  1  0
 13 41  1  0
 14 42  1  0
 16 43  1  0
 19 44  1  0
 20 45  1  0
 24 46  1  0
 25 47  1  0
 26 48  1  0
 27 49  1  0
 28 50  1  0
M  END
>  <smiles>  (1) 
CCC[C@H](NC(=O)CNC(=O)c1ccc2cc(Cl)ccc2n1)c1ccccc1

>  <score_type>  (1) 
oracle

>  <origin>  (1) 
autodockgpu

>  <m_score__min__energy>  (1) 
-9.0399999999999991

>  <m_primary>  (1) 
energy

>  <rmsd>  (1) 
3.4782573057932002

>  <m_score__min__rmsd>  (1) 
3.4782573057932002

>  <meeko>  (1) 
{"free_energy": -7.83, "intermolecular_energy": -9.92, "internal_energy": -2.15, "cluster_size": 2, "cluster_id": 5, "rank_in_cluster": 1}

>  <energy>  (1) 
-9.04

>  <cluster_rmsd>  (1) 
0.0

>  <cluster>  (1) 
1

$$$$

     RDKit          3D

 50 52  0  0  0  0  0  0  0  0999 V2000
  139.5990   70.3420  221.6450 C   0  0  0  0  0  0  0  0  0  0  0  0
  139.6870   71.7930  222.1010 C   0  0  0  0  0  0  0  0  0  0  0  0
  140.0670   71.9020  223.5360 C   0  0  0  0  0  0  0  0  0  0  0  0
  139.5510   70.7660  224.3390 C   0  0  2  0  0  0  0  0  0  0  0  0
  138.1140   70.6870  224.4470 N   0  0  0  0  0  0  0  0  0  0  0  0
  137.4440   69.4510  224.3690 C   0  0  0  0  0  0  0  0  0  0  0  0
  138.1640   68.4170  224.2080 O   0  0  0  0  0  0  0  0  0  0  0  0
  135.9920   69.2450  224.4600 C   0  0  0  0  0  0  0  0  0  0  0  0
  135.3540   70.4180  224.9670 N   0  0  0  0  0  0  0  0  0  0  0  0
  134.3410   70.3450  225.9610 C   0  0  0  0  0  0  0  0  0  0  0  0
  133.9360   69.2680  226.4700 O   0  0  0  0  0  0  0  0  0  0  0  0
  133.7450   71.6140  226.4040 C   0  0  0  0  0  0  0  0  0  0  0  0
  132.5910   71.6010  227.1920 C   0  0  0  0  0  0  0  0  0  0  0  0
  132.0560   72.8240  227.5920 C   0  0  0  0  0  0  0  0  0  0  0  0
  132.6380   74.0210  227.2300 C   0  0  0  0  0  0  0  0  0  0  0  0
  132.1410   75.2510  227.6030 C   0  0  0  0  0  0  0  0  0  0  0  0
  132.7720   76.4210  227.2070 C   0  0  0  0  0  0  0  0  0  0  0  0
  132.1680   77.9980  227.6640 Cl  0  0  0  0  0  0  0  0  0  0  0  0
  133.9120   76.3670  226.4280 C   0  0  0  0  0  0  0  0  0  0  0  0
  134.4350   75.1360  226.0350 C   0  0  0  0  0  0  0  0  0  0  0  0
  133.7780   73.9960  226.4500 C   0  0  0  0  0  0  0  0  0  0  0  0
  134.2550   72.7990  226.0900 N   0  0  0  0  0  0  0  0  0  0  0  0
  140.0680   70.8640  225.7260 C   0  0  0  0  0  0  0  0  0  0  0  0
  139.7270   69.9870  226.7330 C   0  0  0  0  0  0  0  0  0  0  0  0
  140.2100   70.0880  228.0220 C   0  0  0  0  0  0  0  0  0  0  0  0
  141.0820   71.1070  228.3560 C   0  0  0  0  0  0  0  0  0  0  0  0
  141.4440   72.0030  227.3710 C   0  0  0  0  0  0  0  0  0  0  0  0
  140.9510   71.8860  226.0860 C   0  0  0  0  0  0  0  0  0  0  0  0
  139.5590   69.6830  222.5248 H   0  0  0  0  0  0  0  0  0  0  0  0
  138.6907   70.2021  221.0405 H   0  0  0  0  0  0  0  0  0  0  0  0
  140.4837   70.0933  221.0405 H   0  0  0  0  0  0  0  0  0  0  0  0
  140.4426   72.3117  221.4927 H   0  0  0  0  0  0  0  0  0  0  0  0
  138.6945   72.2504  221.9756 H   0  0  0  0  0  0  0  0  0  0  0  0
  141.1642   71.9201  223.6117 H   0  0  0  0  0  0  0  0  0  0  0  0
  139.6235   72.8266  223.9340 H   0  0  0  0  0  0  0  0  0  0  0  0
  139.8957   69.8715  223.7995 H   0  0  0  0  0  0  0  0  0  0  0  0
  137.5990   71.5770  224.5980 H   0  0  0  0  0  0  0  0  0  0  0  0
  135.5944   69.0198  223.4594 H   0  0  0  0  0  0  0  0  0  0  0  0
  135.7925   68.4064  225.1433 H   0  0  0  0  0  0  0  0  0  0  0  0
  135.6460   71.3630  224.5900 H   0  0  0  0  0  0  0  0  0  0  0  0
  132.1186   70.6527  227.4880 H   0  0  0  0  0  0  0  0  0  0  0  0
  131.1472   72.8351  228.2117 H   0  0  0  0  0  0  0  0  0  0  0  0
  131.2333   75.3056  228.2220 H   0  0  0  0  0  0  0  0  0  0  0  0
  134.4083   77.2981  226.1170 H   0  0  0  0  0  0  0  0  0  0  0  0
  135.3414   75.0756  225.4147 H   0  0  0  0  0  0  0  0  0  0  0  0
  139.0350   69.1650  226.4975 H   0  0  0  0  0  0  0  0  0  0  0  0
  139.9008   69.3572  228.7838 H   0  0  0  0  0  0  0  0  0  0  0  0
  141.4764   71.2011  229.3785 H   0  0  0  0  0  0  0  0  0  0  0  0
  142.1359   72.8232  227.6129 H   0  0  0  0  0  0  0  0  0  0  0  0
  141.2618   72.6171  225.3252 H   0  0  0  0  0  0  0  0  0  0  0  0
  1  2  1  0
  2  3  1  0
  3  4  1  0
  4  5  1  0
  5  6  1  0
  6  7  2  0
  6  8  1  0
  8  9  1  0
  9 10  1  0
 10 11  2  0
 10 12  1  0
 12 13  2  0
 13 14  1  0
 14 15  2  0
 15 16  1  0
 16 17  2  0
 17 18  1  0
 17 19  1  0
 19 20  2  0
 20 21  1  0
 21 22  2  0
  4 23  1  0
 23 24  2  0
 24 25  1  0
 25 26  2  0
 26 27  1  0
 27 28  2  0
 22 12  1  0
 28 23  1  0
 21 15  1  0
  1 29  1  0
  1 30  1  0
  1 31  1  0
  2 32  1  0
  2 33  1  0
  3 34  1  0
  3 35  1  0
  4 36  1  6
  5 37  1  0
  8 38  1  0
  8 39  1  0
  9 40  1  0
 13 41  1  0
 14 42  1  0
 16 43  1  0
 19 44  1  0
 20 45  1  0
 24 46  1  0
 25 47  1  0
 26 48  1  0
 27 49  1  0
 28 50  1  0
M  END
>  <smiles>  (2) 
CCC[C@H](NC(=O)CNC(=O)c1ccc2cc(Cl)ccc2n1)c1ccccc1

>  <score_type>  (2) 
oracle

>  <origin>  (2) 
autodockgpu

>  <m_score__min__energy>  (2) 
-9.0399999999999991

>  <m_primary>  (2) 
energy

>  <rmsd>  (2) 
7.603597972366938

>  <m_score__min__rmsd>  (2) 
7.603597972366938

>  <meeko>  (2) 
{"free_energy": -8.38, "intermolecular_energy": -10.47, "internal_energy": -1.64, "cluster_size": 16, "cluster_id": 3, "rank_in_cluster": 5}

>  <energy>  (2) 
-8.97

>  <cluster_rmsd>  (2) 
0.11

>  <cluster>  (2) 
1

$$$$

     RDKit          3D

 50 52  0  0  0  0  0  0  0  0999 V2000
  141.3090   80.5620  218.2340 C   0  0  0  0  0  0  0  0  0  0  0  0
  140.9830   79.1420  218.6780 C   0  0  0  0  0  0  0  0  0  0  0  0
  142.1690   78.4560  219.2590 C   0  0  0  0  0  0  0  0  0  0  0  0
  141.8380   77.7370  220.5150 C   0  0  2  0  0  0  0  0  0  0  0  0
  140.5550   77.0750  220.5310 N   0  0  0  0  0  0  0  0  0  0  0  0
  140.4080   75.7840  221.0730 C   0  0  0  0  0  0  0  0  0  0  0  0
  141.4510   75.2400  221.5500 O   0  0  0  0  0  0  0  0  0  0  0  0
  139.1600   75.0100  221.1400 C   0  0  0  0  0  0  0  0  0  0  0  0
  139.2600   73.9930  222.1390 N   0  0  0  0  0  0  0  0  0  0  0  0
  139.9020   72.7540  221.8780 C   0  0  0  0  0  0  0  0  0  0  0  0
  140.4320   72.4570  220.7750 O   0  0  0  0  0  0  0  0  0  0  0  0
  139.9390   71.7740  222.9740 C   0  0  0  0  0  0  0  0  0  0  0  0
  139.4560   70.4800  222.7660 C   0  0  0  0  0  0  0  0  0  0  0  0
  139.5080   69.5810  223.8300 C   0  0  0  0  0  0  0  0  0  0  0  0
  140.0180   69.9430  225.0590 C   0  0  0  0  0  0  0  0  0  0  0  0
  140.0870   69.0860  226.1350 C   0  0  0  0  0  0  0  0  0  0  0  0
  140.6120   69.5100  227.3470 C   0  0  0  0  0  0  0  0  0  0  0  0
  140.7140   68.4480  228.7330 Cl  0  0  0  0  0  0  0  0  0  0  0  0
  141.0740   70.8050  227.4900 C   0  0  0  0  0  0  0  0  0  0  0  0
  141.0160   71.6930  226.4170 C   0  0  0  0  0  0  0  0  0  0  0  0
  140.4860   71.2320  225.2290 C   0  0  0  0  0  0  0  0  0  0  0  0
  140.4170   72.0600  224.1800 N   0  0  0  0  0  0  0  0  0  0  0  0
  141.8260   78.6960  221.6460 C   0  0  0  0  0  0  0  0  0  0  0  0
  142.1880   80.0210  221.5280 C   0  0  0  0  0  0  0  0  0  0  0  0
  142.1770   80.9070  222.5860 C   0  0  0  0  0  0  0  0  0  0  0  0
  141.7900   80.4790  223.8420 C   0  0  0  0  0  0  0  0  0  0  0  0
  141.4220   79.1590  223.9950 C   0  0  0  0  0  0  0  0  0  0  0  0
  141.4380   78.2860  222.9250 C   0  0  0  0  0  0  0  0  0  0  0  0
  141.4551   81.1985  219.1192 H   0  0  0  0  0  0  0  0  0  0  0  0
  142.2290   80.5555  217.6311 H   0  0  0  0  0  0  0  0  0  0  0  0
  140.4783   80.9575  217.6311 H   0  0  0  0  0  0  0  0  0  0  0  0
  140.1874   79.1804  219.4366 H   0  0  0  0  0  0  0  0  0  0  0  0
  140.6602   78.5738  217.7931 H   0  0  0  0  0  0  0  0  0  0  0  0
  142.5540   77.7315  218.5263 H   0  0  0  0  0  0  0  0  0  0  0  0
  142.9218   79.2224  219.4955 H   0  0  0  0  0  0  0  0  0  0  0  0
  142.6143   76.9621  220.5982 H   0  0  0  0  0  0  0  0  0  0  0  0
  139.7470   77.5970  220.1390 H   0  0  0  0  0  0  0  0  0  0  0  0
  138.3279   75.6843  221.3907 H   0  0  0  0  0  0  0  0  0  0  0  0
  138.9801   74.5361  220.1638 H   0  0  0  0  0  0  0  0  0  0  0  0
  138.8420   74.1730  223.0940 H   0  0  0  0  0  0  0  0  0  0  0  0
  139.0463   70.1790  221.7905 H   0  0  0  0  0  0  0  0  0  0  0  0
  139.1328   68.5571  223.6857 H   0  0  0  0  0  0  0  0  0  0  0  0
  139.7217   68.0536  226.0321 H   0  0  0  0  0  0  0  0  0  0  0  0
  141.4887   71.1358  228.4536 H   0  0  0  0  0  0  0  0  0  0  0  0
  141.3804   72.7264  226.5139 H   0  0  0  0  0  0  0  0  0  0  0  0
  142.5015   80.3907  220.5406 H   0  0  0  0  0  0  0  0  0  0  0  0
  142.4763   81.9539  222.4297 H   0  0  0  0  0  0  0  0  0  0  0  0
  141.7760   81.1723  224.6959 H   0  0  0  0  0  0  0  0  0  0  0  0
  141.1106   78.7954  224.9854 H   0  0  0  0  0  0  0  0  0  0  0  0
  141.1373   77.2398  223.0834 H   0  0  0  0  0  0  0  0  0  0  0  0
  1  2  1  0
  2  3  1  0
  3  4  1  0
  4  5  1  0
  5  6  1  0
  6  7  2  0
  6  8  1  0
  8  9  1  0
  9 10  1  0
 10 11  2  0
 10 12  1  0
 12 13  2  0
 13 14  1  0
 14 15  2  0
 15 16  1  0
 16 17  2  0
 17 18  1  0
 17 19  1  0
 19 20  2  0
 20 21  1  0
 21 22  2  0
  4 23  1  0
 23 24  2  0
 24 25  1  0
 25 26  2  0
 26 27  1  0
 27 28  2  0
 22 12  1  0
 28 23  1  0
 21 15  1  0
  1 29  1  0
  1 30  1  0
  1 31  1  0
  2 32  1  0
  2 33  1  0
  3 34  1  0
  3 35  1  0
  4 36  1  1
  5 37  1  0
  8 38  1  0
  8 39  1  0
  9 40  1  0
 13 41  1  0
 14 42  1  0
 16 43  1  0
 19 44  1  0
 20 45  1  0
 24 46  1  0
 25 47  1  0
 26 48  1  0
 27 49  1  0
 28 50  1  0
M  END
>  <smiles>  (3) 
CCC[C@H](NC(=O)CNC(=O)c1ccc2cc(Cl)ccc2n1)c1ccccc1

>  <score_type>  (3) 
oracle

>  <origin>  (3) 
autodockgpu

>  <m_score__min__energy>  (3) 
-9.0399999999999991

>  <m_primary>  (3) 
energy

>  <rmsd>  (3) 
2.576260326848741

>  <m_score__min__rmsd>  (3) 
2.576260326848741

>  <meeko>  (3) 
{"free_energy": -8.56, "intermolecular_energy": -10.65, "internal_energy": -1.32, "cluster_size": 19, "cluster_id": 1, "rank_in_cluster": 8}

>  <energy>  (3) 
-8.89

>  <cluster_rmsd>  (3) 
1.89

>  <cluster>  (3) 
1

$$$$

     RDKit          3D

 50 52  0  0  0  0  0  0  0  0999 V2000
  140.0430   73.4540  221.5470 C   0  0  0  0  0  0  0  0  0  0  0  0
  139.8730   72.0330  222.0670 C   0  0  0  0  0  0  0  0  0  0  0  0
  140.4960   71.8520  223.4070 C   0  0  0  0  0  0  0  0  0  0  0  0
  139.8200   70.7940  224.1990 C   0  0  2  0  0  0  0  0  0  0  0  0
  138.3780   70.8520  224.2060 N   0  0  0  0  0  0  0  0  0  0  0  0
  137.6020   69.6840  224.0860 C   0  0  0  0  0  0  0  0  0  0  0  0
  138.2300   68.5860  223.9780 O   0  0  0  0  0  0  0  0  0  0  0  0
  136.1330   69.6160  224.0750 C   0  0  0  0  0  0  0  0  0  0  0  0
  135.5770   70.8070  224.6360 N   0  0  0  0  0  0  0  0  0  0  0  0
  135.7370   72.0710  224.0080 C   0  0  0  0  0  0  0  0  0  0  0  0
  136.3610   72.2430  222.9280 O   0  0  0  0  0  0  0  0  0  0  0  0
  135.1330   73.2320  224.6770 C   0  0  0  0  0  0  0  0  0  0  0  0
  135.5640   74.5220  224.3540 C   0  0  0  0  0  0  0  0  0  0  0  0
  134.9670   75.5970  225.0100 C   0  0  0  0  0  0  0  0  0  0  0  0
  133.9770   75.4090  225.9530 C   0  0  0  0  0  0  0  0  0  0  0  0
  133.3610   76.4430  226.6240 C   0  0  0  0  0  0  0  0  0  0  0  0
  132.3710   76.1900  227.5620 C   0  0  0  0  0  0  0  0  0  0  0  0
  131.5700   77.4800  228.4310 Cl  0  0  0  0  0  0  0  0  0  0  0  0
  131.9890   74.8910  227.8370 C   0  0  0  0  0  0  0  0  0  0  0  0
  132.5960   73.8260  227.1730 C   0  0  0  0  0  0  0  0  0  0  0  0
  133.5760   74.1210  226.2470 C   0  0  0  0  0  0  0  0  0  0  0  0
  134.1780   73.1200  225.5920 N   0  0  0  0  0  0  0  0  0  0  0  0
  140.2480   70.8880  225.6160 C   0  0  0  0  0  0  0  0  0  0  0  0
  141.0540   71.8940  226.1060 C   0  0  0  0  0  0  0  0  0  0  0  0
  141.4500   71.9710  227.4260 C   0  0  0  0  0  0  0  0  0  0  0  0
  141.0390   71.0100  228.3290 C   0  0  0  0  0  0  0  0  0  0  0  0
  140.2320   69.9890  227.8710 C   0  0  0  0  0  0  0  0  0  0  0  0
  139.8440   69.9280  226.5480 C   0  0  0  0  0  0  0  0  0  0  0  0
  140.1260   74.1478  222.3965 H   0  0  0  0  0  0  0  0  0  0  0  0
  140.9547   73.5137  220.9344 H   0  0  0  0  0  0  0  0  0  0  0  0
  139.1711   73.7270  220.9344 H   0  0  0  0  0  0  0  0  0  0  0  0
  138.7988   71.8080  222.1413 H   0  0  0  0  0  0  0  0  0  0  0  0
  140.3742   71.3514  221.3640 H   0  0  0  0  0  0  0  0  0  0  0  0
  141.5519   71.5744  223.2726 H   0  0  0  0  0  0  0  0  0  0  0  0
  140.3993   72.8001  223.9563 H   0  0  0  0  0  0  0  0  0  0  0  0
  140.1138   69.8545  223.7080 H   0  0  0  0  0  0  0  0  0  0  0  0
  137.9400   71.7880  224.3180 H   0  0  0  0  0  0  0  0  0  0  0  0
  135.7826   69.5054  223.0382 H   0  0  0  0  0  0  0  0  0  0  0  0
  135.8103   68.7530  224.6759 H   0  0  0  0  0  0  0  0  0  0  0  0
  135.0350   70.7400  225.5410 H   0  0  0  0  0  0  0  0  0  0  0  0
  136.3518   74.6840  223.6036 H   0  0  0  0  0  0  0  0  0  0  0  0
  135.2927   76.6200  224.7704 H   0  0  0  0  0  0  0  0  0  0  0  0
  133.6578   77.4810  226.4133 H   0  0  0  0  0  0  0  0  0  0  0  0
  131.2035   74.6965  228.5821 H   0  0  0  0  0  0  0  0  0  0  0  0
  132.3038   72.7859  227.3801 H   0  0  0  0  0  0  0  0  0  0  0  0
  141.3983   72.6736  225.4105 H   0  0  0  0  0  0  0  0  0  0  0  0
  142.0936   72.7985  227.7592 H   0  0  0  0  0  0  0  0  0  0  0  0
  141.3466   71.0574  229.3840 H   0  0  0  0  0  0  0  0  0  0  0  0
  139.8926   69.2115  228.5712 H   0  0  0  0  0  0  0  0  0  0  0  0
  139.1987   69.1007  226.2178 H   0  0  0  0  0  0  0  0  0  0  0  0
  1  2  1  0
  2  3  1  0
  3  4  1  0
  4  5  1  0
  5  6  1  0
  6  7  2  0
  6  8  1  0
  8  9  1  0
  9 10  1  0
 10 11  2  0
 10 12  1  0
 12 13  2  0
 13 14  1  0
 14 15  2  0
 15 16  1  0
 16 17  2  0
 17 18  1  0
 17 19  1  0
 19 20  2  0
 20 21  1  0
 21 22  2  0
  4 23  1  0
 23 24  2  0
 24 25  1  0
 25 26  2  0
 26 27  1  0
 27 28  2  0
 22 12  1  0
 28 23  1  0
 21 15  1  0
  1 29  1  0
  1 30  1  0
  1 31  1  0
  2 32  1  0
  2 33  1  0
  3 34  1  0
  3 35  1  0
  4 36  1  6
  5 37  1  0
  8 38  1  0
  8 39  1  0
  9 40  1  0
 13 41  1  0
 14 42  1  0
 16 43  1  0
 19 44  1  0
 20 45  1  0
 24 46  1  0
 25 47  1  0
 26 48  1  0
 27 49  1  0
 28 50  1  0
M  END
>  <smiles>  (4) 
CCC[C@H](NC(=O)CNC(=O)c1ccc2cc(Cl)ccc2n1)c1ccccc1

>  <score_type>  (4) 
oracle

>  <origin>  (4) 
autodockgpu

>  <m_score__min__energy>  (4) 
-9.0399999999999991

>  <m_primary>  (4) 
energy

>  <rmsd>  (4) 
7.338282758078035

>  <m_score__min__rmsd>  (4) 
7.338282758078035

>  <meeko>  (4) 
{"free_energy": -7.64, "intermolecular_energy": -9.73, "internal_energy": -2.37, "cluster_size": 16, "cluster_id": 3, "rank_in_cluster": 12}

>  <energy>  (4) 
-8.77

>  <cluster_rmsd>  (4) 
1.84

>  <cluster>  (4) 
1

$$$$

     RDKit          3D

 50 52  0  0  0  0  0  0  0  0999 V2000
  142.5820   78.6820  217.9540 C   0  0  0  0  0  0  0  0  0  0  0  0
  142.9510   77.2060  217.8950 C   0  0  0  0  0  0  0  0  0  0  0  0
  143.3970   76.6910  219.2190 C   0  0  0  0  0  0  0  0  0  0  0  0
  142.7660   75.3890  219.5530 C   0  0  2  0  0  0  0  0  0  0  0  0
  141.7850   75.4300  220.6110 N   0  0  0  0  0  0  0  0  0  0  0  0
  140.4070   75.3680  220.3290 C   0  0  0  0  0  0  0  0  0  0  0  0
  140.0750   75.2680  219.1080 O   0  0  0  0  0  0  0  0  0  0  0  0
  139.3180   75.4060  221.3160 C   0  0  0  0  0  0  0  0  0  0  0  0
  139.4580   74.3350  222.2520 N   0  0  0  0  0  0  0  0  0  0  0  0
  139.7190   73.0050  221.8270 C   0  0  0  0  0  0  0  0  0  0  0  0
  139.8530   72.6670  220.6210 O   0  0  0  0  0  0  0  0  0  0  0  0
  139.8340   71.9770  222.8720 C   0  0  0  0  0  0  0  0  0  0  0  0
  139.4420   70.6640  222.6010 C   0  0  0  0  0  0  0  0  0  0  0  0
  139.5660   69.7190  223.6190 C   0  0  0  0  0  0  0  0  0  0  0  0
  140.0600   70.0560  224.8630 C   0  0  0  0  0  0  0  0  0  0  0  0
  140.1980   69.1540  225.8950 C   0  0  0  0  0  0  0  0  0  0  0  0
  140.7010   69.5540  227.1240 C   0  0  0  0  0  0  0  0  0  0  0  0
  140.8900   68.4350  228.4550 Cl  0  0  0  0  0  0  0  0  0  0  0  0
  141.0710   70.8690  227.3290 C   0  0  0  0  0  0  0  0  0  0  0  0
  140.9410   71.8030  226.3020 C   0  0  0  0  0  0  0  0  0  0  0  0
  140.4360   71.3650  225.0950 C   0  0  0  0  0  0  0  0  0  0  0  0
  140.3000   72.2360  224.0880 N   0  0  0  0  0  0  0  0  0  0  0  0
  143.8110   74.4310  219.9900 C   0  0  0  0  0  0  0  0  0  0  0  0
  143.6500   73.0620  219.9650 C   0  0  0  0  0  0  0  0  0  0  0  0
  144.6260   72.1770  220.3770 C   0  0  0  0  0  0  0  0  0  0  0  0
  145.8370   72.6520  220.8430 C   0  0  0  0  0  0  0  0  0  0  0  0
  146.0310   74.0170  220.8810 C   0  0  0  0  0  0  0  0  0  0  0  0
  145.0430   74.8880  220.4650 C   0  0  0  0  0  0  0  0  0  0  0  0
  142.5029   78.9985  219.0045 H   0  0  0  0  0  0  0  0  0  0  0  0
  143.3596   79.2748  217.4500 H   0  0  0  0  0  0  0  0  0  0  0  0
  141.6169   78.8391  217.4500 H   0  0  0  0  0  0  0  0  0  0  0  0
  142.0710   76.6324  217.5685 H   0  0  0  0  0  0  0  0  0  0  0  0
  143.7847   77.0915  217.1866 H   0  0  0  0  0  0  0  0  0  0  0  0
  144.4892   76.5613  219.1996 H   0  0  0  0  0  0  0  0  0  0  0  0
  143.0954   77.4202  219.9853 H   0  0  0  0  0  0  0  0  0  0  0  0
  142.2485   75.0904  218.6294 H   0  0  0  0  0  0  0  0  0  0  0  0
  142.1390   75.4930  221.5860 H   0  0  0  0  0  0  0  0  0  0  0  0
  139.3498   76.3647  221.8544 H   0  0  0  0  0  0  0  0  0  0  0  0
  138.3568   75.2992  220.7919 H   0  0  0  0  0  0  0  0  0  0  0  0
  139.3620   74.5420  223.2840 H   0  0  0  0  0  0  0  0  0  0  0  0
  139.0470   70.3836  221.6134 H   0  0  0  0  0  0  0  0  0  0  0  0
  139.2626   68.6795  223.4258 H   0  0  0  0  0  0  0  0  0  0  0  0
  139.9059   68.1045  225.7426 H   0  0  0  0  0  0  0  0  0  0  0  0
  141.4696   71.1804  228.3058 H   0  0  0  0  0  0  0  0  0  0  0  0
  141.2313   72.8538  226.4491 H   0  0  0  0  0  0  0  0  0  0  0  0
  142.6962   72.6546  219.5985 H   0  0  0  0  0  0  0  0  0  0  0  0
  144.4397   71.0937  220.3343 H   0  0  0  0  0  0  0  0  0  0  0  0
  146.6252   71.9601  221.1748 H   0  0  0  0  0  0  0  0  0  0  0  0
  146.9872   74.4181  221.2482 H   0  0  0  0  0  0  0  0  0  0  0  0
  145.2312   75.9709  220.5088 H   0  0  0  0  0  0  0  0  0  0  0  0
  1  2  1  0
  2  3  1  0
  3  4  1  0
  4  5  1  0
  5  6  1  0
  6  7  2  0
  6  8  1  0
  8  9  1  0
  9 10  1  0
 10 11  2  0
 10 12  1  0
 12 13  2  0
 13 14  1  0
 14 15  2  0
 15 16  1  0
 16 17  2  0
 17 18  1  0
 17 19  1  0
 19 20  2  0
 20 21  1  0
 21 22  2  0
  4 23  1  0
 23 24  2  0
 24 25  1  0
 25 26  2  0
 26 27  1  0
 27 28  2  0
 22 12  1  0
 28 23  1  0
 21 15  1  0
  1 29  1  0
  1 30  1  0
  1 31  1  0
  2 32  1  0
  2 33  1  0
  3 34  1  0
  3 35  1  0
  4 36  1  6
  5 37  1  0
  8 38  1  0
  8 39  1  0
  9 40  1  0
 13 41  1  0
 14 42  1  0
 16 43  1  0
 19 44  1  0
 20 45  1  0
 24 46  1  0
 25 47  1  0
 26 48  1  0
 27 49  1  0
 28 50  1  0
M  END
>  <smiles>  (5) 
CCC[C@H](NC(=O)CNC(=O)c1ccc2cc(Cl)ccc2n1)c1ccccc1

>  <score_type>  (5) 
oracle

>  <origin>  (5) 
autodockgpu

>  <m_score__min__energy>  (5) 
-9.0399999999999991

>  <m_primary>  (5) 
energy

>  <rmsd>  (5) 
2.6540459797886338

>  <m_score__min__rmsd>  (5) 
2.6540459797886338

>  <meeko>  (5) 
{"free_energy": -8.25, "intermolecular_energy": -10.34, "internal_energy": -1.67, "cluster_size": 5, "cluster_id": 4, "rank_in_cluster": 3}

>  <energy>  (5) 
-8.71

>  <cluster_rmsd>  (5) 
0.39

>  <cluster>  (5) 
1

$$$$

     RDKit          3D

 50 52  0  0  0  0  0  0  0  0999 V2000
  142.8820   80.9030  223.9550 C   0  0  0  0  0  0  0  0  0  0  0  0
  142.8910   79.6330  223.1140 C   0  0  0  0  0  0  0  0  0  0  0  0
  141.7380   78.7470  223.4340 C   0  0  0  0  0  0  0  0  0  0  0  0
  140.9420   78.4090  222.2270 C   0  0  2  0  0  0  0  0  0  0  0  0
  141.2970   77.1690  221.5790 N   0  0  0  0  0  0  0  0  0  0  0  0
  140.4270   76.0630  221.5970 C   0  0  0  0  0  0  0  0  0  0  0  0
  139.3200   76.2130  222.2010 O   0  0  0  0  0  0  0  0  0  0  0  0
  140.6780   74.7530  220.9800 C   0  0  0  0  0  0  0  0  0  0  0  0
  140.6520   73.7240  221.9700 N   0  0  0  0  0  0  0  0  0  0  0  0
  139.6740   72.6930  221.9480 C   0  0  0  0  0  0  0  0  0  0  0  0
  138.7760   72.5980  221.0710 O   0  0  0  0  0  0  0  0  0  0  0  0
  139.7320   71.6910  223.0220 C   0  0  0  0  0  0  0  0  0  0  0  0
  139.1930   70.4190  222.8140 C   0  0  0  0  0  0  0  0  0  0  0  0
  139.2670   69.4970  223.8570 C   0  0  0  0  0  0  0  0  0  0  0  0
  139.8540   69.8150  225.0640 C   0  0  0  0  0  0  0  0  0  0  0  0
  139.9480   68.9340  226.1190 C   0  0  0  0  0  0  0  0  0  0  0  0
  140.5500   69.3150  227.3090 C   0  0  0  0  0  0  0  0  0  0  0  0
  140.6870   68.2210  228.6680 Cl  0  0  0  0  0  0  0  0  0  0  0  0
  141.0660   70.5880  227.4520 C   0  0  0  0  0  0  0  0  0  0  0  0
  140.9840   71.5010  226.4010 C   0  0  0  0  0  0  0  0  0  0  0  0
  140.3760   71.0830  225.2340 C   0  0  0  0  0  0  0  0  0  0  0  0
  140.2820   71.9340  224.2060 N   0  0  0  0  0  0  0  0  0  0  0  0
  141.1090   79.4750  221.2090 C   0  0  0  0  0  0  0  0  0  0  0  0
  141.7980   79.3020  220.0270 C   0  0  0  0  0  0  0  0  0  0  0  0
  141.9530   80.3000  219.0870 C   0  0  0  0  0  0  0  0  0  0  0  0
  141.4030   81.5490  219.3070 C   0  0  0  0  0  0  0  0  0  0  0  0
  140.7060   81.7550  220.4800 C   0  0  0  0  0  0  0  0  0  0  0  0
  140.5610   80.7450  221.4100 C   0  0  0  0  0  0  0  0  0  0  0  0
  142.8839   80.6361  225.0221 H   0  0  0  0  0  0  0  0  0  0  0  0
  143.7759   81.5014  223.7251 H   0  0  0  0  0  0  0  0  0  0  0  0
  141.9797   81.4886  223.7251 H   0  0  0  0  0  0  0  0  0  0  0  0
  142.8420   79.9103  222.0506 H   0  0  0  0  0  0  0  0  0  0  0  0
  143.8165   79.0823  223.3380 H   0  0  0  0  0  0  0  0  0  0  0  0
  142.1188   77.8163  223.8799 H   0  0  0  0  0  0  0  0  0  0  0  0
  141.0812   79.2849  224.1335 H   0  0  0  0  0  0  0  0  0  0  0  0
  139.9114   78.3086  222.5983 H   0  0  0  0  0  0  0  0  0  0  0  0
  142.2120   77.1350  221.0880 H   0  0  0  0  0  0  0  0  0  0  0  0
  139.9013   74.5519  220.2275 H   0  0  0  0  0  0  0  0  0  0  0  0
  141.6699   74.7663  220.5047 H   0  0  0  0  0  0  0  0  0  0  0  0
  141.3790   73.7340  222.7380 H   0  0  0  0  0  0  0  0  0  0  0  0
  138.7239   70.1528  221.8553 H   0  0  0  0  0  0  0  0  0  0  0  0
  138.8467   68.4906  223.7138 H   0  0  0  0  0  0  0  0  0  0  0  0
  139.5411   67.9172  226.0164 H   0  0  0  0  0  0  0  0  0  0  0  0
  141.5433   70.8828  228.3982 H   0  0  0  0  0  0  0  0  0  0  0  0
  141.3896   72.5188  226.4984 H   0  0  0  0  0  0  0  0  0  0  0  0
  142.2467   78.3186  219.8233 H   0  0  0  0  0  0  0  0  0  0  0  0
  142.5145   80.1017  218.1621 H   0  0  0  0  0  0  0  0  0  0  0  0
  141.5177   82.3557  218.5681 H   0  0  0  0  0  0  0  0  0  0  0  0
  140.2585   82.7403  220.6773 H   0  0  0  0  0  0  0  0  0  0  0  0
  139.9990   80.9452  222.3342 H   0  0  0  0  0  0  0  0  0  0  0  0
  1  2  1  0
  2  3  1  0
  3  4  1  0
  4  5  1  0
  5  6  1  0
  6  7  2  0
  6  8  1  0
  8  9  1  0
  9 10  1  0
 10 11  2  0
 10 12  1  0
 12 13  2  0
 13 14  1  0
 14 15  2  0
 15 16  1  0
 16 17  2  0
 17 18  1  0
 17 19  1  0
 19 20  2  0
 20 21  1  0
 21 22  2  0
  4 23  1  0
 23 24  2  0
 24 25  1  0
 25 26  2  0
 26 27  1  0
 27 28  2  0
 22 12  1  0
 28 23  1  0
 21 15  1  0
  1 29  1  0
  1 30  1  0
  1 31  1  0
  2 32  1  0
  2 33  1  0
  3 34  1  0
  3 35  1  0
  4 36  1  1
  5 37  1  0
  8 38  1  0
  8 39  1  0
  9 40  1  0
 13 41  1  0
 14 42  1  0
 16 43  1  0
 19 44  1  0
 20 45  1  0
 24 46  1  0
 25 47  1  0
 26 48  1  0
 27 49  1  0
 28 50  1  0
M  END
>  <smiles>  (6) 
CCC[C@H](NC(=O)CNC(=O)c1ccc2cc(Cl)ccc2n1)c1ccccc1

>  <score_type>  (6) 
oracle

>  <origin>  (6) 
autodockgpu

>  <m_score__min__energy>  (6) 
-9.0399999999999991

>  <m_primary>  (6) 
energy

>  <rmsd>  (6) 
4.021532831971735

>  <m_score__min__rmsd>  (6) 
4.021532831971735

>  <meeko>  (6) 
{"free_energy": -8.26, "intermolecular_energy": -10.35, "internal_energy": -1.36, "cluster_size": 19, "cluster_id": 1, "rank_in_cluster": 13}

>  <energy>  (6) 
-8.69

>  <cluster_rmsd>  (6) 
1.92

>  <cluster>  (6) 
1

$$$$

     RDKit          3D

 50 52  0  0  0  0  0  0  0  0999 V2000
  135.5440   74.0920  223.9090 C   0  0  0  0  0  0  0  0  0  0  0  0
  135.4260   75.4300  223.1920 C   0  0  0  0  0  0  0  0  0  0  0  0
  136.6060   76.3020  223.4430 C   0  0  0  0  0  0  0  0  0  0  0  0
  137.5470   76.3130  222.2950 C   0  0  2  0  0  0  0  0  0  0  0  0
  138.1080   75.0300  221.9430 N   0  0  0  0  0  0  0  0  0  0  0  0
  138.0930   74.5690  220.6130 C   0  0  0  0  0  0  0  0  0  0  0  0
  137.5710   75.3360  219.7460 O   0  0  0  0  0  0  0  0  0  0  0  0
  138.6270   73.2860  220.1350 C   0  0  0  0  0  0  0  0  0  0  0  0
  138.7830   72.3760  221.2250 N   0  0  0  0  0  0  0  0  0  0  0  0
  139.7210   72.6120  222.2640 C   0  0  0  0  0  0  0  0  0  0  0  0
  140.4710   73.6220  222.3150 O   0  0  0  0  0  0  0  0  0  0  0  0
  139.8070   71.6050  223.3320 C   0  0  0  0  0  0  0  0  0  0  0  0
  139.3470   70.3060  223.1010 C   0  0  0  0  0  0  0  0  0  0  0  0
  139.4450   69.3810  224.1380 C   0  0  0  0  0  0  0  0  0  0  0  0
  139.9790   69.7220  225.3640 C   0  0  0  0  0  0  0  0  0  0  0  0
  140.0940   68.8390  226.4150 C   0  0  0  0  0  0  0  0  0  0  0  0
  140.6400   69.2420  227.6240 C   0  0  0  0  0  0  0  0  0  0  0  0
  140.8010   68.1460  228.9780 Cl  0  0  0  0  0  0  0  0  0  0  0  0
  141.0780   70.5420  227.7900 C   0  0  0  0  0  0  0  0  0  0  0  0
  140.9730   71.4570  226.7440 C   0  0  0  0  0  0  0  0  0  0  0  0
  140.4230   71.0150  225.5570 C   0  0  0  0  0  0  0  0  0  0  0  0
  140.3090   71.8690  224.5330 N   0  0  0  0  0  0  0  0  0  0  0  0
  138.6950   77.2000  222.6050 C   0  0  0  0  0  0  0  0  0  0  0  0
  140.0120   76.8360  222.4240 C   0  0  0  0  0  0  0  0  0  0  0  0
  141.0740   77.6670  222.7180 C   0  0  0  0  0  0  0  0  0  0  0  0
  140.8440   78.9330  223.2200 C   0  0  0  0  0  0  0  0  0  0  0  0
  139.5360   79.3290  223.4120 C   0  0  0  0  0  0  0  0  0  0  0  0
  138.4850   78.4850  223.1120 C   0  0  0  0  0  0  0  0  0  0  0  0
  135.5295   74.2563  224.9966 H   0  0  0  0  0  0  0  0  0  0  0  0
  134.6992   73.4476  223.6242 H   0  0  0  0  0  0  0  0  0  0  0  0
  136.4886   73.6055  223.6242 H   0  0  0  0  0  0  0  0  0  0  0  0
  135.3427   75.2474  222.1105 H   0  0  0  0  0  0  0  0  0  0  0  0
  134.5340   75.9452  223.5779 H   0  0  0  0  0  0  0  0  0  0  0  0
  136.2559   77.3289  223.6244 H   0  0  0  0  0  0  0  0  0  0  0  0
  137.1423   75.9028  224.3165 H   0  0  0  0  0  0  0  0  0  0  0  0
  136.9388   76.6561  221.4451 H   0  0  0  0  0  0  0  0  0  0  0  0
  138.5350   74.4720  222.7090 H   0  0  0  0  0  0  0  0  0  0  0  0
  137.9317   72.8552  219.3995 H   0  0  0  0  0  0  0  0  0  0  0  0
  139.6089   73.4585  219.6700 H   0  0  0  0  0  0  0  0  0  0  0  0
  138.1820   71.5050  221.2540 H   0  0  0  0  0  0  0  0  0  0  0  0
  138.9197   70.0219  222.1280 H   0  0  0  0  0  0  0  0  0  0  0  0
  139.0879   68.3533  223.9756 H   0  0  0  0  0  0  0  0  0  0  0  0
  139.7485   67.8017  226.2936 H   0  0  0  0  0  0  0  0  0  0  0  0
  141.5111   70.8558  228.7512 H   0  0  0  0  0  0  0  0  0  0  0  0
  141.3164   72.4956  226.8600 H   0  0  0  0  0  0  0  0  0  0  0  0
  140.2273   75.8336  222.0255 H   0  0  0  0  0  0  0  0  0  0  0  0
  142.1048   77.3206  222.5523 H   0  0  0  0  0  0  0  0  0  0  0  0
  141.6798   79.6066  223.4600 H   0  0  0  0  0  0  0  0  0  0  0  0
  139.3273   80.3329  223.8103 H   0  0  0  0  0  0  0  0  0  0  0  0
  137.4548   78.8337  223.2766 H   0  0  0  0  0  0  0  0  0  0  0  0
  1  2  1  0
  2  3  1  0
  3  4  1  0
  4  5  1  0
  5  6  1  0
  6  7  2  0
  6  8  1  0
  8  9  1  0
  9 10  1  0
 10 11  2  0
 10 12  1  0
 12 13  2  0
 13 14  1  0
 14 15  2  0
 15 16  1  0
 16 17  2  0
 17 18  1  0
 17 19  1  0
 19 20  2  0
 20 21  1  0
 21 22  2  0
  4 23  1  0
 23 24  2  0
 24 25  1  0
 25 26  2  0
 26 27  1  0
 27 28  2  0
 22 12  1  0
 28 23  1  0
 21 15  1  0
  1 29  1  0
  1 30  1  0
  1 31  1  0
  2 32  1  0
  2 33  1  0
  3 34  1  0
  3 35  1  0
  4 36  1  6
  5 37  1  0
  8 38  1  0
  8 39  1  0
  9 40  1  0
 13 41  1  0
 14 42  1  0
 16 43  1  0
 19 44  1  0
 20 45  1  0
 24 46  1  0
 25 47  1  0
 26 48  1  0
 27 49  1  0
 28 50  1  0
M  END
>  <smiles>  (7) 
CCC[C@H](NC(=O)CNC(=O)c1ccc2cc(Cl)ccc2n1)c1ccccc1

>  <score_type>  (7) 
oracle

>  <origin>  (7) 
autodockgpu

>  <m_score__min__energy>  (7) 
-9.0399999999999991

>  <m_primary>  (7) 
energy

>  <rmsd>  (7) 
3.7618836542955596

>  <m_score__min__rmsd>  (7) 
3.7618836542955596

>  <meeko>  (7) 
{"free_energy": -7.81, "intermolecular_energy": -9.9, "internal_energy": -2.21, "cluster_size": 1, "cluster_id": 6, "rank_in_cluster": 1}

>  <energy>  (7) 
-8.64

>  <cluster_rmsd>  (7) 
1.88

>  <cluster>  (7) 
1

$$$$

     RDKit          3D

 50 52  0  0  0  0  0  0  0  0999 V2000
  143.3300   76.3160  219.1200 C   0  0  0  0  0  0  0  0  0  0  0  0
  142.8970   77.6310  218.4860 C   0  0  0  0  0  0  0  0  0  0  0  0
  141.9440   78.3790  219.3500 C   0  0  0  0  0  0  0  0  0  0  0  0
  141.6820   77.6750  220.6310 C   0  0  2  0  0  0  0  0  0  0  0  0
  140.3890   77.0410  220.7360 N   0  0  0  0  0  0  0  0  0  0  0  0
  140.2730   75.6600  220.9800 C   0  0  0  0  0  0  0  0  0  0  0  0
  141.3550   75.0070  221.1090 O   0  0  0  0  0  0  0  0  0  0  0  0
  139.0190   74.9030  221.1010 C   0  0  0  0  0  0  0  0  0  0  0  0
  139.1420   73.8940  222.1050 N   0  0  0  0  0  0  0  0  0  0  0  0
  139.8320   72.6770  221.8560 C   0  0  0  0  0  0  0  0  0  0  0  0
  140.3860   72.3970  220.7600 O   0  0  0  0  0  0  0  0  0  0  0  0
  139.8900   71.7030  222.9550 C   0  0  0  0  0  0  0  0  0  0  0  0
  139.4090   70.4060  222.7600 C   0  0  0  0  0  0  0  0  0  0  0  0
  139.4820   69.5120  223.8270 C   0  0  0  0  0  0  0  0  0  0  0  0
  140.0110   69.8810  225.0460 C   0  0  0  0  0  0  0  0  0  0  0  0
  140.1010   69.0290  226.1250 C   0  0  0  0  0  0  0  0  0  0  0  0
  140.6440   69.4610  227.3260 C   0  0  0  0  0  0  0  0  0  0  0  0
  140.7730   68.4050  228.7150 Cl  0  0  0  0  0  0  0  0  0  0  0  0
  141.1030   70.7570  227.4560 C   0  0  0  0  0  0  0  0  0  0  0  0
  141.0240   71.6410  226.3800 C   0  0  0  0  0  0  0  0  0  0  0  0
  140.4770   71.1720  225.2030 C   0  0  0  0  0  0  0  0  0  0  0  0
  140.3870   71.9950  224.1520 N   0  0  0  0  0  0  0  0  0  0  0  0
  141.7640   78.6420  221.7530 C   0  0  0  0  0  0  0  0  0  0  0  0
  141.4740   78.3210  223.0620 C   0  0  0  0  0  0  0  0  0  0  0  0
  141.5500   79.2280  224.0990 C   0  0  0  0  0  0  0  0  0  0  0  0
  141.9320   80.5330  223.8510 C   0  0  0  0  0  0  0  0  0  0  0  0
  142.2300   80.8870  222.5510 C   0  0  0  0  0  0  0  0  0  0  0  0
  142.1490   79.9660  221.5250 C   0  0  0  0  0  0  0  0  0  0  0  0
  143.2992   76.4095  220.2156 H   0  0  0  0  0  0  0  0  0  0  0  0
  142.6487   75.5134  218.8012 H   0  0  0  0  0  0  0  0  0  0  0  0
  144.3549   76.0752  218.8012 H   0  0  0  0  0  0  0  0  0  0  0  0
  143.7876   78.2541  218.3172 H   0  0  0  0  0  0  0  0  0  0  0  0
  142.3877   77.4001  217.5387 H   0  0  0  0  0  0  0  0  0  0  0  0
  142.3673   79.3702  219.5699 H   0  0  0  0  0  0  0  0  0  0  0  0
  140.9903   78.4640  218.8085 H   0  0  0  0  0  0  0  0  0  0  0  0
  142.4460   76.8845  220.6696 H   0  0  0  0  0  0  0  0  0  0  0  0
  139.5520   77.6490  220.6380 H   0  0  0  0  0  0  0  0  0  0  0  0
  138.2055   75.5906  221.3757 H   0  0  0  0  0  0  0  0  0  0  0  0
  138.7977   74.4222  220.1367 H   0  0  0  0  0  0  0  0  0  0  0  0
  138.7070   74.0610  223.0540 H   0  0  0  0  0  0  0  0  0  0  0  0
  138.9850   70.0991  221.7925 H   0  0  0  0  0  0  0  0  0  0  0  0
  139.1082   68.4861  223.6933 H   0  0  0  0  0  0  0  0  0  0  0  0
  139.7382   67.9946  226.0330 H   0  0  0  0  0  0  0  0  0  0  0  0
  141.5323   71.0933  228.4113 H   0  0  0  0  0  0  0  0  0  0  0  0
  141.3853   72.6764  226.4666 H   0  0  0  0  0  0  0  0  0  0  0  0
  141.1666   77.2900  223.2912 H   0  0  0  0  0  0  0  0  0  0  0  0
  141.3063   78.9122  225.1241 H   0  0  0  0  0  0  0  0  0  0  0  0
  141.9966   81.2683  224.6666 H   0  0  0  0  0  0  0  0  0  0  0  0
  142.5370   81.9195  222.3282 H   0  0  0  0  0  0  0  0  0  0  0  0
  142.3942   80.2832  220.5006 H   0  0  0  0  0  0  0  0  0  0  0  0
  1  2  1  0
  2  3  1  0
  3  4  1  0
  4  5  1  0
  5  6  1  0
  6  7  2  0
  6  8  1  0
  8  9  1  0
  9 10  1  0
 10 11  2  0
 10 12  1  0
 12 13  2  0
 13 14  1  0
 14 15  2  0
 15 16  1  0
 16 17  2  0
 17 18  1  0
 17 19  1  0
 19 20  2  0
 20 21  1  0
 21 22  2  0
  4 23  1  0
 23 24  2  0
 24 25  1  0
 25 26  2  0
 26 27  1  0
 27 28  2  0
 22 12  1  0
 28 23  1  0
 21 15  1  0
  1 29  1  0
  1 30  1  0
  1 31  1  0
  2 32  1  0
  2 33  1  0
  3 34  1  0
  3 35  1  0
  4 36  1  1
  5 37  1  0
  8 38  1  0
  8 39  1  0
  9 40  1  0
 13 41  1  0
 14 42  1  0
 16 43  1  0
 19 44  1  0
 20 45  1  0
 24 46  1  0
 25 47  1  0
 26 48  1  0
 27 49  1  0
 28 50  1  0
M  END
>  <smiles>  (8) 
CCC[C@H](NC(=O)CNC(=O)c1ccc2cc(Cl)ccc2n1)c1ccccc1

>  <score_type>  (8) 
oracle

>  <origin>  (8) 
autodockgpu

>  <m_score__min__energy>  (8) 
-9.0399999999999991

>  <m_primary>  (8) 
energy

>  <rmsd>  (8) 
2.108010462061524

>  <m_score__min__rmsd>  (8) 
2.108010462061524

>  <meeko>  (8) 
{"free_energy": -8.77, "intermolecular_energy": -10.85, "internal_energy": -1.35, "cluster_size": 19, "cluster_id": 1, "rank_in_cluster": 4}

>  <energy>  (8) 
-8.56

>  <cluster_rmsd>  (8) 
1.89

>  <cluster>  (8) 
1

$$$$

     RDKit          3D

 50 52  0  0  0  0  0  0  0  0999 V2000
  139.6060   73.5580  221.8870 C   0  0  0  0  0  0  0  0  0  0  0  0
  139.9190   72.0820  222.0960 C   0  0  0  0  0  0  0  0  0  0  0  0
  140.5930   71.8360  223.4000 C   0  0  0  0  0  0  0  0  0  0  0  0
  139.8870   70.8110  224.2100 C   0  0  2  0  0  0  0  0  0  0  0  0
  138.4460   70.8820  224.1780 N   0  0  0  0  0  0  0  0  0  0  0  0
  137.6640   69.7240  224.0100 C   0  0  0  0  0  0  0  0  0  0  0  0
  138.2860   68.6230  223.8950 O   0  0  0  0  0  0  0  0  0  0  0  0
  136.1960   69.6700  223.9570 C   0  0  0  0  0  0  0  0  0  0  0  0
  135.6350   70.8580  224.5190 N   0  0  0  0  0  0  0  0  0  0  0  0
  135.8290   72.1300  223.9170 C   0  0  0  0  0  0  0  0  0  0  0  0
  136.4900   72.3130  222.8610 O   0  0  0  0  0  0  0  0  0  0  0  0
  135.2160   73.2880  224.5850 C   0  0  0  0  0  0  0  0  0  0  0  0
  135.6220   74.5810  224.2450 C   0  0  0  0  0  0  0  0  0  0  0  0
  135.0160   75.6520  224.9000 C   0  0  0  0  0  0  0  0  0  0  0  0
  134.0440   75.4570  225.8600 C   0  0  0  0  0  0  0  0  0  0  0  0
  133.4220   76.4870  226.5300 C   0  0  0  0  0  0  0  0  0  0  0  0
  132.4500   76.2270  227.4860 C   0  0  0  0  0  0  0  0  0  0  0  0
  131.6410   77.5110  228.3550 Cl  0  0  0  0  0  0  0  0  0  0  0  0
  132.0930   74.9240  227.7770 C   0  0  0  0  0  0  0  0  0  0  0  0
  132.7070   73.8630  227.1130 C   0  0  0  0  0  0  0  0  0  0  0  0
  133.6690   74.1650  226.1710 C   0  0  0  0  0  0  0  0  0  0  0  0
  134.2760   73.1680  225.5160 N   0  0  0  0  0  0  0  0  0  0  0  0
  140.2810   70.9480  225.6330 C   0  0  0  0  0  0  0  0  0  0  0  0
  141.0980   71.9530  226.1070 C   0  0  0  0  0  0  0  0  0  0  0  0
  141.4620   72.0700  227.4330 C   0  0  0  0  0  0  0  0  0  0  0  0
  141.0040   71.1540  228.3600 C   0  0  0  0  0  0  0  0  0  0  0  0
  140.1840   70.1360  227.9190 C   0  0  0  0  0  0  0  0  0  0  0  0
  139.8300   70.0330  226.5890 C   0  0  0  0  0  0  0  0  0  0  0  0
  139.5011   74.0525  222.8640 H   0  0  0  0  0  0  0  0  0  0  0  0
  140.4240   74.0300  221.3230 H   0  0  0  0  0  0  0  0  0  0  0  0
  138.6668   73.6574  221.3230 H   0  0  0  0  0  0  0  0  0  0  0  0
  138.9787   71.5119  222.0687 H   0  0  0  0  0  0  0  0  0  0  0  0
  140.6008   71.7616  221.2944 H   0  0  0  0  0  0  0  0  0  0  0  0
  141.6199   71.4912  223.2088 H   0  0  0  0  0  0  0  0  0  0  0  0
  140.5870   72.7785  223.9671 H   0  0  0  0  0  0  0  0  0  0  0  0
  140.1835   69.8528  223.7585 H   0  0  0  0  0  0  0  0  0  0  0  0
  138.0140   71.8190  224.3000 H   0  0  0  0  0  0  0  0  0  0  0  0
  135.8740   69.5772  222.9093 H   0  0  0  0  0  0  0  0  0  0  0  0
  135.8489   68.8018  224.5365 H   0  0  0  0  0  0  0  0  0  0  0  0
  135.0620   70.7830  225.4050 H   0  0  0  0  0  0  0  0  0  0  0  0
  136.3971   74.7489  223.4828 H   0  0  0  0  0  0  0  0  0  0  0  0
  135.3201   76.6780  224.6453 H   0  0  0  0  0  0  0  0  0  0  0  0
  133.6987   77.5276  226.3049 H   0  0  0  0  0  0  0  0  0  0  0  0
  131.3217   74.7233  228.5352 H   0  0  0  0  0  0  0  0  0  0  0  0
  132.4338   72.8203  227.3326 H   0  0  0  0  0  0  0  0  0  0  0  0
  141.4783   72.6982  225.3928 H   0  0  0  0  0  0  0  0  0  0  0  0
  142.1176   72.8936  227.7521 H   0  0  0  0  0  0  0  0  0  0  0  0
  141.2853   71.2341  229.4204 H   0  0  0  0  0  0  0  0  0  0  0  0
  139.8064   69.3948  228.6387 H   0  0  0  0  0  0  0  0  0  0  0  0
  139.1748   69.2081  226.2724 H   0  0  0  0  0  0  0  0  0  0  0  0
  1  2  1  0
  2  3  1  0
  3  4  1  0
  4  5  1  0
  5  6  1  0
  6  7  2  0
  6  8  1  0
  8  9  1  0
  9 10  1  0
 10 11  2  0
 10 12  1  0
 12 13  2  0
 13 14  1  0
 14 15  2  0
 15 16  1  0
 16 17  2  0
 17 18  1  0
 17 19  1  0
 19 20  2  0
 20 21  1  0
 21 22  2  0
  4 23  1  0
 23 24  2  0
 24 25  1  0
 25 26  2  0
 26 27  1  0
 27 28  2  0
 22 12  1  0
 28 23  1  0
 21 15  1  0
  1 29  1  0
  1 30  1  0
  1 31  1  0
  2 32  1  0
  2 33  1  0
  3 34  1  0
  3 35  1  0
  4 36  1  6
  5 37  1  0
  8 38  1  0
  8 39  1  0
  9 40  1  0
 13 41  1  0
 14 42  1  0
 16 43  1  0
 19 44  1  0
 20 45  1  0
 24 46  1  0
 25 47  1  0
 26 48  1  0
 27 49  1  0
 28 50  1  0
M  END
>  <smiles>  (9) 
CCC[C@H](NC(=O)CNC(=O)c1ccc2cc(Cl)ccc2n1)c1ccccc1

>  <score_type>  (9) 
oracle

>  <origin>  (9) 
autodockgpu

>  <m_score__min__energy>  (9) 
-9.0399999999999991

>  <m_primary>  (9) 
energy

>  <rmsd>  (9) 
7.30736384698813

>  <m_score__min__rmsd>  (9) 
7.30736384698813

>  <meeko>  (9) 
{"free_energy": -7.59, "intermolecular_energy": -9.68, "internal_energy": -2.46, "cluster_size": 16, "cluster_id": 3, "rank_in_cluster": 14}

>  <energy>  (9) 
-8.44

>  <cluster_rmsd>  (9) 
1.84

>  <cluster>  (9) 
1

$$$$

     RDKit          3D

 50 52  0  0  0  0  0  0  0  0999 V2000
  143.3260   76.4230  219.0350 C   0  0  0  0  0  0  0  0  0  0  0  0
  142.6210   77.5950  218.3660 C   0  0  0  0  0  0  0  0  0  0  0  0
  141.8610   78.4190  219.3450 C   0  0  0  0  0  0  0  0  0  0  0  0
  141.6680   77.7140  220.6380 C   0  0  2  0  0  0  0  0  0  0  0  0
  140.3950   77.0520  220.7970 N   0  0  0  0  0  0  0  0  0  0  0  0
  140.3210   75.6830  221.1160 C   0  0  0  0  0  0  0  0  0  0  0  0
  141.4220   75.0670  221.2620 O   0  0  0  0  0  0  0  0  0  0  0  0
  139.0900   74.9010  221.2980 C   0  0  0  0  0  0  0  0  0  0  0  0
  139.2870   73.8850  222.2840 N   0  0  0  0  0  0  0  0  0  0  0  0
  139.3240   72.5080  221.9360 C   0  0  0  0  0  0  0  0  0  0  0  0
  139.1960   72.0780  220.7600 O   0  0  0  0  0  0  0  0  0  0  0  0
  139.5230   71.5470  223.0310 C   0  0  0  0  0  0  0  0  0  0  0  0
  139.1200   70.2180  222.8700 C   0  0  0  0  0  0  0  0  0  0  0  0
  139.3250   69.3370  223.9300 C   0  0  0  0  0  0  0  0  0  0  0  0
  139.9080   69.7500  225.1110 C   0  0  0  0  0  0  0  0  0  0  0  0
  140.1280   68.9120  226.1820 C   0  0  0  0  0  0  0  0  0  0  0  0
  140.7190   69.3870  227.3440 C   0  0  0  0  0  0  0  0  0  0  0  0
  141.0140   68.3500  228.7220 Cl  0  0  0  0  0  0  0  0  0  0  0  0
  141.0960   70.7120  227.4410 C   0  0  0  0  0  0  0  0  0  0  0  0
  140.8840   71.5820  226.3720 C   0  0  0  0  0  0  0  0  0  0  0  0
  140.2930   71.0700  225.2350 C   0  0  0  0  0  0  0  0  0  0  0  0
  140.0770   71.8790  224.1910 N   0  0  0  0  0  0  0  0  0  0  0  0
  141.7750   78.6860  221.7530 C   0  0  0  0  0  0  0  0  0  0  0  0
  142.1910   79.9910  221.5920 C   0  0  0  0  0  0  0  0  0  0  0  0
  142.2920   80.8880  222.6350 C   0  0  0  0  0  0  0  0  0  0  0  0
  141.9680   80.4940  223.9190 C   0  0  0  0  0  0  0  0  0  0  0  0
  141.5470   79.1950  224.1150 C   0  0  0  0  0  0  0  0  0  0  0  0
  141.4510   78.3110  223.0590 C   0  0  0  0  0  0  0  0  0  0  0  0
  143.2609   76.5312  220.1277 H   0  0  0  0  0  0  0  0  0  0  0  0
  142.8436   75.4825  218.7303 H   0  0  0  0  0  0  0  0  0  0  0  0
  144.3829   76.4085  218.7303 H   0  0  0  0  0  0  0  0  0  0  0  0
  143.3738   78.2298  217.8758 H   0  0  0  0  0  0  0  0  0  0  0  0
  141.9062   77.1898  217.6346 H   0  0  0  0  0  0  0  0  0  0  0  0
  142.4144   79.3517  219.5287 H   0  0  0  0  0  0  0  0  0  0  0  0
  140.8677   78.6217  218.9182 H   0  0  0  0  0  0  0  0  0  0  0  0
  142.4505   76.9410  220.6479 H   0  0  0  0  0  0  0  0  0  0  0  0
  139.5400   77.6310  220.6810 H   0  0  0  0  0  0  0  0  0  0  0  0
  138.2801   75.5703  221.6239 H   0  0  0  0  0  0  0  0  0  0  0  0
  138.8249   74.4247  220.3425 H   0  0  0  0  0  0  0  0  0  0  0  0
  139.4080   74.1710  223.2950 H   0  0  0  0  0  0  0  0  0  0  0  0
  138.6544   69.8775  221.9333 H   0  0  0  0  0  0  0  0  0  0  0  0
  139.0147   68.2871  223.8230 H   0  0  0  0  0  0  0  0  0  0  0  0
  139.8319   67.8547  226.1153 H   0  0  0  0  0  0  0  0  0  0  0  0
  141.5650   71.0823  228.3645 H   0  0  0  0  0  0  0  0  0  0  0  0
  141.1779   72.6403  226.4330 H   0  0  0  0  0  0  0  0  0  0  0  0
  142.4556   80.3338  220.5808 H   0  0  0  0  0  0  0  0  0  0  0  0
  142.6306   81.9171  222.4445 H   0  0  0  0  0  0  0  0  0  0  0  0
  142.0437   81.1968  224.7618 H   0  0  0  0  0  0  0  0  0  0  0  0
  141.2837   78.8583  225.1286 H   0  0  0  0  0  0  0  0  0  0  0  0
  141.1100   77.2830  223.2513 H   0  0  0  0  0  0  0  0  0  0  0  0
  1  2  1  0
  2  3  1  0
  3  4  1  0
  4  5  1  0
  5  6  1  0
  6  7  2  0
  6  8  1  0
  8  9  1  0
  9 10  1  0
 10 11  2  0
 10 12  1  0
 12 13  2  0
 13 14  1  0
 14 15  2  0
 15 16  1  0
 16 17  2  0
 17 18  1  0
 17 19  1  0
 19 20  2  0
 20 21  1  0
 21 22  2  0
  4 23  1  0
 23 24  2  0
 24 25  1  0
 25 26  2  0
 26 27  1  0
 27 28  2  0
 22 12  1  0
 28 23  1  0
 21 15  1  0
  1 29  1  0
  1 30  1  0
  1 31  1  0
  2 32  1  0
  2 33  1  0
  3 34  1  0
  3 35  1  0
  4 36  1  1
  5 37  1  0
  8 38  1  0
  8 39  1  0
  9 40  1  0
 13 41  1  0
 14 42  1  0
 16 43  1  0
 19 44  1  0
 20 45  1  0
 24 46  1  0
 25 47  1  0
 26 48  1  0
 27 49  1  0
 28 50  1  0
M  END
>  <smiles>  (10) 
CCC[C@H](NC(=O)CNC(=O)c1ccc2cc(Cl)ccc2n1)c1ccccc1

>  <score_type>  (10) 
oracle

>  <origin>  (10) 
autodockgpu

>  <m_score__min__energy>  (10) 
-9.0399999999999991

>  <m_primary>  (10) 
energy

>  <rmsd>  (10) 
2.038752822852973

>  <m_score__min__rmsd>  (10) 
2.038752822852973

>  <meeko>  (10) 
{"free_energy": -8.64, "intermolecular_energy": -10.73, "internal_energy": -1.57, "cluster_size": 19, "cluster_id": 1, "rank_in_cluster": 7}

>  <energy>  (10) 
-8.4

>  <cluster_rmsd>  (10) 
1.57

>  <cluster>  (10) 
1

$$$$

     RDKit          3D

 50 52  0  0  0  0  0  0  0  0999 V2000
  137.5580   76.0090  222.6600 C   0  0  0  0  0  0  0  0  0  0  0  0
  137.7970   77.4400  222.1980 C   0  0  0  0  0  0  0  0  0  0  0  0
  138.9270   78.0790  222.9260 C   0  0  0  0  0  0  0  0  0  0  0  0
  140.1360   78.2120  222.0740 C   0  0  2  0  0  0  0  0  0  0  0  0
  140.9060   77.0040  221.8980 N   0  0  0  0  0  0  0  0  0  0  0  0
  140.6520   76.1280  220.8250 C   0  0  0  0  0  0  0  0  0  0  0  0
  139.7240   76.4570  220.0230 O   0  0  0  0  0  0  0  0  0  0  0  0
  141.3620   74.8720  220.5450 C   0  0  0  0  0  0  0  0  0  0  0  0
  141.0900   73.9100  221.5670 N   0  0  0  0  0  0  0  0  0  0  0  0
  139.8870   73.1560  221.5780 C   0  0  0  0  0  0  0  0  0  0  0  0
  138.9840   73.2630  220.7070 O   0  0  0  0  0  0  0  0  0  0  0  0
  139.7050   72.2010  222.6810 C   0  0  0  0  0  0  0  0  0  0  0  0
  138.7380   71.1980  222.5790 C   0  0  0  0  0  0  0  0  0  0  0  0
  138.5960   70.3120  223.6460 C   0  0  0  0  0  0  0  0  0  0  0  0
  139.3810   70.4100  224.7770 C   0  0  0  0  0  0  0  0  0  0  0  0
  139.2730   69.5570  225.8530 C   0  0  0  0  0  0  0  0  0  0  0  0
  140.0920   69.7070  226.9620 C   0  0  0  0  0  0  0  0  0  0  0  0
  139.9810   68.6400  228.3450 Cl  0  0  0  0  0  0  0  0  0  0  0  0
  141.0300   70.7200  227.0020 C   0  0  0  0  0  0  0  0  0  0  0  0
  141.1600   71.5990  225.9280 C   0  0  0  0  0  0  0  0  0  0  0  0
  140.3270   71.4150  224.8430 C   0  0  0  0  0  0  0  0  0  0  0  0
  140.4270   72.2410  223.7950 N   0  0  0  0  0  0  0  0  0  0  0  0
  141.0560   79.2090  222.6730 C   0  0  0  0  0  0  0  0  0  0  0  0
  140.6300   80.3130  223.3820 C   0  0  0  0  0  0  0  0  0  0  0  0
  141.4930   81.2380  223.9330 C   0  0  0  0  0  0  0  0  0  0  0  0
  142.8580   81.0830  223.7880 C   0  0  0  0  0  0  0  0  0  0  0  0
  143.3180   79.9890  223.0840 C   0  0  0  0  0  0  0  0  0  0  0  0
  142.4400   79.0730  222.5400 C   0  0  0  0  0  0  0  0  0  0  0  0
  137.5523   75.9748  223.7595 H   0  0  0  0  0  0  0  0  0  0  0  0
  136.5886   75.6572  222.2772 H   0  0  0  0  0  0  0  0  0  0  0  0
  138.3604   75.3612  222.2772 H   0  0  0  0  0  0  0  0  0  0  0  0
  138.0265   77.4323  221.1222 H   0  0  0  0  0  0  0  0  0  0  0  0
  136.8865   78.0211  222.4062 H   0  0  0  0  0  0  0  0  0  0  0  0
  138.6146   79.0803  223.2573 H   0  0  0  0  0  0  0  0  0  0  0  0
  139.1845   77.4379  223.7819 H   0  0  0  0  0  0  0  0  0  0  0  0
  139.7447   78.5048  221.0885 H   0  0  0  0  0  0  0  0  0  0  0  0
  141.6610   76.8170  222.5860 H   0  0  0  0  0  0  0  0  0  0  0  0
  141.0284   74.4750  219.5749 H   0  0  0  0  0  0  0  0  0  0  0  0
  142.4436   75.0704  220.5190 H   0  0  0  0  0  0  0  0  0  0  0  0
  141.8060   73.7610  222.3310 H   0  0  0  0  0  0  0  0  0  0  0  0
  138.1067   71.1098  221.6825 H   0  0  0  0  0  0  0  0  0  0  0  0
  137.8399   69.5154  223.5850 H   0  0  0  0  0  0  0  0  0  0  0  0
  138.5285   68.7475  225.8324 H   0  0  0  0  0  0  0  0  0  0  0  0
  141.6767   70.8335  227.8845 H   0  0  0  0  0  0  0  0  0  0  0  0
  141.9012   72.4116  225.9446 H   0  0  0  0  0  0  0  0  0  0  0  0
  139.5485   80.4634  223.5147 H   0  0  0  0  0  0  0  0  0  0  0  0
  141.0937   82.0996  224.4882 H   0  0  0  0  0  0  0  0  0  0  0  0
  143.5588   81.8115  224.2217 H   0  0  0  0  0  0  0  0  0  0  0  0
  144.4007   79.8446  222.9543 H   0  0  0  0  0  0  0  0  0  0  0  0
  142.8416   78.2116  221.9861 H   0  0  0  0  0  0  0  0  0  0  0  0
  1  2  1  0
  2  3  1  0
  3  4  1  0
  4  5  1  0
  5  6  1  0
  6  7  2  0
  6  8  1  0
  8  9  1  0
  9 10  1  0
 10 11  2  0
 10 12  1  0
 12 13  2  0
 13 14  1  0
 14 15  2  0
 15 16  1  0
 16 17  2  0
 17 18  1  0
 17 19  1  0
 19 20  2  0
 20 21  1  0
 21 22  2  0
  4 23  1  0
 23 24  2  0
 24 25  1  0
 25 26  2  0
 26 27  1  0
 27 28  2  0
 22 12  1  0
 28 23  1  0
 21 15  1  0
  1 29  1  0
  1 30  1  0
  1 31  1  0
  2 32  1  0
  2 33  1  0
  3 34  1  0
  3 35  1  0
  4 36  1  6
  5 37  1  0
  8 38  1  0
  8 39  1  0
  9 40  1  0
 13 41  1  0
 14 42  1  0
 16 43  1  0
 19 44  1  0
 20 45  1  0
 24 46  1  0
 25 47  1  0
 26 48  1  0
 27 49  1  0
 28 50  1  0
M  END
>  <smiles>  (11) 
CCC[C@H](NC(=O)CNC(=O)c1ccc2cc(Cl)ccc2n1)c1ccccc1

>  <score_type>  (11) 
oracle

>  <origin>  (11) 
autodockgpu

>  <m_score__min__energy>  (11) 
-9.0399999999999991

>  <m_primary>  (11) 
energy

>  <rmsd>  (11) 
3.2421813742385552

>  <m_score__min__rmsd>  (11) 
3.2421813742385552

>  <meeko>  (11) 
{"free_energy": -7.98, "intermolecular_energy": -10.07, "internal_energy": -1.74, "cluster_size": 19, "cluster_id": 1, "rank_in_cluster": 18}

>  <energy>  (11) 
-8.39

>  <cluster_rmsd>  (11) 
1.86

>  <cluster>  (11) 
1

$$$$

     RDKit          3D

 50 52  0  0  0  0  0  0  0  0999 V2000
  143.3330   76.2650  218.9590 C   0  0  0  0  0  0  0  0  0  0  0  0
  142.9110   77.5870  218.3310 C   0  0  0  0  0  0  0  0  0  0  0  0
  142.0730   78.3990  219.2540 C   0  0  0  0  0  0  0  0  0  0  0  0
  141.7950   77.6890  220.5280 C   0  0  2  0  0  0  0  0  0  0  0  0
  140.5350   76.9870  220.5830 N   0  0  0  0  0  0  0  0  0  0  0  0
  140.4180   75.7530  221.2490 C   0  0  0  0  0  0  0  0  0  0  0  0
  141.4660   75.2960  221.8000 O   0  0  0  0  0  0  0  0  0  0  0  0
  139.1950   74.9450  221.3680 C   0  0  0  0  0  0  0  0  0  0  0  0
  139.3740   73.9110  222.3370 N   0  0  0  0  0  0  0  0  0  0  0  0
  139.3030   72.5380  221.9830 C   0  0  0  0  0  0  0  0  0  0  0  0
  139.0890   72.1260  220.8130 O   0  0  0  0  0  0  0  0  0  0  0  0
  139.4930   71.5570  223.0610 C   0  0  0  0  0  0  0  0  0  0  0  0
  139.0710   70.2370  222.8820 C   0  0  0  0  0  0  0  0  0  0  0  0
  139.2680   69.3370  223.9280 C   0  0  0  0  0  0  0  0  0  0  0  0
  139.8610   69.7230  225.1120 C   0  0  0  0  0  0  0  0  0  0  0  0
  140.0740   68.8660  226.1700 C   0  0  0  0  0  0  0  0  0  0  0  0
  140.6760   69.3150  227.3360 C   0  0  0  0  0  0  0  0  0  0  0  0
  140.9610   68.2530  228.6970 Cl  0  0  0  0  0  0  0  0  0  0  0  0
  141.0710   70.6330  227.4520 C   0  0  0  0  0  0  0  0  0  0  0  0
  140.8670   71.5220  226.3970 C   0  0  0  0  0  0  0  0  0  0  0  0
  140.2650   71.0360  225.2550 C   0  0  0  0  0  0  0  0  0  0  0  0
  140.0560   71.8640  224.2240 N   0  0  0  0  0  0  0  0  0  0  0  0
  141.7790   78.6640  221.6450 C   0  0  0  0  0  0  0  0  0  0  0  0
  142.0720   80.0030  221.4950 C   0  0  0  0  0  0  0  0  0  0  0  0
  142.0580   80.9030  222.5410 C   0  0  0  0  0  0  0  0  0  0  0  0
  141.7380   80.4770  223.8160 C   0  0  0  0  0  0  0  0  0  0  0  0
  141.4390   79.1430  224.0010 C   0  0  0  0  0  0  0  0  0  0  0  0
  141.4580   78.2560  222.9430 C   0  0  0  0  0  0  0  0  0  0  0  0
  143.3045   76.3541  220.0550 H   0  0  0  0  0  0  0  0  0  0  0  0
  142.6440   75.4700  218.6378 H   0  0  0  0  0  0  0  0  0  0  0  0
  144.3552   76.0162  218.6378 H   0  0  0  0  0  0  0  0  0  0  0  0
  143.8128   78.1612  218.0719 H   0  0  0  0  0  0  0  0  0  0  0  0
  142.3120   77.3627  217.4361 H   0  0  0  0  0  0  0  0  0  0  0  0
  142.6008   79.3375  219.4790 H   0  0  0  0  0  0  0  0  0  0  0  0
  141.1108   78.5910  218.7568 H   0  0  0  0  0  0  0  0  0  0  0  0
  142.5976   76.9407  220.6048 H   0  0  0  0  0  0  0  0  0  0  0  0
  139.7200   77.4380  220.1230 H   0  0  0  0  0  0  0  0  0  0  0  0
  138.3616   75.5924  221.6784 H   0  0  0  0  0  0  0  0  0  0  0  0
  138.9741   74.4861  220.3930 H   0  0  0  0  0  0  0  0  0  0  0  0
  139.5640   74.1810  223.3430 H   0  0  0  0  0  0  0  0  0  0  0  0
  138.5968   69.9172  221.9424 H   0  0  0  0  0  0  0  0  0  0  0  0
  138.9426   68.2933  223.8062 H   0  0  0  0  0  0  0  0  0  0  0  0
  139.7631   67.8140  226.0888 H   0  0  0  0  0  0  0  0  0  0  0  0
  141.5480   70.9829  228.3794 H   0  0  0  0  0  0  0  0  0  0  0  0
  141.1757   72.5751  226.4730 H   0  0  0  0  0  0  0  0  0  0  0  0
  142.3298   80.3722  220.4914 H   0  0  0  0  0  0  0  0  0  0  0  0
  142.3017   81.9602  222.3597 H   0  0  0  0  0  0  0  0  0  0  0  0
  141.7221   81.1821  224.6601 H   0  0  0  0  0  0  0  0  0  0  0  0
  141.1814   78.7803  225.0071 H   0  0  0  0  0  0  0  0  0  0  0  0
  141.2138   77.1993  223.1265 H   0  0  0  0  0  0  0  0  0  0  0  0
  1  2  1  0
  2  3  1  0
  3  4  1  0
  4  5  1  0
  5  6  1  0
  6  7  2  0
  6  8  1  0
  8  9  1  0
  9 10  1  0
 10 11  2  0
 10 12  1  0
 12 13  2  0
 13 14  1  0
 14 15  2  0
 15 16  1  0
 16 17  2  0
 17 18  1  0
 17 19  1  0
 19 20  2  0
 20 21  1  0
 21 22  2  0
  4 23  1  0
 23 24  2  0
 24 25  1  0
 25 26  2  0
 26 27  1  0
 27 28  2  0
 22 12  1  0
 28 23  1  0
 21 15  1  0
  1 29  1  0
  1 30  1  0
  1 31  1  0
  2 32  1  0
  2 33  1  0
  3 34  1  0
  3 35  1  0
  4 36  1  1
  5 37  1  0
  8 38  1  0
  8 39  1  0
  9 40  1  0
 13 41  1  0
 14 42  1  0
 16 43  1  0
 19 44  1  0
 20 45  1  0
 24 46  1  0
 25 47  1  0
 26 48  1  0
 27 49  1  0
 28 50  1  0
M  END
>  <smiles>  (12) 
CCC[C@H](NC(=O)CNC(=O)c1ccc2cc(Cl)ccc2n1)c1ccccc1

>  <score_type>  (12) 
oracle

>  <origin>  (12) 
autodockgpu

>  <m_score__min__energy>  (12) 
-9.0399999999999991

>  <m_primary>  (12) 
energy

>  <rmsd>  (12) 
2.06031760779987

>  <m_score__min__rmsd>  (12) 
2.06031760779987

>  <meeko>  (12) 
{"free_energy": -8.69, "intermolecular_energy": -10.77, "internal_energy": -1.66, "cluster_size": 19, "cluster_id": 1, "rank_in_cluster": 6}

>  <energy>  (12) 
-8.31

>  <cluster_rmsd>  (12) 
1.63

>  <cluster>  (12) 
1

$$$$

     RDKit          3D

 50 52  0  0  0  0  0  0  0  0999 V2000
  140.0170   73.5760  221.8730 C   0  0  0  0  0  0  0  0  0  0  0  0
  139.8200   72.1010  222.1960 C   0  0  0  0  0  0  0  0  0  0  0  0
  140.6150   71.6800  223.3810 C   0  0  0  0  0  0  0  0  0  0  0  0
  139.8910   70.6880  224.2160 C   0  0  2  0  0  0  0  0  0  0  0  0
  138.4510   70.7470  224.1390 N   0  0  0  0  0  0  0  0  0  0  0  0
  137.6650   69.5900  224.3000 C   0  0  0  0  0  0  0  0  0  0  0  0
  138.2830   68.5030  224.5200 O   0  0  0  0  0  0  0  0  0  0  0  0
  136.1980   69.5240  224.2380 C   0  0  0  0  0  0  0  0  0  0  0  0
  135.6240   70.7190  224.7710 N   0  0  0  0  0  0  0  0  0  0  0  0
  135.6860   71.9530  224.0690 C   0  0  0  0  0  0  0  0  0  0  0  0
  136.2320   72.0920  222.9430 O   0  0  0  0  0  0  0  0  0  0  0  0
  135.0720   73.1220  224.7150 C   0  0  0  0  0  0  0  0  0  0  0  0
  135.4950   74.4080  224.3680 C   0  0  0  0  0  0  0  0  0  0  0  0
  134.8890   75.4910  225.0030 C   0  0  0  0  0  0  0  0  0  0  0  0
  133.8980   75.3150  225.9470 C   0  0  0  0  0  0  0  0  0  0  0  0
  133.2740   76.3570  226.5970 C   0  0  0  0  0  0  0  0  0  0  0  0
  132.2840   76.1150  227.5370 C   0  0  0  0  0  0  0  0  0  0  0  0
  131.4710   77.4150  228.3800 Cl  0  0  0  0  0  0  0  0  0  0  0  0
  131.9100   74.8190  227.8360 C   0  0  0  0  0  0  0  0  0  0  0  0
  132.5250   73.7460  227.1930 C   0  0  0  0  0  0  0  0  0  0  0  0
  133.5060   74.0290  226.2640 C   0  0  0  0  0  0  0  0  0  0  0  0
  134.1160   73.0210  225.6300 N   0  0  0  0  0  0  0  0  0  0  0  0
  140.2420   70.8920  225.6430 C   0  0  0  0  0  0  0  0  0  0  0  0
  139.7950   70.0800  226.6630 C   0  0  0  0  0  0  0  0  0  0  0  0
  140.1230   70.2790  227.9890 C   0  0  0  0  0  0  0  0  0  0  0  0
  140.9390   71.3340  228.3480 C   0  0  0  0  0  0  0  0  0  0  0  0
  141.4040   72.1660  227.3510 C   0  0  0  0  0  0  0  0  0  0  0  0
  141.0660   71.9520  226.0300 C   0  0  0  0  0  0  0  0  0  0  0  0
  140.0936   74.1492  222.8087 H   0  0  0  0  0  0  0  0  0  0  0  0
  140.9401   73.7032  221.2885 H   0  0  0  0  0  0  0  0  0  0  0  0
  139.1596   73.9410  221.2885 H   0  0  0  0  0  0  0  0  0  0  0  0
  138.7543   71.9214  222.4010 H   0  0  0  0  0  0  0  0  0  0  0  0
  140.1625   71.5145  221.3307 H   0  0  0  0  0  0  0  0  0  0  0  0
  141.5576   71.2312  223.0344 H   0  0  0  0  0  0  0  0  0  0  0  0
  140.8004   72.5713  223.9984 H   0  0  0  0  0  0  0  0  0  0  0  0
  140.2064   69.7126  223.8170 H   0  0  0  0  0  0  0  0  0  0  0  0
  138.0220   71.6790  223.9760 H   0  0  0  0  0  0  0  0  0  0  0  0
  135.8842   69.4069  223.1903 H   0  0  0  0  0  0  0  0  0  0  0  0
  135.8534   68.6656  224.8333 H   0  0  0  0  0  0  0  0  0  0  0  0
  135.1440   70.6790  225.7130 H   0  0  0  0  0  0  0  0  0  0  0  0
  136.2830   74.5611  223.6159 H   0  0  0  0  0  0  0  0  0  0  0  0
  135.2088   76.5114  224.7451 H   0  0  0  0  0  0  0  0  0  0  0  0
  133.5645   77.3929  226.3676 H   0  0  0  0  0  0  0  0  0  0  0  0
  131.1247   74.6334  228.5836 H   0  0  0  0  0  0  0  0  0  0  0  0
  132.2381   72.7083  227.4184 H   0  0  0  0  0  0  0  0  0  0  0  0
  139.1442   69.2307  226.4076 H   0  0  0  0  0  0  0  0  0  0  0  0
  139.7345   69.5973  228.7599 H   0  0  0  0  0  0  0  0  0  0  0  0
  141.2105   71.5059  229.4000 H   0  0  0  0  0  0  0  0  0  0  0  0
  142.0545   73.0135  227.6128 H   0  0  0  0  0  0  0  0  0  0  0  0
  141.4560   72.6347  225.2607 H   0  0  0  0  0  0  0  0  0  0  0  0
  1  2  1  0
  2  3  1  0
  3  4  1  0
  4  5  1  0
  5  6  1  0
  6  7  2  0
  6  8  1  0
  8  9  1  0
  9 10  1  0
 10 11  2  0
 10 12  1  0
 12 13  2  0
 13 14  1  0
 14 15  2  0
 15 16  1  0
 16 17  2  0
 17 18  1  0
 17 19  1  0
 19 20  2  0
 20 21  1  0
 21 22  2  0
  4 23  1  0
 23 24  2  0
 24 25  1  0
 25 26  2  0
 26 27  1  0
 27 28  2  0
 22 12  1  0
 28 23  1  0
 21 15  1  0
  1 29  1  0
  1 30  1  0
  1 31  1  0
  2 32  1  0
  2 33  1  0
  3 34  1  0
  3 35  1  0
  4 36  1  6
  5 37  1  0
  8 38  1  0
  8 39  1  0
  9 40  1  0
 13 41  1  0
 14 42  1  0
 16 43  1  0
 19 44  1  0
 20 45  1  0
 24 46  1  0
 25 47  1  0
 26 48  1  0
 27 49  1  0
 28 50  1  0
M  END
>  <smiles>  (13) 
CCC[C@H](NC(=O)CNC(=O)c1ccc2cc(Cl)ccc2n1)c1ccccc1

>  <score_type>  (13) 
oracle

>  <origin>  (13) 
autodockgpu

>  <m_score__min__energy>  (13) 
-9.0399999999999991

>  <m_primary>  (13) 
energy

>  <rmsd>  (13) 
7.394645076707392

>  <m_score__min__rmsd>  (13) 
7.394645076707392

>  <meeko>  (13) 
{"free_energy": -7.67, "intermolecular_energy": -9.76, "internal_energy": -2.41, "cluster_size": 16, "cluster_id": 3, "rank_in_cluster": 10}

>  <energy>  (13) 
-8.26

>  <cluster_rmsd>  (13) 
0.74

>  <cluster>  (13) 
1

$$$$

     RDKit          3D

 50 52  0  0  0  0  0  0  0  0999 V2000
  141.4260   67.7580  226.8580 C   0  0  0  0  0  0  0  0  0  0  0  0
  139.9870   67.4260  226.4860 C   0  0  0  0  0  0  0  0  0  0  0  0
  139.5960   68.0300  225.1830 C   0  0  0  0  0  0  0  0  0  0  0  0
  138.8890   69.3240  225.3560 C   0  0  2  0  0  0  0  0  0  0  0  0
  138.5600   70.0180  224.1340 N   0  0  0  0  0  0  0  0  0  0  0  0
  137.2920   70.5990  223.9450 C   0  0  0  0  0  0  0  0  0  0  0  0
  136.4620   70.4890  224.9000 O   0  0  0  0  0  0  0  0  0  0  0  0
  136.8400   71.3240  222.7490 C   0  0  0  0  0  0  0  0  0  0  0  0
  137.5940   72.5260  222.5810 N   0  0  0  0  0  0  0  0  0  0  0  0
  138.9230   72.5070  222.0790 C   0  0  0  0  0  0  0  0  0  0  0  0
  139.5300   71.4570  221.7410 O   0  0  0  0  0  0  0  0  0  0  0  0
  139.6110   73.8000  221.9570 C   0  0  0  0  0  0  0  0  0  0  0  0
  140.9080   73.8510  221.4380 C   0  0  0  0  0  0  0  0  0  0  0  0
  141.5260   75.0960  221.3390 C   0  0  0  0  0  0  0  0  0  0  0  0
  140.8890   76.2540  221.7360 C   0  0  0  0  0  0  0  0  0  0  0  0
  141.4640   77.5030  221.6540 C   0  0  0  0  0  0  0  0  0  0  0  0
  140.7730   78.6310  222.0700 C   0  0  0  0  0  0  0  0  0  0  0  0
  141.4730   80.2320  221.9800 Cl  0  0  0  0  0  0  0  0  0  0  0  0
  139.4910   78.5150  222.5740 C   0  0  0  0  0  0  0  0  0  0  0  0
  138.8860   77.2630  222.6680 C   0  0  0  0  0  0  0  0  0  0  0  0
  139.6080   76.1660  222.2440 C   0  0  0  0  0  0  0  0  0  0  0  0
  139.0540   74.9500  222.3210 N   0  0  0  0  0  0  0  0  0  0  0  0
  139.7370   70.2490  226.1460 C   0  0  0  0  0  0  0  0  0  0  0  0
  139.6660   70.3680  227.5180 C   0  0  0  0  0  0  0  0  0  0  0  0
  140.4560   71.2340  228.2450 C   0  0  0  0  0  0  0  0  0  0  0  0
  141.3760   72.0380  227.6000 C   0  0  0  0  0  0  0  0  0  0  0  0
  141.4730   71.9440  226.2270 C   0  0  0  0  0  0  0  0  0  0  0  0
  140.6740   71.0710  225.5150 C   0  0  0  0  0  0  0  0  0  0  0  0
  141.5256   67.7810  227.9532 H   0  0  0  0  0  0  0  0  0  0  0  0
  142.0978   66.9913  226.4447 H   0  0  0  0  0  0  0  0  0  0  0  0
  141.6940   68.7416  226.4447 H   0  0  0  0  0  0  0  0  0  0  0  0
  139.8807   66.3333  226.4174 H   0  0  0  0  0  0  0  0  0  0  0  0
  139.3298   67.8408  227.2644 H   0  0  0  0  0  0  0  0  0  0  0  0
  140.5031   68.1989  224.5841 H   0  0  0  0  0  0  0  0  0  0  0  0
  138.9089   67.3337  224.6799 H   0  0  0  0  0  0  0  0  0  0  0  0
  137.9445   69.0556  225.8517 H   0  0  0  0  0  0  0  0  0  0  0  0
  139.3020   70.0810  223.4090 H   0  0  0  0  0  0  0  0  0  0  0  0
  136.9757   70.6843  221.8645 H   0  0  0  0  0  0  0  0  0  0  0  0
  135.7776   71.5828  222.8687 H   0  0  0  0  0  0  0  0  0  0  0  0
  137.1480   73.4490  222.8400 H   0  0  0  0  0  0  0  0  0  0  0  0
  141.4257   72.9350  221.1171 H   0  0  0  0  0  0  0  0  0  0  0  0
  142.5470   75.1573  220.9343 H   0  0  0  0  0  0  0  0  0  0  0  0
  142.4833   77.6069  221.2538 H   0  0  0  0  0  0  0  0  0  0  0  0
  138.9470   79.4132  222.9017 H   0  0  0  0  0  0  0  0  0  0  0  0
  137.8668   77.1529  223.0669 H   0  0  0  0  0  0  0  0  0  0  0  0
  138.9430   69.7407  228.0600 H   0  0  0  0  0  0  0  0  0  0  0  0
  140.3534   71.2845  229.3390 H   0  0  0  0  0  0  0  0  0  0  0  0
  142.0134   72.7337  228.1655 H   0  0  0  0  0  0  0  0  0  0  0  0
  142.1980   72.5742  225.6910 H   0  0  0  0  0  0  0  0  0  0  0  0
  140.7782   71.0215  224.4211 H   0  0  0  0  0  0  0  0  0  0  0  0
  1  2  1  0
  2  3  1  0
  3  4  1  0
  4  5  1  0
  5  6  1  0
  6  7  2  0
  6  8  1  0
  8  9  1  0
  9 10  1  0
 10 11  2  0
 10 12  1  0
 12 13  2  0
 13 14  1  0
 14 15  2  0
 15 16  1  0
 16 17  2  0
 17 18  1  0
 17 19  1  0
 19 20  2  0
 20 21  1  0
 21 22  2  0
  4 23  1  0
 23 24  2  0
 24 25  1  0
 25 26  2  0
 26 27  1  0
 27 28  2  0
 22 12  1  0
 28 23  1  0
 21 15  1  0
  1 29  1  0
  1 30  1  0
  1 31  1  0
  2 32  1  0
  2 33  1  0
  3 34  1  0
  3 35  1  0
  4 36  1  1
  5 37  1  0
  8 38  1  0
  8 39  1  0
  9 40  1  0
 13 41  1  0
 14 42  1  0
 16 43  1  0
 19 44  1  0
 20 45  1  0
 24 46  1  0
 25 47  1  0
 26 48  1  0
 27 49  1  0
 28 50  1  0
M  END
>  <smiles>  (14) 
CCC[C@H](NC(=O)CNC(=O)c1ccc2cc(Cl)ccc2n1)c1ccccc1

>  <score_type>  (14) 
oracle

>  <origin>  (14) 
autodockgpu

>  <m_score__min__energy>  (14) 
-9.0399999999999991

>  <m_primary>  (14) 
energy

>  <rmsd>  (14) 
8.485016539974346

>  <m_score__min__rmsd>  (14) 
8.485016539974346

>  <meeko>  (14) 
{"free_energy": -8.03, "intermolecular_energy": -10.12, "internal_energy": -2.45, "cluster_size": 7, "cluster_id": 2, "rank_in_cluster": 4}

>  <energy>  (14) 
-8.22

>  <cluster_rmsd>  (14) 
1.93

>  <cluster>  (14) 
1

$$$$

     RDKit          3D

 50 52  0  0  0  0  0  0  0  0999 V2000
  141.7630   78.7370  219.5520 C   0  0  0  0  0  0  0  0  0  0  0  0
  142.0530   77.3720  220.1630 C   0  0  0  0  0  0  0  0  0  0  0  0
  142.9690   76.5650  219.3120 C   0  0  0  0  0  0  0  0  0  0  0  0
  142.5720   75.1350  219.2640 C   0  0  2  0  0  0  0  0  0  0  0  0
  141.2990   74.8250  219.8700 N   0  0  0  0  0  0  0  0  0  0  0  0
  140.3780   73.9710  219.2350 C   0  0  0  0  0  0  0  0  0  0  0  0
  140.7250   73.4860  218.1140 O   0  0  0  0  0  0  0  0  0  0  0  0
  139.0550   73.5870  219.7480 C   0  0  0  0  0  0  0  0  0  0  0  0
  139.1900   72.6470  220.8150 N   0  0  0  0  0  0  0  0  0  0  0  0
  139.7650   73.0130  222.0620 C   0  0  0  0  0  0  0  0  0  0  0  0
  140.1870   74.1690  222.3270 O   0  0  0  0  0  0  0  0  0  0  0  0
  139.8650   71.9640  223.0870 C   0  0  0  0  0  0  0  0  0  0  0  0
  139.4590   70.6600  222.7900 C   0  0  0  0  0  0  0  0  0  0  0  0
  139.5700   69.6950  223.7890 C   0  0  0  0  0  0  0  0  0  0  0  0
  140.0640   70.0010  225.0400 C   0  0  0  0  0  0  0  0  0  0  0  0
  140.1890   69.0770  226.0540 C   0  0  0  0  0  0  0  0  0  0  0  0
  140.6930   69.4470  227.2920 C   0  0  0  0  0  0  0  0  0  0  0  0
  140.8660   68.3000  228.6010 Cl  0  0  0  0  0  0  0  0  0  0  0  0
  141.0780   70.7540  227.5240 C   0  0  0  0  0  0  0  0  0  0  0  0
  140.9610   71.7090  226.5160 C   0  0  0  0  0  0  0  0  0  0  0  0
  140.4550   71.3000  225.2990 C   0  0  0  0  0  0  0  0  0  0  0  0
  140.3310   72.1930  224.3100 N   0  0  0  0  0  0  0  0  0  0  0  0
  143.5830   74.3170  219.9770 C   0  0  0  0  0  0  0  0  0  0  0  0
  144.7650   74.8250  220.4740 C   0  0  0  0  0  0  0  0  0  0  0  0
  145.7020   74.0560  221.1320 C   0  0  0  0  0  0  0  0  0  0  0  0
  145.4800   72.7060  221.3220 C   0  0  0  0  0  0  0  0  0  0  0  0
  144.3070   72.1650  220.8370 C   0  0  0  0  0  0  0  0  0  0  0  0
  143.3790   72.9500  220.1810 C   0  0  0  0  0  0  0  0  0  0  0  0
  141.6068   79.4724  220.3550 H   0  0  0  0  0  0  0  0  0  0  0  0
  142.6150   79.0488  218.9299 H   0  0  0  0  0  0  0  0  0  0  0  0
  140.8579   78.6755  218.9299 H   0  0  0  0  0  0  0  0  0  0  0  0
  142.5185   77.5157  221.1492 H   0  0  0  0  0  0  0  0  0  0  0  0
  141.1007   76.8282  220.2487 H   0  0  0  0  0  0  0  0  0  0  0  0
  142.9541   76.9717  218.2901 H   0  0  0  0  0  0  0  0  0  0  0  0
  143.9765   76.6223  219.7498 H   0  0  0  0  0  0  0  0  0  0  0  0
  142.4947   74.9085  218.1904 H   0  0  0  0  0  0  0  0  0  0  0  0
  141.1000   75.2470  220.7990 H   0  0  0  0  0  0  0  0  0  0  0  0
  138.5352   74.4832  220.1177 H   0  0  0  0  0  0  0  0  0  0  0  0
  138.4768   73.1241  218.9348 H   0  0  0  0  0  0  0  0  0  0  0  0
  138.8530   71.6550  220.6680 H   0  0  0  0  0  0  0  0  0  0  0  0
  139.0633   70.4030  221.7963 H   0  0  0  0  0  0  0  0  0  0  0  0
  139.2557   68.6629  223.5746 H   0  0  0  0  0  0  0  0  0  0  0  0
  139.8857   68.0341  225.8799 H   0  0  0  0  0  0  0  0  0  0  0  0
  141.4781   71.0413  228.5076 H   0  0  0  0  0  0  0  0  0  0  0  0
  141.2618   72.7535  226.6847 H   0  0  0  0  0  0  0  0  0  0  0  0
  144.9707   75.8971  220.3388 H   0  0  0  0  0  0  0  0  0  0  0  0
  146.6274   74.5184  221.5060 H   0  0  0  0  0  0  0  0  0  0  0  0
  146.2176   72.0798  221.8453 H   0  0  0  0  0  0  0  0  0  0  0  0
  144.1079   71.0920  220.9749 H   0  0  0  0  0  0  0  0  0  0  0  0
  142.4537   72.4860  219.8089 H   0  0  0  0  0  0  0  0  0  0  0  0
  1  2  1  0
  2  3  1  0
  3  4  1  0
  4  5  1  0
  5  6  1  0
  6  7  2  0
  6  8  1  0
  8  9  1  0
  9 10  1  0
 10 11  2  0
 10 12  1  0
 12 13  2  0
 13 14  1  0
 14 15  2  0
 15 16  1  0
 16 17  2  0
 17 18  1  0
 17 19  1  0
 19 20  2  0
 20 21  1  0
 21 22  2  0
  4 23  1  0
 23 24  2  0
 24 25  1  0
 25 26  2  0
 26 27  1  0
 27 28  2  0
 22 12  1  0
 28 23  1  0
 21 15  1  0
  1 29  1  0
  1 30  1  0
  1 31  1  0
  2 32  1  0
  2 33  1  0
  3 34  1  0
  3 35  1  0
  4 36  1  6
  5 37  1  0
  8 38  1  0
  8 39  1  0
  9 40  1  0
 13 41  1  0
 14 42  1  0
 16 43  1  0
 19 44  1  0
 20 45  1  0
 24 46  1  0
 25 47  1  0
 26 48  1  0
 27 49  1  0
 28 50  1  0
M  END
>  <smiles>  (15) 
CCC[C@H](NC(=O)CNC(=O)c1ccc2cc(Cl)ccc2n1)c1ccccc1

>  <score_type>  (15) 
oracle

>  <origin>  (15) 
autodockgpu

>  <m_score__min__energy>  (15) 
-9.0399999999999991

>  <m_primary>  (15) 
energy

>  <rmsd>  (15) 
2.7468123890252145

>  <m_score__min__rmsd>  (15) 
2.7468123890252145

>  <meeko>  (15) 
{"free_energy": -7.5, "intermolecular_energy": -9.58, "internal_energy": -2.26, "cluster_size": 5, "cluster_id": 4, "rank_in_cluster": 5}

>  <energy>  (15) 
-8.16

>  <cluster_rmsd>  (15) 
1.97

>  <cluster>  (15) 
1

$$$$

     RDKit          3D

 50 52  0  0  0  0  0  0  0  0999 V2000
  141.1060   72.3430  227.3050 C   0  0  0  0  0  0  0  0  0  0  0  0
  141.4980   71.5730  226.0500 C   0  0  0  0  0  0  0  0  0  0  0  0
  140.3800   71.5010  225.0710 C   0  0  0  0  0  0  0  0  0  0  0  0
  139.7140   70.1730  225.0800 C   0  0  2  0  0  0  0  0  0  0  0  0
  138.2790   70.2000  224.9330 N   0  0  0  0  0  0  0  0  0  0  0  0
  137.5830   69.1080  224.3790 C   0  0  0  0  0  0  0  0  0  0  0  0
  138.2770   68.1060  224.0250 O   0  0  0  0  0  0  0  0  0  0  0  0
  136.1300   69.0210  224.1760 C   0  0  0  0  0  0  0  0  0  0  0  0
  135.4800   70.1660  224.7300 N   0  0  0  0  0  0  0  0  0  0  0  0
  134.4290   70.0400  225.6770 C   0  0  0  0  0  0  0  0  0  0  0  0
  133.9970   68.9360  226.1020 O   0  0  0  0  0  0  0  0  0  0  0  0
  133.8230   71.2840  226.1760 C   0  0  0  0  0  0  0  0  0  0  0  0
  132.7040   71.2250  227.0100 C   0  0  0  0  0  0  0  0  0  0  0  0
  132.1590   72.4260  227.4610 C   0  0  0  0  0  0  0  0  0  0  0  0
  132.6980   73.6450  227.1040 C   0  0  0  0  0  0  0  0  0  0  0  0
  132.1910   74.8540  227.5270 C   0  0  0  0  0  0  0  0  0  0  0  0
  132.7780   76.0470  227.1330 C   0  0  0  0  0  0  0  0  0  0  0  0
  132.1590   77.5980  227.6530 Cl  0  0  0  0  0  0  0  0  0  0  0  0
  133.8850   76.0380  226.3060 C   0  0  0  0  0  0  0  0  0  0  0  0
  134.4190   74.8290  225.8620 C   0  0  0  0  0  0  0  0  0  0  0  0
  133.8050   73.6640  226.2770 C   0  0  0  0  0  0  0  0  0  0  0  0
  134.2940   72.4870  225.8690 N   0  0  0  0  0  0  0  0  0  0  0  0
  139.9900   69.4910  226.3680 C   0  0  0  0  0  0  0  0  0  0  0  0
  139.3340   69.7850  227.5440 C   0  0  0  0  0  0  0  0  0  0  0  0
  139.5990   69.1470  228.7390 C   0  0  0  0  0  0  0  0  0  0  0  0
  140.5630   68.1590  228.7970 C   0  0  0  0  0  0  0  0  0  0  0  0
  141.2380   67.8400  227.6370 C   0  0  0  0  0  0  0  0  0  0  0  0
  140.9600   68.4880  226.4500 C   0  0  0  0  0  0  0  0  0  0  0  0
  141.3992   71.7671  228.1951 H   0  0  0  0  0  0  0  0  0  0  0  0
  141.6183   73.3164  227.3129 H   0  0  0  0  0  0  0  0  0  0  0  0
  140.0175   72.5015  227.3129 H   0  0  0  0  0  0  0  0  0  0  0  0
  142.3535   72.0769  225.5764 H   0  0  0  0  0  0  0  0  0  0  0  0
  141.7573   70.5462  226.3473 H   0  0  0  0  0  0  0  0  0  0  0  0
  139.6372   72.2720  225.3235 H   0  0  0  0  0  0  0  0  0  0  0  0
  140.7982   71.6634  224.0667 H   0  0  0  0  0  0  0  0  0  0  0  0
  140.1288   69.6517  224.2046 H   0  0  0  0  0  0  0  0  0  0  0  0
  137.7820   71.0500  225.2670 H   0  0  0  0  0  0  0  0  0  0  0  0
  135.9172   68.9697  223.0980 H   0  0  0  0  0  0  0  0  0  0  0  0
  135.7530   68.1185  224.6793 H   0  0  0  0  0  0  0  0  0  0  0  0
  135.7930   71.1290  224.4240 H   0  0  0  0  0  0  0  0  0  0  0  0
  132.2658   70.2593  227.3022 H   0  0  0  0  0  0  0  0  0  0  0  0
  131.2771   72.4014  228.1180 H   0  0  0  0  0  0  0  0  0  0  0  0
  131.3099   74.8733  228.1852 H   0  0  0  0  0  0  0  0  0  0  0  0
  134.3463   76.9876  225.9970 H   0  0  0  0  0  0  0  0  0  0  0  0
  135.2997   74.8041  225.2034 H   0  0  0  0  0  0  0  0  0  0  0  0
  138.5607   70.5671  227.5295 H   0  0  0  0  0  0  0  0  0  0  0  0
  139.0422   69.4254  229.6459 H   0  0  0  0  0  0  0  0  0  0  0  0
  140.7860   67.6413  229.7416 H   0  0  0  0  0  0  0  0  0  0  0  0
  142.0101   67.0568  227.6581 H   0  0  0  0  0  0  0  0  0  0  0  0
  141.5171   68.2073  225.5440 H   0  0  0  0  0  0  0  0  0  0  0  0
  1  2  1  0
  2  3  1  0
  3  4  1  0
  4  5  1  0
  5  6  1  0
  6  7  2  0
  6  8  1  0
  8  9  1  0
  9 10  1  0
 10 11  2  0
 10 12  1  0
 12 13  2  0
 13 14  1  0
 14 15  2  0
 15 16  1  0
 16 17  2  0
 17 18  1  0
 17 19  1  0
 19 20  2  0
 20 21  1  0
 21 22  2  0
  4 23  1  0
 23 24  2  0
 24 25  1  0
 25 26  2  0
 26 27  1  0
 27 28  2  0
 22 12  1  0
 28 23  1  0
 21 15  1  0
  1 29  1  0
  1 30  1  0
  1 31  1  0
  2 32  1  0
  2 33  1  0
  3 34  1  0
  3 35  1  0
  4 36  1  6
  5 37  1  0
  8 38  1  0
  8 39  1  0
  9 40  1  0
 13 41  1  0
 14 42  1  0
 16 43  1  0
 19 44  1  0
 20 45  1  0
 24 46  1  0
 25 47  1  0
 26 48  1  0
 27 49  1  0
 28 50  1  0
M  END
>  <smiles>  (16) 
CCC[C@H](NC(=O)CNC(=O)c1ccc2cc(Cl)ccc2n1)c1ccccc1

>  <score_type>  (16) 
oracle

>  <origin>  (16) 
autodockgpu

>  <m_score__min__energy>  (16) 
-9.0399999999999991

>  <m_primary>  (16) 
energy

>  <rmsd>  (16) 
8.19836483399584

>  <m_score__min__rmsd>  (16) 
8.19836483399584

>  <meeko>  (16) 
{"free_energy": -8.38, "intermolecular_energy": -10.47, "internal_energy": -1.55, "cluster_size": 16, "cluster_id": 3, "rank_in_cluster": 4}

>  <energy>  (16) 
-8.06

>  <cluster_rmsd>  (16) 
1.98

>  <cluster>  (16) 
1

$$$$

     RDKit          3D

 50 52  0  0  0  0  0  0  0  0999 V2000
  139.5750   73.4010  221.9640 C   0  0  0  0  0  0  0  0  0  0  0  0
  139.9950   71.9430  222.0890 C   0  0  0  0  0  0  0  0  0  0  0  0
  140.6730   71.6680  223.3850 C   0  0  0  0  0  0  0  0  0  0  0  0
  139.9310   70.6770  224.2050 C   0  0  2  0  0  0  0  0  0  0  0  0
  138.4920   70.7570  224.1210 N   0  0  0  0  0  0  0  0  0  0  0  0
  137.6940   69.5980  224.1710 C   0  0  0  0  0  0  0  0  0  0  0  0
  138.3000   68.4890  224.3000 O   0  0  0  0  0  0  0  0  0  0  0  0
  136.2270   69.5530  224.0910 C   0  0  0  0  0  0  0  0  0  0  0  0
  135.6630   70.7480  224.6340 N   0  0  0  0  0  0  0  0  0  0  0  0
  135.7920   71.9990  223.9730 C   0  0  0  0  0  0  0  0  0  0  0  0
  136.3930   72.1550  222.8780 O   0  0  0  0  0  0  0  0  0  0  0  0
  135.1810   73.1670  224.6250 C   0  0  0  0  0  0  0  0  0  0  0  0
  135.5860   74.4540  224.2640 C   0  0  0  0  0  0  0  0  0  0  0  0
  134.9840   75.5350  224.9050 C   0  0  0  0  0  0  0  0  0  0  0  0
  134.0140   75.3560  225.8700 C   0  0  0  0  0  0  0  0  0  0  0  0
  133.3940   76.3960  226.5270 C   0  0  0  0  0  0  0  0  0  0  0  0
  132.4250   76.1510  227.4890 C   0  0  0  0  0  0  0  0  0  0  0  0
  131.6190   77.4480  228.3410 Cl  0  0  0  0  0  0  0  0  0  0  0  0
  132.0680   74.8530  227.8010 C   0  0  0  0  0  0  0  0  0  0  0  0
  132.6800   73.7810  227.1520 C   0  0  0  0  0  0  0  0  0  0  0  0
  133.6390   74.0680  226.2020 C   0  0  0  0  0  0  0  0  0  0  0  0
  134.2440   73.0620  225.5600 N   0  0  0  0  0  0  0  0  0  0  0  0
  140.2760   70.8600  225.6360 C   0  0  0  0  0  0  0  0  0  0  0  0
  139.8170   70.0390  226.6440 C   0  0  0  0  0  0  0  0  0  0  0  0
  140.1400   70.2190  227.9730 C   0  0  0  0  0  0  0  0  0  0  0  0
  140.9630   71.2620  228.3500 C   0  0  0  0  0  0  0  0  0  0  0  0
  141.4410   72.1020  227.3650 C   0  0  0  0  0  0  0  0  0  0  0  0
  141.1080   71.9070  226.0400 C   0  0  0  0  0  0  0  0  0  0  0  0
  139.4503   73.8340  222.9675 H   0  0  0  0  0  0  0  0  0  0  0  0
  140.3487   73.9599  221.4171 H   0  0  0  0  0  0  0  0  0  0  0  0
  138.6226   73.4626  221.4171 H   0  0  0  0  0  0  0  0  0  0  0  0
  139.1000   71.3078  222.0145 H   0  0  0  0  0  0  0  0  0  0  0  0
  140.7068   71.7235  221.2795 H   0  0  0  0  0  0  0  0  0  0  0  0
  141.6808   71.2767  223.1819 H   0  0  0  0  0  0  0  0  0  0  0  0
  140.7169   72.6104  223.9507 H   0  0  0  0  0  0  0  0  0  0  0  0
  140.2357   69.7021  223.7968 H   0  0  0  0  0  0  0  0  0  0  0  0
  138.0730   71.7040  224.0360 H   0  0  0  0  0  0  0  0  0  0  0  0
  135.9240   69.4548  223.0381 H   0  0  0  0  0  0  0  0  0  0  0  0
  135.8638   68.6912  224.6701 H   0  0  0  0  0  0  0  0  0  0  0  0
  135.1370   70.6940  225.5500 H   0  0  0  0  0  0  0  0  0  0  0  0
  136.3579   74.6098  223.4959 H   0  0  0  0  0  0  0  0  0  0  0  0
  135.2897   76.5566  224.6350 H   0  0  0  0  0  0  0  0  0  0  0  0
  133.6705   77.4330  226.2859 H   0  0  0  0  0  0  0  0  0  0  0  0
  131.2983   74.6646  228.5640 H   0  0  0  0  0  0  0  0  0  0  0  0
  132.4076   72.7420  227.3892 H   0  0  0  0  0  0  0  0  0  0  0  0
  139.1604   69.1984  226.3751 H   0  0  0  0  0  0  0  0  0  0  0  0
  139.7416   69.5311  228.7333 H   0  0  0  0  0  0  0  0  0  0  0  0
  141.2299   71.4187  229.4056 H   0  0  0  0  0  0  0  0  0  0  0  0
  142.0978   72.9403  227.6403 H   0  0  0  0  0  0  0  0  0  0  0  0
  141.5088   72.5950  225.2810 H   0  0  0  0  0  0  0  0  0  0  0  0
  1  2  1  0
  2  3  1  0
  3  4  1  0
  4  5  1  0
  5  6  1  0
  6  7  2  0
  6  8  1  0
  8  9  1  0
  9 10  1  0
 10 11  2  0
 10 12  1  0
 12 13  2  0
 13 14  1  0
 14 15  2  0
 15 16  1  0
 16 17  2  0
 17 18  1  0
 17 19  1  0
 19 20  2  0
 20 21  1  0
 21 22  2  0
  4 23  1  0
 23 24  2  0
 24 25  1  0
 25 26  2  0
 26 27  1  0
 27 28  2  0
 22 12  1  0
 28 23  1  0
 21 15  1  0
  1 29  1  0
  1 30  1  0
  1 31  1  0
  2 32  1  0
  2 33  1  0
  3 34  1  0
  3 35  1  0
  4 36  1  6
  5 37  1  0
  8 38  1  0
  8 39  1  0
  9 40  1  0
 13 41  1  0
 14 42  1  0
 16 43  1  0
 19 44  1  0
 20 45  1  0
 24 46  1  0
 25 47  1  0
 26 48  1  0
 27 49  1  0
 28 50  1  0
M  END
>  <smiles>  (17) 
CCC[C@H](NC(=O)CNC(=O)c1ccc2cc(Cl)ccc2n1)c1ccccc1

>  <score_type>  (17) 
oracle

>  <origin>  (17) 
autodockgpu

>  <m_score__min__energy>  (17) 
-9.0399999999999991

>  <m_primary>  (17) 
energy

>  <rmsd>  (17) 
7.339996573958997

>  <m_score__min__rmsd>  (17) 
7.339996573958997

>  <meeko>  (17) 
{"free_energy": -7.65, "intermolecular_energy": -9.73, "internal_energy": -2.48, "cluster_size": 16, "cluster_id": 3, "rank_in_cluster": 11}

>  <energy>  (17) 
-7.99

>  <cluster_rmsd>  (17) 
1.99

>  <cluster>  (17) 
1

$$$$

     RDKit          3D

 50 52  0  0  0  0  0  0  0  0999 V2000
  142.5420   78.7330  218.0610 C   0  0  0  0  0  0  0  0  0  0  0  0
  142.8180   77.2410  217.9360 C   0  0  0  0  0  0  0  0  0  0  0  0
  143.3900   76.6740  219.1880 C   0  0  0  0  0  0  0  0  0  0  0  0
  142.7650   75.3770  219.5510 C   0  0  2  0  0  0  0  0  0  0  0  0
  141.8000   75.4340  220.6230 N   0  0  0  0  0  0  0  0  0  0  0  0
  140.4180   75.3540  220.3640 C   0  0  0  0  0  0  0  0  0  0  0  0
  140.0690   75.2230  219.1500 O   0  0  0  0  0  0  0  0  0  0  0  0
  139.3450   75.4050  221.3670 C   0  0  0  0  0  0  0  0  0  0  0  0
  139.4900   74.3380  222.3050 N   0  0  0  0  0  0  0  0  0  0  0  0
  139.7250   73.0020  221.8840 C   0  0  0  0  0  0  0  0  0  0  0  0
  139.8280   72.6550  220.6780 O   0  0  0  0  0  0  0  0  0  0  0  0
  139.8480   71.9800  222.9340 C   0  0  0  0  0  0  0  0  0  0  0  0
  139.4570   70.6640  222.6720 C   0  0  0  0  0  0  0  0  0  0  0  0
  139.5900   69.7250  223.6930 C   0  0  0  0  0  0  0  0  0  0  0  0
  140.0920   70.0680  224.9320 C   0  0  0  0  0  0  0  0  0  0  0  0
  140.2390   69.1720  225.9670 C   0  0  0  0  0  0  0  0  0  0  0  0
  140.7510   69.5780  227.1900 C   0  0  0  0  0  0  0  0  0  0  0  0
  140.9510   68.4660  228.5250 Cl  0  0  0  0  0  0  0  0  0  0  0  0
  141.1210   70.8950  227.3860 C   0  0  0  0  0  0  0  0  0  0  0  0
  140.9820   71.8240  226.3560 C   0  0  0  0  0  0  0  0  0  0  0  0
  140.4680   71.3790  225.1540 C   0  0  0  0  0  0  0  0  0  0  0  0
  140.3230   72.2450  224.1450 N   0  0  0  0  0  0  0  0  0  0  0  0
  143.8160   74.4260  219.9860 C   0  0  0  0  0  0  0  0  0  0  0  0
  143.6670   73.0550  219.9550 C   0  0  0  0  0  0  0  0  0  0  0  0
  144.6490   72.1770  220.3660 C   0  0  0  0  0  0  0  0  0  0  0  0
  145.8550   72.6590  220.8370 C   0  0  0  0  0  0  0  0  0  0  0  0
  146.0370   74.0260  220.8810 C   0  0  0  0  0  0  0  0  0  0  0  0
  145.0440   74.8910  220.4660 C   0  0  0  0  0  0  0  0  0  0  0  0
  142.4910   79.0086  219.1247 H   0  0  0  0  0  0  0  0  0  0  0  0
  143.3510   79.2976  217.5743 H   0  0  0  0  0  0  0  0  0  0  0  0
  141.5846   78.9708  217.5743 H   0  0  0  0  0  0  0  0  0  0  0  0
  141.8744   76.7228  217.7099 H   0  0  0  0  0  0  0  0  0  0  0  0
  143.5531   77.0973  217.1305 H   0  0  0  0  0  0  0  0  0  0  0  0
  144.4699   76.5199  219.0464 H   0  0  0  0  0  0  0  0  0  0  0  0
  143.1915   77.3853  220.0033 H   0  0  0  0  0  0  0  0  0  0  0  0
  142.2340   75.0644  218.6398 H   0  0  0  0  0  0  0  0  0  0  0  0
  142.1690   75.5220  221.5900 H   0  0  0  0  0  0  0  0  0  0  0  0
  139.3928   76.3658  221.9005 H   0  0  0  0  0  0  0  0  0  0  0  0
  138.3752   75.3035  220.8579 H   0  0  0  0  0  0  0  0  0  0  0  0
  139.4200   74.5530  223.3390 H   0  0  0  0  0  0  0  0  0  0  0  0
  139.0560   70.3778  221.6885 H   0  0  0  0  0  0  0  0  0  0  0  0
  139.2872   68.6840  223.5067 H   0  0  0  0  0  0  0  0  0  0  0  0
  139.9468   68.1215  225.8220 H   0  0  0  0  0  0  0  0  0  0  0  0
  141.5267   71.2114  228.3583 H   0  0  0  0  0  0  0  0  0  0  0  0
  141.2719   72.8758  226.4959 H   0  0  0  0  0  0  0  0  0  0  0  0
  142.7178   72.6409  219.5841 H   0  0  0  0  0  0  0  0  0  0  0  0
  144.4714   71.0925  220.3186 H   0  0  0  0  0  0  0  0  0  0  0  0
  146.6480   71.9721  221.1677 H   0  0  0  0  0  0  0  0  0  0  0  0
  146.9888   74.4334  221.2528 H   0  0  0  0  0  0  0  0  0  0  0  0
  145.2239   75.9751  220.5144 H   0  0  0  0  0  0  0  0  0  0  0  0
  1  2  1  0
  2  3  1  0
  3  4  1  0
  4  5  1  0
  5  6  1  0
  6  7  2  0
  6  8  1  0
  8  9  1  0
  9 10  1  0
 10 11  2  0
 10 12  1  0
 12 13  2  0
 13 14  1  0
 14 15  2  0
 15 16  1  0
 16 17  2  0
 17 18  1  0
 17 19  1  0
 19 20  2  0
 20 21  1  0
 21 22  2  0
  4 23  1  0
 23 24  2  0
 24 25  1  0
 25 26  2  0
 26 27  1  0
 27 28  2  0
 22 12  1  0
 28 23  1  0
 21 15  1  0
  1 29  1  0
  1 30  1  0
  1 31  1  0
  2 32  1  0
  2 33  1  0
  3 34  1  0
  3 35  1  0
  4 36  1  6
  5 37  1  0
  8 38  1  0
  8 39  1  0
  9 40  1  0
 13 41  1  0
 14 42  1  0
 16 43  1  0
 19 44  1  0
 20 45  1  0
 24 46  1  0
 25 47  1  0
 26 48  1  0
 27 49  1  0
 28 50  1  0
M  END
>  <smiles>  (18) 
CCC[C@H](NC(=O)CNC(=O)c1ccc2cc(Cl)ccc2n1)c1ccccc1

>  <score_type>  (18) 
oracle

>  <origin>  (18) 
autodockgpu

>  <m_score__min__energy>  (18) 
-9.0399999999999991

>  <m_primary>  (18) 
energy

>  <rmsd>  (18) 
2.6470703329658885

>  <m_score__min__rmsd>  (18) 
2.6470703329658885

>  <meeko>  (18) 
{"free_energy": -8.28, "intermolecular_energy": -10.37, "internal_energy": -1.67, "cluster_size": 5, "cluster_id": 4, "rank_in_cluster": 2}

>  <energy>  (18) 
-7.98

>  <cluster_rmsd>  (18) 
1.58

>  <cluster>  (18) 
1

$$$$

     RDKit          3D

 50 52  0  0  0  0  0  0  0  0999 V2000
  139.5590   73.3400  221.9770 C   0  0  0  0  0  0  0  0  0  0  0  0
  139.9920   71.8840  222.0900 C   0  0  0  0  0  0  0  0  0  0  0  0
  140.6850   71.6090  223.3780 C   0  0  0  0  0  0  0  0  0  0  0  0
  139.9420   70.6340  224.2150 C   0  0  2  0  0  0  0  0  0  0  0  0
  138.5040   70.6870  224.0980 N   0  0  0  0  0  0  0  0  0  0  0  0
  137.7190   69.5270  224.2370 C   0  0  0  0  0  0  0  0  0  0  0  0
  138.3340   68.4420  224.4750 O   0  0  0  0  0  0  0  0  0  0  0  0
  136.2540   69.4550  224.1350 C   0  0  0  0  0  0  0  0  0  0  0  0
  135.6600   70.6370  224.6750 N   0  0  0  0  0  0  0  0  0  0  0  0
  135.7660   71.8910  224.0160 C   0  0  0  0  0  0  0  0  0  0  0  0
  136.3710   72.0620  222.9250 O   0  0  0  0  0  0  0  0  0  0  0  0
  135.1260   73.0450  224.6650 C   0  0  0  0  0  0  0  0  0  0  0  0
  135.5020   74.3420  224.3050 C   0  0  0  0  0  0  0  0  0  0  0  0
  134.8710   75.4090  224.9430 C   0  0  0  0  0  0  0  0  0  0  0  0
  133.9020   75.2070  225.9040 C   0  0  0  0  0  0  0  0  0  0  0  0
  133.2550   76.2320  226.5580 C   0  0  0  0  0  0  0  0  0  0  0  0
  132.2890   75.9650  227.5160 C   0  0  0  0  0  0  0  0  0  0  0  0
  131.4490   77.2430  228.3640 Cl  0  0  0  0  0  0  0  0  0  0  0  0
  131.9610   74.6590  227.8270 C   0  0  0  0  0  0  0  0  0  0  0  0
  132.6000   73.6020  227.1810 C   0  0  0  0  0  0  0  0  0  0  0  0
  133.5560   73.9110  226.2350 C   0  0  0  0  0  0  0  0  0  0  0  0
  134.1870   72.9190  225.5960 N   0  0  0  0  0  0  0  0  0  0  0  0
  140.2540   70.8710  225.6460 C   0  0  0  0  0  0  0  0  0  0  0  0
  139.7570   70.0980  226.6740 C   0  0  0  0  0  0  0  0  0  0  0  0
  140.0490   70.3280  228.0030 C   0  0  0  0  0  0  0  0  0  0  0  0
  140.8770   71.3750  228.3580 C   0  0  0  0  0  0  0  0  0  0  0  0
  141.3920   72.1680  227.3530 C   0  0  0  0  0  0  0  0  0  0  0  0
  141.0890   71.9230  226.0280 C   0  0  0  0  0  0  0  0  0  0  0  0
  139.4328   73.7642  222.9840 H   0  0  0  0  0  0  0  0  0  0  0  0
  140.3266   73.9096  221.4327 H   0  0  0  0  0  0  0  0  0  0  0  0
  138.6049   73.3976  221.4327 H   0  0  0  0  0  0  0  0  0  0  0  0
  139.1015   71.2419  222.0212 H   0  0  0  0  0  0  0  0  0  0  0  0
  140.6969   71.6737  221.2722 H   0  0  0  0  0  0  0  0  0  0  0  0
  141.6845   71.2029  223.1633 H   0  0  0  0  0  0  0  0  0  0  0  0
  140.7497   72.5545  223.9364 H   0  0  0  0  0  0  0  0  0  0  0  0
  140.2706   69.6509  223.8468 H   0  0  0  0  0  0  0  0  0  0  0  0
  138.0760   71.6180  223.9230 H   0  0  0  0  0  0  0  0  0  0  0  0
  135.9684   69.3562  223.0773 H   0  0  0  0  0  0  0  0  0  0  0  0
  135.8983   68.5838  224.7047 H   0  0  0  0  0  0  0  0  0  0  0  0
  135.1300   70.5710  225.5880 H   0  0  0  0  0  0  0  0  0  0  0  0
  136.2735   74.5159  223.5404 H   0  0  0  0  0  0  0  0  0  0  0  0
  135.1528   76.4376  224.6734 H   0  0  0  0  0  0  0  0  0  0  0  0
  133.5078   77.2752  226.3173 H   0  0  0  0  0  0  0  0  0  0  0  0
  131.1929   74.4529  228.5870 H   0  0  0  0  0  0  0  0  0  0  0  0
  132.3507   72.5570  227.4173 H   0  0  0  0  0  0  0  0  0  0  0  0
  139.0950   69.2563  226.4223 H   0  0  0  0  0  0  0  0  0  0  0  0
  139.6220   69.6771  228.7802 H   0  0  0  0  0  0  0  0  0  0  0  0
  141.1192   71.5713  229.4129 H   0  0  0  0  0  0  0  0  0  0  0  0
  142.0538   73.0079  227.6110 H   0  0  0  0  0  0  0  0  0  0  0  0
  141.5173   72.5746  225.2521 H   0  0  0  0  0  0  0  0  0  0  0  0
  1  2  1  0
  2  3  1  0
  3  4  1  0
  4  5  1  0
  5  6  1  0
  6  7  2  0
  6  8  1  0
  8  9  1  0
  9 10  1  0
 10 11  2  0
 10 12  1  0
 12 13  2  0
 13 14  1  0
 14 15  2  0
 15 16  1  0
 16 17  2  0
 17 18  1  0
 17 19  1  0
 19 20  2  0
 20 21  1  0
 21 22  2  0
  4 23  1  0
 23 24  2  0
 24 25  1  0
 25 26  2  0
 26 27  1  0
 27 28  2  0
 22 12  1  0
 28 23  1  0
 21 15  1  0
  1 29  1  0
  1 30  1  0
  1 31  1  0
  2 32  1  0
  2 33  1  0
  3 34  1  0
  3 35  1  0
  4 36  1  6
  5 37  1  0
  8 38  1  0
  8 39  1  0
  9 40  1  0
 13 41  1  0
 14 42  1  0
 16 43  1  0
 19 44  1  0
 20 45  1  0
 24 46  1  0
 25 47  1  0
 26 48  1  0
 27 49  1  0
 28 50  1  0
M  END
>  <smiles>  (19) 
CCC[C@H](NC(=O)CNC(=O)c1ccc2cc(Cl)ccc2n1)c1ccccc1

>  <score_type>  (19) 
oracle

>  <origin>  (19) 
autodockgpu

>  <m_score__min__energy>  (19) 
-9.0399999999999991

>  <m_primary>  (19) 
energy

>  <rmsd>  (19) 
7.357212571335401

>  <m_score__min__rmsd>  (19) 
7.357212571335401

>  <meeko>  (19) 
{"free_energy": -7.61, "intermolecular_energy": -9.7, "internal_energy": -2.48, "cluster_size": 16, "cluster_id": 3, "rank_in_cluster": 13}

>  <energy>  (19) 
-7.9

>  <cluster_rmsd>  (19) 
1.64

>  <cluster>  (19) 
1

$$$$

     RDKit          3D

 50 52  0  0  0  0  0  0  0  0999 V2000
  143.3210   76.3240  218.7700 C   0  0  0  0  0  0  0  0  0  0  0  0
  142.6770   77.5750  218.1870 C   0  0  0  0  0  0  0  0  0  0  0  0
  142.1760   78.4890  219.2500 C   0  0  0  0  0  0  0  0  0  0  0  0
  141.8330   77.7600  220.4970 C   0  0  2  0  0  0  0  0  0  0  0  0
  140.5500   77.1000  220.4940 N   0  0  0  0  0  0  0  0  0  0  0  0
  140.3720   75.8510  221.1210 C   0  0  0  0  0  0  0  0  0  0  0  0
  141.3880   75.3450  221.6890 O   0  0  0  0  0  0  0  0  0  0  0  0
  139.1210   75.0820  221.1800 C   0  0  0  0  0  0  0  0  0  0  0  0
  139.2180   74.0510  222.1640 N   0  0  0  0  0  0  0  0  0  0  0  0
  139.9750   72.8710  221.9340 C   0  0  0  0  0  0  0  0  0  0  0  0
  140.6140   72.6440  220.8730 O   0  0  0  0  0  0  0  0  0  0  0  0
  139.9980   71.8690  223.0100 C   0  0  0  0  0  0  0  0  0  0  0  0
  139.5140   70.5810  222.7700 C   0  0  0  0  0  0  0  0  0  0  0  0
  139.5530   69.6600  223.8160 C   0  0  0  0  0  0  0  0  0  0  0  0
  140.0540   69.9960  225.0570 C   0  0  0  0  0  0  0  0  0  0  0  0
  140.1100   69.1170  226.1160 C   0  0  0  0  0  0  0  0  0  0  0  0
  140.6250   69.5150  227.3410 C   0  0  0  0  0  0  0  0  0  0  0  0
  140.7110   68.4240  228.7060 Cl  0  0  0  0  0  0  0  0  0  0  0  0
  141.0890   70.8040  227.5150 C   0  0  0  0  0  0  0  0  0  0  0  0
  141.0430   71.7150  226.4600 C   0  0  0  0  0  0  0  0  0  0  0  0
  140.5230   71.2790  225.2580 C   0  0  0  0  0  0  0  0  0  0  0  0
  140.4660   72.1290  224.2250 N   0  0  0  0  0  0  0  0  0  0  0  0
  141.8100   78.7110  221.6360 C   0  0  0  0  0  0  0  0  0  0  0  0
  142.1370   80.0460  221.5230 C   0  0  0  0  0  0  0  0  0  0  0  0
  142.1160   80.9230  222.5880 C   0  0  0  0  0  0  0  0  0  0  0  0
  141.7550   80.4770  223.8450 C   0  0  0  0  0  0  0  0  0  0  0  0
  141.4220   79.1460  223.9920 C   0  0  0  0  0  0  0  0  0  0  0  0
  141.4480   78.2820  222.9150 C   0  0  0  0  0  0  0  0  0  0  0  0
  143.2943   76.3758  219.8685 H   0  0  0  0  0  0  0  0  0  0  0  0
  142.7683   75.4353  218.4313 H   0  0  0  0  0  0  0  0  0  0  0  0
  144.3654   76.2574  218.4313 H   0  0  0  0  0  0  0  0  0  0  0  0
  143.4233   78.1097  217.5811 H   0  0  0  0  0  0  0  0  0  0  0  0
  141.8187   77.2623  217.5742 H   0  0  0  0  0  0  0  0  0  0  0  0
  142.9557   79.2313  219.4761 H   0  0  0  0  0  0  0  0  0  0  0  0
  141.2608   78.9725  218.8775 H   0  0  0  0  0  0  0  0  0  0  0  0
  142.6080   76.9841  220.5827 H   0  0  0  0  0  0  0  0  0  0  0  0
  139.7630   77.5900  220.0250 H   0  0  0  0  0  0  0  0  0  0  0  0
  138.2925   75.7566  221.4418 H   0  0  0  0  0  0  0  0  0  0  0  0
  138.9371   74.6225  220.1976 H   0  0  0  0  0  0  0  0  0  0  0  0
  138.7100   74.1730  223.0840 H   0  0  0  0  0  0  0  0  0  0  0  0
  139.1137   70.3014  221.7843 H   0  0  0  0  0  0  0  0  0  0  0  0
  139.1752   68.6407  223.6478 H   0  0  0  0  0  0  0  0  0  0  0  0
  139.7423   68.0881  225.9889 H   0  0  0  0  0  0  0  0  0  0  0  0
  141.4962   71.1132  228.4889 H   0  0  0  0  0  0  0  0  0  0  0  0
  141.4085   72.7454  226.5816 H   0  0  0  0  0  0  0  0  0  0  0  0
  142.4291   80.4308  220.5347 H   0  0  0  0  0  0  0  0  0  0  0  0
  142.3869   81.9783  222.4362 H   0  0  0  0  0  0  0  0  0  0  0  0
  141.7337   81.1636  224.7042 H   0  0  0  0  0  0  0  0  0  0  0  0
  141.1312   78.7671  224.9829 H   0  0  0  0  0  0  0  0  0  0  0  0
  141.1762   77.2272  223.0686 H   0  0  0  0  0  0  0  0  0  0  0  0
  1  2  1  0
  2  3  1  0
  3  4  1  0
  4  5  1  0
  5  6  1  0
  6  7  2  0
  6  8  1  0
  8  9  1  0
  9 10  1  0
 10 11  2  0
 10 12  1  0
 12 13  2  0
 13 14  1  0
 14 15  2  0
 15 16  1  0
 16 17  2  0
 17 18  1  0
 17 19  1  0
 19 20  2  0
 20 21  1  0
 21 22  2  0
  4 23  1  0
 23 24  2  0
 24 25  1  0
 25 26  2  0
 26 27  1  0
 27 28  2  0
 22 12  1  0
 28 23  1  0
 21 15  1  0
  1 29  1  0
  1 30  1  0
  1 31  1  0
  2 32  1  0
  2 33  1  0
  3 34  1  0
  3 35  1  0
  4 36  1  1
  5 37  1  0
  8 38  1  0
  8 39  1  0
  9 40  1  0
 13 41  1  0
 14 42  1  0
 16 43  1  0
 19 44  1  0
 20 45  1  0
 24 46  1  0
 25 47  1  0
 26 48  1  0
 27 49  1  0
 28 50  1  0
M  END
>  <smiles>  (20) 
CCC[C@H](NC(=O)CNC(=O)c1ccc2cc(Cl)ccc2n1)c1ccccc1

>  <score_type>  (20) 
oracle

>  <origin>  (20) 
autodockgpu

>  <m_score__min__energy>  (20) 
-9.0399999999999991

>  <m_primary>  (20) 
energy

>  <rmsd>  (20) 
2.146872913640439

>  <m_score__min__rmsd>  (20) 
2.146872913640439

>  <meeko>  (20) 
{"free_energy": -8.89, "intermolecular_energy": -10.98, "internal_energy": -1.35, "cluster_size": 19, "cluster_id": 1, "rank_in_cluster": 3}

>  <energy>  (20) 
-8.79

>  <cluster_rmsd>  (20) 
0.0

>  <cluster>  (20) 
2

$$$$

     RDKit          3D

 50 52  0  0  0  0  0  0  0  0999 V2000
  139.4330   73.7190  221.9430 C   0  0  0  0  0  0  0  0  0  0  0  0
  139.2850   72.2560  222.3410 C   0  0  0  0  0  0  0  0  0  0  0  0
  140.2020   71.8870  223.4530 C   0  0  0  0  0  0  0  0  0  0  0  0
  139.6610   70.7760  224.2780 C   0  0  2  0  0  0  0  0  0  0  0  0
  138.2210   70.7010  224.3470 N   0  0  0  0  0  0  0  0  0  0  0  0
  137.5600   69.4610  224.4280 C   0  0  0  0  0  0  0  0  0  0  0  0
  138.2890   68.4220  224.4430 O   0  0  0  0  0  0  0  0  0  0  0  0
  136.1060   69.2580  224.4980 C   0  0  0  0  0  0  0  0  0  0  0  0
  135.4630   70.4340  224.9940 N   0  0  0  0  0  0  0  0  0  0  0  0
  134.4060   70.3610  225.9400 C   0  0  0  0  0  0  0  0  0  0  0  0
  133.9620   69.2820  226.4150 O   0  0  0  0  0  0  0  0  0  0  0  0
  133.8090   71.6320  226.3760 C   0  0  0  0  0  0  0  0  0  0  0  0
  132.6710   71.6220  227.1870 C   0  0  0  0  0  0  0  0  0  0  0  0
  132.1340   72.8480  227.5790 C   0  0  0  0  0  0  0  0  0  0  0  0
  132.6990   74.0440  227.1860 C   0  0  0  0  0  0  0  0  0  0  0  0
  132.2010   75.2750  227.5510 C   0  0  0  0  0  0  0  0  0  0  0  0
  132.8140   76.4430  227.1230 C   0  0  0  0  0  0  0  0  0  0  0  0
  132.2070   78.0230  227.5680 Cl  0  0  0  0  0  0  0  0  0  0  0  0
  133.9380   76.3860  226.3220 C   0  0  0  0  0  0  0  0  0  0  0  0
  134.4630   75.1530  225.9380 C   0  0  0  0  0  0  0  0  0  0  0  0
  133.8230   74.0150  226.3840 C   0  0  0  0  0  0  0  0  0  0  0  0
  134.3030   72.8160  226.0330 N   0  0  0  0  0  0  0  0  0  0  0  0
  140.1390   70.9190  225.6750 C   0  0  0  0  0  0  0  0  0  0  0  0
  141.0020   71.9120  226.0890 C   0  0  0  0  0  0  0  0  0  0  0  0
  141.4450   72.0350  227.3900 C   0  0  0  0  0  0  0  0  0  0  0  0
  141.0230   71.1380  228.3530 C   0  0  0  0  0  0  0  0  0  0  0  0
  140.1590   70.1330  227.9710 C   0  0  0  0  0  0  0  0  0  0  0  0
  139.7250   70.0240  226.6650 C   0  0  0  0  0  0  0  0  0  0  0  0
  139.4959   74.3407  222.8483 H   0  0  0  0  0  0  0  0  0  0  0  0
  140.3486   73.8460  221.3467 H   0  0  0  0  0  0  0  0  0  0  0  0
  138.5614   74.0267  221.3467 H   0  0  0  0  0  0  0  0  0  0  0  0
  138.2479   72.0780  222.6616 H   0  0  0  0  0  0  0  0  0  0  0  0
  139.5424   71.6380  221.4682 H   0  0  0  0  0  0  0  0  0  0  0  0
  141.1676   71.5756  223.0280 H   0  0  0  0  0  0  0  0  0  0  0  0
  140.3173   72.7668  224.1032 H   0  0  0  0  0  0  0  0  0  0  0  0
  140.0192   69.8640  223.7780 H   0  0  0  0  0  0  0  0  0  0  0  0
  137.6980   71.5990  224.3490 H   0  0  0  0  0  0  0  0  0  0  0  0
  135.7226   69.0320  223.4921 H   0  0  0  0  0  0  0  0  0  0  0  0
  135.8946   68.4209  225.1795 H   0  0  0  0  0  0  0  0  0  0  0  0
  135.7860   71.3790  224.6450 H   0  0  0  0  0  0  0  0  0  0  0  0
  132.2122   70.6748  227.5069 H   0  0  0  0  0  0  0  0  0  0  0  0
  131.2381   72.8619  228.2171 H   0  0  0  0  0  0  0  0  0  0  0  0
  131.3069   75.3324  228.1892 H   0  0  0  0  0  0  0  0  0  0  0  0
  134.4201   77.3160  225.9863 H   0  0  0  0  0  0  0  0  0  0  0  0
  135.3574   75.0895  225.3008 H   0  0  0  0  0  0  0  0  0  0  0  0
  141.3545   72.6419  225.3454 H   0  0  0  0  0  0  0  0  0  0  0  0
  142.1348   72.8479  227.6610 H   0  0  0  0  0  0  0  0  0  0  0  0
  141.3664   71.2231  229.3945 H   0  0  0  0  0  0  0  0  0  0  0  0
  139.8100   69.4063  228.7194 H   0  0  0  0  0  0  0  0  0  0  0  0
  139.0347   69.2107  226.3965 H   0  0  0  0  0  0  0  0  0  0  0  0
  1  2  1  0
  2  3  1  0
  3  4  1  0
  4  5  1  0
  5  6  1  0
  6  7  2  0
  6  8  1  0
  8  9  1  0
  9 10  1  0
 10 11  2  0
 10 12  1  0
 12 13  2  0
 13 14  1  0
 14 15  2  0
 15 16  1  0
 16 17  2  0
 17 18  1  0
 17 19  1  0
 19 20  2  0
 20 21  1  0
 21 22  2  0
  4 23  1  0
 23 24  2  0
 24 25  1  0
 25 26  2  0
 26 27  1  0
 27 28  2  0
 22 12  1  0
 28 23  1  0
 21 15  1  0
  1 29  1  0
  1 30  1  0
  1 31  1  0
  2 32  1  0
  2 33  1  0
  3 34  1  0
  3 35  1  0
  4 36  1  6
  5 37  1  0
  8 38  1  0
  8 39  1  0
  9 40  1  0
 13 41  1  0
 14 42  1  0
 16 43  1  0
 19 44  1  0
 20 45  1  0
 24 46  1  0
 25 47  1  0
 26 48  1  0
 27 49  1  0
 28 50  1  0
M  END
>  <smiles>  (21) 
CCC[C@H](NC(=O)CNC(=O)c1ccc2cc(Cl)ccc2n1)c1ccccc1

>  <score_type>  (21) 
oracle

>  <origin>  (21) 
autodockgpu

>  <m_score__min__energy>  (21) 
-9.0399999999999991

>  <m_primary>  (21) 
energy

>  <rmsd>  (21) 
7.504483392323914

>  <m_score__min__rmsd>  (21) 
7.504483392323914

>  <meeko>  (21) 
{"free_energy": -8.53, "intermolecular_energy": -10.62, "internal_energy": -1.58, "cluster_size": 16, "cluster_id": 3, "rank_in_cluster": 2}

>  <energy>  (21) 
-8.06

>  <cluster_rmsd>  (21) 
1.0

>  <cluster>  (21) 
2

$$$$

     RDKit          3D

 50 52  0  0  0  0  0  0  0  0999 V2000
  140.7950   72.8390  221.1870 C   0  0  0  0  0  0  0  0  0  0  0  0
  140.0760   71.7730  222.0020 C   0  0  0  0  0  0  0  0  0  0  0  0
  140.3460   71.9100  223.4590 C   0  0  0  0  0  0  0  0  0  0  0  0
  139.7040   70.8290  224.2500 C   0  0  2  0  0  0  0  0  0  0  0  0
  138.2630   70.8770  224.3070 N   0  0  0  0  0  0  0  0  0  0  0  0
  137.4930   69.7000  224.2460 C   0  0  0  0  0  0  0  0  0  0  0  0
  138.1260   68.6040  224.1450 O   0  0  0  0  0  0  0  0  0  0  0  0
  136.0250   69.6210  224.2900 C   0  0  0  0  0  0  0  0  0  0  0  0
  135.4790   70.8270  224.8270 N   0  0  0  0  0  0  0  0  0  0  0  0
  135.6050   72.0690  224.1480 C   0  0  0  0  0  0  0  0  0  0  0  0
  136.1870   72.2060  223.0400 O   0  0  0  0  0  0  0  0  0  0  0  0
  135.0150   73.2500  224.7950 C   0  0  0  0  0  0  0  0  0  0  0  0
  135.4830   74.5260  224.4720 C   0  0  0  0  0  0  0  0  0  0  0  0
  134.8970   75.6200  225.1070 C   0  0  0  0  0  0  0  0  0  0  0  0
  133.8840   75.4630  226.0310 C   0  0  0  0  0  0  0  0  0  0  0  0
  133.2800   76.5160  226.6810 C   0  0  0  0  0  0  0  0  0  0  0  0
  132.2660   76.2940  227.6010 C   0  0  0  0  0  0  0  0  0  0  0  0
  131.4770   77.6090  228.4440 Cl  0  0  0  0  0  0  0  0  0  0  0  0
  131.8480   75.0070  227.8780 C   0  0  0  0  0  0  0  0  0  0  0  0
  132.4430   73.9220  227.2350 C   0  0  0  0  0  0  0  0  0  0  0  0
  133.4480   74.1860  226.3270 C   0  0  0  0  0  0  0  0  0  0  0  0
  134.0390   73.1670  225.6920 N   0  0  0  0  0  0  0  0  0  0  0  0
  140.1800   70.8940  225.6530 C   0  0  0  0  0  0  0  0  0  0  0  0
  140.9810   71.9050  226.1430 C   0  0  0  0  0  0  0  0  0  0  0  0
  141.4220   71.9550  227.4490 C   0  0  0  0  0  0  0  0  0  0  0  0
  141.0640   70.9620  228.3400 C   0  0  0  0  0  0  0  0  0  0  0  0
  140.2620   69.9360  227.8820 C   0  0  0  0  0  0  0  0  0  0  0  0
  139.8290   69.9010  226.5720 C   0  0  0  0  0  0  0  0  0  0  0  0
  141.2786   73.5560  221.8667 H   0  0  0  0  0  0  0  0  0  0  0  0
  141.5575   72.3634  220.5527 H   0  0  0  0  0  0  0  0  0  0  0  0
  140.0683   73.3678  220.5527 H   0  0  0  0  0  0  0  0  0  0  0  0
  138.9933   71.8652  221.8311 H   0  0  0  0  0  0  0  0  0  0  0  0
  140.4471   70.7894  221.6783 H   0  0  0  0  0  0  0  0  0  0  0  0
  141.4330   71.8723  223.6235 H   0  0  0  0  0  0  0  0  0  0  0  0
  139.9251   72.8699  223.7928 H   0  0  0  0  0  0  0  0  0  0  0  0
  139.9866   69.9026  223.7285 H   0  0  0  0  0  0  0  0  0  0  0  0
  137.8220   71.8120  224.4100 H   0  0  0  0  0  0  0  0  0  0  0  0
  135.6391   69.4703  223.2710 H   0  0  0  0  0  0  0  0  0  0  0  0
  135.7313   68.7781  224.9329 H   0  0  0  0  0  0  0  0  0  0  0  0
  134.9710   70.7900  225.7540 H   0  0  0  0  0  0  0  0  0  0  0  0
  136.2905   74.6635  223.7379 H   0  0  0  0  0  0  0  0  0  0  0  0
  135.2507   76.6332  224.8656 H   0  0  0  0  0  0  0  0  0  0  0  0
  133.6054   77.5450  226.4682 H   0  0  0  0  0  0  0  0  0  0  0  0
  131.0431   74.8373  228.6083 H   0  0  0  0  0  0  0  0  0  0  0  0
  132.1221   72.8909  227.4445 H   0  0  0  0  0  0  0  0  0  0  0  0
  141.2829   72.7111  225.4581 H   0  0  0  0  0  0  0  0  0  0  0  0
  142.0599   72.7871  227.7816 H   0  0  0  0  0  0  0  0  0  0  0  0
  141.4081   70.9881  229.3845 H   0  0  0  0  0  0  0  0  0  0  0  0
  139.9632   69.1334  228.5723 H   0  0  0  0  0  0  0  0  0  0  0  0
  139.1900   69.0687  226.2420 H   0  0  0  0  0  0  0  0  0  0  0  0
  1  2  1  0
  2  3  1  0
  3  4  1  0
  4  5  1  0
  5  6  1  0
  6  7  2  0
  6  8  1  0
  8  9  1  0
  9 10  1  0
 10 11  2  0
 10 12  1  0
 12 13  2  0
 13 14  1  0
 14 15  2  0
 15 16  1  0
 16 17  2  0
 17 18  1  0
 17 19  1  0
 19 20  2  0
 20 21  1  0
 21 22  2  0
  4 23  1  0
 23 24  2  0
 24 25  1  0
 25 26  2  0
 26 27  1  0
 27 28  2  0
 22 12  1  0
 28 23  1  0
 21 15  1  0
  1 29  1  0
  1 30  1  0
  1 31  1  0
  2 32  1  0
  2 33  1  0
  3 34  1  0
  3 35  1  0
  4 36  1  6
  5 37  1  0
  8 38  1  0
  8 39  1  0
  9 40  1  0
 13 41  1  0
 14 42  1  0
 16 43  1  0
 19 44  1  0
 20 45  1  0
 24 46  1  0
 25 47  1  0
 26 48  1  0
 27 49  1  0
 28 50  1  0
M  END
>  <smiles>  (22) 
CCC[C@H](NC(=O)CNC(=O)c1ccc2cc(Cl)ccc2n1)c1ccccc1

>  <score_type>  (22) 
oracle

>  <origin>  (22) 
autodockgpu

>  <m_score__min__energy>  (22) 
-9.0399999999999991

>  <m_primary>  (22) 
energy

>  <rmsd>  (22) 
7.434038735781753

>  <m_score__min__rmsd>  (22) 
7.434038735781753

>  <meeko>  (22) 
{"free_energy": -7.68, "intermolecular_energy": -9.77, "internal_energy": -2.26, "cluster_size": 16, "cluster_id": 3, "rank_in_cluster": 9}

>  <energy>  (22) 
-8.04

>  <cluster_rmsd>  (22) 
0.93

>  <cluster>  (22) 
2

$$$$

     RDKit          3D

 50 52  0  0  0  0  0  0  0  0999 V2000
  143.0270   76.6260  217.6220 C   0  0  0  0  0  0  0  0  0  0  0  0
  142.6450   77.4290  218.8590 C   0  0  0  0  0  0  0  0  0  0  0  0
  142.5890   76.5780  220.0780 C   0  0  0  0  0  0  0  0  0  0  0  0
  142.2830   75.1610  219.7580 C   0  0  2  0  0  0  0  0  0  0  0  0
  141.1040   74.6230  220.3940 N   0  0  0  0  0  0  0  0  0  0  0  0
  139.8900   75.3360  220.3980 C   0  0  0  0  0  0  0  0  0  0  0  0
  139.8830   76.4630  219.8130 O   0  0  0  0  0  0  0  0  0  0  0  0
  138.6300   74.8960  221.0140 C   0  0  0  0  0  0  0  0  0  0  0  0
  138.8830   73.8970  222.0040 N   0  0  0  0  0  0  0  0  0  0  0  0
  139.3600   72.6060  221.6540 C   0  0  0  0  0  0  0  0  0  0  0  0
  139.6020   72.2450  220.4720 O   0  0  0  0  0  0  0  0  0  0  0  0
  139.5770   71.6510  222.7510 C   0  0  0  0  0  0  0  0  0  0  0  0
  139.2510   70.3040  222.5740 C   0  0  0  0  0  0  0  0  0  0  0  0
  139.4710   69.4310  223.6380 C   0  0  0  0  0  0  0  0  0  0  0  0
  139.9950   69.8680  224.8370 C   0  0  0  0  0  0  0  0  0  0  0  0
  140.2280   69.0390  225.9120 C   0  0  0  0  0  0  0  0  0  0  0  0
  140.7570   69.5390  227.0920 C   0  0  0  0  0  0  0  0  0  0  0  0
  141.0650   68.5140  228.4760 Cl  0  0  0  0  0  0  0  0  0  0  0  0
  141.0600   70.8830  227.2040 C   0  0  0  0  0  0  0  0  0  0  0  0
  140.8340   71.7450  226.1320 C   0  0  0  0  0  0  0  0  0  0  0  0
  140.3050   71.2070  224.9760 C   0  0  0  0  0  0  0  0  0  0  0  0
  140.0780   72.0080  223.9280 N   0  0  0  0  0  0  0  0  0  0  0  0
  143.4150   74.3020  220.1820 C   0  0  0  0  0  0  0  0  0  0  0  0
  143.3200   72.9350  220.3410 C   0  0  0  0  0  0  0  0  0  0  0  0
  144.3770   72.1440  220.7400 C   0  0  0  0  0  0  0  0  0  0  0  0
  145.6080   72.7150  221.0020 C   0  0  0  0  0  0  0  0  0  0  0  0
  145.7370   74.0800  220.8520 C   0  0  0  0  0  0  0  0  0  0  0  0
  144.6680   74.8570  220.4520 C   0  0  0  0  0  0  0  0  0  0  0  0
  143.4807   75.6723  217.9296 H   0  0  0  0  0  0  0  0  0  0  0  0
  142.1270   76.4271  217.0216 H   0  0  0  0  0  0  0  0  0  0  0  0
  143.7491   77.1988  217.0216 H   0  0  0  0  0  0  0  0  0  0  0  0
  143.3919   78.2218  219.0129 H   0  0  0  0  0  0  0  0  0  0  0  0
  141.6438   77.8537  218.6937 H   0  0  0  0  0  0  0  0  0  0  0  0
  143.5629   76.6240  220.5874 H   0  0  0  0  0  0  0  0  0  0  0  0
  141.7829   76.9611  220.7210 H   0  0  0  0  0  0  0  0  0  0  0  0
  142.1069   75.1581  218.6722 H   0  0  0  0  0  0  0  0  0  0  0  0
  141.1870   73.6850  220.8330 H   0  0  0  0  0  0  0  0  0  0  0  0
  138.1369   75.7582  221.4866 H   0  0  0  0  0  0  0  0  0  0  0  0
  137.9808   74.4704  220.2347 H   0  0  0  0  0  0  0  0  0  0  0  0
  138.7070   74.1290  223.0210 H   0  0  0  0  0  0  0  0  0  0  0  0
  138.8330   69.9430  221.6227 H   0  0  0  0  0  0  0  0  0  0  0  0
  139.2204   68.3666  223.5187 H   0  0  0  0  0  0  0  0  0  0  0  0
  139.9916   67.9676  225.8334 H   0  0  0  0  0  0  0  0  0  0  0  0
  141.4809   71.2737  228.1422 H   0  0  0  0  0  0  0  0  0  0  0  0
  141.0691   72.8171  226.2048 H   0  0  0  0  0  0  0  0  0  0  0  0
  142.3527   72.4516  220.1394 H   0  0  0  0  0  0  0  0  0  0  0  0
  144.2402   71.0581  220.8498 H   0  0  0  0  0  0  0  0  0  0  0  0
  146.4610   72.0981  221.3212 H   0  0  0  0  0  0  0  0  0  0  0  0
  146.7072   74.5573  221.0543 H   0  0  0  0  0  0  0  0  0  0  0  0
  144.8069   75.9427  220.3430 H   0  0  0  0  0  0  0  0  0  0  0  0
  1  2  1  0
  2  3  1  0
  3  4  1  0
  4  5  1  0
  5  6  1  0
  6  7  2  0
  6  8  1  0
  8  9  1  0
  9 10  1  0
 10 11  2  0
 10 12  1  0
 12 13  2  0
 13 14  1  0
 14 15  2  0
 15 16  1  0
 16 17  2  0
 17 18  1  0
 17 19  1  0
 19 20  2  0
 20 21  1  0
 21 22  2  0
  4 23  1  0
 23 24  2  0
 24 25  1  0
 25 26  2  0
 26 27  1  0
 27 28  2  0
 22 12  1  0
 28 23  1  0
 21 15  1  0
  1 29  1  0
  1 30  1  0
  1 31  1  0
  2 32  1  0
  2 33  1  0
  3 34  1  0
  3 35  1  0
  4 36  1  6
  5 37  1  0
  8 38  1  0
  8 39  1  0
  9 40  1  0
 13 41  1  0
 14 42  1  0
 16 43  1  0
 19 44  1  0
 20 45  1  0
 24 46  1  0
 25 47  1  0
 26 48  1  0
 27 49  1  0
 28 50  1  0
M  END
>  <smiles>  (23) 
CCC[C@H](NC(=O)CNC(=O)c1ccc2cc(Cl)ccc2n1)c1ccccc1

>  <score_type>  (23) 
oracle

>  <origin>  (23) 
autodockgpu

>  <m_score__min__energy>  (23) 
-9.0399999999999991

>  <m_primary>  (23) 
energy

>  <rmsd>  (23) 
2.3001833051635527

>  <m_score__min__rmsd>  (23) 
2.3001833051635527

>  <meeko>  (23) 
{"free_energy": -7.51, "intermolecular_energy": -9.6, "internal_energy": -2.2, "cluster_size": 5, "cluster_id": 4, "rank_in_cluster": 4}

>  <energy>  (23) 
-8.03

>  <cluster_rmsd>  (23) 
0.99

>  <cluster>  (23) 
2

$$$$

     RDKit          3D

 50 52  0  0  0  0  0  0  0  0999 V2000
  141.7580   78.6630  219.5150 C   0  0  0  0  0  0  0  0  0  0  0  0
  142.4080   77.6370  218.5960 C   0  0  0  0  0  0  0  0  0  0  0  0
  143.3370   76.7380  219.3350 C   0  0  0  0  0  0  0  0  0  0  0  0
  142.7090   75.4330  219.6620 C   0  0  2  0  0  0  0  0  0  0  0  0
  141.6850   75.4770  220.6790 N   0  0  0  0  0  0  0  0  0  0  0  0
  140.3420   75.1870  220.3730 C   0  0  0  0  0  0  0  0  0  0  0  0
  140.0810   74.8810  219.1680 O   0  0  0  0  0  0  0  0  0  0  0  0
  139.2150   75.2030  221.3170 C   0  0  0  0  0  0  0  0  0  0  0  0
  139.3680   74.1670  222.2900 N   0  0  0  0  0  0  0  0  0  0  0  0
  139.6680   72.8310  221.9140 C   0  0  0  0  0  0  0  0  0  0  0  0
  139.8280   72.4570  220.7220 O   0  0  0  0  0  0  0  0  0  0  0  0
  139.7930   71.8430  222.9950 C   0  0  0  0  0  0  0  0  0  0  0  0
  139.4000   70.5200  222.7760 C   0  0  0  0  0  0  0  0  0  0  0  0
  139.5340   69.6130  223.8270 C   0  0  0  0  0  0  0  0  0  0  0  0
  140.0390   69.9950  225.0530 C   0  0  0  0  0  0  0  0  0  0  0  0
  140.1870   69.1320  226.1150 C   0  0  0  0  0  0  0  0  0  0  0  0
  140.7010   69.5770  227.3240 C   0  0  0  0  0  0  0  0  0  0  0  0
  140.9030   68.5070  228.6930 Cl  0  0  0  0  0  0  0  0  0  0  0  0
  141.0720   70.8990  227.4780 C   0  0  0  0  0  0  0  0  0  0  0  0
  140.9320   71.7940  226.4190 C   0  0  0  0  0  0  0  0  0  0  0  0
  140.4160   71.3120  225.2330 C   0  0  0  0  0  0  0  0  0  0  0  0
  140.2700   72.1460  224.1970 N   0  0  0  0  0  0  0  0  0  0  0  0
  143.7460   74.4950  220.1540 C   0  0  0  0  0  0  0  0  0  0  0  0
  145.0290   74.8770  220.4830 C   0  0  0  0  0  0  0  0  0  0  0  0
  145.9890   73.9970  220.9370 C   0  0  0  0  0  0  0  0  0  0  0  0
  145.6860   72.6560  221.0810 C   0  0  0  0  0  0  0  0  0  0  0  0
  144.4100   72.2400  220.7600 C   0  0  0  0  0  0  0  0  0  0  0  0
  143.4620   73.1350  220.3080 C   0  0  0  0  0  0  0  0  0  0  0  0
  141.9364   78.3814  220.5633 H   0  0  0  0  0  0  0  0  0  0  0  0
  142.1928   79.6550  219.3227 H   0  0  0  0  0  0  0  0  0  0  0  0
  140.6754   78.6936  219.3227 H   0  0  0  0  0  0  0  0  0  0  0  0
  141.6198   77.0278  218.1295 H   0  0  0  0  0  0  0  0  0  0  0  0
  142.9911   78.1801  217.8377 H   0  0  0  0  0  0  0  0  0  0  0  0
  144.2261   76.5578  218.7129 H   0  0  0  0  0  0  0  0  0  0  0  0
  143.6051   77.2314  220.2809 H   0  0  0  0  0  0  0  0  0  0  0  0
  142.2332   75.1146  218.7227 H   0  0  0  0  0  0  0  0  0  0  0  0
  141.9840   75.7160  221.6450 H   0  0  0  0  0  0  0  0  0  0  0  0
  139.1822   76.1773  221.8265 H   0  0  0  0  0  0  0  0  0  0  0  0
  138.2804   75.0367  220.7613 H   0  0  0  0  0  0  0  0  0  0  0  0
  139.2520   74.4070  223.3140 H   0  0  0  0  0  0  0  0  0  0  0  0
  138.9966   70.2031  221.8029 H   0  0  0  0  0  0  0  0  0  0  0  0
  139.2295   68.5670  223.6748 H   0  0  0  0  0  0  0  0  0  0  0  0
  139.8943   68.0775  226.0037 H   0  0  0  0  0  0  0  0  0  0  0  0
  141.4790   71.2460  228.4392 H   0  0  0  0  0  0  0  0  0  0  0  0
  141.2231   72.8495  226.5248 H   0  0  0  0  0  0  0  0  0  0  0  0
  145.3010   75.9377  220.3781 H   0  0  0  0  0  0  0  0  0  0  0  0
  146.9965   74.3625  221.1847 H   0  0  0  0  0  0  0  0  0  0  0  0
  146.4404   71.9410  221.4411 H   0  0  0  0  0  0  0  0  0  0  0  0
  144.1443   71.1779  220.8661 H   0  0  0  0  0  0  0  0  0  0  0  0
  142.4546   72.7680  220.0620 H   0  0  0  0  0  0  0  0  0  0  0  0
  1  2  1  0
  2  3  1  0
  3  4  1  0
  4  5  1  0
  5  6  1  0
  6  7  2  0
  6  8  1  0
  8  9  1  0
  9 10  1  0
 10 11  2  0
 10 12  1  0
 12 13  2  0
 13 14  1  0
 14 15  2  0
 15 16  1  0
 16 17  2  0
 17 18  1  0
 17 19  1  0
 19 20  2  0
 20 21  1  0
 21 22  2  0
  4 23  1  0
 23 24  2  0
 24 25  1  0
 25 26  2  0
 26 27  1  0
 27 28  2  0
 22 12  1  0
 28 23  1  0
 21 15  1  0
  1 29  1  0
  1 30  1  0
  1 31  1  0
  2 32  1  0
  2 33  1  0
  3 34  1  0
  3 35  1  0
  4 36  1  6
  5 37  1  0
  8 38  1  0
  8 39  1  0
  9 40  1  0
 13 41  1  0
 14 42  1  0
 16 43  1  0
 19 44  1  0
 20 45  1  0
 24 46  1  0
 25 47  1  0
 26 48  1  0
 27 49  1  0
 28 50  1  0
M  END
>  <smiles>  (24) 
CCC[C@H](NC(=O)CNC(=O)c1ccc2cc(Cl)ccc2n1)c1ccccc1

>  <score_type>  (24) 
oracle

>  <origin>  (24) 
autodockgpu

>  <m_score__min__energy>  (24) 
-9.0399999999999991

>  <m_primary>  (24) 
energy

>  <rmsd>  (24) 
2.490201896050391

>  <m_score__min__rmsd>  (24) 
2.490201896050391

>  <meeko>  (24) 
{"free_energy": -8.29, "intermolecular_energy": -10.37, "internal_energy": -1.74, "cluster_size": 5, "cluster_id": 4, "rank_in_cluster": 1}

>  <energy>  (24) 
-8.03

>  <cluster_rmsd>  (24) 
1.02

>  <cluster>  (24) 
2

$$$$

     RDKit          3D

 50 52  0  0  0  0  0  0  0  0999 V2000
  143.4160   80.5140  223.4500 C   0  0  0  0  0  0  0  0  0  0  0  0
  142.0750   80.0370  223.9910 C   0  0  0  0  0  0  0  0  0  0  0  0
  141.8690   78.5810  223.7600 C   0  0  0  0  0  0  0  0  0  0  0  0
  140.8200   78.3200  222.7420 C   0  0  2  0  0  0  0  0  0  0  0  0
  140.8400   77.0010  222.1560 N   0  0  0  0  0  0  0  0  0  0  0  0
  139.6570   76.3850  221.7070 C   0  0  0  0  0  0  0  0  0  0  0  0
  138.5810   77.0470  221.8360 O   0  0  0  0  0  0  0  0  0  0  0  0
  139.5510   75.0500  221.1000 C   0  0  0  0  0  0  0  0  0  0  0  0
  139.6320   74.0400  222.1070 N   0  0  0  0  0  0  0  0  0  0  0  0
  139.8170   72.6710  221.7750 C   0  0  0  0  0  0  0  0  0  0  0  0
  139.9300   72.2450  220.5950 O   0  0  0  0  0  0  0  0  0  0  0  0
  139.8770   71.7130  222.8880 C   0  0  0  0  0  0  0  0  0  0  0  0
  139.4290   70.4030  222.7020 C   0  0  0  0  0  0  0  0  0  0  0  0
  139.5010   69.5250  223.7820 C   0  0  0  0  0  0  0  0  0  0  0  0
  139.9990   69.9230  225.0060 C   0  0  0  0  0  0  0  0  0  0  0  0
  140.0870   69.0880  226.0980 C   0  0  0  0  0  0  0  0  0  0  0  0
  140.5970   69.5480  227.3040 C   0  0  0  0  0  0  0  0  0  0  0  0
  140.7230   68.5140  228.7090 Cl  0  0  0  0  0  0  0  0  0  0  0  0
  141.0240   70.8560  227.4240 C   0  0  0  0  0  0  0  0  0  0  0  0
  140.9450   71.7230  226.3350 C   0  0  0  0  0  0  0  0  0  0  0  0
  140.4310   71.2260  225.1540 C   0  0  0  0  0  0  0  0  0  0  0  0
  140.3430   72.0330  224.0900 N   0  0  0  0  0  0  0  0  0  0  0  0
  140.9690   79.2780  221.6200 C   0  0  0  0  0  0  0  0  0  0  0  0
  140.2950   80.4780  221.5440 C   0  0  0  0  0  0  0  0  0  0  0  0
  140.4370   81.3620  220.4940 C   0  0  0  0  0  0  0  0  0  0  0  0
  141.2900   81.0630  219.4490 C   0  0  0  0  0  0  0  0  0  0  0  0
  141.9800   79.8690  219.4940 C   0  0  0  0  0  0  0  0  0  0  0  0
  141.8260   78.9970  220.5520 C   0  0  0  0  0  0  0  0  0  0  0  0
  144.0861   80.7524  224.2891 H   0  0  0  0  0  0  0  0  0  0  0  0
  143.8663   79.7209  222.8350 H   0  0  0  0  0  0  0  0  0  0  0  0
  143.2643   81.4133  222.8350 H   0  0  0  0  0  0  0  0  0  0  0  0
  142.0375   80.2342  225.0725 H   0  0  0  0  0  0  0  0  0  0  0  0
  141.2803   80.5819  223.4605 H   0  0  0  0  0  0  0  0  0  0  0  0
  142.8155   78.1391  223.4153 H   0  0  0  0  0  0  0  0  0  0  0  0
  141.5404   78.1307  224.7083 H   0  0  0  0  0  0  0  0  0  0  0  0
  139.8734   78.4261  223.2922 H   0  0  0  0  0  0  0  0  0  0  0  0
  141.7650   76.5350  222.0680 H   0  0  0  0  0  0  0  0  0  0  0  0
  138.5870   74.9646  220.5770 H   0  0  0  0  0  0  0  0  0  0  0  0
  140.3789   74.9135  220.3887 H   0  0  0  0  0  0  0  0  0  0  0  0
  139.5510   74.3230  223.1230 H   0  0  0  0  0  0  0  0  0  0  0  0
  139.0308   70.0738  221.7309 H   0  0  0  0  0  0  0  0  0  0  0  0
  139.1524   68.4894  223.6557 H   0  0  0  0  0  0  0  0  0  0  0  0
  139.7492   68.0446  226.0132 H   0  0  0  0  0  0  0  0  0  0  0  0
  141.4278   71.2150  228.3821 H   0  0  0  0  0  0  0  0  0  0  0  0
  141.2808   72.7675  226.4141 H   0  0  0  0  0  0  0  0  0  0  0  0
  139.6092   80.7444  222.3618 H   0  0  0  0  0  0  0  0  0  0  0  0
  139.8709   82.3051  220.4889 H   0  0  0  0  0  0  0  0  0  0  0  0
  141.4155   81.7572  218.6050 H   0  0  0  0  0  0  0  0  0  0  0  0
  142.6640   79.6081  218.6730 H   0  0  0  0  0  0  0  0  0  0  0  0
  142.3933   78.0546  220.5552 H   0  0  0  0  0  0  0  0  0  0  0  0
  1  2  1  0
  2  3  1  0
  3  4  1  0
  4  5  1  0
  5  6  1  0
  6  7  2  0
  6  8  1  0
  8  9  1  0
  9 10  1  0
 10 11  2  0
 10 12  1  0
 12 13  2  0
 13 14  1  0
 14 15  2  0
 15 16  1  0
 16 17  2  0
 17 18  1  0
 17 19  1  0
 19 20  2  0
 20 21  1  0
 21 22  2  0
  4 23  1  0
 23 24  2  0
 24 25  1  0
 25 26  2  0
 26 27  1  0
 27 28  2  0
 22 12  1  0
 28 23  1  0
 21 15  1  0
  1 29  1  0
  1 30  1  0
  1 31  1  0
  2 32  1  0
  2 33  1  0
  3 34  1  0
  3 35  1  0
  4 36  1  1
  5 37  1  0
  8 38  1  0
  8 39  1  0
  9 40  1  0
 13 41  1  0
 14 42  1  0
 16 43  1  0
 19 44  1  0
 20 45  1  0
 24 46  1  0
 25 47  1  0
 26 48  1  0
 27 49  1  0
 28 50  1  0
M  END
>  <smiles>  (25) 
CCC[C@H](NC(=O)CNC(=O)c1ccc2cc(Cl)ccc2n1)c1ccccc1

>  <score_type>  (25) 
oracle

>  <origin>  (25) 
autodockgpu

>  <m_score__min__energy>  (25) 
-9.0399999999999991

>  <m_primary>  (25) 
energy

>  <rmsd>  (25) 
4.084080473172397

>  <m_score__min__rmsd>  (25) 
4.084080473172397

>  <meeko>  (25) 
{"free_energy": -8.71, "intermolecular_energy": -10.8, "internal_energy": -1.4, "cluster_size": 19, "cluster_id": 1, "rank_in_cluster": 5}

>  <energy>  (25) 
-7.9

>  <cluster_rmsd>  (25) 
1.05

>  <cluster>  (25) 
2

$$$$

     RDKit          3D

 50 52  0  0  0  0  0  0  0  0999 V2000
  143.3060   76.4310  218.9080 C   0  0  0  0  0  0  0  0  0  0  0  0
  142.6150   77.6510  218.3130 C   0  0  0  0  0  0  0  0  0  0  0  0
  141.8220   78.3910  219.3320 C   0  0  0  0  0  0  0  0  0  0  0  0
  141.5190   77.5550  220.5200 C   0  0  2  0  0  0  0  0  0  0  0  0
  140.4220   76.6290  220.3620 N   0  0  0  0  0  0  0  0  0  0  0  0
  140.1940   75.6040  221.2990 C   0  0  0  0  0  0  0  0  0  0  0  0
  140.9910   75.5400  222.2860 O   0  0  0  0  0  0  0  0  0  0  0  0
  139.1190   74.6030  221.2440 C   0  0  0  0  0  0  0  0  0  0  0  0
  139.3220   73.6000  222.2400 N   0  0  0  0  0  0  0  0  0  0  0  0
  139.0970   72.2240  221.9680 C   0  0  0  0  0  0  0  0  0  0  0  0
  138.7160   71.7830  220.8520 O   0  0  0  0  0  0  0  0  0  0  0  0
  139.3270   71.2760  223.0680 C   0  0  0  0  0  0  0  0  0  0  0  0
  138.9010   69.9510  222.9450 C   0  0  0  0  0  0  0  0  0  0  0  0
  139.1380   69.0840  224.0100 C   0  0  0  0  0  0  0  0  0  0  0  0
  139.7730   69.5070  225.1600 C   0  0  0  0  0  0  0  0  0  0  0  0
  140.0260   68.6830  226.2350 C   0  0  0  0  0  0  0  0  0  0  0  0
  140.6690   69.1680  227.3640 C   0  0  0  0  0  0  0  0  0  0  0  0
  141.0050   68.1490  228.7460 Cl  0  0  0  0  0  0  0  0  0  0  0  0
  141.0660   70.4900  227.4250 C   0  0  0  0  0  0  0  0  0  0  0  0
  140.8220   71.3460  226.3520 C   0  0  0  0  0  0  0  0  0  0  0  0
  140.1800   70.8240  225.2470 C   0  0  0  0  0  0  0  0  0  0  0  0
  139.9320   71.6200  224.2000 N   0  0  0  0  0  0  0  0  0  0  0  0
  141.1640   78.4300  221.6640 C   0  0  0  0  0  0  0  0  0  0  0  0
  139.8670   78.6900  222.0550 C   0  0  0  0  0  0  0  0  0  0  0  0
  139.5460   79.5090  223.1180 C   0  0  0  0  0  0  0  0  0  0  0  0
  140.5480   80.1150  223.8510 C   0  0  0  0  0  0  0  0  0  0  0  0
  141.8570   79.8760  223.4870 C   0  0  0  0  0  0  0  0  0  0  0  0
  142.1600   79.0530  222.4200 C   0  0  0  0  0  0  0  0  0  0  0  0
  143.2727   76.4898  220.0059 H   0  0  0  0  0  0  0  0  0  0  0  0
  142.7907   75.5184  218.5739 H   0  0  0  0  0  0  0  0  0  0  0  0
  144.3537   76.4037  218.5739 H   0  0  0  0  0  0  0  0  0  0  0  0
  143.3787   78.3253  217.8981 H   0  0  0  0  0  0  0  0  0  0  0  0
  141.9250   77.3041  217.5297 H   0  0  0  0  0  0  0  0  0  0  0  0
  142.3951   79.2724  219.6556 H   0  0  0  0  0  0  0  0  0  0  0  0
  140.8668   78.6825  218.8710 H   0  0  0  0  0  0  0  0  0  0  0  0
  142.4339   76.9655  220.6798 H   0  0  0  0  0  0  0  0  0  0  0  0
  139.8040   76.7620  219.5380 H   0  0  0  0  0  0  0  0  0  0  0  0
  138.1529   75.0985  221.4201 H   0  0  0  0  0  0  0  0  0  0  0  0
  139.1244   74.1275  220.2521 H   0  0  0  0  0  0  0  0  0  0  0  0
  139.6470   73.8940  223.2030 H   0  0  0  0  0  0  0  0  0  0  0  0
  138.3931   69.6022  222.0337 H   0  0  0  0  0  0  0  0  0  0  0  0
  138.8109   68.0367  223.9321 H   0  0  0  0  0  0  0  0  0  0  0  0
  139.7145   67.6287  226.1973 H   0  0  0  0  0  0  0  0  0  0  0  0
  141.5762   70.8683  228.3231 H   0  0  0  0  0  0  0  0  0  0  0  0
  141.1305   72.4013  226.3848 H   0  0  0  0  0  0  0  0  0  0  0  0
  139.0474   78.2208  221.4910 H   0  0  0  0  0  0  0  0  0  0  0  0
  138.4918   79.6795  223.3819 H   0  0  0  0  0  0  0  0  0  0  0  0
  140.3086   80.7701  224.7016 H   0  0  0  0  0  0  0  0  0  0  0  0
  142.6720   80.3481  224.0553 H   0  0  0  0  0  0  0  0  0  0  0  0
  143.2148   78.8834  222.1582 H   0  0  0  0  0  0  0  0  0  0  0  0
  1  2  1  0
  2  3  1  0
  3  4  1  0
  4  5  1  0
  5  6  1  0
  6  7  2  0
  6  8  1  0
  8  9  1  0
  9 10  1  0
 10 11  2  0
 10 12  1  0
 12 13  2  0
 13 14  1  0
 14 15  2  0
 15 16  1  0
 16 17  2  0
 17 18  1  0
 17 19  1  0
 19 20  2  0
 20 21  1  0
 21 22  2  0
  4 23  1  0
 23 24  2  0
 24 25  1  0
 25 26  2  0
 26 27  1  0
 27 28  2  0
 22 12  1  0
 28 23  1  0
 21 15  1  0
  1 29  1  0
  1 30  1  0
  1 31  1  0
  2 32  1  0
  2 33  1  0
  3 34  1  0
  3 35  1  0
  4 36  1  1
  5 37  1  0
  8 38  1  0
  8 39  1  0
  9 40  1  0
 13 41  1  0
 14 42  1  0
 16 43  1  0
 19 44  1  0
 20 45  1  0
 24 46  1  0
 25 47  1  0
 26 48  1  0
 27 49  1  0
 28 50  1  0
M  END
>  <smiles>  (26) 
CCC[C@H](NC(=O)CNC(=O)c1ccc2cc(Cl)ccc2n1)c1ccccc1

>  <score_type>  (26) 
oracle

>  <origin>  (26) 
autodockgpu

>  <m_score__min__energy>  (26) 
-9.0399999999999991

>  <m_primary>  (26) 
energy

>  <rmsd>  (26) 
1.9333313887327264

>  <m_score__min__rmsd>  (26) 
1.9333313887327264

>  <meeko>  (26) 
{"free_energy": -8.22, "intermolecular_energy": -10.3, "internal_energy": -1.99, "cluster_size": 19, "cluster_id": 1, "rank_in_cluster": 14}

>  <energy>  (26) 
-7.69

>  <cluster_rmsd>  (26) 
0.9

>  <cluster>  (26) 
2

$$$$

     RDKit          3D

 50 52  0  0  0  0  0  0  0  0999 V2000
  143.3310   76.4000  218.9030 C   0  0  0  0  0  0  0  0  0  0  0  0
  142.7700   77.6980  218.3380 C   0  0  0  0  0  0  0  0  0  0  0  0
  141.8190   78.3490  219.2800 C   0  0  0  0  0  0  0  0  0  0  0  0
  141.5440   77.5040  220.4690 C   0  0  2  0  0  0  0  0  0  0  0  0
  140.4430   76.5810  220.3300 N   0  0  0  0  0  0  0  0  0  0  0  0
  140.2470   75.5370  221.2540 C   0  0  0  0  0  0  0  0  0  0  0  0
  141.0780   75.4550  222.2110 O   0  0  0  0  0  0  0  0  0  0  0  0
  139.1710   74.5360  221.2150 C   0  0  0  0  0  0  0  0  0  0  0  0
  139.3830   73.5400  222.2180 N   0  0  0  0  0  0  0  0  0  0  0  0
  138.8810   72.2200  222.0730 C   0  0  0  0  0  0  0  0  0  0  0  0
  138.2290   71.8230  221.0720 O   0  0  0  0  0  0  0  0  0  0  0  0
  139.1470   71.2780  223.1700 C   0  0  0  0  0  0  0  0  0  0  0  0
  138.6950   69.9590  223.0790 C   0  0  0  0  0  0  0  0  0  0  0  0
  138.9670   69.0970  224.1390 C   0  0  0  0  0  0  0  0  0  0  0  0
  139.6620   69.5180  225.2540 C   0  0  0  0  0  0  0  0  0  0  0  0
  139.9510   68.6990  226.3230 C   0  0  0  0  0  0  0  0  0  0  0  0
  140.6540   69.1820  227.4170 C   0  0  0  0  0  0  0  0  0  0  0  0
  141.0390   68.1690  228.7910 Cl  0  0  0  0  0  0  0  0  0  0  0  0
  141.0750   70.4980  227.4480 C   0  0  0  0  0  0  0  0  0  0  0  0
  140.7950   71.3490  226.3800 C   0  0  0  0  0  0  0  0  0  0  0  0
  140.0930   70.8290  225.3110 C   0  0  0  0  0  0  0  0  0  0  0  0
  139.8090   71.6200  224.2690 N   0  0  0  0  0  0  0  0  0  0  0  0
  141.2170   78.3710  221.6270 C   0  0  0  0  0  0  0  0  0  0  0  0
  142.1680   79.0040  222.4000 C   0  0  0  0  0  0  0  0  0  0  0  0
  141.8550   79.8060  223.4790 C   0  0  0  0  0  0  0  0  0  0  0  0
  140.5350   80.0090  223.8310 C   0  0  0  0  0  0  0  0  0  0  0  0
  139.5580   79.3910  223.0770 C   0  0  0  0  0  0  0  0  0  0  0  0
  139.8890   78.5910  222.0010 C   0  0  0  0  0  0  0  0  0  0  0  0
  143.3134   76.4407  220.0021 H   0  0  0  0  0  0  0  0  0  0  0  0
  142.7180   75.5545  218.5575 H   0  0  0  0  0  0  0  0  0  0  0  0
  144.3668   76.2672  218.5575 H   0  0  0  0  0  0  0  0  0  0  0  0
  143.6029   78.3887  218.1398 H   0  0  0  0  0  0  0  0  0  0  0  0
  142.2238   77.4591  217.4135 H   0  0  0  0  0  0  0  0  0  0  0  0
  142.2499   79.3039  219.6155 H   0  0  0  0  0  0  0  0  0  0  0  0
  140.8688   78.5047  218.7482 H   0  0  0  0  0  0  0  0  0  0  0  0
  142.4617   76.9125  220.6030 H   0  0  0  0  0  0  0  0  0  0  0  0
  139.7960   76.7290  219.5300 H   0  0  0  0  0  0  0  0  0  0  0  0
  138.2064   75.0330  221.3954 H   0  0  0  0  0  0  0  0  0  0  0  0
  139.1673   74.0532  220.2266 H   0  0  0  0  0  0  0  0  0  0  0  0
  139.9270   73.7990  223.0880 H   0  0  0  0  0  0  0  0  0  0  0  0
  138.1401   69.6111  222.1953 H   0  0  0  0  0  0  0  0  0  0  0  0
  138.6190   68.0549  224.0857 H   0  0  0  0  0  0  0  0  0  0  0  0
  139.6206   67.6499  226.3091 H   0  0  0  0  0  0  0  0  0  0  0  0
  141.6327   70.8750  228.3180 H   0  0  0  0  0  0  0  0  0  0  0  0
  141.1223   72.3992  226.3887 H   0  0  0  0  0  0  0  0  0  0  0  0
  143.2284   78.8627  222.1439 H   0  0  0  0  0  0  0  0  0  0  0  0
  142.6580   80.2841  224.0593 H   0  0  0  0  0  0  0  0  0  0  0  0
  140.2698   80.6453  224.6882 H   0  0  0  0  0  0  0  0  0  0  0  0
  138.4993   79.5379  223.3371 H   0  0  0  0  0  0  0  0  0  0  0  0
  139.0845   78.1137  221.4223 H   0  0  0  0  0  0  0  0  0  0  0  0
  1  2  1  0
  2  3  1  0
  3  4  1  0
  4  5  1  0
  5  6  1  0
  6  7  2  0
  6  8  1  0
  8  9  1  0
  9 10  1  0
 10 11  2  0
 10 12  1  0
 12 13  2  0
 13 14  1  0
 14 15  2  0
 15 16  1  0
 16 17  2  0
 17 18  1  0
 17 19  1  0
 19 20  2  0
 20 21  1  0
 21 22  2  0
  4 23  1  0
 23 24  2  0
 24 25  1  0
 25 26  2  0
 26 27  1  0
 27 28  2  0
 22 12  1  0
 28 23  1  0
 21 15  1  0
  1 29  1  0
  1 30  1  0
  1 31  1  0
  2 32  1  0
  2 33  1  0
  3 34  1  0
  3 35  1  0
  4 36  1  1
  5 37  1  0
  8 38  1  0
  8 39  1  0
  9 40  1  0
 13 41  1  0
 14 42  1  0
 16 43  1  0
 19 44  1  0
 20 45  1  0
 24 46  1  0
 25 47  1  0
 26 48  1  0
 27 49  1  0
 28 50  1  0
M  END
>  <smiles>  (27) 
CCC[C@H](NC(=O)CNC(=O)c1ccc2cc(Cl)ccc2n1)c1ccccc1

>  <score_type>  (27) 
oracle

>  <origin>  (27) 
autodockgpu

>  <m_score__min__energy>  (27) 
-9.0399999999999991

>  <m_primary>  (27) 
energy

>  <rmsd>  (27) 
1.9460514641860167

>  <m_score__min__rmsd>  (27) 
1.9460514641860167

>  <meeko>  (27) 
{"free_energy": -8.06, "intermolecular_energy": -10.15, "internal_energy": -2.12, "cluster_size": 19, "cluster_id": 1, "rank_in_cluster": 16}

>  <energy>  (27) 
-8.53

>  <cluster_rmsd>  (27) 
0.0

>  <cluster>  (27) 
3

$$$$

     RDKit          3D

 50 52  0  0  0  0  0  0  0  0999 V2000
  141.1450   67.8570  228.2230 C   0  0  0  0  0  0  0  0  0  0  0  0
  141.0880   67.8820  226.7020 C   0  0  0  0  0  0  0  0  0  0  0  0
  139.6900   67.8140  226.1960 C   0  0  0  0  0  0  0  0  0  0  0  0
  139.1780   69.1460  225.7880 C   0  0  2  0  0  0  0  0  0  0  0  0
  139.2870   69.4470  224.3800 N   0  0  0  0  0  0  0  0  0  0  0  0
  138.5760   70.5170  223.8070 C   0  0  0  0  0  0  0  0  0  0  0  0
  137.8440   71.2030  224.5860 O   0  0  0  0  0  0  0  0  0  0  0  0
  138.6020   70.9160  222.3920 C   0  0  0  0  0  0  0  0  0  0  0  0
  139.1100   72.2450  222.2600 N   0  0  0  0  0  0  0  0  0  0  0  0
  140.1330   72.5620  221.3280 C   0  0  0  0  0  0  0  0  0  0  0  0
  140.6610   71.7220  220.5530 O   0  0  0  0  0  0  0  0  0  0  0  0
  140.5890   73.9590  221.2820 C   0  0  0  0  0  0  0  0  0  0  0  0
  141.6980   74.3030  220.5040 C   0  0  0  0  0  0  0  0  0  0  0  0
  142.0990   75.6380  220.4880 C   0  0  0  0  0  0  0  0  0  0  0  0
  141.4300   76.6040  221.2120 C   0  0  0  0  0  0  0  0  0  0  0  0
  141.7930   77.9320  221.2230 C   0  0  0  0  0  0  0  0  0  0  0  0
  141.0810   78.8570  221.9720 C   0  0  0  0  0  0  0  0  0  0  0  0
  141.5150   80.5510  222.0080 Cl  0  0  0  0  0  0  0  0  0  0  0  0
  139.9920   78.4530  222.7210 C   0  0  0  0  0  0  0  0  0  0  0  0
  139.6020   77.1140  222.7290 C   0  0  0  0  0  0  0  0  0  0  0  0
  140.3390   76.2270  221.9700 C   0  0  0  0  0  0  0  0  0  0  0  0
  139.9900   74.9350  221.9550 N   0  0  0  0  0  0  0  0  0  0  0  0
  139.9310   70.2060  226.5010 C   0  0  0  0  0  0  0  0  0  0  0  0
  139.7020   70.5540  227.8150 C   0  0  0  0  0  0  0  0  0  0  0  0
  140.4060   71.5440  228.4700 C   0  0  0  0  0  0  0  0  0  0  0  0
  141.3970   72.2430  227.8070 C   0  0  0  0  0  0  0  0  0  0  0  0
  141.6520   71.9180  226.4910 C   0  0  0  0  0  0  0  0  0  0  0  0
  140.9380   70.9240  225.8510 C   0  0  0  0  0  0  0  0  0  0  0  0
  140.2098   68.2672  228.6318 H   0  0  0  0  0  0  0  0  0  0  0  0
  141.2725   66.8204  228.5682 H   0  0  0  0  0  0  0  0  0  0  0  0
  141.9940   68.4654  228.5682 H   0  0  0  0  0  0  0  0  0  0  0  0
  141.5503   68.8139  226.3444 H   0  0  0  0  0  0  0  0  0  0  0  0
  141.6287   67.0006  226.3269 H   0  0  0  0  0  0  0  0  0  0  0  0
  139.6600   67.1410  225.3264 H   0  0  0  0  0  0  0  0  0  0  0  0
  139.0526   67.4416  227.0115 H   0  0  0  0  0  0  0  0  0  0  0  0
  138.1079   69.1162  226.0409 H   0  0  0  0  0  0  0  0  0  0  0  0
  139.9230   68.8500  223.8150 H   0  0  0  0  0  0  0  0  0  0  0  0
  139.2475   70.2236  221.8317 H   0  0  0  0  0  0  0  0  0  0  0  0
  137.5776   70.8835  221.9925 H   0  0  0  0  0  0  0  0  0  0  0  0
  138.7110   73.0080  222.8750 H   0  0  0  0  0  0  0  0  0  0  0  0
  142.2386   73.5425  219.9213 H   0  0  0  0  0  0  0  0  0  0  0  0
  142.9705   75.9288  219.8832 H   0  0  0  0  0  0  0  0  0  0  0  0
  142.6584   78.2635  220.6304 H   0  0  0  0  0  0  0  0  0  0  0  0
  139.4306   79.1906  223.3132 H   0  0  0  0  0  0  0  0  0  0  0  0
  138.7374   76.7764  223.3194 H   0  0  0  0  0  0  0  0  0  0  0  0
  138.9190   70.0157  228.3692 H   0  0  0  0  0  0  0  0  0  0  0  0
  140.1782   71.7769  229.5206 H   0  0  0  0  0  0  0  0  0  0  0  0
  141.9661   73.0359  228.3144 H   0  0  0  0  0  0  0  0  0  0  0  0
  142.4368   72.4593  225.9423 H   0  0  0  0  0  0  0  0  0  0  0  0
  141.1684   70.6913  224.8009 H   0  0  0  0  0  0  0  0  0  0  0  0
  1  2  1  0
  2  3  1  0
  3  4  1  0
  4  5  1  0
  5  6  1  0
  6  7  2  0
  6  8  1  0
  8  9  1  0
  9 10  1  0
 10 11  2  0
 10 12  1  0
 12 13  2  0
 13 14  1  0
 14 15  2  0
 15 16  1  0
 16 17  2  0
 17 18  1  0
 17 19  1  0
 19 20  2  0
 20 21  1  0
 21 22  2  0
  4 23  1  0
 23 24  2  0
 24 25  1  0
 25 26  2  0
 26 27  1  0
 27 28  2  0
 22 12  1  0
 28 23  1  0
 21 15  1  0
  1 29  1  0
  1 30  1  0
  1 31  1  0
  2 32  1  0
  2 33  1  0
  3 34  1  0
  3 35  1  0
  4 36  1  1
  5 37  1  0
  8 38  1  0
  8 39  1  0
  9 40  1  0
 13 41  1  0
 14 42  1  0
 16 43  1  0
 19 44  1  0
 20 45  1  0
 24 46  1  0
 25 47  1  0
 26 48  1  0
 27 49  1  0
 28 50  1  0
M  END
>  <smiles>  (28) 
CCC[C@H](NC(=O)CNC(=O)c1ccc2cc(Cl)ccc2n1)c1ccccc1

>  <score_type>  (28) 
oracle

>  <origin>  (28) 
autodockgpu

>  <m_score__min__energy>  (28) 
-9.0399999999999991

>  <m_primary>  (28) 
energy

>  <rmsd>  (28) 
8.806185483884367

>  <m_score__min__rmsd>  (28) 
8.806185483884367

>  <meeko>  (28) 
{"free_energy": -8.79, "intermolecular_energy": -10.88, "internal_energy": -1.65, "cluster_size": 7, "cluster_id": 2, "rank_in_cluster": 1}

>  <energy>  (28) 
-8.53

>  <cluster_rmsd>  (28) 
0.07

>  <cluster>  (28) 
3

$$$$

     RDKit          3D

 50 52  0  0  0  0  0  0  0  0999 V2000
  141.3150   67.7840  227.0070 C   0  0  0  0  0  0  0  0  0  0  0  0
  140.3860   67.6030  225.8130 C   0  0  0  0  0  0  0  0  0  0  0  0
  139.0000   68.0560  226.1140 C   0  0  0  0  0  0  0  0  0  0  0  0
  138.7660   69.4580  225.6850 C   0  0  2  0  0  0  0  0  0  0  0  0
  138.9860   69.7220  224.2840 N   0  0  0  0  0  0  0  0  0  0  0  0
  137.9150   70.0310  223.4230 C   0  0  0  0  0  0  0  0  0  0  0  0
  136.7560   70.0700  223.9410 O   0  0  0  0  0  0  0  0  0  0  0  0
  138.0130   70.3120  221.9840 C   0  0  0  0  0  0  0  0  0  0  0  0
  138.5340   71.6250  221.7690 N   0  0  0  0  0  0  0  0  0  0  0  0
  139.8700   71.9620  222.1160 C   0  0  0  0  0  0  0  0  0  0  0  0
  140.6890   71.1500  222.6230 O   0  0  0  0  0  0  0  0  0  0  0  0
  140.3000   73.3440  221.8620 C   0  0  0  0  0  0  0  0  0  0  0  0
  141.4720   73.5860  221.1400 C   0  0  0  0  0  0  0  0  0  0  0  0
  141.8460   74.9100  220.9200 C   0  0  0  0  0  0  0  0  0  0  0  0
  141.0910   75.9640  221.3940 C   0  0  0  0  0  0  0  0  0  0  0  0
  141.4250   77.2860  221.1980 C   0  0  0  0  0  0  0  0  0  0  0  0
  140.6250   78.3010  221.7010 C   0  0  0  0  0  0  0  0  0  0  0  0
  141.0190   79.9900  221.4700 Cl  0  0  0  0  0  0  0  0  0  0  0  0
  139.4770   77.9970  222.4070 C   0  0  0  0  0  0  0  0  0  0  0  0
  139.1150   76.6670  222.6200 C   0  0  0  0  0  0  0  0  0  0  0  0
  139.9390   75.6870  222.1040 C   0  0  0  0  0  0  0  0  0  0  0  0
  139.6190   74.4010  222.2900 N   0  0  0  0  0  0  0  0  0  0  0  0
  139.6770   70.3620  226.4290 C   0  0  0  0  0  0  0  0  0  0  0  0
  139.6790   70.4850  227.8020 C   0  0  0  0  0  0  0  0  0  0  0  0
  140.5280   71.3310  228.4850 C   0  0  0  0  0  0  0  0  0  0  0  0
  141.4360   72.1090  227.7920 C   0  0  0  0  0  0  0  0  0  0  0  0
  141.4600   72.0090  226.4160 C   0  0  0  0  0  0  0  0  0  0  0  0
  140.6030   71.1570  225.7480 C   0  0  0  0  0  0  0  0  0  0  0  0
  140.7408   67.6721  227.9386 H   0  0  0  0  0  0  0  0  0  0  0  0
  142.1092   67.0237  226.9722 H   0  0  0  0  0  0  0  0  0  0  0  0
  141.7657   68.7868  226.9722 H   0  0  0  0  0  0  0  0  0  0  0  0
  140.7757   68.1886  224.9673 H   0  0  0  0  0  0  0  0  0  0  0  0
  140.3488   66.5309  225.5695 H   0  0  0  0  0  0  0  0  0  0  0  0
  138.2903   67.4007  225.5877 H   0  0  0  0  0  0  0  0  0  0  0  0
  138.8560   68.0062  227.2034 H   0  0  0  0  0  0  0  0  0  0  0  0
  137.7002   69.6332  225.8934 H   0  0  0  0  0  0  0  0  0  0  0  0
  139.9670   69.6890  223.9420 H   0  0  0  0  0  0  0  0  0  0  0  0
  138.6817   69.5751  221.5152 H   0  0  0  0  0  0  0  0  0  0  0  0
  137.0095   70.2480  221.5380 H   0  0  0  0  0  0  0  0  0  0  0  0
  137.9060   72.3610  221.3410 H   0  0  0  0  0  0  0  0  0  0  0  0
  142.0818   72.7548  220.7563 H   0  0  0  0  0  0  0  0  0  0  0  0
  142.7657   75.1207  220.3546 H   0  0  0  0  0  0  0  0  0  0  0  0
  142.3363   77.5393  220.6364 H   0  0  0  0  0  0  0  0  0  0  0  0
  138.8462   78.8068  222.8025 H   0  0  0  0  0  0  0  0  0  0  0  0
  138.2043   76.4079  223.1799 H   0  0  0  0  0  0  0  0  0  0  0  0
  138.9681   69.8782  228.3820 H   0  0  0  0  0  0  0  0  0  0  0  0
  140.4822   71.3864  229.5826 H   0  0  0  0  0  0  0  0  0  0  0  0
  142.1198   72.7883  228.3220 H   0  0  0  0  0  0  0  0  0  0  0  0
  142.1736   72.6181  225.8417 H   0  0  0  0  0  0  0  0  0  0  0  0
  140.6504   71.1025  224.6504 H   0  0  0  0  0  0  0  0  0  0  0  0
  1  2  1  0
  2  3  1  0
  3  4  1  0
  4  5  1  0
  5  6  1  0
  6  7  2  0
  6  8  1  0
  8  9  1  0
  9 10  1  0
 10 11  2  0
 10 12  1  0
 12 13  2  0
 13 14  1  0
 14 15  2  0
 15 16  1  0
 16 17  2  0
 17 18  1  0
 17 19  1  0
 19 20  2  0
 20 21  1  0
 21 22  2  0
  4 23  1  0
 23 24  2  0
 24 25  1  0
 25 26  2  0
 26 27  1  0
 27 28  2  0
 22 12  1  0
 28 23  1  0
 21 15  1  0
  1 29  1  0
  1 30  1  0
  1 31  1  0
  2 32  1  0
  2 33  1  0
  3 34  1  0
  3 35  1  0
  4 36  1  1
  5 37  1  0
  8 38  1  0
  8 39  1  0
  9 40  1  0
 13 41  1  0
 14 42  1  0
 16 43  1  0
 19 44  1  0
 20 45  1  0
 24 46  1  0
 25 47  1  0
 26 48  1  0
 27 49  1  0
 28 50  1  0
M  END
>  <smiles>  (29) 
CCC[C@H](NC(=O)CNC(=O)c1ccc2cc(Cl)ccc2n1)c1ccccc1

>  <score_type>  (29) 
oracle

>  <origin>  (29) 
autodockgpu

>  <m_score__min__energy>  (29) 
-9.0399999999999991

>  <m_primary>  (29) 
energy

>  <rmsd>  (29) 
8.4825191832319

>  <m_score__min__rmsd>  (29) 
8.4825191832319

>  <meeko>  (29) 
{"free_energy": -7.69, "intermolecular_energy": -9.78, "internal_energy": -2.36, "cluster_size": 7, "cluster_id": 2, "rank_in_cluster": 7}

>  <energy>  (29) 
-8.44

>  <cluster_rmsd>  (29) 
0.22

>  <cluster>  (29) 
3

$$$$

     RDKit          3D

 50 52  0  0  0  0  0  0  0  0999 V2000
  139.4720   73.6960  221.9360 C   0  0  0  0  0  0  0  0  0  0  0  0
  139.3710   72.2190  222.2930 C   0  0  0  0  0  0  0  0  0  0  0  0
  140.2450   71.8640  223.4440 C   0  0  0  0  0  0  0  0  0  0  0  0
  139.6770   70.7600  224.2580 C   0  0  2  0  0  0  0  0  0  0  0  0
  138.2350   70.6900  224.2840 N   0  0  0  0  0  0  0  0  0  0  0  0
  137.5690   69.4570  224.4160 C   0  0  0  0  0  0  0  0  0  0  0  0
  138.2950   68.4200  224.5170 O   0  0  0  0  0  0  0  0  0  0  0  0
  136.1130   69.2580  224.4510 C   0  0  0  0  0  0  0  0  0  0  0  0
  135.4650   70.4230  224.9640 N   0  0  0  0  0  0  0  0  0  0  0  0
  134.4210   70.3330  225.9240 C   0  0  0  0  0  0  0  0  0  0  0  0
  133.9960   69.2470  226.3970 O   0  0  0  0  0  0  0  0  0  0  0  0
  133.8160   71.5940  226.3770 C   0  0  0  0  0  0  0  0  0  0  0  0
  132.6700   71.5670  227.1760 C   0  0  0  0  0  0  0  0  0  0  0  0
  132.1270   72.7840  227.5850 C   0  0  0  0  0  0  0  0  0  0  0  0
  132.6930   73.9890  227.2190 C   0  0  0  0  0  0  0  0  0  0  0  0
  132.1880   75.2120  227.6010 C   0  0  0  0  0  0  0  0  0  0  0  0
  132.8020   76.3890  227.2010 C   0  0  0  0  0  0  0  0  0  0  0  0
  132.1870   77.9590  227.6690 Cl  0  0  0  0  0  0  0  0  0  0  0  0
  133.9340   76.3490  226.4110 C   0  0  0  0  0  0  0  0  0  0  0  0
  134.4670   75.1240  226.0090 C   0  0  0  0  0  0  0  0  0  0  0  0
  133.8250   73.9770  226.4280 C   0  0  0  0  0  0  0  0  0  0  0  0
  134.3110   72.7850  226.0600 N   0  0  0  0  0  0  0  0  0  0  0  0
  140.1130   70.9100  225.6680 C   0  0  0  0  0  0  0  0  0  0  0  0
  139.6760   70.0980  226.6940 C   0  0  0  0  0  0  0  0  0  0  0  0
  140.0840   70.2470  228.0030 C   0  0  0  0  0  0  0  0  0  0  0  0
  140.9750   71.2480  228.3410 C   0  0  0  0  0  0  0  0  0  0  0  0
  141.4320   72.0770  227.3380 C   0  0  0  0  0  0  0  0  0  0  0  0
  141.0130   71.9140  226.0330 C   0  0  0  0  0  0  0  0  0  0  0  0
  139.5129   74.2942  222.8582 H   0  0  0  0  0  0  0  0  0  0  0  0
  140.3841   73.8691  221.3460 H   0  0  0  0  0  0  0  0  0  0  0  0
  138.5920   73.9916  221.3460 H   0  0  0  0  0  0  0  0  0  0  0  0
  138.3279   71.9870  222.5540 H   0  0  0  0  0  0  0  0  0  0  0  0
  139.7018   71.6348  221.4216 H   0  0  0  0  0  0  0  0  0  0  0  0
  141.2275   71.5522  223.0601 H   0  0  0  0  0  0  0  0  0  0  0  0
  140.3312   72.7505  224.0895 H   0  0  0  0  0  0  0  0  0  0  0  0
  140.0476   69.8440  223.7746 H   0  0  0  0  0  0  0  0  0  0  0  0
  137.7140   71.5860  224.2170 H   0  0  0  0  0  0  0  0  0  0  0  0
  135.7494   69.0597  223.4320 H   0  0  0  0  0  0  0  0  0  0  0  0
  135.8845   68.4042  225.1058 H   0  0  0  0  0  0  0  0  0  0  0  0
  135.7720   71.3740  224.6170 H   0  0  0  0  0  0  0  0  0  0  0  0
  132.2097   70.6133  227.4736 H   0  0  0  0  0  0  0  0  0  0  0  0
  131.2253   72.7843  228.2150 H   0  0  0  0  0  0  0  0  0  0  0  0
  131.2871   75.2555  228.2307 H   0  0  0  0  0  0  0  0  0  0  0  0
  134.4171   77.2862  226.0976 H   0  0  0  0  0  0  0  0  0  0  0  0
  135.3679   75.0744  225.3798 H   0  0  0  0  0  0  0  0  0  0  0  0
  138.9668   69.2915  226.4563 H   0  0  0  0  0  0  0  0  0  0  0  0
  139.6998   69.5684  228.7789 H   0  0  0  0  0  0  0  0  0  0  0  0
  141.3101   71.3798  229.3804 H   0  0  0  0  0  0  0  0  0  0  0  0
  142.1419   72.8811  227.5820 H   0  0  0  0  0  0  0  0  0  0  0  0
  141.3986   72.5937  225.2588 H   0  0  0  0  0  0  0  0  0  0  0  0
  1  2  1  0
  2  3  1  0
  3  4  1  0
  4  5  1  0
  5  6  1  0
  6  7  2  0
  6  8  1  0
  8  9  1  0
  9 10  1  0
 10 11  2  0
 10 12  1  0
 12 13  2  0
 13 14  1  0
 14 15  2  0
 15 16  1  0
 16 17  2  0
 17 18  1  0
 17 19  1  0
 19 20  2  0
 20 21  1  0
 21 22  2  0
  4 23  1  0
 23 24  2  0
 24 25  1  0
 25 26  2  0
 26 27  1  0
 27 28  2  0
 22 12  1  0
 28 23  1  0
 21 15  1  0
  1 29  1  0
  1 30  1  0
  1 31  1  0
  2 32  1  0
  2 33  1  0
  3 34  1  0
  3 35  1  0
  4 36  1  6
  5 37  1  0
  8 38  1  0
  8 39  1  0
  9 40  1  0
 13 41  1  0
 14 42  1  0
 16 43  1  0
 19 44  1  0
 20 45  1  0
 24 46  1  0
 25 47  1  0
 26 48  1  0
 27 49  1  0
 28 50  1  0
M  END
>  <smiles>  (30) 
CCC[C@H](NC(=O)CNC(=O)c1ccc2cc(Cl)ccc2n1)c1ccccc1

>  <score_type>  (30) 
oracle

>  <origin>  (30) 
autodockgpu

>  <m_score__min__energy>  (30) 
-9.0399999999999991

>  <m_primary>  (30) 
energy

>  <rmsd>  (30) 
7.487007961978643

>  <m_score__min__rmsd>  (30) 
7.487007961978643

>  <meeko>  (30) 
{"free_energy": -8.53, "intermolecular_energy": -10.62, "internal_energy": -1.58, "cluster_size": 16, "cluster_id": 3, "rank_in_cluster": 1}

>  <energy>  (30) 
-8.38

>  <cluster_rmsd>  (30) 
1.27

>  <cluster>  (30) 
3

$$$$

     RDKit          3D

 50 52  0  0  0  0  0  0  0  0999 V2000
  138.0850   79.6940  223.4540 C   0  0  0  0  0  0  0  0  0  0  0  0
  137.9550   78.5090  222.5070 C   0  0  0  0  0  0  0  0  0  0  0  0
  139.0690   77.5360  222.6770 C   0  0  0  0  0  0  0  0  0  0  0  0
  140.1970   77.8110  221.7510 C   0  0  2  0  0  0  0  0  0  0  0  0
  141.0650   76.6900  221.4830 N   0  0  0  0  0  0  0  0  0  0  0  0
  140.5990   75.5570  220.7910 C   0  0  0  0  0  0  0  0  0  0  0  0
  139.3870   75.5750  220.4110 O   0  0  0  0  0  0  0  0  0  0  0  0
  141.3830   74.3570  220.4650 C   0  0  0  0  0  0  0  0  0  0  0  0
  141.2660   73.3880  221.5080 N   0  0  0  0  0  0  0  0  0  0  0  0
  140.0090   72.8400  221.8780 C   0  0  0  0  0  0  0  0  0  0  0  0
  138.9200   73.1490  221.3260 O   0  0  0  0  0  0  0  0  0  0  0  0
  140.0010   71.8580  222.9720 C   0  0  0  0  0  0  0  0  0  0  0  0
  139.4730   70.5830  222.7570 C   0  0  0  0  0  0  0  0  0  0  0  0
  139.4840   69.6810  223.8200 C   0  0  0  0  0  0  0  0  0  0  0  0
  139.9990   70.0220  225.0540 C   0  0  0  0  0  0  0  0  0  0  0  0
  140.0290   69.1620  226.1290 C   0  0  0  0  0  0  0  0  0  0  0  0
  140.5600   69.5640  227.3450 C   0  0  0  0  0  0  0  0  0  0  0  0
  140.6140   68.4960  228.7300 Cl  0  0  0  0  0  0  0  0  0  0  0  0
  141.0690   70.8400  227.4940 C   0  0  0  0  0  0  0  0  0  0  0  0
  141.0500   71.7320  226.4220 C   0  0  0  0  0  0  0  0  0  0  0  0
  140.5130   71.2920  225.2300 C   0  0  0  0  0  0  0  0  0  0  0  0
  140.4810   72.1240  224.1820 N   0  0  0  0  0  0  0  0  0  0  0  0
  141.0560   78.8780  222.3200 C   0  0  0  0  0  0  0  0  0  0  0  0
  141.4890   79.9740  221.6050 C   0  0  0  0  0  0  0  0  0  0  0  0
  142.2910   80.9600  222.1410 C   0  0  0  0  0  0  0  0  0  0  0  0
  142.7000   80.8790  223.4590 C   0  0  0  0  0  0  0  0  0  0  0  0
  142.2840   79.7940  224.2030 C   0  0  0  0  0  0  0  0  0  0  0  0
  141.4810   78.8170  223.6500 C   0  0  0  0  0  0  0  0  0  0  0  0
  138.0460   79.3382  224.4941 H   0  0  0  0  0  0  0  0  0  0  0  0
  139.0443   80.2021  223.2760 H   0  0  0  0  0  0  0  0  0  0  0  0
  137.2587   80.3980  223.2760 H   0  0  0  0  0  0  0  0  0  0  0  0
  137.0023   77.9970  222.7072 H   0  0  0  0  0  0  0  0  0  0  0  0
  137.9915   78.8915  221.4763 H   0  0  0  0  0  0  0  0  0  0  0  0
  139.4371   77.5955  223.7119 H   0  0  0  0  0  0  0  0  0  0  0  0
  138.6802   76.5326  222.4487 H   0  0  0  0  0  0  0  0  0  0  0  0
  139.7116   78.0908  220.8044 H   0  0  0  0  0  0  0  0  0  0  0  0
  142.0490   76.7620  221.8100 H   0  0  0  0  0  0  0  0  0  0  0  0
  141.0100   73.9246  219.5248 H   0  0  0  0  0  0  0  0  0  0  0  0
  142.4406   74.6398  220.3572 H   0  0  0  0  0  0  0  0  0  0  0  0
  142.1400   73.0760  222.0160 H   0  0  0  0  0  0  0  0  0  0  0  0
  139.0606   70.2988  221.7776 H   0  0  0  0  0  0  0  0  0  0  0  0
  139.0717   68.6721  223.6713 H   0  0  0  0  0  0  0  0  0  0  0  0
  139.6269   68.1438  226.0217 H   0  0  0  0  0  0  0  0  0  0  0  0
  141.4903   71.1531  228.4607 H   0  0  0  0  0  0  0  0  0  0  0  0
  141.4497   72.7518  226.5236 H   0  0  0  0  0  0  0  0  0  0  0  0
  141.1793   80.0671  220.5536 H   0  0  0  0  0  0  0  0  0  0  0  0
  142.6053   81.8113  221.5193 H   0  0  0  0  0  0  0  0  0  0  0  0
  143.3388   81.6573  223.9020 H   0  0  0  0  0  0  0  0  0  0  0  0
  142.5973   79.7062  225.2538 H   0  0  0  0  0  0  0  0  0  0  0  0
  141.1669   77.9668  224.2733 H   0  0  0  0  0  0  0  0  0  0  0  0
  1  2  1  0
  2  3  1  0
  3  4  1  0
  4  5  1  0
  5  6  1  0
  6  7  2  0
  6  8  1  0
  8  9  1  0
  9 10  1  0
 10 11  2  0
 10 12  1  0
 12 13  2  0
 13 14  1  0
 14 15  2  0
 15 16  1  0
 16 17  2  0
 17 18  1  0
 17 19  1  0
 19 20  2  0
 20 21  1  0
 21 22  2  0
  4 23  1  0
 23 24  2  0
 24 25  1  0
 25 26  2  0
 26 27  1  0
 27 28  2  0
 22 12  1  0
 28 23  1  0
 21 15  1  0
  1 29  1  0
  1 30  1  0
  1 31  1  0
  2 32  1  0
  2 33  1  0
  3 34  1  0
  3 35  1  0
  4 36  1  6
  5 37  1  0
  8 38  1  0
  8 39  1  0
  9 40  1  0
 13 41  1  0
 14 42  1  0
 16 43  1  0
 19 44  1  0
 20 45  1  0
 24 46  1  0
 25 47  1  0
 26 48  1  0
 27 49  1  0
 28 50  1  0
M  END
>  <smiles>  (31) 
CCC[C@H](NC(=O)CNC(=O)c1ccc2cc(Cl)ccc2n1)c1ccccc1

>  <score_type>  (31) 
oracle

>  <origin>  (31) 
autodockgpu

>  <m_score__min__energy>  (31) 
-9.0399999999999991

>  <m_primary>  (31) 
energy

>  <rmsd>  (31) 
3.530989938054126

>  <m_score__min__rmsd>  (31) 
3.530989938054126

>  <meeko>  (31) 
{"free_energy": -8.4, "intermolecular_energy": -10.48, "internal_energy": -1.33, "cluster_size": 19, "cluster_id": 1, "rank_in_cluster": 10}

>  <energy>  (31) 
-8.38

>  <cluster_rmsd>  (31) 
0.41

>  <cluster>  (31) 
3

$$$$

     RDKit          3D

 50 52  0  0  0  0  0  0  0  0999 V2000
  138.0530   80.6860  224.5910 C   0  0  0  0  0  0  0  0  0  0  0  0
  137.5950   80.2730  223.1980 C   0  0  0  0  0  0  0  0  0  0  0  0
  138.0960   78.9220  222.8260 C   0  0  0  0  0  0  0  0  0  0  0  0
  139.0960   78.9800  221.7290 C   0  0  2  0  0  0  0  0  0  0  0  0
  139.3020   77.7430  221.0140 N   0  0  0  0  0  0  0  0  0  0  0  0
  139.4540   76.5230  221.6990 C   0  0  0  0  0  0  0  0  0  0  0  0
  139.3940   76.5650  222.9670 O   0  0  0  0  0  0  0  0  0  0  0  0
  139.6730   75.2060  221.0840 C   0  0  0  0  0  0  0  0  0  0  0  0
  139.6730   74.1850  222.0830 N   0  0  0  0  0  0  0  0  0  0  0  0
  140.1860   72.8860  221.8210 C   0  0  0  0  0  0  0  0  0  0  0  0
  140.6780   72.5370  220.7160 O   0  0  0  0  0  0  0  0  0  0  0  0
  140.1280   71.9080  222.9170 C   0  0  0  0  0  0  0  0  0  0  0  0
  139.5720   70.6460  222.6930 C   0  0  0  0  0  0  0  0  0  0  0  0
  139.5350   69.7480  223.7580 C   0  0  0  0  0  0  0  0  0  0  0  0
  140.0290   70.0800  225.0030 C   0  0  0  0  0  0  0  0  0  0  0  0
  140.0110   69.2220  226.0810 C   0  0  0  0  0  0  0  0  0  0  0  0
  140.5240   69.6150  227.3090 C   0  0  0  0  0  0  0  0  0  0  0  0
  140.5170   68.5510  228.6970 Cl  0  0  0  0  0  0  0  0  0  0  0  0
  141.0610   70.8780  227.4660 C   0  0  0  0  0  0  0  0  0  0  0  0
  141.0910   71.7670  226.3920 C   0  0  0  0  0  0  0  0  0  0  0  0
  140.5700   71.3370  225.1880 C   0  0  0  0  0  0  0  0  0  0  0  0
  140.5850   72.1660  224.1370 N   0  0  0  0  0  0  0  0  0  0  0  0
  140.4160   79.3670  222.2830 C   0  0  0  0  0  0  0  0  0  0  0  0
  140.8430   79.0270  223.5490 C   0  0  0  0  0  0  0  0  0  0  0  0
  142.0720   79.3940  224.0580 C   0  0  0  0  0  0  0  0  0  0  0  0
  142.9450   80.1400  223.2890 C   0  0  0  0  0  0  0  0  0  0  0  0
  142.5480   80.4970  222.0170 C   0  0  0  0  0  0  0  0  0  0  0  0
  141.3150   80.1200  221.5230 C   0  0  0  0  0  0  0  0  0  0  0  0
  137.4590   80.1503  225.3461 H   0  0  0  0  0  0  0  0  0  0  0  0
  139.1168   80.4359  224.7164 H   0  0  0  0  0  0  0  0  0  0  0  0
  137.9139   81.7699  224.7164 H   0  0  0  0  0  0  0  0  0  0  0  0
  136.4953   80.2634  223.1737 H   0  0  0  0  0  0  0  0  0  0  0  0
  138.0018   80.9974  222.4771 H   0  0  0  0  0  0  0  0  0  0  0  0
  138.5639   78.4617  223.7087 H   0  0  0  0  0  0  0  0  0  0  0  0
  137.2398   78.3282  222.4732 H   0  0  0  0  0  0  0  0  0  0  0  0
  138.6819   79.7110  221.0190 H   0  0  0  0  0  0  0  0  0  0  0  0
  139.3190   77.7920  219.9760 H   0  0  0  0  0  0  0  0  0  0  0  0
  138.8691   75.0054  220.3604 H   0  0  0  0  0  0  0  0  0  0  0  0
  140.6478   75.2073  220.5744 H   0  0  0  0  0  0  0  0  0  0  0  0
  139.2800   74.4060  223.0400 H   0  0  0  0  0  0  0  0  0  0  0  0
  139.1752   70.3694  221.7051 H   0  0  0  0  0  0  0  0  0  0  0  0
  139.1010   68.7493  223.6023 H   0  0  0  0  0  0  0  0  0  0  0  0
  139.5852   68.2142  225.9669 H   0  0  0  0  0  0  0  0  0  0  0  0
  141.4665   71.1836  228.4418 H   0  0  0  0  0  0  0  0  0  0  0  0
  141.5152   72.7761  226.5004 H   0  0  0  0  0  0  0  0  0  0  0  0
  140.1702   78.4333  224.1853 H   0  0  0  0  0  0  0  0  0  0  0  0
  142.3571   79.0925  225.0767 H   0  0  0  0  0  0  0  0  0  0  0  0
  143.9283   80.4405  223.6800 H   0  0  0  0  0  0  0  0  0  0  0  0
  143.2248   81.0917  221.3860 H   0  0  0  0  0  0  0  0  0  0  0  0
  141.0326   80.4206  220.5032 H   0  0  0  0  0  0  0  0  0  0  0  0
  1  2  1  0
  2  3  1  0
  3  4  1  0
  4  5  1  0
  5  6  1  0
  6  7  2  0
  6  8  1  0
  8  9  1  0
  9 10  1  0
 10 11  2  0
 10 12  1  0
 12 13  2  0
 13 14  1  0
 14 15  2  0
 15 16  1  0
 16 17  2  0
 17 18  1  0
 17 19  1  0
 19 20  2  0
 20 21  1  0
 21 22  2  0
  4 23  1  0
 23 24  2  0
 24 25  1  0
 25 26  2  0
 26 27  1  0
 27 28  2  0
 22 12  1  0
 28 23  1  0
 21 15  1  0
  1 29  1  0
  1 30  1  0
  1 31  1  0
  2 32  1  0
  2 33  1  0
  3 34  1  0
  3 35  1  0
  4 36  1  6
  5 37  1  0
  8 38  1  0
  8 39  1  0
  9 40  1  0
 13 41  1  0
 14 42  1  0
 16 43  1  0
 19 44  1  0
 20 45  1  0
 24 46  1  0
 25 47  1  0
 26 48  1  0
 27 49  1  0
 28 50  1  0
M  END
>  <smiles>  (32) 
CCC[C@H](NC(=O)CNC(=O)c1ccc2cc(Cl)ccc2n1)c1ccccc1

>  <score_type>  (32) 
oracle

>  <origin>  (32) 
autodockgpu

>  <m_score__min__energy>  (32) 
-9.0399999999999991

>  <m_primary>  (32) 
energy

>  <rmsd>  (32) 
3.9749828307396413

>  <m_score__min__rmsd>  (32) 
3.9749828307396413

>  <meeko>  (32) 
{"free_energy": -8.31, "intermolecular_energy": -10.4, "internal_energy": -1.84, "cluster_size": 19, "cluster_id": 1, "rank_in_cluster": 12}

>  <energy>  (32) 
-8.17

>  <cluster_rmsd>  (32) 
1.73

>  <cluster>  (32) 
3

$$$$

     RDKit          3D

 50 52  0  0  0  0  0  0  0  0999 V2000
  135.8270   72.4520  223.9110 C   0  0  0  0  0  0  0  0  0  0  0  0
  136.7350   71.5750  223.0590 C   0  0  0  0  0  0  0  0  0  0  0  0
  137.8950   71.0560  223.8350 C   0  0  0  0  0  0  0  0  0  0  0  0
  137.6060   69.7390  224.4570 C   0  0  2  0  0  0  0  0  0  0  0  0
  136.3490   69.6490  225.1600 N   0  0  0  0  0  0  0  0  0  0  0  0
  135.2600   68.9410  224.6180 C   0  0  0  0  0  0  0  0  0  0  0  0
  135.4410   68.3850  223.4910 O   0  0  0  0  0  0  0  0  0  0  0  0
  133.9350   68.7840  225.2340 C   0  0  0  0  0  0  0  0  0  0  0  0
  133.3840   70.0610  225.5600 N   0  0  0  0  0  0  0  0  0  0  0  0
  133.8030   70.7820  226.7100 C   0  0  0  0  0  0  0  0  0  0  0  0
  134.6790   70.3690  227.5150 O   0  0  0  0  0  0  0  0  0  0  0  0
  133.1630   72.0820  226.9560 C   0  0  0  0  0  0  0  0  0  0  0  0
  131.9040   72.1340  227.5610 C   0  0  0  0  0  0  0  0  0  0  0  0
  131.3310   73.3860  227.7770 C   0  0  0  0  0  0  0  0  0  0  0  0
  131.9750   74.5500  227.4110 C   0  0  0  0  0  0  0  0  0  0  0  0
  131.4440   75.8050  227.6070 C   0  0  0  0  0  0  0  0  0  0  0  0
  132.1410   76.9390  227.2160 C   0  0  0  0  0  0  0  0  0  0  0  0
  131.4960   78.5480  227.4500 Cl  0  0  0  0  0  0  0  0  0  0  0  0
  133.3840   76.8220  226.6230 C   0  0  0  0  0  0  0  0  0  0  0  0
  133.9450   75.5630  226.4130 C   0  0  0  0  0  0  0  0  0  0  0  0
  133.2180   74.4600  226.8150 C   0  0  0  0  0  0  0  0  0  0  0  0
  133.7290   73.2380  226.6280 N   0  0  0  0  0  0  0  0  0  0  0  0
  138.6620   69.4180  225.4470 C   0  0  0  0  0  0  0  0  0  0  0  0
  139.5380   70.3510  225.9610 C   0  0  0  0  0  0  0  0  0  0  0  0
  140.5210   70.0420  226.8790 C   0  0  0  0  0  0  0  0  0  0  0  0
  140.6640   68.7440  227.3300 C   0  0  0  0  0  0  0  0  0  0  0  0
  139.8030   67.7850  226.8360 C   0  0  0  0  0  0  0  0  0  0  0  0
  138.8250   68.1120  225.9170 C   0  0  0  0  0  0  0  0  0  0  0  0
  136.0257   72.2601  224.9757 H   0  0  0  0  0  0  0  0  0  0  0  0
  136.0237   73.5107  223.6863 H   0  0  0  0  0  0  0  0  0  0  0  0
  134.7758   72.2187  223.6863 H   0  0  0  0  0  0  0  0  0  0  0  0
  136.1519   70.7232  222.6790 H   0  0  0  0  0  0  0  0  0  0  0  0
  137.1248   72.1891  222.2338 H   0  0  0  0  0  0  0  0  0  0  0  0
  138.7549   70.9474  223.1577 H   0  0  0  0  0  0  0  0  0  0  0  0
  138.1107   71.7719  224.6418 H   0  0  0  0  0  0  0  0  0  0  0  0
  137.5648   69.0389  223.6096 H   0  0  0  0  0  0  0  0  0  0  0  0
  136.2890   70.1150  226.0870 H   0  0  0  0  0  0  0  0  0  0  0  0
  133.2658   68.2697  224.5286 H   0  0  0  0  0  0  0  0  0  0  0  0
  134.0375   68.1932  226.1562 H   0  0  0  0  0  0  0  0  0  0  0  0
  132.6450   70.4760  224.9260 H   0  0  0  0  0  0  0  0  0  0  0  0
  131.3805   71.2133  227.8581 H   0  0  0  0  0  0  0  0  0  0  0  0
  130.3404   73.4477  228.2512 H   0  0  0  0  0  0  0  0  0  0  0  0
  130.4559   75.9098  228.0789 H   0  0  0  0  0  0  0  0  0  0  0  0
  133.9322   77.7248  226.3158 H   0  0  0  0  0  0  0  0  0  0  0  0
  134.9333   75.4521  225.9430 H   0  0  0  0  0  0  0  0  0  0  0  0
  139.4487   71.3937  225.6223 H   0  0  0  0  0  0  0  0  0  0  0  0
  141.1915   70.8302  227.2521 H   0  0  0  0  0  0  0  0  0  0  0  0
  141.4421   68.4822  228.0621 H   0  0  0  0  0  0  0  0  0  0  0  0
  139.8971   66.7442  227.1794 H   0  0  0  0  0  0  0  0  0  0  0  0
  138.1557   67.3224  225.5447 H   0  0  0  0  0  0  0  0  0  0  0  0
  1  2  1  0
  2  3  1  0
  3  4  1  0
  4  5  1  0
  5  6  1  0
  6  7  2  0
  6  8  1  0
  8  9  1  0
  9 10  1  0
 10 11  2  0
 10 12  1  0
 12 13  2  0
 13 14  1  0
 14 15  2  0
 15 16  1  0
 16 17  2  0
 17 18  1  0
 17 19  1  0
 19 20  2  0
 20 21  1  0
 21 22  2  0
  4 23  1  0
 23 24  2  0
 24 25  1  0
 25 26  2  0
 26 27  1  0
 27 28  2  0
 22 12  1  0
 28 23  1  0
 21 15  1  0
  1 29  1  0
  1 30  1  0
  1 31  1  0
  2 32  1  0
  2 33  1  0
  3 34  1  0
  3 35  1  0
  4 36  1  6
  5 37  1  0
  8 38  1  0
  8 39  1  0
  9 40  1  0
 13 41  1  0
 14 42  1  0
 16 43  1  0
 19 44  1  0
 20 45  1  0
 24 46  1  0
 25 47  1  0
 26 48  1  0
 27 49  1  0
 28 50  1  0
M  END
>  <smiles>  (33) 
CCC[C@H](NC(=O)CNC(=O)c1ccc2cc(Cl)ccc2n1)c1ccccc1

>  <score_type>  (33) 
oracle

>  <origin>  (33) 
autodockgpu

>  <m_score__min__energy>  (33) 
-9.0399999999999991

>  <m_primary>  (33) 
energy

>  <rmsd>  (33) 
8.73139257244382

>  <m_score__min__rmsd>  (33) 
8.73139257244382

>  <meeko>  (33) 
{"free_energy": -7.36, "intermolecular_energy": -9.45, "internal_energy": -2.34, "cluster_size": 16, "cluster_id": 3, "rank_in_cluster": 16}

>  <energy>  (33) 
-7.76

>  <cluster_rmsd>  (33) 
1.2

>  <cluster>  (33) 
3

$$$$

     RDKit          3D

 50 52  0  0  0  0  0  0  0  0999 V2000
  139.5620   73.4800  221.9270 C   0  0  0  0  0  0  0  0  0  0  0  0
  139.7780   71.9860  222.1300 C   0  0  0  0  0  0  0  0  0  0  0  0
  140.5350   71.6990  223.3800 C   0  0  0  0  0  0  0  0  0  0  0  0
  139.8280   70.7250  224.2500 C   0  0  2  0  0  0  0  0  0  0  0  0
  138.3870   70.8100  224.2300 N   0  0  0  0  0  0  0  0  0  0  0  0
  137.5950   69.6800  223.9510 C   0  0  0  0  0  0  0  0  0  0  0  0
  138.2080   68.5910  223.7260 O   0  0  0  0  0  0  0  0  0  0  0  0
  136.1270   69.6430  223.8970 C   0  0  0  0  0  0  0  0  0  0  0  0
  135.5790   70.8330  224.4670 N   0  0  0  0  0  0  0  0  0  0  0  0
  135.8410   72.1140  223.9120 C   0  0  0  0  0  0  0  0  0  0  0  0
  136.5550   72.3030  222.8930 O   0  0  0  0  0  0  0  0  0  0  0  0
  135.2360   73.2720  224.5850 C   0  0  0  0  0  0  0  0  0  0  0  0
  135.6750   74.5630  224.2770 C   0  0  0  0  0  0  0  0  0  0  0  0
  135.0760   75.6340  224.9360 C   0  0  0  0  0  0  0  0  0  0  0  0
  134.0760   75.4440  225.8680 C   0  0  0  0  0  0  0  0  0  0  0  0
  133.4580   76.4750  226.5410 C   0  0  0  0  0  0  0  0  0  0  0  0
  132.4590   76.2180  227.4680 C   0  0  0  0  0  0  0  0  0  0  0  0
  131.6540   77.5040  228.3400 Cl  0  0  0  0  0  0  0  0  0  0  0  0
  132.0680   74.9190  227.7280 C   0  0  0  0  0  0  0  0  0  0  0  0
  132.6770   73.8560  227.0610 C   0  0  0  0  0  0  0  0  0  0  0  0
  133.6670   74.1540  226.1480 C   0  0  0  0  0  0  0  0  0  0  0  0
  134.2710   73.1570  225.4900 N   0  0  0  0  0  0  0  0  0  0  0  0
  140.2380   70.9330  225.6600 C   0  0  0  0  0  0  0  0  0  0  0  0
  141.0700   71.9520  226.0720 C   0  0  0  0  0  0  0  0  0  0  0  0
  141.4500   72.1360  227.3850 C   0  0  0  0  0  0  0  0  0  0  0  0
  140.9940   71.2740  228.3640 C   0  0  0  0  0  0  0  0  0  0  0  0
  140.1590   70.2430  227.9860 C   0  0  0  0  0  0  0  0  0  0  0  0
  139.7880   70.0750  226.6670 C   0  0  0  0  0  0  0  0  0  0  0  0
  139.4902   73.9765  222.9060 H   0  0  0  0  0  0  0  0  0  0  0  0
  140.4088   73.8998  221.3642 H   0  0  0  0  0  0  0  0  0  0  0  0
  138.6310   73.6427  221.3642 H   0  0  0  0  0  0  0  0  0  0  0  0
  138.7981   71.4894  222.1858 H   0  0  0  0  0  0  0  0  0  0  0  0
  140.3664   71.6082  221.2808 H   0  0  0  0  0  0  0  0  0  0  0  0
  141.5188   71.2863  223.1121 H   0  0  0  0  0  0  0  0  0  0  0  0
  140.6361   72.6411  223.9387 H   0  0  0  0  0  0  0  0  0  0  0  0
  140.1105   69.7416  223.8462 H   0  0  0  0  0  0  0  0  0  0  0  0
  137.9620   71.7340  224.4440 H   0  0  0  0  0  0  0  0  0  0  0  0
  135.8045   69.5612  222.8485 H   0  0  0  0  0  0  0  0  0  0  0  0
  135.7699   68.7748  224.4703 H   0  0  0  0  0  0  0  0  0  0  0  0
  134.9640   70.7530  225.3240 H   0  0  0  0  0  0  0  0  0  0  0  0
  136.4706   74.7283  223.5355 H   0  0  0  0  0  0  0  0  0  0  0  0
  135.4085   76.6574  224.7078 H   0  0  0  0  0  0  0  0  0  0  0  0
  133.7602   77.5136  226.3409 H   0  0  0  0  0  0  0  0  0  0  0  0
  131.2739   74.7222  228.4633 H   0  0  0  0  0  0  0  0  0  0  0  0
  132.3780   72.8156  227.2565 H   0  0  0  0  0  0  0  0  0  0  0  0
  141.4501   72.6540  225.3152 H   0  0  0  0  0  0  0  0  0  0  0  0
  142.1163   72.9692  227.6529 H   0  0  0  0  0  0  0  0  0  0  0  0
  141.2886   71.4062  229.4155 H   0  0  0  0  0  0  0  0  0  0  0  0
  139.7830   69.5439  228.7475 H   0  0  0  0  0  0  0  0  0  0  0  0
  139.1196   69.2427  226.4013 H   0  0  0  0  0  0  0  0  0  0  0  0
  1  2  1  0
  2  3  1  0
  3  4  1  0
  4  5  1  0
  5  6  1  0
  6  7  2  0
  6  8  1  0
  8  9  1  0
  9 10  1  0
 10 11  2  0
 10 12  1  0
 12 13  2  0
 13 14  1  0
 14 15  2  0
 15 16  1  0
 16 17  2  0
 17 18  1  0
 17 19  1  0
 19 20  2  0
 20 21  1  0
 21 22  2  0
  4 23  1  0
 23 24  2  0
 24 25  1  0
 25 26  2  0
 26 27  1  0
 27 28  2  0
 22 12  1  0
 28 23  1  0
 21 15  1  0
  1 29  1  0
  1 30  1  0
  1 31  1  0
  2 32  1  0
  2 33  1  0
  3 34  1  0
  3 35  1  0
  4 36  1  6
  5 37  1  0
  8 38  1  0
  8 39  1  0
  9 40  1  0
 13 41  1  0
 14 42  1  0
 16 43  1  0
 19 44  1  0
 20 45  1  0
 24 46  1  0
 25 47  1  0
 26 48  1  0
 27 49  1  0
 28 50  1  0
M  END
>  <smiles>  (34) 
CCC[C@H](NC(=O)CNC(=O)c1ccc2cc(Cl)ccc2n1)c1ccccc1

>  <score_type>  (34) 
oracle

>  <origin>  (34) 
autodockgpu

>  <m_score__min__energy>  (34) 
-9.0399999999999991

>  <m_primary>  (34) 
energy

>  <rmsd>  (34) 
7.329257074498554

>  <m_score__min__rmsd>  (34) 
7.329257074498554

>  <meeko>  (34) 
{"free_energy": -7.55, "intermolecular_energy": -9.64, "internal_energy": -2.45, "cluster_size": 16, "cluster_id": 3, "rank_in_cluster": 15}

>  <energy>  (34) 
-7.72

>  <cluster_rmsd>  (34) 
1.19

>  <cluster>  (34) 
3

$$$$

     RDKit          3D

 50 52  0  0  0  0  0  0  0  0999 V2000
  145.9660   73.7490  220.9080 C   0  0  0  0  0  0  0  0  0  0  0  0
  144.4610   73.7380  220.6760 C   0  0  0  0  0  0  0  0  0  0  0  0
  144.0790   74.5180  219.4680 C   0  0  0  0  0  0  0  0  0  0  0  0
  143.0740   75.5670  219.7750 C   0  0  2  0  0  0  0  0  0  0  0  0
  141.7460   75.0850  220.0720 N   0  0  0  0  0  0  0  0  0  0  0  0
  140.9150   75.7570  220.9880 C   0  0  0  0  0  0  0  0  0  0  0  0
  141.3870   76.8040  221.5290 O   0  0  0  0  0  0  0  0  0  0  0  0
  139.5530   75.3610  221.3730 C   0  0  0  0  0  0  0  0  0  0  0  0
  139.5960   74.3020  222.3310 N   0  0  0  0  0  0  0  0  0  0  0  0
  140.0880   73.0130  221.9950 C   0  0  0  0  0  0  0  0  0  0  0  0
  140.5230   72.7040  220.8540 O   0  0  0  0  0  0  0  0  0  0  0  0
  140.0770   71.9940  223.0540 C   0  0  0  0  0  0  0  0  0  0  0  0
  139.5900   70.7130  222.7810 C   0  0  0  0  0  0  0  0  0  0  0  0
  139.5970   69.7750  223.8130 C   0  0  0  0  0  0  0  0  0  0  0  0
  140.0680   70.0870  225.0710 C   0  0  0  0  0  0  0  0  0  0  0  0
  140.0920   69.1900  226.1170 C   0  0  0  0  0  0  0  0  0  0  0  0
  140.5780   69.5640  227.3610 C   0  0  0  0  0  0  0  0  0  0  0  0
  140.6230   68.4510  228.7090 Cl  0  0  0  0  0  0  0  0  0  0  0  0
  141.0470   70.8470  227.5670 C   0  0  0  0  0  0  0  0  0  0  0  0
  141.0340   71.7750  226.5270 C   0  0  0  0  0  0  0  0  0  0  0  0
  140.5410   71.3630  225.3050 C   0  0  0  0  0  0  0  0  0  0  0  0
  140.5160   72.2300  224.2850 N   0  0  0  0  0  0  0  0  0  0  0  0
  142.9370   76.4770  218.6110 C   0  0  0  0  0  0  0  0  0  0  0  0
  143.1810   76.0940  217.3090 C   0  0  0  0  0  0  0  0  0  0  0  0
  143.0540   76.9480  216.2320 C   0  0  0  0  0  0  0  0  0  0  0  0
  142.6650   78.2590  216.4310 C   0  0  0  0  0  0  0  0  0  0  0  0
  142.4130   78.6740  217.7220 C   0  0  0  0  0  0  0  0  0  0  0  0
  142.5440   77.8060  218.7880 C   0  0  0  0  0  0  0  0  0  0  0  0
  146.1704   73.7505  221.9889 H   0  0  0  0  0  0  0  0  0  0  0  0
  146.4139   72.8541  220.4514 H   0  0  0  0  0  0  0  0  0  0  0  0
  146.4008   74.6503  220.4514 H   0  0  0  0  0  0  0  0  0  0  0  0
  144.1289   72.6973  220.5468 H   0  0  0  0  0  0  0  0  0  0  0  0
  143.9787   74.2034  221.5482 H   0  0  0  0  0  0  0  0  0  0  0  0
  144.9790   74.9986  219.0569 H   0  0  0  0  0  0  0  0  0  0  0  0
  143.6315   73.8221  218.7431 H   0  0  0  0  0  0  0  0  0  0  0  0
  143.4603   76.0590  220.6798 H   0  0  0  0  0  0  0  0  0  0  0  0
  141.4280   74.2320  219.5710 H   0  0  0  0  0  0  0  0  0  0  0  0
  139.0340   76.2260  221.8116 H   0  0  0  0  0  0  0  0  0  0  0  0
  139.0157   75.0125  220.4787 H   0  0  0  0  0  0  0  0  0  0  0  0
  139.2510   74.4870  223.3140 H   0  0  0  0  0  0  0  0  0  0  0  0
  139.2122   70.4521  221.7814 H   0  0  0  0  0  0  0  0  0  0  0  0
  139.2174   68.7610  223.6187 H   0  0  0  0  0  0  0  0  0  0  0  0
  139.7215   68.1657  225.9635 H   0  0  0  0  0  0  0  0  0  0  0  0
  141.4322   71.1374  228.5556 H   0  0  0  0  0  0  0  0  0  0  0  0
  141.4038   72.8004  226.6748 H   0  0  0  0  0  0  0  0  0  0  0  0
  143.4924   75.0562  217.1192 H   0  0  0  0  0  0  0  0  0  0  0  0
  143.2625   76.5848  215.2148 H   0  0  0  0  0  0  0  0  0  0  0  0
  142.5593   78.9522  215.5835 H   0  0  0  0  0  0  0  0  0  0  0  0
  142.1026   79.7132  217.9054 H   0  0  0  0  0  0  0  0  0  0  0  0
  142.3332   78.1708  219.8041 H   0  0  0  0  0  0  0  0  0  0  0  0
  1  2  1  0
  2  3  1  0
  3  4  1  0
  4  5  1  0
  5  6  1  0
  6  7  2  0
  6  8  1  0
  8  9  1  0
  9 10  1  0
 10 11  2  0
 10 12  1  0
 12 13  2  0
 13 14  1  0
 14 15  2  0
 15 16  1  0
 16 17  2  0
 17 18  1  0
 17 19  1  0
 19 20  2  0
 20 21  1  0
 21 22  2  0
  4 23  1  0
 23 24  2  0
 24 25  1  0
 25 26  2  0
 26 27  1  0
 27 28  2  0
 22 12  1  0
 28 23  1  0
 21 15  1  0
  1 29  1  0
  1 30  1  0
  1 31  1  0
  2 32  1  0
  2 33  1  0
  3 34  1  0
  3 35  1  0
  4 36  1  1
  5 37  1  0
  8 38  1  0
  8 39  1  0
  9 40  1  0
 13 41  1  0
 14 42  1  0
 16 43  1  0
 19 44  1  0
 20 45  1  0
 24 46  1  0
 25 47  1  0
 26 48  1  0
 27 49  1  0
 28 50  1  0
M  END
>  <smiles>  (35) 
CCC[C@H](NC(=O)CNC(=O)c1ccc2cc(Cl)ccc2n1)c1ccccc1

>  <score_type>  (35) 
oracle

>  <origin>  (35) 
autodockgpu

>  <m_score__min__energy>  (35) 
-9.0399999999999991

>  <m_primary>  (35) 
energy

>  <rmsd>  (35) 
3.397273729020546

>  <m_score__min__rmsd>  (35) 
3.397273729020546

>  <meeko>  (35) 
{"free_energy": -7.73, "intermolecular_energy": -9.82, "internal_energy": -2.15, "cluster_size": 2, "cluster_id": 5, "rank_in_cluster": 2}

>  <energy>  (35) 
-7.68

>  <cluster_rmsd>  (35) 
1.28

>  <cluster>  (35) 
3

$$$$

     RDKit          3D

 50 52  0  0  0  0  0  0  0  0999 V2000
  143.3150   76.3230  219.2290 C   0  0  0  0  0  0  0  0  0  0  0  0
  142.7700   77.6030  218.6080 C   0  0  0  0  0  0  0  0  0  0  0  0
  141.5680   78.1020  219.3290 C   0  0  0  0  0  0  0  0  0  0  0  0
  141.3310   77.3670  220.5970 C   0  0  2  0  0  0  0  0  0  0  0  0
  140.1610   76.5220  220.6140 N   0  0  0  0  0  0  0  0  0  0  0  0
  140.1620   75.2920  221.2980 C   0  0  0  0  0  0  0  0  0  0  0  0
  141.2330   74.9700  221.8990 O   0  0  0  0  0  0  0  0  0  0  0  0
  139.0390   74.3470  221.3820 C   0  0  0  0  0  0  0  0  0  0  0  0
  139.2850   73.3720  222.3970 N   0  0  0  0  0  0  0  0  0  0  0  0
  138.6940   72.0810  222.3490 C   0  0  0  0  0  0  0  0  0  0  0  0
  137.9280   71.6950  221.4270 O   0  0  0  0  0  0  0  0  0  0  0  0
  139.0060   71.1590  223.4510 C   0  0  0  0  0  0  0  0  0  0  0  0
  138.5630   69.8350  223.3960 C   0  0  0  0  0  0  0  0  0  0  0  0
  138.8790   68.9930  224.4600 C   0  0  0  0  0  0  0  0  0  0  0  0
  139.6090   69.4380  225.5430 C   0  0  0  0  0  0  0  0  0  0  0  0
  139.9420   68.6390  226.6140 C   0  0  0  0  0  0  0  0  0  0  0  0
  140.6780   69.1460  227.6750 C   0  0  0  0  0  0  0  0  0  0  0  0
  141.1190   68.1580  229.0500 Cl  0  0  0  0  0  0  0  0  0  0  0  0
  141.0880   70.4650  227.6700 C   0  0  0  0  0  0  0  0  0  0  0  0
  140.7640   71.2960  226.5990 C   0  0  0  0  0  0  0  0  0  0  0  0
  140.0300   70.7530  225.5640 C   0  0  0  0  0  0  0  0  0  0  0  0
  139.7030   71.5250  224.5200 N   0  0  0  0  0  0  0  0  0  0  0  0
  141.1610   78.3370  221.7070 C   0  0  0  0  0  0  0  0  0  0  0  0
  139.9960   78.4740  222.4310 C   0  0  0  0  0  0  0  0  0  0  0  0
  139.8450   79.3820  223.4590 C   0  0  0  0  0  0  0  0  0  0  0  0
  140.8930   80.2110  223.8080 C   0  0  0  0  0  0  0  0  0  0  0  0
  142.0740   80.1000  223.1040 C   0  0  0  0  0  0  0  0  0  0  0  0
  142.2070   79.1860  222.0780 C   0  0  0  0  0  0  0  0  0  0  0  0
  143.2806   76.4039  220.3255 H   0  0  0  0  0  0  0  0  0  0  0  0
  142.7026   75.4686  218.9050 H   0  0  0  0  0  0  0  0  0  0  0  0
  144.3553   76.1723  218.9050 H   0  0  0  0  0  0  0  0  0  0  0  0
  143.5519   78.3760  218.6429 H   0  0  0  0  0  0  0  0  0  0  0  0
  142.4775   77.3809  217.5711 H   0  0  0  0  0  0  0  0  0  0  0  0
  141.7096   79.1684  219.5585 H   0  0  0  0  0  0  0  0  0  0  0  0
  140.6945   77.9457  218.6790 H   0  0  0  0  0  0  0  0  0  0  0  0
  142.2127   76.7183  220.7055 H   0  0  0  0  0  0  0  0  0  0  0  0
  139.3180   76.8670  220.1140 H   0  0  0  0  0  0  0  0  0  0  0  0
  138.1184   74.8983  221.6241 H   0  0  0  0  0  0  0  0  0  0  0  0
  138.9291   73.8356  220.4143 H   0  0  0  0  0  0  0  0  0  0  0  0
  139.9230   73.6230  223.2030 H   0  0  0  0  0  0  0  0  0  0  0  0
  137.9815   69.4681  222.5374 H   0  0  0  0  0  0  0  0  0  0  0  0
  138.5381   67.9474  224.4361 H   0  0  0  0  0  0  0  0  0  0  0  0
  139.6208   67.5870  226.6284 H   0  0  0  0  0  0  0  0  0  0  0  0
  141.6721   70.8608  228.5139 H   0  0  0  0  0  0  0  0  0  0  0  0
  141.0825   72.3487  226.5793 H   0  0  0  0  0  0  0  0  0  0  0  0
  139.1437   77.8268  222.1764 H   0  0  0  0  0  0  0  0  0  0  0  0
  138.8897   79.4456  224.0006 H   0  0  0  0  0  0  0  0  0  0  0  0
  140.7888   80.9400  224.6251 H   0  0  0  0  0  0  0  0  0  0  0  0
  142.9227   80.7496  223.3641 H   0  0  0  0  0  0  0  0  0  0  0  0
  143.1630   79.1243  221.5375 H   0  0  0  0  0  0  0  0  0  0  0  0
  1  2  1  0
  2  3  1  0
  3  4  1  0
  4  5  1  0
  5  6  1  0
  6  7  2  0
  6  8  1  0
  8  9  1  0
  9 10  1  0
 10 11  2  0
 10 12  1  0
 12 13  2  0
 13 14  1  0
 14 15  2  0
 15 16  1  0
 16 17  2  0
 17 18  1  0
 17 19  1  0
 19 20  2  0
 20 21  1  0
 21 22  2  0
  4 23  1  0
 23 24  2  0
 24 25  1  0
 25 26  2  0
 26 27  1  0
 27 28  2  0
 22 12  1  0
 28 23  1  0
 21 15  1  0
  1 29  1  0
  1 30  1  0
  1 31  1  0
  2 32  1  0
  2 33  1  0
  3 34  1  0
  3 35  1  0
  4 36  1  1
  5 37  1  0
  8 38  1  0
  8 39  1  0
  9 40  1  0
 13 41  1  0
 14 42  1  0
 16 43  1  0
 19 44  1  0
 20 45  1  0
 24 46  1  0
 25 47  1  0
 26 48  1  0
 27 49  1  0
 28 50  1  0
M  END
>  <smiles>  (36) 
CCC[C@H](NC(=O)CNC(=O)c1ccc2cc(Cl)ccc2n1)c1ccccc1

>  <score_type>  (36) 
oracle

>  <origin>  (36) 
autodockgpu

>  <m_score__min__energy>  (36) 
-9.0399999999999991

>  <m_primary>  (36) 
energy

>  <rmsd>  (36) 
1.9045184113999023

>  <m_score__min__rmsd>  (36) 
1.9045184113999023

>  <meeko>  (36) 
{"free_energy": -8.16, "intermolecular_energy": -10.25, "internal_energy": -2.05, "cluster_size": 19, "cluster_id": 1, "rank_in_cluster": 15}

>  <energy>  (36) 
-7.67

>  <cluster_rmsd>  (36) 
1.23

>  <cluster>  (36) 
3

$$$$

     RDKit          3D

 50 52  0  0  0  0  0  0  0  0999 V2000
  142.5880   81.2260  224.2150 C   0  0  0  0  0  0  0  0  0  0  0  0
  142.8090   79.9190  223.4650 C   0  0  0  0  0  0  0  0  0  0  0  0
  141.8130   78.8820  223.8490 C   0  0  0  0  0  0  0  0  0  0  0  0
  140.8390   78.6120  222.7610 C   0  0  2  0  0  0  0  0  0  0  0  0
  140.9620   77.3210  222.1280 N   0  0  0  0  0  0  0  0  0  0  0  0
  139.8240   76.5710  221.7750 C   0  0  0  0  0  0  0  0  0  0  0  0
  138.6930   77.0880  222.0340 O   0  0  0  0  0  0  0  0  0  0  0  0
  139.8220   75.2490  221.1330 C   0  0  0  0  0  0  0  0  0  0  0  0
  139.8080   74.2170  222.1210 N   0  0  0  0  0  0  0  0  0  0  0  0
  140.1830   72.8830  221.8100 C   0  0  0  0  0  0  0  0  0  0  0  0
  140.5580   72.5080  220.6670 O   0  0  0  0  0  0  0  0  0  0  0  0
  140.1220   71.8980  222.9000 C   0  0  0  0  0  0  0  0  0  0  0  0
  139.5750   70.6340  222.6640 C   0  0  0  0  0  0  0  0  0  0  0  0
  139.5350   69.7290  223.7230 C   0  0  0  0  0  0  0  0  0  0  0  0
  140.0190   70.0560  224.9730 C   0  0  0  0  0  0  0  0  0  0  0  0
  139.9980   69.1920  226.0450 C   0  0  0  0  0  0  0  0  0  0  0  0
  140.5000   69.5790  227.2790 C   0  0  0  0  0  0  0  0  0  0  0  0
  140.4890   68.5060  228.6610 Cl  0  0  0  0  0  0  0  0  0  0  0  0
  141.0290   70.8440  227.4480 C   0  0  0  0  0  0  0  0  0  0  0  0
  141.0620   71.7400  226.3800 C   0  0  0  0  0  0  0  0  0  0  0  0
  140.5520   71.3150  225.1690 C   0  0  0  0  0  0  0  0  0  0  0  0
  140.5700   72.1500  224.1240 N   0  0  0  0  0  0  0  0  0  0  0  0
  141.0040   79.6210  221.6870 C   0  0  0  0  0  0  0  0  0  0  0  0
  140.4330   80.8760  221.7230 C   0  0  0  0  0  0  0  0  0  0  0  0
  140.5890   81.8070  220.7170 C   0  0  0  0  0  0  0  0  0  0  0  0
  141.3490   81.5030  219.6040 C   0  0  0  0  0  0  0  0  0  0  0  0
  141.9350   80.2560  219.5370 C   0  0  0  0  0  0  0  0  0  0  0  0
  141.7690   79.3360  220.5520 C   0  0  0  0  0  0  0  0  0  0  0  0
  142.6199   81.0371  225.2982 H   0  0  0  0  0  0  0  0  0  0  0  0
  143.3778   81.9422  223.9442 H   0  0  0  0  0  0  0  0  0  0  0  0
  141.6066   81.6427  223.9442 H   0  0  0  0  0  0  0  0  0  0  0  0
  142.7245   80.1103  222.3851 H   0  0  0  0  0  0  0  0  0  0  0  0
  143.8095   79.5426  223.7246 H   0  0  0  0  0  0  0  0  0  0  0  0
  142.3458   77.9496  224.0873 H   0  0  0  0  0  0  0  0  0  0  0  0
  141.2534   79.2559  224.7191 H   0  0  0  0  0  0  0  0  0  0  0  0
  139.8576   78.6492  223.2564 H   0  0  0  0  0  0  0  0  0  0  0  0
  141.9230   76.9770  221.9310 H   0  0  0  0  0  0  0  0  0  0  0  0
  138.9286   75.1555  220.4981 H   0  0  0  0  0  0  0  0  0  0  0  0
  140.7312   75.1469  220.5223 H   0  0  0  0  0  0  0  0  0  0  0  0
  139.5090   74.4580  223.1070 H   0  0  0  0  0  0  0  0  0  0  0  0
  139.1873   70.3613  221.6714 H   0  0  0  0  0  0  0  0  0  0  0  0
  139.1070   68.7292  223.5583 H   0  0  0  0  0  0  0  0  0  0  0  0
  139.5781   68.1828  225.9214 H   0  0  0  0  0  0  0  0  0  0  0  0
  141.4257   71.1455  228.4287 H   0  0  0  0  0  0  0  0  0  0  0  0
  141.4799   72.7506  226.4981 H   0  0  0  0  0  0  0  0  0  0  0  0
  139.8231   81.1480  222.5971 H   0  0  0  0  0  0  0  0  0  0  0  0
  140.1077   82.7925  220.8011 H   0  0  0  0  0  0  0  0  0  0  0  0
  141.4831   82.2349  218.7939 H   0  0  0  0  0  0  0  0  0  0  0  0
  142.5444   79.9908  218.6605 H   0  0  0  0  0  0  0  0  0  0  0  0
  142.2518   78.3514  220.4657 H   0  0  0  0  0  0  0  0  0  0  0  0
  1  2  1  0
  2  3  1  0
  3  4  1  0
  4  5  1  0
  5  6  1  0
  6  7  2  0
  6  8  1  0
  8  9  1  0
  9 10  1  0
 10 11  2  0
 10 12  1  0
 12 13  2  0
 13 14  1  0
 14 15  2  0
 15 16  1  0
 16 17  2  0
 17 18  1  0
 17 19  1  0
 19 20  2  0
 20 21  1  0
 21 22  2  0
  4 23  1  0
 23 24  2  0
 24 25  1  0
 25 26  2  0
 26 27  1  0
 27 28  2  0
 22 12  1  0
 28 23  1  0
 21 15  1  0
  1 29  1  0
  1 30  1  0
  1 31  1  0
  2 32  1  0
  2 33  1  0
  3 34  1  0
  3 35  1  0
  4 36  1  1
  5 37  1  0
  8 38  1  0
  8 39  1  0
  9 40  1  0
 13 41  1  0
 14 42  1  0
 16 43  1  0
 19 44  1  0
 20 45  1  0
 24 46  1  0
 25 47  1  0
 26 48  1  0
 27 49  1  0
 28 50  1  0
M  END
>  <smiles>  (37) 
CCC[C@H](NC(=O)CNC(=O)c1ccc2cc(Cl)ccc2n1)c1ccccc1

>  <score_type>  (37) 
oracle

>  <origin>  (37) 
autodockgpu

>  <m_score__min__energy>  (37) 
-9.0399999999999991

>  <m_primary>  (37) 
energy

>  <rmsd>  (37) 
4.2128089249224905

>  <m_score__min__rmsd>  (37) 
4.2128089249224905

>  <meeko>  (37) 
{"free_energy": -9.04, "intermolecular_energy": -11.13, "internal_energy": -1.27, "cluster_size": 19, "cluster_id": 1, "rank_in_cluster": 1}

>  <energy>  (37) 
-7.65

>  <cluster_rmsd>  (37) 
1.24

>  <cluster>  (37) 
3

$$$$

     RDKit          3D

 50 52  0  0  0  0  0  0  0  0999 V2000
  143.4430   76.3840  219.4090 C   0  0  0  0  0  0  0  0  0  0  0  0
  142.7410   77.5020  218.6490 C   0  0  0  0  0  0  0  0  0  0  0  0
  141.7210   78.1890  219.4870 C   0  0  0  0  0  0  0  0  0  0  0  0
  141.6200   77.5950  220.8440 C   0  0  2  0  0  0  0  0  0  0  0  0
  140.3620   76.9570  221.1480 N   0  0  0  0  0  0  0  0  0  0  0  0
  140.1870   75.5710  220.9740 C   0  0  0  0  0  0  0  0  0  0  0  0
  141.1870   74.9160  220.5450 O   0  0  0  0  0  0  0  0  0  0  0  0
  138.9570   74.8120  221.2430 C   0  0  0  0  0  0  0  0  0  0  0  0
  139.1980   73.8120  222.2350 N   0  0  0  0  0  0  0  0  0  0  0  0
  139.1190   72.4270  221.9310 C   0  0  0  0  0  0  0  0  0  0  0  0
  138.8440   71.9750  220.7890 O   0  0  0  0  0  0  0  0  0  0  0  0
  139.3740   71.4840  223.0300 C   0  0  0  0  0  0  0  0  0  0  0  0
  139.0170   70.1400  222.8890 C   0  0  0  0  0  0  0  0  0  0  0  0
  139.2760   69.2780  223.9530 C   0  0  0  0  0  0  0  0  0  0  0  0
  139.8680   69.7230  225.1180 C   0  0  0  0  0  0  0  0  0  0  0  0
  140.1400   68.9050  226.1920 C   0  0  0  0  0  0  0  0  0  0  0  0
  140.7370   69.4120  227.3360 C   0  0  0  0  0  0  0  0  0  0  0  0
  141.0970   68.4000  228.7170 Cl  0  0  0  0  0  0  0  0  0  0  0  0
  141.0670   70.7510  227.4140 C   0  0  0  0  0  0  0  0  0  0  0  0
  140.8020   71.6020  226.3410 C   0  0  0  0  0  0  0  0  0  0  0  0
  140.2070   71.0580  225.2210 C   0  0  0  0  0  0  0  0  0  0  0  0
  139.9400   71.8480  224.1750 N   0  0  0  0  0  0  0  0  0  0  0  0
  141.8070   78.6560  221.8640 C   0  0  0  0  0  0  0  0  0  0  0  0
  142.2030   79.9420  221.5650 C   0  0  0  0  0  0  0  0  0  0  0  0
  142.3780   80.9220  222.5200 C   0  0  0  0  0  0  0  0  0  0  0  0
  142.1560   80.6360  223.8530 C   0  0  0  0  0  0  0  0  0  0  0  0
  141.7590   79.3570  224.1870 C   0  0  0  0  0  0  0  0  0  0  0  0
  141.5880   78.3890  223.2180 C   0  0  0  0  0  0  0  0  0  0  0  0
  143.3368   76.5531  220.4907 H   0  0  0  0  0  0  0  0  0  0  0  0
  142.9889   75.4182  219.1425 H   0  0  0  0  0  0  0  0  0  0  0  0
  144.5102   76.3734  219.1425 H   0  0  0  0  0  0  0  0  0  0  0  0
  143.4917   78.2390  218.3274 H   0  0  0  0  0  0  0  0  0  0  0  0
  142.2270   77.0556  217.7850 H   0  0  0  0  0  0  0  0  0  0  0  0
  141.9973   79.2493  219.5838 H   0  0  0  0  0  0  0  0  0  0  0  0
  140.7445   78.0741  218.9937 H   0  0  0  0  0  0  0  0  0  0  0  0
  142.4004   76.8200  220.8621 H   0  0  0  0  0  0  0  0  0  0  0  0
  139.5990   77.5600  221.5140 H   0  0  0  0  0  0  0  0  0  0  0  0
  138.1776   75.4998  221.6030 H   0  0  0  0  0  0  0  0  0  0  0  0
  138.6283   74.3227  220.3143 H   0  0  0  0  0  0  0  0  0  0  0  0
  139.4400   74.1160  223.2190 H   0  0  0  0  0  0  0  0  0  0  0  0
  138.5454   69.7734  221.9653 H   0  0  0  0  0  0  0  0  0  0  0  0
  139.0019   68.2166  223.8623 H   0  0  0  0  0  0  0  0  0  0  0  0
  139.8806   67.8372  226.1416 H   0  0  0  0  0  0  0  0  0  0  0  0
  141.5400   71.1473  228.3246 H   0  0  0  0  0  0  0  0  0  0  0  0
  141.0587   72.6707  226.3861 H   0  0  0  0  0  0  0  0  0  0  0  0
  142.3888   80.1998  220.5119 H   0  0  0  0  0  0  0  0  0  0  0  0
  142.6945   81.9318  222.2198 H   0  0  0  0  0  0  0  0  0  0  0  0
  142.2918   81.4060  224.6267 H   0  0  0  0  0  0  0  0  0  0  0  0
  141.5760   79.1051  225.2420 H   0  0  0  0  0  0  0  0  0  0  0  0
  141.2707   77.3799  223.5199 H   0  0  0  0  0  0  0  0  0  0  0  0
  1  2  1  0
  2  3  1  0
  3  4  1  0
  4  5  1  0
  5  6  1  0
  6  7  2  0
  6  8  1  0
  8  9  1  0
  9 10  1  0
 10 11  2  0
 10 12  1  0
 12 13  2  0
 13 14  1  0
 14 15  2  0
 15 16  1  0
 16 17  2  0
 17 18  1  0
 17 19  1  0
 19 20  2  0
 20 21  1  0
 21 22  2  0
  4 23  1  0
 23 24  2  0
 24 25  1  0
 25 26  2  0
 26 27  1  0
 27 28  2  0
 22 12  1  0
 28 23  1  0
 21 15  1  0
  1 29  1  0
  1 30  1  0
  1 31  1  0
  2 32  1  0
  2 33  1  0
  3 34  1  0
  3 35  1  0
  4 36  1  6
  5 37  1  0
  8 38  1  0
  8 39  1  0
  9 40  1  0
 13 41  1  0
 14 42  1  0
 16 43  1  0
 19 44  1  0
 20 45  1  0
 24 46  1  0
 25 47  1  0
 26 48  1  0
 27 49  1  0
 28 50  1  0
M  END
>  <smiles>  (38) 
CCC[C@H](NC(=O)CNC(=O)c1ccc2cc(Cl)ccc2n1)c1ccccc1

>  <score_type>  (38) 
oracle

>  <origin>  (38) 
autodockgpu

>  <m_score__min__energy>  (38) 
-9.0399999999999991

>  <m_primary>  (38) 
energy

>  <rmsd>  (38) 
2.0589344321337903

>  <m_score__min__rmsd>  (38) 
2.0589344321337903

>  <meeko>  (38) 
{"free_energy": -8.44, "intermolecular_energy": -10.53, "internal_energy": -1.5, "cluster_size": 19, "cluster_id": 1, "rank_in_cluster": 9}

>  <energy>  (38) 
-7.64

>  <cluster_rmsd>  (38) 
1.26

>  <cluster>  (38) 
3

$$$$

     RDKit          3D

 50 52  0  0  0  0  0  0  0  0999 V2000
  141.4100   67.6660  226.8210 C   0  0  0  0  0  0  0  0  0  0  0  0
  139.9610   67.3540  226.4700 C   0  0  0  0  0  0  0  0  0  0  0  0
  139.5600   67.9610  225.1710 C   0  0  0  0  0  0  0  0  0  0  0  0
  138.8620   69.2590  225.3540 C   0  0  2  0  0  0  0  0  0  0  0  0
  138.5320   69.9600  224.1360 N   0  0  0  0  0  0  0  0  0  0  0  0
  137.2700   70.5590  223.9590 C   0  0  0  0  0  0  0  0  0  0  0  0
  136.4470   70.4560  224.9210 O   0  0  0  0  0  0  0  0  0  0  0  0
  136.8180   71.2920  222.7680 C   0  0  0  0  0  0  0  0  0  0  0  0
  137.5690   72.4970  222.6120 N   0  0  0  0  0  0  0  0  0  0  0  0
  138.8980   72.4870  222.1120 C   0  0  0  0  0  0  0  0  0  0  0  0
  139.5090   71.4420  221.7660 O   0  0  0  0  0  0  0  0  0  0  0  0
  139.5830   73.7830  222.0020 C   0  0  0  0  0  0  0  0  0  0  0  0
  140.8850   73.8410  221.4980 C   0  0  0  0  0  0  0  0  0  0  0  0
  141.4990   75.0880  221.4090 C   0  0  0  0  0  0  0  0  0  0  0  0
  140.8540   76.2430  221.8030 C   0  0  0  0  0  0  0  0  0  0  0  0
  141.4250   77.4940  221.7320 C   0  0  0  0  0  0  0  0  0  0  0  0
  140.7250   78.6180  222.1450 C   0  0  0  0  0  0  0  0  0  0  0  0
  141.4200   80.2210  222.0680 Cl  0  0  0  0  0  0  0  0  0  0  0  0
  139.4390   78.4950  222.6340 C   0  0  0  0  0  0  0  0  0  0  0  0
  138.8370   77.2400  222.7170 C   0  0  0  0  0  0  0  0  0  0  0  0
  139.5680   76.1480  222.2970 C   0  0  0  0  0  0  0  0  0  0  0  0
  139.0180   74.9290  222.3640 N   0  0  0  0  0  0  0  0  0  0  0  0
  139.7190   70.1750  226.1440 C   0  0  0  0  0  0  0  0  0  0  0  0
  140.6590   71.0150  225.5850 C   0  0  0  0  0  0  0  0  0  0  0  0
  141.4550   71.8630  226.3290 C   0  0  0  0  0  0  0  0  0  0  0  0
  141.3310   71.8980  227.7040 C   0  0  0  0  0  0  0  0  0  0  0  0
  140.4000   71.0700  228.2960 C   0  0  0  0  0  0  0  0  0  0  0  0
  139.6110   70.2290  227.5360 C   0  0  0  0  0  0  0  0  0  0  0  0
  141.5252   67.6908  227.9147 H   0  0  0  0  0  0  0  0  0  0  0  0
  142.0647   66.8882  226.4009 H   0  0  0  0  0  0  0  0  0  0  0  0
  141.6866   68.6443  226.4009 H   0  0  0  0  0  0  0  0  0  0  0  0
  139.8380   66.2628  226.4054 H   0  0  0  0  0  0  0  0  0  0  0  0
  139.3210   67.7800  227.2567 H   0  0  0  0  0  0  0  0  0  0  0  0
  140.4617   68.1256  224.5628 H   0  0  0  0  0  0  0  0  0  0  0  0
  138.8645   67.2690  224.6735 H   0  0  0  0  0  0  0  0  0  0  0  0
  137.9184   68.9948  225.8538 H   0  0  0  0  0  0  0  0  0  0  0  0
  139.2680   70.0160  223.4050 H   0  0  0  0  0  0  0  0  0  0  0  0
  136.9573   70.6600  221.8785 H   0  0  0  0  0  0  0  0  0  0  0  0
  135.7545   71.5465  222.8871 H   0  0  0  0  0  0  0  0  0  0  0  0
  137.1190   73.4170  222.8780 H   0  0  0  0  0  0  0  0  0  0  0  0
  141.4100   72.9280  221.1806 H   0  0  0  0  0  0  0  0  0  0  0  0
  142.5238   75.1541  221.0148 H   0  0  0  0  0  0  0  0  0  0  0  0
  142.4482   77.6033  221.3432 H   0  0  0  0  0  0  0  0  0  0  0  0
  138.8881   79.3899  222.9590 H   0  0  0  0  0  0  0  0  0  0  0  0
  137.8139   77.1246  223.1042 H   0  0  0  0  0  0  0  0  0  0  0  0
  140.7807   71.0091  224.4918 H   0  0  0  0  0  0  0  0  0  0  0  0
  142.1882   72.5109  225.8264 H   0  0  0  0  0  0  0  0  0  0  0  0
  141.9577   72.5681  228.3108 H   0  0  0  0  0  0  0  0  0  0  0  0
  140.2843   71.0797  229.3899 H   0  0  0  0  0  0  0  0  0  0  0  0
  138.8770   69.5836  228.0407 H   0  0  0  0  0  0  0  0  0  0  0  0
  1  2  1  0
  2  3  1  0
  3  4  1  0
  4  5  1  0
  5  6  1  0
  6  7  2  0
  6  8  1  0
  8  9  1  0
  9 10  1  0
 10 11  2  0
 10 12  1  0
 12 13  2  0
 13 14  1  0
 14 15  2  0
 15 16  1  0
 16 17  2  0
 17 18  1  0
 17 19  1  0
 19 20  2  0
 20 21  1  0
 21 22  2  0
  4 23  1  0
 23 24  2  0
 24 25  1  0
 25 26  2  0
 26 27  1  0
 27 28  2  0
 22 12  1  0
 28 23  1  0
 21 15  1  0
  1 29  1  0
  1 30  1  0
  1 31  1  0
  2 32  1  0
  2 33  1  0
  3 34  1  0
  3 35  1  0
  4 36  1  1
  5 37  1  0
  8 38  1  0
  8 39  1  0
  9 40  1  0
 13 41  1  0
 14 42  1  0
 16 43  1  0
 19 44  1  0
 20 45  1  0
 24 46  1  0
 25 47  1  0
 26 48  1  0
 27 49  1  0
 28 50  1  0
M  END
>  <smiles>  (39) 
CCC[C@H](NC(=O)CNC(=O)c1ccc2cc(Cl)ccc2n1)c1ccccc1

>  <score_type>  (39) 
oracle

>  <origin>  (39) 
autodockgpu

>  <m_score__min__energy>  (39) 
-9.0399999999999991

>  <m_primary>  (39) 
energy

>  <rmsd>  (39) 
8.491649961792662

>  <m_score__min__rmsd>  (39) 
8.491649961792662

>  <meeko>  (39) 
{"free_energy": -8.03, "intermolecular_energy": -10.11, "internal_energy": -2.41, "cluster_size": 7, "cluster_id": 2, "rank_in_cluster": 5}

>  <energy>  (39) 
-7.61

>  <cluster_rmsd>  (39) 
1.24

>  <cluster>  (39) 
3

$$$$

     RDKit          3D

 50 52  0  0  0  0  0  0  0  0999 V2000
  142.5810   81.2350  224.2030 C   0  0  0  0  0  0  0  0  0  0  0  0
  142.8000   79.9120  223.4820 C   0  0  0  0  0  0  0  0  0  0  0  0
  141.8270   78.8740  223.9190 C   0  0  0  0  0  0  0  0  0  0  0  0
  140.8380   78.5540  222.8590 C   0  0  2  0  0  0  0  0  0  0  0  0
  140.9770   77.2500  222.2560 N   0  0  0  0  0  0  0  0  0  0  0  0
  139.8590   76.5570  221.7540 C   0  0  0  0  0  0  0  0  0  0  0  0
  138.7330   77.1370  221.8520 O   0  0  0  0  0  0  0  0  0  0  0  0
  139.8730   75.2290  221.1250 C   0  0  0  0  0  0  0  0  0  0  0  0
  139.8560   74.2070  222.1240 N   0  0  0  0  0  0  0  0  0  0  0  0
  140.2270   72.8680  221.8260 C   0  0  0  0  0  0  0  0  0  0  0  0
  140.6000   72.4810  220.6870 O   0  0  0  0  0  0  0  0  0  0  0  0
  140.1620   71.8940  222.9250 C   0  0  0  0  0  0  0  0  0  0  0  0
  139.6030   70.6330  222.7040 C   0  0  0  0  0  0  0  0  0  0  0  0
  139.5600   69.7390  223.7720 C   0  0  0  0  0  0  0  0  0  0  0  0
  140.0520   70.0730  225.0170 C   0  0  0  0  0  0  0  0  0  0  0  0
  140.0290   69.2200  226.0980 C   0  0  0  0  0  0  0  0  0  0  0  0
  140.5400   69.6150  227.3250 C   0  0  0  0  0  0  0  0  0  0  0  0
  140.5270   68.5550  228.7170 Cl  0  0  0  0  0  0  0  0  0  0  0  0
  141.0810   70.8770  227.4800 C   0  0  0  0  0  0  0  0  0  0  0  0
  141.1160   71.7620  226.4030 C   0  0  0  0  0  0  0  0  0  0  0  0
  140.5980   71.3290  225.1990 C   0  0  0  0  0  0  0  0  0  0  0  0
  140.6180   72.1550  224.1450 N   0  0  0  0  0  0  0  0  0  0  0  0
  140.9590   79.5390  221.7560 C   0  0  0  0  0  0  0  0  0  0  0  0
  140.3620   80.7820  221.7730 C   0  0  0  0  0  0  0  0  0  0  0  0
  140.4760   81.6910  220.7410 C   0  0  0  0  0  0  0  0  0  0  0  0
  141.2180   81.3740  219.6190 C   0  0  0  0  0  0  0  0  0  0  0  0
  141.8290   80.1380  219.5710 C   0  0  0  0  0  0  0  0  0  0  0  0
  141.7040   79.2410  220.6130 C   0  0  0  0  0  0  0  0  0  0  0  0
  142.6085   81.0691  225.2901 H   0  0  0  0  0  0  0  0  0  0  0  0
  143.3742   81.9426  223.9199 H   0  0  0  0  0  0  0  0  0  0  0  0
  141.6021   81.6492  223.9199 H   0  0  0  0  0  0  0  0  0  0  0  0
  142.6857   80.0735  222.3999 H   0  0  0  0  0  0  0  0  0  0  0  0
  143.8116   79.5548  223.7249 H   0  0  0  0  0  0  0  0  0  0  0  0
  142.3781   77.9580  224.1782 H   0  0  0  0  0  0  0  0  0  0  0  0
  141.2779   79.2684  224.7867 H   0  0  0  0  0  0  0  0  0  0  0  0
  139.8663   78.5817  223.3738 H   0  0  0  0  0  0  0  0  0  0  0  0
  141.9350   76.8540  222.1960 H   0  0  0  0  0  0  0  0  0  0  0  0
  138.9869   75.1227  220.4819 H   0  0  0  0  0  0  0  0  0  0  0  0
  140.7889   75.1271  220.5243 H   0  0  0  0  0  0  0  0  0  0  0  0
  139.5580   74.4580  223.1070 H   0  0  0  0  0  0  0  0  0  0  0  0
  139.2083   70.3540  221.7159 H   0  0  0  0  0  0  0  0  0  0  0  0
  139.1226   68.7414  223.6186 H   0  0  0  0  0  0  0  0  0  0  0  0
  139.6001   68.2132  225.9867 H   0  0  0  0  0  0  0  0  0  0  0  0
  141.4852   71.1844  228.4558 H   0  0  0  0  0  0  0  0  0  0  0  0
  141.5418   72.7707  226.5092 H   0  0  0  0  0  0  0  0  0  0  0  0
  139.7651   81.0629  222.6532 H   0  0  0  0  0  0  0  0  0  0  0  0
  139.9761   82.6683  220.8114 H   0  0  0  0  0  0  0  0  0  0  0  0
  141.3186   82.0872  218.7876 H   0  0  0  0  0  0  0  0  0  0  0  0
  142.4252   79.8628  218.6885 H   0  0  0  0  0  0  0  0  0  0  0  0
  142.2051   78.2644  220.5409 H   0  0  0  0  0  0  0  0  0  0  0  0
  1  2  1  0
  2  3  1  0
  3  4  1  0
  4  5  1  0
  5  6  1  0
  6  7  2  0
  6  8  1  0
  8  9  1  0
  9 10  1  0
 10 11  2  0
 10 12  1  0
 12 13  2  0
 13 14  1  0
 14 15  2  0
 15 16  1  0
 16 17  2  0
 17 18  1  0
 17 19  1  0
 19 20  2  0
 20 21  1  0
 21 22  2  0
  4 23  1  0
 23 24  2  0
 24 25  1  0
 25 26  2  0
 26 27  1  0
 27 28  2  0
 22 12  1  0
 28 23  1  0
 21 15  1  0
  1 29  1  0
  1 30  1  0
  1 31  1  0
  2 32  1  0
  2 33  1  0
  3 34  1  0
  3 35  1  0
  4 36  1  1
  5 37  1  0
  8 38  1  0
  8 39  1  0
  9 40  1  0
 13 41  1  0
 14 42  1  0
 16 43  1  0
 19 44  1  0
 20 45  1  0
 24 46  1  0
 25 47  1  0
 26 48  1  0
 27 49  1  0
 28 50  1  0
M  END
>  <smiles>  (40) 
CCC[C@H](NC(=O)CNC(=O)c1ccc2cc(Cl)ccc2n1)c1ccccc1

>  <score_type>  (40) 
oracle

>  <origin>  (40) 
autodockgpu

>  <m_score__min__energy>  (40) 
-9.0399999999999991

>  <m_primary>  (40) 
energy

>  <rmsd>  (40) 
4.226788674426504

>  <m_score__min__rmsd>  (40) 
4.226788674426504

>  <meeko>  (40) 
{"free_energy": -8.97, "intermolecular_energy": -11.06, "internal_energy": -1.27, "cluster_size": 19, "cluster_id": 1, "rank_in_cluster": 2}

>  <energy>  (40) 
-7.59

>  <cluster_rmsd>  (40) 
1.27

>  <cluster>  (40) 
3

$$$$

     RDKit          3D

 50 52  0  0  0  0  0  0  0  0999 V2000
  143.1870   76.5080  219.2320 C   0  0  0  0  0  0  0  0  0  0  0  0
  142.5720   77.7430  218.5870 C   0  0  0  0  0  0  0  0  0  0  0  0
  141.3860   78.2320  219.3420 C   0  0  0  0  0  0  0  0  0  0  0  0
  141.1230   77.4200  220.5560 C   0  0  2  0  0  0  0  0  0  0  0  0
  140.0250   76.4890  220.4520 N   0  0  0  0  0  0  0  0  0  0  0  0
  139.9830   75.3220  221.2390 C   0  0  0  0  0  0  0  0  0  0  0  0
  140.9480   75.1370  222.0430 O   0  0  0  0  0  0  0  0  0  0  0  0
  138.9250   74.3020  221.2190 C   0  0  0  0  0  0  0  0  0  0  0  0
  139.1470   73.3360  222.2480 N   0  0  0  0  0  0  0  0  0  0  0  0
  138.6950   71.9950  222.1210 C   0  0  0  0  0  0  0  0  0  0  0  0
  138.0850   71.5540  221.1130 O   0  0  0  0  0  0  0  0  0  0  0  0
  138.9670   71.0870  223.2450 C   0  0  0  0  0  0  0  0  0  0  0  0
  138.4960   69.7730  223.2060 C   0  0  0  0  0  0  0  0  0  0  0  0
  138.7740   68.9430  224.2910 C   0  0  0  0  0  0  0  0  0  0  0  0
  139.4930   69.3930  225.3800 C   0  0  0  0  0  0  0  0  0  0  0  0
  139.7900   68.6070  226.4710 C   0  0  0  0  0  0  0  0  0  0  0  0
  140.5170   69.1170  227.5370 C   0  0  0  0  0  0  0  0  0  0  0  0
  140.9110   68.1450  228.9370 Cl  0  0  0  0  0  0  0  0  0  0  0  0
  140.9560   70.4260  227.5150 C   0  0  0  0  0  0  0  0  0  0  0  0
  140.6690   71.2450  226.4230 C   0  0  0  0  0  0  0  0  0  0  0  0
  139.9430   70.6990  225.3840 C   0  0  0  0  0  0  0  0  0  0  0  0
  139.6520   71.4580  224.3210 N   0  0  0  0  0  0  0  0  0  0  0  0
  140.8020   78.3190  221.6920 C   0  0  0  0  0  0  0  0  0  0  0  0
  139.5160   78.6400  222.0730 C   0  0  0  0  0  0  0  0  0  0  0  0
  139.2260   79.4800  223.1290 C   0  0  0  0  0  0  0  0  0  0  0  0
  140.2500   80.0450  223.8640 C   0  0  0  0  0  0  0  0  0  0  0  0
  141.5490   79.7440  223.5090 C   0  0  0  0  0  0  0  0  0  0  0  0
  141.8210   78.9010  222.4500 C   0  0  0  0  0  0  0  0  0  0  0  0
  143.1393   76.6038  220.3268 H   0  0  0  0  0  0  0  0  0  0  0  0
  142.6290   75.6137  218.9175 H   0  0  0  0  0  0  0  0  0  0  0  0
  144.2369   76.4144  218.9175 H   0  0  0  0  0  0  0  0  0  0  0  0
  143.3278   78.5416  218.5561 H   0  0  0  0  0  0  0  0  0  0  0  0
  142.2419   77.4696  217.5740 H   0  0  0  0  0  0  0  0  0  0  0  0
  141.5633   79.2747  219.6443 H   0  0  0  0  0  0  0  0  0  0  0  0
  140.5085   78.1508  218.6837 H   0  0  0  0  0  0  0  0  0  0  0  0
  142.0436   76.8353  220.6993 H   0  0  0  0  0  0  0  0  0  0  0  0
  139.2640   76.7240  219.7850 H   0  0  0  0  0  0  0  0  0  0  0  0
  137.9508   74.7866  221.3805 H   0  0  0  0  0  0  0  0  0  0  0  0
  138.9365   73.7941  220.2433 H   0  0  0  0  0  0  0  0  0  0  0  0
  139.6580   73.6330  223.1250 H   0  0  0  0  0  0  0  0  0  0  0  0
  137.9219   69.4033  222.3436 H   0  0  0  0  0  0  0  0  0  0  0  0
  138.4117   67.9045  224.2790 H   0  0  0  0  0  0  0  0  0  0  0  0
  139.4467   67.5623  226.4977 H   0  0  0  0  0  0  0  0  0  0  0  0
  141.5342   70.8244  228.3618 H   0  0  0  0  0  0  0  0  0  0  0  0
  141.0097   72.2904  226.3910 H   0  0  0  0  0  0  0  0  0  0  0  0
  138.6794   78.2047  221.5068 H   0  0  0  0  0  0  0  0  0  0  0  0
  138.1791   79.6996  223.3854 H   0  0  0  0  0  0  0  0  0  0  0  0
  140.0359   80.7162  224.7088 H   0  0  0  0  0  0  0  0  0  0  0  0
  142.3812   80.1828  224.0789 H   0  0  0  0  0  0  0  0  0  0  0  0
  142.8686   78.6816  222.1962 H   0  0  0  0  0  0  0  0  0  0  0  0
  1  2  1  0
  2  3  1  0
  3  4  1  0
  4  5  1  0
  5  6  1  0
  6  7  2  0
  6  8  1  0
  8  9  1  0
  9 10  1  0
 10 11  2  0
 10 12  1  0
 12 13  2  0
 13 14  1  0
 14 15  2  0
 15 16  1  0
 16 17  2  0
 17 18  1  0
 17 19  1  0
 19 20  2  0
 20 21  1  0
 21 22  2  0
  4 23  1  0
 23 24  2  0
 24 25  1  0
 25 26  2  0
 26 27  1  0
 27 28  2  0
 22 12  1  0
 28 23  1  0
 21 15  1  0
  1 29  1  0
  1 30  1  0
  1 31  1  0
  2 32  1  0
  2 33  1  0
  3 34  1  0
  3 35  1  0
  4 36  1  1
  5 37  1  0
  8 38  1  0
  8 39  1  0
  9 40  1  0
 13 41  1  0
 14 42  1  0
 16 43  1  0
 19 44  1  0
 20 45  1  0
 24 46  1  0
 25 47  1  0
 26 48  1  0
 27 49  1  0
 28 50  1  0
M  END
>  <smiles>  (41) 
CCC[C@H](NC(=O)CNC(=O)c1ccc2cc(Cl)ccc2n1)c1ccccc1

>  <score_type>  (41) 
oracle

>  <origin>  (41) 
autodockgpu

>  <m_score__min__energy>  (41) 
-9.0399999999999991

>  <m_primary>  (41) 
energy

>  <rmsd>  (41) 
1.8578873364864006

>  <m_score__min__rmsd>  (41) 
1.8578873364864006

>  <meeko>  (41) 
{"free_energy": -7.99, "intermolecular_energy": -10.08, "internal_energy": -2.12, "cluster_size": 19, "cluster_id": 1, "rank_in_cluster": 17}

>  <energy>  (41) 
-7.55

>  <cluster_rmsd>  (41) 
1.27

>  <cluster>  (41) 
3

$$$$

     RDKit          3D

 50 52  0  0  0  0  0  0  0  0999 V2000
  141.1200   67.7330  227.4680 C   0  0  0  0  0  0  0  0  0  0  0  0
  139.9320   67.3430  226.5980 C   0  0  0  0  0  0  0  0  0  0  0  0
  139.8850   68.1300  225.3360 C   0  0  0  0  0  0  0  0  0  0  0  0
  139.1250   69.3960  225.4950 C   0  0  2  0  0  0  0  0  0  0  0  0
  138.7880   70.0740  224.2660 N   0  0  0  0  0  0  0  0  0  0  0  0
  137.4790   70.5310  224.0220 C   0  0  0  0  0  0  0  0  0  0  0  0
  136.6190   70.3240  224.9330 O   0  0  0  0  0  0  0  0  0  0  0  0
  137.0160   71.2270  222.8130 C   0  0  0  0  0  0  0  0  0  0  0  0
  137.7360   72.4480  222.6350 N   0  0  0  0  0  0  0  0  0  0  0  0
  139.0600   72.4630  222.1200 C   0  0  0  0  0  0  0  0  0  0  0  0
  139.6910   71.4280  221.7790 O   0  0  0  0  0  0  0  0  0  0  0  0
  139.7130   73.7740  221.9880 C   0  0  0  0  0  0  0  0  0  0  0  0
  140.9990   73.8580  221.4490 C   0  0  0  0  0  0  0  0  0  0  0  0
  141.5830   75.1190  221.3400 C   0  0  0  0  0  0  0  0  0  0  0  0
  140.9230   76.2600  221.7490 C   0  0  0  0  0  0  0  0  0  0  0  0
  141.4650   77.5230  221.6600 C   0  0  0  0  0  0  0  0  0  0  0  0
  140.7510   78.6330  222.0880 C   0  0  0  0  0  0  0  0  0  0  0  0
  141.4080   80.2510  221.9880 Cl  0  0  0  0  0  0  0  0  0  0  0  0
  139.4820   78.4830  222.6130 C   0  0  0  0  0  0  0  0  0  0  0  0
  138.9100   77.2160  222.7160 C   0  0  0  0  0  0  0  0  0  0  0  0
  139.6530   76.1380  222.2780 C   0  0  0  0  0  0  0  0  0  0  0  0
  139.1330   74.9080  222.3630 N   0  0  0  0  0  0  0  0  0  0  0  0
  139.9240   70.3560  226.2950 C   0  0  0  0  0  0  0  0  0  0  0  0
  140.9030   71.1670  225.7620 C   0  0  0  0  0  0  0  0  0  0  0  0
  141.6450   72.0540  226.5140 C   0  0  0  0  0  0  0  0  0  0  0  0
  141.4230   72.1630  227.8740 C   0  0  0  0  0  0  0  0  0  0  0  0
  140.4490   71.3660  228.4390 C   0  0  0  0  0  0  0  0  0  0  0  0
  139.7160   70.4830  227.6710 C   0  0  0  0  0  0  0  0  0  0  0  0
  140.8432   67.6421  228.5287 H   0  0  0  0  0  0  0  0  0  0  0  0
  141.9675   67.0659  227.2518 H   0  0  0  0  0  0  0  0  0  0  0  0
  141.4072   68.7726  227.2518 H   0  0  0  0  0  0  0  0  0  0  0  0
  140.0101   66.2747  226.3479 H   0  0  0  0  0  0  0  0  0  0  0  0
  139.0123   67.5521  227.1641 H   0  0  0  0  0  0  0  0  0  0  0  0
  140.9137   68.3700  225.0291 H   0  0  0  0  0  0  0  0  0  0  0  0
  139.3735   67.5211  224.5760 H   0  0  0  0  0  0  0  0  0  0  0  0
  138.1845   69.0915  225.9775 H   0  0  0  0  0  0  0  0  0  0  0  0
  139.5540   70.2220  223.5790 H   0  0  0  0  0  0  0  0  0  0  0  0
  137.1775   70.5801  221.9381 H   0  0  0  0  0  0  0  0  0  0  0  0
  135.9456   71.4563  222.9210 H   0  0  0  0  0  0  0  0  0  0  0  0
  137.2680   73.3600  222.8960 H   0  0  0  0  0  0  0  0  0  0  0  0
  141.5351   72.9555  221.1202 H   0  0  0  0  0  0  0  0  0  0  0  0
  142.5948   75.2069  220.9176 H   0  0  0  0  0  0  0  0  0  0  0  0
  142.4753   77.6532  221.2449 H   0  0  0  0  0  0  0  0  0  0  0  0
  138.9209   79.3667  222.9510 H   0  0  0  0  0  0  0  0  0  0  0  0
  137.9009   77.0797  223.1321 H   0  0  0  0  0  0  0  0  0  0  0  0
  141.1027   71.1036  224.6821 H   0  0  0  0  0  0  0  0  0  0  0  0
  142.4139   72.6750  226.0311 H   0  0  0  0  0  0  0  0  0  0  0  0
  142.0062   72.8650  228.4880 H   0  0  0  0  0  0  0  0  0  0  0  0
  140.2530   71.4350  229.5192 H   0  0  0  0  0  0  0  0  0  0  0  0
  138.9475   69.8628  228.1555 H   0  0  0  0  0  0  0  0  0  0  0  0
  1  2  1  0
  2  3  1  0
  3  4  1  0
  4  5  1  0
  5  6  1  0
  6  7  2  0
  6  8  1  0
  8  9  1  0
  9 10  1  0
 10 11  2  0
 10 12  1  0
 12 13  2  0
 13 14  1  0
 14 15  2  0
 15 16  1  0
 16 17  2  0
 17 18  1  0
 17 19  1  0
 19 20  2  0
 20 21  1  0
 21 22  2  0
  4 23  1  0
 23 24  2  0
 24 25  1  0
 25 26  2  0
 26 27  1  0
 27 28  2  0
 22 12  1  0
 28 23  1  0
 21 15  1  0
  1 29  1  0
  1 30  1  0
  1 31  1  0
  2 32  1  0
  2 33  1  0
  3 34  1  0
  3 35  1  0
  4 36  1  1
  5 37  1  0
  8 38  1  0
  8 39  1  0
  9 40  1  0
 13 41  1  0
 14 42  1  0
 16 43  1  0
 19 44  1  0
 20 45  1  0
 24 46  1  0
 25 47  1  0
 26 48  1  0
 27 49  1  0
 28 50  1  0
M  END
>  <smiles>  (42) 
CCC[C@H](NC(=O)CNC(=O)c1ccc2cc(Cl)ccc2n1)c1ccccc1

>  <score_type>  (42) 
oracle

>  <origin>  (42) 
autodockgpu

>  <m_score__min__energy>  (42) 
-9.0399999999999991

>  <m_primary>  (42) 
energy

>  <rmsd>  (42) 
8.531569160364393

>  <m_score__min__rmsd>  (42) 
8.531569160364393

>  <meeko>  (42) 
{"free_energy": -8.04, "intermolecular_energy": -10.13, "internal_energy": -2.41, "cluster_size": 7, "cluster_id": 2, "rank_in_cluster": 3}

>  <energy>  (42) 
-7.36

>  <cluster_rmsd>  (42) 
1.68

>  <cluster>  (42) 
3

$$$$

     RDKit          3D

 50 52  0  0  0  0  0  0  0  0999 V2000
  136.2230   76.9640  223.0550 C   0  0  0  0  0  0  0  0  0  0  0  0
  136.6450   78.2070  222.2840 C   0  0  0  0  0  0  0  0  0  0  0  0
  137.9470   78.7450  222.7640 C   0  0  0  0  0  0  0  0  0  0  0  0
  138.9620   78.8030  221.6820 C   0  0  2  0  0  0  0  0  0  0  0  0
  139.1820   77.5650  220.9730 N   0  0  0  0  0  0  0  0  0  0  0  0
  139.3560   76.3510  221.6650 C   0  0  0  0  0  0  0  0  0  0  0  0
  139.3020   76.4000  222.9330 O   0  0  0  0  0  0  0  0  0  0  0  0
  139.5920   75.0340  221.0570 C   0  0  0  0  0  0  0  0  0  0  0  0
  139.6610   74.0260  222.0670 N   0  0  0  0  0  0  0  0  0  0  0  0
  139.8320   72.6540  221.7390 C   0  0  0  0  0  0  0  0  0  0  0  0
  139.9400   72.2230  220.5620 O   0  0  0  0  0  0  0  0  0  0  0  0
  139.8800   71.7000  222.8560 C   0  0  0  0  0  0  0  0  0  0  0  0
  139.4020   70.3980  222.6790 C   0  0  0  0  0  0  0  0  0  0  0  0
  139.4650   69.5240  223.7630 C   0  0  0  0  0  0  0  0  0  0  0  0
  139.9810   69.9150  224.9810 C   0  0  0  0  0  0  0  0  0  0  0  0
  140.0610   69.0830  226.0750 C   0  0  0  0  0  0  0  0  0  0  0  0
  140.5920   69.5360  227.2740 C   0  0  0  0  0  0  0  0  0  0  0  0
  140.7080   68.5050  228.6820 Cl  0  0  0  0  0  0  0  0  0  0  0  0
  141.0480   70.8350  227.3850 C   0  0  0  0  0  0  0  0  0  0  0  0
  140.9790   71.7000  226.2930 C   0  0  0  0  0  0  0  0  0  0  0  0
  140.4440   71.2090  225.1190 C   0  0  0  0  0  0  0  0  0  0  0  0
  140.3640   72.0140  224.0520 N   0  0  0  0  0  0  0  0  0  0  0  0
  140.2730   79.1970  222.2530 C   0  0  0  0  0  0  0  0  0  0  0  0
  140.6150   79.0150  223.5760 C   0  0  0  0  0  0  0  0  0  0  0  0
  141.8360   79.3870  224.1000 C   0  0  0  0  0  0  0  0  0  0  0  0
  142.7880   79.9750  223.2890 C   0  0  0  0  0  0  0  0  0  0  0  0
  142.4770   80.1710  221.9590 C   0  0  0  0  0  0  0  0  0  0  0  0
  141.2500   79.7910  221.4510 C   0  0  0  0  0  0  0  0  0  0  0  0
  136.2902   77.1620  224.1349 H   0  0  0  0  0  0  0  0  0  0  0  0
  135.1865   76.7047  222.7936 H   0  0  0  0  0  0  0  0  0  0  0  0
  136.8874   76.1272  222.7936 H   0  0  0  0  0  0  0  0  0  0  0  0
  136.7381   77.9496  221.2186 H   0  0  0  0  0  0  0  0  0  0  0  0
  135.8789   78.9807  222.4407 H   0  0  0  0  0  0  0  0  0  0  0  0
  137.7881   79.7605  223.1557 H   0  0  0  0  0  0  0  0  0  0  0  0
  138.3244   78.0694  223.5458 H   0  0  0  0  0  0  0  0  0  0  0  0
  138.5554   79.5306  220.9642 H   0  0  0  0  0  0  0  0  0  0  0  0
  139.1930   77.6070  219.9350 H   0  0  0  0  0  0  0  0  0  0  0  0
  138.7680   74.8002  220.3669 H   0  0  0  0  0  0  0  0  0  0  0  0
  140.5463   75.0584  220.5105 H   0  0  0  0  0  0  0  0  0  0  0  0
  139.5830   74.3130  223.0820 H   0  0  0  0  0  0  0  0  0  0  0  0
  138.9884   70.0730  221.7129 H   0  0  0  0  0  0  0  0  0  0  0  0
  139.0935   68.4955  223.6440 H   0  0  0  0  0  0  0  0  0  0  0  0
  139.6997   68.0469  225.9975 H   0  0  0  0  0  0  0  0  0  0  0  0
  141.4673   71.1888  228.3384 H   0  0  0  0  0  0  0  0  0  0  0  0
  141.3383   72.7372  226.3648 H   0  0  0  0  0  0  0  0  0  0  0  0
  139.8779   78.5501  224.2472 H   0  0  0  0  0  0  0  0  0  0  0  0
  142.0520   79.2153  225.1648 H   0  0  0  0  0  0  0  0  0  0  0  0
  143.7656   80.2781  223.6921 H   0  0  0  0  0  0  0  0  0  0  0  0
  143.2179   80.6372  221.2928 H   0  0  0  0  0  0  0  0  0  0  0  0
  141.0365   79.9609  220.3854 H   0  0  0  0  0  0  0  0  0  0  0  0
  1  2  1  0
  2  3  1  0
  3  4  1  0
  4  5  1  0
  5  6  1  0
  6  7  2  0
  6  8  1  0
  8  9  1  0
  9 10  1  0
 10 11  2  0
 10 12  1  0
 12 13  2  0
 13 14  1  0
 14 15  2  0
 15 16  1  0
 16 17  2  0
 17 18  1  0
 17 19  1  0
 19 20  2  0
 20 21  1  0
 21 22  2  0
  4 23  1  0
 23 24  2  0
 24 25  1  0
 25 26  2  0
 26 27  1  0
 27 28  2  0
 22 12  1  0
 28 23  1  0
 21 15  1  0
  1 29  1  0
  1 30  1  0
  1 31  1  0
  2 32  1  0
  2 33  1  0
  3 34  1  0
  3 35  1  0
  4 36  1  6
  5 37  1  0
  8 38  1  0
  8 39  1  0
  9 40  1  0
 13 41  1  0
 14 42  1  0
 16 43  1  0
 19 44  1  0
 20 45  1  0
 24 46  1  0
 25 47  1  0
 26 48  1  0
 27 49  1  0
 28 50  1  0
M  END
>  <smiles>  (43) 
CCC[C@H](NC(=O)CNC(=O)c1ccc2cc(Cl)ccc2n1)c1ccccc1

>  <score_type>  (43) 
oracle

>  <origin>  (43) 
autodockgpu

>  <m_score__min__energy>  (43) 
-9.0399999999999991

>  <m_primary>  (43) 
energy

>  <rmsd>  (43) 
3.2985362368530065

>  <m_score__min__rmsd>  (43) 
3.2985362368530065

>  <meeko>  (43) 
{"free_energy": -7.9, "intermolecular_energy": -9.99, "internal_energy": -1.97, "cluster_size": 19, "cluster_id": 1, "rank_in_cluster": 19}

>  <energy>  (43) 
-8.29

>  <cluster_rmsd>  (43) 
0.0

>  <cluster>  (43) 
4

$$$$

     RDKit          3D

 50 52  0  0  0  0  0  0  0  0999 V2000
  141.1220   67.6640  227.1770 C   0  0  0  0  0  0  0  0  0  0  0  0
  139.7670   67.3960  226.5360 C   0  0  0  0  0  0  0  0  0  0  0  0
  139.6080   68.1240  225.2470 C   0  0  0  0  0  0  0  0  0  0  0  0
  138.9140   69.4240  225.4220 C   0  0  2  0  0  0  0  0  0  0  0  0
  138.6000   70.1270  224.2010 N   0  0  0  0  0  0  0  0  0  0  0  0
  137.2920   70.5740  223.9340 C   0  0  0  0  0  0  0  0  0  0  0  0
  136.4120   70.3350  224.8180 O   0  0  0  0  0  0  0  0  0  0  0  0
  136.8510   71.2930  222.7300 C   0  0  0  0  0  0  0  0  0  0  0  0
  137.5980   72.5000  222.5700 N   0  0  0  0  0  0  0  0  0  0  0  0
  138.9260   72.4910  222.0650 C   0  0  0  0  0  0  0  0  0  0  0  0
  139.5370   71.4470  221.7170 O   0  0  0  0  0  0  0  0  0  0  0  0
  139.6080   73.7890  221.9500 C   0  0  0  0  0  0  0  0  0  0  0  0
  140.8780   73.8580  221.3720 C   0  0  0  0  0  0  0  0  0  0  0  0
  141.4910   75.1070  221.2820 C   0  0  0  0  0  0  0  0  0  0  0  0
  140.8740   76.2510  221.7460 C   0  0  0  0  0  0  0  0  0  0  0  0
  141.4440   77.5020  221.6760 C   0  0  0  0  0  0  0  0  0  0  0  0
  140.7740   78.6160  222.1610 C   0  0  0  0  0  0  0  0  0  0  0  0
  141.4690   80.2190  222.0870 Cl  0  0  0  0  0  0  0  0  0  0  0  0
  139.5180   78.4820  222.7210 C   0  0  0  0  0  0  0  0  0  0  0  0
  138.9170   77.2260  222.8050 C   0  0  0  0  0  0  0  0  0  0  0  0
  139.6190   76.1440  222.3120 C   0  0  0  0  0  0  0  0  0  0  0  0
  139.0690   74.9260  222.3770 N   0  0  0  0  0  0  0  0  0  0  0  0
  139.7670   70.3370  226.2220 C   0  0  0  0  0  0  0  0  0  0  0  0
  140.7320   71.1560  225.6750 C   0  0  0  0  0  0  0  0  0  0  0  0
  141.5240   72.0000  226.4260 C   0  0  0  0  0  0  0  0  0  0  0  0
  141.3700   72.0530  227.7980 C   0  0  0  0  0  0  0  0  0  0  0  0
  140.4120   71.2470  228.3780 C   0  0  0  0  0  0  0  0  0  0  0  0
  139.6280   70.4090  227.6100 C   0  0  0  0  0  0  0  0  0  0  0  0
  141.0200   67.6438  228.2721 H   0  0  0  0  0  0  0  0  0  0  0  0
  141.8367   66.8898  226.8610 H   0  0  0  0  0  0  0  0  0  0  0  0
  141.4881   68.6520  226.8610 H   0  0  0  0  0  0  0  0  0  0  0  0
  139.6696   66.3164  226.3489 H   0  0  0  0  0  0  0  0  0  0  0  0
  138.9875   67.7512  227.2261 H   0  0  0  0  0  0  0  0  0  0  0  0
  140.6042   68.3086  224.8187 H   0  0  0  0  0  0  0  0  0  0  0  0
  138.9957   67.5004  224.5790 H   0  0  0  0  0  0  0  0  0  0  0  0
  137.9638   69.1633  225.9110 H   0  0  0  0  0  0  0  0  0  0  0  0
  139.3810   70.3010  223.5380 H   0  0  0  0  0  0  0  0  0  0  0  0
  137.0038   70.6525  221.8488 H   0  0  0  0  0  0  0  0  0  0  0  0
  135.7851   71.5439  222.8342 H   0  0  0  0  0  0  0  0  0  0  0  0
  137.1480   73.4190  222.8360 H   0  0  0  0  0  0  0  0  0  0  0  0
  141.3798   72.9531  220.9987 H   0  0  0  0  0  0  0  0  0  0  0  0
  142.4910   75.1825  220.8300 H   0  0  0  0  0  0  0  0  0  0  0  0
  142.4427   77.6199  221.2302 H   0  0  0  0  0  0  0  0  0  0  0  0
  138.9902   79.3688  223.1019 H   0  0  0  0  0  0  0  0  0  0  0  0
  137.9182   77.1018  223.2487 H   0  0  0  0  0  0  0  0  0  0  0  0
  140.8778   71.1354  224.5849 H   0  0  0  0  0  0  0  0  0  0  0  0
  142.2781   72.6307  225.9324 H   0  0  0  0  0  0  0  0  0  0  0  0
  141.9941   72.7196  228.4112 H   0  0  0  0  0  0  0  0  0  0  0  0
  140.2707   71.2724  229.4686 H   0  0  0  0  0  0  0  0  0  0  0  0
  138.8730   69.7806  228.1051 H   0  0  0  0  0  0  0  0  0  0  0  0
  1  2  1  0
  2  3  1  0
  3  4  1  0
  4  5  1  0
  5  6  1  0
  6  7  2  0
  6  8  1  0
  8  9  1  0
  9 10  1  0
 10 11  2  0
 10 12  1  0
 12 13  2  0
 13 14  1  0
 14 15  2  0
 15 16  1  0
 16 17  2  0
 17 18  1  0
 17 19  1  0
 19 20  2  0
 20 21  1  0
 21 22  2  0
  4 23  1  0
 23 24  2  0
 24 25  1  0
 25 26  2  0
 26 27  1  0
 27 28  2  0
 22 12  1  0
 28 23  1  0
 21 15  1  0
  1 29  1  0
  1 30  1  0
  1 31  1  0
  2 32  1  0
  2 33  1  0
  3 34  1  0
  3 35  1  0
  4 36  1  1
  5 37  1  0
  8 38  1  0
  8 39  1  0
  9 40  1  0
 13 41  1  0
 14 42  1  0
 16 43  1  0
 19 44  1  0
 20 45  1  0
 24 46  1  0
 25 47  1  0
 26 48  1  0
 27 49  1  0
 28 50  1  0
M  END
>  <smiles>  (44) 
CCC[C@H](NC(=O)CNC(=O)c1ccc2cc(Cl)ccc2n1)c1ccccc1

>  <score_type>  (44) 
oracle

>  <origin>  (44) 
autodockgpu

>  <m_score__min__energy>  (44) 
-9.0399999999999991

>  <m_primary>  (44) 
energy

>  <rmsd>  (44) 
8.489081850277453

>  <m_score__min__rmsd>  (44) 
8.489081850277453

>  <meeko>  (44) 
{"free_energy": -8.06, "intermolecular_energy": -10.14, "internal_energy": -2.43, "cluster_size": 7, "cluster_id": 2, "rank_in_cluster": 2}

>  <energy>  (44) 
-8.28

>  <cluster_rmsd>  (44) 
0.34

>  <cluster>  (44) 
4

$$$$

     RDKit          3D

 50 52  0  0  0  0  0  0  0  0999 V2000
  138.6530   73.1290  221.9280 C   0  0  0  0  0  0  0  0  0  0  0  0
  139.5800   71.9330  222.1060 C   0  0  0  0  0  0  0  0  0  0  0  0
  140.1710   71.8870  223.4710 C   0  0  0  0  0  0  0  0  0  0  0  0
  139.6270   70.7660  224.2780 C   0  0  2  0  0  0  0  0  0  0  0  0
  138.1870   70.6960  224.3480 N   0  0  0  0  0  0  0  0  0  0  0  0
  137.5190   69.4570  224.3820 C   0  0  0  0  0  0  0  0  0  0  0  0
  138.2430   68.4140  224.3550 O   0  0  0  0  0  0  0  0  0  0  0  0
  136.0640   69.2580  224.4470 C   0  0  0  0  0  0  0  0  0  0  0  0
  135.4270   70.4240  224.9720 N   0  0  0  0  0  0  0  0  0  0  0  0
  134.3100   70.3330  225.8440 C   0  0  0  0  0  0  0  0  0  0  0  0
  133.8040   69.2450  226.2250 O   0  0  0  0  0  0  0  0  0  0  0  0
  133.7240   71.5970  226.3170 C   0  0  0  0  0  0  0  0  0  0  0  0
  132.5850   71.5740  227.1250 C   0  0  0  0  0  0  0  0  0  0  0  0
  132.0600   72.7930  227.5520 C   0  0  0  0  0  0  0  0  0  0  0  0
  132.6370   73.9940  227.1960 C   0  0  0  0  0  0  0  0  0  0  0  0
  132.1500   75.2190  227.5960 C   0  0  0  0  0  0  0  0  0  0  0  0
  132.7760   76.3940  227.2050 C   0  0  0  0  0  0  0  0  0  0  0  0
  132.1840   77.9650  227.6950 Cl  0  0  0  0  0  0  0  0  0  0  0  0
  133.9010   76.3490  226.4040 C   0  0  0  0  0  0  0  0  0  0  0  0
  134.4140   75.1220  225.9840 C   0  0  0  0  0  0  0  0  0  0  0  0
  133.7620   73.9780  226.3950 C   0  0  0  0  0  0  0  0  0  0  0  0
  134.2310   72.7850  226.0100 N   0  0  0  0  0  0  0  0  0  0  0  0
  140.1070   70.8850  225.6770 C   0  0  0  0  0  0  0  0  0  0  0  0
  139.7390   70.0210  226.6870 C   0  0  0  0  0  0  0  0  0  0  0  0
  140.1880   70.1410  227.9860 C   0  0  0  0  0  0  0  0  0  0  0  0
  141.0500   71.1650  228.3290 C   0  0  0  0  0  0  0  0  0  0  0  0
  141.4380   72.0460  227.3420 C   0  0  0  0  0  0  0  0  0  0  0  0
  140.9800   71.9120  226.0460 C   0  0  0  0  0  0  0  0  0  0  0  0
  138.3557   73.5126  222.9151 H   0  0  0  0  0  0  0  0  0  0  0  0
  139.1769   73.9192  221.3702 H   0  0  0  0  0  0  0  0  0  0  0  0
  137.7571   72.8187  221.3702 H   0  0  0  0  0  0  0  0  0  0  0  0
  139.0063   71.0100  221.9356 H   0  0  0  0  0  0  0  0  0  0  0  0
  140.4023   72.0284  221.3816 H   0  0  0  0  0  0  0  0  0  0  0  0
  141.2604   71.7637  223.3818 H   0  0  0  0  0  0  0  0  0  0  0  0
  139.9161   72.8271  223.9822 H   0  0  0  0  0  0  0  0  0  0  0  0
  139.9810   69.8608  223.7629 H   0  0  0  0  0  0  0  0  0  0  0  0
  137.6680   71.5950  224.3870 H   0  0  0  0  0  0  0  0  0  0  0  0
  135.6795   69.0586  223.4359 H   0  0  0  0  0  0  0  0  0  0  0  0
  135.8487   68.4048  225.1071 H   0  0  0  0  0  0  0  0  0  0  0  0
  135.7990   71.3760  224.7000 H   0  0  0  0  0  0  0  0  0  0  0  0
  132.1161   70.6224  227.4158 H   0  0  0  0  0  0  0  0  0  0  0  0
  131.1631   72.7969  228.1888 H   0  0  0  0  0  0  0  0  0  0  0  0
  131.2543   75.2662  228.2328 H   0  0  0  0  0  0  0  0  0  0  0  0
  134.3933   77.2835  226.0968 H   0  0  0  0  0  0  0  0  0  0  0  0
  135.3087   75.0683  225.3463 H   0  0  0  0  0  0  0  0  0  0  0  0
  139.0536   69.1954  226.4449 H   0  0  0  0  0  0  0  0  0  0  0  0
  139.8594   69.4206  228.7496 H   0  0  0  0  0  0  0  0  0  0  0  0
  141.4163   71.2742  229.3604 H   0  0  0  0  0  0  0  0  0  0  0  0
  142.1237   72.8693  227.5909 H   0  0  0  0  0  0  0  0  0  0  0  0
  141.3112   72.6328  225.2839 H   0  0  0  0  0  0  0  0  0  0  0  0
  1  2  1  0
  2  3  1  0
  3  4  1  0
  4  5  1  0
  5  6  1  0
  6  7  2  0
  6  8  1  0
  8  9  1  0
  9 10  1  0
 10 11  2  0
 10 12  1  0
 12 13  2  0
 13 14  1  0
 14 15  2  0
 15 16  1  0
 16 17  2  0
 17 18  1  0
 17 19  1  0
 19 20  2  0
 20 21  1  0
 21 22  2  0
  4 23  1  0
 23 24  2  0
 24 25  1  0
 25 26  2  0
 26 27  1  0
 27 28  2  0
 22 12  1  0
 28 23  1  0
 21 15  1  0
  1 29  1  0
  1 30  1  0
  1 31  1  0
  2 32  1  0
  2 33  1  0
  3 34  1  0
  3 35  1  0
  4 36  1  6
  5 37  1  0
  8 38  1  0
  8 39  1  0
  9 40  1  0
 13 41  1  0
 14 42  1  0
 16 43  1  0
 19 44  1  0
 20 45  1  0
 24 46  1  0
 25 47  1  0
 26 48  1  0
 27 49  1  0
 28 50  1  0
M  END
>  <smiles>  (45) 
CCC[C@H](NC(=O)CNC(=O)c1ccc2cc(Cl)ccc2n1)c1ccccc1

>  <score_type>  (45) 
oracle

>  <origin>  (45) 
autodockgpu

>  <m_score__min__energy>  (45) 
-9.0399999999999991

>  <m_primary>  (45) 
energy

>  <rmsd>  (45) 
7.51390478465747

>  <m_score__min__rmsd>  (45) 
7.51390478465747

>  <meeko>  (45) 
{"free_energy": -8.44, "intermolecular_energy": -10.53, "internal_energy": -1.62, "cluster_size": 16, "cluster_id": 3, "rank_in_cluster": 3}

>  <energy>  (45) 
-8.25

>  <cluster_rmsd>  (45) 
0.36

>  <cluster>  (45) 
4

$$$$

     RDKit          3D

 50 52  0  0  0  0  0  0  0  0999 V2000
  138.1870   71.8430  221.3930 C   0  0  0  0  0  0  0  0  0  0  0  0
  139.0840   70.6740  221.7770 C   0  0  0  0  0  0  0  0  0  0  0  0
  139.8040   70.9220  223.0560 C   0  0  0  0  0  0  0  0  0  0  0  0
  139.5780   69.8380  224.0450 C   0  0  2  0  0  0  0  0  0  0  0  0
  138.2120   69.3870  224.1670 N   0  0  0  0  0  0  0  0  0  0  0  0
  137.1680   70.2900  224.4430 C   0  0  0  0  0  0  0  0  0  0  0  0
  137.4870   71.5120  224.5720 O   0  0  0  0  0  0  0  0  0  0  0  0
  135.7460   69.9510  224.5940 C   0  0  0  0  0  0  0  0  0  0  0  0
  135.0250   71.0610  225.1300 N   0  0  0  0  0  0  0  0  0  0  0  0
  133.9590   70.8820  226.0520 C   0  0  0  0  0  0  0  0  0  0  0  0
  133.5750   69.7590  226.4700 O   0  0  0  0  0  0  0  0  0  0  0  0
  133.2780   72.0940  226.5320 C   0  0  0  0  0  0  0  0  0  0  0  0
  132.0480   71.9850  227.1860 C   0  0  0  0  0  0  0  0  0  0  0  0
  131.4340   73.1570  227.6260 C   0  0  0  0  0  0  0  0  0  0  0  0
  132.0110   74.3950  227.4290 C   0  0  0  0  0  0  0  0  0  0  0  0
  131.4380   75.5750  227.8470 C   0  0  0  0  0  0  0  0  0  0  0  0
  132.0670   76.7900  227.6180 C   0  0  0  0  0  0  0  0  0  0  0  0
  131.3670   78.3070  228.1370 Cl  0  0  0  0  0  0  0  0  0  0  0  0
  133.2840   76.8300  226.9650 C   0  0  0  0  0  0  0  0  0  0  0  0
  133.8870   75.6500  226.5300 C   0  0  0  0  0  0  0  0  0  0  0  0
  133.2270   74.4630  226.7770 C   0  0  0  0  0  0  0  0  0  0  0  0
  133.7790   73.3130  226.3730 N   0  0  0  0  0  0  0  0  0  0  0  0
  139.9850   70.3040  225.3930 C   0  0  0  0  0  0  0  0  0  0  0  0
  140.6950   71.4640  225.6180 C   0  0  0  0  0  0  0  0  0  0  0  0
  141.0730   71.8890  226.8750 C   0  0  0  0  0  0  0  0  0  0  0  0
  140.7410   71.1400  227.9870 C   0  0  0  0  0  0  0  0  0  0  0  0
  140.0300   69.9730  227.7970 C   0  0  0  0  0  0  0  0  0  0  0  0
  139.6590   69.5630  226.5320 C   0  0  0  0  0  0  0  0  0  0  0  0
  137.8118   72.3320  222.3041 H   0  0  0  0  0  0  0  0  0  0  0  0
  138.7631   72.5675  220.7988 H   0  0  0  0  0  0  0  0  0  0  0  0
  137.3381   71.4740  220.7988 H   0  0  0  0  0  0  0  0  0  0  0  0
  138.4644   69.7718  221.8871 H   0  0  0  0  0  0  0  0  0  0  0  0
  139.8346   70.5459  220.9832 H   0  0  0  0  0  0  0  0  0  0  0  0
  140.8818   70.9929  222.8480 H   0  0  0  0  0  0  0  0  0  0  0  0
  139.4173   71.8578  223.4858 H   0  0  0  0  0  0  0  0  0  0  0  0
  140.1762   68.9953  223.6682 H   0  0  0  0  0  0  0  0  0  0  0  0
  138.0330   68.3720  224.0270 H   0  0  0  0  0  0  0  0  0  0  0  0
  135.3293   69.6887  223.6104 H   0  0  0  0  0  0  0  0  0  0  0  0
  135.6531   69.0984  225.2827 H   0  0  0  0  0  0  0  0  0  0  0  0
  135.2940   72.0390  224.8280 H   0  0  0  0  0  0  0  0  0  0  0  0
  131.5781   71.0038  227.3489 H   0  0  0  0  0  0  0  0  0  0  0  0
  130.4653   73.0932  228.1432 H   0  0  0  0  0  0  0  0  0  0  0  0
  130.4699   75.5541  228.3688 H   0  0  0  0  0  0  0  0  0  0  0  0
  133.7791   77.7961  226.7875 H   0  0  0  0  0  0  0  0  0  0  0  0
  134.8552   75.6647  226.0081 H   0  0  0  0  0  0  0  0  0  0  0  0
  140.9742   72.0818  224.7518 H   0  0  0  0  0  0  0  0  0  0  0  0
  141.6391   72.8249  226.9917 H   0  0  0  0  0  0  0  0  0  0  0  0
  141.0352   71.4649  228.9959 H   0  0  0  0  0  0  0  0  0  0  0  0
  139.7543   69.3594  228.6674 H   0  0  0  0  0  0  0  0  0  0  0  0
  139.0914   68.6277  226.4176 H   0  0  0  0  0  0  0  0  0  0  0  0
  1  2  1  0
  2  3  1  0
  3  4  1  0
  4  5  1  0
  5  6  1  0
  6  7  2  0
  6  8  1  0
  8  9  1  0
  9 10  1  0
 10 11  2  0
 10 12  1  0
 12 13  2  0
 13 14  1  0
 14 15  2  0
 15 16  1  0
 16 17  2  0
 17 18  1  0
 17 19  1  0
 19 20  2  0
 20 21  1  0
 21 22  2  0
  4 23  1  0
 23 24  2  0
 24 25  1  0
 25 26  2  0
 26 27  1  0
 27 28  2  0
 22 12  1  0
 28 23  1  0
 21 15  1  0
  1 29  1  0
  1 30  1  0
  1 31  1  0
  2 32  1  0
  2 33  1  0
  3 34  1  0
  3 35  1  0
  4 36  1  6
  5 37  1  0
  8 38  1  0
  8 39  1  0
  9 40  1  0
 13 41  1  0
 14 42  1  0
 16 43  1  0
 19 44  1  0
 20 45  1  0
 24 46  1  0
 25 47  1  0
 26 48  1  0
 27 49  1  0
 28 50  1  0
M  END
>  <smiles>  (46) 
CCC[C@H](NC(=O)CNC(=O)c1ccc2cc(Cl)ccc2n1)c1ccccc1

>  <score_type>  (46) 
oracle

>  <origin>  (46) 
autodockgpu

>  <m_score__min__energy>  (46) 
-9.0399999999999991

>  <m_primary>  (46) 
energy

>  <rmsd>  (46) 
7.942357300823474

>  <m_score__min__rmsd>  (46) 
7.942357300823474

>  <meeko>  (46) 
{"free_energy": -7.72, "intermolecular_energy": -9.8, "internal_energy": -2.06, "cluster_size": 16, "cluster_id": 3, "rank_in_cluster": 8}

>  <energy>  (46) 
-7.51

>  <cluster_rmsd>  (46) 
0.75

>  <cluster>  (46) 
4

$$$$

     RDKit          3D

 50 52  0  0  0  0  0  0  0  0999 V2000
  141.3690   67.7660  226.9890 C   0  0  0  0  0  0  0  0  0  0  0  0
  140.2450   67.1980  226.1330 C   0  0  0  0  0  0  0  0  0  0  0  0
  139.6420   68.2330  225.2490 C   0  0  0  0  0  0  0  0  0  0  0  0
  138.8310   69.2150  226.0120 C   0  0  2  0  0  0  0  0  0  0  0  0
  137.8250   69.9140  225.2480 N   0  0  0  0  0  0  0  0  0  0  0  0
  138.1420   70.5370  224.0260 C   0  0  0  0  0  0  0  0  0  0  0  0
  139.3450   70.4490  223.6310 O   0  0  0  0  0  0  0  0  0  0  0  0
  137.2090   71.2790  223.1650 C   0  0  0  0  0  0  0  0  0  0  0  0
  136.3320   72.0810  223.9570 N   0  0  0  0  0  0  0  0  0  0  0  0
  135.2320   71.5140  224.6560 C   0  0  0  0  0  0  0  0  0  0  0  0
  134.9500   70.2870  224.6420 O   0  0  0  0  0  0  0  0  0  0  0  0
  134.3870   72.4320  225.4340 C   0  0  0  0  0  0  0  0  0  0  0  0
  133.3510   71.9230  226.2210 C   0  0  0  0  0  0  0  0  0  0  0  0
  132.5720   72.8260  226.9430 C   0  0  0  0  0  0  0  0  0  0  0  0
  132.8050   74.1850  226.8920 C   0  0  0  0  0  0  0  0  0  0  0  0
  132.0600   75.1100  227.5890 C   0  0  0  0  0  0  0  0  0  0  0  0
  132.3430   76.4650  227.4970 C   0  0  0  0  0  0  0  0  0  0  0  0
  131.4160   77.6650  228.3680 Cl  0  0  0  0  0  0  0  0  0  0  0  0
  133.3820   76.9050  226.7000 C   0  0  0  0  0  0  0  0  0  0  0  0
  134.1530   75.9900  225.9830 C   0  0  0  0  0  0  0  0  0  0  0  0
  133.8380   74.6520  226.1020 C   0  0  0  0  0  0  0  0  0  0  0  0
  134.5590   73.7490  225.4280 N   0  0  0  0  0  0  0  0  0  0  0  0
  139.7210   70.2570  226.5800 C   0  0  0  0  0  0  0  0  0  0  0  0
  140.6780   70.9280  225.8480 C   0  0  0  0  0  0  0  0  0  0  0  0
  141.5040   71.8930  226.3850 C   0  0  0  0  0  0  0  0  0  0  0  0
  141.3970   72.2300  227.7210 C   0  0  0  0  0  0  0  0  0  0  0  0
  140.4490   71.5780  228.4820 C   0  0  0  0  0  0  0  0  0  0  0  0
  139.6300   70.6150  227.9280 C   0  0  0  0  0  0  0  0  0  0  0  0
  141.1193   67.6398  228.0528 H   0  0  0  0  0  0  0  0  0  0  0  0
  142.3049   67.2326  226.7663 H   0  0  0  0  0  0  0  0  0  0  0  0
  141.4947   68.8358  226.7663 H   0  0  0  0  0  0  0  0  0  0  0  0
  140.6489   66.3880  225.5078 H   0  0  0  0  0  0  0  0  0  0  0  0
  139.4590   66.8255  226.8064 H   0  0  0  0  0  0  0  0  0  0  0  0
  140.4493   68.7684  224.7277 H   0  0  0  0  0  0  0  0  0  0  0  0
  138.9760   67.7240  224.5367 H   0  0  0  0  0  0  0  0  0  0  0  0
  138.3138   68.6106  226.7718 H   0  0  0  0  0  0  0  0  0  0  0  0
  136.8590   69.9230  225.6300 H   0  0  0  0  0  0  0  0  0  0  0  0
  137.7808   71.9289  222.4863 H   0  0  0  0  0  0  0  0  0  0  0  0
  136.6103   70.5610  222.5853 H   0  0  0  0  0  0  0  0  0  0  0  0
  136.5080   73.1220  224.0210 H   0  0  0  0  0  0  0  0  0  0  0  0
  133.1557   70.8416  226.2695 H   0  0  0  0  0  0  0  0  0  0  0  0
  131.7513   72.4456  227.5688 H   0  0  0  0  0  0  0  0  0  0  0  0
  131.2304   74.7703  228.2265 H   0  0  0  0  0  0  0  0  0  0  0  0
  133.6021   77.9805  226.6305 H   0  0  0  0  0  0  0  0  0  0  0  0
  134.9840   76.3239  225.3443 H   0  0  0  0  0  0  0  0  0  0  0  0
  140.7881   70.6810  224.7818 H   0  0  0  0  0  0  0  0  0  0  0  0
  142.2485   72.3948  225.7495 H   0  0  0  0  0  0  0  0  0  0  0  0
  142.0493   72.9964  228.1650 H   0  0  0  0  0  0  0  0  0  0  0  0
  140.3441   71.8297  229.5477 H   0  0  0  0  0  0  0  0  0  0  0  0
  138.8851   70.1155  228.5649 H   0  0  0  0  0  0  0  0  0  0  0  0
  1  2  1  0
  2  3  1  0
  3  4  1  0
  4  5  1  0
  5  6  1  0
  6  7  2  0
  6  8  1  0
  8  9  1  0
  9 10  1  0
 10 11  2  0
 10 12  1  0
 12 13  2  0
 13 14  1  0
 14 15  2  0
 15 16  1  0
 16 17  2  0
 17 18  1  0
 17 19  1  0
 19 20  2  0
 20 21  1  0
 21 22  2  0
  4 23  1  0
 23 24  2  0
 24 25  1  0
 25 26  2  0
 26 27  1  0
 27 28  2  0
 22 12  1  0
 28 23  1  0
 21 15  1  0
  1 29  1  0
  1 30  1  0
  1 31  1  0
  2 32  1  0
  2 33  1  0
  3 34  1  0
  3 35  1  0
  4 36  1  1
  5 37  1  0
  8 38  1  0
  8 39  1  0
  9 40  1  0
 13 41  1  0
 14 42  1  0
 16 43  1  0
 19 44  1  0
 20 45  1  0
 24 46  1  0
 25 47  1  0
 26 48  1  0
 27 49  1  0
 28 50  1  0
M  END
>  <smiles>  (47) 
CCC[C@H](NC(=O)CNC(=O)c1ccc2cc(Cl)ccc2n1)c1ccccc1

>  <score_type>  (47) 
oracle

>  <origin>  (47) 
autodockgpu

>  <m_score__min__energy>  (47) 
-9.0399999999999991

>  <m_primary>  (47) 
energy

>  <rmsd>  (47) 
8.761327334785078

>  <m_score__min__rmsd>  (47) 
8.761327334785078

>  <meeko>  (47) 
{"free_energy": -8.17, "intermolecular_energy": -10.26, "internal_energy": -1.94, "cluster_size": 16, "cluster_id": 3, "rank_in_cluster": 6}

>  <energy>  (47) 
-7.5

>  <cluster_rmsd>  (47) 
1.18

>  <cluster>  (47) 
4

$$$$

     RDKit          3D

 50 52  0  0  0  0  0  0  0  0999 V2000
  141.3740   67.7340  226.8570 C   0  0  0  0  0  0  0  0  0  0  0  0
  139.9120   67.5510  226.4700 C   0  0  0  0  0  0  0  0  0  0  0  0
  139.5820   68.2490  225.1970 C   0  0  0  0  0  0  0  0  0  0  0  0
  138.9120   69.5530  225.4320 C   0  0  2  0  0  0  0  0  0  0  0  0
  138.6210   70.3210  224.2450 N   0  0  0  0  0  0  0  0  0  0  0  0
  137.3140   70.3930  223.7270 C   0  0  0  0  0  0  0  0  0  0  0  0
  136.4110   69.7590  224.3560 O   0  0  0  0  0  0  0  0  0  0  0  0
  136.8970   71.1360  222.5290 C   0  0  0  0  0  0  0  0  0  0  0  0
  137.6230   72.3620  222.4260 N   0  0  0  0  0  0  0  0  0  0  0  0
  138.9840   72.3900  222.0200 C   0  0  0  0  0  0  0  0  0  0  0  0
  139.6460   71.3630  221.7160 O   0  0  0  0  0  0  0  0  0  0  0  0
  139.6380   73.7050  221.9590 C   0  0  0  0  0  0  0  0  0  0  0  0
  140.9480   73.8080  221.4820 C   0  0  0  0  0  0  0  0  0  0  0  0
  141.5330   75.0720  221.4400 C   0  0  0  0  0  0  0  0  0  0  0  0
  140.8520   76.1990  221.8530 C   0  0  0  0  0  0  0  0  0  0  0  0
  141.3930   77.4650  221.8270 C   0  0  0  0  0  0  0  0  0  0  0  0
  140.6580   78.5600  222.2570 C   0  0  0  0  0  0  0  0  0  0  0  0
  141.3150   80.1810  222.2370 Cl  0  0  0  0  0  0  0  0  0  0  0  0
  139.3660   78.3920  222.7170 C   0  0  0  0  0  0  0  0  0  0  0  0
  138.7940   77.1220  222.7540 C   0  0  0  0  0  0  0  0  0  0  0  0
  139.5590   76.0590  222.3190 C   0  0  0  0  0  0  0  0  0  0  0  0
  139.0390   74.8270  222.3410 N   0  0  0  0  0  0  0  0  0  0  0  0
  139.7760   70.4080  226.2810 C   0  0  0  0  0  0  0  0  0  0  0  0
  139.7060   70.4370  227.6580 C   0  0  0  0  0  0  0  0  0  0  0  0
  140.5120   71.2390  228.4400 C   0  0  0  0  0  0  0  0  0  0  0  0
  141.4480   72.0660  227.8500 C   0  0  0  0  0  0  0  0  0  0  0  0
  141.5440   72.0600  226.4730 C   0  0  0  0  0  0  0  0  0  0  0  0
  140.7300   71.2520  225.7060 C   0  0  0  0  0  0  0  0  0  0  0  0
  141.4645   67.7453  227.9532 H   0  0  0  0  0  0  0  0  0  0  0  0
  141.9681   66.9032  226.4486 H   0  0  0  0  0  0  0  0  0  0  0  0
  141.7450   68.6856  226.4486 H   0  0  0  0  0  0  0  0  0  0  0  0
  139.7080   66.4768  226.3496 H   0  0  0  0  0  0  0  0  0  0  0  0
  139.2917   67.9861  227.2675 H   0  0  0  0  0  0  0  0  0  0  0  0
  140.5125   68.4242  224.6371 H   0  0  0  0  0  0  0  0  0  0  0  0
  138.8892   67.6097  224.6301 H   0  0  0  0  0  0  0  0  0  0  0  0
  137.9535   69.2876  225.9019 H   0  0  0  0  0  0  0  0  0  0  0  0
  139.4120   70.8280  223.8010 H   0  0  0  0  0  0  0  0  0  0  0  0
  137.0917   70.5233  221.6364 H   0  0  0  0  0  0  0  0  0  0  0  0
  135.8232   71.3623  222.6051 H   0  0  0  0  0  0  0  0  0  0  0  0
  137.1310   73.2690  222.6610 H   0  0  0  0  0  0  0  0  0  0  0  0
  141.5009   72.9171  221.1495 H   0  0  0  0  0  0  0  0  0  0  0  0
  142.5633   75.1740  221.0684 H   0  0  0  0  0  0  0  0  0  0  0  0
  142.4202   77.6097  221.4609 H   0  0  0  0  0  0  0  0  0  0  0  0
  138.7869   79.2639  223.0552 H   0  0  0  0  0  0  0  0  0  0  0  0
  137.7669   76.9717  223.1178 H   0  0  0  0  0  0  0  0  0  0  0  0
  138.9712   69.7887  228.1578 H   0  0  0  0  0  0  0  0  0  0  0  0
  140.4089   71.2197  229.5350 H   0  0  0  0  0  0  0  0  0  0  0  0
  142.0980   72.7107  228.4598 H   0  0  0  0  0  0  0  0  0  0  0  0
  142.2814   72.7099  225.9792 H   0  0  0  0  0  0  0  0  0  0  0  0
  140.8349   71.2727  224.6112 H   0  0  0  0  0  0  0  0  0  0  0  0
  1  2  1  0
  2  3  1  0
  3  4  1  0
  4  5  1  0
  5  6  1  0
  6  7  2  0
  6  8  1  0
  8  9  1  0
  9 10  1  0
 10 11  2  0
 10 12  1  0
 12 13  2  0
 13 14  1  0
 14 15  2  0
 15 16  1  0
 16 17  2  0
 17 18  1  0
 17 19  1  0
 19 20  2  0
 20 21  1  0
 21 22  2  0
  4 23  1  0
 23 24  2  0
 24 25  1  0
 25 26  2  0
 26 27  1  0
 27 28  2  0
 22 12  1  0
 28 23  1  0
 21 15  1  0
  1 29  1  0
  1 30  1  0
  1 31  1  0
  2 32  1  0
  2 33  1  0
  3 34  1  0
  3 35  1  0
  4 36  1  1
  5 37  1  0
  8 38  1  0
  8 39  1  0
  9 40  1  0
 13 41  1  0
 14 42  1  0
 16 43  1  0
 19 44  1  0
 20 45  1  0
 24 46  1  0
 25 47  1  0
 26 48  1  0
 27 49  1  0
 28 50  1  0
M  END
>  <smiles>  (48) 
CCC[C@H](NC(=O)CNC(=O)c1ccc2cc(Cl)ccc2n1)c1ccccc1

>  <score_type>  (48) 
oracle

>  <origin>  (48) 
autodockgpu

>  <m_score__min__energy>  (48) 
-9.0399999999999991

>  <m_primary>  (48) 
energy

>  <rmsd>  (48) 
8.406532736397347

>  <m_score__min__rmsd>  (48) 
8.406532736397347

>  <meeko>  (48) 
{"free_energy": -7.9, "intermolecular_energy": -9.98, "internal_energy": -2.41, "cluster_size": 7, "cluster_id": 2, "rank_in_cluster": 6}

>  <energy>  (48) 
-7.83

>  <cluster_rmsd>  (48) 
0.0

>  <cluster>  (48) 
5

$$$$

     RDKit          3D

 50 52  0  0  0  0  0  0  0  0999 V2000
  139.8580   73.6290  221.9320 C   0  0  0  0  0  0  0  0  0  0  0  0
  139.4860   72.2080  222.3320 C   0  0  0  0  0  0  0  0  0  0  0  0
  140.3950   71.6690  223.3790 C   0  0  0  0  0  0  0  0  0  0  0  0
  139.7150   70.6830  224.2560 C   0  0  2  0  0  0  0  0  0  0  0  0
  138.2750   70.7700  224.2850 N   0  0  0  0  0  0  0  0  0  0  0  0
  137.4770   69.6160  224.4030 C   0  0  0  0  0  0  0  0  0  0  0  0
  138.0850   68.5050  224.4880 O   0  0  0  0  0  0  0  0  0  0  0  0
  136.0080   69.5780  224.4380 C   0  0  0  0  0  0  0  0  0  0  0  0
  135.4920   70.8060  224.9560 N   0  0  0  0  0  0  0  0  0  0  0  0
  135.5700   72.0170  224.2180 C   0  0  0  0  0  0  0  0  0  0  0  0
  136.0810   72.1070  223.0710 O   0  0  0  0  0  0  0  0  0  0  0  0
  135.0160   73.2230  224.8500 C   0  0  0  0  0  0  0  0  0  0  0  0
  135.5330   74.4790  224.5200 C   0  0  0  0  0  0  0  0  0  0  0  0
  134.9820   75.5990  225.1410 C   0  0  0  0  0  0  0  0  0  0  0  0
  133.9550   75.4870  226.0560 C   0  0  0  0  0  0  0  0  0  0  0  0
  133.3820   76.5670  226.6910 C   0  0  0  0  0  0  0  0  0  0  0  0
  132.3520   76.3890  227.6020 C   0  0  0  0  0  0  0  0  0  0  0  0
  131.6030   77.7390  228.4260 Cl  0  0  0  0  0  0  0  0  0  0  0  0
  131.8840   75.1200  227.8850 C   0  0  0  0  0  0  0  0  0  0  0  0
  132.4460   74.0090  227.2570 C   0  0  0  0  0  0  0  0  0  0  0  0
  133.4690   74.2290  226.3570 C   0  0  0  0  0  0  0  0  0  0  0  0
  134.0290   73.1840  225.7370 N   0  0  0  0  0  0  0  0  0  0  0  0
  140.1730   70.8670  225.6550 C   0  0  0  0  0  0  0  0  0  0  0  0
  141.0110   71.8860  226.0570 C   0  0  0  0  0  0  0  0  0  0  0  0
  141.4340   72.0480  227.3600 C   0  0  0  0  0  0  0  0  0  0  0  0
  141.0180   71.1650  228.3380 C   0  0  0  0  0  0  0  0  0  0  0  0
  140.1780   70.1340  227.9690 C   0  0  0  0  0  0  0  0  0  0  0  0
  139.7640   69.9870  226.6610 C   0  0  0  0  0  0  0  0  0  0  0  0
  140.0166   74.2348  222.8363 H   0  0  0  0  0  0  0  0  0  0  0  0
  140.7820   73.6120  221.3353 H   0  0  0  0  0  0  0  0  0  0  0  0
  139.0442   74.0669  221.3353 H   0  0  0  0  0  0  0  0  0  0  0  0
  138.4566   72.2059  222.7197 H   0  0  0  0  0  0  0  0  0  0  0  0
  139.5763   71.5690  221.4412 H   0  0  0  0  0  0  0  0  0  0  0  0
  141.2487   71.1781  222.8889 H   0  0  0  0  0  0  0  0  0  0  0  0
  140.7244   72.5100  224.0069 H   0  0  0  0  0  0  0  0  0  0  0  0
  139.9813   69.7057  223.8271 H   0  0  0  0  0  0  0  0  0  0  0  0
  137.8550   71.7200  224.2300 H   0  0  0  0  0  0  0  0  0  0  0  0
  135.6246   69.4247  223.4184 H   0  0  0  0  0  0  0  0  0  0  0  0
  135.6870   68.7520  225.0896 H   0  0  0  0  0  0  0  0  0  0  0  0
  135.0420   70.8070  225.9140 H   0  0  0  0  0  0  0  0  0  0  0  0
  136.3509   74.5808  223.7915 H   0  0  0  0  0  0  0  0  0  0  0  0
  135.3755   76.5965  224.8956 H   0  0  0  0  0  0  0  0  0  0  0  0
  133.7457   77.5819  226.4728 H   0  0  0  0  0  0  0  0  0  0  0  0
  131.0657   74.9858  228.6078 H   0  0  0  0  0  0  0  0  0  0  0  0
  132.0862   72.9919  227.4716 H   0  0  0  0  0  0  0  0  0  0  0  0
  141.3593   72.6052  225.3011 H   0  0  0  0  0  0  0  0  0  0  0  0
  142.1033   72.8811  227.6207 H   0  0  0  0  0  0  0  0  0  0  0  0
  141.3471   71.2805  229.3813 H   0  0  0  0  0  0  0  0  0  0  0  0
  139.8331   69.4182  228.7297 H   0  0  0  0  0  0  0  0  0  0  0  0
  139.0935   69.1541  226.4028 H   0  0  0  0  0  0  0  0  0  0  0  0
  1  2  1  0
  2  3  1  0
  3  4  1  0
  4  5  1  0
  5  6  1  0
  6  7  2  0
  6  8  1  0
  8  9  1  0
  9 10  1  0
 10 11  2  0
 10 12  1  0
 12 13  2  0
 13 14  1  0
 14 15  2  0
 15 16  1  0
 16 17  2  0
 17 18  1  0
 17 19  1  0
 19 20  2  0
 20 21  1  0
 21 22  2  0
  4 23  1  0
 23 24  2  0
 24 25  1  0
 25 26  2  0
 26 27  1  0
 27 28  2  0
 22 12  1  0
 28 23  1  0
 21 15  1  0
  1 29  1  0
  1 30  1  0
  1 31  1  0
  2 32  1  0
  2 33  1  0
  3 34  1  0
  3 35  1  0
  4 36  1  6
  5 37  1  0
  8 38  1  0
  8 39  1  0
  9 40  1  0
 13 41  1  0
 14 42  1  0
 16 43  1  0
 19 44  1  0
 20 45  1  0
 24 46  1  0
 25 47  1  0
 26 48  1  0
 27 49  1  0
 28 50  1  0
M  END
>  <smiles>  (49) 
CCC[C@H](NC(=O)CNC(=O)c1ccc2cc(Cl)ccc2n1)c1ccccc1

>  <score_type>  (49) 
oracle

>  <origin>  (49) 
autodockgpu

>  <m_score__min__energy>  (49) 
-9.0399999999999991

>  <m_primary>  (49) 
energy

>  <rmsd>  (49) 
7.485369260087204

>  <m_score__min__rmsd>  (49) 
7.485369260087204

>  <meeko>  (49) 
{"free_energy": -7.76, "intermolecular_energy": -9.84, "internal_energy": -2.38, "cluster_size": 16, "cluster_id": 3, "rank_in_cluster": 7}

>  <energy>  (49) 
-7.73

>  <cluster_rmsd>  (49) 
0.34

>  <cluster>  (49) 
5

$$$$

     RDKit          3D

 50 52  0  0  0  0  0  0  0  0999 V2000
  143.2870   76.4870  218.3560 C   0  0  0  0  0  0  0  0  0  0  0  0
  142.0940   77.4330  218.3120 C   0  0  0  0  0  0  0  0  0  0  0  0
  142.1030   78.3920  219.4500 C   0  0  0  0  0  0  0  0  0  0  0  0
  141.8170   77.7250  220.7450 C   0  0  2  0  0  0  0  0  0  0  0  0
  140.5510   77.0360  220.8200 N   0  0  0  0  0  0  0  0  0  0  0  0
  140.4890   75.6470  221.0390 C   0  0  0  0  0  0  0  0  0  0  0  0
  141.5960   75.0370  221.1730 O   0  0  0  0  0  0  0  0  0  0  0  0
  139.2660   74.8370  221.1290 C   0  0  0  0  0  0  0  0  0  0  0  0
  139.3990   73.8480  222.1520 N   0  0  0  0  0  0  0  0  0  0  0  0
  139.3890   72.4600  221.8510 C   0  0  0  0  0  0  0  0  0  0  0  0
  139.2730   71.9950  220.6870 O   0  0  0  0  0  0  0  0  0  0  0  0
  139.5220   71.5290  222.9820 C   0  0  0  0  0  0  0  0  0  0  0  0
  139.0270   70.2270  222.8710 C   0  0  0  0  0  0  0  0  0  0  0  0
  139.1720   69.3750  223.9650 C   0  0  0  0  0  0  0  0  0  0  0  0
  139.7860   69.7900  225.1290 C   0  0  0  0  0  0  0  0  0  0  0  0
  139.9490   68.9800  226.2310 C   0  0  0  0  0  0  0  0  0  0  0  0
  140.5750   69.4550  227.3740 C   0  0  0  0  0  0  0  0  0  0  0  0
  140.7990   68.4540  228.7900 Cl  0  0  0  0  0  0  0  0  0  0  0  0
  141.0440   70.7540  227.4210 C   0  0  0  0  0  0  0  0  0  0  0  0
  140.8920   71.5950  226.3190 C   0  0  0  0  0  0  0  0  0  0  0  0
  140.2630   71.0840  225.2020 C   0  0  0  0  0  0  0  0  0  0  0  0
  140.1020   71.8660  224.1280 N   0  0  0  0  0  0  0  0  0  0  0  0
  141.8070   78.7350  221.8310 C   0  0  0  0  0  0  0  0  0  0  0  0
  141.4420   78.4570  223.1310 C   0  0  0  0  0  0  0  0  0  0  0  0
  141.4320   79.4040  224.1340 C   0  0  0  0  0  0  0  0  0  0  0  0
  141.8000   80.7070  223.8590 C   0  0  0  0  0  0  0  0  0  0  0  0
  142.1710   81.0200  222.5680 C   0  0  0  0  0  0  0  0  0  0  0  0
  142.1760   80.0590  221.5760 C   0  0  0  0  0  0  0  0  0  0  0  0
  143.5507   76.2779  219.4033 H   0  0  0  0  0  0  0  0  0  0  0  0
  143.0279   75.5462  217.8483 H   0  0  0  0  0  0  0  0  0  0  0  0
  144.1440   76.9537  217.8483 H   0  0  0  0  0  0  0  0  0  0  0  0
  142.1240   77.9994  217.3695 H   0  0  0  0  0  0  0  0  0  0  0  0
  141.1775   76.8289  218.3830 H   0  0  0  0  0  0  0  0  0  0  0  0
  143.0940   78.8660  219.5065 H   0  0  0  0  0  0  0  0  0  0  0  0
  141.3137   79.1370  219.2712 H   0  0  0  0  0  0  0  0  0  0  0  0
  142.6132   76.9729  220.8465 H   0  0  0  0  0  0  0  0  0  0  0  0
  139.6900   77.6100  220.7200 H   0  0  0  0  0  0  0  0  0  0  0  0
  138.4142   75.4914  221.3658 H   0  0  0  0  0  0  0  0  0  0  0  0
  139.0989   74.3339  220.1652 H   0  0  0  0  0  0  0  0  0  0  0  0
  139.5060   74.1630  223.1560 H   0  0  0  0  0  0  0  0  0  0  0  0
  138.5373   69.8843  221.9476 H   0  0  0  0  0  0  0  0  0  0  0  0
  138.7874   68.3465  223.8986 H   0  0  0  0  0  0  0  0  0  0  0  0
  139.5785   67.9446  226.2044 H   0  0  0  0  0  0  0  0  0  0  0  0
  141.5387   71.1258  228.3304 H   0  0  0  0  0  0  0  0  0  0  0  0
  141.2611   72.6310  226.3394 H   0  0  0  0  0  0  0  0  0  0  0  0
  141.1437   77.4282  223.3811 H   0  0  0  0  0  0  0  0  0  0  0  0
  141.1308   79.1215  225.1536 H   0  0  0  0  0  0  0  0  0  0  0  0
  141.7972   81.4736  224.6479 H   0  0  0  0  0  0  0  0  0  0  0  0
  142.4675   82.0510  222.3247 H   0  0  0  0  0  0  0  0  0  0  0  0
  142.4786   80.3433  220.5574 H   0  0  0  0  0  0  0  0  0  0  0  0
  1  2  1  0
  2  3  1  0
  3  4  1  0
  4  5  1  0
  5  6  1  0
  6  7  2  0
  6  8  1  0
  8  9  1  0
  9 10  1  0
 10 11  2  0
 10 12  1  0
 12 13  2  0
 13 14  1  0
 14 15  2  0
 15 16  1  0
 16 17  2  0
 17 18  1  0
 17 19  1  0
 19 20  2  0
 20 21  1  0
 21 22  2  0
  4 23  1  0
 23 24  2  0
 24 25  1  0
 25 26  2  0
 26 27  1  0
 27 28  2  0
 22 12  1  0
 28 23  1  0
 21 15  1  0
  1 29  1  0
  1 30  1  0
  1 31  1  0
  2 32  1  0
  2 33  1  0
  3 34  1  0
  3 35  1  0
  4 36  1  1
  5 37  1  0
  8 38  1  0
  8 39  1  0
  9 40  1  0
 13 41  1  0
 14 42  1  0
 16 43  1  0
 19 44  1  0
 20 45  1  0
 24 46  1  0
 25 47  1  0
 26 48  1  0
 27 49  1  0
 28 50  1  0
M  END
>  <smiles>  (50) 
CCC[C@H](NC(=O)CNC(=O)c1ccc2cc(Cl)ccc2n1)c1ccccc1

>  <score_type>  (50) 
oracle

>  <origin>  (50) 
autodockgpu

>  <m_score__min__energy>  (50) 
-9.0399999999999991

>  <m_primary>  (50) 
energy

>  <rmsd>  (50) 
2.0082628738388677

>  <m_score__min__rmsd>  (50) 
2.0082628738388677

>  <meeko>  (50) 
{"free_energy": -8.39, "intermolecular_energy": -10.48, "internal_energy": -1.53, "cluster_size": 19, "cluster_id": 1, "rank_in_cluster": 11}

>  <energy>  (50) 
-7.81

>  <cluster_rmsd>  (50) 
0.0

>  <cluster>  (50) 
6

$$$$
