
     RDKit          3D

 49 53  0  0  0  0  0  0  0  0999 V2000
  142.8440   72.9770  220.1760 O   0  0  0  0  0  0  0  0  0  0  0  0
  141.8620   73.1500  220.9310 C   0  0  0  0  0  0  0  0  0  0  0  0
  141.2000   72.0040  221.6360 C   0  0  0  0  0  0  0  0  0  0  0  0
  140.0640   72.4330  222.4490 C   0  0  0  0  0  0  0  0  0  0  0  0
  139.1730   71.4140  223.0570 C   0  0  0  0  0  0  0  0  0  0  0  0
  137.9010   71.2350  222.5680 C   0  0  0  0  0  0  0  0  0  0  0  0
  137.1030   70.2050  223.0200 C   0  0  0  0  0  0  0  0  0  0  0  0
  137.6330   69.3650  223.9770 C   0  0  0  0  0  0  0  0  0  0  0  0
  138.9150   69.5560  224.4630 C   0  0  0  0  0  0  0  0  0  0  0  0
  139.4750   68.6310  225.4350 C   0  0  0  0  0  0  0  0  0  0  0  0
  139.5370   67.4210  225.0840 O   0  0  0  0  0  0  0  0  0  0  0  0
  139.9160   69.0830  226.6870 N   0  0  0  0  0  0  0  0  0  0  0  0
  140.5030   68.5210  227.8630 C   0  0  0  0  0  0  0  0  0  0  0  0
  141.0760   69.9160  228.1570 C   0  0  0  0  0  0  0  0  0  0  0  0
  139.9460   70.4070  227.3030 C   0  0  0  0  0  0  0  0  0  0  0  0
  139.7280   70.5810  224.0250 C   0  0  0  0  0  0  0  0  0  0  0  0
  139.6590   73.6540  222.6020 N   0  0  0  0  0  0  0  0  0  0  0  0
  140.2640   74.7640  221.9690 C   0  0  0  0  0  0  0  0  0  0  0  0
  139.7160   76.0100  222.1390 C   0  0  0  0  0  0  0  0  0  0  0  0
  140.2510   77.0670  221.4510 C   0  0  0  0  0  0  0  0  0  0  0  0
  141.3190   76.8200  220.6170 C   0  0  0  0  0  0  0  0  0  0  0  0
  141.8460   77.8760  219.7590 C   0  0  0  0  0  0  0  0  0  0  0  0
  142.5410   77.6710  218.5990 C   0  0  0  0  0  0  0  0  0  0  0  0
  142.9390   78.7720  217.8810 C   0  0  0  0  0  0  0  0  0  0  0  0
  142.6500   80.0630  218.3150 C   0  0  0  0  0  0  0  0  0  0  0  0
  143.0310   81.1570  217.6070 F   0  0  0  0  0  0  0  0  0  0  0  0
  141.9510   80.2870  219.4830 C   0  0  0  0  0  0  0  0  0  0  0  0
  141.5560   79.1790  220.1930 C   0  0  0  0  0  0  0  0  0  0  0  0
  141.8730   75.5610  220.4580 C   0  0  0  0  0  0  0  0  0  0  0  0
  141.3430   74.5020  221.1450 C   0  0  0  0  0  0  0  0  0  0  0  0
  140.8447   71.2841  220.8840 H   0  0  0  0  0  0  0  0  0  0  0  0
  141.9422   71.5497  222.3089 H   0  0  0  0  0  0  0  0  0  0  0  0
  137.5132   71.9245  221.8037 H   0  0  0  0  0  0  0  0  0  0  0  0
  136.0839   70.0591  222.6325 H   0  0  0  0  0  0  0  0  0  0  0  0
  137.0275   68.5303  224.3600 H   0  0  0  0  0  0  0  0  0  0  0  0
  139.7804   68.1550  228.6072 H   0  0  0  0  0  0  0  0  0  0  0  0
  141.1437   67.6278  227.8213 H   0  0  0  0  0  0  0  0  0  0  0  0
  141.0370   70.2269  229.2114 H   0  0  0  0  0  0  0  0  0  0  0  0
  142.1274   70.1854  227.9783 H   0  0  0  0  0  0  0  0  0  0  0  0
  139.0349   70.6748  227.8582 H   0  0  0  0  0  0  0  0  0  0  0  0
  140.0338   71.3226  226.6997 H   0  0  0  0  0  0  0  0  0  0  0  0
  140.7460   70.7301  224.4142 H   0  0  0  0  0  0  0  0  0  0  0  0
  138.8618   76.1579  222.8161 H   0  0  0  0  0  0  0  0  0  0  0  0
  139.8404   78.0815  221.5612 H   0  0  0  0  0  0  0  0  0  0  0  0
  142.7744   76.6538  218.2513 H   0  0  0  0  0  0  0  0  0  0  0  0
  143.4975   78.6310  216.9439 H   0  0  0  0  0  0  0  0  0  0  0  0
  141.7206   81.3052  219.8298 H   0  0  0  0  0  0  0  0  0  0  0  0
  140.9958   79.3172  221.1295 H   0  0  0  0  0  0  0  0  0  0  0  0
  142.7311   75.4130  219.7858 H   0  0  0  0  0  0  0  0  0  0  0  0
  1  2  2  0
  2  3  1  0
  3  4  1  0
  4  5  1  0
  5  6  2  0
  6  7  1  0
  7  8  2  0
  8  9  1  0
  9 10  1  0
 10 11  2  0
 10 12  1  0
 12 13  1  0
 13 14  1  0
 14 15  1  0
  9 16  2  0
  4 17  2  0
 17 18  1  0
 18 19  2  0
 19 20  1  0
 20 21  2  0
 21 22  1  0
 22 23  2  0
 23 24  1  0
 24 25  2  0
 25 26  1  0
 25 27  1  0
 27 28  2  0
 21 29  1  0
 29 30  2  0
 30  2  1  0
 16  5  1  0
 30 18  1  0
 15 12  1  0
 28 22  1  0
  3 31  1  0
  3 32  1  0
  6 33  1  0
  7 34  1  0
  8 35  1  0
 13 36  1  0
 13 37  1  0
 14 38  1  0
 14 39  1  0
 15 40  1  0
 15 41  1  0
 16 42  1  0
 19 43  1  0
 20 44  1  0
 23 45  1  0
 24 46  1  0
 27 47  1  0
 28 48  1  0
 29 49  1  0
M  END
>  <smiles>  (1) 
O=C1CC(c2cccc(C(=O)N3CCC3)c2)=Nc2ccc(-c3ccc(F)cc3)cc21

>  <score_type>  (1) 
oracle

>  <origin>  (1) 
autodockgpu

>  <m_score__min__energy>  (1) 
-8.6400000000000006

>  <m_primary>  (1) 
energy

>  <rmsd>  (1) 
6.806591948670966

>  <m_score__min__rmsd>  (1) 
6.806591948670966

>  <meeko>  (1) 
{"free_energy": -8.53, "intermolecular_energy": -9.42, "internal_energy": -1.01, "cluster_size": 48, "cluster_id": 1, "rank_in_cluster": 29}

>  <energy>  (1) 
-8.64

>  <cluster_rmsd>  (1) 
0.0

>  <cluster>  (1) 
1

$$$$

     RDKit          3D

 49 53  0  0  0  0  0  0  0  0999 V2000
  143.0840   73.0310  220.1460 O   0  0  0  0  0  0  0  0  0  0  0  0
  142.0550   73.1140  220.8540 C   0  0  0  0  0  0  0  0  0  0  0  0
  141.4300   71.9040  221.4800 C   0  0  0  0  0  0  0  0  0  0  0  0
  140.2300   72.2310  222.2450 C   0  0  0  0  0  0  0  0  0  0  0  0
  139.3740   71.1370  222.7670 C   0  0  0  0  0  0  0  0  0  0  0  0
  138.2810   70.7170  222.0470 C   0  0  0  0  0  0  0  0  0  0  0  0
  137.5510   69.6140  222.4380 C   0  0  0  0  0  0  0  0  0  0  0  0
  137.9630   68.9520  223.5750 C   0  0  0  0  0  0  0  0  0  0  0  0
  139.0650   69.3850  224.2940 C   0  0  0  0  0  0  0  0  0  0  0  0
  139.5140   68.6450  225.4620 C   0  0  0  0  0  0  0  0  0  0  0  0
  139.5180   67.3870  225.3600 O   0  0  0  0  0  0  0  0  0  0  0  0
  139.9150   69.3150  226.6260 N   0  0  0  0  0  0  0  0  0  0  0  0
  140.4040   68.9690  227.9250 C   0  0  0  0  0  0  0  0  0  0  0  0
  141.0470   70.3640  227.9760 C   0  0  0  0  0  0  0  0  0  0  0  0
  139.9960   70.7310  226.9710 C   0  0  0  0  0  0  0  0  0  0  0  0
  139.8060   70.4870  223.9200 C   0  0  0  0  0  0  0  0  0  0  0  0
  139.7420   73.4190  222.4220 N   0  0  0  0  0  0  0  0  0  0  0  0
  140.3080   74.5870  221.8630 C   0  0  0  0  0  0  0  0  0  0  0  0
  139.6770   75.7900  222.0490 C   0  0  0  0  0  0  0  0  0  0  0  0
  140.1800   76.9040  221.4300 C   0  0  0  0  0  0  0  0  0  0  0  0
  141.3020   76.7550  220.6450 C   0  0  0  0  0  0  0  0  0  0  0  0
  141.8060   77.8740  219.8560 C   0  0  0  0  0  0  0  0  0  0  0  0
  142.4960   77.7580  218.6810 C   0  0  0  0  0  0  0  0  0  0  0  0
  142.8710   78.9100  218.0350 C   0  0  0  0  0  0  0  0  0  0  0  0
  142.5630   80.1650  218.5550 C   0  0  0  0  0  0  0  0  0  0  0  0
  142.9220   81.3090  217.9190 F   0  0  0  0  0  0  0  0  0  0  0  0
  141.8690   80.2990  219.7390 C   0  0  0  0  0  0  0  0  0  0  0  0
  141.4970   79.1410  220.3770 C   0  0  0  0  0  0  0  0  0  0  0  0
  141.9400   75.5390  220.4700 C   0  0  0  0  0  0  0  0  0  0  0  0
  141.4430   74.4230  221.0880 C   0  0  0  0  0  0  0  0  0  0  0  0
  141.1594   71.1944  220.6843 H   0  0  0  0  0  0  0  0  0  0  0  0
  142.1632   71.4691  222.1752 H   0  0  0  0  0  0  0  0  0  0  0  0
  137.9835   71.2699  221.1438 H   0  0  0  0  0  0  0  0  0  0  0  0
  136.6748   69.2759  221.8653 H   0  0  0  0  0  0  0  0  0  0  0  0
  137.4078   68.0659  223.9166 H   0  0  0  0  0  0  0  0  0  0  0  0
  139.6221   68.7957  228.6791 H   0  0  0  0  0  0  0  0  0  0  0  0
  140.9890   68.0540  228.0997 H   0  0  0  0  0  0  0  0  0  0  0  0
  140.9716   70.8807  228.9442 H   0  0  0  0  0  0  0  0  0  0  0  0
  142.1212   70.5388  227.8160 H   0  0  0  0  0  0  0  0  0  0  0  0
  139.0756   71.1505  227.4033 H   0  0  0  0  0  0  0  0  0  0  0  0
  140.1731   71.5018  226.2064 H   0  0  0  0  0  0  0  0  0  0  0  0
  140.6796   70.8292  224.4942 H   0  0  0  0  0  0  0  0  0  0  0  0
  138.7819   75.8596  222.6846 H   0  0  0  0  0  0  0  0  0  0  0  0
  139.7026   77.8870  221.5560 H   0  0  0  0  0  0  0  0  0  0  0  0
  142.7435   76.7701  218.2654 H   0  0  0  0  0  0  0  0  0  0  0  0
  143.4258   78.8405  217.0877 H   0  0  0  0  0  0  0  0  0  0  0  0
  141.6245   81.2881  220.1536 H   0  0  0  0  0  0  0  0  0  0  0  0
  140.9408   79.2079  221.3237 H   0  0  0  0  0  0  0  0  0  0  0  0
  142.8388   75.4700  219.8396 H   0  0  0  0  0  0  0  0  0  0  0  0
  1  2  2  0
  2  3  1  0
  3  4  1  0
  4  5  1  0
  5  6  2  0
  6  7  1  0
  7  8  2  0
  8  9  1  0
  9 10  1  0
 10 11  2  0
 10 12  1  0
 12 13  1  0
 13 14  1  0
 14 15  1  0
  9 16  2  0
  4 17  2  0
 17 18  1  0
 18 19  2  0
 19 20  1  0
 20 21  2  0
 21 22  1  0
 22 23  2  0
 23 24  1  0
 24 25  2  0
 25 26  1  0
 25 27  1  0
 27 28  2  0
 21 29  1  0
 29 30  2  0
 30  2  1  0
 16  5  1  0
 30 18  1  0
 15 12  1  0
 28 22  1  0
  3 31  1  0
  3 32  1  0
  6 33  1  0
  7 34  1  0
  8 35  1  0
 13 36  1  0
 13 37  1  0
 14 38  1  0
 14 39  1  0
 15 40  1  0
 15 41  1  0
 16 42  1  0
 19 43  1  0
 20 44  1  0
 23 45  1  0
 24 46  1  0
 27 47  1  0
 28 48  1  0
 29 49  1  0
M  END
>  <smiles>  (2) 
O=C1CC(c2cccc(C(=O)N3CCC3)c2)=Nc2ccc(-c3ccc(F)cc3)cc21

>  <score_type>  (2) 
oracle

>  <origin>  (2) 
autodockgpu

>  <m_score__min__energy>  (2) 
-8.6400000000000006

>  <m_primary>  (2) 
energy

>  <rmsd>  (2) 
6.752128094670888

>  <m_score__min__rmsd>  (2) 
6.752128094670888

>  <meeko>  (2) 
{"free_energy": -8.57, "intermolecular_energy": -9.46, "internal_energy": -0.95, "cluster_size": 48, "cluster_id": 1, "rank_in_cluster": 8}

>  <energy>  (2) 
-8.6

>  <cluster_rmsd>  (2) 
0.27

>  <cluster>  (2) 
1

$$$$

     RDKit          3D

 49 53  0  0  0  0  0  0  0  0999 V2000
  143.1600   73.3060  219.9400 O   0  0  0  0  0  0  0  0  0  0  0  0
  142.1580   73.3010  220.6890 C   0  0  0  0  0  0  0  0  0  0  0  0
  141.6010   72.0260  221.2490 C   0  0  0  0  0  0  0  0  0  0  0  0
  140.4210   72.2530  222.0790 C   0  0  0  0  0  0  0  0  0  0  0  0
  139.6250   71.0920  222.5530 C   0  0  0  0  0  0  0  0  0  0  0  0
  138.8260   70.4030  221.6730 C   0  0  0  0  0  0  0  0  0  0  0  0
  138.1870   69.2420  222.0510 C   0  0  0  0  0  0  0  0  0  0  0  0
  138.3830   68.8020  223.3430 C   0  0  0  0  0  0  0  0  0  0  0  0
  139.1890   69.5050  224.2220 C   0  0  0  0  0  0  0  0  0  0  0  0
  139.4250   69.0010  225.5640 C   0  0  0  0  0  0  0  0  0  0  0  0
  139.2130   67.7690  225.7440 O   0  0  0  0  0  0  0  0  0  0  0  0
  139.8620   69.8540  226.5870 N   0  0  0  0  0  0  0  0  0  0  0  0
  140.1970   69.7510  227.9740 C   0  0  0  0  0  0  0  0  0  0  0  0
  141.0710   71.0000  227.7810 C   0  0  0  0  0  0  0  0  0  0  0  0
  140.1690   71.2810  226.6170 C   0  0  0  0  0  0  0  0  0  0  0  0
  139.8360   70.6700  223.8620 C   0  0  0  0  0  0  0  0  0  0  0  0
  139.8980   73.4060  222.3570 N   0  0  0  0  0  0  0  0  0  0  0  0
  140.4000   74.6310  221.8620 C   0  0  0  0  0  0  0  0  0  0  0  0
  139.7330   75.7930  222.1560 C   0  0  0  0  0  0  0  0  0  0  0  0
  140.1710   76.9660  221.5990 C   0  0  0  0  0  0  0  0  0  0  0  0
  141.2660   76.9150  220.7670 C   0  0  0  0  0  0  0  0  0  0  0  0
  141.6990   78.1050  220.0410 C   0  0  0  0  0  0  0  0  0  0  0  0
  142.2540   78.1030  218.7910 C   0  0  0  0  0  0  0  0  0  0  0  0
  142.5750   79.3130  218.2250 C   0  0  0  0  0  0  0  0  0  0  0  0
  142.3460   80.5110  218.8980 C   0  0  0  0  0  0  0  0  0  0  0  0
  142.6510   81.7110  218.3420 F   0  0  0  0  0  0  0  0  0  0  0  0
  141.7870   80.5290  220.1590 C   0  0  0  0  0  0  0  0  0  0  0  0
  141.4690   79.3140  220.7160 C   0  0  0  0  0  0  0  0  0  0  0  0
  141.9410   75.7400  220.4830 C   0  0  0  0  0  0  0  0  0  0  0  0
  141.5080   74.5650  221.0370 C   0  0  0  0  0  0  0  0  0  0  0  0
  141.3245   71.3645  220.4148 H   0  0  0  0  0  0  0  0  0  0  0  0
  142.3757   71.5709  221.8835 H   0  0  0  0  0  0  0  0  0  0  0  0
  138.6941   70.7844  220.6497 H   0  0  0  0  0  0  0  0  0  0  0  0
  137.5458   68.6881  221.3496 H   0  0  0  0  0  0  0  0  0  0  0  0
  137.8912   67.8778  223.6806 H   0  0  0  0  0  0  0  0  0  0  0  0
  139.3497   69.8850  228.6626 H   0  0  0  0  0  0  0  0  0  0  0  0
  140.5987   68.8228  228.4066 H   0  0  0  0  0  0  0  0  0  0  0  0
  141.0259   71.7352  228.5980 H   0  0  0  0  0  0  0  0  0  0  0  0
  142.1672   70.9611  227.6979 H   0  0  0  0  0  0  0  0  0  0  0  0
  139.3111   71.9294  226.8483 H   0  0  0  0  0  0  0  0  0  0  0  0
  140.5282   71.8130  225.7237 H   0  0  0  0  0  0  0  0  0  0  0  0
  140.4752   71.2272  224.5627 H   0  0  0  0  0  0  0  0  0  0  0  0
  138.8616   75.7835  222.8273 H   0  0  0  0  0  0  0  0  0  0  0  0
  139.6632   77.9186  221.8103 H   0  0  0  0  0  0  0  0  0  0  0  0
  142.4379   77.1604  218.2546 H   0  0  0  0  0  0  0  0  0  0  0  0
  143.0219   79.3363  217.2201 H   0  0  0  0  0  0  0  0  0  0  0  0
  141.6043   81.4726  220.6939 H   0  0  0  0  0  0  0  0  0  0  0  0
  141.0210   79.2879  221.7203 H   0  0  0  0  0  0  0  0  0  0  0  0
  142.8173   75.7503  219.8182 H   0  0  0  0  0  0  0  0  0  0  0  0
  1  2  2  0
  2  3  1  0
  3  4  1  0
  4  5  1  0
  5  6  2  0
  6  7  1  0
  7  8  2  0
  8  9  1  0
  9 10  1  0
 10 11  2  0
 10 12  1  0
 12 13  1  0
 13 14  1  0
 14 15  1  0
  9 16  2  0
  4 17  2  0
 17 18  1  0
 18 19  2  0
 19 20  1  0
 20 21  2  0
 21 22  1  0
 22 23  2  0
 23 24  1  0
 24 25  2  0
 25 26  1  0
 25 27  1  0
 27 28  2  0
 21 29  1  0
 29 30  2  0
 30  2  1  0
 16  5  1  0
 30 18  1  0
 15 12  1  0
 28 22  1  0
  3 31  1  0
  3 32  1  0
  6 33  1  0
  7 34  1  0
  8 35  1  0
 13 36  1  0
 13 37  1  0
 14 38  1  0
 14 39  1  0
 15 40  1  0
 15 41  1  0
 16 42  1  0
 19 43  1  0
 20 44  1  0
 23 45  1  0
 24 46  1  0
 27 47  1  0
 28 48  1  0
 29 49  1  0
M  END
>  <smiles>  (3) 
O=C1CC(c2cccc(C(=O)N3CCC3)c2)=Nc2ccc(-c3ccc(F)cc3)cc21

>  <score_type>  (3) 
oracle

>  <origin>  (3) 
autodockgpu

>  <m_score__min__energy>  (3) 
-8.6400000000000006

>  <m_primary>  (3) 
energy

>  <rmsd>  (3) 
6.705353192660664

>  <m_score__min__rmsd>  (3) 
6.705353192660664

>  <meeko>  (3) 
{"free_energy": -8.6, "intermolecular_energy": -9.5, "internal_energy": -0.74, "cluster_size": 48, "cluster_id": 1, "rank_in_cluster": 2}

>  <energy>  (3) 
-8.6

>  <cluster_rmsd>  (3) 
0.17

>  <cluster>  (3) 
1

$$$$

     RDKit          3D

 49 53  0  0  0  0  0  0  0  0999 V2000
  142.9620   72.9770  220.0750 O   0  0  0  0  0  0  0  0  0  0  0  0
  141.9710   73.0890  220.8310 C   0  0  0  0  0  0  0  0  0  0  0  0
  141.3380   71.8950  221.4800 C   0  0  0  0  0  0  0  0  0  0  0  0
  140.1850   72.2560  222.3030 C   0  0  0  0  0  0  0  0  0  0  0  0
  139.3200   71.1860  222.8590 C   0  0  0  0  0  0  0  0  0  0  0  0
  138.1720   70.8180  222.1990 C   0  0  0  0  0  0  0  0  0  0  0  0
  137.4260   69.7370  222.6170 C   0  0  0  0  0  0  0  0  0  0  0  0
  137.8770   69.0430  223.7200 C   0  0  0  0  0  0  0  0  0  0  0  0
  139.0340   69.4230  224.3780 C   0  0  0  0  0  0  0  0  0  0  0  0
  139.5220   68.6500  225.5080 C   0  0  0  0  0  0  0  0  0  0  0  0
  139.5510   67.3980  225.3580 O   0  0  0  0  0  0  0  0  0  0  0  0
  139.9320   69.2840  226.6900 N   0  0  0  0  0  0  0  0  0  0  0  0
  140.4530   68.9000  227.9650 C   0  0  0  0  0  0  0  0  0  0  0  0
  141.0670   70.3060  228.0570 C   0  0  0  0  0  0  0  0  0  0  0  0
  139.9890   70.6880  227.0880 C   0  0  0  0  0  0  0  0  0  0  0  0
  139.7940   70.5030  223.9760 C   0  0  0  0  0  0  0  0  0  0  0  0
  139.7440   73.4570  222.5070 N   0  0  0  0  0  0  0  0  0  0  0  0
  140.3200   74.6110  221.9270 C   0  0  0  0  0  0  0  0  0  0  0  0
  139.7360   75.8310  222.1470 C   0  0  0  0  0  0  0  0  0  0  0  0
  140.2450   76.9330  221.5100 C   0  0  0  0  0  0  0  0  0  0  0  0
  141.3240   76.7530  220.6730 C   0  0  0  0  0  0  0  0  0  0  0  0
  141.8260   77.8600  219.8660 C   0  0  0  0  0  0  0  0  0  0  0  0
  142.5230   77.7260  218.6980 C   0  0  0  0  0  0  0  0  0  0  0  0
  142.8960   78.8690  218.0320 C   0  0  0  0  0  0  0  0  0  0  0  0
  142.5770   80.1310  218.5270 C   0  0  0  0  0  0  0  0  0  0  0  0
  142.9330   81.2650  217.8710 F   0  0  0  0  0  0  0  0  0  0  0  0
  141.8750   80.2830  219.7050 C   0  0  0  0  0  0  0  0  0  0  0  0
  141.5060   79.1340  220.3610 C   0  0  0  0  0  0  0  0  0  0  0  0
  141.9150   75.5180  220.4630 C   0  0  0  0  0  0  0  0  0  0  0  0
  141.4120   74.4160  221.0990 C   0  0  0  0  0  0  0  0  0  0  0  0
  141.0078   71.1992  220.6946 H   0  0  0  0  0  0  0  0  0  0  0  0
  142.0887   71.4324  222.1376 H   0  0  0  0  0  0  0  0  0  0  0  0
  137.8431   71.3958  221.3226 H   0  0  0  0  0  0  0  0  0  0  0  0
  136.5067   69.4395  222.0913 H   0  0  0  0  0  0  0  0  0  0  0  0
  137.3085   68.1739  224.0826 H   0  0  0  0  0  0  0  0  0  0  0  0
  139.6897   68.6813  228.7263 H   0  0  0  0  0  0  0  0  0  0  0  0
  141.0605   67.9921  228.0939 H   0  0  0  0  0  0  0  0  0  0  0  0
  141.0003   70.7836  229.0457 H   0  0  0  0  0  0  0  0  0  0  0  0
  142.1338   70.5102  227.8829 H   0  0  0  0  0  0  0  0  0  0  0  0
  139.0686   71.0699  227.5538 H   0  0  0  0  0  0  0  0  0  0  0  0
  140.1338   71.4915  226.3508 H   0  0  0  0  0  0  0  0  0  0  0  0
  140.7119   70.8037  224.5024 H   0  0  0  0  0  0  0  0  0  0  0  0
  138.8735   75.9245  222.8232 H   0  0  0  0  0  0  0  0  0  0  0  0
  139.8055   77.9298  221.6625 H   0  0  0  0  0  0  0  0  0  0  0  0
  142.7781   76.7319  218.3023 H   0  0  0  0  0  0  0  0  0  0  0  0
  143.4574   78.7853  217.0897 H   0  0  0  0  0  0  0  0  0  0  0  0
  141.6226   81.2780  220.1004 H   0  0  0  0  0  0  0  0  0  0  0  0
  140.9428   79.2146  221.3025 H   0  0  0  0  0  0  0  0  0  0  0  0
  142.7808   75.4241  219.7910 H   0  0  0  0  0  0  0  0  0  0  0  0
  1  2  2  0
  2  3  1  0
  3  4  1  0
  4  5  1  0
  5  6  2  0
  6  7  1  0
  7  8  2  0
  8  9  1  0
  9 10  1  0
 10 11  2  0
 10 12  1  0
 12 13  1  0
 13 14  1  0
 14 15  1  0
  9 16  2  0
  4 17  2  0
 17 18  1  0
 18 19  2  0
 19 20  1  0
 20 21  2  0
 21 22  1  0
 22 23  2  0
 23 24  1  0
 24 25  2  0
 25 26  1  0
 25 27  1  0
 27 28  2  0
 21 29  1  0
 29 30  2  0
 30  2  1  0
 16  5  1  0
 30 18  1  0
 15 12  1  0
 28 22  1  0
  3 31  1  0
  3 32  1  0
  6 33  1  0
  7 34  1  0
  8 35  1  0
 13 36  1  0
 13 37  1  0
 14 38  1  0
 14 39  1  0
 15 40  1  0
 15 41  1  0
 16 42  1  0
 19 43  1  0
 20 44  1  0
 23 45  1  0
 24 46  1  0
 27 47  1  0
 28 48  1  0
 29 49  1  0
M  END
>  <smiles>  (4) 
O=C1CC(c2cccc(C(=O)N3CCC3)c2)=Nc2ccc(-c3ccc(F)cc3)cc21

>  <score_type>  (4) 
oracle

>  <origin>  (4) 
autodockgpu

>  <m_score__min__energy>  (4) 
-8.6400000000000006

>  <m_primary>  (4) 
energy

>  <rmsd>  (4) 
6.775009811662755

>  <m_score__min__rmsd>  (4) 
6.775009811662755

>  <meeko>  (4) 
{"free_energy": -8.56, "intermolecular_energy": -9.46, "internal_energy": -0.97, "cluster_size": 48, "cluster_id": 1, "rank_in_cluster": 10}

>  <energy>  (4) 
-8.6

>  <cluster_rmsd>  (4) 
0.13

>  <cluster>  (4) 
1

$$$$

     RDKit          3D

 49 53  0  0  0  0  0  0  0  0999 V2000
  142.7750   73.2440  220.1010 O   0  0  0  0  0  0  0  0  0  0  0  0
  141.7940   73.3470  220.8720 C   0  0  0  0  0  0  0  0  0  0  0  0
  141.1650   72.1440  221.5090 C   0  0  0  0  0  0  0  0  0  0  0  0
  140.0250   72.4950  222.3530 C   0  0  0  0  0  0  0  0  0  0  0  0
  139.1630   71.4190  222.9020 C   0  0  0  0  0  0  0  0  0  0  0  0
  137.9280   71.1790  222.3500 C   0  0  0  0  0  0  0  0  0  0  0  0
  137.1670   70.1000  222.7480 C   0  0  0  0  0  0  0  0  0  0  0  0
  137.6960   69.2740  223.7170 C   0  0  0  0  0  0  0  0  0  0  0  0
  138.9410   69.5260  224.2680 C   0  0  0  0  0  0  0  0  0  0  0  0
  139.5040   68.6180  225.2530 C   0  0  0  0  0  0  0  0  0  0  0  0
  139.5650   67.4020  224.9220 O   0  0  0  0  0  0  0  0  0  0  0  0
  139.9480   69.0900  226.4960 N   0  0  0  0  0  0  0  0  0  0  0  0
  140.5390   68.5470  227.6800 C   0  0  0  0  0  0  0  0  0  0  0  0
  141.1120   69.9460  227.9500 C   0  0  0  0  0  0  0  0  0  0  0  0
  139.9790   70.4230  227.0910 C   0  0  0  0  0  0  0  0  0  0  0  0
  139.7170   70.6020  223.8850 C   0  0  0  0  0  0  0  0  0  0  0  0
  139.5920   73.6940  222.5830 N   0  0  0  0  0  0  0  0  0  0  0  0
  140.1640   74.8550  222.0150 C   0  0  0  0  0  0  0  0  0  0  0  0
  139.5880   76.0740  222.2650 C   0  0  0  0  0  0  0  0  0  0  0  0
  140.0930   77.1840  221.6390 C   0  0  0  0  0  0  0  0  0  0  0  0
  141.1600   77.0150  220.7850 C   0  0  0  0  0  0  0  0  0  0  0  0
  141.6550   78.1340  219.9910 C   0  0  0  0  0  0  0  0  0  0  0  0
  141.5740   79.4500  220.3540 C   0  0  0  0  0  0  0  0  0  0  0  0
  142.1220   80.3880  219.5130 C   0  0  0  0  0  0  0  0  0  0  0  0
  142.7430   80.0170  218.3230 C   0  0  0  0  0  0  0  0  0  0  0  0
  143.2960   80.9360  217.4900 F   0  0  0  0  0  0  0  0  0  0  0  0
  142.8320   78.6940  217.9420 C   0  0  0  0  0  0  0  0  0  0  0  0
  142.2820   77.7650  218.7910 C   0  0  0  0  0  0  0  0  0  0  0  0
  141.7430   75.7820  220.5470 C   0  0  0  0  0  0  0  0  0  0  0  0
  141.2440   74.6700  221.1700 C   0  0  0  0  0  0  0  0  0  0  0  0
  140.8217   71.4630  220.7163 H   0  0  0  0  0  0  0  0  0  0  0  0
  141.9226   71.6673  222.1484 H   0  0  0  0  0  0  0  0  0  0  0  0
  137.5396   71.8590  221.5775 H   0  0  0  0  0  0  0  0  0  0  0  0
  136.1770   69.9059  222.3097 H   0  0  0  0  0  0  0  0  0  0  0  0
  137.1199   68.4011  224.0577 H   0  0  0  0  0  0  0  0  0  0  0  0
  139.8186   68.1927  228.4320 H   0  0  0  0  0  0  0  0  0  0  0  0
  141.1801   67.6536  227.6507 H   0  0  0  0  0  0  0  0  0  0  0  0
  141.0757   70.2737  228.9994 H   0  0  0  0  0  0  0  0  0  0  0  0
  142.1628   70.2129  227.7642 H   0  0  0  0  0  0  0  0  0  0  0  0
  139.0693   70.6990  227.6443 H   0  0  0  0  0  0  0  0  0  0  0  0
  140.0648   71.3291  226.4732 H   0  0  0  0  0  0  0  0  0  0  0  0
  140.7050   70.8005  224.3259 H   0  0  0  0  0  0  0  0  0  0  0  0
  138.7360   76.1596  222.9555 H   0  0  0  0  0  0  0  0  0  0  0  0
  139.6591   78.1796  221.8136 H   0  0  0  0  0  0  0  0  0  0  0  0
  141.0841   79.7489  221.2924 H   0  0  0  0  0  0  0  0  0  0  0  0
  142.0692   81.4526  219.7848 H   0  0  0  0  0  0  0  0  0  0  0  0
  143.3206   78.3971  217.0023 H   0  0  0  0  0  0  0  0  0  0  0  0
  142.3346   76.6996  218.5222 H   0  0  0  0  0  0  0  0  0  0  0  0
  142.6001   75.6967  219.8629 H   0  0  0  0  0  0  0  0  0  0  0  0
  1  2  2  0
  2  3  1  0
  3  4  1  0
  4  5  1  0
  5  6  2  0
  6  7  1  0
  7  8  2  0
  8  9  1  0
  9 10  1  0
 10 11  2  0
 10 12  1  0
 12 13  1  0
 13 14  1  0
 14 15  1  0
  9 16  2  0
  4 17  2  0
 17 18  1  0
 18 19  2  0
 19 20  1  0
 20 21  2  0
 21 22  1  0
 22 23  2  0
 23 24  1  0
 24 25  2  0
 25 26  1  0
 25 27  1  0
 27 28  2  0
 21 29  1  0
 29 30  2  0
 30  2  1  0
 16  5  1  0
 30 18  1  0
 15 12  1  0
 28 22  1  0
  3 31  1  0
  3 32  1  0
  6 33  1  0
  7 34  1  0
  8 35  1  0
 13 36  1  0
 13 37  1  0
 14 38  1  0
 14 39  1  0
 15 40  1  0
 15 41  1  0
 16 42  1  0
 19 43  1  0
 20 44  1  0
 23 45  1  0
 24 46  1  0
 27 47  1  0
 28 48  1  0
 29 49  1  0
M  END
>  <smiles>  (5) 
O=C1CC(c2cccc(C(=O)N3CCC3)c2)=Nc2ccc(-c3ccc(F)cc3)cc21

>  <score_type>  (5) 
oracle

>  <origin>  (5) 
autodockgpu

>  <m_score__min__energy>  (5) 
-8.6400000000000006

>  <m_primary>  (5) 
energy

>  <rmsd>  (5) 
6.790179878416303

>  <m_score__min__rmsd>  (5) 
6.790179878416303

>  <meeko>  (5) 
{"free_energy": -8.15, "intermolecular_energy": -9.05, "internal_energy": -1.01, "cluster_size": 48, "cluster_id": 1, "rank_in_cluster": 48}

>  <energy>  (5) 
-8.58

>  <cluster_rmsd>  (5) 
0.25

>  <cluster>  (5) 
1

$$$$

     RDKit          3D

 49 53  0  0  0  0  0  0  0  0999 V2000
  142.9010   72.9490  220.0970 O   0  0  0  0  0  0  0  0  0  0  0  0
  141.9160   73.0830  220.8580 C   0  0  0  0  0  0  0  0  0  0  0  0
  141.2750   71.9050  221.5290 C   0  0  0  0  0  0  0  0  0  0  0  0
  140.1310   72.2900  222.3530 C   0  0  0  0  0  0  0  0  0  0  0  0
  139.2590   71.2370  222.9310 C   0  0  0  0  0  0  0  0  0  0  0  0
  138.0640   70.9280  222.3270 C   0  0  0  0  0  0  0  0  0  0  0  0
  137.3010   69.8640  222.7590 C   0  0  0  0  0  0  0  0  0  0  0  0
  137.7860   69.1250  223.8180 C   0  0  0  0  0  0  0  0  0  0  0  0
  138.9910   69.4470  224.4200 C   0  0  0  0  0  0  0  0  0  0  0  0
  139.5110   68.6280  225.5020 C   0  0  0  0  0  0  0  0  0  0  0  0
  139.5460   67.3830  225.2950 O   0  0  0  0  0  0  0  0  0  0  0  0
  139.9440   69.2100  226.7020 N   0  0  0  0  0  0  0  0  0  0  0  0
  140.4980   68.7730  227.9460 C   0  0  0  0  0  0  0  0  0  0  0  0
  141.1030   70.1790  228.0880 C   0  0  0  0  0  0  0  0  0  0  0  0
  139.9990   70.5950  227.1620 C   0  0  0  0  0  0  0  0  0  0  0  0
  139.7680   70.5090  224.0030 C   0  0  0  0  0  0  0  0  0  0  0  0
  139.7040   73.4990  222.5420 N   0  0  0  0  0  0  0  0  0  0  0  0
  140.2880   74.6370  221.9410 C   0  0  0  0  0  0  0  0  0  0  0  0
  139.7190   75.8670  222.1480 C   0  0  0  0  0  0  0  0  0  0  0  0
  140.2340   76.9540  221.4900 C   0  0  0  0  0  0  0  0  0  0  0  0
  141.3060   76.7500  220.6500 C   0  0  0  0  0  0  0  0  0  0  0  0
  141.8140   77.8400  219.8230 C   0  0  0  0  0  0  0  0  0  0  0  0
  142.4930   77.6810  218.6470 C   0  0  0  0  0  0  0  0  0  0  0  0
  142.8740   78.8100  217.9630 C   0  0  0  0  0  0  0  0  0  0  0  0
  142.5820   80.0830  218.4480 C   0  0  0  0  0  0  0  0  0  0  0  0
  142.9470   81.2040  217.7740 F   0  0  0  0  0  0  0  0  0  0  0  0
  141.8990   80.2600  219.6330 C   0  0  0  0  0  0  0  0  0  0  0  0
  141.5210   79.1240  220.3080 C   0  0  0  0  0  0  0  0  0  0  0  0
  141.8820   75.5070  220.4540 C   0  0  0  0  0  0  0  0  0  0  0  0
  141.3720   74.4190  221.1100 C   0  0  0  0  0  0  0  0  0  0  0  0
  140.9332   71.2007  220.7563 H   0  0  0  0  0  0  0  0  0  0  0  0
  142.0250   71.4448  222.1890 H   0  0  0  0  0  0  0  0  0  0  0  0
  137.7101   71.5401  221.4843 H   0  0  0  0  0  0  0  0  0  0  0  0
  136.3436   69.6143  222.2783 H   0  0  0  0  0  0  0  0  0  0  0  0
  137.2069   68.2669  224.1900 H   0  0  0  0  0  0  0  0  0  0  0  0
  139.7546   68.5130  228.7139 H   0  0  0  0  0  0  0  0  0  0  0  0
  141.1156   67.8657  228.0191 H   0  0  0  0  0  0  0  0  0  0  0  0
  141.0557   70.6106  229.0987 H   0  0  0  0  0  0  0  0  0  0  0  0
  142.1637   70.4005  227.8989 H   0  0  0  0  0  0  0  0  0  0  0  0
  139.0867   70.9470  227.6658 H   0  0  0  0  0  0  0  0  0  0  0  0
  140.1200   71.4323  226.4590 H   0  0  0  0  0  0  0  0  0  0  0  0
  140.7238   70.7627  224.4847 H   0  0  0  0  0  0  0  0  0  0  0  0
  138.8637   75.9799  222.8305 H   0  0  0  0  0  0  0  0  0  0  0  0
  139.8045   77.9572  221.6287 H   0  0  0  0  0  0  0  0  0  0  0  0
  142.7274   76.6784  218.2598 H   0  0  0  0  0  0  0  0  0  0  0  0
  143.4203   78.7068  217.0138 H   0  0  0  0  0  0  0  0  0  0  0  0
  141.6676   81.2634  220.0198 H   0  0  0  0  0  0  0  0  0  0  0  0
  140.9727   79.2241  221.2563 H   0  0  0  0  0  0  0  0  0  0  0  0
  142.7418   75.3942  219.7772 H   0  0  0  0  0  0  0  0  0  0  0  0
  1  2  2  0
  2  3  1  0
  3  4  1  0
  4  5  1  0
  5  6  2  0
  6  7  1  0
  7  8  2  0
  8  9  1  0
  9 10  1  0
 10 11  2  0
 10 12  1  0
 12 13  1  0
 13 14  1  0
 14 15  1  0
  9 16  2  0
  4 17  2  0
 17 18  1  0
 18 19  2  0
 19 20  1  0
 20 21  2  0
 21 22  1  0
 22 23  2  0
 23 24  1  0
 24 25  2  0
 25 26  1  0
 25 27  1  0
 27 28  2  0
 21 29  1  0
 29 30  2  0
 30  2  1  0
 16  5  1  0
 30 18  1  0
 15 12  1  0
 28 22  1  0
  3 31  1  0
  3 32  1  0
  6 33  1  0
  7 34  1  0
  8 35  1  0
 13 36  1  0
 13 37  1  0
 14 38  1  0
 14 39  1  0
 15 40  1  0
 15 41  1  0
 16 42  1  0
 19 43  1  0
 20 44  1  0
 23 45  1  0
 24 46  1  0
 27 47  1  0
 28 48  1  0
 29 49  1  0
M  END
>  <smiles>  (6) 
O=C1CC(c2cccc(C(=O)N3CCC3)c2)=Nc2ccc(-c3ccc(F)cc3)cc21

>  <score_type>  (6) 
oracle

>  <origin>  (6) 
autodockgpu

>  <m_score__min__energy>  (6) 
-8.6400000000000006

>  <m_primary>  (6) 
energy

>  <rmsd>  (6) 
6.78642810838183

>  <m_score__min__rmsd>  (6) 
6.78642810838183

>  <meeko>  (6) 
{"free_energy": -8.55, "intermolecular_energy": -9.44, "internal_energy": -0.99, "cluster_size": 48, "cluster_id": 1, "rank_in_cluster": 18}

>  <energy>  (6) 
-8.57

>  <cluster_rmsd>  (6) 
0.61

>  <cluster>  (6) 
1

$$$$

     RDKit          3D

 49 53  0  0  0  0  0  0  0  0999 V2000
  142.8650   72.9500  220.1980 O   0  0  0  0  0  0  0  0  0  0  0  0
  141.8720   73.1220  220.9390 C   0  0  0  0  0  0  0  0  0  0  0  0
  141.2070   71.9780  221.6440 C   0  0  0  0  0  0  0  0  0  0  0  0
  140.0580   72.4060  222.4370 C   0  0  0  0  0  0  0  0  0  0  0  0
  139.1650   71.3860  223.0420 C   0  0  0  0  0  0  0  0  0  0  0  0
  137.8970   71.2030  222.5450 C   0  0  0  0  0  0  0  0  0  0  0  0
  137.0980   70.1720  222.9930 C   0  0  0  0  0  0  0  0  0  0  0  0
  137.6230   69.3350  223.9550 C   0  0  0  0  0  0  0  0  0  0  0  0
  138.9020   69.5290  224.4490 C   0  0  0  0  0  0  0  0  0  0  0  0
  139.4580   68.6080  225.4260 C   0  0  0  0  0  0  0  0  0  0  0  0
  139.5050   67.3930  225.0850 O   0  0  0  0  0  0  0  0  0  0  0  0
  139.9110   69.0660  226.6710 N   0  0  0  0  0  0  0  0  0  0  0  0
  140.5000   68.5080  227.8490 C   0  0  0  0  0  0  0  0  0  0  0  0
  141.0890   69.8990  228.1270 C   0  0  0  0  0  0  0  0  0  0  0  0
  139.9590   70.3950  227.2750 C   0  0  0  0  0  0  0  0  0  0  0  0
  139.7160   70.5560  224.0140 C   0  0  0  0  0  0  0  0  0  0  0  0
  139.6420   73.6260  222.5750 N   0  0  0  0  0  0  0  0  0  0  0  0
  140.2480   74.7340  221.9410 C   0  0  0  0  0  0  0  0  0  0  0  0
  139.6900   75.9780  222.0940 C   0  0  0  0  0  0  0  0  0  0  0  0
  140.2280   77.0330  221.4040 C   0  0  0  0  0  0  0  0  0  0  0  0
  141.3080   76.7860  220.5870 C   0  0  0  0  0  0  0  0  0  0  0  0
  141.8400   77.8390  219.7280 C   0  0  0  0  0  0  0  0  0  0  0  0
  142.5410   77.6290  218.5730 C   0  0  0  0  0  0  0  0  0  0  0  0
  142.9440   78.7270  217.8520 C   0  0  0  0  0  0  0  0  0  0  0  0
  142.6520   80.0200  218.2800 C   0  0  0  0  0  0  0  0  0  0  0  0
  143.0380   81.1110  217.5690 F   0  0  0  0  0  0  0  0  0  0  0  0
  141.9470   80.2480  219.4430 C   0  0  0  0  0  0  0  0  0  0  0  0
  141.5480   79.1440  220.1550 C   0  0  0  0  0  0  0  0  0  0  0  0
  141.8730   75.5300  220.4460 C   0  0  0  0  0  0  0  0  0  0  0  0
  141.3400   74.4730  221.1340 C   0  0  0  0  0  0  0  0  0  0  0  0
  140.8666   71.2499  220.8930 H   0  0  0  0  0  0  0  0  0  0  0  0
  141.9424   71.5339  222.3310 H   0  0  0  0  0  0  0  0  0  0  0  0
  137.5128   71.8904  221.7769 H   0  0  0  0  0  0  0  0  0  0  0  0
  136.0820   70.0232  222.5985 H   0  0  0  0  0  0  0  0  0  0  0  0
  137.0163   68.5002  224.3359 H   0  0  0  0  0  0  0  0  0  0  0  0
  139.7783   68.1561  228.6009 H   0  0  0  0  0  0  0  0  0  0  0  0
  141.1312   67.6079  227.8112 H   0  0  0  0  0  0  0  0  0  0  0  0
  141.0595   70.2195  229.1788 H   0  0  0  0  0  0  0  0  0  0  0  0
  142.1421   70.1555  227.9396 H   0  0  0  0  0  0  0  0  0  0  0  0
  139.0542   70.6777  227.8330 H   0  0  0  0  0  0  0  0  0  0  0  0
  140.0532   71.3043  226.6631 H   0  0  0  0  0  0  0  0  0  0  0  0
  140.7313   70.7079  224.4090 H   0  0  0  0  0  0  0  0  0  0  0  0
  138.8261   76.1261  222.7587 H   0  0  0  0  0  0  0  0  0  0  0  0
  139.8097   78.0458  221.5001 H   0  0  0  0  0  0  0  0  0  0  0  0
  142.7756   76.6102  218.2308 H   0  0  0  0  0  0  0  0  0  0  0  0
  143.5081   78.5822  216.9188 H   0  0  0  0  0  0  0  0  0  0  0  0
  141.7150   81.2676  219.7846 H   0  0  0  0  0  0  0  0  0  0  0  0
  140.9827   79.2863  221.0878 H   0  0  0  0  0  0  0  0  0  0  0  0
  142.7418   75.3826  219.7876 H   0  0  0  0  0  0  0  0  0  0  0  0
  1  2  2  0
  2  3  1  0
  3  4  1  0
  4  5  1  0
  5  6  2  0
  6  7  1  0
  7  8  2  0
  8  9  1  0
  9 10  1  0
 10 11  2  0
 10 12  1  0
 12 13  1  0
 13 14  1  0
 14 15  1  0
  9 16  2  0
  4 17  2  0
 17 18  1  0
 18 19  2  0
 19 20  1  0
 20 21  2  0
 21 22  1  0
 22 23  2  0
 23 24  1  0
 24 25  2  0
 25 26  1  0
 25 27  1  0
 27 28  2  0
 21 29  1  0
 29 30  2  0
 30  2  1  0
 16  5  1  0
 30 18  1  0
 15 12  1  0
 28 22  1  0
  3 31  1  0
  3 32  1  0
  6 33  1  0
  7 34  1  0
  8 35  1  0
 13 36  1  0
 13 37  1  0
 14 38  1  0
 14 39  1  0
 15 40  1  0
 15 41  1  0
 16 42  1  0
 19 43  1  0
 20 44  1  0
 23 45  1  0
 24 46  1  0
 27 47  1  0
 28 48  1  0
 29 49  1  0
M  END
>  <smiles>  (7) 
O=C1CC(c2cccc(C(=O)N3CCC3)c2)=Nc2ccc(-c3ccc(F)cc3)cc21

>  <score_type>  (7) 
oracle

>  <origin>  (7) 
autodockgpu

>  <m_score__min__energy>  (7) 
-8.6400000000000006

>  <m_primary>  (7) 
energy

>  <rmsd>  (7) 
6.798481170933166

>  <m_score__min__rmsd>  (7) 
6.798481170933166

>  <meeko>  (7) 
{"free_energy": -8.53, "intermolecular_energy": -9.43, "internal_energy": -1.01, "cluster_size": 48, "cluster_id": 1, "rank_in_cluster": 27}

>  <energy>  (7) 
-8.57

>  <cluster_rmsd>  (7) 
0.59

>  <cluster>  (7) 
1

$$$$

     RDKit          3D

 49 53  0  0  0  0  0  0  0  0999 V2000
  142.8980   72.9450  220.2760 O   0  0  0  0  0  0  0  0  0  0  0  0
  141.8900   73.1080  221.0000 C   0  0  0  0  0  0  0  0  0  0  0  0
  141.2340   71.9590  221.7050 C   0  0  0  0  0  0  0  0  0  0  0  0
  140.0650   72.3750  222.4770 C   0  0  0  0  0  0  0  0  0  0  0  0
  139.1790   71.3460  223.0760 C   0  0  0  0  0  0  0  0  0  0  0  0
  137.9270   71.1290  222.5540 C   0  0  0  0  0  0  0  0  0  0  0  0
  137.1390   70.0890  223.0000 C   0  0  0  0  0  0  0  0  0  0  0  0
  137.6590   69.2780  223.9860 C   0  0  0  0  0  0  0  0  0  0  0  0
  138.9220   69.5060  224.5070 C   0  0  0  0  0  0  0  0  0  0  0  0
  139.4740   68.6120  225.5100 C   0  0  0  0  0  0  0  0  0  0  0  0
  139.5240   67.3890  225.2030 O   0  0  0  0  0  0  0  0  0  0  0  0
  139.9200   69.1040  226.7450 N   0  0  0  0  0  0  0  0  0  0  0  0
  140.5030   68.5780  227.9400 C   0  0  0  0  0  0  0  0  0  0  0  0
  141.0900   69.9770  228.1840 C   0  0  0  0  0  0  0  0  0  0  0  0
  139.9640   70.4480  227.3130 C   0  0  0  0  0  0  0  0  0  0  0  0
  139.7250   70.5430  224.0740 C   0  0  0  0  0  0  0  0  0  0  0  0
  139.6280   73.5890  222.5970 N   0  0  0  0  0  0  0  0  0  0  0  0
  140.2250   74.7020  221.9630 C   0  0  0  0  0  0  0  0  0  0  0  0
  139.6450   75.9370  222.0950 C   0  0  0  0  0  0  0  0  0  0  0  0
  140.1760   76.9950  221.4040 C   0  0  0  0  0  0  0  0  0  0  0  0
  141.2730   76.7590  220.6060 C   0  0  0  0  0  0  0  0  0  0  0  0
  141.8010   77.8120  219.7460 C   0  0  0  0  0  0  0  0  0  0  0  0
  142.5090   77.6040  218.5950 C   0  0  0  0  0  0  0  0  0  0  0  0
  142.9070   78.7020  217.8720 C   0  0  0  0  0  0  0  0  0  0  0  0
  142.6040   79.9940  218.2940 C   0  0  0  0  0  0  0  0  0  0  0  0
  142.9850   81.0860  217.5810 F   0  0  0  0  0  0  0  0  0  0  0  0
  141.8920   80.2220  219.4530 C   0  0  0  0  0  0  0  0  0  0  0  0
  141.4970   79.1160  220.1670 C   0  0  0  0  0  0  0  0  0  0  0  0
  141.8600   75.5110  220.4850 C   0  0  0  0  0  0  0  0  0  0  0  0
  141.3340   74.4510  221.1750 C   0  0  0  0  0  0  0  0  0  0  0  0
  140.9175   71.2186  220.9556 H   0  0  0  0  0  0  0  0  0  0  0  0
  141.9661   71.5333  222.4070 H   0  0  0  0  0  0  0  0  0  0  0  0
  137.5465   71.7963  221.7667 H   0  0  0  0  0  0  0  0  0  0  0  0
  136.1353   69.9135  222.5855 H   0  0  0  0  0  0  0  0  0  0  0  0
  137.0612   68.4361  224.3652 H   0  0  0  0  0  0  0  0  0  0  0  0
  139.7777   68.2457  228.6973 H   0  0  0  0  0  0  0  0  0  0  0  0
  141.1349   67.6777  227.9294 H   0  0  0  0  0  0  0  0  0  0  0  0
  141.0546   70.3257  229.2267 H   0  0  0  0  0  0  0  0  0  0  0  0
  142.1439   70.2296  227.9957 H   0  0  0  0  0  0  0  0  0  0  0  0
  139.0561   70.7447  227.8586 H   0  0  0  0  0  0  0  0  0  0  0  0
  140.0607   71.3403  226.6771 H   0  0  0  0  0  0  0  0  0  0  0  0
  140.7277   70.7223  224.4893 H   0  0  0  0  0  0  0  0  0  0  0  0
  138.7683   76.0766  222.7445 H   0  0  0  0  0  0  0  0  0  0  0  0
  139.7393   78.0014  221.4845 H   0  0  0  0  0  0  0  0  0  0  0  0
  142.7531   76.5859  218.2574 H   0  0  0  0  0  0  0  0  0  0  0  0
  143.4760   78.5579  216.9417 H   0  0  0  0  0  0  0  0  0  0  0  0
  141.6516   81.2411  219.7901 H   0  0  0  0  0  0  0  0  0  0  0  0
  140.9255   79.2570  221.0962 H   0  0  0  0  0  0  0  0  0  0  0  0
  142.7407   75.3719  219.8407 H   0  0  0  0  0  0  0  0  0  0  0  0
  1  2  2  0
  2  3  1  0
  3  4  1  0
  4  5  1  0
  5  6  2  0
  6  7  1  0
  7  8  2  0
  8  9  1  0
  9 10  1  0
 10 11  2  0
 10 12  1  0
 12 13  1  0
 13 14  1  0
 14 15  1  0
  9 16  2  0
  4 17  2  0
 17 18  1  0
 18 19  2  0
 19 20  1  0
 20 21  2  0
 21 22  1  0
 22 23  2  0
 23 24  1  0
 24 25  2  0
 25 26  1  0
 25 27  1  0
 27 28  2  0
 21 29  1  0
 29 30  2  0
 30  2  1  0
 16  5  1  0
 30 18  1  0
 15 12  1  0
 28 22  1  0
  3 31  1  0
  3 32  1  0
  6 33  1  0
  7 34  1  0
  8 35  1  0
 13 36  1  0
 13 37  1  0
 14 38  1  0
 14 39  1  0
 15 40  1  0
 15 41  1  0
 16 42  1  0
 19 43  1  0
 20 44  1  0
 23 45  1  0
 24 46  1  0
 27 47  1  0
 28 48  1  0
 29 49  1  0
M  END
>  <smiles>  (8) 
O=C1CC(c2cccc(C(=O)N3CCC3)c2)=Nc2ccc(-c3ccc(F)cc3)cc21

>  <score_type>  (8) 
oracle

>  <origin>  (8) 
autodockgpu

>  <m_score__min__energy>  (8) 
-8.6400000000000006

>  <m_primary>  (8) 
energy

>  <rmsd>  (8) 
6.793890207141437

>  <m_score__min__rmsd>  (8) 
6.793890207141437

>  <meeko>  (8) 
{"free_energy": -8.52, "intermolecular_energy": -9.42, "internal_energy": -1.0, "cluster_size": 48, "cluster_id": 1, "rank_in_cluster": 31}

>  <energy>  (8) 
-8.57

>  <cluster_rmsd>  (8) 
0.63

>  <cluster>  (8) 
1

$$$$

     RDKit          3D

 49 53  0  0  0  0  0  0  0  0999 V2000
  143.1470   73.0130  220.1350 O   0  0  0  0  0  0  0  0  0  0  0  0
  142.1190   73.0910  220.8440 C   0  0  0  0  0  0  0  0  0  0  0  0
  141.4990   71.8760  221.4670 C   0  0  0  0  0  0  0  0  0  0  0  0
  140.2970   72.1970  222.2340 C   0  0  0  0  0  0  0  0  0  0  0  0
  139.4450   71.0980  222.7530 C   0  0  0  0  0  0  0  0  0  0  0  0
  138.3750   70.6530  222.0160 C   0  0  0  0  0  0  0  0  0  0  0  0
  137.6520   69.5450  222.4070 C   0  0  0  0  0  0  0  0  0  0  0  0
  138.0480   68.9060  223.5630 C   0  0  0  0  0  0  0  0  0  0  0  0
  139.1280   69.3640  224.2990 C   0  0  0  0  0  0  0  0  0  0  0  0
  139.5620   68.6490  225.4870 C   0  0  0  0  0  0  0  0  0  0  0  0
  139.5590   67.3890  225.4130 O   0  0  0  0  0  0  0  0  0  0  0  0
  139.9570   69.3410  226.6400 N   0  0  0  0  0  0  0  0  0  0  0  0
  140.4320   69.0220  227.9500 C   0  0  0  0  0  0  0  0  0  0  0  0
  141.0840   70.4130  227.9750 C   0  0  0  0  0  0  0  0  0  0  0  0
  140.0440   70.7650  226.9540 C   0  0  0  0  0  0  0  0  0  0  0  0
  139.8620   70.4720  223.9240 C   0  0  0  0  0  0  0  0  0  0  0  0
  139.8060   73.3830  222.4140 N   0  0  0  0  0  0  0  0  0  0  0  0
  140.3670   74.5550  221.8570 C   0  0  0  0  0  0  0  0  0  0  0  0
  139.7310   75.7550  222.0470 C   0  0  0  0  0  0  0  0  0  0  0  0
  140.2290   76.8720  221.4300 C   0  0  0  0  0  0  0  0  0  0  0  0
  141.3520   76.7290  220.6450 C   0  0  0  0  0  0  0  0  0  0  0  0
  141.8510   77.8520  219.8580 C   0  0  0  0  0  0  0  0  0  0  0  0
  142.5490   77.7410  218.6880 C   0  0  0  0  0  0  0  0  0  0  0  0
  142.9190   78.8960  218.0430 C   0  0  0  0  0  0  0  0  0  0  0  0
  142.5970   80.1490  218.5610 C   0  0  0  0  0  0  0  0  0  0  0  0
  142.9510   81.2960  217.9260 F   0  0  0  0  0  0  0  0  0  0  0  0
  141.8950   80.2770  219.7410 C   0  0  0  0  0  0  0  0  0  0  0  0
  141.5280   79.1160  220.3760 C   0  0  0  0  0  0  0  0  0  0  0  0
  141.9940   75.5160  220.4660 C   0  0  0  0  0  0  0  0  0  0  0  0
  141.5010   74.3970  221.0820 C   0  0  0  0  0  0  0  0  0  0  0  0
  141.2308   71.1675  220.6694 H   0  0  0  0  0  0  0  0  0  0  0  0
  142.2341   71.4415  222.1604 H   0  0  0  0  0  0  0  0  0  0  0  0
  138.0897   71.1889  221.0987 H   0  0  0  0  0  0  0  0  0  0  0  0
  136.7939   69.1856  221.8200 H   0  0  0  0  0  0  0  0  0  0  0  0
  137.4970   68.0179  223.9062 H   0  0  0  0  0  0  0  0  0  0  0  0
  139.6424   68.8713  228.7008 H   0  0  0  0  0  0  0  0  0  0  0  0
  141.0093   68.1074  228.1507 H   0  0  0  0  0  0  0  0  0  0  0  0
  141.0047   70.9515  228.9309 H   0  0  0  0  0  0  0  0  0  0  0  0
  142.1606   70.5767  227.8197 H   0  0  0  0  0  0  0  0  0  0  0  0
  139.1229   71.1998  227.3693 H   0  0  0  0  0  0  0  0  0  0  0  0
  140.2320   71.5177  226.1742 H   0  0  0  0  0  0  0  0  0  0  0  0
  140.7184   70.8353  224.5111 H   0  0  0  0  0  0  0  0  0  0  0  0
  138.8364   75.8195  222.6838 H   0  0  0  0  0  0  0  0  0  0  0  0
  139.7472   77.8526  221.5574 H   0  0  0  0  0  0  0  0  0  0  0  0
  142.8071   76.7548  218.2747 H   0  0  0  0  0  0  0  0  0  0  0  0
  143.4804   78.8306  217.0993 H   0  0  0  0  0  0  0  0  0  0  0  0
  141.6406   81.2640  220.1547 H   0  0  0  0  0  0  0  0  0  0  0  0
  140.9642   79.1784  221.3185 H   0  0  0  0  0  0  0  0  0  0  0  0
  142.8923   75.4515  219.8345 H   0  0  0  0  0  0  0  0  0  0  0  0
  1  2  2  0
  2  3  1  0
  3  4  1  0
  4  5  1  0
  5  6  2  0
  6  7  1  0
  7  8  2  0
  8  9  1  0
  9 10  1  0
 10 11  2  0
 10 12  1  0
 12 13  1  0
 13 14  1  0
 14 15  1  0
  9 16  2  0
  4 17  2  0
 17 18  1  0
 18 19  2  0
 19 20  1  0
 20 21  2  0
 21 22  1  0
 22 23  2  0
 23 24  1  0
 24 25  2  0
 25 26  1  0
 25 27  1  0
 27 28  2  0
 21 29  1  0
 29 30  2  0
 30  2  1  0
 16  5  1  0
 30 18  1  0
 15 12  1  0
 28 22  1  0
  3 31  1  0
  3 32  1  0
  6 33  1  0
  7 34  1  0
  8 35  1  0
 13 36  1  0
 13 37  1  0
 14 38  1  0
 14 39  1  0
 15 40  1  0
 15 41  1  0
 16 42  1  0
 19 43  1  0
 20 44  1  0
 23 45  1  0
 24 46  1  0
 27 47  1  0
 28 48  1  0
 29 49  1  0
M  END
>  <smiles>  (9) 
O=C1CC(c2cccc(C(=O)N3CCC3)c2)=Nc2ccc(-c3ccc(F)cc3)cc21

>  <score_type>  (9) 
oracle

>  <origin>  (9) 
autodockgpu

>  <m_score__min__energy>  (9) 
-8.6400000000000006

>  <m_primary>  (9) 
energy

>  <rmsd>  (9) 
6.755918969745294

>  <m_score__min__rmsd>  (9) 
6.755918969745294

>  <meeko>  (9) 
{"free_energy": -8.57, "intermolecular_energy": -9.46, "internal_energy": -0.94, "cluster_size": 48, "cluster_id": 1, "rank_in_cluster": 9}

>  <energy>  (9) 
-8.57

>  <cluster_rmsd>  (9) 
0.6

>  <cluster>  (9) 
1

$$$$

     RDKit          3D

 49 53  0  0  0  0  0  0  0  0999 V2000
  143.1400   73.3900  220.4060 O   0  0  0  0  0  0  0  0  0  0  0  0
  142.0620   73.3830  221.0410 C   0  0  0  0  0  0  0  0  0  0  0  0
  141.4900   72.1180  221.6060 C   0  0  0  0  0  0  0  0  0  0  0  0
  140.2180   72.3400  222.2890 C   0  0  0  0  0  0  0  0  0  0  0  0
  139.4140   71.1750  222.7360 C   0  0  0  0  0  0  0  0  0  0  0  0
  138.4060   70.6890  221.9370 C   0  0  0  0  0  0  0  0  0  0  0  0
  137.7380   69.5280  222.2610 C   0  0  0  0  0  0  0  0  0  0  0  0
  138.1210   68.8750  223.4130 C   0  0  0  0  0  0  0  0  0  0  0  0
  139.1370   69.3750  224.2120 C   0  0  0  0  0  0  0  0  0  0  0  0
  139.5620   68.6480  225.3960 C   0  0  0  0  0  0  0  0  0  0  0  0
  139.5590   67.3890  225.3110 O   0  0  0  0  0  0  0  0  0  0  0  0
  139.9480   69.3300  226.5590 N   0  0  0  0  0  0  0  0  0  0  0  0
  140.4130   68.9980  227.8700 C   0  0  0  0  0  0  0  0  0  0  0  0
  141.0640   70.3890  227.9130 C   0  0  0  0  0  0  0  0  0  0  0  0
  140.0320   70.7500  226.8870 C   0  0  0  0  0  0  0  0  0  0  0  0
  139.8170   70.5360  223.9050 C   0  0  0  0  0  0  0  0  0  0  0  0
  139.6290   73.4840  222.4460 N   0  0  0  0  0  0  0  0  0  0  0  0
  140.1420   74.7020  221.9430 C   0  0  0  0  0  0  0  0  0  0  0  0
  139.4080   75.8500  222.1000 C   0  0  0  0  0  0  0  0  0  0  0  0
  139.8660   77.0100  221.5310 C   0  0  0  0  0  0  0  0  0  0  0  0
  141.0480   76.9600  220.8260 C   0  0  0  0  0  0  0  0  0  0  0  0
  141.5180   78.1280  220.0890 C   0  0  0  0  0  0  0  0  0  0  0  0
  141.4500   79.4180  220.5370 C   0  0  0  0  0  0  0  0  0  0  0  0
  141.9720   80.4080  219.7400 C   0  0  0  0  0  0  0  0  0  0  0  0
  142.5530   80.1140  218.5090 C   0  0  0  0  0  0  0  0  0  0  0  0
  143.0800   81.0850  217.7190 F   0  0  0  0  0  0  0  0  0  0  0  0
  142.6290   78.8190  218.0430 C   0  0  0  0  0  0  0  0  0  0  0  0
  142.1060   77.8360  218.8480 C   0  0  0  0  0  0  0  0  0  0  0  0
  141.7880   75.7990  220.6810 C   0  0  0  0  0  0  0  0  0  0  0  0
  141.3360   74.6380  221.2480 C   0  0  0  0  0  0  0  0  0  0  0  0
  141.3302   71.4044  220.7843 H   0  0  0  0  0  0  0  0  0  0  0  0
  142.2046   71.7270  222.3453 H   0  0  0  0  0  0  0  0  0  0  0  0
  138.1282   71.2360  221.0240 H   0  0  0  0  0  0  0  0  0  0  0  0
  136.9302   69.1374  221.6248 H   0  0  0  0  0  0  0  0  0  0  0  0
  137.6127   67.9434  223.7023 H   0  0  0  0  0  0  0  0  0  0  0  0
  139.6176   68.8398  228.6132 H   0  0  0  0  0  0  0  0  0  0  0  0
  140.9889   68.0816  228.0665 H   0  0  0  0  0  0  0  0  0  0  0  0
  140.9768   70.9187  228.8731 H   0  0  0  0  0  0  0  0  0  0  0  0
  142.1417   70.5546  227.7677 H   0  0  0  0  0  0  0  0  0  0  0  0
  139.1074   71.1805  227.2990 H   0  0  0  0  0  0  0  0  0  0  0  0
  140.2260   71.5100  226.1158 H   0  0  0  0  0  0  0  0  0  0  0  0
  140.6232   70.9299  224.5413 H   0  0  0  0  0  0  0  0  0  0  0  0
  138.4686   75.8400  222.6723 H   0  0  0  0  0  0  0  0  0  0  0  0
  139.3068   77.9516  221.6343 H   0  0  0  0  0  0  0  0  0  0  0  0
  140.9906   79.6564  221.5076 H   0  0  0  0  0  0  0  0  0  0  0  0
  141.9302   81.4530  220.0809 H   0  0  0  0  0  0  0  0  0  0  0  0
  143.0873   78.5833  217.0712 H   0  0  0  0  0  0  0  0  0  0  0  0
  142.1492   76.7900  218.5104 H   0  0  0  0  0  0  0  0  0  0  0  0
  142.7311   75.8094  220.1150 H   0  0  0  0  0  0  0  0  0  0  0  0
  1  2  2  0
  2  3  1  0
  3  4  1  0
  4  5  1  0
  5  6  2  0
  6  7  1  0
  7  8  2  0
  8  9  1  0
  9 10  1  0
 10 11  2  0
 10 12  1  0
 12 13  1  0
 13 14  1  0
 14 15  1  0
  9 16  2  0
  4 17  2  0
 17 18  1  0
 18 19  2  0
 19 20  1  0
 20 21  2  0
 21 22  1  0
 22 23  2  0
 23 24  1  0
 24 25  2  0
 25 26  1  0
 25 27  1  0
 27 28  2  0
 21 29  1  0
 29 30  2  0
 30  2  1  0
 16  5  1  0
 30 18  1  0
 15 12  1  0
 28 22  1  0
  3 31  1  0
  3 32  1  0
  6 33  1  0
  7 34  1  0
  8 35  1  0
 13 36  1  0
 13 37  1  0
 14 38  1  0
 14 39  1  0
 15 40  1  0
 15 41  1  0
 16 42  1  0
 19 43  1  0
 20 44  1  0
 23 45  1  0
 24 46  1  0
 27 47  1  0
 28 48  1  0
 29 49  1  0
M  END
>  <smiles>  (10) 
O=C1CC(c2cccc(C(=O)N3CCC3)c2)=Nc2ccc(-c3ccc(F)cc3)cc21

>  <score_type>  (10) 
oracle

>  <origin>  (10) 
autodockgpu

>  <m_score__min__energy>  (10) 
-8.6400000000000006

>  <m_primary>  (10) 
energy

>  <rmsd>  (10) 
6.728108455558928

>  <m_score__min__rmsd>  (10) 
6.728108455558928

>  <meeko>  (10) 
{"free_energy": -8.4, "intermolecular_energy": -9.3, "internal_energy": -0.92, "cluster_size": 48, "cluster_id": 1, "rank_in_cluster": 45}

>  <energy>  (10) 
-8.56

>  <cluster_rmsd>  (10) 
0.7

>  <cluster>  (10) 
1

$$$$

     RDKit          3D

 49 53  0  0  0  0  0  0  0  0999 V2000
  143.0250   73.1190  220.1030 O   0  0  0  0  0  0  0  0  0  0  0  0
  142.0160   73.1620  220.8430 C   0  0  0  0  0  0  0  0  0  0  0  0
  141.4290   71.9200  221.4440 C   0  0  0  0  0  0  0  0  0  0  0  0
  140.2460   72.2010  222.2550 C   0  0  0  0  0  0  0  0  0  0  0  0
  139.4220   71.0750  222.7620 C   0  0  0  0  0  0  0  0  0  0  0  0
  138.3800   70.5930  222.0080 C   0  0  0  0  0  0  0  0  0  0  0  0
  137.6880   69.4620  222.3890 C   0  0  0  0  0  0  0  0  0  0  0  0
  138.0850   68.8380  223.5520 C   0  0  0  0  0  0  0  0  0  0  0  0
  139.1360   69.3330  224.3050 C   0  0  0  0  0  0  0  0  0  0  0  0
  139.5740   68.6340  225.5020 C   0  0  0  0  0  0  0  0  0  0  0  0
  139.5720   67.3730  225.4450 O   0  0  0  0  0  0  0  0  0  0  0  0
  139.9710   69.3430  226.6440 N   0  0  0  0  0  0  0  0  0  0  0  0
  140.4490   69.0420  227.9580 C   0  0  0  0  0  0  0  0  0  0  0  0
  141.0980   70.4340  227.9630 C   0  0  0  0  0  0  0  0  0  0  0  0
  140.0560   70.7710  226.9390 C   0  0  0  0  0  0  0  0  0  0  0  0
  139.8400   70.4640  223.9410 C   0  0  0  0  0  0  0  0  0  0  0  0
  139.7460   73.3730  222.4870 N   0  0  0  0  0  0  0  0  0  0  0  0
  140.2770   74.5700  221.9530 C   0  0  0  0  0  0  0  0  0  0  0  0
  139.6330   75.7540  222.2000 C   0  0  0  0  0  0  0  0  0  0  0  0
  140.1000   76.8980  221.6050 C   0  0  0  0  0  0  0  0  0  0  0  0
  141.2010   76.7940  220.7850 C   0  0  0  0  0  0  0  0  0  0  0  0
  141.6650   77.9480  220.0210 C   0  0  0  0  0  0  0  0  0  0  0  0
  142.2180   77.8920  218.7720 C   0  0  0  0  0  0  0  0  0  0  0  0
  142.5700   79.0730  218.1670 C   0  0  0  0  0  0  0  0  0  0  0  0
  142.3750   80.2980  218.8010 C   0  0  0  0  0  0  0  0  0  0  0  0
  142.7120   81.4710  218.2070 F   0  0  0  0  0  0  0  0  0  0  0  0
  141.8190   80.3720  220.0620 C   0  0  0  0  0  0  0  0  0  0  0  0
  141.4690   79.1840  220.6570 C   0  0  0  0  0  0  0  0  0  0  0  0
  141.8530   75.5960  220.5490 C   0  0  0  0  0  0  0  0  0  0  0  0
  141.3910   74.4510  221.1410 C   0  0  0  0  0  0  0  0  0  0  0  0
  141.1462   71.2339  220.6321 H   0  0  0  0  0  0  0  0  0  0  0  0
  142.1891   71.4732  222.1017 H   0  0  0  0  0  0  0  0  0  0  0  0
  138.0925   71.1176  221.0849 H   0  0  0  0  0  0  0  0  0  0  0  0
  136.8524   69.0736  221.7883 H   0  0  0  0  0  0  0  0  0  0  0  0
  137.5584   67.9323  223.8872 H   0  0  0  0  0  0  0  0  0  0  0  0
  139.6610   68.8998  228.7122 H   0  0  0  0  0  0  0  0  0  0  0  0
  141.0283   68.1312  228.1700 H   0  0  0  0  0  0  0  0  0  0  0  0
  141.0192   70.9851  228.9117 H   0  0  0  0  0  0  0  0  0  0  0  0
  142.1741   70.5973  227.8035 H   0  0  0  0  0  0  0  0  0  0  0  0
  139.1347   71.2097  227.3499 H   0  0  0  0  0  0  0  0  0  0  0  0
  140.2415   71.5138  226.1492 H   0  0  0  0  0  0  0  0  0  0  0  0
  140.6742   70.8554  224.5417 H   0  0  0  0  0  0  0  0  0  0  0  0
  138.7566   75.7863  222.8640 H   0  0  0  0  0  0  0  0  0  0  0  0
  139.6105   77.8678  221.7774 H   0  0  0  0  0  0  0  0  0  0  0  0
  142.3764   76.9281  218.2662 H   0  0  0  0  0  0  0  0  0  0  0  0
  143.0150   79.0516  217.1613 H   0  0  0  0  0  0  0  0  0  0  0  0
  141.6634   81.3368  220.5670 H   0  0  0  0  0  0  0  0  0  0  0  0
  141.0218   79.2020  221.6618 H   0  0  0  0  0  0  0  0  0  0  0  0
  142.7344   75.5641  219.8917 H   0  0  0  0  0  0  0  0  0  0  0  0
  1  2  2  0
  2  3  1  0
  3  4  1  0
  4  5  1  0
  5  6  2  0
  6  7  1  0
  7  8  2  0
  8  9  1  0
  9 10  1  0
 10 11  2  0
 10 12  1  0
 12 13  1  0
 13 14  1  0
 14 15  1  0
  9 16  2  0
  4 17  2  0
 17 18  1  0
 18 19  2  0
 19 20  1  0
 20 21  2  0
 21 22  1  0
 22 23  2  0
 23 24  1  0
 24 25  2  0
 25 26  1  0
 25 27  1  0
 27 28  2  0
 21 29  1  0
 29 30  2  0
 30  2  1  0
 16  5  1  0
 30 18  1  0
 15 12  1  0
 28 22  1  0
  3 31  1  0
  3 32  1  0
  6 33  1  0
  7 34  1  0
  8 35  1  0
 13 36  1  0
 13 37  1  0
 14 38  1  0
 14 39  1  0
 15 40  1  0
 15 41  1  0
 16 42  1  0
 19 43  1  0
 20 44  1  0
 23 45  1  0
 24 46  1  0
 27 47  1  0
 28 48  1  0
 29 49  1  0
M  END
>  <smiles>  (11) 
O=C1CC(c2cccc(C(=O)N3CCC3)c2)=Nc2ccc(-c3ccc(F)cc3)cc21

>  <score_type>  (11) 
oracle

>  <origin>  (11) 
autodockgpu

>  <m_score__min__energy>  (11) 
-8.6400000000000006

>  <m_primary>  (11) 
energy

>  <rmsd>  (11) 
6.751584926183997

>  <m_score__min__rmsd>  (11) 
6.751584926183997

>  <meeko>  (11) 
{"free_energy": -8.55, "intermolecular_energy": -9.45, "internal_energy": -0.92, "cluster_size": 48, "cluster_id": 1, "rank_in_cluster": 14}

>  <energy>  (11) 
-8.56

>  <cluster_rmsd>  (11) 
0.68

>  <cluster>  (11) 
1

$$$$

     RDKit          3D

 49 53  0  0  0  0  0  0  0  0999 V2000
  142.9420   72.9670  220.1700 O   0  0  0  0  0  0  0  0  0  0  0  0
  141.9400   73.0980  220.9090 C   0  0  0  0  0  0  0  0  0  0  0  0
  141.3000   71.9220  221.5830 C   0  0  0  0  0  0  0  0  0  0  0  0
  140.1360   72.3040  222.3790 C   0  0  0  0  0  0  0  0  0  0  0  0
  139.2650   71.2480  222.9540 C   0  0  0  0  0  0  0  0  0  0  0  0
  138.0720   70.9360  222.3460 C   0  0  0  0  0  0  0  0  0  0  0  0
  137.3120   69.8690  222.7760 C   0  0  0  0  0  0  0  0  0  0  0  0
  137.7960   69.1310  223.8360 C   0  0  0  0  0  0  0  0  0  0  0  0
  138.9980   69.4560  224.4420 C   0  0  0  0  0  0  0  0  0  0  0  0
  139.5180   68.6380  225.5250 C   0  0  0  0  0  0  0  0  0  0  0  0
  139.5710   67.3950  225.3110 O   0  0  0  0  0  0  0  0  0  0  0  0
  139.9300   69.2200  226.7320 N   0  0  0  0  0  0  0  0  0  0  0  0
  140.4770   68.7830  227.9790 C   0  0  0  0  0  0  0  0  0  0  0  0
  141.0620   70.1960  228.1350 C   0  0  0  0  0  0  0  0  0  0  0  0
  139.9630   70.6030  227.2000 C   0  0  0  0  0  0  0  0  0  0  0  0
  139.7730   70.5210  224.0270 C   0  0  0  0  0  0  0  0  0  0  0  0
  139.6900   73.5100  222.5420 N   0  0  0  0  0  0  0  0  0  0  0  0
  140.2720   74.6470  221.9380 C   0  0  0  0  0  0  0  0  0  0  0  0
  139.6830   75.8720  222.1150 C   0  0  0  0  0  0  0  0  0  0  0  0
  140.1980   76.9560  221.4530 C   0  0  0  0  0  0  0  0  0  0  0  0
  141.2890   76.7540  220.6370 C   0  0  0  0  0  0  0  0  0  0  0  0
  141.8000   77.8390  219.8060 C   0  0  0  0  0  0  0  0  0  0  0  0
  142.5140   77.6730  218.6510 C   0  0  0  0  0  0  0  0  0  0  0  0
  142.8940   78.7970  217.9580 C   0  0  0  0  0  0  0  0  0  0  0  0
  142.5660   80.0720  218.4130 C   0  0  0  0  0  0  0  0  0  0  0  0
  142.9290   81.1880  217.7290 F   0  0  0  0  0  0  0  0  0  0  0  0
  141.8470   80.2570  219.5750 C   0  0  0  0  0  0  0  0  0  0  0  0
  141.4720   79.1260  220.2600 C   0  0  0  0  0  0  0  0  0  0  0  0
  141.8850   75.5160  220.4710 C   0  0  0  0  0  0  0  0  0  0  0  0
  141.3750   74.4310  221.1310 C   0  0  0  0  0  0  0  0  0  0  0  0
  140.9817   71.2034  220.8134 H   0  0  0  0  0  0  0  0  0  0  0  0
  142.0423   71.4797  222.2637 H   0  0  0  0  0  0  0  0  0  0  0  0
  137.7182   71.5475  221.5029 H   0  0  0  0  0  0  0  0  0  0  0  0
  136.3568   69.6161  222.2925 H   0  0  0  0  0  0  0  0  0  0  0  0
  137.2183   68.2710  224.2057 H   0  0  0  0  0  0  0  0  0  0  0  0
  139.7293   68.5089  228.7379 H   0  0  0  0  0  0  0  0  0  0  0  0
  141.1056   67.8834  228.0534 H   0  0  0  0  0  0  0  0  0  0  0  0
  140.9985   70.6212  229.1475 H   0  0  0  0  0  0  0  0  0  0  0  0
  142.1217   70.4322  227.9583 H   0  0  0  0  0  0  0  0  0  0  0  0
  139.0412   70.9409  227.6960 H   0  0  0  0  0  0  0  0  0  0  0  0
  140.0810   71.4456  226.5027 H   0  0  0  0  0  0  0  0  0  0  0  0
  140.7268   70.7774  224.5113 H   0  0  0  0  0  0  0  0  0  0  0  0
  138.8117   75.9832  222.7772 H   0  0  0  0  0  0  0  0  0  0  0  0
  139.7540   77.9556  221.5697 H   0  0  0  0  0  0  0  0  0  0  0  0
  142.7764   76.6685  218.2875 H   0  0  0  0  0  0  0  0  0  0  0  0
  143.4682   78.6879  217.0261 H   0  0  0  0  0  0  0  0  0  0  0  0
  141.5859   81.2625  219.9367 H   0  0  0  0  0  0  0  0  0  0  0  0
  140.8976   79.2326  221.1920 H   0  0  0  0  0  0  0  0  0  0  0  0
  142.7606   75.4051  219.8145 H   0  0  0  0  0  0  0  0  0  0  0  0
  1  2  2  0
  2  3  1  0
  3  4  1  0
  4  5  1  0
  5  6  2  0
  6  7  1  0
  7  8  2  0
  8  9  1  0
  9 10  1  0
 10 11  2  0
 10 12  1  0
 12 13  1  0
 13 14  1  0
 14 15  1  0
  9 16  2  0
  4 17  2  0
 17 18  1  0
 18 19  2  0
 19 20  1  0
 20 21  2  0
 21 22  1  0
 22 23  2  0
 23 24  1  0
 24 25  2  0
 25 26  1  0
 25 27  1  0
 27 28  2  0
 21 29  1  0
 29 30  2  0
 30  2  1  0
 16  5  1  0
 30 18  1  0
 15 12  1  0
 28 22  1  0
  3 31  1  0
  3 32  1  0
  6 33  1  0
  7 34  1  0
  8 35  1  0
 13 36  1  0
 13 37  1  0
 14 38  1  0
 14 39  1  0
 15 40  1  0
 15 41  1  0
 16 42  1  0
 19 43  1  0
 20 44  1  0
 23 45  1  0
 24 46  1  0
 27 47  1  0
 28 48  1  0
 29 49  1  0
M  END
>  <smiles>  (12) 
O=C1CC(c2cccc(C(=O)N3CCC3)c2)=Nc2ccc(-c3ccc(F)cc3)cc21

>  <score_type>  (12) 
oracle

>  <origin>  (12) 
autodockgpu

>  <m_score__min__energy>  (12) 
-8.6400000000000006

>  <m_primary>  (12) 
energy

>  <rmsd>  (12) 
6.785779292137753

>  <m_score__min__rmsd>  (12) 
6.785779292137753

>  <meeko>  (12) 
{"free_energy": -8.55, "intermolecular_energy": -9.45, "internal_energy": -0.99, "cluster_size": 48, "cluster_id": 1, "rank_in_cluster": 16}

>  <energy>  (12) 
-8.56

>  <cluster_rmsd>  (12) 
0.75

>  <cluster>  (12) 
1

$$$$

     RDKit          3D

 49 53  0  0  0  0  0  0  0  0999 V2000
  143.2910   73.6240  220.0820 O   0  0  0  0  0  0  0  0  0  0  0  0
  142.2690   73.5130  220.7960 C   0  0  0  0  0  0  0  0  0  0  0  0
  141.7930   72.1780  221.2860 C   0  0  0  0  0  0  0  0  0  0  0  0
  140.5740   72.2820  222.0840 C   0  0  0  0  0  0  0  0  0  0  0  0
  139.8540   71.0480  222.4840 C   0  0  0  0  0  0  0  0  0  0  0  0
  139.2540   70.2630  221.5290 C   0  0  0  0  0  0  0  0  0  0  0  0
  138.7000   69.0430  221.8540 C   0  0  0  0  0  0  0  0  0  0  0  0
  138.7730   68.6440  223.1720 C   0  0  0  0  0  0  0  0  0  0  0  0
  139.3790   69.4440  224.1270 C   0  0  0  0  0  0  0  0  0  0  0  0
  139.4920   68.9860  225.5020 C   0  0  0  0  0  0  0  0  0  0  0  0
  139.2000   67.7770  225.7140 O   0  0  0  0  0  0  0  0  0  0  0  0
  139.9050   69.8580  226.5190 N   0  0  0  0  0  0  0  0  0  0  0  0
  140.1370   69.7980  227.9290 C   0  0  0  0  0  0  0  0  0  0  0  0
  141.0910   70.9880  227.7500 C   0  0  0  0  0  0  0  0  0  0  0  0
  140.2890   71.2670  226.5140 C   0  0  0  0  0  0  0  0  0  0  0  0
  139.9380   70.6680  223.8210 C   0  0  0  0  0  0  0  0  0  0  0  0
  139.9580   73.3810  222.3900 N   0  0  0  0  0  0  0  0  0  0  0  0
  140.3810   74.6600  221.9610 C   0  0  0  0  0  0  0  0  0  0  0  0
  139.6200   75.7550  222.2780 C   0  0  0  0  0  0  0  0  0  0  0  0
  139.9860   76.9800  221.7830 C   0  0  0  0  0  0  0  0  0  0  0  0
  141.1070   77.0450  220.9870 C   0  0  0  0  0  0  0  0  0  0  0  0
  141.4710   78.2930  220.3240 C   0  0  0  0  0  0  0  0  0  0  0  0
  141.3910   79.5350  220.8920 C   0  0  0  0  0  0  0  0  0  0  0  0
  141.8080   80.6130  220.1500 C   0  0  0  0  0  0  0  0  0  0  0  0
  142.2970   80.4550  218.8560 C   0  0  0  0  0  0  0  0  0  0  0  0
  142.7200   81.5140  218.1180 F   0  0  0  0  0  0  0  0  0  0  0  0
  142.3830   79.2100  218.2680 C   0  0  0  0  0  0  0  0  0  0  0  0
  141.9650   78.1390  219.0190 C   0  0  0  0  0  0  0  0  0  0  0  0
  141.8760   75.9360  220.6790 C   0  0  0  0  0  0  0  0  0  0  0  0
  141.5160   74.7110  221.1720 C   0  0  0  0  0  0  0  0  0  0  0  0
  141.5931   71.5333  220.4174 H   0  0  0  0  0  0  0  0  0  0  0  0
  142.5800   71.7554  221.9279 H   0  0  0  0  0  0  0  0  0  0  0  0
  139.2150   70.6140  220.4872 H   0  0  0  0  0  0  0  0  0  0  0  0
  138.2186   68.4126  221.0918 H   0  0  0  0  0  0  0  0  0  0  0  0
  138.3436   67.6760  223.4695 H   0  0  0  0  0  0  0  0  0  0  0  0
  139.2530   70.0071  228.5494 H   0  0  0  0  0  0  0  0  0  0  0  0
  140.4548   68.8693  228.4256 H   0  0  0  0  0  0  0  0  0  0  0  0
  141.0313   71.7591  228.5322 H   0  0  0  0  0  0  0  0  0  0  0  0
  142.1863   70.8865  227.7469 H   0  0  0  0  0  0  0  0  0  0  0  0
  139.4551   71.9698  226.6577 H   0  0  0  0  0  0  0  0  0  0  0  0
  140.7383   71.7401  225.6284 H   0  0  0  0  0  0  0  0  0  0  0  0
  140.4177   71.3010  224.5821 H   0  0  0  0  0  0  0  0  0  0  0  0
  138.7314   75.6527  222.9182 H   0  0  0  0  0  0  0  0  0  0  0  0
  139.4019   77.8829  222.0148 H   0  0  0  0  0  0  0  0  0  0  0  0
  141.0040   79.6665  221.9132 H   0  0  0  0  0  0  0  0  0  0  0  0
  141.7546   81.6212  220.5867 H   0  0  0  0  0  0  0  0  0  0  0  0
  142.7682   79.0813  217.2458 H   0  0  0  0  0  0  0  0  0  0  0  0
  142.0189   77.1297  218.5848 H   0  0  0  0  0  0  0  0  0  0  0  0
  142.7683   76.0383  220.0439 H   0  0  0  0  0  0  0  0  0  0  0  0
  1  2  2  0
  2  3  1  0
  3  4  1  0
  4  5  1  0
  5  6  2  0
  6  7  1  0
  7  8  2  0
  8  9  1  0
  9 10  1  0
 10 11  2  0
 10 12  1  0
 12 13  1  0
 13 14  1  0
 14 15  1  0
  9 16  2  0
  4 17  2  0
 17 18  1  0
 18 19  2  0
 19 20  1  0
 20 21  2  0
 21 22  1  0
 22 23  2  0
 23 24  1  0
 24 25  2  0
 25 26  1  0
 25 27  1  0
 27 28  2  0
 21 29  1  0
 29 30  2  0
 30  2  1  0
 16  5  1  0
 30 18  1  0
 15 12  1  0
 28 22  1  0
  3 31  1  0
  3 32  1  0
  6 33  1  0
  7 34  1  0
  8 35  1  0
 13 36  1  0
 13 37  1  0
 14 38  1  0
 14 39  1  0
 15 40  1  0
 15 41  1  0
 16 42  1  0
 19 43  1  0
 20 44  1  0
 23 45  1  0
 24 46  1  0
 27 47  1  0
 28 48  1  0
 29 49  1  0
M  END
>  <smiles>  (13) 
O=C1CC(c2cccc(C(=O)N3CCC3)c2)=Nc2ccc(-c3ccc(F)cc3)cc21

>  <score_type>  (13) 
oracle

>  <origin>  (13) 
autodockgpu

>  <m_score__min__energy>  (13) 
-8.6400000000000006

>  <m_primary>  (13) 
energy

>  <rmsd>  (13) 
6.688611639149654

>  <m_score__min__rmsd>  (13) 
6.688611639149654

>  <meeko>  (13) 
{"free_energy": -8.64, "intermolecular_energy": -9.54, "internal_energy": -0.64, "cluster_size": 48, "cluster_id": 1, "rank_in_cluster": 1}

>  <energy>  (13) 
-8.56

>  <cluster_rmsd>  (13) 
0.69

>  <cluster>  (13) 
1

$$$$

     RDKit          3D

 49 53  0  0  0  0  0  0  0  0999 V2000
  143.1280   73.6420  219.9260 O   0  0  0  0  0  0  0  0  0  0  0  0
  142.1380   73.5320  220.6840 C   0  0  0  0  0  0  0  0  0  0  0  0
  141.6610   72.1950  221.1650 C   0  0  0  0  0  0  0  0  0  0  0  0
  140.4820   72.3010  222.0210 C   0  0  0  0  0  0  0  0  0  0  0  0
  139.7580   71.0690  222.4260 C   0  0  0  0  0  0  0  0  0  0  0  0
  139.1100   70.3120  221.4800 C   0  0  0  0  0  0  0  0  0  0  0  0
  138.5500   69.0940  221.8040 C   0  0  0  0  0  0  0  0  0  0  0  0
  138.6680   68.6700  223.1110 C   0  0  0  0  0  0  0  0  0  0  0  0
  139.3220   69.4420  224.0560 C   0  0  0  0  0  0  0  0  0  0  0  0
  139.4800   68.9560  225.4160 C   0  0  0  0  0  0  0  0  0  0  0  0
  139.2310   67.7340  225.6060 O   0  0  0  0  0  0  0  0  0  0  0  0
  139.8880   69.8180  226.4450 N   0  0  0  0  0  0  0  0  0  0  0  0
  140.1530   69.7320  227.8480 C   0  0  0  0  0  0  0  0  0  0  0  0
  141.0650   70.9570  227.6770 C   0  0  0  0  0  0  0  0  0  0  0  0
  140.2260   71.2380  226.4660 C   0  0  0  0  0  0  0  0  0  0  0  0
  139.8870   70.6640  223.7510 C   0  0  0  0  0  0  0  0  0  0  0  0
  139.9010   73.4020  222.3800 N   0  0  0  0  0  0  0  0  0  0  0  0
  140.3270   74.6830  221.9620 C   0  0  0  0  0  0  0  0  0  0  0  0
  139.6020   75.7840  222.3390 C   0  0  0  0  0  0  0  0  0  0  0  0
  139.9670   77.0140  221.8560 C   0  0  0  0  0  0  0  0  0  0  0  0
  141.0510   77.0780  221.0100 C   0  0  0  0  0  0  0  0  0  0  0  0
  141.4070   78.3360  220.3600 C   0  0  0  0  0  0  0  0  0  0  0  0
  141.4450   79.5550  220.9790 C   0  0  0  0  0  0  0  0  0  0  0  0
  141.8380   80.6430  220.2380 C   0  0  0  0  0  0  0  0  0  0  0  0
  142.1860   80.5170  218.8950 C   0  0  0  0  0  0  0  0  0  0  0  0
  142.5840   81.5860  218.1580 F   0  0  0  0  0  0  0  0  0  0  0  0
  142.1510   79.2950  218.2570 C   0  0  0  0  0  0  0  0  0  0  0  0
  141.7590   78.2130  219.0070 C   0  0  0  0  0  0  0  0  0  0  0  0
  141.7850   75.9640  220.6420 C   0  0  0  0  0  0  0  0  0  0  0  0
  141.4250   74.7330  221.1220 C   0  0  0  0  0  0  0  0  0  0  0  0
  141.4096   71.5744  220.2923 H   0  0  0  0  0  0  0  0  0  0  0  0
  142.4689   71.7441  221.7600 H   0  0  0  0  0  0  0  0  0  0  0  0
  139.0367   70.6835  220.4472 H   0  0  0  0  0  0  0  0  0  0  0  0
  138.0299   68.4850  221.0499 H   0  0  0  0  0  0  0  0  0  0  0  0
  138.2356   67.7030  223.4074 H   0  0  0  0  0  0  0  0  0  0  0  0
  139.2769   69.8977  228.4922 H   0  0  0  0  0  0  0  0  0  0  0  0
  140.5110   68.8027  228.3151 H   0  0  0  0  0  0  0  0  0  0  0  0
  140.9985   71.7073  228.4786 H   0  0  0  0  0  0  0  0  0  0  0  0
  142.1627   70.8915  227.6475 H   0  0  0  0  0  0  0  0  0  0  0  0
  139.3733   71.9094  226.6451 H   0  0  0  0  0  0  0  0  0  0  0  0
  140.6395   71.7462  225.5824 H   0  0  0  0  0  0  0  0  0  0  0  0
  140.4042   71.2762  224.5044 H   0  0  0  0  0  0  0  0  0  0  0  0
  138.7422   75.6821  223.0174 H   0  0  0  0  0  0  0  0  0  0  0  0
  139.4112   77.9211  222.1357 H   0  0  0  0  0  0  0  0  0  0  0  0
  141.1691   79.6611  222.0386 H   0  0  0  0  0  0  0  0  0  0  0  0
  141.8787   81.6335  220.7147 H   0  0  0  0  0  0  0  0  0  0  0  0
  142.4243   79.1915  217.1965 H   0  0  0  0  0  0  0  0  0  0  0  0
  141.7198   77.2210  218.5332 H   0  0  0  0  0  0  0  0  0  0  0  0
  142.6498   76.0664  219.9700 H   0  0  0  0  0  0  0  0  0  0  0  0
  1  2  2  0
  2  3  1  0
  3  4  1  0
  4  5  1  0
  5  6  2  0
  6  7  1  0
  7  8  2  0
  8  9  1  0
  9 10  1  0
 10 11  2  0
 10 12  1  0
 12 13  1  0
 13 14  1  0
 14 15  1  0
  9 16  2  0
  4 17  2  0
 17 18  1  0
 18 19  2  0
 19 20  1  0
 20 21  2  0
 21 22  1  0
 22 23  2  0
 23 24  1  0
 24 25  2  0
 25 26  1  0
 25 27  1  0
 27 28  2  0
 21 29  1  0
 29 30  2  0
 30  2  1  0
 16  5  1  0
 30 18  1  0
 15 12  1  0
 28 22  1  0
  3 31  1  0
  3 32  1  0
  6 33  1  0
  7 34  1  0
  8 35  1  0
 13 36  1  0
 13 37  1  0
 14 38  1  0
 14 39  1  0
 15 40  1  0
 15 41  1  0
 16 42  1  0
 19 43  1  0
 20 44  1  0
 23 45  1  0
 24 46  1  0
 27 47  1  0
 28 48  1  0
 29 49  1  0
M  END
>  <smiles>  (14) 
O=C1CC(c2cccc(C(=O)N3CCC3)c2)=Nc2ccc(-c3ccc(F)cc3)cc21

>  <score_type>  (14) 
oracle

>  <origin>  (14) 
autodockgpu

>  <m_score__min__energy>  (14) 
-8.6400000000000006

>  <m_primary>  (14) 
energy

>  <rmsd>  (14) 
6.694996295385067

>  <m_score__min__rmsd>  (14) 
6.694996295385067

>  <meeko>  (14) 
{"free_energy": -8.6, "intermolecular_energy": -9.49, "internal_energy": -0.68, "cluster_size": 48, "cluster_id": 1, "rank_in_cluster": 4}

>  <energy>  (14) 
-8.55

>  <cluster_rmsd>  (14) 
0.52

>  <cluster>  (14) 
1

$$$$

     RDKit          3D

 49 53  0  0  0  0  0  0  0  0999 V2000
  143.0610   73.0090  220.2490 O   0  0  0  0  0  0  0  0  0  0  0  0
  142.0210   73.1150  220.9350 C   0  0  0  0  0  0  0  0  0  0  0  0
  141.3850   71.9260  221.5900 C   0  0  0  0  0  0  0  0  0  0  0  0
  140.1710   72.2780  222.3230 C   0  0  0  0  0  0  0  0  0  0  0  0
  139.3060   71.2000  222.8660 C   0  0  0  0  0  0  0  0  0  0  0  0
  138.1630   70.8360  222.1960 C   0  0  0  0  0  0  0  0  0  0  0  0
  137.4160   69.7490  222.6010 C   0  0  0  0  0  0  0  0  0  0  0  0
  137.8640   69.0460  223.6990 C   0  0  0  0  0  0  0  0  0  0  0  0
  139.0170   69.4230  224.3670 C   0  0  0  0  0  0  0  0  0  0  0  0
  139.5010   68.6410  225.4920 C   0  0  0  0  0  0  0  0  0  0  0  0
  139.5140   67.3890  225.3390 O   0  0  0  0  0  0  0  0  0  0  0  0
  139.9250   69.2660  226.6730 N   0  0  0  0  0  0  0  0  0  0  0  0
  140.4490   68.8720  227.9450 C   0  0  0  0  0  0  0  0  0  0  0  0
  141.0810   70.2700  228.0370 C   0  0  0  0  0  0  0  0  0  0  0  0
  140.0020   70.6680  227.0750 C   0  0  0  0  0  0  0  0  0  0  0  0
  139.7760   70.5080  223.9780 C   0  0  0  0  0  0  0  0  0  0  0  0
  139.6810   73.4700  222.4520 N   0  0  0  0  0  0  0  0  0  0  0  0
  140.2560   74.6200  221.8650 C   0  0  0  0  0  0  0  0  0  0  0  0
  139.6210   75.8280  222.0000 C   0  0  0  0  0  0  0  0  0  0  0  0
  140.1350   76.9210  221.3530 C   0  0  0  0  0  0  0  0  0  0  0  0
  141.2710   76.7470  220.5940 C   0  0  0  0  0  0  0  0  0  0  0  0
  141.7890   77.8400  219.7770 C   0  0  0  0  0  0  0  0  0  0  0  0
  142.4970   77.6850  218.6180 C   0  0  0  0  0  0  0  0  0  0  0  0
  142.8840   78.8160  217.9410 C   0  0  0  0  0  0  0  0  0  0  0  0
  142.5690   80.0870  218.4160 C   0  0  0  0  0  0  0  0  0  0  0  0
  142.9400   81.2100  217.7480 F   0  0  0  0  0  0  0  0  0  0  0  0
  141.8560   80.2590  219.5840 C   0  0  0  0  0  0  0  0  0  0  0  0
  141.4730   79.1220  220.2520 C   0  0  0  0  0  0  0  0  0  0  0  0
  141.9120   75.5260  220.4700 C   0  0  0  0  0  0  0  0  0  0  0  0
  141.4040   74.4310  221.1160 C   0  0  0  0  0  0  0  0  0  0  0  0
  141.1283   71.1901  220.8138 H   0  0  0  0  0  0  0  0  0  0  0  0
  142.1058   71.5148  222.3120 H   0  0  0  0  0  0  0  0  0  0  0  0
  137.8382   71.4206  221.3226 H   0  0  0  0  0  0  0  0  0  0  0  0
  136.4993   69.4549  222.0689 H   0  0  0  0  0  0  0  0  0  0  0  0
  137.2965   68.1716  224.0502 H   0  0  0  0  0  0  0  0  0  0  0  0
  139.6875   68.6608  228.7102 H   0  0  0  0  0  0  0  0  0  0  0  0
  141.0460   67.9563  228.0681 H   0  0  0  0  0  0  0  0  0  0  0  0
  141.0260   70.7458  229.0272 H   0  0  0  0  0  0  0  0  0  0  0  0
  142.1492   70.4614  227.8572 H   0  0  0  0  0  0  0  0  0  0  0  0
  139.0891   71.0599  227.5472 H   0  0  0  0  0  0  0  0  0  0  0  0
  140.1527   71.4717  226.3392 H   0  0  0  0  0  0  0  0  0  0  0  0
  140.6909   70.8057  224.5111 H   0  0  0  0  0  0  0  0  0  0  0  0
  138.7148   75.9179  222.6170 H   0  0  0  0  0  0  0  0  0  0  0  0
  139.6550   77.9072  221.4372 H   0  0  0  0  0  0  0  0  0  0  0  0
  142.7495   76.6839  218.2385 H   0  0  0  0  0  0  0  0  0  0  0  0
  143.4538   78.7159  217.0054 H   0  0  0  0  0  0  0  0  0  0  0  0
  141.6057   81.2608  219.9630 H   0  0  0  0  0  0  0  0  0  0  0  0
  140.9017   79.2190  221.1870 H   0  0  0  0  0  0  0  0  0  0  0  0
  142.8215   75.4365  219.8578 H   0  0  0  0  0  0  0  0  0  0  0  0
  1  2  2  0
  2  3  1  0
  3  4  1  0
  4  5  1  0
  5  6  2  0
  6  7  1  0
  7  8  2  0
  8  9  1  0
  9 10  1  0
 10 11  2  0
 10 12  1  0
 12 13  1  0
 13 14  1  0
 14 15  1  0
  9 16  2  0
  4 17  2  0
 17 18  1  0
 18 19  2  0
 19 20  1  0
 20 21  2  0
 21 22  1  0
 22 23  2  0
 23 24  1  0
 24 25  2  0
 25 26  1  0
 25 27  1  0
 27 28  2  0
 21 29  1  0
 29 30  2  0
 30  2  1  0
 16  5  1  0
 30 18  1  0
 15 12  1  0
 28 22  1  0
  3 31  1  0
  3 32  1  0
  6 33  1  0
  7 34  1  0
  8 35  1  0
 13 36  1  0
 13 37  1  0
 14 38  1  0
 14 39  1  0
 15 40  1  0
 15 41  1  0
 16 42  1  0
 19 43  1  0
 20 44  1  0
 23 45  1  0
 24 46  1  0
 27 47  1  0
 28 48  1  0
 29 49  1  0
M  END
>  <smiles>  (15) 
O=C1CC(c2cccc(C(=O)N3CCC3)c2)=Nc2ccc(-c3ccc(F)cc3)cc21

>  <score_type>  (15) 
oracle

>  <origin>  (15) 
autodockgpu

>  <m_score__min__energy>  (15) 
-8.6400000000000006

>  <m_primary>  (15) 
energy

>  <rmsd>  (15) 
6.760643798658894

>  <m_score__min__rmsd>  (15) 
6.760643798658894

>  <meeko>  (15) 
{"free_energy": -8.55, "intermolecular_energy": -9.45, "internal_energy": -0.96, "cluster_size": 48, "cluster_id": 1, "rank_in_cluster": 15}

>  <energy>  (15) 
-8.55

>  <cluster_rmsd>  (15) 
0.72

>  <cluster>  (15) 
1

$$$$

     RDKit          3D

 49 53  0  0  0  0  0  0  0  0999 V2000
  142.7980   72.8630  220.1790 O   0  0  0  0  0  0  0  0  0  0  0  0
  141.8300   73.0660  220.9450 C   0  0  0  0  0  0  0  0  0  0  0  0
  141.1630   71.9460  221.6860 C   0  0  0  0  0  0  0  0  0  0  0  0
  140.0460   72.4080  222.5050 C   0  0  0  0  0  0  0  0  0  0  0  0
  139.1500   71.4150  223.1490 C   0  0  0  0  0  0  0  0  0  0  0  0
  137.8310   71.3340  222.7730 C   0  0  0  0  0  0  0  0  0  0  0  0
  137.0140   70.3320  223.2520 C   0  0  0  0  0  0  0  0  0  0  0  0
  137.5730   69.4180  224.1200 C   0  0  0  0  0  0  0  0  0  0  0  0
  138.9040   69.5100  224.4930 C   0  0  0  0  0  0  0  0  0  0  0  0
  139.4900   68.5090  225.3680 C   0  0  0  0  0  0  0  0  0  0  0  0
  139.5770   67.3390  224.9020 O   0  0  0  0  0  0  0  0  0  0  0  0
  139.9270   68.8470  226.6570 N   0  0  0  0  0  0  0  0  0  0  0  0
  140.5330   68.1870  227.7710 C   0  0  0  0  0  0  0  0  0  0  0  0
  141.0760   69.5600  228.1970 C   0  0  0  0  0  0  0  0  0  0  0  0
  139.9300   70.1050  227.3980 C   0  0  0  0  0  0  0  0  0  0  0  0
  139.7370   70.5060  224.0250 C   0  0  0  0  0  0  0  0  0  0  0  0
  139.6590   73.6380  222.6360 N   0  0  0  0  0  0  0  0  0  0  0  0
  140.2680   74.7250  221.9690 C   0  0  0  0  0  0  0  0  0  0  0  0
  139.7390   75.9810  222.1190 C   0  0  0  0  0  0  0  0  0  0  0  0
  140.2780   77.0160  221.3990 C   0  0  0  0  0  0  0  0  0  0  0  0
  141.3290   76.7350  220.5550 C   0  0  0  0  0  0  0  0  0  0  0  0
  141.8570   77.7650  219.6660 C   0  0  0  0  0  0  0  0  0  0  0  0
  142.5590   77.5240  218.5170 C   0  0  0  0  0  0  0  0  0  0  0  0
  142.9580   78.6030  217.7650 C   0  0  0  0  0  0  0  0  0  0  0  0
  142.6610   79.9060  218.1550 C   0  0  0  0  0  0  0  0  0  0  0  0
  143.0420   80.9770  217.4130 F   0  0  0  0  0  0  0  0  0  0  0  0
  141.9550   80.1650  219.3110 C   0  0  0  0  0  0  0  0  0  0  0  0
  141.5600   79.0800  220.0550 C   0  0  0  0  0  0  0  0  0  0  0  0
  141.8640   75.4660  220.4170 C   0  0  0  0  0  0  0  0  0  0  0  0
  141.3310   74.4300  221.1350 C   0  0  0  0  0  0  0  0  0  0  0  0
  140.7868   71.2141  220.9560 H   0  0  0  0  0  0  0  0  0  0  0  0
  141.9091   71.4976  222.3585 H   0  0  0  0  0  0  0  0  0  0  0  0
  137.4199   72.0811  222.0781 H   0  0  0  0  0  0  0  0  0  0  0  0
  135.9575   70.2644  222.9534 H   0  0  0  0  0  0  0  0  0  0  0  0
  136.9527   68.6035  224.5223 H   0  0  0  0  0  0  0  0  0  0  0  0
  139.8229   67.7341  228.4785 H   0  0  0  0  0  0  0  0  0  0  0  0
  141.1934   67.3170  227.6408 H   0  0  0  0  0  0  0  0  0  0  0  0
  141.0357   69.7664  229.2767 H   0  0  0  0  0  0  0  0  0  0  0  0
  142.1200   69.8697  228.0419 H   0  0  0  0  0  0  0  0  0  0  0  0
  139.0161   70.2965  227.9794 H   0  0  0  0  0  0  0  0  0  0  0  0
  139.9935   71.0765  226.8860 H   0  0  0  0  0  0  0  0  0  0  0  0
  140.7932   70.5768  224.3239 H   0  0  0  0  0  0  0  0  0  0  0  0
  138.8969   76.1553  222.8050 H   0  0  0  0  0  0  0  0  0  0  0  0
  139.8833   78.0384  221.4927 H   0  0  0  0  0  0  0  0  0  0  0  0
  142.7972   76.4967  218.2041 H   0  0  0  0  0  0  0  0  0  0  0  0
  143.5232   78.4337  216.8366 H   0  0  0  0  0  0  0  0  0  0  0  0
  141.7191   81.1931  219.6229 H   0  0  0  0  0  0  0  0  0  0  0  0
  140.9940   79.2470  220.9833 H   0  0  0  0  0  0  0  0  0  0  0  0
  142.7102   75.2917  219.7362 H   0  0  0  0  0  0  0  0  0  0  0  0
  1  2  2  0
  2  3  1  0
  3  4  1  0
  4  5  1  0
  5  6  2  0
  6  7  1  0
  7  8  2  0
  8  9  1  0
  9 10  1  0
 10 11  2  0
 10 12  1  0
 12 13  1  0
 13 14  1  0
 14 15  1  0
  9 16  2  0
  4 17  2  0
 17 18  1  0
 18 19  2  0
 19 20  1  0
 20 21  2  0
 21 22  1  0
 22 23  2  0
 23 24  1  0
 24 25  2  0
 25 26  1  0
 25 27  1  0
 27 28  2  0
 21 29  1  0
 29 30  2  0
 30  2  1  0
 16  5  1  0
 30 18  1  0
 15 12  1  0
 28 22  1  0
  3 31  1  0
  3 32  1  0
  6 33  1  0
  7 34  1  0
  8 35  1  0
 13 36  1  0
 13 37  1  0
 14 38  1  0
 14 39  1  0
 15 40  1  0
 15 41  1  0
 16 42  1  0
 19 43  1  0
 20 44  1  0
 23 45  1  0
 24 46  1  0
 27 47  1  0
 28 48  1  0
 29 49  1  0
M  END
>  <smiles>  (16) 
O=C1CC(c2cccc(C(=O)N3CCC3)c2)=Nc2ccc(-c3ccc(F)cc3)cc21

>  <score_type>  (16) 
oracle

>  <origin>  (16) 
autodockgpu

>  <m_score__min__energy>  (16) 
-8.6400000000000006

>  <m_primary>  (16) 
energy

>  <rmsd>  (16) 
6.828177220767167

>  <m_score__min__rmsd>  (16) 
6.828177220767167

>  <meeko>  (16) 
{"free_energy": -8.45, "intermolecular_energy": -9.34, "internal_energy": -1.02, "cluster_size": 48, "cluster_id": 1, "rank_in_cluster": 43}

>  <energy>  (16) 
-8.55

>  <cluster_rmsd>  (16) 
0.78

>  <cluster>  (16) 
1

$$$$

     RDKit          3D

 49 53  0  0  0  0  0  0  0  0999 V2000
  142.7960   72.9190  220.0780 O   0  0  0  0  0  0  0  0  0  0  0  0
  141.8380   73.0990  220.8630 C   0  0  0  0  0  0  0  0  0  0  0  0
  141.1780   71.9560  221.5750 C   0  0  0  0  0  0  0  0  0  0  0  0
  140.0720   72.3930  222.4220 C   0  0  0  0  0  0  0  0  0  0  0  0
  139.1820   71.3810  223.0450 C   0  0  0  0  0  0  0  0  0  0  0  0
  137.9000   71.2140  222.5800 C   0  0  0  0  0  0  0  0  0  0  0  0
  137.1010   70.1910  223.0440 C   0  0  0  0  0  0  0  0  0  0  0  0
  137.6410   69.3450  223.9900 C   0  0  0  0  0  0  0  0  0  0  0  0
  138.9340   69.5230  224.4530 C   0  0  0  0  0  0  0  0  0  0  0  0
  139.5030   68.5920  225.4130 C   0  0  0  0  0  0  0  0  0  0  0  0
  139.5650   67.3850  225.0510 O   0  0  0  0  0  0  0  0  0  0  0  0
  139.9520   69.0350  226.6650 N   0  0  0  0  0  0  0  0  0  0  0  0
  140.5500   68.4640  227.8320 C   0  0  0  0  0  0  0  0  0  0  0  0
  141.1220   69.8580  228.1330 C   0  0  0  0  0  0  0  0  0  0  0  0
  139.9840   70.3540  227.2910 C   0  0  0  0  0  0  0  0  0  0  0  0
  139.7480   70.5420  224.0010 C   0  0  0  0  0  0  0  0  0  0  0  0
  139.6890   73.6190  222.5980 N   0  0  0  0  0  0  0  0  0  0  0  0
  140.2910   74.7260  221.9590 C   0  0  0  0  0  0  0  0  0  0  0  0
  139.7670   75.9780  222.1550 C   0  0  0  0  0  0  0  0  0  0  0  0
  140.2990   77.0340  221.4620 C   0  0  0  0  0  0  0  0  0  0  0  0
  141.3390   76.7790  220.5970 C   0  0  0  0  0  0  0  0  0  0  0  0
  141.8580   77.8360  219.7350 C   0  0  0  0  0  0  0  0  0  0  0  0
  142.5500   77.6310  218.5730 C   0  0  0  0  0  0  0  0  0  0  0  0
  142.9410   78.7330  217.8510 C   0  0  0  0  0  0  0  0  0  0  0  0
  142.6460   80.0230  218.2830 C   0  0  0  0  0  0  0  0  0  0  0  0
  143.0190   81.1170  217.5700 F   0  0  0  0  0  0  0  0  0  0  0  0
  141.9490   80.2460  219.4520 C   0  0  0  0  0  0  0  0  0  0  0  0
  141.5620   79.1390  220.1660 C   0  0  0  0  0  0  0  0  0  0  0  0
  141.8700   75.5140  220.4110 C   0  0  0  0  0  0  0  0  0  0  0  0
  141.3440   74.4560  221.1020 C   0  0  0  0  0  0  0  0  0  0  0  0
  140.7916   71.2489  220.8261 H   0  0  0  0  0  0  0  0  0  0  0  0
  141.9312   71.4843  222.2232 H   0  0  0  0  0  0  0  0  0  0  0  0
  137.5043   71.9086  221.8244 H   0  0  0  0  0  0  0  0  0  0  0  0
  136.0739   70.0549  222.6746 H   0  0  0  0  0  0  0  0  0  0  0  0
  137.0349   68.5155  224.3831 H   0  0  0  0  0  0  0  0  0  0  0  0
  139.8342   68.0900  228.5789 H   0  0  0  0  0  0  0  0  0  0  0  0
  141.1924   67.5727  227.7777 H   0  0  0  0  0  0  0  0  0  0  0  0
  141.0901   70.1602  229.1902 H   0  0  0  0  0  0  0  0  0  0  0  0
  142.1715   70.1311  227.9485 H   0  0  0  0  0  0  0  0  0  0  0  0
  139.0766   70.6157  227.8551 H   0  0  0  0  0  0  0  0  0  0  0  0
  140.0654   71.2746  226.6944 H   0  0  0  0  0  0  0  0  0  0  0  0
  140.7744   70.6817  224.3711 H   0  0  0  0  0  0  0  0  0  0  0  0
  138.9338   76.1321  222.8565 H   0  0  0  0  0  0  0  0  0  0  0  0
  139.9071   78.0535  221.5929 H   0  0  0  0  0  0  0  0  0  0  0  0
  142.7865   76.6141  218.2267 H   0  0  0  0  0  0  0  0  0  0  0  0
  143.4982   78.5929  216.9130 H   0  0  0  0  0  0  0  0  0  0  0  0
  141.7140   81.2639  219.7965 H   0  0  0  0  0  0  0  0  0  0  0  0
  141.0035   79.2771  221.1035 H   0  0  0  0  0  0  0  0  0  0  0  0
  142.7071   75.3605  219.7141 H   0  0  0  0  0  0  0  0  0  0  0  0
  1  2  2  0
  2  3  1  0
  3  4  1  0
  4  5  1  0
  5  6  2  0
  6  7  1  0
  7  8  2  0
  8  9  1  0
  9 10  1  0
 10 11  2  0
 10 12  1  0
 12 13  1  0
 13 14  1  0
 14 15  1  0
  9 16  2  0
  4 17  2  0
 17 18  1  0
 18 19  2  0
 19 20  1  0
 20 21  2  0
 21 22  1  0
 22 23  2  0
 23 24  1  0
 24 25  2  0
 25 26  1  0
 25 27  1  0
 27 28  2  0
 21 29  1  0
 29 30  2  0
 30  2  1  0
 16  5  1  0
 30 18  1  0
 15 12  1  0
 28 22  1  0
  3 31  1  0
  3 32  1  0
  6 33  1  0
  7 34  1  0
  8 35  1  0
 13 36  1  0
 13 37  1  0
 14 38  1  0
 14 39  1  0
 15 40  1  0
 15 41  1  0
 16 42  1  0
 19 43  1  0
 20 44  1  0
 23 45  1  0
 24 46  1  0
 27 47  1  0
 28 48  1  0
 29 49  1  0
M  END
>  <smiles>  (17) 
O=C1CC(c2cccc(C(=O)N3CCC3)c2)=Nc2ccc(-c3ccc(F)cc3)cc21

>  <score_type>  (17) 
oracle

>  <origin>  (17) 
autodockgpu

>  <m_score__min__energy>  (17) 
-8.6400000000000006

>  <m_primary>  (17) 
energy

>  <rmsd>  (17) 
6.818060054444429

>  <m_score__min__rmsd>  (17) 
6.818060054444429

>  <meeko>  (17) 
{"free_energy": -8.54, "intermolecular_energy": -9.43, "internal_energy": -1.01, "cluster_size": 48, "cluster_id": 1, "rank_in_cluster": 21}

>  <energy>  (17) 
-8.55

>  <cluster_rmsd>  (17) 
0.84

>  <cluster>  (17) 
1

$$$$

     RDKit          3D

 49 53  0  0  0  0  0  0  0  0999 V2000
  132.5510   71.2470  227.1360 O   0  0  0  0  0  0  0  0  0  0  0  0
  133.4790   71.5360  226.3480 C   0  0  0  0  0  0  0  0  0  0  0  0
  134.3270   70.4770  225.7100 C   0  0  0  0  0  0  0  0  0  0  0  0
  135.3600   71.0400  224.8430 C   0  0  0  0  0  0  0  0  0  0  0  0
  136.4130   70.1530  224.2880 C   0  0  0  0  0  0  0  0  0  0  0  0
  136.5900   70.0650  222.9280 C   0  0  0  0  0  0  0  0  0  0  0  0
  137.6460   69.3600  222.3910 C   0  0  0  0  0  0  0  0  0  0  0  0
  138.5140   68.7500  223.2720 C   0  0  0  0  0  0  0  0  0  0  0  0
  138.3250   68.8430  224.6400 C   0  0  0  0  0  0  0  0  0  0  0  0
  139.2770   68.2350  225.5540 C   0  0  0  0  0  0  0  0  0  0  0  0
  139.5560   67.0220  225.3470 O   0  0  0  0  0  0  0  0  0  0  0  0
  139.8420   68.9770  226.6020 N   0  0  0  0  0  0  0  0  0  0  0  0
  140.7750   68.7580  227.6630 C   0  0  0  0  0  0  0  0  0  0  0  0
  141.0430   70.2710  227.6430 C   0  0  0  0  0  0  0  0  0  0  0  0
  139.6770   70.3630  227.0300 C   0  0  0  0  0  0  0  0  0  0  0  0
  137.2730   69.5430  225.1970 C   0  0  0  0  0  0  0  0  0  0  0  0
  135.5390   72.2990  224.5940 N   0  0  0  0  0  0  0  0  0  0  0  0
  134.7530   73.3270  225.1620 C   0  0  0  0  0  0  0  0  0  0  0  0
  135.0670   74.6340  224.8910 C   0  0  0  0  0  0  0  0  0  0  0  0
  134.3590   75.6280  225.5160 C   0  0  0  0  0  0  0  0  0  0  0  0
  133.3620   75.2570  226.3900 C   0  0  0  0  0  0  0  0  0  0  0  0
  132.6630   76.2630  227.1830 C   0  0  0  0  0  0  0  0  0  0  0  0
  131.4010   76.1250  227.6900 C   0  0  0  0  0  0  0  0  0  0  0  0
  130.8940   77.1500  228.4520 C   0  0  0  0  0  0  0  0  0  0  0  0
  131.6370   78.3000  228.7040 C   0  0  0  0  0  0  0  0  0  0  0  0
  131.1480   79.3130  229.4640 F   0  0  0  0  0  0  0  0  0  0  0  0
  132.9110   78.4550  228.1990 C   0  0  0  0  0  0  0  0  0  0  0  0
  133.4090   77.4240  227.4400 C   0  0  0  0  0  0  0  0  0  0  0  0
  133.0430   73.9350  226.6500 C   0  0  0  0  0  0  0  0  0  0  0  0
  133.7460   72.9390  226.0280 C   0  0  0  0  0  0  0  0  0  0  0  0
  134.8126   69.8881  226.5021 H   0  0  0  0  0  0  0  0  0  0  0  0
  133.6708   69.8506  225.0879 H   0  0  0  0  0  0  0  0  0  0  0  0
  135.8769   70.5656  222.2565 H   0  0  0  0  0  0  0  0  0  0  0  0
  137.7905   69.2869  221.3030 H   0  0  0  0  0  0  0  0  0  0  0  0
  139.3702   68.1805  222.8814 H   0  0  0  0  0  0  0  0  0  0  0  0
  140.3297   68.3826  228.5962 H   0  0  0  0  0  0  0  0  0  0  0  0
  141.5893   68.0235  227.5770 H   0  0  0  0  0  0  0  0  0  0  0  0
  141.1468   70.7425  228.6314 H   0  0  0  0  0  0  0  0  0  0  0  0
  141.9391   70.7184  227.1881 H   0  0  0  0  0  0  0  0  0  0  0  0
  138.8616   70.5263  227.7501 H   0  0  0  0  0  0  0  0  0  0  0  0
  139.4160   71.1600  226.3182 H   0  0  0  0  0  0  0  0  0  0  0  0
  137.1247   69.6138  226.2847 H   0  0  0  0  0  0  0  0  0  0  0  0
  135.8731   74.8808  224.1843 H   0  0  0  0  0  0  0  0  0  0  0  0
  134.5806   76.6884  225.3252 H   0  0  0  0  0  0  0  0  0  0  0  0
  130.8083   75.2194  227.4936 H   0  0  0  0  0  0  0  0  0  0  0  0
  129.8810   77.0600  228.8712 H   0  0  0  0  0  0  0  0  0  0  0  0
  133.5011   79.3624  228.3950 H   0  0  0  0  0  0  0  0  0  0  0  0
  134.4224   77.5108  227.0212 H   0  0  0  0  0  0  0  0  0  0  0  0
  132.2317   73.6874  227.3503 H   0  0  0  0  0  0  0  0  0  0  0  0
  1  2  2  0
  2  3  1  0
  3  4  1  0
  4  5  1  0
  5  6  2  0
  6  7  1  0
  7  8  2  0
  8  9  1  0
  9 10  1  0
 10 11  2  0
 10 12  1  0
 12 13  1  0
 13 14  1  0
 14 15  1  0
  9 16  2  0
  4 17  2  0
 17 18  1  0
 18 19  2  0
 19 20  1  0
 20 21  2  0
 21 22  1  0
 22 23  2  0
 23 24  1  0
 24 25  2  0
 25 26  1  0
 25 27  1  0
 27 28  2  0
 21 29  1  0
 29 30  2  0
 30  2  1  0
 16  5  1  0
 30 18  1  0
 15 12  1  0
 28 22  1  0
  3 31  1  0
  3 32  1  0
  6 33  1  0
  7 34  1  0
  8 35  1  0
 13 36  1  0
 13 37  1  0
 14 38  1  0
 14 39  1  0
 15 40  1  0
 15 41  1  0
 16 42  1  0
 19 43  1  0
 20 44  1  0
 23 45  1  0
 24 46  1  0
 27 47  1  0
 28 48  1  0
 29 49  1  0
M  END
>  <smiles>  (18) 
O=C1CC(c2cccc(C(=O)N3CCC3)c2)=Nc2ccc(-c3ccc(F)cc3)cc21

>  <score_type>  (18) 
oracle

>  <origin>  (18) 
autodockgpu

>  <m_score__min__energy>  (18) 
-8.6400000000000006

>  <m_primary>  (18) 
energy

>  <rmsd>  (18) 
6.825225613678917

>  <m_score__min__rmsd>  (18) 
6.825225613678917

>  <meeko>  (18) 
{"free_energy": -8.02, "intermolecular_energy": -8.92, "internal_energy": -1.0, "cluster_size": 1, "cluster_id": 2, "rank_in_cluster": 1}

>  <energy>  (18) 
-8.55

>  <cluster_rmsd>  (18) 
0.78

>  <cluster>  (18) 
1

$$$$

     RDKit          3D

 49 53  0  0  0  0  0  0  0  0999 V2000
  143.0730   73.0310  220.2080 O   0  0  0  0  0  0  0  0  0  0  0  0
  142.0350   73.1300  220.9000 C   0  0  0  0  0  0  0  0  0  0  0  0
  141.4030   71.9330  221.5460 C   0  0  0  0  0  0  0  0  0  0  0  0
  140.1920   72.2770  222.2880 C   0  0  0  0  0  0  0  0  0  0  0  0
  139.3300   71.1950  222.8240 C   0  0  0  0  0  0  0  0  0  0  0  0
  138.1970   70.8190  222.1440 C   0  0  0  0  0  0  0  0  0  0  0  0
  137.4560   69.7270  222.5430 C   0  0  0  0  0  0  0  0  0  0  0  0
  137.8980   69.0300  223.6480 C   0  0  0  0  0  0  0  0  0  0  0  0
  139.0400   69.4190  224.3270 C   0  0  0  0  0  0  0  0  0  0  0  0
  139.5190   68.6440  225.4600 C   0  0  0  0  0  0  0  0  0  0  0  0
  139.5430   67.3910  225.3100 O   0  0  0  0  0  0  0  0  0  0  0  0
  139.9260   69.2760  226.6430 N   0  0  0  0  0  0  0  0  0  0  0  0
  140.4400   68.8890  227.9210 C   0  0  0  0  0  0  0  0  0  0  0  0
  141.0600   70.2920  228.0150 C   0  0  0  0  0  0  0  0  0  0  0  0
  139.9880   70.6790  227.0410 C   0  0  0  0  0  0  0  0  0  0  0  0
  139.7940   70.5090  223.9440 C   0  0  0  0  0  0  0  0  0  0  0  0
  139.7010   73.4680  222.4300 N   0  0  0  0  0  0  0  0  0  0  0  0
  140.2730   74.6240  221.8510 C   0  0  0  0  0  0  0  0  0  0  0  0
  139.6380   75.8300  222.0000 C   0  0  0  0  0  0  0  0  0  0  0  0
  140.1480   76.9300  221.3600 C   0  0  0  0  0  0  0  0  0  0  0  0
  141.2810   76.7630  220.5950 C   0  0  0  0  0  0  0  0  0  0  0  0
  141.7940   77.8640  219.7860 C   0  0  0  0  0  0  0  0  0  0  0  0
  142.5110   77.7210  218.6310 C   0  0  0  0  0  0  0  0  0  0  0  0
  142.8920   78.8580  217.9610 C   0  0  0  0  0  0  0  0  0  0  0  0
  142.5630   80.1240  218.4390 C   0  0  0  0  0  0  0  0  0  0  0  0
  142.9280   81.2530  217.7790 F   0  0  0  0  0  0  0  0  0  0  0  0
  141.8420   80.2850  219.6030 C   0  0  0  0  0  0  0  0  0  0  0  0
  141.4640   79.1420  220.2640 C   0  0  0  0  0  0  0  0  0  0  0  0
  141.9220   75.5440  220.4570 C   0  0  0  0  0  0  0  0  0  0  0  0
  141.4180   74.4430  221.0950 C   0  0  0  0  0  0  0  0  0  0  0  0
  141.1434   71.2047  220.7636 H   0  0  0  0  0  0  0  0  0  0  0  0
  142.1275   71.5147  222.2603 H   0  0  0  0  0  0  0  0  0  0  0  0
  137.8756   71.3990  221.2663 H   0  0  0  0  0  0  0  0  0  0  0  0
  136.5480   69.4236  222.0013 H   0  0  0  0  0  0  0  0  0  0  0  0
  137.3344   68.1514  223.9951 H   0  0  0  0  0  0  0  0  0  0  0  0
  139.6725   68.6740  228.6791 H   0  0  0  0  0  0  0  0  0  0  0  0
  141.0425   67.9782  228.0527 H   0  0  0  0  0  0  0  0  0  0  0  0
  140.9913   70.7703  229.0032 H   0  0  0  0  0  0  0  0  0  0  0  0
  142.1285   70.4910  227.8454 H   0  0  0  0  0  0  0  0  0  0  0  0
  139.0673   71.0653  227.5027 H   0  0  0  0  0  0  0  0  0  0  0  0
  140.1400   71.4816  226.3044 H   0  0  0  0  0  0  0  0  0  0  0  0
  140.7005   70.8157  224.4865 H   0  0  0  0  0  0  0  0  0  0  0  0
  138.7349   75.9136  222.6224 H   0  0  0  0  0  0  0  0  0  0  0  0
  139.6674   77.9149  221.4545 H   0  0  0  0  0  0  0  0  0  0  0  0
  142.7753   76.7239  218.2490 H   0  0  0  0  0  0  0  0  0  0  0  0
  143.4683   78.7668  217.0285 H   0  0  0  0  0  0  0  0  0  0  0  0
  141.5814   81.2832  219.9848 H   0  0  0  0  0  0  0  0  0  0  0  0
  140.8856   79.2306  221.1955 H   0  0  0  0  0  0  0  0  0  0  0  0
  142.8287   75.4608  219.8398 H   0  0  0  0  0  0  0  0  0  0  0  0
  1  2  2  0
  2  3  1  0
  3  4  1  0
  4  5  1  0
  5  6  2  0
  6  7  1  0
  7  8  2  0
  8  9  1  0
  9 10  1  0
 10 11  2  0
 10 12  1  0
 12 13  1  0
 13 14  1  0
 14 15  1  0
  9 16  2  0
  4 17  2  0
 17 18  1  0
 18 19  2  0
 19 20  1  0
 20 21  2  0
 21 22  1  0
 22 23  2  0
 23 24  1  0
 24 25  2  0
 25 26  1  0
 25 27  1  0
 27 28  2  0
 21 29  1  0
 29 30  2  0
 30  2  1  0
 16  5  1  0
 30 18  1  0
 15 12  1  0
 28 22  1  0
  3 31  1  0
  3 32  1  0
  6 33  1  0
  7 34  1  0
  8 35  1  0
 13 36  1  0
 13 37  1  0
 14 38  1  0
 14 39  1  0
 15 40  1  0
 15 41  1  0
 16 42  1  0
 19 43  1  0
 20 44  1  0
 23 45  1  0
 24 46  1  0
 27 47  1  0
 28 48  1  0
 29 49  1  0
M  END
>  <smiles>  (19) 
O=C1CC(c2cccc(C(=O)N3CCC3)c2)=Nc2ccc(-c3ccc(F)cc3)cc21

>  <score_type>  (19) 
oracle

>  <origin>  (19) 
autodockgpu

>  <m_score__min__energy>  (19) 
-8.6400000000000006

>  <m_primary>  (19) 
energy

>  <rmsd>  (19) 
6.762289295065392

>  <m_score__min__rmsd>  (19) 
6.762289295065392

>  <meeko>  (19) 
{"free_energy": -8.56, "intermolecular_energy": -9.45, "internal_energy": -0.96, "cluster_size": 48, "cluster_id": 1, "rank_in_cluster": 13}

>  <energy>  (19) 
-8.54

>  <cluster_rmsd>  (19) 
0.91

>  <cluster>  (19) 
1

$$$$

     RDKit          3D

 49 53  0  0  0  0  0  0  0  0999 V2000
  143.0770   73.0090  220.1840 O   0  0  0  0  0  0  0  0  0  0  0  0
  142.0480   73.1070  220.8890 C   0  0  0  0  0  0  0  0  0  0  0  0
  141.4160   71.9070  221.5290 C   0  0  0  0  0  0  0  0  0  0  0  0
  140.2170   72.2510  222.2900 C   0  0  0  0  0  0  0  0  0  0  0  0
  139.3530   71.1680  222.8240 C   0  0  0  0  0  0  0  0  0  0  0  0
  138.2270   70.7860  222.1360 C   0  0  0  0  0  0  0  0  0  0  0  0
  137.4860   69.6930  222.5340 C   0  0  0  0  0  0  0  0  0  0  0  0
  137.9210   69.0030  223.6460 C   0  0  0  0  0  0  0  0  0  0  0  0
  139.0560   69.3990  224.3330 C   0  0  0  0  0  0  0  0  0  0  0  0
  139.5280   68.6300  225.4730 C   0  0  0  0  0  0  0  0  0  0  0  0
  139.5440   67.3760  225.3340 O   0  0  0  0  0  0  0  0  0  0  0  0
  139.9370   69.2700  226.6510 N   0  0  0  0  0  0  0  0  0  0  0  0
  140.4460   68.8910  227.9340 C   0  0  0  0  0  0  0  0  0  0  0  0
  141.0750   70.2910  228.0170 C   0  0  0  0  0  0  0  0  0  0  0  0
  140.0070   70.6760  227.0370 C   0  0  0  0  0  0  0  0  0  0  0  0
  139.8110   70.4900  223.9510 C   0  0  0  0  0  0  0  0  0  0  0  0
  139.7360   73.4440  222.4510 N   0  0  0  0  0  0  0  0  0  0  0  0
  140.3090   74.6020  221.8780 C   0  0  0  0  0  0  0  0  0  0  0  0
  139.6840   75.8100  222.0490 C   0  0  0  0  0  0  0  0  0  0  0  0
  140.1940   76.9140  221.4160 C   0  0  0  0  0  0  0  0  0  0  0  0
  141.3160   76.7490  220.6350 C   0  0  0  0  0  0  0  0  0  0  0  0
  141.8270   77.8550  219.8330 C   0  0  0  0  0  0  0  0  0  0  0  0
  142.5010   77.7210  218.6500 C   0  0  0  0  0  0  0  0  0  0  0  0
  142.8860   78.8640  217.9920 C   0  0  0  0  0  0  0  0  0  0  0  0
  142.6040   80.1260  218.5090 C   0  0  0  0  0  0  0  0  0  0  0  0
  142.9720   81.2610  217.8600 F   0  0  0  0  0  0  0  0  0  0  0  0
  141.9260   80.2780  219.7000 C   0  0  0  0  0  0  0  0  0  0  0  0
  141.5440   79.1290  220.3500 C   0  0  0  0  0  0  0  0  0  0  0  0
  141.9480   75.5270  220.4760 C   0  0  0  0  0  0  0  0  0  0  0  0
  141.4430   74.4220  221.1070 C   0  0  0  0  0  0  0  0  0  0  0  0
  141.1415   71.1896  220.7416 H   0  0  0  0  0  0  0  0  0  0  0  0
  142.1464   71.4753  222.2291 H   0  0  0  0  0  0  0  0  0  0  0  0
  137.9112   71.3613  221.2532 H   0  0  0  0  0  0  0  0  0  0  0  0
  136.5836   69.3838  221.9861 H   0  0  0  0  0  0  0  0  0  0  0  0
  137.3574   68.1242  223.9926 H   0  0  0  0  0  0  0  0  0  0  0  0
  139.6755   68.6877  228.6923 H   0  0  0  0  0  0  0  0  0  0  0  0
  141.0424   67.9775  228.0751 H   0  0  0  0  0  0  0  0  0  0  0  0
  141.0073   70.7785  229.0007 H   0  0  0  0  0  0  0  0  0  0  0  0
  142.1451   70.4818  227.8479 H   0  0  0  0  0  0  0  0  0  0  0  0
  139.0878   71.0720  227.4934 H   0  0  0  0  0  0  0  0  0  0  0  0
  140.1656   71.4712  226.2937 H   0  0  0  0  0  0  0  0  0  0  0  0
  140.7122   70.8022  224.4991 H   0  0  0  0  0  0  0  0  0  0  0  0
  138.7889   75.8921  222.6830 H   0  0  0  0  0  0  0  0  0  0  0  0
  139.7215   77.9010  221.5285 H   0  0  0  0  0  0  0  0  0  0  0  0
  142.7281   76.7269  218.2376 H   0  0  0  0  0  0  0  0  0  0  0  0
  143.4276   78.7807  217.0382 H   0  0  0  0  0  0  0  0  0  0  0  0
  141.7012   81.2733  220.1110 H   0  0  0  0  0  0  0  0  0  0  0  0
  141.0007   79.2100  221.3031 H   0  0  0  0  0  0  0  0  0  0  0  0
  142.8476   75.4450  219.8484 H   0  0  0  0  0  0  0  0  0  0  0  0
  1  2  2  0
  2  3  1  0
  3  4  1  0
  4  5  1  0
  5  6  2  0
  6  7  1  0
  7  8  2  0
  8  9  1  0
  9 10  1  0
 10 11  2  0
 10 12  1  0
 12 13  1  0
 13 14  1  0
 14 15  1  0
  9 16  2  0
  4 17  2  0
 17 18  1  0
 18 19  2  0
 19 20  1  0
 20 21  2  0
 21 22  1  0
 22 23  2  0
 23 24  1  0
 24 25  2  0
 25 26  1  0
 25 27  1  0
 27 28  2  0
 21 29  1  0
 29 30  2  0
 30  2  1  0
 16  5  1  0
 30 18  1  0
 15 12  1  0
 28 22  1  0
  3 31  1  0
  3 32  1  0
  6 33  1  0
  7 34  1  0
  8 35  1  0
 13 36  1  0
 13 37  1  0
 14 38  1  0
 14 39  1  0
 15 40  1  0
 15 41  1  0
 16 42  1  0
 19 43  1  0
 20 44  1  0
 23 45  1  0
 24 46  1  0
 27 47  1  0
 28 48  1  0
 29 49  1  0
M  END
>  <smiles>  (20) 
O=C1CC(c2cccc(C(=O)N3CCC3)c2)=Nc2ccc(-c3ccc(F)cc3)cc21

>  <score_type>  (20) 
oracle

>  <origin>  (20) 
autodockgpu

>  <m_score__min__energy>  (20) 
-8.6400000000000006

>  <m_primary>  (20) 
energy

>  <rmsd>  (20) 
6.762781715804879

>  <m_score__min__rmsd>  (20) 
6.762781715804879

>  <meeko>  (20) 
{"free_energy": -8.56, "intermolecular_energy": -9.46, "internal_energy": -0.96, "cluster_size": 48, "cluster_id": 1, "rank_in_cluster": 11}

>  <energy>  (20) 
-8.54

>  <cluster_rmsd>  (20) 
0.92

>  <cluster>  (20) 
1

$$$$

     RDKit          3D

 49 53  0  0  0  0  0  0  0  0999 V2000
  142.7120   72.8240  220.0310 O   0  0  0  0  0  0  0  0  0  0  0  0
  141.7810   73.0300  220.8420 C   0  0  0  0  0  0  0  0  0  0  0  0
  141.1150   71.9060  221.5770 C   0  0  0  0  0  0  0  0  0  0  0  0
  140.0440   72.3740  222.4540 C   0  0  0  0  0  0  0  0  0  0  0  0
  139.1490   71.3850  223.1070 C   0  0  0  0  0  0  0  0  0  0  0  0
  137.8390   71.2770  222.7070 C   0  0  0  0  0  0  0  0  0  0  0  0
  137.0250   70.2770  223.1970 C   0  0  0  0  0  0  0  0  0  0  0  0
  137.5800   69.3940  224.0990 C   0  0  0  0  0  0  0  0  0  0  0  0
  138.9010   69.5130  224.4960 C   0  0  0  0  0  0  0  0  0  0  0  0
  139.4820   68.5440  225.4090 C   0  0  0  0  0  0  0  0  0  0  0  0
  139.5620   67.3570  224.9880 O   0  0  0  0  0  0  0  0  0  0  0  0
  139.9230   68.9290  226.6830 N   0  0  0  0  0  0  0  0  0  0  0  0
  140.5270   68.3090  227.8220 C   0  0  0  0  0  0  0  0  0  0  0  0
  141.0780   69.6950  228.1930 C   0  0  0  0  0  0  0  0  0  0  0  0
  139.9340   70.2150  227.3750 C   0  0  0  0  0  0  0  0  0  0  0  0
  139.7300   70.5080  224.0180 C   0  0  0  0  0  0  0  0  0  0  0  0
  139.6970   73.6090  222.6360 N   0  0  0  0  0  0  0  0  0  0  0  0
  140.3080   74.6980  221.9750 C   0  0  0  0  0  0  0  0  0  0  0  0
  139.8200   75.9630  222.1820 C   0  0  0  0  0  0  0  0  0  0  0  0
  140.3570   77.0040  221.4690 C   0  0  0  0  0  0  0  0  0  0  0  0
  141.3650   76.7210  220.5750 C   0  0  0  0  0  0  0  0  0  0  0  0
  141.8840   77.7620  219.6940 C   0  0  0  0  0  0  0  0  0  0  0  0
  142.5630   77.5360  218.5290 C   0  0  0  0  0  0  0  0  0  0  0  0
  142.9560   78.6240  217.7880 C   0  0  0  0  0  0  0  0  0  0  0  0
  142.6750   79.9230  218.2060 C   0  0  0  0  0  0  0  0  0  0  0  0
  143.0510   81.0040  217.4750 F   0  0  0  0  0  0  0  0  0  0  0  0
  141.9930   80.1670  219.3790 C   0  0  0  0  0  0  0  0  0  0  0  0
  141.6040   79.0720  220.1110 C   0  0  0  0  0  0  0  0  0  0  0  0
  141.8590   75.4430  220.3800 C   0  0  0  0  0  0  0  0  0  0  0  0
  141.3280   74.4000  221.0900 C   0  0  0  0  0  0  0  0  0  0  0  0
  140.6902   71.2058  220.8426 H   0  0  0  0  0  0  0  0  0  0  0  0
  141.8748   71.4178  222.2050 H   0  0  0  0  0  0  0  0  0  0  0  0
  137.4327   71.9998  221.9842 H   0  0  0  0  0  0  0  0  0  0  0  0
  135.9752   70.1875  222.8809 H   0  0  0  0  0  0  0  0  0  0  0  0
  136.9629   68.5814  224.5100 H   0  0  0  0  0  0  0  0  0  0  0  0
  139.8153   67.8881  228.5475 H   0  0  0  0  0  0  0  0  0  0  0  0
  141.1822   67.4307  227.7254 H   0  0  0  0  0  0  0  0  0  0  0  0
  141.0406   69.9437  229.2638 H   0  0  0  0  0  0  0  0  0  0  0  0
  142.1235   69.9925  228.0242 H   0  0  0  0  0  0  0  0  0  0  0  0
  139.0220   70.4339  227.9497 H   0  0  0  0  0  0  0  0  0  0  0  0
  140.0021   71.1656  226.8258 H   0  0  0  0  0  0  0  0  0  0  0  0
  140.7790   70.6013  224.3358 H   0  0  0  0  0  0  0  0  0  0  0  0
  139.0120   76.1394  222.9073 H   0  0  0  0  0  0  0  0  0  0  0  0
  139.9937   78.0331  221.6070 H   0  0  0  0  0  0  0  0  0  0  0  0
  142.7881   76.5125  218.1947 H   0  0  0  0  0  0  0  0  0  0  0  0
  143.5029   78.4666  216.8467 H   0  0  0  0  0  0  0  0  0  0  0  0
  141.7707   81.1912  219.7131 H   0  0  0  0  0  0  0  0  0  0  0  0
  141.0565   79.2267  221.0524 H   0  0  0  0  0  0  0  0  0  0  0  0
  142.6719   75.2667  219.6602 H   0  0  0  0  0  0  0  0  0  0  0  0
  1  2  2  0
  2  3  1  0
  3  4  1  0
  4  5  1  0
  5  6  2  0
  6  7  1  0
  7  8  2  0
  8  9  1  0
  9 10  1  0
 10 11  2  0
 10 12  1  0
 12 13  1  0
 13 14  1  0
 14 15  1  0
  9 16  2  0
  4 17  2  0
 17 18  1  0
 18 19  2  0
 19 20  1  0
 20 21  2  0
 21 22  1  0
 22 23  2  0
 23 24  1  0
 24 25  2  0
 25 26  1  0
 25 27  1  0
 27 28  2  0
 21 29  1  0
 29 30  2  0
 30  2  1  0
 16  5  1  0
 30 18  1  0
 15 12  1  0
 28 22  1  0
  3 31  1  0
  3 32  1  0
  6 33  1  0
  7 34  1  0
  8 35  1  0
 13 36  1  0
 13 37  1  0
 14 38  1  0
 14 39  1  0
 15 40  1  0
 15 41  1  0
 16 42  1  0
 19 43  1  0
 20 44  1  0
 23 45  1  0
 24 46  1  0
 27 47  1  0
 28 48  1  0
 29 49  1  0
M  END
>  <smiles>  (21) 
O=C1CC(c2cccc(C(=O)N3CCC3)c2)=Nc2ccc(-c3ccc(F)cc3)cc21

>  <score_type>  (21) 
oracle

>  <origin>  (21) 
autodockgpu

>  <m_score__min__energy>  (21) 
-8.6400000000000006

>  <m_primary>  (21) 
energy

>  <rmsd>  (21) 
6.8323509773639595

>  <m_score__min__rmsd>  (21) 
6.8323509773639595

>  <meeko>  (21) 
{"free_energy": -8.49, "intermolecular_energy": -9.39, "internal_energy": -1.02, "cluster_size": 48, "cluster_id": 1, "rank_in_cluster": 40}

>  <energy>  (21) 
-8.54

>  <cluster_rmsd>  (21) 
0.93

>  <cluster>  (21) 
1

$$$$

     RDKit          3D

 49 53  0  0  0  0  0  0  0  0999 V2000
  142.8280   72.9210  220.2030 O   0  0  0  0  0  0  0  0  0  0  0  0
  141.8480   73.1080  220.9590 C   0  0  0  0  0  0  0  0  0  0  0  0
  141.1850   71.9750  221.6840 C   0  0  0  0  0  0  0  0  0  0  0  0
  140.0520   72.4200  222.4920 C   0  0  0  0  0  0  0  0  0  0  0  0
  139.1600   71.4120  223.1190 C   0  0  0  0  0  0  0  0  0  0  0  0
  137.8600   71.2860  222.6920 C   0  0  0  0  0  0  0  0  0  0  0  0
  137.0530   70.2690  223.1570 C   0  0  0  0  0  0  0  0  0  0  0  0
  137.6040   69.3870  224.0630 C   0  0  0  0  0  0  0  0  0  0  0  0
  138.9150   69.5250  224.4870 C   0  0  0  0  0  0  0  0  0  0  0  0
  139.4930   68.5570  225.4040 C   0  0  0  0  0  0  0  0  0  0  0  0
  139.5590   67.3660  224.9910 O   0  0  0  0  0  0  0  0  0  0  0  0
  139.9460   68.9480  226.6710 N   0  0  0  0  0  0  0  0  0  0  0  0
  140.5530   68.3310  227.8110 C   0  0  0  0  0  0  0  0  0  0  0  0
  141.1190   69.7140  228.1680 C   0  0  0  0  0  0  0  0  0  0  0  0
  139.9750   70.2390  227.3530 C   0  0  0  0  0  0  0  0  0  0  0  0
  139.7370   70.5360  224.0340 C   0  0  0  0  0  0  0  0  0  0  0  0
  139.6490   73.6440  222.6270 N   0  0  0  0  0  0  0  0  0  0  0  0
  140.2540   74.7420  221.9740 C   0  0  0  0  0  0  0  0  0  0  0  0
  139.7090   75.9910  222.1250 C   0  0  0  0  0  0  0  0  0  0  0  0
  140.2450   77.0370  221.4180 C   0  0  0  0  0  0  0  0  0  0  0  0
  141.3100   76.7740  220.5860 C   0  0  0  0  0  0  0  0  0  0  0  0
  141.8370   77.8150  219.7100 C   0  0  0  0  0  0  0  0  0  0  0  0
  142.5220   77.5900  218.5480 C   0  0  0  0  0  0  0  0  0  0  0  0
  142.9210   78.6780  217.8110 C   0  0  0  0  0  0  0  0  0  0  0  0
  142.6430   79.9770  218.2300 C   0  0  0  0  0  0  0  0  0  0  0  0
  143.0260   81.0590  217.5040 F   0  0  0  0  0  0  0  0  0  0  0  0
  141.9540   80.2210  219.4000 C   0  0  0  0  0  0  0  0  0  0  0  0
  141.5580   79.1260  220.1280 C   0  0  0  0  0  0  0  0  0  0  0  0
  141.8610   75.5120  220.4460 C   0  0  0  0  0  0  0  0  0  0  0  0
  141.3310   74.4650  221.1510 C   0  0  0  0  0  0  0  0  0  0  0  0
  140.8264   71.2437  220.9446 H   0  0  0  0  0  0  0  0  0  0  0  0
  141.9275   71.5298  222.3626 H   0  0  0  0  0  0  0  0  0  0  0  0
  137.4563   72.0083  221.9672 H   0  0  0  0  0  0  0  0  0  0  0  0
  136.0114   70.1653  222.8188 H   0  0  0  0  0  0  0  0  0  0  0  0
  136.9924   68.5610  224.4549 H   0  0  0  0  0  0  0  0  0  0  0  0
  139.8428   67.9219  228.5446 H   0  0  0  0  0  0  0  0  0  0  0  0
  141.1998   67.4463  227.7162 H   0  0  0  0  0  0  0  0  0  0  0  0
  141.0905   69.9711  229.2372 H   0  0  0  0  0  0  0  0  0  0  0  0
  142.1662   70.0003  227.9906 H   0  0  0  0  0  0  0  0  0  0  0  0
  139.0690   70.4718  227.9318 H   0  0  0  0  0  0  0  0  0  0  0  0
  140.0495   71.1845  226.7957 H   0  0  0  0  0  0  0  0  0  0  0  0
  140.7780   70.6427  224.3729 H   0  0  0  0  0  0  0  0  0  0  0  0
  138.8566   76.1514  222.8015 H   0  0  0  0  0  0  0  0  0  0  0  0
  139.8368   78.0541  221.5127 H   0  0  0  0  0  0  0  0  0  0  0  0
  142.7470   76.5667  218.2131 H   0  0  0  0  0  0  0  0  0  0  0  0
  143.4709   78.5205  216.8714 H   0  0  0  0  0  0  0  0  0  0  0  0
  141.7321   81.2452  219.7343 H   0  0  0  0  0  0  0  0  0  0  0  0
  141.0057   79.2806  221.0667 H   0  0  0  0  0  0  0  0  0  0  0  0
  142.7172   75.3518  219.7742 H   0  0  0  0  0  0  0  0  0  0  0  0
  1  2  2  0
  2  3  1  0
  3  4  1  0
  4  5  1  0
  5  6  2  0
  6  7  1  0
  7  8  2  0
  8  9  1  0
  9 10  1  0
 10 11  2  0
 10 12  1  0
 12 13  1  0
 13 14  1  0
 14 15  1  0
  9 16  2  0
  4 17  2  0
 17 18  1  0
 18 19  2  0
 19 20  1  0
 20 21  2  0
 21 22  1  0
 22 23  2  0
 23 24  1  0
 24 25  2  0
 25 26  1  0
 25 27  1  0
 27 28  2  0
 21 29  1  0
 29 30  2  0
 30  2  1  0
 16  5  1  0
 30 18  1  0
 15 12  1  0
 28 22  1  0
  3 31  1  0
  3 32  1  0
  6 33  1  0
  7 34  1  0
  8 35  1  0
 13 36  1  0
 13 37  1  0
 14 38  1  0
 14 39  1  0
 15 40  1  0
 15 41  1  0
 16 42  1  0
 19 43  1  0
 20 44  1  0
 23 45  1  0
 24 46  1  0
 27 47  1  0
 28 48  1  0
 29 49  1  0
M  END
>  <smiles>  (22) 
O=C1CC(c2cccc(C(=O)N3CCC3)c2)=Nc2ccc(-c3ccc(F)cc3)cc21

>  <score_type>  (22) 
oracle

>  <origin>  (22) 
autodockgpu

>  <m_score__min__energy>  (22) 
-8.6400000000000006

>  <m_primary>  (22) 
energy

>  <rmsd>  (22) 
6.81741772050902

>  <m_score__min__rmsd>  (22) 
6.81741772050902

>  <meeko>  (22) 
{"free_energy": -8.49, "intermolecular_energy": -9.39, "internal_energy": -1.01, "cluster_size": 48, "cluster_id": 1, "rank_in_cluster": 41}

>  <energy>  (22) 
-8.54

>  <cluster_rmsd>  (22) 
0.92

>  <cluster>  (22) 
1

$$$$

     RDKit          3D

 49 53  0  0  0  0  0  0  0  0999 V2000
  142.8960   72.9260  220.2160 O   0  0  0  0  0  0  0  0  0  0  0  0
  141.8920   73.0930  220.9450 C   0  0  0  0  0  0  0  0  0  0  0  0
  141.2320   71.9450  221.6490 C   0  0  0  0  0  0  0  0  0  0  0  0
  140.0690   72.3660  222.4270 C   0  0  0  0  0  0  0  0  0  0  0  0
  139.1800   71.3390  223.0270 C   0  0  0  0  0  0  0  0  0  0  0  0
  137.9250   71.1300  222.5070 C   0  0  0  0  0  0  0  0  0  0  0  0
  137.1330   70.0930  222.9520 C   0  0  0  0  0  0  0  0  0  0  0  0
  137.6520   69.2770  223.9360 C   0  0  0  0  0  0  0  0  0  0  0  0
  138.9170   69.4980  224.4530 C   0  0  0  0  0  0  0  0  0  0  0  0
  139.4660   68.5980  225.4530 C   0  0  0  0  0  0  0  0  0  0  0  0
  139.5160   67.3760  225.1400 O   0  0  0  0  0  0  0  0  0  0  0  0
  139.9100   69.0830  226.6910 N   0  0  0  0  0  0  0  0  0  0  0  0
  140.4910   68.5510  227.8850 C   0  0  0  0  0  0  0  0  0  0  0  0
  141.0780   69.9490  228.1370 C   0  0  0  0  0  0  0  0  0  0  0  0
  139.9540   70.4250  227.2670 C   0  0  0  0  0  0  0  0  0  0  0  0
  139.7230   70.5310  224.0220 C   0  0  0  0  0  0  0  0  0  0  0  0
  139.6410   73.5820  222.5550 N   0  0  0  0  0  0  0  0  0  0  0  0
  140.2420   74.6930  221.9230 C   0  0  0  0  0  0  0  0  0  0  0  0
  139.6710   75.9320  222.0630 C   0  0  0  0  0  0  0  0  0  0  0  0
  140.2060   76.9890  221.3740 C   0  0  0  0  0  0  0  0  0  0  0  0
  141.2970   76.7490  220.5700 C   0  0  0  0  0  0  0  0  0  0  0  0
  141.8280   77.8030  219.7120 C   0  0  0  0  0  0  0  0  0  0  0  0
  142.5540   77.5950  218.5710 C   0  0  0  0  0  0  0  0  0  0  0  0
  142.9520   78.6930  217.8490 C   0  0  0  0  0  0  0  0  0  0  0  0
  142.6320   79.9840  218.2600 C   0  0  0  0  0  0  0  0  0  0  0  0
  143.0130   81.0750  217.5470 F   0  0  0  0  0  0  0  0  0  0  0  0
  141.9020   80.2110  219.4080 C   0  0  0  0  0  0  0  0  0  0  0  0
  141.5070   79.1060  220.1220 C   0  0  0  0  0  0  0  0  0  0  0  0
  141.8750   75.4980  220.4410 C   0  0  0  0  0  0  0  0  0  0  0  0
  141.3460   74.4390  221.1280 C   0  0  0  0  0  0  0  0  0  0  0  0
  140.9079   71.2090  220.8985 H   0  0  0  0  0  0  0  0  0  0  0  0
  141.9644   71.5120  222.3463 H   0  0  0  0  0  0  0  0  0  0  0  0
  137.5461   71.8015  221.7225 H   0  0  0  0  0  0  0  0  0  0  0  0
  136.1277   69.9230  222.5391 H   0  0  0  0  0  0  0  0  0  0  0  0
  137.0511   68.4375  224.3157 H   0  0  0  0  0  0  0  0  0  0  0  0
  139.7642   68.2152  228.6393 H   0  0  0  0  0  0  0  0  0  0  0  0
  141.1228   67.6506  227.8712 H   0  0  0  0  0  0  0  0  0  0  0  0
  141.0411   70.2924  229.1814 H   0  0  0  0  0  0  0  0  0  0  0  0
  142.1323   70.2022  227.9515 H   0  0  0  0  0  0  0  0  0  0  0  0
  139.0454   70.7192  227.8127 H   0  0  0  0  0  0  0  0  0  0  0  0
  140.0523   71.3207  226.6361 H   0  0  0  0  0  0  0  0  0  0  0  0
  140.7270   70.7046  224.4365 H   0  0  0  0  0  0  0  0  0  0  0  0
  138.7984   76.0750  222.7173 H   0  0  0  0  0  0  0  0  0  0  0  0
  139.7767   77.9980  221.4608 H   0  0  0  0  0  0  0  0  0  0  0  0
  142.8114   76.5775  218.2416 H   0  0  0  0  0  0  0  0  0  0  0  0
  143.5353   78.5497  216.9275 H   0  0  0  0  0  0  0  0  0  0  0  0
  141.6479   81.2296  219.7365 H   0  0  0  0  0  0  0  0  0  0  0  0
  140.9216   79.2468  221.0426 H   0  0  0  0  0  0  0  0  0  0  0  0
  142.7518   75.3561  219.7920 H   0  0  0  0  0  0  0  0  0  0  0  0
  1  2  2  0
  2  3  1  0
  3  4  1  0
  4  5  1  0
  5  6  2  0
  6  7  1  0
  7  8  2  0
  8  9  1  0
  9 10  1  0
 10 11  2  0
 10 12  1  0
 12 13  1  0
 13 14  1  0
 14 15  1  0
  9 16  2  0
  4 17  2  0
 17 18  1  0
 18 19  2  0
 19 20  1  0
 20 21  2  0
 21 22  1  0
 22 23  2  0
 23 24  1  0
 24 25  2  0
 25 26  1  0
 25 27  1  0
 27 28  2  0
 21 29  1  0
 29 30  2  0
 30  2  1  0
 16  5  1  0
 30 18  1  0
 15 12  1  0
 28 22  1  0
  3 31  1  0
  3 32  1  0
  6 33  1  0
  7 34  1  0
  8 35  1  0
 13 36  1  0
 13 37  1  0
 14 38  1  0
 14 39  1  0
 15 40  1  0
 15 41  1  0
 16 42  1  0
 19 43  1  0
 20 44  1  0
 23 45  1  0
 24 46  1  0
 27 47  1  0
 28 48  1  0
 29 49  1  0
M  END
>  <smiles>  (23) 
O=C1CC(c2cccc(C(=O)N3CCC3)c2)=Nc2ccc(-c3ccc(F)cc3)cc21

>  <score_type>  (23) 
oracle

>  <origin>  (23) 
autodockgpu

>  <m_score__min__energy>  (23) 
-8.6400000000000006

>  <m_primary>  (23) 
energy

>  <rmsd>  (23) 
6.79375565076591

>  <m_score__min__rmsd>  (23) 
6.79375565076591

>  <meeko>  (23) 
{"free_energy": -8.53, "intermolecular_energy": -9.42, "internal_energy": -1.0, "cluster_size": 48, "cluster_id": 1, "rank_in_cluster": 28}

>  <energy>  (23) 
-8.54

>  <cluster_rmsd>  (23) 
0.82

>  <cluster>  (23) 
1

$$$$

     RDKit          3D

 49 53  0  0  0  0  0  0  0  0999 V2000
  143.1160   73.0200  220.1450 O   0  0  0  0  0  0  0  0  0  0  0  0
  142.0870   73.0990  220.8530 C   0  0  0  0  0  0  0  0  0  0  0  0
  141.4640   71.8860  221.4750 C   0  0  0  0  0  0  0  0  0  0  0  0
  140.2630   72.2090  222.2410 C   0  0  0  0  0  0  0  0  0  0  0  0
  139.4080   71.1120  222.7600 C   0  0  0  0  0  0  0  0  0  0  0  0
  138.3270   70.6810  222.0300 C   0  0  0  0  0  0  0  0  0  0  0  0
  137.6000   69.5750  222.4180 C   0  0  0  0  0  0  0  0  0  0  0  0
  138.0030   68.9220  223.5640 C   0  0  0  0  0  0  0  0  0  0  0  0
  139.0940   69.3660  224.2930 C   0  0  0  0  0  0  0  0  0  0  0  0
  139.5340   68.6370  225.4700 C   0  0  0  0  0  0  0  0  0  0  0  0
  139.5350   67.3780  225.3800 O   0  0  0  0  0  0  0  0  0  0  0  0
  139.9320   69.3160  226.6300 N   0  0  0  0  0  0  0  0  0  0  0  0
  140.4130   68.9810  227.9350 C   0  0  0  0  0  0  0  0  0  0  0  0
  141.0600   70.3740  227.9750 C   0  0  0  0  0  0  0  0  0  0  0  0
  140.0150   70.7360  226.9620 C   0  0  0  0  0  0  0  0  0  0  0  0
  139.8320   70.4710  223.9210 C   0  0  0  0  0  0  0  0  0  0  0  0
  139.7730   73.3960  222.4210 N   0  0  0  0  0  0  0  0  0  0  0  0
  140.3370   74.5670  221.8650 C   0  0  0  0  0  0  0  0  0  0  0  0
  139.7030   75.7670  222.0550 C   0  0  0  0  0  0  0  0  0  0  0  0
  140.2050   76.8840  221.4380 C   0  0  0  0  0  0  0  0  0  0  0  0
  141.3270   76.7390  220.6540 C   0  0  0  0  0  0  0  0  0  0  0  0
  141.8300   77.8620  219.8680 C   0  0  0  0  0  0  0  0  0  0  0  0
  142.5370   77.7490  218.7030 C   0  0  0  0  0  0  0  0  0  0  0  0
  142.9090   78.9040  218.0590 C   0  0  0  0  0  0  0  0  0  0  0  0
  142.5800   80.1560  218.5710 C   0  0  0  0  0  0  0  0  0  0  0  0
  142.9350   81.3030  217.9350 F   0  0  0  0  0  0  0  0  0  0  0  0
  141.8680   80.2870  219.7450 C   0  0  0  0  0  0  0  0  0  0  0  0
  141.5000   79.1260  220.3810 C   0  0  0  0  0  0  0  0  0  0  0  0
  141.9680   75.5250  220.4760 C   0  0  0  0  0  0  0  0  0  0  0  0
  141.4720   74.4070  221.0910 C   0  0  0  0  0  0  0  0  0  0  0  0
  141.1947   71.1784  220.6770 H   0  0  0  0  0  0  0  0  0  0  0  0
  142.1978   71.4499  222.1689 H   0  0  0  0  0  0  0  0  0  0  0  0
  138.0363   71.2273  221.1206 H   0  0  0  0  0  0  0  0  0  0  0  0
  136.7333   69.2276  221.8366 H   0  0  0  0  0  0  0  0  0  0  0  0
  137.4493   68.0346  223.9045 H   0  0  0  0  0  0  0  0  0  0  0  0
  139.6266   68.8178  228.6867 H   0  0  0  0  0  0  0  0  0  0  0  0
  140.9939   68.0658  228.1220 H   0  0  0  0  0  0  0  0  0  0  0  0
  140.9823   70.9001  228.9379 H   0  0  0  0  0  0  0  0  0  0  0  0
  142.1354   70.5432  227.8176 H   0  0  0  0  0  0  0  0  0  0  0  0
  139.0938   71.1621  227.3861 H   0  0  0  0  0  0  0  0  0  0  0  0
  140.1975   71.4996  226.1915 H   0  0  0  0  0  0  0  0  0  0  0  0
  140.6972   70.8219  224.5026 H   0  0  0  0  0  0  0  0  0  0  0  0
  138.8078   75.8330  222.6908 H   0  0  0  0  0  0  0  0  0  0  0  0
  139.7257   77.8658  221.5657 H   0  0  0  0  0  0  0  0  0  0  0  0
  142.8001   76.7625  218.2936 H   0  0  0  0  0  0  0  0  0  0  0  0
  143.4782   78.8382  217.1200 H   0  0  0  0  0  0  0  0  0  0  0  0
  141.6070   81.2746  220.1530 H   0  0  0  0  0  0  0  0  0  0  0  0
  140.9301   79.1890  221.3197 H   0  0  0  0  0  0  0  0  0  0  0  0
  142.8675   75.4593  219.8463 H   0  0  0  0  0  0  0  0  0  0  0  0
  1  2  2  0
  2  3  1  0
  3  4  1  0
  4  5  1  0
  5  6  2  0
  6  7  1  0
  7  8  2  0
  8  9  1  0
  9 10  1  0
 10 11  2  0
 10 12  1  0
 12 13  1  0
 13 14  1  0
 14 15  1  0
  9 16  2  0
  4 17  2  0
 17 18  1  0
 18 19  2  0
 19 20  1  0
 20 21  2  0
 21 22  1  0
 22 23  2  0
 23 24  1  0
 24 25  2  0
 25 26  1  0
 25 27  1  0
 27 28  2  0
 21 29  1  0
 29 30  2  0
 30  2  1  0
 16  5  1  0
 30 18  1  0
 15 12  1  0
 28 22  1  0
  3 31  1  0
  3 32  1  0
  6 33  1  0
  7 34  1  0
  8 35  1  0
 13 36  1  0
 13 37  1  0
 14 38  1  0
 14 39  1  0
 15 40  1  0
 15 41  1  0
 16 42  1  0
 19 43  1  0
 20 44  1  0
 23 45  1  0
 24 46  1  0
 27 47  1  0
 28 48  1  0
 29 49  1  0
M  END
>  <smiles>  (24) 
O=C1CC(c2cccc(C(=O)N3CCC3)c2)=Nc2ccc(-c3ccc(F)cc3)cc21

>  <score_type>  (24) 
oracle

>  <origin>  (24) 
autodockgpu

>  <m_score__min__energy>  (24) 
-8.6400000000000006

>  <m_primary>  (24) 
energy

>  <rmsd>  (24) 
6.752676339189708

>  <m_score__min__rmsd>  (24) 
6.752676339189708

>  <meeko>  (24) 
{"free_energy": -8.57, "intermolecular_energy": -9.47, "internal_energy": -0.94, "cluster_size": 48, "cluster_id": 1, "rank_in_cluster": 6}

>  <energy>  (24) 
-8.53

>  <cluster_rmsd>  (24) 
0.92

>  <cluster>  (24) 
1

$$$$

     RDKit          3D

 49 53  0  0  0  0  0  0  0  0999 V2000
  142.8430   72.9730  220.1810 O   0  0  0  0  0  0  0  0  0  0  0  0
  141.8560   73.1430  220.9320 C   0  0  0  0  0  0  0  0  0  0  0  0
  141.1960   71.9940  221.6350 C   0  0  0  0  0  0  0  0  0  0  0  0
  140.0530   72.4190  222.4400 C   0  0  0  0  0  0  0  0  0  0  0  0
  139.1640   71.3960  223.0450 C   0  0  0  0  0  0  0  0  0  0  0  0
  137.8850   71.2310  222.5700 C   0  0  0  0  0  0  0  0  0  0  0  0
  137.0870   70.1990  223.0170 C   0  0  0  0  0  0  0  0  0  0  0  0
  137.6240   69.3430  223.9560 C   0  0  0  0  0  0  0  0  0  0  0  0
  138.9130   69.5210  224.4290 C   0  0  0  0  0  0  0  0  0  0  0  0
  139.4800   68.5800  225.3810 C   0  0  0  0  0  0  0  0  0  0  0  0
  139.5460   67.3770  225.0070 O   0  0  0  0  0  0  0  0  0  0  0  0
  139.9220   69.0100  226.6400 N   0  0  0  0  0  0  0  0  0  0  0  0
  140.5150   68.4270  227.8040 C   0  0  0  0  0  0  0  0  0  0  0  0
  141.0830   69.8190  228.1230 C   0  0  0  0  0  0  0  0  0  0  0  0
  139.9480   70.3210  227.2820 C   0  0  0  0  0  0  0  0  0  0  0  0
  139.7270   70.5480  223.9950 C   0  0  0  0  0  0  0  0  0  0  0  0
  139.6410   73.6390  222.5900 N   0  0  0  0  0  0  0  0  0  0  0  0
  140.2430   74.7500  221.9580 C   0  0  0  0  0  0  0  0  0  0  0  0
  139.6890   75.9930  222.1240 C   0  0  0  0  0  0  0  0  0  0  0  0
  140.2230   77.0530  221.4360 C   0  0  0  0  0  0  0  0  0  0  0  0
  141.2960   76.8090  220.6090 C   0  0  0  0  0  0  0  0  0  0  0  0
  141.8220   77.8670  219.7520 C   0  0  0  0  0  0  0  0  0  0  0  0
  142.5410   77.6630  218.6060 C   0  0  0  0  0  0  0  0  0  0  0  0
  142.9360   78.7650  217.8870 C   0  0  0  0  0  0  0  0  0  0  0  0
  142.6180   80.0550  218.3050 C   0  0  0  0  0  0  0  0  0  0  0  0
  142.9960   81.1490  217.5950 F   0  0  0  0  0  0  0  0  0  0  0  0
  141.8950   80.2770  219.4590 C   0  0  0  0  0  0  0  0  0  0  0  0
  141.5040   79.1690  220.1700 C   0  0  0  0  0  0  0  0  0  0  0  0
  141.8570   75.5530  220.4540 C   0  0  0  0  0  0  0  0  0  0  0  0
  141.3280   74.4920  221.1400 C   0  0  0  0  0  0  0  0  0  0  0  0
  140.8491   71.2709  220.8822 H   0  0  0  0  0  0  0  0  0  0  0  0
  141.9364   71.5443  222.3129 H   0  0  0  0  0  0  0  0  0  0  0  0
  137.4913   71.9337  221.8209 H   0  0  0  0  0  0  0  0  0  0  0  0
  136.0626   70.0637  222.6396 H   0  0  0  0  0  0  0  0  0  0  0  0
  137.0188   68.5062  224.3348 H   0  0  0  0  0  0  0  0  0  0  0  0
  139.7960   68.0437  228.5430 H   0  0  0  0  0  0  0  0  0  0  0  0
  141.1591   67.5374  227.7434 H   0  0  0  0  0  0  0  0  0  0  0  0
  141.0459   70.1095  229.1833 H   0  0  0  0  0  0  0  0  0  0  0  0
  142.1326   70.0965  227.9463 H   0  0  0  0  0  0  0  0  0  0  0  0
  139.0374   70.5735  227.8451 H   0  0  0  0  0  0  0  0  0  0  0  0
  140.0299   71.2487  226.6966 H   0  0  0  0  0  0  0  0  0  0  0  0
  140.7504   70.6869  224.3738 H   0  0  0  0  0  0  0  0  0  0  0  0
  138.8312   76.1379  222.7972 H   0  0  0  0  0  0  0  0  0  0  0  0
  139.8069   78.0658  221.5419 H   0  0  0  0  0  0  0  0  0  0  0  0
  142.7952   76.6468  218.2703 H   0  0  0  0  0  0  0  0  0  0  0  0
  143.5153   78.6257  216.9623 H   0  0  0  0  0  0  0  0  0  0  0  0
  141.6435   81.2941  219.7940 H   0  0  0  0  0  0  0  0  0  0  0  0
  140.9242   79.3058  221.0948 H   0  0  0  0  0  0  0  0  0  0  0  0
  142.7192   75.4084  219.7864 H   0  0  0  0  0  0  0  0  0  0  0  0
  1  2  2  0
  2  3  1  0
  3  4  1  0
  4  5  1  0
  5  6  2  0
  6  7  1  0
  7  8  2  0
  8  9  1  0
  9 10  1  0
 10 11  2  0
 10 12  1  0
 12 13  1  0
 13 14  1  0
 14 15  1  0
  9 16  2  0
  4 17  2  0
 17 18  1  0
 18 19  2  0
 19 20  1  0
 20 21  2  0
 21 22  1  0
 22 23  2  0
 23 24  1  0
 24 25  2  0
 25 26  1  0
 25 27  1  0
 27 28  2  0
 21 29  1  0
 29 30  2  0
 30  2  1  0
 16  5  1  0
 30 18  1  0
 15 12  1  0
 28 22  1  0
  3 31  1  0
  3 32  1  0
  6 33  1  0
  7 34  1  0
  8 35  1  0
 13 36  1  0
 13 37  1  0
 14 38  1  0
 14 39  1  0
 15 40  1  0
 15 41  1  0
 16 42  1  0
 19 43  1  0
 20 44  1  0
 23 45  1  0
 24 46  1  0
 27 47  1  0
 28 48  1  0
 29 49  1  0
M  END
>  <smiles>  (25) 
O=C1CC(c2cccc(C(=O)N3CCC3)c2)=Nc2ccc(-c3ccc(F)cc3)cc21

>  <score_type>  (25) 
oracle

>  <origin>  (25) 
autodockgpu

>  <m_score__min__energy>  (25) 
-8.6400000000000006

>  <m_primary>  (25) 
energy

>  <rmsd>  (25) 
6.805340067200712

>  <m_score__min__rmsd>  (25) 
6.805340067200712

>  <meeko>  (25) 
{"free_energy": -8.53, "intermolecular_energy": -9.43, "internal_energy": -1.01, "cluster_size": 48, "cluster_id": 1, "rank_in_cluster": 25}

>  <energy>  (25) 
-8.53

>  <cluster_rmsd>  (25) 
0.92

>  <cluster>  (25) 
1

$$$$

     RDKit          3D

 49 53  0  0  0  0  0  0  0  0999 V2000
  142.7910   72.9760  220.1200 O   0  0  0  0  0  0  0  0  0  0  0  0
  141.8260   73.1550  220.8960 C   0  0  0  0  0  0  0  0  0  0  0  0
  141.1660   72.0120  221.6080 C   0  0  0  0  0  0  0  0  0  0  0  0
  140.0510   72.4490  222.4450 C   0  0  0  0  0  0  0  0  0  0  0  0
  139.1620   71.4350  223.0660 C   0  0  0  0  0  0  0  0  0  0  0  0
  137.8800   71.2690  222.6000 C   0  0  0  0  0  0  0  0  0  0  0  0
  137.0810   70.2440  223.0620 C   0  0  0  0  0  0  0  0  0  0  0  0
  137.6200   69.3970  224.0070 C   0  0  0  0  0  0  0  0  0  0  0  0
  138.9130   69.5750  224.4700 C   0  0  0  0  0  0  0  0  0  0  0  0
  139.4820   68.6420  225.4290 C   0  0  0  0  0  0  0  0  0  0  0  0
  139.5550   67.4370  225.0610 O   0  0  0  0  0  0  0  0  0  0  0  0
  139.9180   69.0810  226.6870 N   0  0  0  0  0  0  0  0  0  0  0  0
  140.5120   68.5070  227.8550 C   0  0  0  0  0  0  0  0  0  0  0  0
  141.0710   69.9040  228.1690 C   0  0  0  0  0  0  0  0  0  0  0  0
  139.9360   70.3960  227.3220 C   0  0  0  0  0  0  0  0  0  0  0  0
  139.7270   70.5940  224.0210 C   0  0  0  0  0  0  0  0  0  0  0  0
  139.6610   73.6730  222.6120 N   0  0  0  0  0  0  0  0  0  0  0  0
  140.2630   74.7800  221.9720 C   0  0  0  0  0  0  0  0  0  0  0  0
  139.7320   76.0300  222.1590 C   0  0  0  0  0  0  0  0  0  0  0  0
  140.2640   77.0850  221.4650 C   0  0  0  0  0  0  0  0  0  0  0  0
  141.3120   76.8310  220.6090 C   0  0  0  0  0  0  0  0  0  0  0  0
  141.8330   77.8870  219.7460 C   0  0  0  0  0  0  0  0  0  0  0  0
  142.5190   77.6800  218.5810 C   0  0  0  0  0  0  0  0  0  0  0  0
  142.9120   78.7800  217.8580 C   0  0  0  0  0  0  0  0  0  0  0  0
  142.6250   80.0720  218.2930 C   0  0  0  0  0  0  0  0  0  0  0  0
  143.0020   81.1650  217.5800 F   0  0  0  0  0  0  0  0  0  0  0  0
  141.9360   80.2970  219.4660 C   0  0  0  0  0  0  0  0  0  0  0  0
  141.5460   79.1900  220.1800 C   0  0  0  0  0  0  0  0  0  0  0  0
  141.8500   75.5680  220.4330 C   0  0  0  0  0  0  0  0  0  0  0  0
  141.3240   74.5110  221.1250 C   0  0  0  0  0  0  0  0  0  0  0  0
  140.7884   71.2998  220.8595 H   0  0  0  0  0  0  0  0  0  0  0  0
  141.9163   71.5460  222.2637 H   0  0  0  0  0  0  0  0  0  0  0  0
  137.4843   71.9652  221.8459 H   0  0  0  0  0  0  0  0  0  0  0  0
  136.0544   70.1077  222.6912 H   0  0  0  0  0  0  0  0  0  0  0  0
  137.0137   68.5672  224.3992 H   0  0  0  0  0  0  0  0  0  0  0  0
  139.7937   68.1227  228.5942 H   0  0  0  0  0  0  0  0  0  0  0  0
  141.1617   67.6211  227.7998 H   0  0  0  0  0  0  0  0  0  0  0  0
  141.0289   70.1993  229.2278 H   0  0  0  0  0  0  0  0  0  0  0  0
  142.1196   70.1865  227.9941 H   0  0  0  0  0  0  0  0  0  0  0  0
  139.0226   70.6473  227.8811 H   0  0  0  0  0  0  0  0  0  0  0  0
  140.0152   71.3208  226.7317 H   0  0  0  0  0  0  0  0  0  0  0  0
  140.7531   70.7328  224.3923 H   0  0  0  0  0  0  0  0  0  0  0  0
  138.8934   76.1834  222.8541 H   0  0  0  0  0  0  0  0  0  0  0  0
  139.8662   78.1031  221.5880 H   0  0  0  0  0  0  0  0  0  0  0  0
  142.7493   76.6622  218.2330 H   0  0  0  0  0  0  0  0  0  0  0  0
  143.4641   78.6379  216.9173 H   0  0  0  0  0  0  0  0  0  0  0  0
  141.7092   81.3156  219.8139 H   0  0  0  0  0  0  0  0  0  0  0  0
  140.9921   79.3294  221.1201 H   0  0  0  0  0  0  0  0  0  0  0  0
  142.6929   75.4152  219.7430 H   0  0  0  0  0  0  0  0  0  0  0  0
  1  2  2  0
  2  3  1  0
  3  4  1  0
  4  5  1  0
  5  6  2  0
  6  7  1  0
  7  8  2  0
  8  9  1  0
  9 10  1  0
 10 11  2  0
 10 12  1  0
 12 13  1  0
 13 14  1  0
 14 15  1  0
  9 16  2  0
  4 17  2  0
 17 18  1  0
 18 19  2  0
 19 20  1  0
 20 21  2  0
 21 22  1  0
 22 23  2  0
 23 24  1  0
 24 25  2  0
 25 26  1  0
 25 27  1  0
 27 28  2  0
 21 29  1  0
 29 30  2  0
 30  2  1  0
 16  5  1  0
 30 18  1  0
 15 12  1  0
 28 22  1  0
  3 31  1  0
  3 32  1  0
  6 33  1  0
  7 34  1  0
  8 35  1  0
 13 36  1  0
 13 37  1  0
 14 38  1  0
 14 39  1  0
 15 40  1  0
 15 41  1  0
 16 42  1  0
 19 43  1  0
 20 44  1  0
 23 45  1  0
 24 46  1  0
 27 47  1  0
 28 48  1  0
 29 49  1  0
M  END
>  <smiles>  (26) 
O=C1CC(c2cccc(C(=O)N3CCC3)c2)=Nc2ccc(-c3ccc(F)cc3)cc21

>  <score_type>  (26) 
oracle

>  <origin>  (26) 
autodockgpu

>  <m_score__min__energy>  (26) 
-8.6400000000000006

>  <m_primary>  (26) 
energy

>  <rmsd>  (26) 
6.816166647347474

>  <m_score__min__rmsd>  (26) 
6.816166647347474

>  <meeko>  (26) 
{"free_energy": -8.52, "intermolecular_energy": -9.41, "internal_energy": -1.01, "cluster_size": 48, "cluster_id": 1, "rank_in_cluster": 35}

>  <energy>  (26) 
-8.53

>  <cluster_rmsd>  (26) 
0.93

>  <cluster>  (26) 
1

$$$$

     RDKit          3D

 49 53  0  0  0  0  0  0  0  0999 V2000
  142.9180   72.9720  220.3380 O   0  0  0  0  0  0  0  0  0  0  0  0
  141.8990   73.1360  221.0440 C   0  0  0  0  0  0  0  0  0  0  0  0
  141.2380   71.9900  221.7510 C   0  0  0  0  0  0  0  0  0  0  0  0
  140.0550   72.4070  222.5000 C   0  0  0  0  0  0  0  0  0  0  0  0
  139.1670   71.3790  223.0960 C   0  0  0  0  0  0  0  0  0  0  0  0
  137.9010   71.1900  222.5950 C   0  0  0  0  0  0  0  0  0  0  0  0
  137.1080   70.1520  223.0360 C   0  0  0  0  0  0  0  0  0  0  0  0
  137.6350   69.3140  223.9960 C   0  0  0  0  0  0  0  0  0  0  0  0
  138.9110   69.5150  224.4950 C   0  0  0  0  0  0  0  0  0  0  0  0
  139.4700   68.5920  225.4690 C   0  0  0  0  0  0  0  0  0  0  0  0
  139.5290   67.3800  225.1220 O   0  0  0  0  0  0  0  0  0  0  0  0
  139.9110   69.0470  226.7200 N   0  0  0  0  0  0  0  0  0  0  0  0
  140.4980   68.4870  227.8980 C   0  0  0  0  0  0  0  0  0  0  0  0
  141.0740   69.8820  228.1870 C   0  0  0  0  0  0  0  0  0  0  0  0
  139.9440   70.3730  227.3320 C   0  0  0  0  0  0  0  0  0  0  0  0
  139.7200   70.5480  224.0670 C   0  0  0  0  0  0  0  0  0  0  0  0
  139.6090   73.6200  222.6010 N   0  0  0  0  0  0  0  0  0  0  0  0
  140.2090   74.7300  221.9630 C   0  0  0  0  0  0  0  0  0  0  0  0
  139.6190   75.9620  222.0740 C   0  0  0  0  0  0  0  0  0  0  0  0
  140.1550   77.0160  221.3800 C   0  0  0  0  0  0  0  0  0  0  0  0
  141.2650   76.7780  220.6010 C   0  0  0  0  0  0  0  0  0  0  0  0
  141.8000   77.8260  219.7380 C   0  0  0  0  0  0  0  0  0  0  0  0
  142.5060   77.6100  218.5870 C   0  0  0  0  0  0  0  0  0  0  0  0
  142.9110   78.7040  217.8610 C   0  0  0  0  0  0  0  0  0  0  0  0
  142.6170   79.9990  218.2800 C   0  0  0  0  0  0  0  0  0  0  0  0
  143.0050   81.0860  217.5650 F   0  0  0  0  0  0  0  0  0  0  0  0
  141.9070   80.2340  219.4400 C   0  0  0  0  0  0  0  0  0  0  0  0
  141.5060   79.1330  220.1570 C   0  0  0  0  0  0  0  0  0  0  0  0
  141.8610   75.5330  220.5030 C   0  0  0  0  0  0  0  0  0  0  0  0
  141.3320   74.4770  221.1950 C   0  0  0  0  0  0  0  0  0  0  0  0
  140.9376   71.2400  221.0045 H   0  0  0  0  0  0  0  0  0  0  0  0
  141.9614   71.5759  222.4688 H   0  0  0  0  0  0  0  0  0  0  0  0
  137.5141   71.8785  221.8293 H   0  0  0  0  0  0  0  0  0  0  0  0
  136.0943   69.9983  222.6375 H   0  0  0  0  0  0  0  0  0  0  0  0
  137.0328   68.4733  224.3710 H   0  0  0  0  0  0  0  0  0  0  0  0
  139.7752   68.1248  228.6439 H   0  0  0  0  0  0  0  0  0  0  0  0
  141.1368   67.5924  227.8587 H   0  0  0  0  0  0  0  0  0  0  0  0
  141.0364   70.1963  229.2405 H   0  0  0  0  0  0  0  0  0  0  0  0
  142.1258   70.1486  228.0065 H   0  0  0  0  0  0  0  0  0  0  0  0
  139.0338   70.6444  227.8870 H   0  0  0  0  0  0  0  0  0  0  0  0
  140.0332   71.2866  226.7259 H   0  0  0  0  0  0  0  0  0  0  0  0
  140.7331   70.7043  224.4659 H   0  0  0  0  0  0  0  0  0  0  0  0
  138.7315   76.1027  222.7084 H   0  0  0  0  0  0  0  0  0  0  0  0
  139.7119   78.0208  221.4436 H   0  0  0  0  0  0  0  0  0  0  0  0
  142.7430   76.5894  218.2519 H   0  0  0  0  0  0  0  0  0  0  0  0
  143.4785   78.5539  216.9307 H   0  0  0  0  0  0  0  0  0  0  0  0
  141.6731   81.2554  219.7748 H   0  0  0  0  0  0  0  0  0  0  0  0
  140.9376   79.2800  221.0872 H   0  0  0  0  0  0  0  0  0  0  0  0
  142.7526   75.3930  219.8742 H   0  0  0  0  0  0  0  0  0  0  0  0
  1  2  2  0
  2  3  1  0
  3  4  1  0
  4  5  1  0
  5  6  2  0
  6  7  1  0
  7  8  2  0
  8  9  1  0
  9 10  1  0
 10 11  2  0
 10 12  1  0
 12 13  1  0
 13 14  1  0
 14 15  1  0
  9 16  2  0
  4 17  2  0
 17 18  1  0
 18 19  2  0
 19 20  1  0
 20 21  2  0
 21 22  1  0
 22 23  2  0
 23 24  1  0
 24 25  2  0
 25 26  1  0
 25 27  1  0
 27 28  2  0
 21 29  1  0
 29 30  2  0
 30  2  1  0
 16  5  1  0
 30 18  1  0
 15 12  1  0
 28 22  1  0
  3 31  1  0
  3 32  1  0
  6 33  1  0
  7 34  1  0
  8 35  1  0
 13 36  1  0
 13 37  1  0
 14 38  1  0
 14 39  1  0
 15 40  1  0
 15 41  1  0
 16 42  1  0
 19 43  1  0
 20 44  1  0
 23 45  1  0
 24 46  1  0
 27 47  1  0
 28 48  1  0
 29 49  1  0
M  END
>  <smiles>  (27) 
O=C1CC(c2cccc(C(=O)N3CCC3)c2)=Nc2ccc(-c3ccc(F)cc3)cc21

>  <score_type>  (27) 
oracle

>  <origin>  (27) 
autodockgpu

>  <m_score__min__energy>  (27) 
-8.6400000000000006

>  <m_primary>  (27) 
energy

>  <rmsd>  (27) 
6.793996131327562

>  <m_score__min__rmsd>  (27) 
6.793996131327562

>  <meeko>  (27) 
{"free_energy": -8.51, "intermolecular_energy": -9.4, "internal_energy": -1.01, "cluster_size": 48, "cluster_id": 1, "rank_in_cluster": 37}

>  <energy>  (27) 
-8.53

>  <cluster_rmsd>  (27) 
0.92

>  <cluster>  (27) 
1

$$$$

     RDKit          3D

 49 53  0  0  0  0  0  0  0  0999 V2000
  142.9060   73.2690  219.8500 O   0  0  0  0  0  0  0  0  0  0  0  0
  141.9490   73.2680  220.6570 C   0  0  0  0  0  0  0  0  0  0  0  0
  141.3890   71.9930  221.2110 C   0  0  0  0  0  0  0  0  0  0  0  0
  140.2660   72.2270  222.1160 C   0  0  0  0  0  0  0  0  0  0  0  0
  139.4650   71.0750  222.6010 C   0  0  0  0  0  0  0  0  0  0  0  0
  138.4780   70.5410  221.8070 C   0  0  0  0  0  0  0  0  0  0  0  0
  137.8150   69.3890  222.1730 C   0  0  0  0  0  0  0  0  0  0  0  0
  138.1830   68.7960  223.3620 C   0  0  0  0  0  0  0  0  0  0  0  0
  139.1770   69.3430  224.1550 C   0  0  0  0  0  0  0  0  0  0  0  0
  139.5860   68.6780  225.3810 C   0  0  0  0  0  0  0  0  0  0  0  0
  139.5770   67.4160  225.3620 O   0  0  0  0  0  0  0  0  0  0  0  0
  139.9650   69.4180  226.5100 N   0  0  0  0  0  0  0  0  0  0  0  0
  140.4150   69.1540  227.8410 C   0  0  0  0  0  0  0  0  0  0  0  0
  141.0740   70.5420  227.8170 C   0  0  0  0  0  0  0  0  0  0  0  0
  140.0550   70.8540  226.7630 C   0  0  0  0  0  0  0  0  0  0  0  0
  139.8510   70.4960  223.8080 C   0  0  0  0  0  0  0  0  0  0  0  0
  139.7950   73.3840  222.4580 N   0  0  0  0  0  0  0  0  0  0  0  0
  140.3030   74.6100  221.9710 C   0  0  0  0  0  0  0  0  0  0  0  0
  139.6890   75.7800  222.3380 C   0  0  0  0  0  0  0  0  0  0  0  0
  140.1290   76.9570  221.7910 C   0  0  0  0  0  0  0  0  0  0  0  0
  141.1720   76.9020  220.8930 C   0  0  0  0  0  0  0  0  0  0  0  0
  141.5960   78.1010  220.1790 C   0  0  0  0  0  0  0  0  0  0  0  0
  141.4880   79.3780  220.6560 C   0  0  0  0  0  0  0  0  0  0  0  0
  141.9690   80.4030  219.8780 C   0  0  0  0  0  0  0  0  0  0  0  0
  142.5510   80.1560  218.6370 C   0  0  0  0  0  0  0  0  0  0  0  0
  143.0380   81.1620  217.8650 F   0  0  0  0  0  0  0  0  0  0  0  0
  142.6670   78.8750  218.1410 C   0  0  0  0  0  0  0  0  0  0  0  0
  142.1840   77.8570  218.9280 C   0  0  0  0  0  0  0  0  0  0  0  0
  141.7930   75.7170  220.5350 C   0  0  0  0  0  0  0  0  0  0  0  0
  141.3590   74.5390  221.0800 C   0  0  0  0  0  0  0  0  0  0  0  0
  141.0451   71.3654  220.3756 H   0  0  0  0  0  0  0  0  0  0  0  0
  142.1857   71.4972  221.7849 H   0  0  0  0  0  0  0  0  0  0  0  0
  138.2128   71.0412  220.8639 H   0  0  0  0  0  0  0  0  0  0  0  0
  137.0234   68.9598  221.5412 H   0  0  0  0  0  0  0  0  0  0  0  0
  137.6787   67.8735  223.6856 H   0  0  0  0  0  0  0  0  0  0  0  0
  139.6114   69.0398  228.5834 H   0  0  0  0  0  0  0  0  0  0  0  0
  140.9836   68.2463  228.0916 H   0  0  0  0  0  0  0  0  0  0  0  0
  140.9804   71.1222  228.7468 H   0  0  0  0  0  0  0  0  0  0  0  0
  142.1541   70.6936  227.6743 H   0  0  0  0  0  0  0  0  0  0  0  0
  139.1291   71.3114  227.1419 H   0  0  0  0  0  0  0  0  0  0  0  0
  140.2616   71.5708  225.9546 H   0  0  0  0  0  0  0  0  0  0  0  0
  140.6395   70.9286  224.4413 H   0  0  0  0  0  0  0  0  0  0  0  0
  138.8580   75.7739  223.0587 H   0  0  0  0  0  0  0  0  0  0  0  0
  139.6634   77.9164  222.0609 H   0  0  0  0  0  0  0  0  0  0  0  0
  141.0289   79.5789  221.6352 H   0  0  0  0  0  0  0  0  0  0  0  0
  141.8930   81.4382  220.2420 H   0  0  0  0  0  0  0  0  0  0  0  0
  143.1250   78.6768  217.1607 H   0  0  0  0  0  0  0  0  0  0  0  0
  142.2605   76.8208  218.5670 H   0  0  0  0  0  0  0  0  0  0  0  0
  142.6279   75.7226  219.8188 H   0  0  0  0  0  0  0  0  0  0  0  0
  1  2  2  0
  2  3  1  0
  3  4  1  0
  4  5  1  0
  5  6  2  0
  6  7  1  0
  7  8  2  0
  8  9  1  0
  9 10  1  0
 10 11  2  0
 10 12  1  0
 12 13  1  0
 13 14  1  0
 14 15  1  0
  9 16  2  0
  4 17  2  0
 17 18  1  0
 18 19  2  0
 19 20  1  0
 20 21  2  0
 21 22  1  0
 22 23  2  0
 23 24  1  0
 24 25  2  0
 25 26  1  0
 25 27  1  0
 27 28  2  0
 21 29  1  0
 29 30  2  0
 30  2  1  0
 16  5  1  0
 30 18  1  0
 15 12  1  0
 28 22  1  0
  3 31  1  0
  3 32  1  0
  6 33  1  0
  7 34  1  0
  8 35  1  0
 13 36  1  0
 13 37  1  0
 14 38  1  0
 14 39  1  0
 15 40  1  0
 15 41  1  0
 16 42  1  0
 19 43  1  0
 20 44  1  0
 23 45  1  0
 24 46  1  0
 27 47  1  0
 28 48  1  0
 29 49  1  0
M  END
>  <smiles>  (28) 
O=C1CC(c2cccc(C(=O)N3CCC3)c2)=Nc2ccc(-c3ccc(F)cc3)cc21

>  <score_type>  (28) 
oracle

>  <origin>  (28) 
autodockgpu

>  <m_score__min__energy>  (28) 
-8.6400000000000006

>  <m_primary>  (28) 
energy

>  <rmsd>  (28) 
6.751005637479828

>  <m_score__min__rmsd>  (28) 
6.751005637479828

>  <meeko>  (28) 
{"free_energy": -8.44, "intermolecular_energy": -9.34, "internal_energy": -0.91, "cluster_size": 48, "cluster_id": 1, "rank_in_cluster": 44}

>  <energy>  (28) 
-8.53

>  <cluster_rmsd>  (28) 
0.9

>  <cluster>  (28) 
1

$$$$

     RDKit          3D

 49 53  0  0  0  0  0  0  0  0999 V2000
  143.0380   73.3710  220.4170 O   0  0  0  0  0  0  0  0  0  0  0  0
  141.9590   73.3960  221.0500 C   0  0  0  0  0  0  0  0  0  0  0  0
  141.3630   72.1520  221.6390 C   0  0  0  0  0  0  0  0  0  0  0  0
  140.0950   72.4110  222.3170 C   0  0  0  0  0  0  0  0  0  0  0  0
  139.2700   71.2690  222.7840 C   0  0  0  0  0  0  0  0  0  0  0  0
  138.1830   70.8610  222.0480 C   0  0  0  0  0  0  0  0  0  0  0  0
  137.4840   69.7210  222.3840 C   0  0  0  0  0  0  0  0  0  0  0  0
  137.9180   69.0100  223.4820 C   0  0  0  0  0  0  0  0  0  0  0  0
  139.0140   69.4320  224.2180 C   0  0  0  0  0  0  0  0  0  0  0  0
  139.4880   68.6440  225.3430 C   0  0  0  0  0  0  0  0  0  0  0  0
  139.5040   67.3920  225.1820 O   0  0  0  0  0  0  0  0  0  0  0  0
  139.9000   69.2630  226.5310 N   0  0  0  0  0  0  0  0  0  0  0  0
  140.4120   68.8620  227.8050 C   0  0  0  0  0  0  0  0  0  0  0  0
  141.0420   70.2590  227.9120 C   0  0  0  0  0  0  0  0  0  0  0  0
  139.9720   70.6620  226.9410 C   0  0  0  0  0  0  0  0  0  0  0  0
  139.7260   70.5710  223.8990 C   0  0  0  0  0  0  0  0  0  0  0  0
  139.5280   73.5680  222.4510 N   0  0  0  0  0  0  0  0  0  0  0  0
  140.0630   74.7660  221.9250 C   0  0  0  0  0  0  0  0  0  0  0  0
  139.3510   75.9300  222.0590 C   0  0  0  0  0  0  0  0  0  0  0  0
  139.8310   77.0710  221.4690 C   0  0  0  0  0  0  0  0  0  0  0  0
  141.0120   76.9860  220.7670 C   0  0  0  0  0  0  0  0  0  0  0  0
  141.5040   78.1310  220.0080 C   0  0  0  0  0  0  0  0  0  0  0  0
  141.4680   79.4290  220.4360 C   0  0  0  0  0  0  0  0  0  0  0  0
  142.0070   80.3940  219.6200 C   0  0  0  0  0  0  0  0  0  0  0  0
  142.5740   80.0670  218.3900 C   0  0  0  0  0  0  0  0  0  0  0  0
  143.1180   81.0130  217.5810 F   0  0  0  0  0  0  0  0  0  0  0  0
  142.6170   78.7630  217.9440 C   0  0  0  0  0  0  0  0  0  0  0  0
  142.0760   77.8060  218.7680 C   0  0  0  0  0  0  0  0  0  0  0  0
  141.7300   75.8090  220.6440 C   0  0  0  0  0  0  0  0  0  0  0  0
  141.2570   74.6670  221.2330 C   0  0  0  0  0  0  0  0  0  0  0  0
  141.1901   71.4260  220.8310 H   0  0  0  0  0  0  0  0  0  0  0  0
  142.0700   71.7616  222.3859 H   0  0  0  0  0  0  0  0  0  0  0  0
  137.8658   71.4534  221.1771 H   0  0  0  0  0  0  0  0  0  0  0  0
  136.6132   69.3916  221.7981 H   0  0  0  0  0  0  0  0  0  0  0  0
  137.3865   68.0938  223.7787 H   0  0  0  0  0  0  0  0  0  0  0  0
  139.6433   68.6456  228.5615 H   0  0  0  0  0  0  0  0  0  0  0  0
  141.0085   67.9460  227.9279 H   0  0  0  0  0  0  0  0  0  0  0  0
  140.9766   70.7288  228.9045 H   0  0  0  0  0  0  0  0  0  0  0  0
  142.1119   70.4522  227.7444 H   0  0  0  0  0  0  0  0  0  0  0  0
  139.0542   71.0509  227.4061 H   0  0  0  0  0  0  0  0  0  0  0  0
  140.1296   71.4698  226.2112 H   0  0  0  0  0  0  0  0  0  0  0  0
  140.5946   70.9044  224.4859 H   0  0  0  0  0  0  0  0  0  0  0  0
  138.4110   75.9483  222.6299 H   0  0  0  0  0  0  0  0  0  0  0  0
  139.2891   78.0245  221.5540 H   0  0  0  0  0  0  0  0  0  0  0  0
  141.0205   79.6930  221.4055 H   0  0  0  0  0  0  0  0  0  0  0  0
  141.9906   81.4451  219.9440 H   0  0  0  0  0  0  0  0  0  0  0  0
  143.0637   78.5011  216.9735 H   0  0  0  0  0  0  0  0  0  0  0  0
  142.0916   76.7541  218.4466 H   0  0  0  0  0  0  0  0  0  0  0  0
  142.6729   75.7912  220.0777 H   0  0  0  0  0  0  0  0  0  0  0  0
  1  2  2  0
  2  3  1  0
  3  4  1  0
  4  5  1  0
  5  6  2  0
  6  7  1  0
  7  8  2  0
  8  9  1  0
  9 10  1  0
 10 11  2  0
 10 12  1  0
 12 13  1  0
 13 14  1  0
 14 15  1  0
  9 16  2  0
  4 17  2  0
 17 18  1  0
 18 19  2  0
 19 20  1  0
 20 21  2  0
 21 22  1  0
 22 23  2  0
 23 24  1  0
 24 25  2  0
 25 26  1  0
 25 27  1  0
 27 28  2  0
 21 29  1  0
 29 30  2  0
 30  2  1  0
 16  5  1  0
 30 18  1  0
 15 12  1  0
 28 22  1  0
  3 31  1  0
  3 32  1  0
  6 33  1  0
  7 34  1  0
  8 35  1  0
 13 36  1  0
 13 37  1  0
 14 38  1  0
 14 39  1  0
 15 40  1  0
 15 41  1  0
 16 42  1  0
 19 43  1  0
 20 44  1  0
 23 45  1  0
 24 46  1  0
 27 47  1  0
 28 48  1  0
 29 49  1  0
M  END
>  <smiles>  (29) 
O=C1CC(c2cccc(C(=O)N3CCC3)c2)=Nc2ccc(-c3ccc(F)cc3)cc21

>  <score_type>  (29) 
oracle

>  <origin>  (29) 
autodockgpu

>  <m_score__min__energy>  (29) 
-8.6400000000000006

>  <m_primary>  (29) 
energy

>  <rmsd>  (29) 
6.730863747604061

>  <m_score__min__rmsd>  (29) 
6.730863747604061

>  <meeko>  (29) 
{"free_energy": -8.29, "intermolecular_energy": -9.18, "internal_energy": -0.95, "cluster_size": 48, "cluster_id": 1, "rank_in_cluster": 47}

>  <energy>  (29) 
-8.53

>  <cluster_rmsd>  (29) 
0.91

>  <cluster>  (29) 
1

$$$$

     RDKit          3D

 49 53  0  0  0  0  0  0  0  0999 V2000
  143.1320   73.0270  220.1300 O   0  0  0  0  0  0  0  0  0  0  0  0
  142.1060   73.1020  220.8430 C   0  0  0  0  0  0  0  0  0  0  0  0
  141.4880   71.8850  221.4630 C   0  0  0  0  0  0  0  0  0  0  0  0
  140.2900   72.2030  222.2350 C   0  0  0  0  0  0  0  0  0  0  0  0
  139.4400   71.1020  222.7530 C   0  0  0  0  0  0  0  0  0  0  0  0
  138.3720   70.6530  222.0140 C   0  0  0  0  0  0  0  0  0  0  0  0
  137.6520   69.5430  222.4040 C   0  0  0  0  0  0  0  0  0  0  0  0
  138.0470   68.9050  223.5610 C   0  0  0  0  0  0  0  0  0  0  0  0
  139.1240   69.3680  224.2990 C   0  0  0  0  0  0  0  0  0  0  0  0
  139.5570   68.6540  225.4880 C   0  0  0  0  0  0  0  0  0  0  0  0
  139.5460   67.3940  225.4200 O   0  0  0  0  0  0  0  0  0  0  0  0
  139.9610   69.3490  226.6370 N   0  0  0  0  0  0  0  0  0  0  0  0
  140.4380   69.0310  227.9480 C   0  0  0  0  0  0  0  0  0  0  0  0
  141.0980   70.4190  227.9650 C   0  0  0  0  0  0  0  0  0  0  0  0
  140.0570   70.7730  226.9450 C   0  0  0  0  0  0  0  0  0  0  0  0
  139.8560   70.4770  223.9260 C   0  0  0  0  0  0  0  0  0  0  0  0
  139.7980   73.3870  222.4210 N   0  0  0  0  0  0  0  0  0  0  0  0
  140.3570   74.5620  221.8670 C   0  0  0  0  0  0  0  0  0  0  0  0
  139.7210   75.7600  222.0630 C   0  0  0  0  0  0  0  0  0  0  0  0
  140.2170   76.8810  221.4480 C   0  0  0  0  0  0  0  0  0  0  0  0
  141.3370   76.7410  220.6590 C   0  0  0  0  0  0  0  0  0  0  0  0
  141.8340   77.8670  219.8750 C   0  0  0  0  0  0  0  0  0  0  0  0
  142.5300   77.7600  218.7030 C   0  0  0  0  0  0  0  0  0  0  0  0
  142.8980   78.9180  218.0620 C   0  0  0  0  0  0  0  0  0  0  0  0
  142.5740   80.1680  218.5840 C   0  0  0  0  0  0  0  0  0  0  0  0
  142.9250   81.3180  217.9510 F   0  0  0  0  0  0  0  0  0  0  0  0
  141.8730   80.2930  219.7650 C   0  0  0  0  0  0  0  0  0  0  0  0
  141.5090   79.1290  220.3970 C   0  0  0  0  0  0  0  0  0  0  0  0
  141.9800   75.5280  220.4740 C   0  0  0  0  0  0  0  0  0  0  0  0
  141.4890   74.4070  221.0870 C   0  0  0  0  0  0  0  0  0  0  0  0
  141.2166   71.1799  220.6635 H   0  0  0  0  0  0  0  0  0  0  0  0
  142.2255   71.4474  222.1519 H   0  0  0  0  0  0  0  0  0  0  0  0
  138.0865   71.1877  221.0961 H   0  0  0  0  0  0  0  0  0  0  0  0
  136.7963   69.1809  221.8152 H   0  0  0  0  0  0  0  0  0  0  0  0
  137.4985   68.0149  223.9031 H   0  0  0  0  0  0  0  0  0  0  0  0
  139.6497   68.8877  228.7017 H   0  0  0  0  0  0  0  0  0  0  0  0
  141.0102   68.1137  228.1508 H   0  0  0  0  0  0  0  0  0  0  0  0
  141.0244   70.9621  228.9188 H   0  0  0  0  0  0  0  0  0  0  0  0
  142.1751   70.5758  227.8058 H   0  0  0  0  0  0  0  0  0  0  0  0
  139.1395   71.2147  227.3610 H   0  0  0  0  0  0  0  0  0  0  0  0
  140.2472   71.5216  226.1618 H   0  0  0  0  0  0  0  0  0  0  0  0
  140.7100   70.8424  224.5152 H   0  0  0  0  0  0  0  0  0  0  0  0
  138.8281   75.8214  222.7025 H   0  0  0  0  0  0  0  0  0  0  0  0
  139.7354   77.8610  221.5807 H   0  0  0  0  0  0  0  0  0  0  0  0
  142.7878   76.7755  218.2856 H   0  0  0  0  0  0  0  0  0  0  0  0
  143.4595   78.8568  217.1181 H   0  0  0  0  0  0  0  0  0  0  0  0
  141.6173   81.2785  220.1813 H   0  0  0  0  0  0  0  0  0  0  0  0
  140.9461   79.1875  221.3402 H   0  0  0  0  0  0  0  0  0  0  0  0
  142.8770   75.4663  219.8402 H   0  0  0  0  0  0  0  0  0  0  0  0
  1  2  2  0
  2  3  1  0
  3  4  1  0
  4  5  1  0
  5  6  2  0
  6  7  1  0
  7  8  2  0
  8  9  1  0
  9 10  1  0
 10 11  2  0
 10 12  1  0
 12 13  1  0
 13 14  1  0
 14 15  1  0
  9 16  2  0
  4 17  2  0
 17 18  1  0
 18 19  2  0
 19 20  1  0
 20 21  2  0
 21 22  1  0
 22 23  2  0
 23 24  1  0
 24 25  2  0
 25 26  1  0
 25 27  1  0
 27 28  2  0
 21 29  1  0
 29 30  2  0
 30  2  1  0
 16  5  1  0
 30 18  1  0
 15 12  1  0
 28 22  1  0
  3 31  1  0
  3 32  1  0
  6 33  1  0
  7 34  1  0
  8 35  1  0
 13 36  1  0
 13 37  1  0
 14 38  1  0
 14 39  1  0
 15 40  1  0
 15 41  1  0
 16 42  1  0
 19 43  1  0
 20 44  1  0
 23 45  1  0
 24 46  1  0
 27 47  1  0
 28 48  1  0
 29 49  1  0
M  END
>  <smiles>  (30) 
O=C1CC(c2cccc(C(=O)N3CCC3)c2)=Nc2ccc(-c3ccc(F)cc3)cc21

>  <score_type>  (30) 
oracle

>  <origin>  (30) 
autodockgpu

>  <m_score__min__energy>  (30) 
-8.6400000000000006

>  <m_primary>  (30) 
energy

>  <rmsd>  (30) 
6.754784108508504

>  <m_score__min__rmsd>  (30) 
6.754784108508504

>  <meeko>  (30) 
{"free_energy": -8.57, "intermolecular_energy": -9.47, "internal_energy": -0.93, "cluster_size": 48, "cluster_id": 1, "rank_in_cluster": 7}

>  <energy>  (30) 
-8.52

>  <cluster_rmsd>  (30) 
0.94

>  <cluster>  (30) 
1

$$$$

     RDKit          3D

 49 53  0  0  0  0  0  0  0  0999 V2000
  142.8760   72.9420  220.1990 O   0  0  0  0  0  0  0  0  0  0  0  0
  141.8830   73.1120  220.9410 C   0  0  0  0  0  0  0  0  0  0  0  0
  141.2220   71.9650  221.6460 C   0  0  0  0  0  0  0  0  0  0  0  0
  140.0720   72.3900  222.4410 C   0  0  0  0  0  0  0  0  0  0  0  0
  139.1830   71.3680  223.0460 C   0  0  0  0  0  0  0  0  0  0  0  0
  137.9190   71.1720  222.5420 C   0  0  0  0  0  0  0  0  0  0  0  0
  137.1250   70.1380  222.9910 C   0  0  0  0  0  0  0  0  0  0  0  0
  137.6500   69.3120  223.9630 C   0  0  0  0  0  0  0  0  0  0  0  0
  138.9240   69.5190  224.4650 C   0  0  0  0  0  0  0  0  0  0  0  0
  139.4790   68.6090  225.4520 C   0  0  0  0  0  0  0  0  0  0  0  0
  139.5380   67.3920  225.1200 O   0  0  0  0  0  0  0  0  0  0  0  0
  139.9190   69.0790  226.6970 N   0  0  0  0  0  0  0  0  0  0  0  0
  140.5030   68.5330  227.8830 C   0  0  0  0  0  0  0  0  0  0  0  0
  141.0790   69.9310  228.1560 C   0  0  0  0  0  0  0  0  0  0  0  0
  139.9520   70.4120  227.2920 C   0  0  0  0  0  0  0  0  0  0  0  0
  139.7330   70.5490  224.0280 C   0  0  0  0  0  0  0  0  0  0  0  0
  139.6540   73.6090  222.5800 N   0  0  0  0  0  0  0  0  0  0  0  0
  140.2560   74.7190  221.9460 C   0  0  0  0  0  0  0  0  0  0  0  0
  139.6960   75.9610  222.0990 C   0  0  0  0  0  0  0  0  0  0  0  0
  140.2300   77.0180  221.4090 C   0  0  0  0  0  0  0  0  0  0  0  0
  141.3100   76.7740  220.5900 C   0  0  0  0  0  0  0  0  0  0  0  0
  141.8390   77.8280  219.7310 C   0  0  0  0  0  0  0  0  0  0  0  0
  142.5400   77.6200  218.5760 C   0  0  0  0  0  0  0  0  0  0  0  0
  142.9390   78.7200  217.8550 C   0  0  0  0  0  0  0  0  0  0  0  0
  142.6430   80.0120  218.2820 C   0  0  0  0  0  0  0  0  0  0  0  0
  143.0250   81.1040  217.5710 F   0  0  0  0  0  0  0  0  0  0  0  0
  141.9370   80.2380  219.4450 C   0  0  0  0  0  0  0  0  0  0  0  0
  141.5410   79.1320  220.1580 C   0  0  0  0  0  0  0  0  0  0  0  0
  141.8770   75.5190  220.4480 C   0  0  0  0  0  0  0  0  0  0  0  0
  141.3480   74.4610  221.1370 C   0  0  0  0  0  0  0  0  0  0  0  0
  140.8827   71.2365  220.8949 H   0  0  0  0  0  0  0  0  0  0  0  0
  141.9593   71.5220  222.3316 H   0  0  0  0  0  0  0  0  0  0  0  0
  137.5345   71.8517  221.7673 H   0  0  0  0  0  0  0  0  0  0  0  0
  136.1132   69.9782  222.5900 H   0  0  0  0  0  0  0  0  0  0  0  0
  137.0470   68.4753  224.3456 H   0  0  0  0  0  0  0  0  0  0  0  0
  139.7783   68.1804  228.6316 H   0  0  0  0  0  0  0  0  0  0  0  0
  141.1413   67.6376  227.8562 H   0  0  0  0  0  0  0  0  0  0  0  0
  141.0387   70.2585  229.2053 H   0  0  0  0  0  0  0  0  0  0  0  0
  142.1315   70.1946  227.9750 H   0  0  0  0  0  0  0  0  0  0  0  0
  139.0407   70.6914  227.8411 H   0  0  0  0  0  0  0  0  0  0  0  0
  140.0439   71.3177  226.6746 H   0  0  0  0  0  0  0  0  0  0  0  0
  140.7443   70.7115  224.4290 H   0  0  0  0  0  0  0  0  0  0  0  0
  138.8324   76.1068  222.7645 H   0  0  0  0  0  0  0  0  0  0  0  0
  139.8091   78.0296  221.5063 H   0  0  0  0  0  0  0  0  0  0  0  0
  142.7778   76.6020  218.2337 H   0  0  0  0  0  0  0  0  0  0  0  0
  143.5035   78.5769  216.9218 H   0  0  0  0  0  0  0  0  0  0  0  0
  141.7017   81.2569  219.7862 H   0  0  0  0  0  0  0  0  0  0  0  0
  140.9742   79.2723  221.0902 H   0  0  0  0  0  0  0  0  0  0  0  0
  142.7446   75.3734  219.7876 H   0  0  0  0  0  0  0  0  0  0  0  0
  1  2  2  0
  2  3  1  0
  3  4  1  0
  4  5  1  0
  5  6  2  0
  6  7  1  0
  7  8  2  0
  8  9  1  0
  9 10  1  0
 10 11  2  0
 10 12  1  0
 12 13  1  0
 13 14  1  0
 14 15  1  0
  9 16  2  0
  4 17  2  0
 17 18  1  0
 18 19  2  0
 19 20  1  0
 20 21  2  0
 21 22  1  0
 22 23  2  0
 23 24  1  0
 24 25  2  0
 25 26  1  0
 25 27  1  0
 27 28  2  0
 21 29  1  0
 29 30  2  0
 30  2  1  0
 16  5  1  0
 30 18  1  0
 15 12  1  0
 28 22  1  0
  3 31  1  0
  3 32  1  0
  6 33  1  0
  7 34  1  0
  8 35  1  0
 13 36  1  0
 13 37  1  0
 14 38  1  0
 14 39  1  0
 15 40  1  0
 15 41  1  0
 16 42  1  0
 19 43  1  0
 20 44  1  0
 23 45  1  0
 24 46  1  0
 27 47  1  0
 28 48  1  0
 29 49  1  0
M  END
>  <smiles>  (31) 
O=C1CC(c2cccc(C(=O)N3CCC3)c2)=Nc2ccc(-c3ccc(F)cc3)cc21

>  <score_type>  (31) 
oracle

>  <origin>  (31) 
autodockgpu

>  <m_score__min__energy>  (31) 
-8.6400000000000006

>  <m_primary>  (31) 
energy

>  <rmsd>  (31) 
6.801788317192707

>  <m_score__min__rmsd>  (31) 
6.801788317192707

>  <meeko>  (31) 
{"free_energy": -8.54, "intermolecular_energy": -9.44, "internal_energy": -1.01, "cluster_size": 48, "cluster_id": 1, "rank_in_cluster": 19}

>  <energy>  (31) 
-8.52

>  <cluster_rmsd>  (31) 
0.9

>  <cluster>  (31) 
1

$$$$

     RDKit          3D

 49 53  0  0  0  0  0  0  0  0999 V2000
  142.6960   72.8560  219.9390 O   0  0  0  0  0  0  0  0  0  0  0  0
  141.7770   73.0360  220.7690 C   0  0  0  0  0  0  0  0  0  0  0  0
  141.1220   71.8900  221.4800 C   0  0  0  0  0  0  0  0  0  0  0  0
  140.0640   72.3290  222.3860 C   0  0  0  0  0  0  0  0  0  0  0  0
  139.1790   71.3210  223.0210 C   0  0  0  0  0  0  0  0  0  0  0  0
  137.9120   71.1140  222.5320 C   0  0  0  0  0  0  0  0  0  0  0  0
  137.1210   70.0910  223.0120 C   0  0  0  0  0  0  0  0  0  0  0  0
  137.6540   69.2870  223.9970 C   0  0  0  0  0  0  0  0  0  0  0  0
  138.9320   69.5060  224.4840 C   0  0  0  0  0  0  0  0  0  0  0  0
  139.4950   68.6180  225.4870 C   0  0  0  0  0  0  0  0  0  0  0  0
  139.5650   67.3960  225.1770 O   0  0  0  0  0  0  0  0  0  0  0  0
  139.9300   69.1140  226.7240 N   0  0  0  0  0  0  0  0  0  0  0  0
  140.5190   68.5950  227.9200 C   0  0  0  0  0  0  0  0  0  0  0  0
  141.0830   70.0030  228.1680 C   0  0  0  0  0  0  0  0  0  0  0  0
  139.9510   70.4580  227.2950 C   0  0  0  0  0  0  0  0  0  0  0  0
  139.7370   70.5250  224.0180 C   0  0  0  0  0  0  0  0  0  0  0  0
  139.7180   73.5580  222.6100 N   0  0  0  0  0  0  0  0  0  0  0  0
  140.3190   74.6680  221.9740 C   0  0  0  0  0  0  0  0  0  0  0  0
  139.8330   75.9250  222.2260 C   0  0  0  0  0  0  0  0  0  0  0  0
  140.3590   76.9870  221.5370 C   0  0  0  0  0  0  0  0  0  0  0  0
  141.3550   76.7330  220.6200 C   0  0  0  0  0  0  0  0  0  0  0  0
  141.8600   77.8000  219.7640 C   0  0  0  0  0  0  0  0  0  0  0  0
  142.5580   77.6100  218.6030 C   0  0  0  0  0  0  0  0  0  0  0  0
  142.9350   78.7200  217.8860 C   0  0  0  0  0  0  0  0  0  0  0  0
  142.6200   80.0040  218.3220 C   0  0  0  0  0  0  0  0  0  0  0  0
  142.9790   81.1060  217.6150 F   0  0  0  0  0  0  0  0  0  0  0  0
  141.9180   80.2130  219.4910 C   0  0  0  0  0  0  0  0  0  0  0  0
  141.5450   79.0970  220.2000 C   0  0  0  0  0  0  0  0  0  0  0  0
  141.8470   75.4620  220.3790 C   0  0  0  0  0  0  0  0  0  0  0  0
  141.3260   74.3980  221.0650 C   0  0  0  0  0  0  0  0  0  0  0  0
  140.6870   71.2117  220.7311 H   0  0  0  0  0  0  0  0  0  0  0  0
  141.8914   71.3849  222.0823 H   0  0  0  0  0  0  0  0  0  0  0  0
  137.5217   71.7753  221.7443 H   0  0  0  0  0  0  0  0  0  0  0  0
  136.1053   69.9233  222.6243 H   0  0  0  0  0  0  0  0  0  0  0  0
  137.0548   68.4585  224.4026 H   0  0  0  0  0  0  0  0  0  0  0  0
  139.7974   68.2496  228.6750 H   0  0  0  0  0  0  0  0  0  0  0  0
  141.1653   67.7050  227.9092 H   0  0  0  0  0  0  0  0  0  0  0  0
  141.0397   70.3490  229.2113 H   0  0  0  0  0  0  0  0  0  0  0  0
  142.1331   70.2728  227.9824 H   0  0  0  0  0  0  0  0  0  0  0  0
  139.0372   70.7390  227.8391 H   0  0  0  0  0  0  0  0  0  0  0  0
  140.0347   71.3531  226.6612 H   0  0  0  0  0  0  0  0  0  0  0  0
  140.7511   70.6970  224.4078 H   0  0  0  0  0  0  0  0  0  0  0  0
  139.0353   76.0786  222.9677 H   0  0  0  0  0  0  0  0  0  0  0  0
  139.9967   78.0109  221.7111 H   0  0  0  0  0  0  0  0  0  0  0  0
  142.8102   76.5980  218.2535 H   0  0  0  0  0  0  0  0  0  0  0  0
  143.4968   78.5914  216.9490 H   0  0  0  0  0  0  0  0  0  0  0  0
  141.6685   81.2261  219.8392 H   0  0  0  0  0  0  0  0  0  0  0  0
  140.9829   79.2232  221.1371 H   0  0  0  0  0  0  0  0  0  0  0  0
  142.6496   75.3081  219.6427 H   0  0  0  0  0  0  0  0  0  0  0  0
  1  2  2  0
  2  3  1  0
  3  4  1  0
  4  5  1  0
  5  6  2  0
  6  7  1  0
  7  8  2  0
  8  9  1  0
  9 10  1  0
 10 11  2  0
 10 12  1  0
 12 13  1  0
 13 14  1  0
 14 15  1  0
  9 16  2  0
  4 17  2  0
 17 18  1  0
 18 19  2  0
 19 20  1  0
 20 21  2  0
 21 22  1  0
 22 23  2  0
 23 24  1  0
 24 25  2  0
 25 26  1  0
 25 27  1  0
 27 28  2  0
 21 29  1  0
 29 30  2  0
 30  2  1  0
 16  5  1  0
 30 18  1  0
 15 12  1  0
 28 22  1  0
  3 31  1  0
  3 32  1  0
  6 33  1  0
  7 34  1  0
  8 35  1  0
 13 36  1  0
 13 37  1  0
 14 38  1  0
 14 39  1  0
 15 40  1  0
 15 41  1  0
 16 42  1  0
 19 43  1  0
 20 44  1  0
 23 45  1  0
 24 46  1  0
 27 47  1  0
 28 48  1  0
 29 49  1  0
M  END
>  <smiles>  (32) 
O=C1CC(c2cccc(C(=O)N3CCC3)c2)=Nc2ccc(-c3ccc(F)cc3)cc21

>  <score_type>  (32) 
oracle

>  <origin>  (32) 
autodockgpu

>  <m_score__min__energy>  (32) 
-8.6400000000000006

>  <m_primary>  (32) 
energy

>  <rmsd>  (32) 
6.821085875617171

>  <m_score__min__rmsd>  (32) 
6.821085875617171

>  <meeko>  (32) 
{"free_energy": -8.52, "intermolecular_energy": -9.41, "internal_energy": -1.01, "cluster_size": 48, "cluster_id": 1, "rank_in_cluster": 34}

>  <energy>  (32) 
-8.52

>  <cluster_rmsd>  (32) 
0.9

>  <cluster>  (32) 
1

$$$$

     RDKit          3D

 49 53  0  0  0  0  0  0  0  0999 V2000
  142.9250   72.9580  220.3160 O   0  0  0  0  0  0  0  0  0  0  0  0
  141.9090   73.1220  221.0280 C   0  0  0  0  0  0  0  0  0  0  0  0
  141.2510   71.9750  221.7360 C   0  0  0  0  0  0  0  0  0  0  0  0
  140.0720   72.3910  222.4910 C   0  0  0  0  0  0  0  0  0  0  0  0
  139.1850   71.3620  223.0900 C   0  0  0  0  0  0  0  0  0  0  0  0
  137.9270   71.1570  222.5760 C   0  0  0  0  0  0  0  0  0  0  0  0
  137.1380   70.1170  223.0200 C   0  0  0  0  0  0  0  0  0  0  0  0
  137.6610   69.2950  223.9950 C   0  0  0  0  0  0  0  0  0  0  0  0
  138.9300   69.5120  224.5070 C   0  0  0  0  0  0  0  0  0  0  0  0
  139.4850   68.6060  225.4990 C   0  0  0  0  0  0  0  0  0  0  0  0
  139.5500   67.3900  225.1700 O   0  0  0  0  0  0  0  0  0  0  0  0
  139.9170   69.0820  226.7450 N   0  0  0  0  0  0  0  0  0  0  0  0
  140.4980   68.5410  227.9350 C   0  0  0  0  0  0  0  0  0  0  0  0
  141.0670   69.9420  228.2070 C   0  0  0  0  0  0  0  0  0  0  0  0
  139.9420   70.4160  227.3370 C   0  0  0  0  0  0  0  0  0  0  0  0
  139.7340   70.5480  224.0770 C   0  0  0  0  0  0  0  0  0  0  0  0
  139.6270   73.6040  222.5970 N   0  0  0  0  0  0  0  0  0  0  0  0
  140.2250   74.7150  221.9600 C   0  0  0  0  0  0  0  0  0  0  0  0
  139.6370   75.9480  222.0760 C   0  0  0  0  0  0  0  0  0  0  0  0
  140.1700   77.0030  221.3820 C   0  0  0  0  0  0  0  0  0  0  0  0
  141.2760   76.7660  220.5970 C   0  0  0  0  0  0  0  0  0  0  0  0
  141.8080   77.8150  219.7340 C   0  0  0  0  0  0  0  0  0  0  0  0
  142.5190   77.6010  218.5850 C   0  0  0  0  0  0  0  0  0  0  0  0
  142.9200   78.6960  217.8590 C   0  0  0  0  0  0  0  0  0  0  0  0
  142.6170   79.9900  218.2750 C   0  0  0  0  0  0  0  0  0  0  0  0
  143.0020   81.0780  217.5590 F   0  0  0  0  0  0  0  0  0  0  0  0
  141.9030   80.2230  219.4320 C   0  0  0  0  0  0  0  0  0  0  0  0
  141.5050   79.1210  220.1490 C   0  0  0  0  0  0  0  0  0  0  0  0
  141.8710   75.5200  220.4930 C   0  0  0  0  0  0  0  0  0  0  0  0
  141.3440   74.4630  221.1850 C   0  0  0  0  0  0  0  0  0  0  0  0
  140.9468   71.2265  220.9896 H   0  0  0  0  0  0  0  0  0  0  0  0
  141.9776   71.5593  222.4497 H   0  0  0  0  0  0  0  0  0  0  0  0
  137.5434   71.8334  221.7980 H   0  0  0  0  0  0  0  0  0  0  0  0
  136.1303   69.9498  222.6119 H   0  0  0  0  0  0  0  0  0  0  0  0
  137.0615   68.4535  224.3725 H   0  0  0  0  0  0  0  0  0  0  0  0
  139.7715   68.1872  228.6813 H   0  0  0  0  0  0  0  0  0  0  0  0
  141.1400   67.6481  227.9132 H   0  0  0  0  0  0  0  0  0  0  0  0
  141.0207   70.2720  229.2553 H   0  0  0  0  0  0  0  0  0  0  0  0
  142.1192   70.2096  228.0300 H   0  0  0  0  0  0  0  0  0  0  0  0
  139.0271   70.6928  227.8814 H   0  0  0  0  0  0  0  0  0  0  0  0
  140.0329   71.3206  226.7178 H   0  0  0  0  0  0  0  0  0  0  0  0
  140.7405   70.7190  224.4864 H   0  0  0  0  0  0  0  0  0  0  0  0
  138.7527   76.0882  222.7150 H   0  0  0  0  0  0  0  0  0  0  0  0
  139.7278   78.0079  221.4501 H   0  0  0  0  0  0  0  0  0  0  0  0
  142.7626   76.5813  218.2521 H   0  0  0  0  0  0  0  0  0  0  0  0
  143.4916   78.5478  216.9309 H   0  0  0  0  0  0  0  0  0  0  0  0
  141.6635   81.2437  219.7650 H   0  0  0  0  0  0  0  0  0  0  0  0
  140.9316   79.2665  221.0764 H   0  0  0  0  0  0  0  0  0  0  0  0
  142.7596   75.3807  219.8597 H   0  0  0  0  0  0  0  0  0  0  0  0
  1  2  2  0
  2  3  1  0
  3  4  1  0
  4  5  1  0
  5  6  2  0
  6  7  1  0
  7  8  2  0
  8  9  1  0
  9 10  1  0
 10 11  2  0
 10 12  1  0
 12 13  1  0
 13 14  1  0
 14 15  1  0
  9 16  2  0
  4 17  2  0
 17 18  1  0
 18 19  2  0
 19 20  1  0
 20 21  2  0
 21 22  1  0
 22 23  2  0
 23 24  1  0
 24 25  2  0
 25 26  1  0
 25 27  1  0
 27 28  2  0
 21 29  1  0
 29 30  2  0
 30  2  1  0
 16  5  1  0
 30 18  1  0
 15 12  1  0
 28 22  1  0
  3 31  1  0
  3 32  1  0
  6 33  1  0
  7 34  1  0
  8 35  1  0
 13 36  1  0
 13 37  1  0
 14 38  1  0
 14 39  1  0
 15 40  1  0
 15 41  1  0
 16 42  1  0
 19 43  1  0
 20 44  1  0
 23 45  1  0
 24 46  1  0
 27 47  1  0
 28 48  1  0
 29 49  1  0
M  END
>  <smiles>  (33) 
O=C1CC(c2cccc(C(=O)N3CCC3)c2)=Nc2ccc(-c3ccc(F)cc3)cc21

>  <score_type>  (33) 
oracle

>  <origin>  (33) 
autodockgpu

>  <m_score__min__energy>  (33) 
-8.6400000000000006

>  <m_primary>  (33) 
energy

>  <rmsd>  (33) 
6.796768028793866

>  <m_score__min__rmsd>  (33) 
6.796768028793866

>  <meeko>  (33) 
{"free_energy": -8.52, "intermolecular_energy": -9.41, "internal_energy": -1.01, "cluster_size": 48, "cluster_id": 1, "rank_in_cluster": 33}

>  <energy>  (33) 
-8.52

>  <cluster_rmsd>  (33) 
0.91

>  <cluster>  (33) 
1

$$$$

     RDKit          3D

 49 53  0  0  0  0  0  0  0  0999 V2000
  142.9600   73.0610  220.2310 O   0  0  0  0  0  0  0  0  0  0  0  0
  141.9330   73.2000  220.9320 C   0  0  0  0  0  0  0  0  0  0  0  0
  141.2760   72.0330  221.6050 C   0  0  0  0  0  0  0  0  0  0  0  0
  140.0820   72.4220  222.3520 C   0  0  0  0  0  0  0  0  0  0  0  0
  139.1970   71.3720  222.9160 C   0  0  0  0  0  0  0  0  0  0  0  0
  137.9680   71.1350  222.3510 C   0  0  0  0  0  0  0  0  0  0  0  0
  137.1860   70.0760  222.7640 C   0  0  0  0  0  0  0  0  0  0  0  0
  137.6880   69.2690  223.7630 C   0  0  0  0  0  0  0  0  0  0  0  0
  138.9280   69.5190  224.3270 C   0  0  0  0  0  0  0  0  0  0  0  0
  139.4640   68.6290  225.3440 C   0  0  0  0  0  0  0  0  0  0  0  0
  139.4980   67.4020  225.0510 O   0  0  0  0  0  0  0  0  0  0  0  0
  139.9110   69.1300  226.5750 N   0  0  0  0  0  0  0  0  0  0  0  0
  140.4820   68.6100  227.7790 C   0  0  0  0  0  0  0  0  0  0  0  0
  141.0860   70.0040  228.0080 C   0  0  0  0  0  0  0  0  0  0  0  0
  139.9700   70.4800  227.1270 C   0  0  0  0  0  0  0  0  0  0  0  0
  139.7240   70.5740  223.9280 C   0  0  0  0  0  0  0  0  0  0  0  0
  139.6250   73.6280  222.4770 N   0  0  0  0  0  0  0  0  0  0  0  0
  140.2210   74.7570  221.8720 C   0  0  0  0  0  0  0  0  0  0  0  0
  139.6200   75.9820  222.0060 C   0  0  0  0  0  0  0  0  0  0  0  0
  140.1520   77.0570  221.3420 C   0  0  0  0  0  0  0  0  0  0  0  0
  141.2720   76.8470  220.5690 C   0  0  0  0  0  0  0  0  0  0  0  0
  141.8060   77.9190  219.7360 C   0  0  0  0  0  0  0  0  0  0  0  0
  142.5230   77.7360  218.5860 C   0  0  0  0  0  0  0  0  0  0  0  0
  142.9260   78.8500  217.8910 C   0  0  0  0  0  0  0  0  0  0  0  0
  142.6170   80.1330  218.3380 C   0  0  0  0  0  0  0  0  0  0  0  0
  143.0030   81.2390  217.6520 F   0  0  0  0  0  0  0  0  0  0  0  0
  141.8960   80.3340  219.4960 C   0  0  0  0  0  0  0  0  0  0  0  0
  141.4970   79.2130  220.1830 C   0  0  0  0  0  0  0  0  0  0  0  0
  141.8800   75.6090  220.4470 C   0  0  0  0  0  0  0  0  0  0  0  0
  141.3530   74.5330  221.1090 C   0  0  0  0  0  0  0  0  0  0  0  0
  140.9894   71.2982  220.8382 H   0  0  0  0  0  0  0  0  0  0  0  0
  141.9961   71.6086  222.3200 H   0  0  0  0  0  0  0  0  0  0  0  0
  137.6009   71.8006  221.5559 H   0  0  0  0  0  0  0  0  0  0  0  0
  136.2009   69.8831  222.3141 H   0  0  0  0  0  0  0  0  0  0  0  0
  137.0945   68.4134  224.1175 H   0  0  0  0  0  0  0  0  0  0  0  0
  139.7492   68.2964  228.5371 H   0  0  0  0  0  0  0  0  0  0  0  0
  141.1017   67.7012  227.7822 H   0  0  0  0  0  0  0  0  0  0  0  0
  141.0512   70.3658  229.0462 H   0  0  0  0  0  0  0  0  0  0  0  0
  142.1439   70.2402  227.8205 H   0  0  0  0  0  0  0  0  0  0  0  0
  139.0638   70.7951  227.6652 H   0  0  0  0  0  0  0  0  0  0  0  0
  140.0808   71.3636  226.4812 H   0  0  0  0  0  0  0  0  0  0  0  0
  140.7078   70.7708  224.3790 H   0  0  0  0  0  0  0  0  0  0  0  0
  138.7259   76.1003  222.6358 H   0  0  0  0  0  0  0  0  0  0  0  0
  139.6984   78.0558  221.4241 H   0  0  0  0  0  0  0  0  0  0  0  0
  142.7699   76.7257  218.2279 H   0  0  0  0  0  0  0  0  0  0  0  0
  143.5041   78.7269  216.9633 H   0  0  0  0  0  0  0  0  0  0  0  0
  141.6515   81.3452  219.8533 H   0  0  0  0  0  0  0  0  0  0  0  0
  140.9183   79.3333  221.1107 H   0  0  0  0  0  0  0  0  0  0  0  0
  142.7786   75.4912  219.8236 H   0  0  0  0  0  0  0  0  0  0  0  0
  1  2  2  0
  2  3  1  0
  3  4  1  0
  4  5  1  0
  5  6  2  0
  6  7  1  0
  7  8  2  0
  8  9  1  0
  9 10  1  0
 10 11  2  0
 10 12  1  0
 12 13  1  0
 13 14  1  0
 14 15  1  0
  9 16  2  0
  4 17  2  0
 17 18  1  0
 18 19  2  0
 19 20  1  0
 20 21  2  0
 21 22  1  0
 22 23  2  0
 23 24  1  0
 24 25  2  0
 25 26  1  0
 25 27  1  0
 27 28  2  0
 21 29  1  0
 29 30  2  0
 30  2  1  0
 16  5  1  0
 30 18  1  0
 15 12  1  0
 28 22  1  0
  3 31  1  0
  3 32  1  0
  6 33  1  0
  7 34  1  0
  8 35  1  0
 13 36  1  0
 13 37  1  0
 14 38  1  0
 14 39  1  0
 15 40  1  0
 15 41  1  0
 16 42  1  0
 19 43  1  0
 20 44  1  0
 23 45  1  0
 24 46  1  0
 27 47  1  0
 28 48  1  0
 29 49  1  0
M  END
>  <smiles>  (34) 
O=C1CC(c2cccc(C(=O)N3CCC3)c2)=Nc2ccc(-c3ccc(F)cc3)cc21

>  <score_type>  (34) 
oracle

>  <origin>  (34) 
autodockgpu

>  <m_score__min__energy>  (34) 
-8.6400000000000006

>  <m_primary>  (34) 
energy

>  <rmsd>  (34) 
6.779135973221772

>  <m_score__min__rmsd>  (34) 
6.779135973221772

>  <meeko>  (34) 
{"free_energy": -8.52, "intermolecular_energy": -9.41, "internal_energy": -0.99, "cluster_size": 48, "cluster_id": 1, "rank_in_cluster": 36}

>  <energy>  (34) 
-8.52

>  <cluster_rmsd>  (34) 
0.91

>  <cluster>  (34) 
1

$$$$

     RDKit          3D

 49 53  0  0  0  0  0  0  0  0999 V2000
  142.9590   72.9830  220.1310 O   0  0  0  0  0  0  0  0  0  0  0  0
  141.9620   73.1080  220.8770 C   0  0  0  0  0  0  0  0  0  0  0  0
  141.3230   71.9250  221.5410 C   0  0  0  0  0  0  0  0  0  0  0  0
  140.1640   72.3000  222.3480 C   0  0  0  0  0  0  0  0  0  0  0  0
  139.2940   71.2390  222.9160 C   0  0  0  0  0  0  0  0  0  0  0  0
  138.1130   70.9140  222.2930 C   0  0  0  0  0  0  0  0  0  0  0  0
  137.3550   69.8430  222.7180 C   0  0  0  0  0  0  0  0  0  0  0  0
  137.8310   69.1140  223.7870 C   0  0  0  0  0  0  0  0  0  0  0  0
  139.0220   69.4520  224.4080 C   0  0  0  0  0  0  0  0  0  0  0  0
  139.5340   68.6420  225.5010 C   0  0  0  0  0  0  0  0  0  0  0  0
  139.5780   67.3970  225.3020 O   0  0  0  0  0  0  0  0  0  0  0  0
  139.9490   69.2350  226.7020 N   0  0  0  0  0  0  0  0  0  0  0  0
  140.4900   68.8090  227.9550 C   0  0  0  0  0  0  0  0  0  0  0  0
  141.0860   70.2190  228.0950 C   0  0  0  0  0  0  0  0  0  0  0  0
  139.9920   70.6230  227.1530 C   0  0  0  0  0  0  0  0  0  0  0  0
  139.7930   70.5210  223.9990 C   0  0  0  0  0  0  0  0  0  0  0  0
  139.7220   73.5040  222.5280 N   0  0  0  0  0  0  0  0  0  0  0  0
  140.3030   74.6470  221.9330 C   0  0  0  0  0  0  0  0  0  0  0  0
  139.7170   75.8720  222.1280 C   0  0  0  0  0  0  0  0  0  0  0  0
  140.2310   76.9620  221.4760 C   0  0  0  0  0  0  0  0  0  0  0  0
  141.3170   76.7680  220.6520 C   0  0  0  0  0  0  0  0  0  0  0  0
  141.8260   77.8610  219.8300 C   0  0  0  0  0  0  0  0  0  0  0  0
  142.5240   77.7070  218.6650 C   0  0  0  0  0  0  0  0  0  0  0  0
  142.9030   78.8390  217.9840 C   0  0  0  0  0  0  0  0  0  0  0  0
  142.5900   80.1090  218.4600 C   0  0  0  0  0  0  0  0  0  0  0  0
  142.9530   81.2320  217.7890 F   0  0  0  0  0  0  0  0  0  0  0  0
  141.8870   80.2810  219.6340 C   0  0  0  0  0  0  0  0  0  0  0  0
  141.5120   79.1440  220.3070 C   0  0  0  0  0  0  0  0  0  0  0  0
  141.9090   75.5300  220.4680 C   0  0  0  0  0  0  0  0  0  0  0  0
  141.4000   74.4380  221.1180 C   0  0  0  0  0  0  0  0  0  0  0  0
  140.9989   71.2162  220.7648 H   0  0  0  0  0  0  0  0  0  0  0  0
  142.0681   71.4733  222.2124 H   0  0  0  0  0  0  0  0  0  0  0  0
  137.7666   71.5179  221.4414 H   0  0  0  0  0  0  0  0  0  0  0  0
  136.4080   69.5808  222.2236 H   0  0  0  0  0  0  0  0  0  0  0  0
  137.2559   68.2504  224.1524 H   0  0  0  0  0  0  0  0  0  0  0  0
  139.7387   68.5501  228.7156 H   0  0  0  0  0  0  0  0  0  0  0  0
  141.1112   67.9054  228.0415 H   0  0  0  0  0  0  0  0  0  0  0  0
  141.0239   70.6571  229.1021 H   0  0  0  0  0  0  0  0  0  0  0  0
  142.1479   70.4447  227.9176 H   0  0  0  0  0  0  0  0  0  0  0  0
  139.0719   70.9741  227.6431 H   0  0  0  0  0  0  0  0  0  0  0  0
  140.1179   71.4560  226.4457 H   0  0  0  0  0  0  0  0  0  0  0  0
  140.7378   70.7876  224.4952 H   0  0  0  0  0  0  0  0  0  0  0  0
  138.8496   75.9773  222.7962 H   0  0  0  0  0  0  0  0  0  0  0  0
  139.7898   77.9611  221.6068 H   0  0  0  0  0  0  0  0  0  0  0  0
  142.7751   76.7063  218.2836 H   0  0  0  0  0  0  0  0  0  0  0  0
  143.4651   78.7394  217.0437 H   0  0  0  0  0  0  0  0  0  0  0  0
  141.6381   81.2828  220.0139 H   0  0  0  0  0  0  0  0  0  0  0  0
  140.9492   79.2411  221.2471 H   0  0  0  0  0  0  0  0  0  0  0  0
  142.7807   75.4248  219.8054 H   0  0  0  0  0  0  0  0  0  0  0  0
  1  2  2  0
  2  3  1  0
  3  4  1  0
  4  5  1  0
  5  6  2  0
  6  7  1  0
  7  8  2  0
  8  9  1  0
  9 10  1  0
 10 11  2  0
 10 12  1  0
 12 13  1  0
 13 14  1  0
 14 15  1  0
  9 16  2  0
  4 17  2  0
 17 18  1  0
 18 19  2  0
 19 20  1  0
 20 21  2  0
 21 22  1  0
 22 23  2  0
 23 24  1  0
 24 25  2  0
 25 26  1  0
 25 27  1  0
 27 28  2  0
 21 29  1  0
 29 30  2  0
 30  2  1  0
 16  5  1  0
 30 18  1  0
 15 12  1  0
 28 22  1  0
  3 31  1  0
  3 32  1  0
  6 33  1  0
  7 34  1  0
  8 35  1  0
 13 36  1  0
 13 37  1  0
 14 38  1  0
 14 39  1  0
 15 40  1  0
 15 41  1  0
 16 42  1  0
 19 43  1  0
 20 44  1  0
 23 45  1  0
 24 46  1  0
 27 47  1  0
 28 48  1  0
 29 49  1  0
M  END
>  <smiles>  (35) 
O=C1CC(c2cccc(C(=O)N3CCC3)c2)=Nc2ccc(-c3ccc(F)cc3)cc21

>  <score_type>  (35) 
oracle

>  <origin>  (35) 
autodockgpu

>  <m_score__min__energy>  (35) 
-8.6400000000000006

>  <m_primary>  (35) 
energy

>  <rmsd>  (35) 
6.785536269983355

>  <m_score__min__rmsd>  (35) 
6.785536269983355

>  <meeko>  (35) 
{"free_energy": -8.56, "intermolecular_energy": -9.45, "internal_energy": -0.98, "cluster_size": 48, "cluster_id": 1, "rank_in_cluster": 12}

>  <energy>  (35) 
-8.52

>  <cluster_rmsd>  (35) 
0.92

>  <cluster>  (35) 
1

$$$$

     RDKit          3D

 49 53  0  0  0  0  0  0  0  0999 V2000
  142.8980   72.9670  220.2930 O   0  0  0  0  0  0  0  0  0  0  0  0
  141.8940   73.1470  221.0180 C   0  0  0  0  0  0  0  0  0  0  0  0
  141.2270   72.0120  221.7350 C   0  0  0  0  0  0  0  0  0  0  0  0
  140.0650   72.4480  222.5060 C   0  0  0  0  0  0  0  0  0  0  0  0
  139.1700   71.4340  223.1180 C   0  0  0  0  0  0  0  0  0  0  0  0
  137.8790   71.2980  222.6670 C   0  0  0  0  0  0  0  0  0  0  0  0
  137.0710   70.2750  223.1190 C   0  0  0  0  0  0  0  0  0  0  0  0
  137.6120   69.3980  224.0360 C   0  0  0  0  0  0  0  0  0  0  0  0
  138.9140   69.5460  224.4830 C   0  0  0  0  0  0  0  0  0  0  0  0
  139.4830   68.5840  225.4120 C   0  0  0  0  0  0  0  0  0  0  0  0
  139.5530   67.3910  225.0070 O   0  0  0  0  0  0  0  0  0  0  0  0
  139.9220   68.9830  226.6820 N   0  0  0  0  0  0  0  0  0  0  0  0
  140.5170   68.3730  227.8310 C   0  0  0  0  0  0  0  0  0  0  0  0
  141.0800   69.7580  228.1860 C   0  0  0  0  0  0  0  0  0  0  0  0
  139.9440   70.2780  227.3570 C   0  0  0  0  0  0  0  0  0  0  0  0
  139.7370   70.5640  224.0450 C   0  0  0  0  0  0  0  0  0  0  0  0
  139.6420   73.6680  222.6170 N   0  0  0  0  0  0  0  0  0  0  0  0
  140.2500   74.7690  221.9710 C   0  0  0  0  0  0  0  0  0  0  0  0
  139.6840   76.0110  222.0940 C   0  0  0  0  0  0  0  0  0  0  0  0
  140.2250   77.0570  221.3930 C   0  0  0  0  0  0  0  0  0  0  0  0
  141.3170   76.8010  220.5930 C   0  0  0  0  0  0  0  0  0  0  0  0
  141.8550   77.8410  219.7220 C   0  0  0  0  0  0  0  0  0  0  0  0
  142.5390   77.6150  218.5610 C   0  0  0  0  0  0  0  0  0  0  0  0
  142.9500   78.7030  217.8290 C   0  0  0  0  0  0  0  0  0  0  0  0
  142.6810   80.0020  218.2520 C   0  0  0  0  0  0  0  0  0  0  0  0
  143.0740   81.0830  217.5310 F   0  0  0  0  0  0  0  0  0  0  0  0
  141.9920   80.2470  219.4220 C   0  0  0  0  0  0  0  0  0  0  0  0
  141.5850   79.1520  220.1450 C   0  0  0  0  0  0  0  0  0  0  0  0
  141.8890   75.5460  220.4820 C   0  0  0  0  0  0  0  0  0  0  0  0
  141.3540   74.4980  221.1820 C   0  0  0  0  0  0  0  0  0  0  0  0
  140.9003   71.2684  220.9931 H   0  0  0  0  0  0  0  0  0  0  0  0
  141.9561   71.5845  222.4390 H   0  0  0  0  0  0  0  0  0  0  0  0
  137.4834   72.0163  221.9338 H   0  0  0  0  0  0  0  0  0  0  0  0
  136.0365   70.1632  222.7623 H   0  0  0  0  0  0  0  0  0  0  0  0
  136.9994   68.5681  224.4181 H   0  0  0  0  0  0  0  0  0  0  0  0
  139.7993   67.9683  228.5597 H   0  0  0  0  0  0  0  0  0  0  0  0
  141.1645   67.4877  227.7477 H   0  0  0  0  0  0  0  0  0  0  0  0
  141.0411   70.0211  229.2534 H   0  0  0  0  0  0  0  0  0  0  0  0
  142.1289   70.0433  228.0174 H   0  0  0  0  0  0  0  0  0  0  0  0
  139.0323   70.5138  227.9256 H   0  0  0  0  0  0  0  0  0  0  0  0
  140.0237   71.2203  226.7951 H   0  0  0  0  0  0  0  0  0  0  0  0
  140.7703   70.6798  224.4040 H   0  0  0  0  0  0  0  0  0  0  0  0
  138.8104   76.1657  222.7443 H   0  0  0  0  0  0  0  0  0  0  0  0
  139.8007   78.0692  221.4668 H   0  0  0  0  0  0  0  0  0  0  0  0
  142.7546   76.5911  218.2218 H   0  0  0  0  0  0  0  0  0  0  0  0
  143.5021   78.5446  216.8909 H   0  0  0  0  0  0  0  0  0  0  0  0
  141.7784   81.2717  219.7602 H   0  0  0  0  0  0  0  0  0  0  0  0
  141.0314   79.3071  221.0828 H   0  0  0  0  0  0  0  0  0  0  0  0
  142.7663   75.3915  219.8367 H   0  0  0  0  0  0  0  0  0  0  0  0
  1  2  2  0
  2  3  1  0
  3  4  1  0
  4  5  1  0
  5  6  2  0
  6  7  1  0
  7  8  2  0
  8  9  1  0
  9 10  1  0
 10 11  2  0
 10 12  1  0
 12 13  1  0
 13 14  1  0
 14 15  1  0
  9 16  2  0
  4 17  2  0
 17 18  1  0
 18 19  2  0
 19 20  1  0
 20 21  2  0
 21 22  1  0
 22 23  2  0
 23 24  1  0
 24 25  2  0
 25 26  1  0
 25 27  1  0
 27 28  2  0
 21 29  1  0
 29 30  2  0
 30  2  1  0
 16  5  1  0
 30 18  1  0
 15 12  1  0
 28 22  1  0
  3 31  1  0
  3 32  1  0
  6 33  1  0
  7 34  1  0
  8 35  1  0
 13 36  1  0
 13 37  1  0
 14 38  1  0
 14 39  1  0
 15 40  1  0
 15 41  1  0
 16 42  1  0
 19 43  1  0
 20 44  1  0
 23 45  1  0
 24 46  1  0
 27 47  1  0
 28 48  1  0
 29 49  1  0
M  END
>  <smiles>  (36) 
O=C1CC(c2cccc(C(=O)N3CCC3)c2)=Nc2ccc(-c3ccc(F)cc3)cc21

>  <score_type>  (36) 
oracle

>  <origin>  (36) 
autodockgpu

>  <m_score__min__energy>  (36) 
-8.6400000000000006

>  <m_primary>  (36) 
energy

>  <rmsd>  (36) 
6.808591855024867

>  <m_score__min__rmsd>  (36) 
6.808591855024867

>  <meeko>  (36) 
{"free_energy": -8.5, "intermolecular_energy": -9.4, "internal_energy": -1.01, "cluster_size": 48, "cluster_id": 1, "rank_in_cluster": 38}

>  <energy>  (36) 
-8.52

>  <cluster_rmsd>  (36) 
0.84

>  <cluster>  (36) 
1

$$$$

     RDKit          3D

 49 53  0  0  0  0  0  0  0  0999 V2000
  142.8220   72.8780  220.0310 O   0  0  0  0  0  0  0  0  0  0  0  0
  141.8630   73.0270  220.8210 C   0  0  0  0  0  0  0  0  0  0  0  0
  141.2170   71.8590  221.5040 C   0  0  0  0  0  0  0  0  0  0  0  0
  140.1080   72.2630  222.3650 C   0  0  0  0  0  0  0  0  0  0  0  0
  139.2300   71.2250  222.9620 C   0  0  0  0  0  0  0  0  0  0  0  0
  138.0180   70.9350  222.3830 C   0  0  0  0  0  0  0  0  0  0  0  0
  137.2470   69.8830  222.8330 C   0  0  0  0  0  0  0  0  0  0  0  0
  137.7420   69.1390  223.8820 C   0  0  0  0  0  0  0  0  0  0  0  0
  138.9630   69.4420  224.4600 C   0  0  0  0  0  0  0  0  0  0  0  0
  139.4920   68.6150  225.5320 C   0  0  0  0  0  0  0  0  0  0  0  0
  139.5360   67.3730  225.3120 O   0  0  0  0  0  0  0  0  0  0  0  0
  139.9220   69.1890  226.7370 N   0  0  0  0  0  0  0  0  0  0  0  0
  140.4820   68.7440  227.9750 C   0  0  0  0  0  0  0  0  0  0  0  0
  141.0760   70.1520  228.1310 C   0  0  0  0  0  0  0  0  0  0  0  0
  139.9680   70.5700  227.2110 C   0  0  0  0  0  0  0  0  0  0  0  0
  139.7480   70.4900  224.0250 C   0  0  0  0  0  0  0  0  0  0  0  0
  139.7130   73.4790  222.5740 N   0  0  0  0  0  0  0  0  0  0  0  0
  140.3040   74.6090  221.9640 C   0  0  0  0  0  0  0  0  0  0  0  0
  139.7670   75.8490  222.1950 C   0  0  0  0  0  0  0  0  0  0  0  0
  140.2870   76.9290  221.5300 C   0  0  0  0  0  0  0  0  0  0  0  0
  141.3280   76.7080  220.6560 C   0  0  0  0  0  0  0  0  0  0  0  0
  141.8350   77.7930  219.8210 C   0  0  0  0  0  0  0  0  0  0  0  0
  142.5450   77.6260  218.6650 C   0  0  0  0  0  0  0  0  0  0  0  0
  142.9210   78.7500  217.9690 C   0  0  0  0  0  0  0  0  0  0  0  0
  142.5930   80.0250  218.4230 C   0  0  0  0  0  0  0  0  0  0  0  0
  142.9520   81.1410  217.7370 F   0  0  0  0  0  0  0  0  0  0  0  0
  141.8780   80.2100  219.5880 C   0  0  0  0  0  0  0  0  0  0  0  0
  141.5060   79.0800  220.2750 C   0  0  0  0  0  0  0  0  0  0  0  0
  141.8710   75.4540  220.4350 C   0  0  0  0  0  0  0  0  0  0  0  0
  141.3570   74.3730  221.0990 C   0  0  0  0  0  0  0  0  0  0  0  0
  140.8361   71.1678  220.7378 H   0  0  0  0  0  0  0  0  0  0  0  0
  141.9766   71.3780  222.1377 H   0  0  0  0  0  0  0  0  0  0  0  0
  137.6565   71.5517  221.5469 H   0  0  0  0  0  0  0  0  0  0  0  0
  136.2760   69.6476  222.3728 H   0  0  0  0  0  0  0  0  0  0  0  0
  137.1573   68.2903  224.2665 H   0  0  0  0  0  0  0  0  0  0  0  0
  139.7422   68.4701  228.7416 H   0  0  0  0  0  0  0  0  0  0  0  0
  141.1070   67.8410  228.0372 H   0  0  0  0  0  0  0  0  0  0  0  0
  141.0268   70.5724  229.1463 H   0  0  0  0  0  0  0  0  0  0  0  0
  142.1348   70.3834  227.9428 H   0  0  0  0  0  0  0  0  0  0  0  0
  139.0540   70.9106  227.7196 H   0  0  0  0  0  0  0  0  0  0  0  0
  140.0822   71.4153  226.5165 H   0  0  0  0  0  0  0  0  0  0  0  0
  140.7175   70.7286  224.4867 H   0  0  0  0  0  0  0  0  0  0  0  0
  138.9334   75.9751  222.9016 H   0  0  0  0  0  0  0  0  0  0  0  0
  139.8853   77.9405  221.6895 H   0  0  0  0  0  0  0  0  0  0  0  0
  142.8078   76.6213  218.3023 H   0  0  0  0  0  0  0  0  0  0  0  0
  143.4921   78.6403  217.0353 H   0  0  0  0  0  0  0  0  0  0  0  0
  141.6178   81.2156  219.9501 H   0  0  0  0  0  0  0  0  0  0  0  0
  140.9335   79.1868  221.2082 H   0  0  0  0  0  0  0  0  0  0  0  0
  142.7078   75.3274  219.7323 H   0  0  0  0  0  0  0  0  0  0  0  0
  1  2  2  0
  2  3  1  0
  3  4  1  0
  4  5  1  0
  5  6  2  0
  6  7  1  0
  7  8  2  0
  8  9  1  0
  9 10  1  0
 10 11  2  0
 10 12  1  0
 12 13  1  0
 13 14  1  0
 14 15  1  0
  9 16  2  0
  4 17  2  0
 17 18  1  0
 18 19  2  0
 19 20  1  0
 20 21  2  0
 21 22  1  0
 22 23  2  0
 23 24  1  0
 24 25  2  0
 25 26  1  0
 25 27  1  0
 27 28  2  0
 21 29  1  0
 29 30  2  0
 30  2  1  0
 16  5  1  0
 30 18  1  0
 15 12  1  0
 28 22  1  0
  3 31  1  0
  3 32  1  0
  6 33  1  0
  7 34  1  0
  8 35  1  0
 13 36  1  0
 13 37  1  0
 14 38  1  0
 14 39  1  0
 15 40  1  0
 15 41  1  0
 16 42  1  0
 19 43  1  0
 20 44  1  0
 23 45  1  0
 24 46  1  0
 27 47  1  0
 28 48  1  0
 29 49  1  0
M  END
>  <smiles>  (37) 
O=C1CC(c2cccc(C(=O)N3CCC3)c2)=Nc2ccc(-c3ccc(F)cc3)cc21

>  <score_type>  (37) 
oracle

>  <origin>  (37) 
autodockgpu

>  <m_score__min__energy>  (37) 
-8.6400000000000006

>  <m_primary>  (37) 
energy

>  <rmsd>  (37) 
6.792948495854071

>  <m_score__min__rmsd>  (37) 
6.792948495854071

>  <meeko>  (37) 
{"free_energy": -8.54, "intermolecular_energy": -9.43, "internal_energy": -0.99, "cluster_size": 48, "cluster_id": 1, "rank_in_cluster": 23}

>  <energy>  (37) 
-8.51

>  <cluster_rmsd>  (37) 
0.92

>  <cluster>  (37) 
1

$$$$

     RDKit          3D

 49 53  0  0  0  0  0  0  0  0999 V2000
  142.8340   72.9480  219.8230 O   0  0  0  0  0  0  0  0  0  0  0  0
  141.9000   73.0460  220.6490 C   0  0  0  0  0  0  0  0  0  0  0  0
  141.2780   71.8370  221.2810 C   0  0  0  0  0  0  0  0  0  0  0  0
  140.1940   72.1840  222.1970 C   0  0  0  0  0  0  0  0  0  0  0  0
  139.3380   71.1090  222.7580 C   0  0  0  0  0  0  0  0  0  0  0  0
  138.2240   70.6910  222.0720 C   0  0  0  0  0  0  0  0  0  0  0  0
  137.4900   69.6040  222.4990 C   0  0  0  0  0  0  0  0  0  0  0  0
  137.9210   68.9560  223.6380 C   0  0  0  0  0  0  0  0  0  0  0  0
  139.0450   69.3880  224.3230 C   0  0  0  0  0  0  0  0  0  0  0  0
  139.5130   68.6640  225.4930 C   0  0  0  0  0  0  0  0  0  0  0  0
  139.5250   67.4050  225.4030 O   0  0  0  0  0  0  0  0  0  0  0  0
  139.9220   69.3480  226.6460 N   0  0  0  0  0  0  0  0  0  0  0  0
  140.4290   69.0190  227.9420 C   0  0  0  0  0  0  0  0  0  0  0  0
  141.0610   70.4190  227.9720 C   0  0  0  0  0  0  0  0  0  0  0  0
  139.9960   70.7690  226.9760 C   0  0  0  0  0  0  0  0  0  0  0  0
  139.7900   70.4750  223.9120 C   0  0  0  0  0  0  0  0  0  0  0  0
  139.8030   73.3840  222.4900 N   0  0  0  0  0  0  0  0  0  0  0  0
  140.3720   74.5510  221.9300 C   0  0  0  0  0  0  0  0  0  0  0  0
  139.8390   75.7730  222.2500 C   0  0  0  0  0  0  0  0  0  0  0  0
  140.3360   76.8920  221.6340 C   0  0  0  0  0  0  0  0  0  0  0  0
  141.3500   76.7280  220.7180 C   0  0  0  0  0  0  0  0  0  0  0  0
  141.8280   77.8620  219.9340 C   0  0  0  0  0  0  0  0  0  0  0  0
  142.5330   77.7670  218.7660 C   0  0  0  0  0  0  0  0  0  0  0  0
  142.8810   78.9310  218.1230 C   0  0  0  0  0  0  0  0  0  0  0  0
  142.5300   80.1750  218.6410 C   0  0  0  0  0  0  0  0  0  0  0  0
  142.8610   81.3300  218.0080 F   0  0  0  0  0  0  0  0  0  0  0  0
  141.8200   80.2880  219.8180 C   0  0  0  0  0  0  0  0  0  0  0  0
  141.4760   79.1190  220.4510 C   0  0  0  0  0  0  0  0  0  0  0  0
  141.8890   75.4910  220.4070 C   0  0  0  0  0  0  0  0  0  0  0  0
  141.3990   74.3710  221.0210 C   0  0  0  0  0  0  0  0  0  0  0  0
  140.8764   71.1902  220.4870 H   0  0  0  0  0  0  0  0  0  0  0  0
  142.0577   71.3235  221.8627 H   0  0  0  0  0  0  0  0  0  0  0  0
  137.9118   71.2323  221.1667 H   0  0  0  0  0  0  0  0  0  0  0  0
  136.5965   69.2672  221.9529 H   0  0  0  0  0  0  0  0  0  0  0  0
  137.3636   68.0828  224.0080 H   0  0  0  0  0  0  0  0  0  0  0  0
  139.6575   68.8469  228.7069 H   0  0  0  0  0  0  0  0  0  0  0  0
  141.0236   68.1105  228.1185 H   0  0  0  0  0  0  0  0  0  0  0  0
  140.9928   70.9442  228.9361 H   0  0  0  0  0  0  0  0  0  0  0  0
  142.1318   70.6003  227.7976 H   0  0  0  0  0  0  0  0  0  0  0  0
  139.0775   71.1859  227.4148 H   0  0  0  0  0  0  0  0  0  0  0  0
  140.1582   71.5337  226.2021 H   0  0  0  0  0  0  0  0  0  0  0  0
  140.6807   70.8171  224.4594 H   0  0  0  0  0  0  0  0  0  0  0  0
  139.0272   75.8539  222.9878 H   0  0  0  0  0  0  0  0  0  0  0  0
  139.9366   77.8906  221.8647 H   0  0  0  0  0  0  0  0  0  0  0  0
  142.8136   76.7869  218.3528 H   0  0  0  0  0  0  0  0  0  0  0  0
  143.4474   78.8788  217.1815 H   0  0  0  0  0  0  0  0  0  0  0  0
  141.5422   81.2691  220.2305 H   0  0  0  0  0  0  0  0  0  0  0  0
  140.9075   79.1689  221.3914 H   0  0  0  0  0  0  0  0  0  0  0  0
  142.7040   75.4096  219.6727 H   0  0  0  0  0  0  0  0  0  0  0  0
  1  2  2  0
  2  3  1  0
  3  4  1  0
  4  5  1  0
  5  6  2  0
  6  7  1  0
  7  8  2  0
  8  9  1  0
  9 10  1  0
 10 11  2  0
 10 12  1  0
 12 13  1  0
 13 14  1  0
 14 15  1  0
  9 16  2  0
  4 17  2  0
 17 18  1  0
 18 19  2  0
 19 20  1  0
 20 21  2  0
 21 22  1  0
 22 23  2  0
 23 24  1  0
 24 25  2  0
 25 26  1  0
 25 27  1  0
 27 28  2  0
 21 29  1  0
 29 30  2  0
 30  2  1  0
 16  5  1  0
 30 18  1  0
 15 12  1  0
 28 22  1  0
  3 31  1  0
  3 32  1  0
  6 33  1  0
  7 34  1  0
  8 35  1  0
 13 36  1  0
 13 37  1  0
 14 38  1  0
 14 39  1  0
 15 40  1  0
 15 41  1  0
 16 42  1  0
 19 43  1  0
 20 44  1  0
 23 45  1  0
 24 46  1  0
 27 47  1  0
 28 48  1  0
 29 49  1  0
M  END
>  <smiles>  (38) 
O=C1CC(c2cccc(C(=O)N3CCC3)c2)=Nc2ccc(-c3ccc(F)cc3)cc21

>  <score_type>  (38) 
oracle

>  <origin>  (38) 
autodockgpu

>  <m_score__min__energy>  (38) 
-8.6400000000000006

>  <m_primary>  (38) 
energy

>  <rmsd>  (38) 
6.772748346816142

>  <m_score__min__rmsd>  (38) 
6.772748346816142

>  <meeko>  (38) 
{"free_energy": -8.47, "intermolecular_energy": -9.37, "internal_energy": -0.95, "cluster_size": 48, "cluster_id": 1, "rank_in_cluster": 42}

>  <energy>  (38) 
-8.5

>  <cluster_rmsd>  (38) 
0.95

>  <cluster>  (38) 
1

$$$$

     RDKit          3D

 49 53  0  0  0  0  0  0  0  0999 V2000
  143.1110   73.1070  220.5080 O   0  0  0  0  0  0  0  0  0  0  0  0
  142.0250   73.2440  221.1140 C   0  0  0  0  0  0  0  0  0  0  0  0
  141.3550   72.0890  221.7980 C   0  0  0  0  0  0  0  0  0  0  0  0
  140.0910   72.4720  222.4240 C   0  0  0  0  0  0  0  0  0  0  0  0
  139.2000   71.4200  222.9740 C   0  0  0  0  0  0  0  0  0  0  0  0
  137.9580   71.2150  222.4220 C   0  0  0  0  0  0  0  0  0  0  0  0
  137.1680   70.1580  222.8200 C   0  0  0  0  0  0  0  0  0  0  0  0
  137.6730   69.3180  223.7900 C   0  0  0  0  0  0  0  0  0  0  0  0
  138.9250   69.5360  224.3400 C   0  0  0  0  0  0  0  0  0  0  0  0
  139.4620   68.6120  225.3250 C   0  0  0  0  0  0  0  0  0  0  0  0
  139.5110   67.3980  224.9850 O   0  0  0  0  0  0  0  0  0  0  0  0
  139.8960   69.0680  226.5780 N   0  0  0  0  0  0  0  0  0  0  0  0
  140.4630   68.5080  227.7650 C   0  0  0  0  0  0  0  0  0  0  0  0
  141.0520   69.8970  228.0530 C   0  0  0  0  0  0  0  0  0  0  0  0
  139.9380   70.3970  227.1830 C   0  0  0  0  0  0  0  0  0  0  0  0
  139.7300   70.5890  223.9560 C   0  0  0  0  0  0  0  0  0  0  0  0
  139.5840   73.6640  222.4420 N   0  0  0  0  0  0  0  0  0  0  0  0
  140.1890   74.7810  221.8230 C   0  0  0  0  0  0  0  0  0  0  0  0
  139.5360   75.9870  221.8380 C   0  0  0  0  0  0  0  0  0  0  0  0
  140.0850   77.0440  221.1590 C   0  0  0  0  0  0  0  0  0  0  0  0
  141.2710   76.8360  220.4910 C   0  0  0  0  0  0  0  0  0  0  0  0
  141.8350   77.8820  219.6440 C   0  0  0  0  0  0  0  0  0  0  0  0
  142.4750   77.6670  218.4550 C   0  0  0  0  0  0  0  0  0  0  0  0
  142.9180   78.7620  217.7520 C   0  0  0  0  0  0  0  0  0  0  0  0
  142.7250   80.0550  218.2310 C   0  0  0  0  0  0  0  0  0  0  0  0
  143.1510   81.1430  217.5390 F   0  0  0  0  0  0  0  0  0  0  0  0
  142.0830   80.2880  219.4290 C   0  0  0  0  0  0  0  0  0  0  0  0
  141.6420   79.1870  220.1220 C   0  0  0  0  0  0  0  0  0  0  0  0
  141.9290   75.6180  220.4900 C   0  0  0  0  0  0  0  0  0  0  0  0
  141.3870   74.5600  221.1680 C   0  0  0  0  0  0  0  0  0  0  0  0
  141.1573   71.3035  221.0537 H   0  0  0  0  0  0  0  0  0  0  0  0
  142.0282   71.7311  222.5909 H   0  0  0  0  0  0  0  0  0  0  0  0
  137.5884   71.9059  221.6499 H   0  0  0  0  0  0  0  0  0  0  0  0
  136.1733   69.9910  222.3810 H   0  0  0  0  0  0  0  0  0  0  0  0
  137.0725   68.4622  224.1319 H   0  0  0  0  0  0  0  0  0  0  0  0
  139.7277   68.1585  228.5047 H   0  0  0  0  0  0  0  0  0  0  0  0
  141.0916   67.6058  227.7376 H   0  0  0  0  0  0  0  0  0  0  0  0
  141.0064   70.2173  229.1043 H   0  0  0  0  0  0  0  0  0  0  0  0
  142.1089   70.1500  227.8829 H   0  0  0  0  0  0  0  0  0  0  0  0
  139.0250   70.6824  227.7262 H   0  0  0  0  0  0  0  0  0  0  0  0
  140.0449   71.3062  226.5731 H   0  0  0  0  0  0  0  0  0  0  0  0
  140.7234   70.7598  224.3964 H   0  0  0  0  0  0  0  0  0  0  0  0
  138.5888   76.1041  222.3850 H   0  0  0  0  0  0  0  0  0  0  0  0
  139.5932   78.0279  221.1482 H   0  0  0  0  0  0  0  0  0  0  0  0
  142.6308   76.6476  218.0722 H   0  0  0  0  0  0  0  0  0  0  0  0
  143.4350   78.6139  216.7924 H   0  0  0  0  0  0  0  0  0  0  0  0
  141.9311   81.3080  219.8118 H   0  0  0  0  0  0  0  0  0  0  0  0
  141.1220   79.3328  221.0803 H   0  0  0  0  0  0  0  0  0  0  0  0
  142.8795   75.5016  219.9488 H   0  0  0  0  0  0  0  0  0  0  0  0
  1  2  2  0
  2  3  1  0
  3  4  1  0
  4  5  1  0
  5  6  2  0
  6  7  1  0
  7  8  2  0
  8  9  1  0
  9 10  1  0
 10 11  2  0
 10 12  1  0
 12 13  1  0
 13 14  1  0
 14 15  1  0
  9 16  2  0
  4 17  2  0
 17 18  1  0
 18 19  2  0
 19 20  1  0
 20 21  2  0
 21 22  1  0
 22 23  2  0
 23 24  1  0
 24 25  2  0
 25 26  1  0
 25 27  1  0
 27 28  2  0
 21 29  1  0
 29 30  2  0
 30  2  1  0
 16  5  1  0
 30 18  1  0
 15 12  1  0
 28 22  1  0
  3 31  1  0
  3 32  1  0
  6 33  1  0
  7 34  1  0
  8 35  1  0
 13 36  1  0
 13 37  1  0
 14 38  1  0
 14 39  1  0
 15 40  1  0
 15 41  1  0
 16 42  1  0
 19 43  1  0
 20 44  1  0
 23 45  1  0
 24 46  1  0
 27 47  1  0
 28 48  1  0
 29 49  1  0
M  END
>  <smiles>  (39) 
O=C1CC(c2cccc(C(=O)N3CCC3)c2)=Nc2ccc(-c3ccc(F)cc3)cc21

>  <score_type>  (39) 
oracle

>  <origin>  (39) 
autodockgpu

>  <m_score__min__energy>  (39) 
-8.6400000000000006

>  <m_primary>  (39) 
energy

>  <rmsd>  (39) 
6.767991689452325

>  <m_score__min__rmsd>  (39) 
6.767991689452325

>  <meeko>  (39) 
{"free_energy": -8.38, "intermolecular_energy": -9.28, "internal_energy": -1.0, "cluster_size": 48, "cluster_id": 1, "rank_in_cluster": 46}

>  <energy>  (39) 
-8.5

>  <cluster_rmsd>  (39) 
0.95

>  <cluster>  (39) 
1

$$$$

     RDKit          3D

 49 53  0  0  0  0  0  0  0  0999 V2000
  142.8620   72.9270  220.1810 O   0  0  0  0  0  0  0  0  0  0  0  0
  141.8750   73.1040  220.9290 C   0  0  0  0  0  0  0  0  0  0  0  0
  141.2130   71.9630  221.6410 C   0  0  0  0  0  0  0  0  0  0  0  0
  140.0710   72.3950  222.4420 C   0  0  0  0  0  0  0  0  0  0  0  0
  139.1800   71.3780  223.0550 C   0  0  0  0  0  0  0  0  0  0  0  0
  137.9080   71.1970  222.5670 C   0  0  0  0  0  0  0  0  0  0  0  0
  137.1100   70.1680  223.0230 C   0  0  0  0  0  0  0  0  0  0  0  0
  137.6400   69.3330  223.9840 C   0  0  0  0  0  0  0  0  0  0  0  0
  138.9220   69.5270  224.4700 C   0  0  0  0  0  0  0  0  0  0  0  0
  139.4830   68.6070  225.4460 C   0  0  0  0  0  0  0  0  0  0  0  0
  139.5470   67.3950  225.1000 O   0  0  0  0  0  0  0  0  0  0  0  0
  139.9210   69.0650  226.6960 N   0  0  0  0  0  0  0  0  0  0  0  0
  140.5080   68.5080  227.8760 C   0  0  0  0  0  0  0  0  0  0  0  0
  141.0790   69.9050  228.1650 C   0  0  0  0  0  0  0  0  0  0  0  0
  139.9490   70.3910  227.3070 C   0  0  0  0  0  0  0  0  0  0  0  0
  139.7350   70.5510  224.0270 C   0  0  0  0  0  0  0  0  0  0  0  0
  139.6600   73.6160  222.5820 N   0  0  0  0  0  0  0  0  0  0  0  0
  140.2640   74.7220  221.9410 C   0  0  0  0  0  0  0  0  0  0  0  0
  139.7100   75.9670  222.0960 C   0  0  0  0  0  0  0  0  0  0  0  0
  140.2460   77.0200  221.4010 C   0  0  0  0  0  0  0  0  0  0  0  0
  141.3190   76.7690  220.5760 C   0  0  0  0  0  0  0  0  0  0  0  0
  141.8470   77.8190  219.7110 C   0  0  0  0  0  0  0  0  0  0  0  0
  142.5320   77.6050  218.5460 C   0  0  0  0  0  0  0  0  0  0  0  0
  142.9330   78.7010  217.8220 C   0  0  0  0  0  0  0  0  0  0  0  0
  142.6550   79.9960  218.2540 C   0  0  0  0  0  0  0  0  0  0  0  0
  143.0400   81.0850  217.5400 F   0  0  0  0  0  0  0  0  0  0  0  0
  141.9670   80.2280  219.4260 C   0  0  0  0  0  0  0  0  0  0  0  0
  141.5690   79.1250  220.1430 C   0  0  0  0  0  0  0  0  0  0  0  0
  141.8790   75.5110  220.4320 C   0  0  0  0  0  0  0  0  0  0  0  0
  141.3490   74.4560  221.1260 C   0  0  0  0  0  0  0  0  0  0  0  0
  140.8652   71.2343  220.8940 H   0  0  0  0  0  0  0  0  0  0  0  0
  141.9526   71.5185  222.3232 H   0  0  0  0  0  0  0  0  0  0  0  0
  137.5198   71.8837  221.8004 H   0  0  0  0  0  0  0  0  0  0  0  0
  136.0913   70.0195  222.6353 H   0  0  0  0  0  0  0  0  0  0  0  0
  137.0348   68.4997  224.3706 H   0  0  0  0  0  0  0  0  0  0  0  0
  139.7850   68.1441  228.6209 H   0  0  0  0  0  0  0  0  0  0  0  0
  141.1499   67.6155  227.8386 H   0  0  0  0  0  0  0  0  0  0  0  0
  141.0381   70.2203  229.2181 H   0  0  0  0  0  0  0  0  0  0  0  0
  142.1303   70.1750  227.9866 H   0  0  0  0  0  0  0  0  0  0  0  0
  139.0369   70.6599  227.8599 H   0  0  0  0  0  0  0  0  0  0  0  0
  140.0368   71.3042  226.7001 H   0  0  0  0  0  0  0  0  0  0  0  0
  140.7526   70.7030  224.4160 H   0  0  0  0  0  0  0  0  0  0  0  0
  138.8508   76.1179  222.7661 H   0  0  0  0  0  0  0  0  0  0  0  0
  139.8315   78.0341  221.4995 H   0  0  0  0  0  0  0  0  0  0  0  0
  142.7550   76.5851  218.1995 H   0  0  0  0  0  0  0  0  0  0  0  0
  143.4849   78.5533  216.8820 H   0  0  0  0  0  0  0  0  0  0  0  0
  141.7467   81.2489  219.7714 H   0  0  0  0  0  0  0  0  0  0  0  0
  141.0164   79.2702  221.0830 H   0  0  0  0  0  0  0  0  0  0  0  0
  142.7416   75.3603  219.7663 H   0  0  0  0  0  0  0  0  0  0  0  0
  1  2  2  0
  2  3  1  0
  3  4  1  0
  4  5  1  0
  5  6  2  0
  6  7  1  0
  7  8  2  0
  8  9  1  0
  9 10  1  0
 10 11  2  0
 10 12  1  0
 12 13  1  0
 13 14  1  0
 14 15  1  0
  9 16  2  0
  4 17  2  0
 17 18  1  0
 18 19  2  0
 19 20  1  0
 20 21  2  0
 21 22  1  0
 22 23  2  0
 23 24  1  0
 24 25  2  0
 25 26  1  0
 25 27  1  0
 27 28  2  0
 21 29  1  0
 29 30  2  0
 30  2  1  0
 16  5  1  0
 30 18  1  0
 15 12  1  0
 28 22  1  0
  3 31  1  0
  3 32  1  0
  6 33  1  0
  7 34  1  0
  8 35  1  0
 13 36  1  0
 13 37  1  0
 14 38  1  0
 14 39  1  0
 15 40  1  0
 15 41  1  0
 16 42  1  0
 19 43  1  0
 20 44  1  0
 23 45  1  0
 24 46  1  0
 27 47  1  0
 28 48  1  0
 29 49  1  0
M  END
>  <smiles>  (40) 
O=C1CC(c2cccc(C(=O)N3CCC3)c2)=Nc2ccc(-c3ccc(F)cc3)cc21

>  <score_type>  (40) 
oracle

>  <origin>  (40) 
autodockgpu

>  <m_score__min__energy>  (40) 
-8.6400000000000006

>  <m_primary>  (40) 
energy

>  <rmsd>  (40) 
6.806996892590996

>  <m_score__min__rmsd>  (40) 
6.806996892590996

>  <meeko>  (40) 
{"free_energy": -8.54, "intermolecular_energy": -9.43, "internal_energy": -1.01, "cluster_size": 48, "cluster_id": 1, "rank_in_cluster": 22}

>  <energy>  (40) 
-8.49

>  <cluster_rmsd>  (40) 
0.98

>  <cluster>  (40) 
1

$$$$

     RDKit          3D

 49 53  0  0  0  0  0  0  0  0999 V2000
  142.8620   72.9520  220.2210 O   0  0  0  0  0  0  0  0  0  0  0  0
  141.8700   73.1250  220.9660 C   0  0  0  0  0  0  0  0  0  0  0  0
  141.2110   71.9810  221.6770 C   0  0  0  0  0  0  0  0  0  0  0  0
  140.0640   72.4090  222.4730 C   0  0  0  0  0  0  0  0  0  0  0  0
  139.1750   71.3890  223.0840 C   0  0  0  0  0  0  0  0  0  0  0  0
  137.9030   71.2070  222.5970 C   0  0  0  0  0  0  0  0  0  0  0  0
  137.1080   70.1760  223.0510 C   0  0  0  0  0  0  0  0  0  0  0  0
  137.6410   69.3380  224.0080 C   0  0  0  0  0  0  0  0  0  0  0  0
  138.9240   69.5320  224.4920 C   0  0  0  0  0  0  0  0  0  0  0  0
  139.4870   68.6100  225.4640 C   0  0  0  0  0  0  0  0  0  0  0  0
  139.5510   67.3990  225.1140 O   0  0  0  0  0  0  0  0  0  0  0  0
  139.9300   69.0640  226.7140 N   0  0  0  0  0  0  0  0  0  0  0  0
  140.5210   68.5040  227.8900 C   0  0  0  0  0  0  0  0  0  0  0  0
  141.0920   69.9000  228.1810 C   0  0  0  0  0  0  0  0  0  0  0  0
  139.9590   70.3880  227.3290 C   0  0  0  0  0  0  0  0  0  0  0  0
  139.7340   70.5580  224.0510 C   0  0  0  0  0  0  0  0  0  0  0  0
  139.6460   73.6290  222.6090 N   0  0  0  0  0  0  0  0  0  0  0  0
  140.2470   74.7370  221.9690 C   0  0  0  0  0  0  0  0  0  0  0  0
  139.6860   75.9790  222.1190 C   0  0  0  0  0  0  0  0  0  0  0  0
  140.2190   77.0330  221.4240 C   0  0  0  0  0  0  0  0  0  0  0  0
  141.2970   76.7860  220.6040 C   0  0  0  0  0  0  0  0  0  0  0  0
  141.8240   77.8380  219.7390 C   0  0  0  0  0  0  0  0  0  0  0  0
  142.5410   77.6260  218.5950 C   0  0  0  0  0  0  0  0  0  0  0  0
  142.9360   78.7220  217.8670 C   0  0  0  0  0  0  0  0  0  0  0  0
  142.6200   80.0150  218.2770 C   0  0  0  0  0  0  0  0  0  0  0  0
  142.9980   81.1040  217.5590 F   0  0  0  0  0  0  0  0  0  0  0  0
  141.8980   80.2450  219.4290 C   0  0  0  0  0  0  0  0  0  0  0  0
  141.5070   79.1420  220.1490 C   0  0  0  0  0  0  0  0  0  0  0  0
  141.8640   75.5310  220.4650 C   0  0  0  0  0  0  0  0  0  0  0  0
  141.3370   74.4750  221.1580 C   0  0  0  0  0  0  0  0  0  0  0  0
  140.8696   71.2497  220.9296 H   0  0  0  0  0  0  0  0  0  0  0  0
  141.9502   71.5405  222.3623 H   0  0  0  0  0  0  0  0  0  0  0  0
  137.5127   71.8950  221.8326 H   0  0  0  0  0  0  0  0  0  0  0  0
  136.0887   70.0277  222.6651 H   0  0  0  0  0  0  0  0  0  0  0  0
  137.0377   68.5026  224.3928 H   0  0  0  0  0  0  0  0  0  0  0  0
  139.8007   68.1376  228.6363 H   0  0  0  0  0  0  0  0  0  0  0  0
  141.1632   67.6119  227.8479 H   0  0  0  0  0  0  0  0  0  0  0  0
  141.0548   70.2120  229.2352 H   0  0  0  0  0  0  0  0  0  0  0  0
  142.1425   70.1711  227.9995 H   0  0  0  0  0  0  0  0  0  0  0  0
  139.0487   70.6545  227.8860 H   0  0  0  0  0  0  0  0  0  0  0  0
  140.0438   71.3033  226.7248 H   0  0  0  0  0  0  0  0  0  0  0  0
  140.7527   70.7093  224.4373 H   0  0  0  0  0  0  0  0  0  0  0  0
  138.8234   76.1268  222.7854 H   0  0  0  0  0  0  0  0  0  0  0  0
  139.7985   78.0451  221.5184 H   0  0  0  0  0  0  0  0  0  0  0  0
  142.7945   76.6072  218.2666 H   0  0  0  0  0  0  0  0  0  0  0  0
  143.5132   78.5755  216.9421 H   0  0  0  0  0  0  0  0  0  0  0  0
  141.6466   81.2646  219.7565 H   0  0  0  0  0  0  0  0  0  0  0  0
  140.9287   79.2853  221.0737 H   0  0  0  0  0  0  0  0  0  0  0  0
  142.7304   75.3837  219.8035 H   0  0  0  0  0  0  0  0  0  0  0  0
  1  2  2  0
  2  3  1  0
  3  4  1  0
  4  5  1  0
  5  6  2  0
  6  7  1  0
  7  8  2  0
  8  9  1  0
  9 10  1  0
 10 11  2  0
 10 12  1  0
 12 13  1  0
 13 14  1  0
 14 15  1  0
  9 16  2  0
  4 17  2  0
 17 18  1  0
 18 19  2  0
 19 20  1  0
 20 21  2  0
 21 22  1  0
 22 23  2  0
 23 24  1  0
 24 25  2  0
 25 26  1  0
 25 27  1  0
 27 28  2  0
 21 29  1  0
 29 30  2  0
 30  2  1  0
 16  5  1  0
 30 18  1  0
 15 12  1  0
 28 22  1  0
  3 31  1  0
  3 32  1  0
  6 33  1  0
  7 34  1  0
  8 35  1  0
 13 36  1  0
 13 37  1  0
 14 38  1  0
 14 39  1  0
 15 40  1  0
 15 41  1  0
 16 42  1  0
 19 43  1  0
 20 44  1  0
 23 45  1  0
 24 46  1  0
 27 47  1  0
 28 48  1  0
 29 49  1  0
M  END
>  <smiles>  (41) 
O=C1CC(c2cccc(C(=O)N3CCC3)c2)=Nc2ccc(-c3ccc(F)cc3)cc21

>  <score_type>  (41) 
oracle

>  <origin>  (41) 
autodockgpu

>  <m_score__min__energy>  (41) 
-8.6400000000000006

>  <m_primary>  (41) 
energy

>  <rmsd>  (41) 
6.806246269879593

>  <m_score__min__rmsd>  (41) 
6.806246269879593

>  <meeko>  (41) 
{"free_energy": -8.54, "intermolecular_energy": -9.43, "internal_energy": -1.01, "cluster_size": 48, "cluster_id": 1, "rank_in_cluster": 20}

>  <energy>  (41) 
-8.49

>  <cluster_rmsd>  (41) 
0.96

>  <cluster>  (41) 
1

$$$$

     RDKit          3D

 49 53  0  0  0  0  0  0  0  0999 V2000
  142.9220   72.9450  220.3120 O   0  0  0  0  0  0  0  0  0  0  0  0
  141.9070   73.1060  221.0260 C   0  0  0  0  0  0  0  0  0  0  0  0
  141.2510   71.9570  221.7320 C   0  0  0  0  0  0  0  0  0  0  0  0
  140.0730   72.3700  222.4900 C   0  0  0  0  0  0  0  0  0  0  0  0
  139.1880   71.3390  223.0880 C   0  0  0  0  0  0  0  0  0  0  0  0
  137.9390   71.1180  222.5610 C   0  0  0  0  0  0  0  0  0  0  0  0
  137.1530   70.0760  223.0060 C   0  0  0  0  0  0  0  0  0  0  0  0
  137.6710   69.2670  223.9950 C   0  0  0  0  0  0  0  0  0  0  0  0
  138.9320   69.5010  224.5200 C   0  0  0  0  0  0  0  0  0  0  0  0
  139.4830   68.6090  225.5260 C   0  0  0  0  0  0  0  0  0  0  0  0
  139.5370   67.3860  225.2210 O   0  0  0  0  0  0  0  0  0  0  0  0
  139.9230   69.1040  226.7620 N   0  0  0  0  0  0  0  0  0  0  0  0
  140.5040   68.5810  227.9600 C   0  0  0  0  0  0  0  0  0  0  0  0
  141.0860   69.9820  228.2040 C   0  0  0  0  0  0  0  0  0  0  0  0
  139.9610   70.4490  227.3290 C   0  0  0  0  0  0  0  0  0  0  0  0
  139.7320   70.5390  224.0890 C   0  0  0  0  0  0  0  0  0  0  0  0
  139.6270   73.5820  222.6000 N   0  0  0  0  0  0  0  0  0  0  0  0
  140.2240   74.6950  221.9640 C   0  0  0  0  0  0  0  0  0  0  0  0
  139.6340   75.9270  222.0840 C   0  0  0  0  0  0  0  0  0  0  0  0
  140.1650   76.9850  221.3920 C   0  0  0  0  0  0  0  0  0  0  0  0
  141.2710   76.7500  220.6050 C   0  0  0  0  0  0  0  0  0  0  0  0
  141.8010   77.8020  219.7430 C   0  0  0  0  0  0  0  0  0  0  0  0
  142.5060   77.5910  218.5910 C   0  0  0  0  0  0  0  0  0  0  0  0
  142.9050   78.6880  217.8670 C   0  0  0  0  0  0  0  0  0  0  0  0
  142.6060   79.9810  218.2890 C   0  0  0  0  0  0  0  0  0  0  0  0
  142.9890   81.0710  217.5750 F   0  0  0  0  0  0  0  0  0  0  0  0
  141.8970   80.2110  219.4490 C   0  0  0  0  0  0  0  0  0  0  0  0
  141.5000   79.1070  220.1640 C   0  0  0  0  0  0  0  0  0  0  0  0
  141.8660   75.5050  220.4970 C   0  0  0  0  0  0  0  0  0  0  0  0
  141.3410   74.4470  221.1870 C   0  0  0  0  0  0  0  0  0  0  0  0
  140.9461   71.2102  220.9841 H   0  0  0  0  0  0  0  0  0  0  0  0
  141.9790   71.5402  222.4435 H   0  0  0  0  0  0  0  0  0  0  0  0
  137.5596   71.7830  221.7712 H   0  0  0  0  0  0  0  0  0  0  0  0
  136.1513   69.8971  222.5880 H   0  0  0  0  0  0  0  0  0  0  0  0
  137.0746   68.4235  224.3729 H   0  0  0  0  0  0  0  0  0  0  0  0
  139.7773   68.2475  228.7154 H   0  0  0  0  0  0  0  0  0  0  0  0
  141.1386   67.6825  227.9526 H   0  0  0  0  0  0  0  0  0  0  0  0
  141.0465   70.3318  229.2461 H   0  0  0  0  0  0  0  0  0  0  0  0
  142.1397   70.2375  228.0184 H   0  0  0  0  0  0  0  0  0  0  0  0
  139.0505   70.7434  227.8715 H   0  0  0  0  0  0  0  0  0  0  0  0
  140.0568   71.3411  226.6926 H   0  0  0  0  0  0  0  0  0  0  0  0
  140.7324   70.7222  224.5081 H   0  0  0  0  0  0  0  0  0  0  0  0
  138.7501   76.0642  222.7243 H   0  0  0  0  0  0  0  0  0  0  0  0
  139.7220   77.9893  221.4630 H   0  0  0  0  0  0  0  0  0  0  0  0
  142.7468   76.5721  218.2535 H   0  0  0  0  0  0  0  0  0  0  0  0
  143.4718   78.5423  216.9356 H   0  0  0  0  0  0  0  0  0  0  0  0
  141.6603   81.2309  219.7863 H   0  0  0  0  0  0  0  0  0  0  0  0
  140.9296   79.2498  221.0936 H   0  0  0  0  0  0  0  0  0  0  0  0
  142.7534   75.3675  219.8617 H   0  0  0  0  0  0  0  0  0  0  0  0
  1  2  2  0
  2  3  1  0
  3  4  1  0
  4  5  1  0
  5  6  2  0
  6  7  1  0
  7  8  2  0
  8  9  1  0
  9 10  1  0
 10 11  2  0
 10 12  1  0
 12 13  1  0
 13 14  1  0
 14 15  1  0
  9 16  2  0
  4 17  2  0
 17 18  1  0
 18 19  2  0
 19 20  1  0
 20 21  2  0
 21 22  1  0
 22 23  2  0
 23 24  1  0
 24 25  2  0
 25 26  1  0
 25 27  1  0
 27 28  2  0
 21 29  1  0
 29 30  2  0
 30  2  1  0
 16  5  1  0
 30 18  1  0
 15 12  1  0
 28 22  1  0
  3 31  1  0
  3 32  1  0
  6 33  1  0
  7 34  1  0
  8 35  1  0
 13 36  1  0
 13 37  1  0
 14 38  1  0
 14 39  1  0
 15 40  1  0
 15 41  1  0
 16 42  1  0
 19 43  1  0
 20 44  1  0
 23 45  1  0
 24 46  1  0
 27 47  1  0
 28 48  1  0
 29 49  1  0
M  END
>  <smiles>  (42) 
O=C1CC(c2cccc(C(=O)N3CCC3)c2)=Nc2ccc(-c3ccc(F)cc3)cc21

>  <score_type>  (42) 
oracle

>  <origin>  (42) 
autodockgpu

>  <m_score__min__energy>  (42) 
-8.6400000000000006

>  <m_primary>  (42) 
energy

>  <rmsd>  (42) 
6.793558137004907

>  <m_score__min__rmsd>  (42) 
6.793558137004907

>  <meeko>  (42) 
{"free_energy": -8.52, "intermolecular_energy": -9.41, "internal_energy": -1.0, "cluster_size": 48, "cluster_id": 1, "rank_in_cluster": 32}

>  <energy>  (42) 
-8.47

>  <cluster_rmsd>  (42) 
0.64

>  <cluster>  (42) 
1

$$$$

     RDKit          3D

 49 53  0  0  0  0  0  0  0  0999 V2000
  142.6330   72.8380  219.8820 O   0  0  0  0  0  0  0  0  0  0  0  0
  141.7300   73.0320  220.7260 C   0  0  0  0  0  0  0  0  0  0  0  0
  141.0690   71.8960  221.4460 C   0  0  0  0  0  0  0  0  0  0  0  0
  140.0310   72.3510  222.3690 C   0  0  0  0  0  0  0  0  0  0  0  0
  139.1410   71.3560  223.0170 C   0  0  0  0  0  0  0  0  0  0  0  0
  137.8510   71.1960  222.5720 C   0  0  0  0  0  0  0  0  0  0  0  0
  137.0480   70.1870  223.0610 C   0  0  0  0  0  0  0  0  0  0  0  0
  137.5930   69.3480  224.0100 C   0  0  0  0  0  0  0  0  0  0  0  0
  138.8930   69.5190  224.4530 C   0  0  0  0  0  0  0  0  0  0  0  0
  139.4670   68.5950  225.4170 C   0  0  0  0  0  0  0  0  0  0  0  0
  139.5260   67.3850  225.0650 O   0  0  0  0  0  0  0  0  0  0  0  0
  139.9220   69.0480  226.6640 N   0  0  0  0  0  0  0  0  0  0  0  0
  140.5250   68.4850  227.8320 C   0  0  0  0  0  0  0  0  0  0  0  0
  141.0990   69.8810  228.1200 C   0  0  0  0  0  0  0  0  0  0  0  0
  139.9570   70.3710  227.2800 C   0  0  0  0  0  0  0  0  0  0  0  0
  139.7110   70.5240  223.9760 C   0  0  0  0  0  0  0  0  0  0  0  0
  139.7080   73.5850  222.5980 N   0  0  0  0  0  0  0  0  0  0  0  0
  140.3160   74.6860  221.9530 C   0  0  0  0  0  0  0  0  0  0  0  0
  139.8530   75.9500  222.2120 C   0  0  0  0  0  0  0  0  0  0  0  0
  140.3850   77.0040  221.5160 C   0  0  0  0  0  0  0  0  0  0  0  0
  141.3620   76.7350  220.5840 C   0  0  0  0  0  0  0  0  0  0  0  0
  141.8710   77.7950  219.7200 C   0  0  0  0  0  0  0  0  0  0  0  0
  142.5500   77.5950  218.5500 C   0  0  0  0  0  0  0  0  0  0  0  0
  142.9320   78.6990  217.8270 C   0  0  0  0  0  0  0  0  0  0  0  0
  142.6420   79.9880  218.2670 C   0  0  0  0  0  0  0  0  0  0  0  0
  143.0070   81.0840  217.5550 F   0  0  0  0  0  0  0  0  0  0  0  0
  141.9590   80.2060  219.4460 C   0  0  0  0  0  0  0  0  0  0  0  0
  141.5800   79.0960  220.1600 C   0  0  0  0  0  0  0  0  0  0  0  0
  141.8310   75.4560  220.3350 C   0  0  0  0  0  0  0  0  0  0  0  0
  141.3050   74.4000  221.0290 C   0  0  0  0  0  0  0  0  0  0  0  0
  140.6123   71.2250  220.7036 H   0  0  0  0  0  0  0  0  0  0  0  0
  141.8398   71.3786  222.0361 H   0  0  0  0  0  0  0  0  0  0  0  0
  137.4518   71.8845  221.8127 H   0  0  0  0  0  0  0  0  0  0  0  0
  136.0143   70.0567  222.7082 H   0  0  0  0  0  0  0  0  0  0  0  0
  136.9845   68.5293  224.4217 H   0  0  0  0  0  0  0  0  0  0  0  0
  139.8126   68.1168  228.5849 H   0  0  0  0  0  0  0  0  0  0  0  0
  141.1666   67.5929  227.7812 H   0  0  0  0  0  0  0  0  0  0  0  0
  141.0724   70.1909  229.1751 H   0  0  0  0  0  0  0  0  0  0  0  0
  142.1476   70.1524  227.9284 H   0  0  0  0  0  0  0  0  0  0  0  0
  139.0524   70.6368  227.8466 H   0  0  0  0  0  0  0  0  0  0  0  0
  140.0356   71.2872  226.6764 H   0  0  0  0  0  0  0  0  0  0  0  0
  140.7438   70.6580  224.3302 H   0  0  0  0  0  0  0  0  0  0  0  0
  139.0684   76.1154  222.9651 H   0  0  0  0  0  0  0  0  0  0  0  0
  140.0419   78.0334  221.6965 H   0  0  0  0  0  0  0  0  0  0  0  0
  142.7836   76.5794  218.1979 H   0  0  0  0  0  0  0  0  0  0  0  0
  143.4778   78.5620  216.8818 H   0  0  0  0  0  0  0  0  0  0  0  0
  141.7287   81.2225  219.7978 H   0  0  0  0  0  0  0  0  0  0  0  0
  141.0323   79.2301  221.1045 H   0  0  0  0  0  0  0  0  0  0  0  0
  142.6194   75.2902  219.5860 H   0  0  0  0  0  0  0  0  0  0  0  0
  1  2  2  0
  2  3  1  0
  3  4  1  0
  4  5  1  0
  5  6  2  0
  6  7  1  0
  7  8  2  0
  8  9  1  0
  9 10  1  0
 10 11  2  0
 10 12  1  0
 12 13  1  0
 13 14  1  0
 14 15  1  0
  9 16  2  0
  4 17  2  0
 17 18  1  0
 18 19  2  0
 19 20  1  0
 20 21  2  0
 21 22  1  0
 22 23  2  0
 23 24  1  0
 24 25  2  0
 25 26  1  0
 25 27  1  0
 27 28  2  0
 21 29  1  0
 29 30  2  0
 30  2  1  0
 16  5  1  0
 30 18  1  0
 15 12  1  0
 28 22  1  0
  3 31  1  0
  3 32  1  0
  6 33  1  0
  7 34  1  0
  8 35  1  0
 13 36  1  0
 13 37  1  0
 14 38  1  0
 14 39  1  0
 15 40  1  0
 15 41  1  0
 16 42  1  0
 19 43  1  0
 20 44  1  0
 23 45  1  0
 24 46  1  0
 27 47  1  0
 28 48  1  0
 29 49  1  0
M  END
>  <smiles>  (43) 
O=C1CC(c2cccc(C(=O)N3CCC3)c2)=Nc2ccc(-c3ccc(F)cc3)cc21

>  <score_type>  (43) 
oracle

>  <origin>  (43) 
autodockgpu

>  <m_score__min__energy>  (43) 
-8.6400000000000006

>  <m_primary>  (43) 
energy

>  <rmsd>  (43) 
6.826273190517053

>  <m_score__min__rmsd>  (43) 
6.826273190517053

>  <meeko>  (43) 
{"free_energy": -8.5, "intermolecular_energy": -9.39, "internal_energy": -1.01, "cluster_size": 48, "cluster_id": 1, "rank_in_cluster": 39}

>  <energy>  (43) 
-8.45

>  <cluster_rmsd>  (43) 
1.0

>  <cluster>  (43) 
1

$$$$

     RDKit          3D

 49 53  0  0  0  0  0  0  0  0999 V2000
  143.2310   73.7250  219.9730 O   0  0  0  0  0  0  0  0  0  0  0  0
  142.2280   73.6020  220.7110 C   0  0  0  0  0  0  0  0  0  0  0  0
  141.7660   72.2590  221.1920 C   0  0  0  0  0  0  0  0  0  0  0  0
  140.5680   72.3490  222.0230 C   0  0  0  0  0  0  0  0  0  0  0  0
  139.8590   71.1070  222.4210 C   0  0  0  0  0  0  0  0  0  0  0  0
  139.3810   70.2510  221.4590 C   0  0  0  0  0  0  0  0  0  0  0  0
  138.8440   69.0270  221.7980 C   0  0  0  0  0  0  0  0  0  0  0  0
  138.8070   68.6990  223.1370 C   0  0  0  0  0  0  0  0  0  0  0  0
  139.2900   69.5710  224.0980 C   0  0  0  0  0  0  0  0  0  0  0  0
  139.2900   69.1880  225.5010 C   0  0  0  0  0  0  0  0  0  0  0  0
  138.8440   68.0380  225.7660 O   0  0  0  0  0  0  0  0  0  0  0  0
  139.7640   70.0660  226.4860 N   0  0  0  0  0  0  0  0  0  0  0  0
  139.9290   70.0650  227.9060 C   0  0  0  0  0  0  0  0  0  0  0  0
  141.0280   71.1200  227.7070 C   0  0  0  0  0  0  0  0  0  0  0  0
  140.3170   71.4160  226.4210 C   0  0  0  0  0  0  0  0  0  0  0  0
  139.8300   70.8000  223.7790 C   0  0  0  0  0  0  0  0  0  0  0  0
  139.9590   73.4420  222.3620 N   0  0  0  0  0  0  0  0  0  0  0  0
  140.3700   74.7280  221.9430 C   0  0  0  0  0  0  0  0  0  0  0  0
  139.6170   75.8170  222.2970 C   0  0  0  0  0  0  0  0  0  0  0  0
  139.9690   77.0500  221.8130 C   0  0  0  0  0  0  0  0  0  0  0  0
  141.0690   77.1290  220.9890 C   0  0  0  0  0  0  0  0  0  0  0  0
  141.4150   78.3880  220.3370 C   0  0  0  0  0  0  0  0  0  0  0  0
  141.3660   79.6190  220.9330 C   0  0  0  0  0  0  0  0  0  0  0  0
  141.7610   80.7090  220.1960 C   0  0  0  0  0  0  0  0  0  0  0  0
  142.1980   80.5740  218.8810 C   0  0  0  0  0  0  0  0  0  0  0  0
  142.5990   81.6450  218.1490 F   0  0  0  0  0  0  0  0  0  0  0  0
  142.2520   79.3410  218.2660 C   0  0  0  0  0  0  0  0  0  0  0  0
  141.8570   78.2570  219.0120 C   0  0  0  0  0  0  0  0  0  0  0  0
  141.8310   76.0260  220.6440 C   0  0  0  0  0  0  0  0  0  0  0  0
  141.4840   74.7930  221.1260 C   0  0  0  0  0  0  0  0  0  0  0  0
  141.5441   71.6278  220.3189 H   0  0  0  0  0  0  0  0  0  0  0  0
  142.5697   71.8272  221.8065 H   0  0  0  0  0  0  0  0  0  0  0  0
  139.4273   70.5468  220.4005 H   0  0  0  0  0  0  0  0  0  0  0  0
  138.4601   68.3390  221.0303 H   0  0  0  0  0  0  0  0  0  0  0  0
  138.3876   67.7302  223.4461 H   0  0  0  0  0  0  0  0  0  0  0  0
  139.0525   70.4156  228.4706 H   0  0  0  0  0  0  0  0  0  0  0  0
  140.1106   69.1371  228.4682 H   0  0  0  0  0  0  0  0  0  0  0  0
  141.0308   71.9392  228.4411 H   0  0  0  0  0  0  0  0  0  0  0  0
  142.1020   70.8889  227.7622 H   0  0  0  0  0  0  0  0  0  0  0  0
  139.5699   72.2208  226.4852 H   0  0  0  0  0  0  0  0  0  0  0  0
  140.8564   71.7768  225.5328 H   0  0  0  0  0  0  0  0  0  0  0  0
  140.2117   71.4905  224.5455 H   0  0  0  0  0  0  0  0  0  0  0  0
  138.7452   75.7034  222.9581 H   0  0  0  0  0  0  0  0  0  0  0  0
  139.3907   77.9484  222.0748 H   0  0  0  0  0  0  0  0  0  0  0  0
  141.0206   79.7323  221.9712 H   0  0  0  0  0  0  0  0  0  0  0  0
  141.7314   81.7086  220.6541 H   0  0  0  0  0  0  0  0  0  0  0  0
  142.5953   79.2305  217.2268 H   0  0  0  0  0  0  0  0  0  0  0  0
  141.8882   77.2562  218.5566 H   0  0  0  0  0  0  0  0  0  0  0  0
  142.7071   76.1395  219.9886 H   0  0  0  0  0  0  0  0  0  0  0  0
  1  2  2  0
  2  3  1  0
  3  4  1  0
  4  5  1  0
  5  6  2  0
  6  7  1  0
  7  8  2  0
  8  9  1  0
  9 10  1  0
 10 11  2  0
 10 12  1  0
 12 13  1  0
 13 14  1  0
 14 15  1  0
  9 16  2  0
  4 17  2  0
 17 18  1  0
 18 19  2  0
 19 20  1  0
 20 21  2  0
 21 22  1  0
 22 23  2  0
 23 24  1  0
 24 25  2  0
 25 26  1  0
 25 27  1  0
 27 28  2  0
 21 29  1  0
 29 30  2  0
 30  2  1  0
 16  5  1  0
 30 18  1  0
 15 12  1  0
 28 22  1  0
  3 31  1  0
  3 32  1  0
  6 33  1  0
  7 34  1  0
  8 35  1  0
 13 36  1  0
 13 37  1  0
 14 38  1  0
 14 39  1  0
 15 40  1  0
 15 41  1  0
 16 42  1  0
 19 43  1  0
 20 44  1  0
 23 45  1  0
 24 46  1  0
 27 47  1  0
 28 48  1  0
 29 49  1  0
M  END
>  <smiles>  (44) 
O=C1CC(c2cccc(C(=O)N3CCC3)c2)=Nc2ccc(-c3ccc(F)cc3)cc21

>  <score_type>  (44) 
oracle

>  <origin>  (44) 
autodockgpu

>  <m_score__min__energy>  (44) 
-8.6400000000000006

>  <m_primary>  (44) 
energy

>  <rmsd>  (44) 
6.666993220148449

>  <m_score__min__rmsd>  (44) 
6.666993220148449

>  <meeko>  (44) 
{"free_energy": -8.6, "intermolecular_energy": -9.49, "internal_energy": -0.6, "cluster_size": 48, "cluster_id": 1, "rank_in_cluster": 3}

>  <energy>  (44) 
-8.44

>  <cluster_rmsd>  (44) 
0.46

>  <cluster>  (44) 
1

$$$$

     RDKit          3D

 49 53  0  0  0  0  0  0  0  0999 V2000
  143.7470   72.6870  220.8710 O   0  0  0  0  0  0  0  0  0  0  0  0
  142.8740   73.5720  220.7160 C   0  0  0  0  0  0  0  0  0  0  0  0
  143.1750   74.8570  220.0040 C   0  0  0  0  0  0  0  0  0  0  0  0
  142.0190   75.7480  219.9570 C   0  0  0  0  0  0  0  0  0  0  0  0
  142.1870   77.1400  219.4670 C   0  0  0  0  0  0  0  0  0  0  0  0
  142.5660   77.3680  218.1660 C   0  0  0  0  0  0  0  0  0  0  0  0
  142.5960   78.6450  217.6470 C   0  0  0  0  0  0  0  0  0  0  0  0
  142.2290   79.6790  218.4830 C   0  0  0  0  0  0  0  0  0  0  0  0
  141.8500   79.4360  219.7930 C   0  0  0  0  0  0  0  0  0  0  0  0
  141.4190   80.5320  220.6450 C   0  0  0  0  0  0  0  0  0  0  0  0
  140.5570   81.3140  220.1580 O   0  0  0  0  0  0  0  0  0  0  0  0
  141.9470   80.6910  221.9350 N   0  0  0  0  0  0  0  0  0  0  0  0
  141.7890   81.5920  223.0340 C   0  0  0  0  0  0  0  0  0  0  0  0
  142.2820   80.4550  223.9430 C   0  0  0  0  0  0  0  0  0  0  0  0
  142.9320   79.9290  222.6980 C   0  0  0  0  0  0  0  0  0  0  0  0
  141.8160   78.1660  220.3310 C   0  0  0  0  0  0  0  0  0  0  0  0
  140.8400   75.4890  220.4290 N   0  0  0  0  0  0  0  0  0  0  0  0
  140.5110   74.2860  221.0930 C   0  0  0  0  0  0  0  0  0  0  0  0
  139.2540   74.1360  221.6200 C   0  0  0  0  0  0  0  0  0  0  0  0
  138.9690   73.0050  222.3400 C   0  0  0  0  0  0  0  0  0  0  0  0
  139.9700   72.0730  222.4990 C   0  0  0  0  0  0  0  0  0  0  0  0
  139.7690   70.9140  223.3640 C   0  0  0  0  0  0  0  0  0  0  0  0
  139.1200   69.7670  223.0000 C   0  0  0  0  0  0  0  0  0  0  0  0
  139.0460   68.7480  223.9180 C   0  0  0  0  0  0  0  0  0  0  0  0
  139.6130   68.8710  225.1840 C   0  0  0  0  0  0  0  0  0  0  0  0
  139.5530   67.8650  226.0940 F   0  0  0  0  0  0  0  0  0  0  0  0
  140.2700   70.0220  225.5660 C   0  0  0  0  0  0  0  0  0  0  0  0
  140.3390   71.0350  224.6410 C   0  0  0  0  0  0  0  0  0  0  0  0
  141.2330   72.2260  221.9550 C   0  0  0  0  0  0  0  0  0  0  0  0
  141.5220   73.3520  221.2330 C   0  0  0  0  0  0  0  0  0  0  0  0
  143.9950   75.3687  220.5290 H   0  0  0  0  0  0  0  0  0  0  0  0
  143.4529   74.6111  218.9685 H   0  0  0  0  0  0  0  0  0  0  0  0
  142.8501   76.5179  217.5283 H   0  0  0  0  0  0  0  0  0  0  0  0
  142.9007   78.8320  216.6067 H   0  0  0  0  0  0  0  0  0  0  0  0
  142.2374   80.7116  218.1039 H   0  0  0  0  0  0  0  0  0  0  0  0
  142.4461   82.4737  223.0035 H   0  0  0  0  0  0  0  0  0  0  0  0
  140.8405   82.1161  223.2229 H   0  0  0  0  0  0  0  0  0  0  0  0
  142.9747   80.7593  224.7415 H   0  0  0  0  0  0  0  0  0  0  0  0
  141.6103   79.8527  224.5724 H   0  0  0  0  0  0  0  0  0  0  0  0
  143.9735   80.2519  222.5532 H   0  0  0  0  0  0  0  0  0  0  0  0
  143.0808   78.8513  222.5352 H   0  0  0  0  0  0  0  0  0  0  0  0
  141.5160   77.9772  221.3723 H   0  0  0  0  0  0  0  0  0  0  0  0
  138.4875   74.9101  221.4675 H   0  0  0  0  0  0  0  0  0  0  0  0
  137.9720   72.8469  222.7770 H   0  0  0  0  0  0  0  0  0  0  0  0
  138.6704   69.6633  222.0015 H   0  0  0  0  0  0  0  0  0  0  0  0
  138.5284   67.8158  223.6477 H   0  0  0  0  0  0  0  0  0  0  0  0
  140.7181   70.1240  226.5654 H   0  0  0  0  0  0  0  0  0  0  0  0
  140.8560   71.9683  224.9087 H   0  0  0  0  0  0  0  0  0  0  0  0
  141.9981   71.4493  222.1016 H   0  0  0  0  0  0  0  0  0  0  0  0
  1  2  2  0
  2  3  1  0
  3  4  1  0
  4  5  1  0
  5  6  2  0
  6  7  1  0
  7  8  2  0
  8  9  1  0
  9 10  1  0
 10 11  2  0
 10 12  1  0
 12 13  1  0
 13 14  1  0
 14 15  1  0
  9 16  2  0
  4 17  2  0
 17 18  1  0
 18 19  2  0
 19 20  1  0
 20 21  2  0
 21 22  1  0
 22 23  2  0
 23 24  1  0
 24 25  2  0
 25 26  1  0
 25 27  1  0
 27 28  2  0
 21 29  1  0
 29 30  2  0
 30  2  1  0
 16  5  1  0
 30 18  1  0
 15 12  1  0
 28 22  1  0
  3 31  1  0
  3 32  1  0
  6 33  1  0
  7 34  1  0
  8 35  1  0
 13 36  1  0
 13 37  1  0
 14 38  1  0
 14 39  1  0
 15 40  1  0
 15 41  1  0
 16 42  1  0
 19 43  1  0
 20 44  1  0
 23 45  1  0
 24 46  1  0
 27 47  1  0
 28 48  1  0
 29 49  1  0
M  END
>  <smiles>  (45) 
O=C1CC(c2cccc(C(=O)N3CCC3)c2)=Nc2ccc(-c3ccc(F)cc3)cc21

>  <score_type>  (45) 
oracle

>  <origin>  (45) 
autodockgpu

>  <m_score__min__energy>  (45) 
-8.6400000000000006

>  <m_primary>  (45) 
energy

>  <rmsd>  (45) 
8.776166056764724

>  <m_score__min__rmsd>  (45) 
8.776166056764724

>  <meeko>  (45) 
{"free_energy": -7.81, "intermolecular_energy": -8.71, "internal_energy": -1.01, "cluster_size": 1, "cluster_id": 3, "rank_in_cluster": 1}

>  <energy>  (45) 
-8.4

>  <cluster_rmsd>  (45) 
0.53

>  <cluster>  (45) 
1

$$$$

     RDKit          3D

 49 53  0  0  0  0  0  0  0  0999 V2000
  142.8390   72.9460  220.1510 O   0  0  0  0  0  0  0  0  0  0  0  0
  141.8550   73.1250  220.9030 C   0  0  0  0  0  0  0  0  0  0  0  0
  141.1920   71.9850  221.6170 C   0  0  0  0  0  0  0  0  0  0  0  0
  140.0540   72.4210  222.4220 C   0  0  0  0  0  0  0  0  0  0  0  0
  139.1620   71.4060  223.0380 C   0  0  0  0  0  0  0  0  0  0  0  0
  137.8770   71.2520  222.5770 C   0  0  0  0  0  0  0  0  0  0  0  0
  137.0750   70.2270  223.0330 C   0  0  0  0  0  0  0  0  0  0  0  0
  137.6140   69.3670  223.9660 C   0  0  0  0  0  0  0  0  0  0  0  0
  138.9100   69.5330  224.4250 C   0  0  0  0  0  0  0  0  0  0  0  0
  139.4790   68.5880  225.3710 C   0  0  0  0  0  0  0  0  0  0  0  0
  139.5500   67.3880  224.9880 O   0  0  0  0  0  0  0  0  0  0  0  0
  139.9180   69.0110  226.6340 N   0  0  0  0  0  0  0  0  0  0  0  0
  140.5120   68.4220  227.7940 C   0  0  0  0  0  0  0  0  0  0  0  0
  141.0740   69.8130  228.1240 C   0  0  0  0  0  0  0  0  0  0  0  0
  139.9390   70.3180  227.2850 C   0  0  0  0  0  0  0  0  0  0  0  0
  139.7280   70.5530  223.9810 C   0  0  0  0  0  0  0  0  0  0  0  0
  139.6470   73.6430  222.5630 N   0  0  0  0  0  0  0  0  0  0  0  0
  140.2520   74.7470  221.9210 C   0  0  0  0  0  0  0  0  0  0  0  0
  139.7020   75.9940  222.0780 C   0  0  0  0  0  0  0  0  0  0  0  0
  140.2380   77.0450  221.3810 C   0  0  0  0  0  0  0  0  0  0  0  0
  141.3080   76.7910  220.5520 C   0  0  0  0  0  0  0  0  0  0  0  0
  141.8360   77.8400  219.6850 C   0  0  0  0  0  0  0  0  0  0  0  0
  142.5400   77.6250  218.5330 C   0  0  0  0  0  0  0  0  0  0  0  0
  142.9390   78.7190  217.8050 C   0  0  0  0  0  0  0  0  0  0  0  0
  142.6390   80.0140  218.2220 C   0  0  0  0  0  0  0  0  0  0  0  0
  143.0210   81.1010  217.5030 F   0  0  0  0  0  0  0  0  0  0  0  0
  141.9310   80.2480  219.3820 C   0  0  0  0  0  0  0  0  0  0  0  0
  141.5360   79.1470  220.1020 C   0  0  0  0  0  0  0  0  0  0  0  0
  141.8640   75.5320  220.4060 C   0  0  0  0  0  0  0  0  0  0  0  0
  141.3330   74.4790  221.1020 C   0  0  0  0  0  0  0  0  0  0  0  0
  140.8394   71.2576  220.8710 H   0  0  0  0  0  0  0  0  0  0  0  0
  141.9325   71.5375  222.2962 H   0  0  0  0  0  0  0  0  0  0  0  0
  137.4813   71.9579  221.8319 H   0  0  0  0  0  0  0  0  0  0  0  0
  136.0455   70.1005  222.6667 H   0  0  0  0  0  0  0  0  0  0  0  0
  137.0052   68.5360  224.3518 H   0  0  0  0  0  0  0  0  0  0  0  0
  139.7938   68.0304  228.5294 H   0  0  0  0  0  0  0  0  0  0  0  0
  141.1597   67.5354  227.7274 H   0  0  0  0  0  0  0  0  0  0  0  0
  141.0342   70.0953  229.1864 H   0  0  0  0  0  0  0  0  0  0  0  0
  142.1230   70.0953  227.9509 H   0  0  0  0  0  0  0  0  0  0  0  0
  139.0268   70.5640  227.8484 H   0  0  0  0  0  0  0  0  0  0  0  0
  140.0189   71.2500  226.7063 H   0  0  0  0  0  0  0  0  0  0  0  0
  140.7570   70.6826  224.3476 H   0  0  0  0  0  0  0  0  0  0  0  0
  138.8459   76.1474  222.7515 H   0  0  0  0  0  0  0  0  0  0  0  0
  139.8264   78.0602  221.4805 H   0  0  0  0  0  0  0  0  0  0  0  0
  142.7800   76.6049  218.1987 H   0  0  0  0  0  0  0  0  0  0  0  0
  143.5065   78.5699  216.8745 H   0  0  0  0  0  0  0  0  0  0  0  0
  141.6936   81.2691  219.7153 H   0  0  0  0  0  0  0  0  0  0  0  0
  140.9680   79.2933  221.0326 H   0  0  0  0  0  0  0  0  0  0  0  0
  142.7240   75.3787  219.7375 H   0  0  0  0  0  0  0  0  0  0  0  0
  1  2  2  0
  2  3  1  0
  3  4  1  0
  4  5  1  0
  5  6  2  0
  6  7  1  0
  7  8  2  0
  8  9  1  0
  9 10  1  0
 10 11  2  0
 10 12  1  0
 12 13  1  0
 13 14  1  0
 14 15  1  0
  9 16  2  0
  4 17  2  0
 17 18  1  0
 18 19  2  0
 19 20  1  0
 20 21  2  0
 21 22  1  0
 22 23  2  0
 23 24  1  0
 24 25  2  0
 25 26  1  0
 25 27  1  0
 27 28  2  0
 21 29  1  0
 29 30  2  0
 30  2  1  0
 16  5  1  0
 30 18  1  0
 15 12  1  0
 28 22  1  0
  3 31  1  0
  3 32  1  0
  6 33  1  0
  7 34  1  0
  8 35  1  0
 13 36  1  0
 13 37  1  0
 14 38  1  0
 14 39  1  0
 15 40  1  0
 15 41  1  0
 16 42  1  0
 19 43  1  0
 20 44  1  0
 23 45  1  0
 24 46  1  0
 27 47  1  0
 28 48  1  0
 29 49  1  0
M  END
>  <smiles>  (46) 
O=C1CC(c2cccc(C(=O)N3CCC3)c2)=Nc2ccc(-c3ccc(F)cc3)cc21

>  <score_type>  (46) 
oracle

>  <origin>  (46) 
autodockgpu

>  <m_score__min__energy>  (46) 
-8.6400000000000006

>  <m_primary>  (46) 
energy

>  <rmsd>  (46) 
6.81057285036461

>  <m_score__min__rmsd>  (46) 
6.81057285036461

>  <meeko>  (46) 
{"free_energy": -8.52, "intermolecular_energy": -9.42, "internal_energy": -1.01, "cluster_size": 48, "cluster_id": 1, "rank_in_cluster": 30}

>  <energy>  (46) 
-8.38

>  <cluster_rmsd>  (46) 
0.89

>  <cluster>  (46) 
1

$$$$

     RDKit          3D

 49 53  0  0  0  0  0  0  0  0999 V2000
  142.7640   72.9340  220.1060 O   0  0  0  0  0  0  0  0  0  0  0  0
  141.8040   73.1170  220.8870 C   0  0  0  0  0  0  0  0  0  0  0  0
  141.1450   71.9770  221.6050 C   0  0  0  0  0  0  0  0  0  0  0  0
  140.0360   72.4180  222.4470 C   0  0  0  0  0  0  0  0  0  0  0  0
  139.1470   71.4080  223.0740 C   0  0  0  0  0  0  0  0  0  0  0  0
  137.8620   71.2450  222.6150 C   0  0  0  0  0  0  0  0  0  0  0  0
  137.0630   70.2240  223.0840 C   0  0  0  0  0  0  0  0  0  0  0  0
  137.6040   69.3760  224.0270 C   0  0  0  0  0  0  0  0  0  0  0  0
  138.9000   69.5510  224.4840 C   0  0  0  0  0  0  0  0  0  0  0  0
  139.4710   68.6190  225.4410 C   0  0  0  0  0  0  0  0  0  0  0  0
  139.5380   67.4130  225.0760 O   0  0  0  0  0  0  0  0  0  0  0  0
  139.9160   69.0590  226.6960 N   0  0  0  0  0  0  0  0  0  0  0  0
  140.5140   68.4860  227.8620 C   0  0  0  0  0  0  0  0  0  0  0  0
  141.0800   69.8810  228.1690 C   0  0  0  0  0  0  0  0  0  0  0  0
  139.9420   70.3750  227.3270 C   0  0  0  0  0  0  0  0  0  0  0  0
  139.7150   70.5680  224.0280 C   0  0  0  0  0  0  0  0  0  0  0  0
  139.6510   73.6440  222.6150 N   0  0  0  0  0  0  0  0  0  0  0  0
  140.2530   74.7480  221.9700 C   0  0  0  0  0  0  0  0  0  0  0  0
  139.7270   76.0000  222.1580 C   0  0  0  0  0  0  0  0  0  0  0  0
  140.2580   77.0530  221.4600 C   0  0  0  0  0  0  0  0  0  0  0  0
  141.3010   76.7950  220.5980 C   0  0  0  0  0  0  0  0  0  0  0  0
  141.8200   77.8470  219.7310 C   0  0  0  0  0  0  0  0  0  0  0  0
  142.5060   77.6370  218.5670 C   0  0  0  0  0  0  0  0  0  0  0  0
  142.8980   78.7340  217.8400 C   0  0  0  0  0  0  0  0  0  0  0  0
  142.6090   80.0270  218.2690 C   0  0  0  0  0  0  0  0  0  0  0  0
  142.9840   81.1180  217.5520 F   0  0  0  0  0  0  0  0  0  0  0  0
  141.9190   80.2560  219.4410 C   0  0  0  0  0  0  0  0  0  0  0  0
  141.5310   79.1520  220.1600 C   0  0  0  0  0  0  0  0  0  0  0  0
  141.8340   75.5300  220.4210 C   0  0  0  0  0  0  0  0  0  0  0  0
  141.3080   74.4750  221.1180 C   0  0  0  0  0  0  0  0  0  0  0  0
  140.7616   71.2642  220.8600 H   0  0  0  0  0  0  0  0  0  0  0  0
  141.8978   71.5107  222.2576 H   0  0  0  0  0  0  0  0  0  0  0  0
  137.4644   71.9405  221.8612 H   0  0  0  0  0  0  0  0  0  0  0  0
  136.0336   70.0910  222.7199 H   0  0  0  0  0  0  0  0  0  0  0  0
  136.9974   68.5480  224.4224 H   0  0  0  0  0  0  0  0  0  0  0  0
  139.7983   68.1066  228.6062 H   0  0  0  0  0  0  0  0  0  0  0  0
  141.1599   67.5974  227.8057 H   0  0  0  0  0  0  0  0  0  0  0  0
  141.0450   70.1793  229.2272 H   0  0  0  0  0  0  0  0  0  0  0  0
  142.1287   70.1590  227.9875 H   0  0  0  0  0  0  0  0  0  0  0  0
  139.0326   70.6310  227.8904 H   0  0  0  0  0  0  0  0  0  0  0  0
  140.0211   71.2980  226.7339 H   0  0  0  0  0  0  0  0  0  0  0  0
  140.7433   70.7052  224.3937 H   0  0  0  0  0  0  0  0  0  0  0  0
  138.8926   76.1567  222.8575 H   0  0  0  0  0  0  0  0  0  0  0  0
  139.8637   78.0724  221.5842 H   0  0  0  0  0  0  0  0  0  0  0  0
  142.7373   76.6182  218.2227 H   0  0  0  0  0  0  0  0  0  0  0  0
  143.4511   78.5886  216.9004 H   0  0  0  0  0  0  0  0  0  0  0  0
  141.6900   81.2757  219.7841 H   0  0  0  0  0  0  0  0  0  0  0  0
  140.9774   79.2946  221.0998 H   0  0  0  0  0  0  0  0  0  0  0  0
  142.6727   75.3734  219.7267 H   0  0  0  0  0  0  0  0  0  0  0  0
  1  2  2  0
  2  3  1  0
  3  4  1  0
  4  5  1  0
  5  6  2  0
  6  7  1  0
  7  8  2  0
  8  9  1  0
  9 10  1  0
 10 11  2  0
 10 12  1  0
 12 13  1  0
 13 14  1  0
 14 15  1  0
  9 16  2  0
  4 17  2  0
 17 18  1  0
 18 19  2  0
 19 20  1  0
 20 21  2  0
 21 22  1  0
 22 23  2  0
 23 24  1  0
 24 25  2  0
 25 26  1  0
 25 27  1  0
 27 28  2  0
 21 29  1  0
 29 30  2  0
 30  2  1  0
 16  5  1  0
 30 18  1  0
 15 12  1  0
 28 22  1  0
  3 31  1  0
  3 32  1  0
  6 33  1  0
  7 34  1  0
  8 35  1  0
 13 36  1  0
 13 37  1  0
 14 38  1  0
 14 39  1  0
 15 40  1  0
 15 41  1  0
 16 42  1  0
 19 43  1  0
 20 44  1  0
 23 45  1  0
 24 46  1  0
 27 47  1  0
 28 48  1  0
 29 49  1  0
M  END
>  <smiles>  (47) 
O=C1CC(c2cccc(C(=O)N3CCC3)c2)=Nc2ccc(-c3ccc(F)cc3)cc21

>  <score_type>  (47) 
oracle

>  <origin>  (47) 
autodockgpu

>  <m_score__min__energy>  (47) 
-8.6400000000000006

>  <m_primary>  (47) 
energy

>  <rmsd>  (47) 
6.81518936127474

>  <m_score__min__rmsd>  (47) 
6.81518936127474

>  <meeko>  (47) 
{"free_energy": -8.53, "intermolecular_energy": -9.43, "internal_energy": -1.01, "cluster_size": 48, "cluster_id": 1, "rank_in_cluster": 26}

>  <energy>  (47) 
-8.29

>  <cluster_rmsd>  (47) 
0.66

>  <cluster>  (47) 
1

$$$$

     RDKit          3D

 49 53  0  0  0  0  0  0  0  0999 V2000
  142.8770   72.9590  220.2250 O   0  0  0  0  0  0  0  0  0  0  0  0
  141.8830   73.1310  220.9660 C   0  0  0  0  0  0  0  0  0  0  0  0
  141.2240   71.9880  221.6770 C   0  0  0  0  0  0  0  0  0  0  0  0
  140.0740   72.4150  222.4700 C   0  0  0  0  0  0  0  0  0  0  0  0
  139.1850   71.3950  223.0800 C   0  0  0  0  0  0  0  0  0  0  0  0
  137.9120   71.2150  222.5960 C   0  0  0  0  0  0  0  0  0  0  0  0
  137.1170   70.1830  223.0490 C   0  0  0  0  0  0  0  0  0  0  0  0
  137.6500   69.3430  224.0030 C   0  0  0  0  0  0  0  0  0  0  0  0
  138.9340   69.5350  224.4850 C   0  0  0  0  0  0  0  0  0  0  0  0
  139.4990   68.6100  225.4540 C   0  0  0  0  0  0  0  0  0  0  0  0
  139.5650   67.4010  225.1000 O   0  0  0  0  0  0  0  0  0  0  0  0
  139.9380   69.0610  226.7070 N   0  0  0  0  0  0  0  0  0  0  0  0
  140.5290   68.4970  227.8810 C   0  0  0  0  0  0  0  0  0  0  0  0
  141.0960   69.8940  228.1790 C   0  0  0  0  0  0  0  0  0  0  0  0
  139.9630   70.3830  227.3270 C   0  0  0  0  0  0  0  0  0  0  0  0
  139.7450   70.5620  224.0450 C   0  0  0  0  0  0  0  0  0  0  0  0
  139.6530   73.6340  222.6020 N   0  0  0  0  0  0  0  0  0  0  0  0
  140.2540   74.7420  221.9620 C   0  0  0  0  0  0  0  0  0  0  0  0
  139.6910   75.9840  222.1080 C   0  0  0  0  0  0  0  0  0  0  0  0
  140.2240   77.0380  221.4130 C   0  0  0  0  0  0  0  0  0  0  0  0
  141.3050   76.7910  220.5960 C   0  0  0  0  0  0  0  0  0  0  0  0
  141.8320   77.8410  219.7310 C   0  0  0  0  0  0  0  0  0  0  0  0
  142.5410   77.6280  218.5810 C   0  0  0  0  0  0  0  0  0  0  0  0
  142.9370   78.7240  217.8530 C   0  0  0  0  0  0  0  0  0  0  0  0
  142.6310   80.0180  218.2690 C   0  0  0  0  0  0  0  0  0  0  0  0
  143.0110   81.1060  217.5510 F   0  0  0  0  0  0  0  0  0  0  0  0
  141.9180   80.2490  219.4260 C   0  0  0  0  0  0  0  0  0  0  0  0
  141.5250   79.1470  220.1450 C   0  0  0  0  0  0  0  0  0  0  0  0
  141.8740   75.5360  220.4610 C   0  0  0  0  0  0  0  0  0  0  0  0
  141.3470   74.4810  221.1540 C   0  0  0  0  0  0  0  0  0  0  0  0
  140.8855   71.2550  220.9299 H   0  0  0  0  0  0  0  0  0  0  0  0
  141.9622   71.5502  222.3650 H   0  0  0  0  0  0  0  0  0  0  0  0
  137.5202   71.9054  221.8345 H   0  0  0  0  0  0  0  0  0  0  0  0
  136.0972   70.0360  222.6639 H   0  0  0  0  0  0  0  0  0  0  0  0
  137.0464   68.5076  224.3873 H   0  0  0  0  0  0  0  0  0  0  0  0
  139.8088   68.1252  228.6247 H   0  0  0  0  0  0  0  0  0  0  0  0
  141.1736   67.6068  227.8357 H   0  0  0  0  0  0  0  0  0  0  0  0
  141.0562   70.2014  229.2344 H   0  0  0  0  0  0  0  0  0  0  0  0
  142.1461   70.1686  228.0004 H   0  0  0  0  0  0  0  0  0  0  0  0
  139.0512   70.6454  227.8836 H   0  0  0  0  0  0  0  0  0  0  0  0
  140.0466   71.3008  226.7265 H   0  0  0  0  0  0  0  0  0  0  0  0
  140.7642   70.7120  224.4306 H   0  0  0  0  0  0  0  0  0  0  0  0
  138.8263   76.1317  222.7717 H   0  0  0  0  0  0  0  0  0  0  0  0
  139.8017   78.0496  221.5047 H   0  0  0  0  0  0  0  0  0  0  0  0
  142.7871   76.6087  218.2485 H   0  0  0  0  0  0  0  0  0  0  0  0
  143.5067   78.5769  216.9236 H   0  0  0  0  0  0  0  0  0  0  0  0
  141.6750   81.2692  219.7580 H   0  0  0  0  0  0  0  0  0  0  0  0
  140.9525   79.2918  221.0731 H   0  0  0  0  0  0  0  0  0  0  0  0
  142.7424   75.3886  219.8021 H   0  0  0  0  0  0  0  0  0  0  0  0
  1  2  2  0
  2  3  1  0
  3  4  1  0
  4  5  1  0
  5  6  2  0
  6  7  1  0
  7  8  2  0
  8  9  1  0
  9 10  1  0
 10 11  2  0
 10 12  1  0
 12 13  1  0
 13 14  1  0
 14 15  1  0
  9 16  2  0
  4 17  2  0
 17 18  1  0
 18 19  2  0
 19 20  1  0
 20 21  2  0
 21 22  1  0
 22 23  2  0
 23 24  1  0
 24 25  2  0
 25 26  1  0
 25 27  1  0
 27 28  2  0
 21 29  1  0
 29 30  2  0
 30  2  1  0
 16  5  1  0
 30 18  1  0
 15 12  1  0
 28 22  1  0
  3 31  1  0
  3 32  1  0
  6 33  1  0
  7 34  1  0
  8 35  1  0
 13 36  1  0
 13 37  1  0
 14 38  1  0
 14 39  1  0
 15 40  1  0
 15 41  1  0
 16 42  1  0
 19 43  1  0
 20 44  1  0
 23 45  1  0
 24 46  1  0
 27 47  1  0
 28 48  1  0
 29 49  1  0
M  END
>  <smiles>  (48) 
O=C1CC(c2cccc(C(=O)N3CCC3)c2)=Nc2ccc(-c3ccc(F)cc3)cc21

>  <score_type>  (48) 
oracle

>  <origin>  (48) 
autodockgpu

>  <m_score__min__energy>  (48) 
-8.6400000000000006

>  <m_primary>  (48) 
energy

>  <rmsd>  (48) 
6.80857688559522

>  <m_score__min__rmsd>  (48) 
6.80857688559522

>  <meeko>  (48) 
{"free_energy": -8.53, "intermolecular_energy": -9.43, "internal_energy": -1.01, "cluster_size": 48, "cluster_id": 1, "rank_in_cluster": 24}

>  <energy>  (48) 
-8.15

>  <cluster_rmsd>  (48) 
0.85

>  <cluster>  (48) 
1

$$$$

     RDKit          3D

 49 53  0  0  0  0  0  0  0  0999 V2000
  142.8940   72.9530  220.1830 O   0  0  0  0  0  0  0  0  0  0  0  0
  141.9000   73.0990  220.9300 C   0  0  0  0  0  0  0  0  0  0  0  0
  141.2540   71.9340  221.6170 C   0  0  0  0  0  0  0  0  0  0  0  0
  140.1020   72.3320  222.4220 C   0  0  0  0  0  0  0  0  0  0  0  0
  139.2250   71.2900  223.0110 C   0  0  0  0  0  0  0  0  0  0  0  0
  138.0030   71.0180  222.4420 C   0  0  0  0  0  0  0  0  0  0  0  0
  137.2310   69.9640  222.8820 C   0  0  0  0  0  0  0  0  0  0  0  0
  137.7340   69.1960  223.9110 C   0  0  0  0  0  0  0  0  0  0  0  0
  138.9660   69.4790  224.4770 C   0  0  0  0  0  0  0  0  0  0  0  0
  139.5030   68.6280  225.5260 C   0  0  0  0  0  0  0  0  0  0  0  0
  139.5550   67.3930  225.2730 O   0  0  0  0  0  0  0  0  0  0  0  0
  139.9330   69.1740  226.7440 N   0  0  0  0  0  0  0  0  0  0  0  0
  140.4990   68.7000  227.9690 C   0  0  0  0  0  0  0  0  0  0  0  0
  141.0850   70.1080  228.1590 C   0  0  0  0  0  0  0  0  0  0  0  0
  139.9710   70.5410  227.2540 C   0  0  0  0  0  0  0  0  0  0  0  0
  139.7520   70.5300  224.0520 C   0  0  0  0  0  0  0  0  0  0  0  0
  139.6700   73.5440  222.5820 N   0  0  0  0  0  0  0  0  0  0  0  0
  140.2590   74.6710  221.9660 C   0  0  0  0  0  0  0  0  0  0  0  0
  139.6840   75.9040  222.1420 C   0  0  0  0  0  0  0  0  0  0  0  0
  140.2050   76.9780  221.4690 C   0  0  0  0  0  0  0  0  0  0  0  0
  141.2860   76.7600  220.6440 C   0  0  0  0  0  0  0  0  0  0  0  0
  141.8010   77.8350  219.8020 C   0  0  0  0  0  0  0  0  0  0  0  0
  142.5230   77.6550  218.6540 C   0  0  0  0  0  0  0  0  0  0  0  0
  142.9050   78.7700  217.9490 C   0  0  0  0  0  0  0  0  0  0  0  0
  142.5730   80.0510  218.3840 C   0  0  0  0  0  0  0  0  0  0  0  0
  142.9380   81.1580  217.6890 F   0  0  0  0  0  0  0  0  0  0  0  0
  141.8460   80.2490  219.5400 C   0  0  0  0  0  0  0  0  0  0  0  0
  141.4680   79.1280  220.2360 C   0  0  0  0  0  0  0  0  0  0  0  0
  141.8670   75.5150  220.4790 C   0  0  0  0  0  0  0  0  0  0  0  0
  141.3520   74.4390  221.1500 C   0  0  0  0  0  0  0  0  0  0  0  0
  140.9207   71.2145  220.8546 H   0  0  0  0  0  0  0  0  0  0  0  0
  141.9982   71.4882  222.2933 H   0  0  0  0  0  0  0  0  0  0  0  0
  137.6353   71.6522  221.6219 H   0  0  0  0  0  0  0  0  0  0  0  0
  136.2525   69.7443  222.4301 H   0  0  0  0  0  0  0  0  0  0  0  0
  137.1475   68.3453  224.2882 H   0  0  0  0  0  0  0  0  0  0  0  0
  139.7630   68.4021  228.7303 H   0  0  0  0  0  0  0  0  0  0  0  0
  141.1293   67.7993  228.0066 H   0  0  0  0  0  0  0  0  0  0  0  0
  141.0368   70.5022  229.1848 H   0  0  0  0  0  0  0  0  0  0  0  0
  142.1416   70.3513  227.9733 H   0  0  0  0  0  0  0  0  0  0  0  0
  139.0563   70.8613  227.7744 H   0  0  0  0  0  0  0  0  0  0  0  0
  140.0768   71.4049  226.5814 H   0  0  0  0  0  0  0  0  0  0  0  0
  140.7293   70.7527  224.5050 H   0  0  0  0  0  0  0  0  0  0  0  0
  138.8201   76.0284  222.8115 H   0  0  0  0  0  0  0  0  0  0  0  0
  139.7732   77.9831  221.5841 H   0  0  0  0  0  0  0  0  0  0  0  0
  142.7899   76.6463  218.3057 H   0  0  0  0  0  0  0  0  0  0  0  0
  143.4848   78.6490  217.0221 H   0  0  0  0  0  0  0  0  0  0  0  0
  141.5816   81.2586  219.8877 H   0  0  0  0  0  0  0  0  0  0  0  0
  140.8864   79.2463  221.1621 H   0  0  0  0  0  0  0  0  0  0  0  0
  142.7349   75.3912  219.8146 H   0  0  0  0  0  0  0  0  0  0  0  0
  1  2  2  0
  2  3  1  0
  3  4  1  0
  4  5  1  0
  5  6  2  0
  6  7  1  0
  7  8  2  0
  8  9  1  0
  9 10  1  0
 10 11  2  0
 10 12  1  0
 12 13  1  0
 13 14  1  0
 14 15  1  0
  9 16  2  0
  4 17  2  0
 17 18  1  0
 18 19  2  0
 19 20  1  0
 20 21  2  0
 21 22  1  0
 22 23  2  0
 23 24  1  0
 24 25  2  0
 25 26  1  0
 25 27  1  0
 27 28  2  0
 21 29  1  0
 29 30  2  0
 30  2  1  0
 16  5  1  0
 30 18  1  0
 15 12  1  0
 28 22  1  0
  3 31  1  0
  3 32  1  0
  6 33  1  0
  7 34  1  0
  8 35  1  0
 13 36  1  0
 13 37  1  0
 14 38  1  0
 14 39  1  0
 15 40  1  0
 15 41  1  0
 16 42  1  0
 19 43  1  0
 20 44  1  0
 23 45  1  0
 24 46  1  0
 27 47  1  0
 28 48  1  0
 29 49  1  0
M  END
>  <smiles>  (49) 
O=C1CC(c2cccc(C(=O)N3CCC3)c2)=Nc2ccc(-c3ccc(F)cc3)cc21

>  <score_type>  (49) 
oracle

>  <origin>  (49) 
autodockgpu

>  <m_score__min__energy>  (49) 
-8.6400000000000006

>  <m_primary>  (49) 
energy

>  <rmsd>  (49) 
6.792488241740892

>  <m_score__min__rmsd>  (49) 
6.792488241740892

>  <meeko>  (49) 
{"free_energy": -8.55, "intermolecular_energy": -9.44, "internal_energy": -0.99, "cluster_size": 48, "cluster_id": 1, "rank_in_cluster": 17}

>  <energy>  (49) 
-8.02

>  <cluster_rmsd>  (49) 
0.0

>  <cluster>  (49) 
2

$$$$

     RDKit          3D

 49 53  0  0  0  0  0  0  0  0999 V2000
  143.1390   73.4230  220.0850 O   0  0  0  0  0  0  0  0  0  0  0  0
  142.1180   73.3780  220.8070 C   0  0  0  0  0  0  0  0  0  0  0  0
  141.5880   72.0810  221.3410 C   0  0  0  0  0  0  0  0  0  0  0  0
  140.3790   72.2630  222.1410 C   0  0  0  0  0  0  0  0  0  0  0  0
  139.6090   71.0740  222.5830 C   0  0  0  0  0  0  0  0  0  0  0  0
  138.8220   70.3930  221.6850 C   0  0  0  0  0  0  0  0  0  0  0  0
  138.2070   69.2080  222.0310 C   0  0  0  0  0  0  0  0  0  0  0  0
  138.4150   68.7360  223.3100 C   0  0  0  0  0  0  0  0  0  0  0  0
  139.2090   69.4310  224.2070 C   0  0  0  0  0  0  0  0  0  0  0  0
  139.4570   68.8940  225.5340 C   0  0  0  0  0  0  0  0  0  0  0  0
  139.2700   67.6540  225.6800 O   0  0  0  0  0  0  0  0  0  0  0  0
  139.8810   69.7260  226.5800 N   0  0  0  0  0  0  0  0  0  0  0  0
  140.2220   69.5910  227.9620 C   0  0  0  0  0  0  0  0  0  0  0  0
  141.0710   70.8620  227.8030 C   0  0  0  0  0  0  0  0  0  0  0  0
  140.1600   71.1580  226.6490 C   0  0  0  0  0  0  0  0  0  0  0  0
  139.8310   70.6190  223.8800 C   0  0  0  0  0  0  0  0  0  0  0  0
  139.8130   73.3960  222.4150 N   0  0  0  0  0  0  0  0  0  0  0  0
  140.2880   74.6410  221.9450 C   0  0  0  0  0  0  0  0  0  0  0  0
  139.5770   75.7780  222.2310 C   0  0  0  0  0  0  0  0  0  0  0  0
  139.9920   76.9700  221.6960 C   0  0  0  0  0  0  0  0  0  0  0  0
  141.1100   76.9620  220.8930 C   0  0  0  0  0  0  0  0  0  0  0  0
  141.5240   78.1720  220.1900 C   0  0  0  0  0  0  0  0  0  0  0  0
  141.4150   79.4420  220.6850 C   0  0  0  0  0  0  0  0  0  0  0  0
  141.8860   80.4780  219.9150 C   0  0  0  0  0  0  0  0  0  0  0  0
  142.4560   80.2500  218.6650 C   0  0  0  0  0  0  0  0  0  0  0  0
  142.9330   81.2670  217.9020 F   0  0  0  0  0  0  0  0  0  0  0  0
  142.5720   78.9760  218.1520 C   0  0  0  0  0  0  0  0  0  0  0  0
  142.1000   77.9470  218.9300 C   0  0  0  0  0  0  0  0  0  0  0  0
  141.8290   75.8110  220.6170 C   0  0  0  0  0  0  0  0  0  0  0  0
  141.4190   74.6190  221.1490 C   0  0  0  0  0  0  0  0  0  0  0  0
  141.3554   71.4185  220.4942 H   0  0  0  0  0  0  0  0  0  0  0  0
  142.3598   71.6449  221.9923 H   0  0  0  0  0  0  0  0  0  0  0  0
  138.6803   70.8002  220.6730 H   0  0  0  0  0  0  0  0  0  0  0  0
  137.5757   68.6611  221.3152 H   0  0  0  0  0  0  0  0  0  0  0  0
  137.9429   67.7929  223.6226 H   0  0  0  0  0  0  0  0  0  0  0  0
  139.3742   69.6888  228.6560 H   0  0  0  0  0  0  0  0  0  0  0  0
  140.6433   68.6591  228.3670 H   0  0  0  0  0  0  0  0  0  0  0  0
  141.0137   71.5727  228.6406 H   0  0  0  0  0  0  0  0  0  0  0  0
  142.1675   70.8472  227.7166 H   0  0  0  0  0  0  0  0  0  0  0  0
  139.2902   71.7827  226.9004 H   0  0  0  0  0  0  0  0  0  0  0  0
  140.5060   71.7218  225.7701 H   0  0  0  0  0  0  0  0  0  0  0  0
  140.4596   71.1691  224.5957 H   0  0  0  0  0  0  0  0  0  0  0  0
  138.6889   75.7344  222.8786 H   0  0  0  0  0  0  0  0  0  0  0  0
  139.4485   77.9039  221.9020 H   0  0  0  0  0  0  0  0  0  0  0  0
  140.9636   79.6288  221.6706 H   0  0  0  0  0  0  0  0  0  0  0  0
  141.8113   81.5081  220.2935 H   0  0  0  0  0  0  0  0  0  0  0  0
  143.0218   78.7918  217.1652 H   0  0  0  0  0  0  0  0  0  0  0  0
  142.1757   76.9159  218.5543 H   0  0  0  0  0  0  0  0  0  0  0  0
  142.7217   75.8547  219.9758 H   0  0  0  0  0  0  0  0  0  0  0  0
  1  2  2  0
  2  3  1  0
  3  4  1  0
  4  5  1  0
  5  6  2  0
  6  7  1  0
  7  8  2  0
  8  9  1  0
  9 10  1  0
 10 11  2  0
 10 12  1  0
 12 13  1  0
 13 14  1  0
 14 15  1  0
  9 16  2  0
  4 17  2  0
 17 18  1  0
 18 19  2  0
 19 20  1  0
 20 21  2  0
 21 22  1  0
 22 23  2  0
 23 24  1  0
 24 25  2  0
 25 26  1  0
 25 27  1  0
 27 28  2  0
 21 29  1  0
 29 30  2  0
 30  2  1  0
 16  5  1  0
 30 18  1  0
 15 12  1  0
 28 22  1  0
  3 31  1  0
  3 32  1  0
  6 33  1  0
  7 34  1  0
  8 35  1  0
 13 36  1  0
 13 37  1  0
 14 38  1  0
 14 39  1  0
 15 40  1  0
 15 41  1  0
 16 42  1  0
 19 43  1  0
 20 44  1  0
 23 45  1  0
 24 46  1  0
 27 47  1  0
 28 48  1  0
 29 49  1  0
M  END
>  <smiles>  (50) 
O=C1CC(c2cccc(C(=O)N3CCC3)c2)=Nc2ccc(-c3ccc(F)cc3)cc21

>  <score_type>  (50) 
oracle

>  <origin>  (50) 
autodockgpu

>  <m_score__min__energy>  (50) 
-8.6400000000000006

>  <m_primary>  (50) 
energy

>  <rmsd>  (50) 
6.69913522019635

>  <m_score__min__rmsd>  (50) 
6.69913522019635

>  <meeko>  (50) 
{"free_energy": -8.58, "intermolecular_energy": -9.48, "internal_energy": -0.75, "cluster_size": 48, "cluster_id": 1, "rank_in_cluster": 5}

>  <energy>  (50) 
-7.81

>  <cluster_rmsd>  (50) 
0.0

>  <cluster>  (50) 
3

$$$$
