
     RDKit          3D

 52 55  0  0  0  0  0  0  0  0999 V2000
  137.7580   70.4260  222.0280 O   0  0  0  0  0  0  0  0  0  0  0  0
  138.5220   70.9450  222.8870 C   0  0  0  0  0  0  0  0  0  0  0  0
  138.9610   72.2830  222.8130 N   0  0  0  0  0  0  0  0  0  0  0  0
  138.5280   73.1160  221.7120 C   0  0  0  0  0  0  0  0  0  0  0  0
  139.0530   74.4900  221.9260 C   0  0  0  0  0  0  0  0  0  0  0  0
  140.2700   74.6690  222.2500 O   0  0  0  0  0  0  0  0  0  0  0  0
  138.1580   75.5700  221.7570 N   0  0  0  0  0  0  0  0  0  0  0  0
  137.3390   75.9280  220.6070 C   0  0  0  0  0  0  0  0  0  0  0  0
  136.0840   76.5640  221.2020 C   0  0  0  0  0  0  0  0  0  0  0  0
  136.3120   76.5220  222.6770 C   0  0  0  0  0  0  0  0  0  0  0  0
  137.8470   76.6130  222.7490 C   0  0  2  0  0  0  0  0  0  0  0  0
  138.3040   77.9540  222.2240 C   0  0  0  0  0  0  0  0  0  0  0  0
  138.9450   78.7670  223.1390 O   0  0  0  0  0  0  0  0  0  0  0  0
  140.1910   79.2750  223.2050 C   0  0  0  0  0  0  0  0  0  0  0  0
  141.3780   78.6050  223.0120 C   0  0  0  0  0  0  0  0  0  0  0  0
  142.6090   79.2240  223.1010 C   0  0  0  0  0  0  0  0  0  0  0  0
  142.6810   80.5490  223.3930 C   0  0  0  0  0  0  0  0  0  0  0  0
  141.5250   81.2670  223.5970 C   0  0  0  0  0  0  0  0  0  0  0  0
  140.3170   80.6350  223.5030 C   0  0  0  0  0  0  0  0  0  0  0  0
  138.9870   70.1350  224.0210 C   0  0  0  0  0  0  0  0  0  0  0  0
  138.8300   68.7610  224.0350 C   0  0  0  0  0  0  0  0  0  0  0  0
  139.2580   67.9760  225.0870 C   0  0  0  0  0  0  0  0  0  0  0  0
  139.8660   68.5840  226.1720 C   0  0  0  0  0  0  0  0  0  0  0  0
  140.3180   67.8890  227.2520 C   0  0  0  0  0  0  0  0  0  0  0  0
  140.9250   68.4980  228.3320 C   0  0  0  0  0  0  0  0  0  0  0  0
  141.3770   67.8200  229.4110 F   0  0  0  0  0  0  0  0  0  0  0  0
  141.0840   69.8700  228.3260 C   0  0  0  0  0  0  0  0  0  0  0  0
  140.6240   70.5780  227.2260 C   0  0  0  0  0  0  0  0  0  0  0  0
  140.0180   69.9520  226.1480 C   0  0  0  0  0  0  0  0  0  0  0  0
  139.5850   70.6810  225.0980 N   0  0  0  0  0  0  0  0  0  0  0  0
  139.6040   72.7000  223.5450 H   0  0  0  0  0  0  0  0  0  0  0  0
  138.9181   72.7128  220.7658 H   0  0  0  0  0  0  0  0  0  0  0  0
  137.4293   73.1355  221.6632 H   0  0  0  0  0  0  0  0  0  0  0  0
  137.8685   76.6455  219.9629 H   0  0  0  0  0  0  0  0  0  0  0  0
  137.1038   75.0565  219.9784 H   0  0  0  0  0  0  0  0  0  0  0  0
  135.9710   77.6016  220.8547 H   0  0  0  0  0  0  0  0  0  0  0  0
  135.1650   76.0380  220.9040 H   0  0  0  0  0  0  0  0  0  0  0  0
  135.8342   77.3741  223.1825 H   0  0  0  0  0  0  0  0  0  0  0  0
  135.8901   75.6352  223.1725 H   0  0  0  0  0  0  0  0  0  0  0  0
  138.2983   76.5008  223.7458 H   0  0  0  0  0  0  0  0  0  0  0  0
  138.9969   77.7722  221.3892 H   0  0  0  0  0  0  0  0  0  0  0  0
  137.3889   78.4910  221.9339 H   0  0  0  0  0  0  0  0  0  0  0  0
  141.3443   77.5309  222.7769 H   0  0  0  0  0  0  0  0  0  0  0  0
  143.5298   78.6454  222.9358 H   0  0  0  0  0  0  0  0  0  0  0  0
  143.6597   81.0459  223.4661 H   0  0  0  0  0  0  0  0  0  0  0  0
  141.5728   82.3402  223.8336 H   0  0  0  0  0  0  0  0  0  0  0  0
  139.4024   81.2230  223.6694 H   0  0  0  0  0  0  0  0  0  0  0  0
  138.3457   68.2751  223.1752 H   0  0  0  0  0  0  0  0  0  0  0  0
  139.1182   66.8852  225.0635 H   0  0  0  0  0  0  0  0  0  0  0  0
  140.1943   66.7961  227.2645 H   0  0  0  0  0  0  0  0  0  0  0  0
  141.5625   70.3870  229.1708 H   0  0  0  0  0  0  0  0  0  0  0  0
  140.7438   71.6713  227.2084 H   0  0  0  0  0  0  0  0  0  0  0  0
  1  2  2  0
  2  3  1  0
  3  4  1  0
  4  5  1  0
  5  6  2  0
  5  7  1  0
  7  8  1  0
  8  9  1  0
  9 10  1  0
 10 11  1  0
 11 12  1  0
 12 13  1  0
 13 14  1  0
 14 15  2  0
 15 16  1  0
 16 17  2  0
 17 18  1  0
 18 19  2  0
  2 20  1  0
 20 21  2  0
 21 22  1  0
 22 23  2  0
 23 24  1  0
 24 25  2  0
 25 26  1  0
 25 27  1  0
 27 28  2  0
 28 29  1  0
 29 30  2  0
 11  7  1  0
 19 14  1  0
 30 20  1  0
 29 23  1  0
  3 31  1  0
  4 32  1  0
  4 33  1  0
  8 34  1  0
  8 35  1  0
  9 36  1  0
  9 37  1  0
 10 38  1  0
 10 39  1  0
 11 40  1  1
 12 41  1  0
 12 42  1  0
 15 43  1  0
 16 44  1  0
 17 45  1  0
 18 46  1  0
 19 47  1  0
 21 48  1  0
 22 49  1  0
 24 50  1  0
 27 51  1  0
 28 52  1  0
M  END
>  <smiles>  (1) 
O=C(NCC(=O)N1CCC[C@@H]1COc1ccccc1)c1ccc2cc(F)ccc2n1

>  <score_type>  (1) 
oracle

>  <origin>  (1) 
autodockgpu

>  <m_score__min__energy>  (1) 
-8.4499999999999993

>  <m_primary>  (1) 
energy

>  <rmsd>  (1) 
2.914236794372708

>  <m_score__min__rmsd>  (1) 
2.914236794372708

>  <meeko>  (1) 
{"free_energy": -8.3, "intermolecular_energy": -10.38, "internal_energy": -1.76, "cluster_size": 1, "cluster_id": 2, "rank_in_cluster": 1}

>  <energy>  (1) 
-8.45

>  <cluster_rmsd>  (1) 
0.0

>  <cluster>  (1) 
1

$$$$

     RDKit          3D

 52 55  0  0  0  0  0  0  0  0999 V2000
  140.3800   71.3870  220.9680 O   0  0  0  0  0  0  0  0  0  0  0  0
  140.0700   71.9490  222.0530 C   0  0  0  0  0  0  0  0  0  0  0  0
  139.8320   73.3340  222.1580 N   0  0  0  0  0  0  0  0  0  0  0  0
  139.9410   74.1670  220.9810 C   0  0  0  0  0  0  0  0  0  0  0  0
  140.2290   75.5600  221.4140 C   0  0  0  0  0  0  0  0  0  0  0  0
  140.0330   75.9110  222.6210 O   0  0  0  0  0  0  0  0  0  0  0  0
  140.7200   76.4630  220.4430 N   0  0  0  0  0  0  0  0  0  0  0  0
  142.0780   76.9400  220.2190 C   0  0  0  0  0  0  0  0  0  0  0  0
  142.1720   77.1620  218.7110 C   0  0  0  0  0  0  0  0  0  0  0  0
  140.8180   76.7930  218.1980 C   0  0  0  0  0  0  0  0  0  0  0  0
  139.9300   77.1460  219.4050 C   0  0  2  0  0  0  0  0  0  0  0  0
  139.9700   78.6370  219.6490 C   0  0  0  0  0  0  0  0  0  0  0  0
  139.8920   79.0280  220.9720 O   0  0  0  0  0  0  0  0  0  0  0  0
  140.8110   79.4470  221.8630 C   0  0  0  0  0  0  0  0  0  0  0  0
  141.6650   80.5210  221.7420 C   0  0  0  0  0  0  0  0  0  0  0  0
  142.5740   80.8680  222.7200 C   0  0  0  0  0  0  0  0  0  0  0  0
  142.6520   80.1360  223.8620 C   0  0  0  0  0  0  0  0  0  0  0  0
  141.8220   79.0520  224.0360 C   0  0  0  0  0  0  0  0  0  0  0  0
  140.9300   78.7260  223.0540 C   0  0  0  0  0  0  0  0  0  0  0  0
  139.9480   71.1400  223.2740 C   0  0  0  0  0  0  0  0  0  0  0  0
  139.3550   69.8910  223.2520 C   0  0  0  0  0  0  0  0  0  0  0  0
  139.2280   69.1100  224.3840 C   0  0  0  0  0  0  0  0  0  0  0  0
  139.7100   69.5940  225.5880 C   0  0  0  0  0  0  0  0  0  0  0  0
  139.6270   68.8930  226.7530 C   0  0  0  0  0  0  0  0  0  0  0  0
  140.1090   69.3770  227.9520 C   0  0  0  0  0  0  0  0  0  0  0  0
  140.0330   68.6920  229.1150 F   0  0  0  0  0  0  0  0  0  0  0  0
  140.7020   70.6240  227.9820 C   0  0  0  0  0  0  0  0  0  0  0  0
  140.7870   71.3380  226.7970 C   0  0  0  0  0  0  0  0  0  0  0  0
  140.2990   70.8370  225.5990 C   0  0  0  0  0  0  0  0  0  0  0  0
  140.4030   71.5670  224.4690 N   0  0  0  0  0  0  0  0  0  0  0  0
  139.5730   73.7880  223.0800 H   0  0  0  0  0  0  0  0  0  0  0  0
  140.7577   73.8008  220.3416 H   0  0  0  0  0  0  0  0  0  0  0  0
  139.0017   74.1366  220.4094 H   0  0  0  0  0  0  0  0  0  0  0  0
  142.2519   77.8816  220.7605 H   0  0  0  0  0  0  0  0  0  0  0  0
  142.8328   76.2262  220.5806 H   0  0  0  0  0  0  0  0  0  0  0  0
  142.4006   78.2141  218.4856 H   0  0  0  0  0  0  0  0  0  0  0  0
  142.9731   76.5672  218.2479 H   0  0  0  0  0  0  0  0  0  0  0  0
  140.5477   77.3866  217.3122 H   0  0  0  0  0  0  0  0  0  0  0  0
  140.7319   75.7477  217.8665 H   0  0  0  0  0  0  0  0  0  0  0  0
  138.8673   76.8725  219.3282 H   0  0  0  0  0  0  0  0  0  0  0  0
  140.9147   79.0220  219.2375 H   0  0  0  0  0  0  0  0  0  0  0  0
  139.0729   79.0458  219.1611 H   0  0  0  0  0  0  0  0  0  0  0  0
  141.6202   81.1283  220.8259 H   0  0  0  0  0  0  0  0  0  0  0  0
  143.2345   81.7357  222.5755 H   0  0  0  0  0  0  0  0  0  0  0  0
  143.3756   80.4087  224.6443 H   0  0  0  0  0  0  0  0  0  0  0  0
  141.8764   78.4536  224.9574 H   0  0  0  0  0  0  0  0  0  0  0  0
  140.2751   77.8557  223.2080 H   0  0  0  0  0  0  0  0  0  0  0  0
  138.9698   69.5048  222.2967 H   0  0  0  0  0  0  0  0  0  0  0  0
  138.7518   68.1199  224.3297 H   0  0  0  0  0  0  0  0  0  0  0  0
  139.1559   67.8991  226.7373 H   0  0  0  0  0  0  0  0  0  0  0  0
  141.0963   71.0394  228.9211 H   0  0  0  0  0  0  0  0  0  0  0  0
  141.2561   72.3329  226.8069 H   0  0  0  0  0  0  0  0  0  0  0  0
  1  2  2  0
  2  3  1  0
  3  4  1  0
  4  5  1  0
  5  6  2  0
  5  7  1  0
  7  8  1  0
  8  9  1  0
  9 10  1  0
 10 11  1  0
 11 12  1  0
 12 13  1  0
 13 14  1  0
 14 15  2  0
 15 16  1  0
 16 17  2  0
 17 18  1  0
 18 19  2  0
  2 20  1  0
 20 21  2  0
 21 22  1  0
 22 23  2  0
 23 24  1  0
 24 25  2  0
 25 26  1  0
 25 27  1  0
 27 28  2  0
 28 29  1  0
 29 30  2  0
 11  7  1  0
 19 14  1  0
 30 20  1  0
 29 23  1  0
  3 31  1  0
  4 32  1  0
  4 33  1  0
  8 34  1  0
  8 35  1  0
  9 36  1  0
  9 37  1  0
 10 38  1  0
 10 39  1  0
 11 40  1  6
 12 41  1  0
 12 42  1  0
 15 43  1  0
 16 44  1  0
 17 45  1  0
 18 46  1  0
 19 47  1  0
 21 48  1  0
 22 49  1  0
 24 50  1  0
 27 51  1  0
 28 52  1  0
M  END
>  <smiles>  (2) 
O=C(NCC(=O)N1CCC[C@@H]1COc1ccccc1)c1ccc2cc(F)ccc2n1

>  <score_type>  (2) 
oracle

>  <origin>  (2) 
autodockgpu

>  <m_score__min__energy>  (2) 
-8.4499999999999993

>  <m_primary>  (2) 
energy

>  <rmsd>  (2) 
1.9284187183468682

>  <m_score__min__rmsd>  (2) 
1.9284187183468682

>  <meeko>  (2) 
{"free_energy": -8.01, "intermolecular_energy": -10.1, "internal_energy": -2.28, "cluster_size": 22, "cluster_id": 1, "rank_in_cluster": 13}

>  <energy>  (2) 
-8.43

>  <cluster_rmsd>  (2) 
1.41

>  <cluster>  (2) 
1

$$$$

     RDKit          3D

 52 55  0  0  0  0  0  0  0  0999 V2000
  141.7320   73.3020  220.8670 O   0  0  0  0  0  0  0  0  0  0  0  0
  140.9490   74.0840  221.4710 C   0  0  0  0  0  0  0  0  0  0  0  0
  139.8410   73.6340  222.2180 N   0  0  0  0  0  0  0  0  0  0  0  0
  139.5720   72.2160  222.3100 C   0  0  0  0  0  0  0  0  0  0  0  0
  138.1660   72.0300  222.7580 C   0  0  0  0  0  0  0  0  0  0  0  0
  137.3380   72.9930  222.6880 O   0  0  0  0  0  0  0  0  0  0  0  0
  137.7970   70.7610  223.2570 N   0  0  0  0  0  0  0  0  0  0  0  0
  136.6520   70.3790  224.0720 C   0  0  0  0  0  0  0  0  0  0  0  0
  136.3130   68.9570  223.6290 C   0  0  0  0  0  0  0  0  0  0  0  0
  137.3310   68.6430  222.5820 C   0  0  0  0  0  0  0  0  0  0  0  0
  138.5230   69.4960  223.0530 C   0  0  2  0  0  0  0  0  0  0  0  0
  139.0200   68.9860  224.3860 C   0  0  0  0  0  0  0  0  0  0  0  0
  140.1520   69.6080  224.8780 O   0  0  0  0  0  0  0  0  0  0  0  0
  140.3830   70.3780  225.9590 C   0  0  0  0  0  0  0  0  0  0  0  0
  141.1150   71.5430  226.0150 C   0  0  0  0  0  0  0  0  0  0  0  0
  141.2900   72.2610  227.1800 C   0  0  0  0  0  0  0  0  0  0  0  0
  140.7280   71.8230  228.3370 C   0  0  0  0  0  0  0  0  0  0  0  0
  139.9860   70.6640  228.3380 C   0  0  0  0  0  0  0  0  0  0  0  0
  139.8260   69.9680  227.1730 C   0  0  0  0  0  0  0  0  0  0  0  0
  141.1850   75.5320  221.4050 C   0  0  0  0  0  0  0  0  0  0  0  0
  141.7980   76.1110  220.3080 C   0  0  0  0  0  0  0  0  0  0  0  0
  142.0320   77.4700  220.2190 C   0  0  0  0  0  0  0  0  0  0  0  0
  141.6390   78.2860  221.2670 C   0  0  0  0  0  0  0  0  0  0  0  0
  141.8300   79.6340  221.2650 C   0  0  0  0  0  0  0  0  0  0  0  0
  141.4380   80.4460  222.3100 C   0  0  0  0  0  0  0  0  0  0  0  0
  141.6210   81.7850  222.3210 F   0  0  0  0  0  0  0  0  0  0  0  0
  140.8260   79.8750  223.4090 C   0  0  0  0  0  0  0  0  0  0  0  0
  140.6320   78.5030  223.4120 C   0  0  0  0  0  0  0  0  0  0  0  0
  141.0310   77.7000  222.3530 C   0  0  0  0  0  0  0  0  0  0  0  0
  140.8210   76.3680  222.3980 N   0  0  0  0  0  0  0  0  0  0  0  0
  139.1950   74.3080  222.7190 H   0  0  0  0  0  0  0  0  0  0  0  0
  139.7126   71.7471  221.3249 H   0  0  0  0  0  0  0  0  0  0  0  0
  140.2612   71.7476  223.0280 H   0  0  0  0  0  0  0  0  0  0  0  0
  136.9129   70.3999  225.1404 H   0  0  0  0  0  0  0  0  0  0  0  0
  135.8033   71.0669  223.9432 H   0  0  0  0  0  0  0  0  0  0  0  0
  136.3936   68.2564  224.4732 H   0  0  0  0  0  0  0  0  0  0  0  0
  135.2830   68.8686  223.2531 H   0  0  0  0  0  0  0  0  0  0  0  0
  137.5814   67.5719  222.5725 H   0  0  0  0  0  0  0  0  0  0  0  0
  137.0014   68.8585  221.5549 H   0  0  0  0  0  0  0  0  0  0  0  0
  139.3978   69.5264  222.3868 H   0  0  0  0  0  0  0  0  0  0  0  0
  138.2133   69.1196  225.1218 H   0  0  0  0  0  0  0  0  0  0  0  0
  139.3011   67.9354  224.2209 H   0  0  0  0  0  0  0  0  0  0  0  0
  141.5802   71.9172  225.0911 H   0  0  0  0  0  0  0  0  0  0  0  0
  141.8838   73.1870  227.1722 H   0  0  0  0  0  0  0  0  0  0  0  0
  140.8655   72.3920  229.2683 H   0  0  0  0  0  0  0  0  0  0  0  0
  139.5256   70.3010  229.2687 H   0  0  0  0  0  0  0  0  0  0  0  0
  139.2315   69.0427  227.1918 H   0  0  0  0  0  0  0  0  0  0  0  0
  142.1111   75.4647  219.4748 H   0  0  0  0  0  0  0  0  0  0  0  0
  142.5219   77.8964  219.3312 H   0  0  0  0  0  0  0  0  0  0  0  0
  142.3174   80.0956  220.3936 H   0  0  0  0  0  0  0  0  0  0  0  0
  140.5013   80.4930  224.2591 H   0  0  0  0  0  0  0  0  0  0  0  0
  140.1464   78.0356  224.2813 H   0  0  0  0  0  0  0  0  0  0  0  0
  1  2  2  0
  2  3  1  0
  3  4  1  0
  4  5  1  0
  5  6  2  0
  5  7  1  0
  7  8  1  0
  8  9  1  0
  9 10  1  0
 10 11  1  0
 11 12  1  0
 12 13  1  0
 13 14  1  0
 14 15  2  0
 15 16  1  0
 16 17  2  0
 17 18  1  0
 18 19  2  0
  2 20  1  0
 20 21  2  0
 21 22  1  0
 22 23  2  0
 23 24  1  0
 24 25  2  0
 25 26  1  0
 25 27  1  0
 27 28  2  0
 28 29  1  0
 29 30  2  0
 11  7  1  0
 19 14  1  0
 30 20  1  0
 29 23  1  0
  3 31  1  0
  4 32  1  0
  4 33  1  0
  8 34  1  0
  8 35  1  0
  9 36  1  0
  9 37  1  0
 10 38  1  0
 10 39  1  0
 11 40  1  6
 12 41  1  0
 12 42  1  0
 15 43  1  0
 16 44  1  0
 17 45  1  0
 18 46  1  0
 19 47  1  0
 21 48  1  0
 22 49  1  0
 24 50  1  0
 27 51  1  0
 28 52  1  0
M  END
>  <smiles>  (3) 
O=C(NCC(=O)N1CCC[C@@H]1COc1ccccc1)c1ccc2cc(F)ccc2n1

>  <score_type>  (3) 
oracle

>  <origin>  (3) 
autodockgpu

>  <m_score__min__energy>  (3) 
-8.4499999999999993

>  <m_primary>  (3) 
energy

>  <rmsd>  (3) 
8.617204638483893

>  <m_score__min__rmsd>  (3) 
8.617204638483893

>  <meeko>  (3) 
{"free_energy": -7.74, "intermolecular_energy": -9.83, "internal_energy": -2.21, "cluster_size": 14, "cluster_id": 3, "rank_in_cluster": 10}

>  <energy>  (3) 
-8.39

>  <cluster_rmsd>  (3) 
0.91

>  <cluster>  (3) 
1

$$$$

     RDKit          3D

 52 55  0  0  0  0  0  0  0  0999 V2000
  136.9980   76.2260  222.1140 O   0  0  0  0  0  0  0  0  0  0  0  0
  138.2480   76.2830  222.2660 C   0  0  0  0  0  0  0  0  0  0  0  0
  139.0950   75.1720  222.0790 N   0  0  0  0  0  0  0  0  0  0  0  0
  138.5250   73.8990  221.6930 C   0  0  0  0  0  0  0  0  0  0  0  0
  139.5320   72.8350  221.9470 C   0  0  0  0  0  0  0  0  0  0  0  0
  140.6750   73.1320  222.4210 O   0  0  0  0  0  0  0  0  0  0  0  0
  139.1730   71.5030  221.6420 N   0  0  0  0  0  0  0  0  0  0  0  0
  138.1290   71.0000  220.7590 C   0  0  0  0  0  0  0  0  0  0  0  0
  138.6870   69.6950  220.1950 C   0  0  0  0  0  0  0  0  0  0  0  0
  140.0310   69.5610  220.8340 C   0  0  0  0  0  0  0  0  0  0  0  0
  139.8020   70.2830  222.1750 C   0  0  2  0  0  0  0  0  0  0  0  0
  138.7920   69.5200  223.0000 C   0  0  0  0  0  0  0  0  0  0  0  0
  138.5500   70.0240  224.2640 O   0  0  0  0  0  0  0  0  0  0  0  0
  139.3260   70.1870  225.3530 C   0  0  0  0  0  0  0  0  0  0  0  0
  139.3930   69.3730  226.4610 C   0  0  0  0  0  0  0  0  0  0  0  0
  140.2280   69.6310  227.5290 C   0  0  0  0  0  0  0  0  0  0  0  0
  141.0280   70.7290  227.5130 C   0  0  0  0  0  0  0  0  0  0  0  0
  141.0010   71.5780  226.4310 C   0  0  0  0  0  0  0  0  0  0  0  0
  140.1670   71.3040  225.3840 C   0  0  0  0  0  0  0  0  0  0  0  0
  138.8690   77.5560  222.6570 C   0  0  0  0  0  0  0  0  0  0  0  0
  138.1020   78.6710  222.9460 C   0  0  0  0  0  0  0  0  0  0  0  0
  138.6590   79.8790  223.3160 C   0  0  0  0  0  0  0  0  0  0  0  0
  140.0370   79.9820  223.4020 C   0  0  0  0  0  0  0  0  0  0  0  0
  140.6720   81.1330  223.7590 C   0  0  0  0  0  0  0  0  0  0  0  0
  142.0460   81.2330  223.8450 C   0  0  0  0  0  0  0  0  0  0  0  0
  142.6880   82.3690  224.1970 F   0  0  0  0  0  0  0  0  0  0  0  0
  142.8180   80.1240  223.5580 C   0  0  0  0  0  0  0  0  0  0  0  0
  142.1720   78.9530  223.1950 C   0  0  0  0  0  0  0  0  0  0  0  0
  140.7910   78.8680  223.1140 C   0  0  0  0  0  0  0  0  0  0  0  0
  140.2050   77.7060  222.7560 N   0  0  0  0  0  0  0  0  0  0  0  0
  140.1430   75.2400  222.2120 H   0  0  0  0  0  0  0  0  0  0  0  0
  137.6198   73.7025  222.2863 H   0  0  0  0  0  0  0  0  0  0  0  0
  138.2541   73.9149  220.6270 H   0  0  0  0  0  0  0  0  0  0  0  0
  137.2025   70.8136  221.3219 H   0  0  0  0  0  0  0  0  0  0  0  0
  137.8751   71.7189  219.9661 H   0  0  0  0  0  0  0  0  0  0  0  0
  138.0411   68.8464  220.4646 H   0  0  0  0  0  0  0  0  0  0  0  0
  138.7429   69.7020  219.0965 H   0  0  0  0  0  0  0  0  0  0  0  0
  140.3010   68.5055  220.9861 H   0  0  0  0  0  0  0  0  0  0  0  0
  140.8569   69.9736  220.2359 H   0  0  0  0  0  0  0  0  0  0  0  0
  140.6857   70.4185  222.8158 H   0  0  0  0  0  0  0  0  0  0  0  0
  137.8397   69.5154  222.4495 H   0  0  0  0  0  0  0  0  0  0  0  0
  139.2226   68.5193  223.1525 H   0  0  0  0  0  0  0  0  0  0  0  0
  138.7536   68.4786  226.4967 H   0  0  0  0  0  0  0  0  0  0  0  0
  140.2458   68.9488  228.3918 H   0  0  0  0  0  0  0  0  0  0  0  0
  141.6950   70.9383  228.3623 H   0  0  0  0  0  0  0  0  0  0  0  0
  141.6451   72.4695  226.4089 H   0  0  0  0  0  0  0  0  0  0  0  0
  140.1566   71.9931  224.5267 H   0  0  0  0  0  0  0  0  0  0  0  0
  137.0069   78.5919  222.8784 H   0  0  0  0  0  0  0  0  0  0  0  0
  138.0186   80.7452  223.5387 H   0  0  0  0  0  0  0  0  0  0  0  0
  140.0640   82.0205  223.9885 H   0  0  0  0  0  0  0  0  0  0  0  0
  143.9155   80.1692  223.6160 H   0  0  0  0  0  0  0  0  0  0  0  0
  142.7746   78.0623  222.9637 H   0  0  0  0  0  0  0  0  0  0  0  0
  1  2  2  0
  2  3  1  0
  3  4  1  0
  4  5  1  0
  5  6  2  0
  5  7  1  0
  7  8  1  0
  8  9  1  0
  9 10  1  0
 10 11  1  0
 11 12  1  0
 12 13  1  0
 13 14  1  0
 14 15  2  0
 15 16  1  0
 16 17  2  0
 17 18  1  0
 18 19  2  0
  2 20  1  0
 20 21  2  0
 21 22  1  0
 22 23  2  0
 23 24  1  0
 24 25  2  0
 25 26  1  0
 25 27  1  0
 27 28  2  0
 28 29  1  0
 29 30  2  0
 11  7  1  0
 19 14  1  0
 30 20  1  0
 29 23  1  0
  3 31  1  0
  4 32  1  0
  4 33  1  0
  8 34  1  0
  8 35  1  0
  9 36  1  0
  9 37  1  0
 10 38  1  0
 10 39  1  0
 11 40  1  1
 12 41  1  0
 12 42  1  0
 15 43  1  0
 16 44  1  0
 17 45  1  0
 18 46  1  0
 19 47  1  0
 21 48  1  0
 22 49  1  0
 24 50  1  0
 27 51  1  0
 28 52  1  0
M  END
>  <smiles>  (4) 
O=C(NCC(=O)N1CCC[C@@H]1COc1ccccc1)c1ccc2cc(F)ccc2n1

>  <score_type>  (4) 
oracle

>  <origin>  (4) 
autodockgpu

>  <m_score__min__energy>  (4) 
-8.4499999999999993

>  <m_primary>  (4) 
energy

>  <rmsd>  (4) 
8.337810591843077

>  <m_score__min__rmsd>  (4) 
8.337810591843077

>  <meeko>  (4) 
{"free_energy": -7.19, "intermolecular_energy": -9.28, "internal_energy": -2.3, "cluster_size": 14, "cluster_id": 3, "rank_in_cluster": 14}

>  <energy>  (4) 
-8.3

>  <cluster_rmsd>  (4) 
0.74

>  <cluster>  (4) 
1

$$$$

     RDKit          3D

 52 55  0  0  0  0  0  0  0  0999 V2000
  139.9490   71.3130  220.9890 O   0  0  0  0  0  0  0  0  0  0  0  0
  139.8180   71.8720  222.1110 C   0  0  0  0  0  0  0  0  0  0  0  0
  139.6790   73.2670  222.2610 N   0  0  0  0  0  0  0  0  0  0  0  0
  139.6820   74.1140  221.0880 C   0  0  0  0  0  0  0  0  0  0  0  0
  140.0350   75.4970  221.5050 C   0  0  0  0  0  0  0  0  0  0  0  0
  139.7700   75.8990  222.6820 O   0  0  0  0  0  0  0  0  0  0  0  0
  140.6640   76.3310  220.5530 N   0  0  0  0  0  0  0  0  0  0  0  0
  142.0640   76.7160  220.4360 C   0  0  0  0  0  0  0  0  0  0  0  0
  142.3020   76.8750  218.9350 C   0  0  0  0  0  0  0  0  0  0  0  0
  140.9770   76.5690  218.3160 C   0  0  0  0  0  0  0  0  0  0  0  0
  140.0120   77.0210  219.4280 C   0  0  2  0  0  0  0  0  0  0  0  0
  140.1250   78.5140  219.6260 C   0  0  0  0  0  0  0  0  0  0  0  0
  139.9860   78.9560  220.9280 O   0  0  0  0  0  0  0  0  0  0  0  0
  140.8620   79.4140  221.8430 C   0  0  0  0  0  0  0  0  0  0  0  0
  141.7170   80.4860  221.7180 C   0  0  0  0  0  0  0  0  0  0  0  0
  142.5790   80.8750  222.7230 C   0  0  0  0  0  0  0  0  0  0  0  0
  142.6070   80.1890  223.8950 C   0  0  0  0  0  0  0  0  0  0  0  0
  141.7740   79.1080  224.0730 C   0  0  0  0  0  0  0  0  0  0  0  0
  140.9280   78.7400  223.0650 C   0  0  0  0  0  0  0  0  0  0  0  0
  139.8100   71.0510  223.3290 C   0  0  0  0  0  0  0  0  0  0  0  0
  139.2800   69.7730  223.3300 C   0  0  0  0  0  0  0  0  0  0  0  0
  139.2600   68.9790  224.4600 C   0  0  0  0  0  0  0  0  0  0  0  0
  139.7880   69.4780  225.6380 C   0  0  0  0  0  0  0  0  0  0  0  0
  139.8100   68.7660  226.7990 C   0  0  0  0  0  0  0  0  0  0  0  0
  140.3370   69.2670  227.9730 C   0  0  0  0  0  0  0  0  0  0  0  0
  140.3650   68.5710  229.1320 F   0  0  0  0  0  0  0  0  0  0  0  0
  140.8670   70.5420  227.9790 C   0  0  0  0  0  0  0  0  0  0  0  0
  140.8450   71.2670  226.7980 C   0  0  0  0  0  0  0  0  0  0  0  0
  140.3130   70.7500  225.6270 C   0  0  0  0  0  0  0  0  0  0  0  0
  140.3120   71.4920  224.4990 N   0  0  0  0  0  0  0  0  0  0  0  0
  139.5720   73.7180  223.2140 H   0  0  0  0  0  0  0  0  0  0  0  0
  140.4238   73.7438  220.3650 H   0  0  0  0  0  0  0  0  0  0  0  0
  138.6892   74.1052  220.6144 H   0  0  0  0  0  0  0  0  0  0  0  0
  142.2498   77.6650  220.9603 H   0  0  0  0  0  0  0  0  0  0  0  0
  142.7378   75.9722  220.8864 H   0  0  0  0  0  0  0  0  0  0  0  0
  142.6153   77.9022  218.6969 H   0  0  0  0  0  0  0  0  0  0  0  0
  143.1010   76.2160  218.5643 H   0  0  0  0  0  0  0  0  0  0  0  0
  140.8226   77.1436  217.3908 H   0  0  0  0  0  0  0  0  0  0  0  0
  140.8537   75.5190  218.0123 H   0  0  0  0  0  0  0  0  0  0  0  0
  138.9446   76.8099  219.2663 H   0  0  0  0  0  0  0  0  0  0  0  0
  141.1153   78.8292  219.2656 H   0  0  0  0  0  0  0  0  0  0  0  0
  139.2869   78.9559  219.0672 H   0  0  0  0  0  0  0  0  0  0  0  0
  141.7128   81.0564  220.7774 H   0  0  0  0  0  0  0  0  0  0  0  0
  143.2427   81.7397  222.5751 H   0  0  0  0  0  0  0  0  0  0  0  0
  143.2926   80.4962  224.6985 H   0  0  0  0  0  0  0  0  0  0  0  0
  141.7891   78.5454  225.0181 H   0  0  0  0  0  0  0  0  0  0  0  0
  140.2689   77.8736  223.2229 H   0  0  0  0  0  0  0  0  0  0  0  0
  138.8586   69.3742  222.3955 H   0  0  0  0  0  0  0  0  0  0  0  0
  138.8314   67.9666  224.4243 H   0  0  0  0  0  0  0  0  0  0  0  0
  139.3903   67.7492  226.8015 H   0  0  0  0  0  0  0  0  0  0  0  0
  141.2954   70.9710  228.8969 H   0  0  0  0  0  0  0  0  0  0  0  0
  141.2628   72.2845  226.7896 H   0  0  0  0  0  0  0  0  0  0  0  0
  1  2  2  0
  2  3  1  0
  3  4  1  0
  4  5  1  0
  5  6  2  0
  5  7  1  0
  7  8  1  0
  8  9  1  0
  9 10  1  0
 10 11  1  0
 11 12  1  0
 12 13  1  0
 13 14  1  0
 14 15  2  0
 15 16  1  0
 16 17  2  0
 17 18  1  0
 18 19  2  0
  2 20  1  0
 20 21  2  0
 21 22  1  0
 22 23  2  0
 23 24  1  0
 24 25  2  0
 25 26  1  0
 25 27  1  0
 27 28  2  0
 28 29  1  0
 29 30  2  0
 11  7  1  0
 19 14  1  0
 30 20  1  0
 29 23  1  0
  3 31  1  0
  4 32  1  0
  4 33  1  0
  8 34  1  0
  8 35  1  0
  9 36  1  0
  9 37  1  0
 10 38  1  0
 10 39  1  0
 11 40  1  6
 12 41  1  0
 12 42  1  0
 15 43  1  0
 16 44  1  0
 17 45  1  0
 18 46  1  0
 19 47  1  0
 21 48  1  0
 22 49  1  0
 24 50  1  0
 27 51  1  0
 28 52  1  0
M  END
>  <smiles>  (5) 
O=C(NCC(=O)N1CCC[C@@H]1COc1ccccc1)c1ccc2cc(F)ccc2n1

>  <score_type>  (5) 
oracle

>  <origin>  (5) 
autodockgpu

>  <m_score__min__energy>  (5) 
-8.4499999999999993

>  <m_primary>  (5) 
energy

>  <rmsd>  (5) 
1.8738773169026248

>  <m_score__min__rmsd>  (5) 
1.8738773169026248

>  <meeko>  (5) 
{"free_energy": -7.97, "intermolecular_energy": -10.06, "internal_energy": -2.28, "cluster_size": 22, "cluster_id": 1, "rank_in_cluster": 16}

>  <energy>  (5) 
-8.28

>  <cluster_rmsd>  (5) 
0.55

>  <cluster>  (5) 
1

$$$$

     RDKit          3D

 52 55  0  0  0  0  0  0  0  0999 V2000
  140.5450   71.6250  221.0140 O   0  0  0  0  0  0  0  0  0  0  0  0
  140.1630   72.1450  222.0970 C   0  0  0  0  0  0  0  0  0  0  0  0
  139.8370   73.5110  222.2200 N   0  0  0  0  0  0  0  0  0  0  0  0
  139.9380   74.3740  221.0620 C   0  0  0  0  0  0  0  0  0  0  0  0
  140.0080   75.7830  221.5300 C   0  0  0  0  0  0  0  0  0  0  0  0
  139.6660   76.0840  222.7180 O   0  0  0  0  0  0  0  0  0  0  0  0
  140.4630   76.7590  220.6130 N   0  0  0  0  0  0  0  0  0  0  0  0
  139.7390   77.4480  219.5540 C   0  0  0  0  0  0  0  0  0  0  0  0
  140.3790   78.8330  219.4790 C   0  0  0  0  0  0  0  0  0  0  0  0
  141.4480   78.8030  220.5220 C   0  0  0  0  0  0  0  0  0  0  0  0
  141.8250   77.3100  220.5270 C   0  0  2  0  0  0  0  0  0  0  0  0
  142.4320   76.9330  219.1950 C   0  0  0  0  0  0  0  0  0  0  0  0
  142.5480   75.5770  218.9550 O   0  0  0  0  0  0  0  0  0  0  0  0
  143.2180   74.5860  219.5750 C   0  0  0  0  0  0  0  0  0  0  0  0
  142.8300   73.2720  219.7120 C   0  0  0  0  0  0  0  0  0  0  0  0
  143.5960   72.3310  220.3700 C   0  0  0  0  0  0  0  0  0  0  0  0
  144.7880   72.6890  220.9150 C   0  0  0  0  0  0  0  0  0  0  0  0
  145.2240   73.9890  220.8080 C   0  0  0  0  0  0  0  0  0  0  0  0
  144.4500   74.9060  220.1530 C   0  0  0  0  0  0  0  0  0  0  0  0
  140.0460   71.3050  223.2970 C   0  0  0  0  0  0  0  0  0  0  0  0
  139.5050   70.0340  223.2350 C   0  0  0  0  0  0  0  0  0  0  0  0
  139.3840   69.2230  224.3470 C   0  0  0  0  0  0  0  0  0  0  0  0
  139.8190   69.6990  225.5720 C   0  0  0  0  0  0  0  0  0  0  0  0
  139.7380   68.9700  226.7200 C   0  0  0  0  0  0  0  0  0  0  0  0
  140.1730   69.4460  227.9400 C   0  0  0  0  0  0  0  0  0  0  0  0
  140.0980   68.7330  229.0860 F   0  0  0  0  0  0  0  0  0  0  0  0
  140.7130   70.7150  228.0100 C   0  0  0  0  0  0  0  0  0  0  0  0
  140.7960   71.4580  226.8420 C   0  0  0  0  0  0  0  0  0  0  0  0
  140.3560   70.9650  225.6230 C   0  0  0  0  0  0  0  0  0  0  0  0
  140.4550   71.7230  224.5110 N   0  0  0  0  0  0  0  0  0  0  0  0
  139.5190   73.9290  223.1400 H   0  0  0  0  0  0  0  0  0  0  0  0
  140.8460   74.1264  220.4925 H   0  0  0  0  0  0  0  0  0  0  0  0
  139.0624   74.2357  220.4107 H   0  0  0  0  0  0  0  0  0  0  0  0
  139.8530   76.9164  218.5977 H   0  0  0  0  0  0  0  0  0  0  0  0
  138.6591   77.5007  219.7564 H   0  0  0  0  0  0  0  0  0  0  0  0
  140.8113   79.0090  218.4830 H   0  0  0  0  0  0  0  0  0  0  0  0
  139.6519   79.6414  219.6458 H   0  0  0  0  0  0  0  0  0  0  0  0
  142.3040   79.4333  220.2392 H   0  0  0  0  0  0  0  0  0  0  0  0
  141.1317   79.1904  221.5017 H   0  0  0  0  0  0  0  0  0  0  0  0
  142.5415   76.9877  221.2969 H   0  0  0  0  0  0  0  0  0  0  0  0
  141.8035   77.3646  218.4022 H   0  0  0  0  0  0  0  0  0  0  0  0
  143.4596   77.3253  219.2103 H   0  0  0  0  0  0  0  0  0  0  0  0
  141.8687   72.9589  219.2786 H   0  0  0  0  0  0  0  0  0  0  0  0
  143.2419   71.2928  220.4530 H   0  0  0  0  0  0  0  0  0  0  0  0
  145.4019   71.9421  221.4397 H   0  0  0  0  0  0  0  0  0  0  0  0
  146.1876   74.2885  221.2459 H   0  0  0  0  0  0  0  0  0  0  0  0
  144.8128   75.9417  220.0774 H   0  0  0  0  0  0  0  0  0  0  0  0
  139.1576   69.6540  222.2630 H   0  0  0  0  0  0  0  0  0  0  0  0
  138.9494   68.2162  224.2604 H   0  0  0  0  0  0  0  0  0  0  0  0
  139.3075   67.9589  226.6724 H   0  0  0  0  0  0  0  0  0  0  0  0
  141.0679   71.1256  228.9668 H   0  0  0  0  0  0  0  0  0  0  0  0
  141.2244   72.4703  226.8839 H   0  0  0  0  0  0  0  0  0  0  0  0
  1  2  2  0
  2  3  1  0
  3  4  1  0
  4  5  1  0
  5  6  2  0
  5  7  1  0
  7  8  1  0
  8  9  1  0
  9 10  1  0
 10 11  1  0
 11 12  1  0
 12 13  1  0
 13 14  1  0
 14 15  2  0
 15 16  1  0
 16 17  2  0
 17 18  1  0
 18 19  2  0
  2 20  1  0
 20 21  2  0
 21 22  1  0
 22 23  2  0
 23 24  1  0
 24 25  2  0
 25 26  1  0
 25 27  1  0
 27 28  2  0
 28 29  1  0
 29 30  2  0
 11  7  1  0
 19 14  1  0
 30 20  1  0
 29 23  1  0
  3 31  1  0
  4 32  1  0
  4 33  1  0
  8 34  1  0
  8 35  1  0
  9 36  1  0
  9 37  1  0
 10 38  1  0
 10 39  1  0
 11 40  1  1
 12 41  1  0
 12 42  1  0
 15 43  1  0
 16 44  1  0
 17 45  1  0
 18 46  1  0
 19 47  1  0
 21 48  1  0
 22 49  1  0
 24 50  1  0
 27 51  1  0
 28 52  1  0
M  END
>  <smiles>  (6) 
O=C(NCC(=O)N1CCC[C@@H]1COc1ccccc1)c1ccc2cc(F)ccc2n1

>  <score_type>  (6) 
oracle

>  <origin>  (6) 
autodockgpu

>  <m_score__min__energy>  (6) 
-8.4499999999999993

>  <m_primary>  (6) 
energy

>  <rmsd>  (6) 
1.8873703214727526

>  <m_score__min__rmsd>  (6) 
1.8873703214727526

>  <meeko>  (6) 
{"free_energy": -7.6, "intermolecular_energy": -9.69, "internal_energy": -2.6, "cluster_size": 9, "cluster_id": 4, "rank_in_cluster": 8}

>  <energy>  (6) 
-8.21

>  <cluster_rmsd>  (6) 
0.73

>  <cluster>  (6) 
1

$$$$

     RDKit          3D

 52 55  0  0  0  0  0  0  0  0999 V2000
  140.0780   70.8510  221.1480 O   0  0  0  0  0  0  0  0  0  0  0  0
  139.8110   71.4120  222.2450 C   0  0  0  0  0  0  0  0  0  0  0  0
  139.5160   72.7870  222.3500 N   0  0  0  0  0  0  0  0  0  0  0  0
  139.5130   73.6080  221.1590 C   0  0  0  0  0  0  0  0  0  0  0  0
  140.2920   74.8440  221.4360 C   0  0  0  0  0  0  0  0  0  0  0  0
  139.9680   75.6040  222.4030 O   0  0  0  0  0  0  0  0  0  0  0  0
  141.3880   75.1330  220.5920 N   0  0  0  0  0  0  0  0  0  0  0  0
  142.7640   74.6600  220.6600 C   0  0  0  0  0  0  0  0  0  0  0  0
  143.2250   74.5840  219.2050 C   0  0  0  0  0  0  0  0  0  0  0  0
  142.0420   75.0450  218.4180 C   0  0  0  0  0  0  0  0  0  0  0  0
  141.3760   76.0140  219.4120 C   0  0  2  0  0  0  0  0  0  0  0  0
  142.2860   77.1940  219.6620 C   0  0  0  0  0  0  0  0  0  0  0  0
  141.6820   78.3060  220.2190 O   0  0  0  0  0  0  0  0  0  0  0  0
  141.7610   78.8850  221.4330 C   0  0  0  0  0  0  0  0  0  0  0  0
  141.4600   78.3180  222.6510 C   0  0  0  0  0  0  0  0  0  0  0  0
  141.5770   79.0020  223.8440 C   0  0  0  0  0  0  0  0  0  0  0  0
  142.0060   80.2910  223.8450 C   0  0  0  0  0  0  0  0  0  0  0  0
  142.3200   80.9070  222.6560 C   0  0  0  0  0  0  0  0  0  0  0  0
  142.1960   80.2120  221.4860 C   0  0  0  0  0  0  0  0  0  0  0  0
  139.8040   70.6160  223.4790 C   0  0  0  0  0  0  0  0  0  0  0  0
  139.2170   69.3640  223.5230 C   0  0  0  0  0  0  0  0  0  0  0  0
  139.1950   68.5940  224.6700 C   0  0  0  0  0  0  0  0  0  0  0  0
  139.7830   69.0920  225.8200 C   0  0  0  0  0  0  0  0  0  0  0  0
  139.8090   68.4030  226.9950 C   0  0  0  0  0  0  0  0  0  0  0  0
  140.3950   68.9010  228.1410 C   0  0  0  0  0  0  0  0  0  0  0  0
  140.4270   68.2270  229.3130 F   0  0  0  0  0  0  0  0  0  0  0  0
  140.9830   70.1500  228.1050 C   0  0  0  0  0  0  0  0  0  0  0  0
  140.9570   70.8520  226.9090 C   0  0  0  0  0  0  0  0  0  0  0  0
  140.3650   70.3380  225.7660 C   0  0  0  0  0  0  0  0  0  0  0  0
  140.3630   71.0560  224.6240 N   0  0  0  0  0  0  0  0  0  0  0  0
  139.2950   73.2400  223.2810 H   0  0  0  0  0  0  0  0  0  0  0  0
  139.9754   73.0566  220.3271 H   0  0  0  0  0  0  0  0  0  0  0  0
  138.4804   73.8673  220.8826 H   0  0  0  0  0  0  0  0  0  0  0  0
  143.3884   75.3657  221.2276 H   0  0  0  0  0  0  0  0  0  0  0  0
  142.8438   73.6893  221.1713 H   0  0  0  0  0  0  0  0  0  0  0  0
  144.0878   75.2448  219.0347 H   0  0  0  0  0  0  0  0  0  0  0  0
  143.5511   73.5729  218.9199 H   0  0  0  0  0  0  0  0  0  0  0  0
  142.3482   75.5614  217.4963 H   0  0  0  0  0  0  0  0  0  0  0  0
  141.3859   74.2320  218.0738 H   0  0  0  0  0  0  0  0  0  0  0  0
  140.4030   76.4307  219.1124 H   0  0  0  0  0  0  0  0  0  0  0  0
  143.0857   76.8666  220.3426 H   0  0  0  0  0  0  0  0  0  0  0  0
  142.6467   77.5111  218.6724 H   0  0  0  0  0  0  0  0  0  0  0  0
  141.1113   77.2750  222.6743 H   0  0  0  0  0  0  0  0  0  0  0  0
  141.3235   78.5046  224.7918 H   0  0  0  0  0  0  0  0  0  0  0  0
  142.1019   80.8401  224.7933 H   0  0  0  0  0  0  0  0  0  0  0  0
  142.6681   81.9504  222.6470 H   0  0  0  0  0  0  0  0  0  0  0  0
  142.4499   80.7197  220.5438 H   0  0  0  0  0  0  0  0  0  0  0  0
  138.7499   68.9664  222.6099 H   0  0  0  0  0  0  0  0  0  0  0  0
  138.7186   67.6025  224.6694 H   0  0  0  0  0  0  0  0  0  0  0  0
  139.3430   67.4072  227.0319 H   0  0  0  0  0  0  0  0  0  0  0  0
  141.4590   70.5765  229.0003 H   0  0  0  0  0  0  0  0  0  0  0  0
  141.4210   71.8484  226.8663 H   0  0  0  0  0  0  0  0  0  0  0  0
  1  2  2  0
  2  3  1  0
  3  4  1  0
  4  5  1  0
  5  6  2  0
  5  7  1  0
  7  8  1  0
  8  9  1  0
  9 10  1  0
 10 11  1  0
 11 12  1  0
 12 13  1  0
 13 14  1  0
 14 15  2  0
 15 16  1  0
 16 17  2  0
 17 18  1  0
 18 19  2  0
  2 20  1  0
 20 21  2  0
 21 22  1  0
 22 23  2  0
 23 24  1  0
 24 25  2  0
 25 26  1  0
 25 27  1  0
 27 28  2  0
 28 29  1  0
 29 30  2  0
 11  7  1  0
 19 14  1  0
 30 20  1  0
 29 23  1  0
  3 31  1  0
  4 32  1  0
  4 33  1  0
  8 34  1  0
  8 35  1  0
  9 36  1  0
  9 37  1  0
 10 38  1  0
 10 39  1  0
 11 40  1  6
 12 41  1  0
 12 42  1  0
 15 43  1  0
 16 44  1  0
 17 45  1  0
 18 46  1  0
 19 47  1  0
 21 48  1  0
 22 49  1  0
 24 50  1  0
 27 51  1  0
 28 52  1  0
M  END
>  <smiles>  (7) 
O=C(NCC(=O)N1CCC[C@@H]1COc1ccccc1)c1ccc2cc(F)ccc2n1

>  <score_type>  (7) 
oracle

>  <origin>  (7) 
autodockgpu

>  <m_score__min__energy>  (7) 
-8.4499999999999993

>  <m_primary>  (7) 
energy

>  <rmsd>  (7) 
2.082307286692182

>  <m_score__min__rmsd>  (7) 
2.082307286692182

>  <meeko>  (7) 
{"free_energy": -8.39, "intermolecular_energy": -10.48, "internal_energy": -1.77, "cluster_size": 22, "cluster_id": 1, "rank_in_cluster": 3}

>  <energy>  (7) 
-8.15

>  <cluster_rmsd>  (7) 
1.06

>  <cluster>  (7) 
1

$$$$

     RDKit          3D

 52 55  0  0  0  0  0  0  0  0999 V2000
  142.5270   75.7260  218.5610 O   0  0  0  0  0  0  0  0  0  0  0  0
  142.2370   76.5820  219.4390 C   0  0  0  0  0  0  0  0  0  0  0  0
  141.9450   76.2400  220.7760 N   0  0  0  0  0  0  0  0  0  0  0  0
  141.9750   74.8500  221.1780 C   0  0  0  0  0  0  0  0  0  0  0  0
  140.6030   74.4490  221.5900 C   0  0  0  0  0  0  0  0  0  0  0  0
  140.3800   73.2730  222.0220 O   0  0  0  0  0  0  0  0  0  0  0  0
  139.5750   75.4130  221.4800 N   0  0  0  0  0  0  0  0  0  0  0  0
  138.9160   75.9380  220.2930 C   0  0  0  0  0  0  0  0  0  0  0  0
  137.4860   76.2390  220.7400 C   0  0  0  0  0  0  0  0  0  0  0  0
  137.4630   75.8590  222.1840 C   0  0  0  0  0  0  0  0  0  0  0  0
  138.9230   76.1260  222.5910 C   0  0  2  0  0  0  0  0  0  0  0  0
  139.2230   77.6030  222.4800 C   0  0  0  0  0  0  0  0  0  0  0  0
  140.5570   77.9500  222.5720 O   0  0  0  0  0  0  0  0  0  0  0  0
  141.1910   79.0680  222.9760 C   0  0  0  0  0  0  0  0  0  0  0  0
  140.6260   80.2010  223.5170 C   0  0  0  0  0  0  0  0  0  0  0  0
  141.3710   81.2980  223.9020 C   0  0  0  0  0  0  0  0  0  0  0  0
  142.7210   81.2860  223.7510 C   0  0  0  0  0  0  0  0  0  0  0  0
  143.3380   80.1790  223.2150 C   0  0  0  0  0  0  0  0  0  0  0  0
  142.5820   79.1040  222.8400 C   0  0  0  0  0  0  0  0  0  0  0  0
  142.1950   78.0040  219.0740 C   0  0  0  0  0  0  0  0  0  0  0  0
  142.6500   78.4440  217.8440 C   0  0  0  0  0  0  0  0  0  0  0  0
  142.6230   79.7740  217.4750 C   0  0  0  0  0  0  0  0  0  0  0  0
  142.1210   80.7060  218.3680 C   0  0  0  0  0  0  0  0  0  0  0  0
  142.0550   82.0370  218.0880 C   0  0  0  0  0  0  0  0  0  0  0  0
  141.5540   82.9640  218.9800 C   0  0  0  0  0  0  0  0  0  0  0  0
  141.4840   84.2880  218.7160 F   0  0  0  0  0  0  0  0  0  0  0  0
  141.0980   82.5330  220.2100 C   0  0  0  0  0  0  0  0  0  0  0  0
  141.1640   81.1780  220.4950 C   0  0  0  0  0  0  0  0  0  0  0  0
  141.6700   80.2580  219.5880 C   0  0  0  0  0  0  0  0  0  0  0  0
  141.7150   78.9480  219.9080 N   0  0  0  0  0  0  0  0  0  0  0  0
  141.7030   76.9740  221.5000 H   0  0  0  0  0  0  0  0  0  0  0  0
  142.3063   74.2267  220.3344 H   0  0  0  0  0  0  0  0  0  0  0  0
  142.6752   74.7145  222.0155 H   0  0  0  0  0  0  0  0  0  0  0  0
  139.4148   76.8553  219.9468 H   0  0  0  0  0  0  0  0  0  0  0  0
  138.9474   75.2284  219.4531 H   0  0  0  0  0  0  0  0  0  0  0  0
  137.2552   77.3072  220.6145 H   0  0  0  0  0  0  0  0  0  0  0  0
  136.7370   75.6912  220.1493 H   0  0  0  0  0  0  0  0  0  0  0  0
  136.7646   76.4886  222.7547 H   0  0  0  0  0  0  0  0  0  0  0  0
  137.1243   74.8296  222.3730 H   0  0  0  0  0  0  0  0  0  0  0  0
  139.2097   75.8278  223.6103 H   0  0  0  0  0  0  0  0  0  0  0  0
  138.8490   77.9520  221.5062 H   0  0  0  0  0  0  0  0  0  0  0  0
  138.7291   78.0758  223.3417 H   0  0  0  0  0  0  0  0  0  0  0  0
  139.5343   80.2337  223.6482 H   0  0  0  0  0  0  0  0  0  0  0  0
  140.8723   82.1800  224.3302 H   0  0  0  0  0  0  0  0  0  0  0  0
  143.3185   82.1577  224.0560 H   0  0  0  0  0  0  0  0  0  0  0  0
  144.4306   80.1595  223.0894 H   0  0  0  0  0  0  0  0  0  0  0  0
  143.0908   78.2277  222.4119 H   0  0  0  0  0  0  0  0  0  0  0  0
  143.0486   77.7058  217.1326 H   0  0  0  0  0  0  0  0  0  0  0  0
  142.9940   80.0882  216.4883 H   0  0  0  0  0  0  0  0  0  0  0  0
  142.4160   82.3883  217.1101 H   0  0  0  0  0  0  0  0  0  0  0  0
  140.6933   83.2456  220.9438 H   0  0  0  0  0  0  0  0  0  0  0  0
  140.8038   80.8209  221.4711 H   0  0  0  0  0  0  0  0  0  0  0  0
  1  2  2  0
  2  3  1  0
  3  4  1  0
  4  5  1  0
  5  6  2  0
  5  7  1  0
  7  8  1  0
  8  9  1  0
  9 10  1  0
 10 11  1  0
 11 12  1  0
 12 13  1  0
 13 14  1  0
 14 15  2  0
 15 16  1  0
 16 17  2  0
 17 18  1  0
 18 19  2  0
  2 20  1  0
 20 21  2  0
 21 22  1  0
 22 23  2  0
 23 24  1  0
 24 25  2  0
 25 26  1  0
 25 27  1  0
 27 28  2  0
 28 29  1  0
 29 30  2  0
 11  7  1  0
 19 14  1  0
 30 20  1  0
 29 23  1  0
  3 31  1  0
  4 32  1  0
  4 33  1  0
  8 34  1  0
  8 35  1  0
  9 36  1  0
  9 37  1  0
 10 38  1  0
 10 39  1  0
 11 40  1  1
 12 41  1  0
 12 42  1  0
 15 43  1  0
 16 44  1  0
 17 45  1  0
 18 46  1  0
 19 47  1  0
 21 48  1  0
 22 49  1  0
 24 50  1  0
 27 51  1  0
 28 52  1  0
M  END
>  <smiles>  (8) 
O=C(NCC(=O)N1CCC[C@@H]1COc1ccccc1)c1ccc2cc(F)ccc2n1

>  <score_type>  (8) 
oracle

>  <origin>  (8) 
autodockgpu

>  <m_score__min__energy>  (8) 
-8.4499999999999993

>  <m_primary>  (8) 
energy

>  <rmsd>  (8) 
9.611690843886793

>  <m_score__min__rmsd>  (8) 
9.611690843886793

>  <meeko>  (8) 
{"free_energy": -6.0, "intermolecular_energy": -8.09, "internal_energy": -3.69, "cluster_size": 1, "cluster_id": 7, "rank_in_cluster": 1}

>  <energy>  (8) 
-8.1

>  <cluster_rmsd>  (8) 
0.5

>  <cluster>  (8) 
1

$$$$

     RDKit          3D

 52 55  0  0  0  0  0  0  0  0999 V2000
  139.9500   73.7400  222.7110 O   0  0  0  0  0  0  0  0  0  0  0  0
  140.2130   72.5260  222.4940 C   0  0  0  0  0  0  0  0  0  0  0  0
  140.5740   72.0360  221.2220 N   0  0  0  0  0  0  0  0  0  0  0  0
  140.6550   72.9500  220.1030 C   0  0  0  0  0  0  0  0  0  0  0  0
  141.8700   73.7910  220.2680 C   0  0  0  0  0  0  0  0  0  0  0  0
  143.0260   73.2600  220.2490 O   0  0  0  0  0  0  0  0  0  0  0  0
  141.6880   75.1810  220.4440 N   0  0  0  0  0  0  0  0  0  0  0  0
  142.5700   76.2860  220.0930 C   0  0  0  0  0  0  0  0  0  0  0  0
  141.6330   77.4390  219.7390 C   0  0  0  0  0  0  0  0  0  0  0  0
  140.2630   76.8750  219.9370 C   0  0  0  0  0  0  0  0  0  0  0  0
  140.5190   75.8410  221.0480 C   0  0  2  0  0  0  0  0  0  0  0  0
  140.9430   76.5470  222.3150 C   0  0  0  0  0  0  0  0  0  0  0  0
  140.4840   77.8430  222.4590 O   0  0  0  0  0  0  0  0  0  0  0  0
  141.0650   78.9830  222.8790 C   0  0  0  0  0  0  0  0  0  0  0  0
  140.4460   80.0820  223.4330 C   0  0  0  0  0  0  0  0  0  0  0  0
  141.1380   81.2060  223.8350 C   0  0  0  0  0  0  0  0  0  0  0  0
  142.4880   81.2590  223.6880 C   0  0  0  0  0  0  0  0  0  0  0  0
  143.1570   80.1890  223.1390 C   0  0  0  0  0  0  0  0  0  0  0  0
  142.4530   79.0860  222.7480 C   0  0  0  0  0  0  0  0  0  0  0  0
  140.1430   71.5640  223.6020 C   0  0  0  0  0  0  0  0  0  0  0  0
  139.5920   70.3070  223.4280 C   0  0  0  0  0  0  0  0  0  0  0  0
  139.5140   69.3830  224.4520 C   0  0  0  0  0  0  0  0  0  0  0  0
  140.0050   69.7250  225.7000 C   0  0  0  0  0  0  0  0  0  0  0  0
  139.9700   68.8770  226.7660 C   0  0  0  0  0  0  0  0  0  0  0  0
  140.4610   69.2210  228.0100 C   0  0  0  0  0  0  0  0  0  0  0  0
  140.4320   68.3890  229.0760 F   0  0  0  0  0  0  0  0  0  0  0  0
  141.0130   70.4740  228.1900 C   0  0  0  0  0  0  0  0  0  0  0  0
  141.0490   71.3360  227.1060 C   0  0  0  0  0  0  0  0  0  0  0  0
  140.5520   70.9770  225.8620 C   0  0  0  0  0  0  0  0  0  0  0  0
  140.6080   71.8500  224.8340 N   0  0  0  0  0  0  0  0  0  0  0  0
  140.7910   71.0120  221.0600 H   0  0  0  0  0  0  0  0  0  0  0  0
  140.7219   72.3815  219.1636 H   0  0  0  0  0  0  0  0  0  0  0  0
  139.7580   73.5859  220.0699 H   0  0  0  0  0  0  0  0  0  0  0  0
  143.2107   76.5557  220.9455 H   0  0  0  0  0  0  0  0  0  0  0  0
  143.2442   76.0301  219.2624 H   0  0  0  0  0  0  0  0  0  0  0  0
  141.8014   78.2971  220.4064 H   0  0  0  0  0  0  0  0  0  0  0  0
  141.7910   77.8102  218.7157 H   0  0  0  0  0  0  0  0  0  0  0  0
  139.5525   77.6488  220.2632 H   0  0  0  0  0  0  0  0  0  0  0  0
  139.8135   76.4542  219.0255 H   0  0  0  0  0  0  0  0  0  0  0  0
  139.6710   75.1963  221.3222 H   0  0  0  0  0  0  0  0  0  0  0  0
  140.5737   75.9603  223.1691 H   0  0  0  0  0  0  0  0  0  0  0  0
  142.0395   76.6199  222.2663 H   0  0  0  0  0  0  0  0  0  0  0  0
  139.3536   80.0626  223.5603 H   0  0  0  0  0  0  0  0  0  0  0  0
  140.5978   82.0579  224.2738 H   0  0  0  0  0  0  0  0  0  0  0  0
  143.0436   82.1534  224.0065 H   0  0  0  0  0  0  0  0  0  0  0  0
  144.2496   80.2219  223.0162 H   0  0  0  0  0  0  0  0  0  0  0  0
  143.0032   78.2401  222.3101 H   0  0  0  0  0  0  0  0  0  0  0  0
  139.2013   70.0330  222.4369 H   0  0  0  0  0  0  0  0  0  0  0  0
  139.0691   68.3921  224.2784 H   0  0  0  0  0  0  0  0  0  0  0  0
  139.5325   67.8770  226.6300 H   0  0  0  0  0  0  0  0  0  0  0  0
  141.4134   70.7795  229.1679 H   0  0  0  0  0  0  0  0  0  0  0  0
  141.4857   72.3372  227.2362 H   0  0  0  0  0  0  0  0  0  0  0  0
  1  2  2  0
  2  3  1  0
  3  4  1  0
  4  5  1  0
  5  6  2  0
  5  7  1  0
  7  8  1  0
  8  9  1  0
  9 10  1  0
 10 11  1  0
 11 12  1  0
 12 13  1  0
 13 14  1  0
 14 15  2  0
 15 16  1  0
 16 17  2  0
 17 18  1  0
 18 19  2  0
  2 20  1  0
 20 21  2  0
 21 22  1  0
 22 23  2  0
 23 24  1  0
 24 25  2  0
 25 26  1  0
 25 27  1  0
 27 28  2  0
 28 29  1  0
 29 30  2  0
 11  7  1  0
 19 14  1  0
 30 20  1  0
 29 23  1  0
  3 31  1  0
  4 32  1  0
  4 33  1  0
  8 34  1  0
  8 35  1  0
  9 36  1  0
  9 37  1  0
 10 38  1  0
 10 39  1  0
 11 40  1  1
 12 41  1  0
 12 42  1  0
 15 43  1  0
 16 44  1  0
 17 45  1  0
 18 46  1  0
 19 47  1  0
 21 48  1  0
 22 49  1  0
 24 50  1  0
 27 51  1  0
 28 52  1  0
M  END
>  <smiles>  (9) 
O=C(NCC(=O)N1CCC[C@@H]1COc1ccccc1)c1ccc2cc(F)ccc2n1

>  <score_type>  (9) 
oracle

>  <origin>  (9) 
autodockgpu

>  <m_score__min__energy>  (9) 
-8.4499999999999993

>  <m_primary>  (9) 
energy

>  <rmsd>  (9) 
2.3933647741533846

>  <m_score__min__rmsd>  (9) 
2.3933647741533846

>  <meeko>  (9) 
{"free_energy": -8.43, "intermolecular_energy": -10.52, "internal_energy": -1.46, "cluster_size": 22, "cluster_id": 1, "rank_in_cluster": 2}

>  <energy>  (9) 
-8.07

>  <cluster_rmsd>  (9) 
0.74

>  <cluster>  (9) 
1

$$$$

     RDKit          3D

 52 55  0  0  0  0  0  0  0  0999 V2000
  140.6430   71.9760  221.1280 O   0  0  0  0  0  0  0  0  0  0  0  0
  139.9900   72.3320  222.1450 C   0  0  0  0  0  0  0  0  0  0  0  0
  139.2510   73.5310  222.2020 N   0  0  0  0  0  0  0  0  0  0  0  0
  139.2260   74.4070  221.0500 C   0  0  0  0  0  0  0  0  0  0  0  0
  139.2350   75.8150  221.5290 C   0  0  0  0  0  0  0  0  0  0  0  0
  138.5040   76.1650  222.5090 O   0  0  0  0  0  0  0  0  0  0  0  0
  140.0750   76.7320  220.8580 N   0  0  0  0  0  0  0  0  0  0  0  0
  139.8000   77.5700  219.6990 C   0  0  0  0  0  0  0  0  0  0  0  0
  140.6350   78.8300  219.9180 C   0  0  0  0  0  0  0  0  0  0  0  0
  141.3410   78.5840  221.2120 C   0  0  0  0  0  0  0  0  0  0  0  0
  141.4710   77.0500  221.1990 C   0  0  2  0  0  0  0  0  0  0  0  0
  142.3730   76.6240  220.0640 C   0  0  0  0  0  0  0  0  0  0  0  0
  142.5170   75.2600  219.8960 O   0  0  0  0  0  0  0  0  0  0  0  0
  143.4810   74.3870  220.2470 C   0  0  0  0  0  0  0  0  0  0  0  0
  143.3580   73.0250  220.4110 C   0  0  0  0  0  0  0  0  0  0  0  0
  144.4160   72.2160  220.7730 C   0  0  0  0  0  0  0  0  0  0  0  0
  145.6430   72.7600  220.9840 C   0  0  0  0  0  0  0  0  0  0  0  0
  145.8220   74.1160  220.8350 C   0  0  0  0  0  0  0  0  0  0  0  0
  144.7620   74.8990  220.4760 C   0  0  0  0  0  0  0  0  0  0  0  0
  139.9880   71.4730  223.3370 C   0  0  0  0  0  0  0  0  0  0  0  0
  139.4900   70.1830  223.2920 C   0  0  0  0  0  0  0  0  0  0  0  0
  139.4760   69.3540  224.3960 C   0  0  0  0  0  0  0  0  0  0  0  0
  139.9800   69.8290  225.5960 C   0  0  0  0  0  0  0  0  0  0  0  0
  140.0060   69.0810  226.7340 C   0  0  0  0  0  0  0  0  0  0  0  0
  140.5080   69.5570  227.9290 C   0  0  0  0  0  0  0  0  0  0  0  0
  140.5400   68.8260  229.0660 F   0  0  0  0  0  0  0  0  0  0  0  0
  141.0070   70.8440  227.9810 C   0  0  0  0  0  0  0  0  0  0  0  0
  140.9810   71.6050  226.8230 C   0  0  0  0  0  0  0  0  0  0  0  0
  140.4730   71.1120  225.6300 C   0  0  0  0  0  0  0  0  0  0  0  0
  140.4670   71.8890  224.5260 N   0  0  0  0  0  0  0  0  0  0  0  0
  138.7090   73.8130  223.0670 H   0  0  0  0  0  0  0  0  0  0  0  0
  140.1113   74.2222  220.4238 H   0  0  0  0  0  0  0  0  0  0  0  0
  138.3227   74.2177  220.4515 H   0  0  0  0  0  0  0  0  0  0  0  0
  140.1036   77.0607  218.7725 H   0  0  0  0  0  0  0  0  0  0  0  0
  138.7284   77.7961  219.5964 H   0  0  0  0  0  0  0  0  0  0  0  0
  141.3573   78.9661  219.0996 H   0  0  0  0  0  0  0  0  0  0  0  0
  140.0212   79.7426  219.9407 H   0  0  0  0  0  0  0  0  0  0  0  0
  142.3270   79.0714  221.2316 H   0  0  0  0  0  0  0  0  0  0  0  0
  140.8180   78.9839  222.0932 H   0  0  0  0  0  0  0  0  0  0  0  0
  141.8781   76.5846  222.1088 H   0  0  0  0  0  0  0  0  0  0  0  0
  141.9624   77.0384  219.1315 H   0  0  0  0  0  0  0  0  0  0  0  0
  143.3741   77.0036  220.3163 H   0  0  0  0  0  0  0  0  0  0  0  0
  142.3739   72.5620  220.2463 H   0  0  0  0  0  0  0  0  0  0  0  0
  144.2661   71.1326  220.8905 H   0  0  0  0  0  0  0  0  0  0  0  0
  146.4893   72.1193  221.2726 H   0  0  0  0  0  0  0  0  0  0  0  0
  146.8114   74.5662  221.0038 H   0  0  0  0  0  0  0  0  0  0  0  0
  144.9232   75.9811  220.3619 H   0  0  0  0  0  0  0  0  0  0  0  0
  139.0899   69.8033  222.3403 H   0  0  0  0  0  0  0  0  0  0  0  0
  139.0715   68.3336  224.3241 H   0  0  0  0  0  0  0  0  0  0  0  0
  139.6107   68.0551  226.6996 H   0  0  0  0  0  0  0  0  0  0  0  0
  141.4143   71.2541  228.9169 H   0  0  0  0  0  0  0  0  0  0  0  0
  141.3753   72.6315  226.8507 H   0  0  0  0  0  0  0  0  0  0  0  0
  1  2  2  0
  2  3  1  0
  3  4  1  0
  4  5  1  0
  5  6  2  0
  5  7  1  0
  7  8  1  0
  8  9  1  0
  9 10  1  0
 10 11  1  0
 11 12  1  0
 12 13  1  0
 13 14  1  0
 14 15  2  0
 15 16  1  0
 16 17  2  0
 17 18  1  0
 18 19  2  0
  2 20  1  0
 20 21  2  0
 21 22  1  0
 22 23  2  0
 23 24  1  0
 24 25  2  0
 25 26  1  0
 25 27  1  0
 27 28  2  0
 28 29  1  0
 29 30  2  0
 11  7  1  0
 19 14  1  0
 30 20  1  0
 29 23  1  0
  3 31  1  0
  4 32  1  0
  4 33  1  0
  8 34  1  0
  8 35  1  0
  9 36  1  0
  9 37  1  0
 10 38  1  0
 10 39  1  0
 11 40  1  1
 12 41  1  0
 12 42  1  0
 15 43  1  0
 16 44  1  0
 17 45  1  0
 18 46  1  0
 19 47  1  0
 21 48  1  0
 22 49  1  0
 24 50  1  0
 27 51  1  0
 28 52  1  0
M  END
>  <smiles>  (10) 
O=C(NCC(=O)N1CCC[C@@H]1COc1ccccc1)c1ccc2cc(F)ccc2n1

>  <score_type>  (10) 
oracle

>  <origin>  (10) 
autodockgpu

>  <m_score__min__energy>  (10) 
-8.4499999999999993

>  <m_primary>  (10) 
energy

>  <rmsd>  (10) 
2.0028559722258494

>  <m_score__min__rmsd>  (10) 
2.0028559722258494

>  <meeko>  (10) 
{"free_energy": -7.83, "intermolecular_energy": -9.92, "internal_energy": -2.07, "cluster_size": 9, "cluster_id": 4, "rank_in_cluster": 1}

>  <energy>  (10) 
-8.06

>  <cluster_rmsd>  (10) 
0.74

>  <cluster>  (10) 
1

$$$$

     RDKit          3D

 52 55  0  0  0  0  0  0  0  0999 V2000
  140.0470   71.5020  220.8740 O   0  0  0  0  0  0  0  0  0  0  0  0
  139.9400   72.0850  221.9870 C   0  0  0  0  0  0  0  0  0  0  0  0
  139.8630   73.4870  222.1130 N   0  0  0  0  0  0  0  0  0  0  0  0
  139.9050   74.3130  220.9260 C   0  0  0  0  0  0  0  0  0  0  0  0
  140.6920   75.5380  221.2310 C   0  0  0  0  0  0  0  0  0  0  0  0
  141.0720   75.7770  222.4210 O   0  0  0  0  0  0  0  0  0  0  0  0
  140.9930   76.4100  220.1600 N   0  0  0  0  0  0  0  0  0  0  0  0
  140.2180   76.7170  218.9660 C   0  0  0  0  0  0  0  0  0  0  0  0
  140.5490   78.1740  218.6480 C   0  0  0  0  0  0  0  0  0  0  0  0
  141.5180   78.5730  219.7130 C   0  0  0  0  0  0  0  0  0  0  0  0
  142.2060   77.2300  220.0150 C   0  0  2  0  0  0  0  0  0  0  0  0
  142.9790   76.7670  218.8010 C   0  0  0  0  0  0  0  0  0  0  0  0
  143.1270   75.3990  218.6740 O   0  0  0  0  0  0  0  0  0  0  0  0
  143.6220   74.4480  219.4880 C   0  0  0  0  0  0  0  0  0  0  0  0
  144.7980   74.4880  220.2030 C   0  0  0  0  0  0  0  0  0  0  0  0
  145.2160   73.4530  221.0150 C   0  0  0  0  0  0  0  0  0  0  0  0
  144.4540   72.3340  221.1320 C   0  0  0  0  0  0  0  0  0  0  0  0
  143.2690   72.2400  220.4390 C   0  0  0  0  0  0  0  0  0  0  0  0
  142.8740   73.2770  219.6400 C   0  0  0  0  0  0  0  0  0  0  0  0
  139.8940   71.2850  223.2180 C   0  0  0  0  0  0  0  0  0  0  0  0
  139.3820   70.0000  223.2210 C   0  0  0  0  0  0  0  0  0  0  0  0
  139.3270   69.2260  224.3630 C   0  0  0  0  0  0  0  0  0  0  0  0
  139.8010   69.7530  225.5520 C   0  0  0  0  0  0  0  0  0  0  0  0
  139.7860   69.0620  226.7260 C   0  0  0  0  0  0  0  0  0  0  0  0
  140.2580   69.5900  227.9100 C   0  0  0  0  0  0  0  0  0  0  0  0
  140.2490   68.9150  229.0820 F   0  0  0  0  0  0  0  0  0  0  0  0
  140.7700   70.8730  227.9150 C   0  0  0  0  0  0  0  0  0  0  0  0
  140.7860   71.5770  226.7210 C   0  0  0  0  0  0  0  0  0  0  0  0
  140.3080   71.0320  225.5390 C   0  0  0  0  0  0  0  0  0  0  0  0
  140.3430   71.7540  224.3990 N   0  0  0  0  0  0  0  0  0  0  0  0
  139.7750   73.9580  223.0580 H   0  0  0  0  0  0  0  0  0  0  0  0
  140.3840   73.7590  220.1052 H   0  0  0  0  0  0  0  0  0  0  0  0
  138.8842   74.5870  220.6212 H   0  0  0  0  0  0  0  0  0  0  0  0
  140.5139   76.0620  218.1333 H   0  0  0  0  0  0  0  0  0  0  0  0
  139.1401   76.5608  219.1198 H   0  0  0  0  0  0  0  0  0  0  0  0
  141.0072   78.2611  217.6517 H   0  0  0  0  0  0  0  0  0  0  0  0
  139.6548   78.8144  218.6319 H   0  0  0  0  0  0  0  0  0  0  0  0
  142.2368   79.3194  219.3440 H   0  0  0  0  0  0  0  0  0  0  0  0
  141.0529   79.0475  220.5897 H   0  0  0  0  0  0  0  0  0  0  0  0
  142.9155   77.2215  220.8556 H   0  0  0  0  0  0  0  0  0  0  0  0
  142.4563   77.1355  217.9060 H   0  0  0  0  0  0  0  0  0  0  0  0
  143.9956   77.1702  218.9195 H   0  0  0  0  0  0  0  0  0  0  0  0
  145.4318   75.3835  220.1237 H   0  0  0  0  0  0  0  0  0  0  0  0
  146.1644   73.5339  221.5664 H   0  0  0  0  0  0  0  0  0  0  0  0
  144.7831   71.5068  221.7780 H   0  0  0  0  0  0  0  0  0  0  0  0
  142.6449   71.3385  220.5270 H   0  0  0  0  0  0  0  0  0  0  0  0
  141.9246   73.1855  219.0920 H   0  0  0  0  0  0  0  0  0  0  0  0
  139.0043   69.5788  222.2776 H   0  0  0  0  0  0  0  0  0  0  0  0
  138.9133   68.2073  224.3286 H   0  0  0  0  0  0  0  0  0  0  0  0
  139.3803   68.0396  226.7301 H   0  0  0  0  0  0  0  0  0  0  0  0
  141.1547   71.3239  228.8416 H   0  0  0  0  0  0  0  0  0  0  0  0
  141.1905   72.5999  226.7109 H   0  0  0  0  0  0  0  0  0  0  0  0
  1  2  2  0
  2  3  1  0
  3  4  1  0
  4  5  1  0
  5  6  2  0
  5  7  1  0
  7  8  1  0
  8  9  1  0
  9 10  1  0
 10 11  1  0
 11 12  1  0
 12 13  1  0
 13 14  1  0
 14 15  2  0
 15 16  1  0
 16 17  2  0
 17 18  1  0
 18 19  2  0
  2 20  1  0
 20 21  2  0
 21 22  1  0
 22 23  2  0
 23 24  1  0
 24 25  2  0
 25 26  1  0
 25 27  1  0
 27 28  2  0
 28 29  1  0
 29 30  2  0
 11  7  1  0
 19 14  1  0
 30 20  1  0
 29 23  1  0
  3 31  1  0
  4 32  1  0
  4 33  1  0
  8 34  1  0
  8 35  1  0
  9 36  1  0
  9 37  1  0
 10 38  1  0
 10 39  1  0
 11 40  1  1
 12 41  1  0
 12 42  1  0
 15 43  1  0
 16 44  1  0
 17 45  1  0
 18 46  1  0
 19 47  1  0
 21 48  1  0
 22 49  1  0
 24 50  1  0
 27 51  1  0
 28 52  1  0
M  END
>  <smiles>  (11) 
O=C(NCC(=O)N1CCC[C@@H]1COc1ccccc1)c1ccc2cc(F)ccc2n1

>  <score_type>  (11) 
oracle

>  <origin>  (11) 
autodockgpu

>  <m_score__min__energy>  (11) 
-8.4499999999999993

>  <m_primary>  (11) 
energy

>  <rmsd>  (11) 
1.6036683091829789

>  <m_score__min__rmsd>  (11) 
1.6036683091829789

>  <meeko>  (11) 
{"free_energy": -7.12, "intermolecular_energy": -9.21, "internal_energy": -2.7, "cluster_size": 9, "cluster_id": 4, "rank_in_cluster": 9}

>  <energy>  (11) 
-8.05

>  <cluster_rmsd>  (11) 
0.74

>  <cluster>  (11) 
1

$$$$

     RDKit          3D

 52 55  0  0  0  0  0  0  0  0999 V2000
  140.4320   71.5660  220.9540 O   0  0  0  0  0  0  0  0  0  0  0  0
  140.1000   72.1340  222.0290 C   0  0  0  0  0  0  0  0  0  0  0  0
  139.8490   73.5180  222.1200 N   0  0  0  0  0  0  0  0  0  0  0  0
  139.9720   74.3430  220.9370 C   0  0  0  0  0  0  0  0  0  0  0  0
  140.5540   75.6520  221.3340 C   0  0  0  0  0  0  0  0  0  0  0  0
  140.5120   76.0330  222.5470 O   0  0  0  0  0  0  0  0  0  0  0  0
  141.1450   76.4430  220.3220 N   0  0  0  0  0  0  0  0  0  0  0  0
  142.5470   76.7700  220.0970 C   0  0  0  0  0  0  0  0  0  0  0  0
  142.6820   76.8910  218.5810 C   0  0  0  0  0  0  0  0  0  0  0  0
  141.3050   76.6280  218.0640 C   0  0  0  0  0  0  0  0  0  0  0  0
  140.4410   77.1370  219.2320 C   0  0  2  0  0  0  0  0  0  0  0  0
  140.6250   78.6290  219.3890 C   0  0  0  0  0  0  0  0  0  0  0  0
  140.2710   79.1470  220.6210 O   0  0  0  0  0  0  0  0  0  0  0  0
  140.9660   79.4020  221.7460 C   0  0  0  0  0  0  0  0  0  0  0  0
  140.6870   78.9600  223.0200 C   0  0  0  0  0  0  0  0  0  0  0  0
  141.4690   79.2800  224.1110 C   0  0  0  0  0  0  0  0  0  0  0  0
  142.5670   80.0640  223.9500 C   0  0  0  0  0  0  0  0  0  0  0  0
  142.8920   80.5350  222.6990 C   0  0  0  0  0  0  0  0  0  0  0  0
  142.1040   80.2060  221.6320 C   0  0  0  0  0  0  0  0  0  0  0  0
  139.9640   71.3340  223.2540 C   0  0  0  0  0  0  0  0  0  0  0  0
  139.3270   70.1060  223.2440 C   0  0  0  0  0  0  0  0  0  0  0  0
  139.1850   69.3340  224.3800 C   0  0  0  0  0  0  0  0  0  0  0  0
  139.6990   69.8040  225.5770 C   0  0  0  0  0  0  0  0  0  0  0  0
  139.6050   69.1100  226.7450 C   0  0  0  0  0  0  0  0  0  0  0  0
  140.1170   69.5820  227.9370 C   0  0  0  0  0  0  0  0  0  0  0  0
  140.0300   68.9040  229.1040 F   0  0  0  0  0  0  0  0  0  0  0  0
  140.7540   70.8070  227.9550 C   0  0  0  0  0  0  0  0  0  0  0  0
  140.8500   71.5140  226.7670 C   0  0  0  0  0  0  0  0  0  0  0  0
  140.3300   71.0270  225.5770 C   0  0  0  0  0  0  0  0  0  0  0  0
  140.4470   71.7490  224.4420 N   0  0  0  0  0  0  0  0  0  0  0  0
  139.5720   73.9770  223.0330 H   0  0  0  0  0  0  0  0  0  0  0  0
  140.6311   73.8497  220.2074 H   0  0  0  0  0  0  0  0  0  0  0  0
  138.9839   74.4933  220.4776 H   0  0  0  0  0  0  0  0  0  0  0  0
  142.8063   77.7206  220.5860 H   0  0  0  0  0  0  0  0  0  0  0  0
  143.2226   76.0087  220.5141 H   0  0  0  0  0  0  0  0  0  0  0  0
  143.0176   77.8999  218.2992 H   0  0  0  0  0  0  0  0  0  0  0  0
  143.4254   76.1928  218.1688 H   0  0  0  0  0  0  0  0  0  0  0  0
  141.1069   77.1925  217.1409 H   0  0  0  0  0  0  0  0  0  0  0  0
  141.1195   75.5787  217.7908 H   0  0  0  0  0  0  0  0  0  0  0  0
  139.3576   76.9646  219.1519 H   0  0  0  0  0  0  0  0  0  0  0  0
  141.6868   78.8592  219.2173 H   0  0  0  0  0  0  0  0  0  0  0  0
  139.9460   79.0949  218.6597 H   0  0  0  0  0  0  0  0  0  0  0  0
  139.8026   78.3244  223.1747 H   0  0  0  0  0  0  0  0  0  0  0  0
  141.2040   78.9011  225.1091 H   0  0  0  0  0  0  0  0  0  0  0  0
  143.1937   80.3211  224.8167 H   0  0  0  0  0  0  0  0  0  0  0  0
  143.7785   81.1710  222.5587 H   0  0  0  0  0  0  0  0  0  0  0  0
  142.3775   80.5912  220.6386 H   0  0  0  0  0  0  0  0  0  0  0  0
  138.9179   69.7301  222.2946 H   0  0  0  0  0  0  0  0  0  0  0  0
  138.6722   68.3619  224.3350 H   0  0  0  0  0  0  0  0  0  0  0  0
  139.1001   68.1327  226.7383 H   0  0  0  0  0  0  0  0  0  0  0  0
  141.1742   71.2110  228.8878 H   0  0  0  0  0  0  0  0  0  0  0  0
  141.3542   72.4916  226.7678 H   0  0  0  0  0  0  0  0  0  0  0  0
  1  2  2  0
  2  3  1  0
  3  4  1  0
  4  5  1  0
  5  6  2  0
  5  7  1  0
  7  8  1  0
  8  9  1  0
  9 10  1  0
 10 11  1  0
 11 12  1  0
 12 13  1  0
 13 14  1  0
 14 15  2  0
 15 16  1  0
 16 17  2  0
 17 18  1  0
 18 19  2  0
  2 20  1  0
 20 21  2  0
 21 22  1  0
 22 23  2  0
 23 24  1  0
 24 25  2  0
 25 26  1  0
 25 27  1  0
 27 28  2  0
 28 29  1  0
 29 30  2  0
 11  7  1  0
 19 14  1  0
 30 20  1  0
 29 23  1  0
  3 31  1  0
  4 32  1  0
  4 33  1  0
  8 34  1  0
  8 35  1  0
  9 36  1  0
  9 37  1  0
 10 38  1  0
 10 39  1  0
 11 40  1  6
 12 41  1  0
 12 42  1  0
 15 43  1  0
 16 44  1  0
 17 45  1  0
 18 46  1  0
 19 47  1  0
 21 48  1  0
 22 49  1  0
 24 50  1  0
 27 51  1  0
 28 52  1  0
M  END
>  <smiles>  (12) 
O=C(NCC(=O)N1CCC[C@@H]1COc1ccccc1)c1ccc2cc(F)ccc2n1

>  <score_type>  (12) 
oracle

>  <origin>  (12) 
autodockgpu

>  <m_score__min__energy>  (12) 
-8.4499999999999993

>  <m_primary>  (12) 
energy

>  <rmsd>  (12) 
2.0279380427975853

>  <m_score__min__rmsd>  (12) 
2.0279380427975853

>  <meeko>  (12) 
{"free_energy": -8.07, "intermolecular_energy": -10.16, "internal_energy": -2.22, "cluster_size": 22, "cluster_id": 1, "rank_in_cluster": 9}

>  <energy>  (12) 
-8.03

>  <cluster_rmsd>  (12) 
0.73

>  <cluster>  (12) 
1

$$$$

     RDKit          3D

 52 55  0  0  0  0  0  0  0  0999 V2000
  139.8000   71.3340  221.0130 O   0  0  0  0  0  0  0  0  0  0  0  0
  139.7300   71.8880  222.1430 C   0  0  0  0  0  0  0  0  0  0  0  0
  139.6280   73.2840  222.3080 N   0  0  0  0  0  0  0  0  0  0  0  0
  139.6000   74.1390  221.1410 C   0  0  0  0  0  0  0  0  0  0  0  0
  140.0790   75.4910  221.5350 C   0  0  0  0  0  0  0  0  0  0  0  0
  139.8710   75.9290  222.7110 O   0  0  0  0  0  0  0  0  0  0  0  0
  140.7630   76.2550  220.5620 N   0  0  0  0  0  0  0  0  0  0  0  0
  142.1810   76.5690  220.4550 C   0  0  0  0  0  0  0  0  0  0  0  0
  142.4500   76.6560  218.9530 C   0  0  0  0  0  0  0  0  0  0  0  0
  141.1220   76.3900  218.3240 C   0  0  0  0  0  0  0  0  0  0  0  0
  140.1630   76.9300  219.4000 C   0  0  2  0  0  0  0  0  0  0  0  0
  140.3440   78.4240  219.5410 C   0  0  0  0  0  0  0  0  0  0  0  0
  140.1360   78.9330  220.8090 O   0  0  0  0  0  0  0  0  0  0  0  0
  140.9680   79.3880  221.7660 C   0  0  0  0  0  0  0  0  0  0  0  0
  141.7940   80.4880  221.7020 C   0  0  0  0  0  0  0  0  0  0  0  0
  142.6110   80.8720  222.7460 C   0  0  0  0  0  0  0  0  0  0  0  0
  142.6210   80.1510  223.8970 C   0  0  0  0  0  0  0  0  0  0  0  0
  141.8160   79.0410  224.0150 C   0  0  0  0  0  0  0  0  0  0  0  0
  141.0150   78.6790  222.9690 C   0  0  0  0  0  0  0  0  0  0  0  0
  139.7550   71.0580  223.3550 C   0  0  0  0  0  0  0  0  0  0  0  0
  139.2400   69.7740  223.3580 C   0  0  0  0  0  0  0  0  0  0  0  0
  139.2510   68.9720  224.4820 C   0  0  0  0  0  0  0  0  0  0  0  0
  139.7980   69.4690  225.6530 C   0  0  0  0  0  0  0  0  0  0  0  0
  139.8510   68.7490  226.8080 C   0  0  0  0  0  0  0  0  0  0  0  0
  140.3970   69.2470  227.9740 C   0  0  0  0  0  0  0  0  0  0  0  0
  140.4550   68.5440  229.1270 F   0  0  0  0  0  0  0  0  0  0  0  0
  140.9130   70.5280  227.9790 C   0  0  0  0  0  0  0  0  0  0  0  0
  140.8590   71.2610  226.8040 C   0  0  0  0  0  0  0  0  0  0  0  0
  140.3080   70.7470  225.6400 C   0  0  0  0  0  0  0  0  0  0  0  0
  140.2770   71.4970  224.5180 N   0  0  0  0  0  0  0  0  0  0  0  0
  139.5710   73.7310  223.2670 H   0  0  0  0  0  0  0  0  0  0  0  0
  140.2570   73.7251  220.3619 H   0  0  0  0  0  0  0  0  0  0  0  0
  138.5758   74.2026  220.7448 H   0  0  0  0  0  0  0  0  0  0  0  0
  142.4033   77.5286  220.9446 H   0  0  0  0  0  0  0  0  0  0  0  0
  142.8116   75.8134  220.9464 H   0  0  0  0  0  0  0  0  0  0  0  0
  142.8169   77.6565  218.6802 H   0  0  0  0  0  0  0  0  0  0  0  0
  143.2214   75.9449  218.6225 H   0  0  0  0  0  0  0  0  0  0  0  0
  141.0099   76.9349  217.3750 H   0  0  0  0  0  0  0  0  0  0  0  0
  140.9529   75.3359  218.0589 H   0  0  0  0  0  0  0  0  0  0  0  0
  139.0894   76.7630  219.2285 H   0  0  0  0  0  0  0  0  0  0  0  0
  141.3736   78.6700  219.2421 H   0  0  0  0  0  0  0  0  0  0  0  0
  139.5744   78.8823  218.9025 H   0  0  0  0  0  0  0  0  0  0  0  0
  141.8031   81.0864  220.7790 H   0  0  0  0  0  0  0  0  0  0  0  0
  143.2525   81.7599  222.6461 H   0  0  0  0  0  0  0  0  0  0  0  0
  143.2703   80.4532  224.7320 H   0  0  0  0  0  0  0  0  0  0  0  0
  141.8174   78.4506  224.9431 H   0  0  0  0  0  0  0  0  0  0  0  0
  140.3782   77.7889  223.0790 H   0  0  0  0  0  0  0  0  0  0  0  0
  138.8050   69.3766  222.4291 H   0  0  0  0  0  0  0  0  0  0  0  0
  138.8323   67.9554  224.4477 H   0  0  0  0  0  0  0  0  0  0  0  0
  139.4416   67.7280  226.8118 H   0  0  0  0  0  0  0  0  0  0  0  0
  141.3550   70.9552  228.8912 H   0  0  0  0  0  0  0  0  0  0  0  0
  141.2661   72.2828  226.7945 H   0  0  0  0  0  0  0  0  0  0  0  0
  1  2  2  0
  2  3  1  0
  3  4  1  0
  4  5  1  0
  5  6  2  0
  5  7  1  0
  7  8  1  0
  8  9  1  0
  9 10  1  0
 10 11  1  0
 11 12  1  0
 12 13  1  0
 13 14  1  0
 14 15  2  0
 15 16  1  0
 16 17  2  0
 17 18  1  0
 18 19  2  0
  2 20  1  0
 20 21  2  0
 21 22  1  0
 22 23  2  0
 23 24  1  0
 24 25  2  0
 25 26  1  0
 25 27  1  0
 27 28  2  0
 28 29  1  0
 29 30  2  0
 11  7  1  0
 19 14  1  0
 30 20  1  0
 29 23  1  0
  3 31  1  0
  4 32  1  0
  4 33  1  0
  8 34  1  0
  8 35  1  0
  9 36  1  0
  9 37  1  0
 10 38  1  0
 10 39  1  0
 11 40  1  6
 12 41  1  0
 12 42  1  0
 15 43  1  0
 16 44  1  0
 17 45  1  0
 18 46  1  0
 19 47  1  0
 21 48  1  0
 22 49  1  0
 24 50  1  0
 27 51  1  0
 28 52  1  0
M  END
>  <smiles>  (13) 
O=C(NCC(=O)N1CCC[C@@H]1COc1ccccc1)c1ccc2cc(F)ccc2n1

>  <score_type>  (13) 
oracle

>  <origin>  (13) 
autodockgpu

>  <m_score__min__energy>  (13) 
-8.4499999999999993

>  <m_primary>  (13) 
energy

>  <rmsd>  (13) 
1.8732215061704551

>  <m_score__min__rmsd>  (13) 
1.8732215061704551

>  <meeko>  (13) 
{"free_energy": -7.99, "intermolecular_energy": -10.07, "internal_energy": -2.25, "cluster_size": 22, "cluster_id": 1, "rank_in_cluster": 15}

>  <energy>  (13) 
-8.01

>  <cluster_rmsd>  (13) 
0.88

>  <cluster>  (13) 
1

$$$$

     RDKit          3D

 52 55  0  0  0  0  0  0  0  0999 V2000
  140.7170   73.3380  222.3370 O   0  0  0  0  0  0  0  0  0  0  0  0
  139.8360   72.4390  222.4050 C   0  0  0  0  0  0  0  0  0  0  0  0
  138.8330   72.2720  221.4290 N   0  0  0  0  0  0  0  0  0  0  0  0
  138.7950   73.1610  220.2880 C   0  0  0  0  0  0  0  0  0  0  0  0
  137.6690   74.1150  220.4700 C   0  0  0  0  0  0  0  0  0  0  0  0
  136.4940   73.8010  220.0980 O   0  0  0  0  0  0  0  0  0  0  0  0
  137.9560   75.3650  221.0650 N   0  0  0  0  0  0  0  0  0  0  0  0
  137.5210   76.7000  220.6770 C   0  0  0  0  0  0  0  0  0  0  0  0
  137.4050   77.4710  221.9910 C   0  0  0  0  0  0  0  0  0  0  0  0
  137.8080   76.4820  223.0360 C   0  0  0  0  0  0  0  0  0  0  0  0
  138.7940   75.5970  222.2520 C   0  0  2  0  0  0  0  0  0  0  0  0
  140.0050   76.4100  221.8570 C   0  0  0  0  0  0  0  0  0  0  0  0
  140.4340   77.3340  222.7900 O   0  0  0  0  0  0  0  0  0  0  0  0
  141.1220   78.4880  222.6930 C   0  0  0  0  0  0  0  0  0  0  0  0
  141.3450   79.2360  221.5580 C   0  0  0  0  0  0  0  0  0  0  0  0
  142.0670   80.4120  221.5670 C   0  0  0  0  0  0  0  0  0  0  0  0
  142.5920   80.8750  222.7320 C   0  0  0  0  0  0  0  0  0  0  0  0
  142.4010   80.1670  223.8960 C   0  0  0  0  0  0  0  0  0  0  0  0
  141.6830   79.0040  223.8640 C   0  0  0  0  0  0  0  0  0  0  0  0
  139.8370   71.5150  223.5470 C   0  0  0  0  0  0  0  0  0  0  0  0
  139.2680   70.2580  223.4550 C   0  0  0  0  0  0  0  0  0  0  0  0
  139.2550   69.3690  224.5120 C   0  0  0  0  0  0  0  0  0  0  0  0
  139.8340   69.7480  225.7110 C   0  0  0  0  0  0  0  0  0  0  0  0
  139.8670   68.9370  226.8050 C   0  0  0  0  0  0  0  0  0  0  0  0
  140.4440   69.3170  228.0000 C   0  0  0  0  0  0  0  0  0  0  0  0
  140.4830   68.5220  229.0930 F   0  0  0  0  0  0  0  0  0  0  0  0
  141.0140   70.5710  228.1000 C   0  0  0  0  0  0  0  0  0  0  0  0
  140.9800   71.3970  226.9870 C   0  0  0  0  0  0  0  0  0  0  0  0
  140.3970   71.0000  225.7930 C   0  0  0  0  0  0  0  0  0  0  0  0
  140.3880   71.8380  224.7350 N   0  0  0  0  0  0  0  0  0  0  0  0
  138.1000   71.5110  221.5060 H   0  0  0  0  0  0  0  0  0  0  0  0
  139.7428   73.7149  220.2175 H   0  0  0  0  0  0  0  0  0  0  0  0
  138.6524   72.5818  219.3637 H   0  0  0  0  0  0  0  0  0  0  0  0
  138.2622   77.1718  220.0152 H   0  0  0  0  0  0  0  0  0  0  0  0
  136.5718   76.6819  220.1214 H   0  0  0  0  0  0  0  0  0  0  0  0
  138.0808   78.3389  221.9945 H   0  0  0  0  0  0  0  0  0  0  0  0
  136.3930   77.8690  222.1569 H   0  0  0  0  0  0  0  0  0  0  0  0
  138.2993   76.9746  223.8880 H   0  0  0  0  0  0  0  0  0  0  0  0
  136.9668   75.9316  223.4827 H   0  0  0  0  0  0  0  0  0  0  0  0
  139.1750   74.7063  222.7731 H   0  0  0  0  0  0  0  0  0  0  0  0
  140.8336   75.7121  221.6662 H   0  0  0  0  0  0  0  0  0  0  0  0
  139.7016   76.9923  220.9744 H   0  0  0  0  0  0  0  0  0  0  0  0
  140.9297   78.8806  220.6034 H   0  0  0  0  0  0  0  0  0  0  0  0
  142.2173   80.9736  220.6332 H   0  0  0  0  0  0  0  0  0  0  0  0
  143.1675   81.8124  222.7441 H   0  0  0  0  0  0  0  0  0  0  0  0
  142.8222   80.5333  224.8439 H   0  0  0  0  0  0  0  0  0  0  0  0
  141.5405   78.4491  224.8031 H   0  0  0  0  0  0  0  0  0  0  0  0
  138.8079   69.9543  222.5031 H   0  0  0  0  0  0  0  0  0  0  0  0
  138.7925   68.3769  224.4030 H   0  0  0  0  0  0  0  0  0  0  0  0
  139.4147   67.9369  226.7331 H   0  0  0  0  0  0  0  0  0  0  0  0
  141.4824   70.9054  229.0375 H   0  0  0  0  0  0  0  0  0  0  0  0
  141.4296   72.3988  227.0531 H   0  0  0  0  0  0  0  0  0  0  0  0
  1  2  2  0
  2  3  1  0
  3  4  1  0
  4  5  1  0
  5  6  2  0
  5  7  1  0
  7  8  1  0
  8  9  1  0
  9 10  1  0
 10 11  1  0
 11 12  1  0
 12 13  1  0
 13 14  1  0
 14 15  2  0
 15 16  1  0
 16 17  2  0
 17 18  1  0
 18 19  2  0
  2 20  1  0
 20 21  2  0
 21 22  1  0
 22 23  2  0
 23 24  1  0
 24 25  2  0
 25 26  1  0
 25 27  1  0
 27 28  2  0
 28 29  1  0
 29 30  2  0
 11  7  1  0
 19 14  1  0
 30 20  1  0
 29 23  1  0
  3 31  1  0
  4 32  1  0
  4 33  1  0
  8 34  1  0
  8 35  1  0
  9 36  1  0
  9 37  1  0
 10 38  1  0
 10 39  1  0
 11 40  1  1
 12 41  1  0
 12 42  1  0
 15 43  1  0
 16 44  1  0
 17 45  1  0
 18 46  1  0
 19 47  1  0
 21 48  1  0
 22 49  1  0
 24 50  1  0
 27 51  1  0
 28 52  1  0
M  END
>  <smiles>  (14) 
O=C(NCC(=O)N1CCC[C@@H]1COc1ccccc1)c1ccc2cc(F)ccc2n1

>  <score_type>  (14) 
oracle

>  <origin>  (14) 
autodockgpu

>  <m_score__min__energy>  (14) 
-8.4499999999999993

>  <m_primary>  (14) 
energy

>  <rmsd>  (14) 
2.9216007557379067

>  <m_score__min__rmsd>  (14) 
2.9216007557379067

>  <meeko>  (14) 
{"free_energy": -7.84, "intermolecular_energy": -9.93, "internal_energy": -1.53, "cluster_size": 22, "cluster_id": 1, "rank_in_cluster": 19}

>  <energy>  (14) 
-8.0

>  <cluster_rmsd>  (14) 
0.98

>  <cluster>  (14) 
1

$$$$

     RDKit          3D

 52 55  0  0  0  0  0  0  0  0999 V2000
  140.0620   71.6930  220.9630 O   0  0  0  0  0  0  0  0  0  0  0  0
  139.8950   72.2380  222.0870 C   0  0  0  0  0  0  0  0  0  0  0  0
  139.6950   73.6250  222.2440 N   0  0  0  0  0  0  0  0  0  0  0  0
  139.6760   74.4790  221.0760 C   0  0  0  0  0  0  0  0  0  0  0  0
  140.2910   75.7840  221.4370 C   0  0  0  0  0  0  0  0  0  0  0  0
  140.3900   76.1330  222.6570 O   0  0  0  0  0  0  0  0  0  0  0  0
  140.7510   76.6080  220.3840 N   0  0  0  0  0  0  0  0  0  0  0  0
  140.1570   76.8690  219.0800 C   0  0  0  0  0  0  0  0  0  0  0  0
  140.5480   78.3090  218.7530 C   0  0  0  0  0  0  0  0  0  0  0  0
  141.3630   78.7460  219.9260 C   0  0  0  0  0  0  0  0  0  0  0  0
  141.9840   77.4120  220.3780 C   0  0  2  0  0  0  0  0  0  0  0  0
  142.9130   76.8920  219.3060 C   0  0  0  0  0  0  0  0  0  0  0  0
  143.9780   76.1340  219.7550 O   0  0  0  0  0  0  0  0  0  0  0  0
  144.1010   74.8410  220.1120 C   0  0  0  0  0  0  0  0  0  0  0  0
  145.2440   74.1910  220.5190 C   0  0  0  0  0  0  0  0  0  0  0  0
  145.2610   72.8550  220.8660 C   0  0  0  0  0  0  0  0  0  0  0  0
  144.1160   72.1260  220.8110 C   0  0  0  0  0  0  0  0  0  0  0  0
  142.9440   72.7260  220.4100 C   0  0  0  0  0  0  0  0  0  0  0  0
  142.9490   74.0500  220.0710 C   0  0  0  0  0  0  0  0  0  0  0  0
  139.9060   71.4090  223.2990 C   0  0  0  0  0  0  0  0  0  0  0  0
  139.4200   70.1140  223.2880 C   0  0  0  0  0  0  0  0  0  0  0  0
  139.4190   69.3110  224.4120 C   0  0  0  0  0  0  0  0  0  0  0  0
  139.9230   69.8210  225.5970 C   0  0  0  0  0  0  0  0  0  0  0  0
  139.9610   69.1020  226.7540 C   0  0  0  0  0  0  0  0  0  0  0  0
  140.4640   69.6110  227.9340 C   0  0  0  0  0  0  0  0  0  0  0  0
  140.5070   68.9090  229.0880 F   0  0  0  0  0  0  0  0  0  0  0  0
  140.9500   70.9040  227.9530 C   0  0  0  0  0  0  0  0  0  0  0  0
  140.9110   71.6360  226.7760 C   0  0  0  0  0  0  0  0  0  0  0  0
  140.4040   71.1100  225.5980 C   0  0  0  0  0  0  0  0  0  0  0  0
  140.3860   71.8590  224.4750 N   0  0  0  0  0  0  0  0  0  0  0  0
  139.5560   74.0650  223.1980 H   0  0  0  0  0  0  0  0  0  0  0  0
  140.2505   74.0099  220.2637 H   0  0  0  0  0  0  0  0  0  0  0  0
  138.6408   74.6308  220.7363 H   0  0  0  0  0  0  0  0  0  0  0  0
  140.5599   76.1774  218.3254 H   0  0  0  0  0  0  0  0  0  0  0  0
  139.0663   76.7263  219.0850 H   0  0  0  0  0  0  0  0  0  0  0  0
  141.1423   78.3509  217.8283 H   0  0  0  0  0  0  0  0  0  0  0  0
  139.6730   78.9542  218.5856 H   0  0  0  0  0  0  0  0  0  0  0  0
  142.1365   79.4704  219.6311 H   0  0  0  0  0  0  0  0  0  0  0  0
  140.7857   79.2612  220.7079 H   0  0  0  0  0  0  0  0  0  0  0  0
  142.5680   77.4342  221.3099 H   0  0  0  0  0  0  0  0  0  0  0  0
  142.3214   76.2703  218.6179 H   0  0  0  0  0  0  0  0  0  0  0  0
  143.3549   77.7816  218.8333 H   0  0  0  0  0  0  0  0  0  0  0  0
  146.1838   74.7603  220.5699 H   0  0  0  0  0  0  0  0  0  0  0  0
  146.2006   72.3813  221.1866 H   0  0  0  0  0  0  0  0  0  0  0  0
  144.1255   71.0609  221.0857 H   0  0  0  0  0  0  0  0  0  0  0  0
  142.0112   72.1449  220.3628 H   0  0  0  0  0  0  0  0  0  0  0  0
  142.0042   74.5141  219.7516 H   0  0  0  0  0  0  0  0  0  0  0  0
  139.0187   69.7079  222.3478 H   0  0  0  0  0  0  0  0  0  0  0  0
  139.0250   68.2850  224.3667 H   0  0  0  0  0  0  0  0  0  0  0  0
  139.5743   68.0722  226.7471 H   0  0  0  0  0  0  0  0  0  0  0  0
  141.3569   71.3410  228.8768 H   0  0  0  0  0  0  0  0  0  0  0  0
  141.2946   72.6669  226.7771 H   0  0  0  0  0  0  0  0  0  0  0  0
  1  2  2  0
  2  3  1  0
  3  4  1  0
  4  5  1  0
  5  6  2  0
  5  7  1  0
  7  8  1  0
  8  9  1  0
  9 10  1  0
 10 11  1  0
 11 12  1  0
 12 13  1  0
 13 14  1  0
 14 15  2  0
 15 16  1  0
 16 17  2  0
 17 18  1  0
 18 19  2  0
  2 20  1  0
 20 21  2  0
 21 22  1  0
 22 23  2  0
 23 24  1  0
 24 25  2  0
 25 26  1  0
 25 27  1  0
 27 28  2  0
 28 29  1  0
 29 30  2  0
 11  7  1  0
 19 14  1  0
 30 20  1  0
 29 23  1  0
  3 31  1  0
  4 32  1  0
  4 33  1  0
  8 34  1  0
  8 35  1  0
  9 36  1  0
  9 37  1  0
 10 38  1  0
 10 39  1  0
 11 40  1  1
 12 41  1  0
 12 42  1  0
 15 43  1  0
 16 44  1  0
 17 45  1  0
 18 46  1  0
 19 47  1  0
 21 48  1  0
 22 49  1  0
 24 50  1  0
 27 51  1  0
 28 52  1  0
M  END
>  <smiles>  (15) 
O=C(NCC(=O)N1CCC[C@@H]1COc1ccccc1)c1ccc2cc(F)ccc2n1

>  <score_type>  (15) 
oracle

>  <origin>  (15) 
autodockgpu

>  <m_score__min__energy>  (15) 
-8.4499999999999993

>  <m_primary>  (15) 
energy

>  <rmsd>  (15) 
1.6529219284495775

>  <m_score__min__rmsd>  (15) 
1.6529219284495775

>  <meeko>  (15) 
{"free_energy": -7.66, "intermolecular_energy": -9.75, "internal_energy": -2.52, "cluster_size": 9, "cluster_id": 4, "rank_in_cluster": 7}

>  <energy>  (15) 
-7.99

>  <cluster_rmsd>  (15) 
0.86

>  <cluster>  (15) 
1

$$$$

     RDKit          3D

 52 55  0  0  0  0  0  0  0  0999 V2000
  141.0370   73.8290  221.1130 O   0  0  0  0  0  0  0  0  0  0  0  0
  140.0670   74.2350  221.8060 C   0  0  0  0  0  0  0  0  0  0  0  0
  139.0850   73.3700  222.3310 N   0  0  0  0  0  0  0  0  0  0  0  0
  139.1770   71.9490  222.0750 C   0  0  0  0  0  0  0  0  0  0  0  0
  138.1920   71.2490  222.9410 C   0  0  0  0  0  0  0  0  0  0  0  0
  137.4600   71.9090  223.7450 O   0  0  0  0  0  0  0  0  0  0  0  0
  138.1050   69.8420  222.8350 N   0  0  0  0  0  0  0  0  0  0  0  0
  136.9610   69.0030  222.5060 C   0  0  0  0  0  0  0  0  0  0  0  0
  137.5520   67.8070  221.7630 C   0  0  0  0  0  0  0  0  0  0  0  0
  139.0220   68.0730  221.7460 C   0  0  0  0  0  0  0  0  0  0  0  0
  139.1990   68.8800  223.0440 C   0  0  2  0  0  0  0  0  0  0  0  0
  138.8760   68.0080  224.2350 C   0  0  0  0  0  0  0  0  0  0  0  0
  139.6370   68.2350  225.3660 O   0  0  0  0  0  0  0  0  0  0  0  0
  140.0320   69.3560  225.9990 C   0  0  0  0  0  0  0  0  0  0  0  0
  140.7070   70.4280  225.4590 C   0  0  0  0  0  0  0  0  0  0  0  0
  141.0650   71.5360  226.2000 C   0  0  0  0  0  0  0  0  0  0  0  0
  140.7540   71.5980  227.5210 C   0  0  0  0  0  0  0  0  0  0  0  0
  140.0810   70.5530  228.1120 C   0  0  0  0  0  0  0  0  0  0  0  0
  139.7350   69.4660  227.3610 C   0  0  0  0  0  0  0  0  0  0  0  0
  139.9340   75.6700  222.0910 C   0  0  0  0  0  0  0  0  0  0  0  0
  138.7090   76.2300  222.4060 C   0  0  0  0  0  0  0  0  0  0  0  0
  138.5550   77.5750  222.6780 C   0  0  0  0  0  0  0  0  0  0  0  0
  139.6690   78.3980  222.6340 C   0  0  0  0  0  0  0  0  0  0  0  0
  139.6110   79.7350  222.8880 C   0  0  0  0  0  0  0  0  0  0  0  0
  140.7220   80.5520  222.8440 C   0  0  0  0  0  0  0  0  0  0  0  0
  140.6780   81.8810  223.0930 F   0  0  0  0  0  0  0  0  0  0  0  0
  141.9480   80.0000  222.5300 C   0  0  0  0  0  0  0  0  0  0  0  0
  142.0080   78.6400  222.2720 C   0  0  0  0  0  0  0  0  0  0  0  0
  140.8830   77.8310  222.3200 C   0  0  0  0  0  0  0  0  0  0  0  0
  140.9870   76.5110  222.0620 N   0  0  0  0  0  0  0  0  0  0  0  0
  138.2760   73.7310  222.9120 H   0  0  0  0  0  0  0  0  0  0  0  0
  138.9509   71.7471  221.0176 H   0  0  0  0  0  0  0  0  0  0  0  0
  140.1937   71.5914  222.2952 H   0  0  0  0  0  0  0  0  0  0  0  0
  136.4461   68.6744  223.4208 H   0  0  0  0  0  0  0  0  0  0  0  0
  136.2147   69.5388  221.9011 H   0  0  0  0  0  0  0  0  0  0  0  0
  137.3317   66.8699  222.2953 H   0  0  0  0  0  0  0  0  0  0  0  0
  137.1339   67.6917  220.7521 H   0  0  0  0  0  0  0  0  0  0  0  0
  139.6005   67.1378  221.7715 H   0  0  0  0  0  0  0  0  0  0  0  0
  139.3750   68.5914  220.8423 H   0  0  0  0  0  0  0  0  0  0  0  0
  140.1996   69.2980  223.2283 H   0  0  0  0  0  0  0  0  0  0  0  0
  137.8208   68.1727  224.4986 H   0  0  0  0  0  0  0  0  0  0  0  0
  139.1013   66.9775  223.9230 H   0  0  0  0  0  0  0  0  0  0  0  0
  140.9721   70.4000  224.3918 H   0  0  0  0  0  0  0  0  0  0  0  0
  141.6018   72.3683  225.7213 H   0  0  0  0  0  0  0  0  0  0  0  0
  141.0386   72.4789  228.1152 H   0  0  0  0  0  0  0  0  0  0  0  0
  139.8238   70.5930  229.1808 H   0  0  0  0  0  0  0  0  0  0  0  0
  139.1983   68.6395  227.8497 H   0  0  0  0  0  0  0  0  0  0  0  0
  137.8233   75.5787  222.4412 H   0  0  0  0  0  0  0  0  0  0  0  0
  137.5651   77.9860  222.9253 H   0  0  0  0  0  0  0  0  0  0  0  0
  138.6377   80.1821  223.1387 H   0  0  0  0  0  0  0  0  0  0  0  0
  142.8532   80.6235  222.4858 H   0  0  0  0  0  0  0  0  0  0  0  0
  142.9789   78.1878  222.0212 H   0  0  0  0  0  0  0  0  0  0  0  0
  1  2  2  0
  2  3  1  0
  3  4  1  0
  4  5  1  0
  5  6  2  0
  5  7  1  0
  7  8  1  0
  8  9  1  0
  9 10  1  0
 10 11  1  0
 11 12  1  0
 12 13  1  0
 13 14  1  0
 14 15  2  0
 15 16  1  0
 16 17  2  0
 17 18  1  0
 18 19  2  0
  2 20  1  0
 20 21  2  0
 21 22  1  0
 22 23  2  0
 23 24  1  0
 24 25  2  0
 25 26  1  0
 25 27  1  0
 27 28  2  0
 28 29  1  0
 29 30  2  0
 11  7  1  0
 19 14  1  0
 30 20  1  0
 29 23  1  0
  3 31  1  0
  4 32  1  0
  4 33  1  0
  8 34  1  0
  8 35  1  0
  9 36  1  0
  9 37  1  0
 10 38  1  0
 10 39  1  0
 11 40  1  1
 12 41  1  0
 12 42  1  0
 15 43  1  0
 16 44  1  0
 17 45  1  0
 18 46  1  0
 19 47  1  0
 21 48  1  0
 22 49  1  0
 24 50  1  0
 27 51  1  0
 28 52  1  0
M  END
>  <smiles>  (16) 
O=C(NCC(=O)N1CCC[C@@H]1COc1ccccc1)c1ccc2cc(F)ccc2n1

>  <score_type>  (16) 
oracle

>  <origin>  (16) 
autodockgpu

>  <m_score__min__energy>  (16) 
-8.4499999999999993

>  <m_primary>  (16) 
energy

>  <rmsd>  (16) 
8.445510464883409

>  <m_score__min__rmsd>  (16) 
8.445510464883409

>  <meeko>  (16) 
{"free_energy": -7.31, "intermolecular_energy": -9.4, "internal_energy": -2.14, "cluster_size": 14, "cluster_id": 3, "rank_in_cluster": 13}

>  <energy>  (16) 
-7.97

>  <cluster_rmsd>  (16) 
0.9

>  <cluster>  (16) 
1

$$$$

     RDKit          3D

 52 55  0  0  0  0  0  0  0  0999 V2000
  140.2330   71.6310  220.9440 O   0  0  0  0  0  0  0  0  0  0  0  0
  139.9860   72.1920  222.0450 C   0  0  0  0  0  0  0  0  0  0  0  0
  139.7880   73.5830  222.1710 N   0  0  0  0  0  0  0  0  0  0  0  0
  139.8670   74.4220  220.9950 C   0  0  0  0  0  0  0  0  0  0  0  0
  140.5570   75.6860  221.3630 C   0  0  0  0  0  0  0  0  0  0  0  0
  140.6020   76.0630  222.5770 O   0  0  0  0  0  0  0  0  0  0  0  0
  141.1490   76.4390  220.3240 N   0  0  0  0  0  0  0  0  0  0  0  0
  142.5510   76.7550  220.0870 C   0  0  0  0  0  0  0  0  0  0  0  0
  142.6860   76.8220  218.5660 C   0  0  0  0  0  0  0  0  0  0  0  0
  141.3080   76.5440  218.0610 C   0  0  0  0  0  0  0  0  0  0  0  0
  140.4460   77.0970  219.2100 C   0  0  2  0  0  0  0  0  0  0  0  0
  140.6340   78.5930  219.3150 C   0  0  0  0  0  0  0  0  0  0  0  0
  140.2830   79.1550  220.5280 O   0  0  0  0  0  0  0  0  0  0  0  0
  140.9740   79.4160  221.6540 C   0  0  0  0  0  0  0  0  0  0  0  0
  140.6670   79.0140  222.9350 C   0  0  0  0  0  0  0  0  0  0  0  0
  141.4470   79.3370  224.0270 C   0  0  0  0  0  0  0  0  0  0  0  0
  142.5700   80.0830  223.8600 C   0  0  0  0  0  0  0  0  0  0  0  0
  142.9230   80.5130  222.6010 C   0  0  0  0  0  0  0  0  0  0  0  0
  142.1370   80.1820  221.5340 C   0  0  0  0  0  0  0  0  0  0  0  0
  139.8980   71.3780  223.2650 C   0  0  0  0  0  0  0  0  0  0  0  0
  139.3260   70.1180  223.2480 C   0  0  0  0  0  0  0  0  0  0  0  0
  139.2300   69.3310  224.3790 C   0  0  0  0  0  0  0  0  0  0  0  0
  139.7240   69.8190  225.5770 C   0  0  0  0  0  0  0  0  0  0  0  0
  139.6720   69.1130  226.7410 C   0  0  0  0  0  0  0  0  0  0  0  0
  140.1650   69.6020  227.9340 C   0  0  0  0  0  0  0  0  0  0  0  0
  140.1190   68.9120  229.0960 F   0  0  0  0  0  0  0  0  0  0  0  0
  140.7370   70.8590  227.9580 C   0  0  0  0  0  0  0  0  0  0  0  0
  140.7900   71.5780  226.7740 C   0  0  0  0  0  0  0  0  0  0  0  0
  140.2910   71.0730  225.5830 C   0  0  0  0  0  0  0  0  0  0  0  0
  140.3640   71.8080  224.4540 N   0  0  0  0  0  0  0  0  0  0  0  0
  139.5830   74.0350  223.1060 H   0  0  0  0  0  0  0  0  0  0  0  0
  140.4350   73.9048  220.2077 H   0  0  0  0  0  0  0  0  0  0  0  0
  138.8565   74.6399  220.6188 H   0  0  0  0  0  0  0  0  0  0  0  0
  142.8123   77.7218  220.5419 H   0  0  0  0  0  0  0  0  0  0  0  0
  143.2252   76.0075  220.5306 H   0  0  0  0  0  0  0  0  0  0  0  0
  143.0237   77.8195  218.2483 H   0  0  0  0  0  0  0  0  0  0  0  0
  143.4279   76.1086  218.1779 H   0  0  0  0  0  0  0  0  0  0  0  0
  141.1103   77.0750  217.1182 H   0  0  0  0  0  0  0  0  0  0  0  0
  141.1199   75.4858  217.8269 H   0  0  0  0  0  0  0  0  0  0  0  0
  139.3620   76.9257  219.1358 H   0  0  0  0  0  0  0  0  0  0  0  0
  141.6963   78.8142  219.1342 H   0  0  0  0  0  0  0  0  0  0  0  0
  139.9550   79.0347  218.5708 H   0  0  0  0  0  0  0  0  0  0  0  0
  139.7617   78.4098  223.0947 H   0  0  0  0  0  0  0  0  0  0  0  0
  141.1598   78.9909  225.0308 H   0  0  0  0  0  0  0  0  0  0  0  0
  143.1947   80.3424  224.7275 H   0  0  0  0  0  0  0  0  0  0  0  0
  143.8301   81.1179  222.4554 H   0  0  0  0  0  0  0  0  0  0  0  0
  142.4327   80.5343  220.5348 H   0  0  0  0  0  0  0  0  0  0  0  0
  138.9328   69.7283  222.2975 H   0  0  0  0  0  0  0  0  0  0  0  0
  138.7689   68.3335  224.3289 H   0  0  0  0  0  0  0  0  0  0  0  0
  139.2180   68.1111  226.7297 H   0  0  0  0  0  0  0  0  0  0  0  0
  141.1398   71.2784  228.8918 H   0  0  0  0  0  0  0  0  0  0  0  0
  141.2422   72.5808  226.7795 H   0  0  0  0  0  0  0  0  0  0  0  0
  1  2  2  0
  2  3  1  0
  3  4  1  0
  4  5  1  0
  5  6  2  0
  5  7  1  0
  7  8  1  0
  8  9  1  0
  9 10  1  0
 10 11  1  0
 11 12  1  0
 12 13  1  0
 13 14  1  0
 14 15  2  0
 15 16  1  0
 16 17  2  0
 17 18  1  0
 18 19  2  0
  2 20  1  0
 20 21  2  0
 21 22  1  0
 22 23  2  0
 23 24  1  0
 24 25  2  0
 25 26  1  0
 25 27  1  0
 27 28  2  0
 28 29  1  0
 29 30  2  0
 11  7  1  0
 19 14  1  0
 30 20  1  0
 29 23  1  0
  3 31  1  0
  4 32  1  0
  4 33  1  0
  8 34  1  0
  8 35  1  0
  9 36  1  0
  9 37  1  0
 10 38  1  0
 10 39  1  0
 11 40  1  6
 12 41  1  0
 12 42  1  0
 15 43  1  0
 16 44  1  0
 17 45  1  0
 18 46  1  0
 19 47  1  0
 21 48  1  0
 22 49  1  0
 24 50  1  0
 27 51  1  0
 28 52  1  0
M  END
>  <smiles>  (17) 
O=C(NCC(=O)N1CCC[C@@H]1COc1ccccc1)c1ccc2cc(F)ccc2n1

>  <score_type>  (17) 
oracle

>  <origin>  (17) 
autodockgpu

>  <m_score__min__energy>  (17) 
-8.4499999999999993

>  <m_primary>  (17) 
energy

>  <rmsd>  (17) 
2.0151303058531944

>  <m_score__min__rmsd>  (17) 
2.0151303058531944

>  <meeko>  (17) 
{"free_energy": -8.06, "intermolecular_energy": -10.15, "internal_energy": -2.24, "cluster_size": 22, "cluster_id": 1, "rank_in_cluster": 10}

>  <energy>  (17) 
-7.89

>  <cluster_rmsd>  (17) 
1.94

>  <cluster>  (17) 
1

$$$$

     RDKit          3D

 52 55  0  0  0  0  0  0  0  0999 V2000
  141.8500   73.2330  221.0520 O   0  0  0  0  0  0  0  0  0  0  0  0
  141.0240   74.0240  221.5810 C   0  0  0  0  0  0  0  0  0  0  0  0
  139.8910   73.5840  222.2960 N   0  0  0  0  0  0  0  0  0  0  0  0
  139.6480   72.1660  222.4430 C   0  0  0  0  0  0  0  0  0  0  0  0
  138.2240   71.9680  222.8230 C   0  0  0  0  0  0  0  0  0  0  0  0
  137.3860   72.9160  222.6890 O   0  0  0  0  0  0  0  0  0  0  0  0
  137.8480   70.7040  223.3330 N   0  0  0  0  0  0  0  0  0  0  0  0
  136.7470   70.3480  224.2170 C   0  0  0  0  0  0  0  0  0  0  0  0
  136.3360   68.9420  223.7840 C   0  0  0  0  0  0  0  0  0  0  0  0
  137.2740   68.6100  222.6690 C   0  0  0  0  0  0  0  0  0  0  0  0
  138.5200   69.4210  223.0700 C   0  0  2  0  0  0  0  0  0  0  0  0
  139.0870   68.8810  224.3620 C   0  0  0  0  0  0  0  0  0  0  0  0
  140.1860   69.5540  224.8600 O   0  0  0  0  0  0  0  0  0  0  0  0
  140.3770   70.3290  225.9450 C   0  0  0  0  0  0  0  0  0  0  0  0
  141.0410   71.5330  226.0060 C   0  0  0  0  0  0  0  0  0  0  0  0
  141.1800   72.2520  227.1760 C   0  0  0  0  0  0  0  0  0  0  0  0
  140.6490   71.7740  228.3320 C   0  0  0  0  0  0  0  0  0  0  0  0
  139.9760   70.5740  228.3280 C   0  0  0  0  0  0  0  0  0  0  0  0
  139.8500   69.8780  227.1590 C   0  0  0  0  0  0  0  0  0  0  0  0
  141.2320   75.4730  221.4560 C   0  0  0  0  0  0  0  0  0  0  0  0
  141.7670   76.0260  220.3060 C   0  0  0  0  0  0  0  0  0  0  0  0
  141.9730   77.3840  220.1610 C   0  0  0  0  0  0  0  0  0  0  0  0
  141.6320   78.2270  221.2060 C   0  0  0  0  0  0  0  0  0  0  0  0
  141.8010   79.5770  221.1500 C   0  0  0  0  0  0  0  0  0  0  0  0
  141.4600   80.4150  222.1930 C   0  0  0  0  0  0  0  0  0  0  0  0
  141.6230   81.7570  222.1510 F   0  0  0  0  0  0  0  0  0  0  0  0
  140.9260   79.8710  223.3440 C   0  0  0  0  0  0  0  0  0  0  0  0
  140.7550   78.4970  223.4010 C   0  0  0  0  0  0  0  0  0  0  0  0
  141.1010   77.6670  222.3450 C   0  0  0  0  0  0  0  0  0  0  0  0
  140.9160   76.3340  222.4430 N   0  0  0  0  0  0  0  0  0  0  0  0
  139.2070   74.2660  222.7330 H   0  0  0  0  0  0  0  0  0  0  0  0
  139.8527   71.6539  221.4912 H   0  0  0  0  0  0  0  0  0  0  0  0
  140.3066   71.7493  223.2193 H   0  0  0  0  0  0  0  0  0  0  0  0
  137.0770   70.3491  225.2663 H   0  0  0  0  0  0  0  0  0  0  0  0
  135.9136   71.0628  224.1499 H   0  0  0  0  0  0  0  0  0  0  0  0
  136.4501   68.2296  224.6143 H   0  0  0  0  0  0  0  0  0  0  0  0
  135.2814   68.8886  223.4759 H   0  0  0  0  0  0  0  0  0  0  0  0
  137.4900   67.5320  222.6322 H   0  0  0  0  0  0  0  0  0  0  0  0
  136.8852   68.8478  221.6679 H   0  0  0  0  0  0  0  0  0  0  0  0
  139.3504   69.4327  222.3487 H   0  0  0  0  0  0  0  0  0  0  0  0
  138.2931   68.9204  225.1224 H   0  0  0  0  0  0  0  0  0  0  0  0
  139.4358   67.8628  224.1347 H   0  0  0  0  0  0  0  0  0  0  0  0
  141.4797   71.9397  225.0829 H   0  0  0  0  0  0  0  0  0  0  0  0
  141.7198   73.2105  227.1727 H   0  0  0  0  0  0  0  0  0  0  0  0
  140.7568   72.3439  229.2667 H   0  0  0  0  0  0  0  0  0  0  0  0
  139.5429   70.1781  229.2584 H   0  0  0  0  0  0  0  0  0  0  0  0
  139.3098   68.9199  227.1736 H   0  0  0  0  0  0  0  0  0  0  0  0
  142.0387   75.3583  219.4752 H   0  0  0  0  0  0  0  0  0  0  0  0
  142.4004   77.7891  219.2319 H   0  0  0  0  0  0  0  0  0  0  0  0
  142.2266   80.0179  220.2365 H   0  0  0  0  0  0  0  0  0  0  0  0
  140.6438   80.5110  224.1930 H   0  0  0  0  0  0  0  0  0  0  0  0
  140.3314   78.0504  224.3127 H   0  0  0  0  0  0  0  0  0  0  0  0
  1  2  2  0
  2  3  1  0
  3  4  1  0
  4  5  1  0
  5  6  2  0
  5  7  1  0
  7  8  1  0
  8  9  1  0
  9 10  1  0
 10 11  1  0
 11 12  1  0
 12 13  1  0
 13 14  1  0
 14 15  2  0
 15 16  1  0
 16 17  2  0
 17 18  1  0
 18 19  2  0
  2 20  1  0
 20 21  2  0
 21 22  1  0
 22 23  2  0
 23 24  1  0
 24 25  2  0
 25 26  1  0
 25 27  1  0
 27 28  2  0
 28 29  1  0
 29 30  2  0
 11  7  1  0
 19 14  1  0
 30 20  1  0
 29 23  1  0
  3 31  1  0
  4 32  1  0
  4 33  1  0
  8 34  1  0
  8 35  1  0
  9 36  1  0
  9 37  1  0
 10 38  1  0
 10 39  1  0
 11 40  1  6
 12 41  1  0
 12 42  1  0
 15 43  1  0
 16 44  1  0
 17 45  1  0
 18 46  1  0
 19 47  1  0
 21 48  1  0
 22 49  1  0
 24 50  1  0
 27 51  1  0
 28 52  1  0
M  END
>  <smiles>  (18) 
O=C(NCC(=O)N1CCC[C@@H]1COc1ccccc1)c1ccc2cc(F)ccc2n1

>  <score_type>  (18) 
oracle

>  <origin>  (18) 
autodockgpu

>  <m_score__min__energy>  (18) 
-8.4499999999999993

>  <m_primary>  (18) 
energy

>  <rmsd>  (18) 
8.643010541488936

>  <m_score__min__rmsd>  (18) 
8.643010541488936

>  <meeko>  (18) 
{"free_energy": -7.72, "intermolecular_energy": -9.81, "internal_energy": -2.25, "cluster_size": 14, "cluster_id": 3, "rank_in_cluster": 11}

>  <energy>  (18) 
-7.88

>  <cluster_rmsd>  (18) 
0.71

>  <cluster>  (18) 
1

$$$$

     RDKit          3D

 52 55  0  0  0  0  0  0  0  0999 V2000
  136.9830   76.3170  221.8850 O   0  0  0  0  0  0  0  0  0  0  0  0
  138.1960   76.3270  222.2270 C   0  0  0  0  0  0  0  0  0  0  0  0
  138.9940   75.1650  222.2550 N   0  0  0  0  0  0  0  0  0  0  0  0
  138.4150   73.8940  221.8770 C   0  0  0  0  0  0  0  0  0  0  0  0
  139.3360   72.8100  222.3100 C   0  0  0  0  0  0  0  0  0  0  0  0
  140.5640   73.0590  222.5300 O   0  0  0  0  0  0  0  0  0  0  0  0
  138.7980   71.5120  222.4620 N   0  0  0  0  0  0  0  0  0  0  0  0
  137.4120   71.0930  222.6280 C   0  0  0  0  0  0  0  0  0  0  0  0
  137.3310   69.7290  221.9460 C   0  0  0  0  0  0  0  0  0  0  0  0
  138.7180   69.4800  221.4500 C   0  0  0  0  0  0  0  0  0  0  0  0
  139.5540   70.2490  222.4900 C   0  0  2  0  0  0  0  0  0  0  0  0
  139.3990   69.6040  223.8470 C   0  0  0  0  0  0  0  0  0  0  0  0
  140.4300   69.8320  224.7380 O   0  0  0  0  0  0  0  0  0  0  0  0
  140.4880   70.4290  225.9450 C   0  0  0  0  0  0  0  0  0  0  0  0
  139.8920   70.0110  227.1140 C   0  0  0  0  0  0  0  0  0  0  0  0
  140.0170   70.6990  228.3040 C   0  0  0  0  0  0  0  0  0  0  0  0
  140.7520   71.8400  228.3520 C   0  0  0  0  0  0  0  0  0  0  0  0
  141.3690   72.3040  227.2130 C   0  0  0  0  0  0  0  0  0  0  0  0
  141.2320   71.6080  226.0450 C   0  0  0  0  0  0  0  0  0  0  0  0
  138.8230   77.5960  222.6190 C   0  0  0  0  0  0  0  0  0  0  0  0
  138.0640   78.7220  222.8830 C   0  0  0  0  0  0  0  0  0  0  0  0
  138.6280   79.9270  223.2530 C   0  0  0  0  0  0  0  0  0  0  0  0
  140.0050   80.0150  223.3660 C   0  0  0  0  0  0  0  0  0  0  0  0
  140.6460   81.1620  223.7250 C   0  0  0  0  0  0  0  0  0  0  0  0
  142.0200   81.2470  223.8360 C   0  0  0  0  0  0  0  0  0  0  0  0
  142.6680   82.3790  224.1910 F   0  0  0  0  0  0  0  0  0  0  0  0
  142.7840   80.1270  223.5740 C   0  0  0  0  0  0  0  0  0  0  0  0
  142.1320   78.9590  223.2080 C   0  0  0  0  0  0  0  0  0  0  0  0
  140.7510   78.8890  223.1020 C   0  0  0  0  0  0  0  0  0  0  0  0
  140.1590   77.7310  222.7420 N   0  0  0  0  0  0  0  0  0  0  0  0
  140.0120   75.1940  222.5470 H   0  0  0  0  0  0  0  0  0  0  0  0
  137.4387   73.7700  222.3683 H   0  0  0  0  0  0  0  0  0  0  0  0
  138.2710   73.8540  220.7872 H   0  0  0  0  0  0  0  0  0  0  0  0
  137.1582   71.0082  223.6950 H   0  0  0  0  0  0  0  0  0  0  0  0
  136.7055   71.8160  222.1944 H   0  0  0  0  0  0  0  0  0  0  0  0
  137.0287   68.9521  222.6636 H   0  0  0  0  0  0  0  0  0  0  0  0
  136.5858   69.7077  221.1372 H   0  0  0  0  0  0  0  0  0  0  0  0
  138.9600   68.4069  221.4529 H   0  0  0  0  0  0  0  0  0  0  0  0
  138.8884   69.7984  220.4110 H   0  0  0  0  0  0  0  0  0  0  0  0
  140.6355   70.3129  222.2996 H   0  0  0  0  0  0  0  0  0  0  0  0
  138.4711   69.9848  224.2986 H   0  0  0  0  0  0  0  0  0  0  0  0
  139.3929   68.5191  223.6654 H   0  0  0  0  0  0  0  0  0  0  0  0
  139.2909   69.0899  227.0987 H   0  0  0  0  0  0  0  0  0  0  0  0
  139.5222   70.3238  229.2119 H   0  0  0  0  0  0  0  0  0  0  0  0
  140.8537   72.3914  229.2984 H   0  0  0  0  0  0  0  0  0  0  0  0
  141.9671   73.2267  227.2424 H   0  0  0  0  0  0  0  0  0  0  0  0
  141.7297   71.9930  225.1428 H   0  0  0  0  0  0  0  0  0  0  0  0
  136.9696   78.6550  222.7948 H   0  0  0  0  0  0  0  0  0  0  0  0
  137.9935   80.8026  223.4547 H   0  0  0  0  0  0  0  0  0  0  0  0
  140.0440   82.0583  223.9354 H   0  0  0  0  0  0  0  0  0  0  0  0
  143.8806   80.1603  223.6535 H   0  0  0  0  0  0  0  0  0  0  0  0
  142.7289   78.0599  222.9951 H   0  0  0  0  0  0  0  0  0  0  0  0
  1  2  2  0
  2  3  1  0
  3  4  1  0
  4  5  1  0
  5  6  2  0
  5  7  1  0
  7  8  1  0
  8  9  1  0
  9 10  1  0
 10 11  1  0
 11 12  1  0
 12 13  1  0
 13 14  1  0
 14 15  2  0
 15 16  1  0
 16 17  2  0
 17 18  1  0
 18 19  2  0
  2 20  1  0
 20 21  2  0
 21 22  1  0
 22 23  2  0
 23 24  1  0
 24 25  2  0
 25 26  1  0
 25 27  1  0
 27 28  2  0
 28 29  1  0
 29 30  2  0
 11  7  1  0
 19 14  1  0
 30 20  1  0
 29 23  1  0
  3 31  1  0
  4 32  1  0
  4 33  1  0
  8 34  1  0
  8 35  1  0
  9 36  1  0
  9 37  1  0
 10 38  1  0
 10 39  1  0
 11 40  1  6
 12 41  1  0
 12 42  1  0
 15 43  1  0
 16 44  1  0
 17 45  1  0
 18 46  1  0
 19 47  1  0
 21 48  1  0
 22 49  1  0
 24 50  1  0
 27 51  1  0
 28 52  1  0
M  END
>  <smiles>  (19) 
O=C(NCC(=O)N1CCC[C@@H]1COc1ccccc1)c1ccc2cc(F)ccc2n1

>  <score_type>  (19) 
oracle

>  <origin>  (19) 
autodockgpu

>  <m_score__min__energy>  (19) 
-8.4499999999999993

>  <m_primary>  (19) 
energy

>  <rmsd>  (19) 
8.545240076138768

>  <m_score__min__rmsd>  (19) 
8.545240076138768

>  <meeko>  (19) 
{"free_energy": -7.85, "intermolecular_energy": -9.94, "internal_energy": -2.18, "cluster_size": 14, "cluster_id": 3, "rank_in_cluster": 9}

>  <energy>  (19) 
-7.84

>  <cluster_rmsd>  (19) 
1.85

>  <cluster>  (19) 
1

$$$$

     RDKit          3D

 52 55  0  0  0  0  0  0  0  0999 V2000
  140.3340   71.6030  220.9670 O   0  0  0  0  0  0  0  0  0  0  0  0
  140.0460   72.1450  222.0680 C   0  0  0  0  0  0  0  0  0  0  0  0
  139.7990   73.5270  222.2010 N   0  0  0  0  0  0  0  0  0  0  0  0
  139.8720   74.3790  221.0340 C   0  0  0  0  0  0  0  0  0  0  0  0
  140.2960   75.7370  221.4670 C   0  0  0  0  0  0  0  0  0  0  0  0
  140.2260   76.0710  222.6930 O   0  0  0  0  0  0  0  0  0  0  0  0
  140.7700   76.6250  220.4760 N   0  0  0  0  0  0  0  0  0  0  0  0
  140.1300   77.0750  219.2470 C   0  0  0  0  0  0  0  0  0  0  0  0
  140.6340   78.5030  219.0430 C   0  0  0  0  0  0  0  0  0  0  0  0
  141.5510   78.7400  220.1980 C   0  0  0  0  0  0  0  0  0  0  0  0
  142.0700   77.3160  220.4700 C   0  0  2  0  0  0  0  0  0  0  0  0
  142.8850   76.8360  219.2920 C   0  0  0  0  0  0  0  0  0  0  0  0
  142.9480   75.4650  219.1280 O   0  0  0  0  0  0  0  0  0  0  0  0
  143.6770   74.5000  219.7200 C   0  0  0  0  0  0  0  0  0  0  0  0
  143.4350   73.1450  219.7120 C   0  0  0  0  0  0  0  0  0  0  0  0
  144.2510   72.2350  220.3530 C   0  0  0  0  0  0  0  0  0  0  0  0
  145.3460   72.6690  221.0310 C   0  0  0  0  0  0  0  0  0  0  0  0
  145.6350   74.0130  221.0730 C   0  0  0  0  0  0  0  0  0  0  0  0
  144.8140   74.8970  220.4310 C   0  0  0  0  0  0  0  0  0  0  0  0
  139.9620   71.3170  223.2790 C   0  0  0  0  0  0  0  0  0  0  0  0
  139.4210   70.0450  223.2420 C   0  0  0  0  0  0  0  0  0  0  0  0
  139.3290   69.2450  224.3650 C   0  0  0  0  0  0  0  0  0  0  0  0
  139.7960   69.7330  225.5730 C   0  0  0  0  0  0  0  0  0  0  0  0
  139.7460   69.0140  226.7300 C   0  0  0  0  0  0  0  0  0  0  0  0
  140.2120   69.5030  227.9340 C   0  0  0  0  0  0  0  0  0  0  0  0
  140.1680   68.8000  229.0880 F   0  0  0  0  0  0  0  0  0  0  0  0
  140.7530   70.7720  227.9770 C   0  0  0  0  0  0  0  0  0  0  0  0
  140.8050   71.5040  226.8010 C   0  0  0  0  0  0  0  0  0  0  0  0
  140.3330   70.9990  225.5990 C   0  0  0  0  0  0  0  0  0  0  0  0
  140.4030   71.7470  224.4770 N   0  0  0  0  0  0  0  0  0  0  0  0
  139.5590   73.9630  223.1360 H   0  0  0  0  0  0  0  0  0  0  0  0
  140.6045   73.9710  220.3219 H   0  0  0  0  0  0  0  0  0  0  0  0
  138.8893   74.4299  220.5424 H   0  0  0  0  0  0  0  0  0  0  0  0
  140.4237   76.4361  218.4011 H   0  0  0  0  0  0  0  0  0  0  0  0
  139.0328   77.0275  219.3094 H   0  0  0  0  0  0  0  0  0  0  0  0
  141.1765   78.5923  218.0902 H   0  0  0  0  0  0  0  0  0  0  0  0
  139.8145   79.2355  219.0002 H   0  0  0  0  0  0  0  0  0  0  0  0
  142.3705   79.4223  219.9279 H   0  0  0  0  0  0  0  0  0  0  0  0
  141.0693   79.2166  221.0645 H   0  0  0  0  0  0  0  0  0  0  0  0
  142.7052   77.1875  221.3588 H   0  0  0  0  0  0  0  0  0  0  0  0
  142.4466   77.2661  218.3795 H   0  0  0  0  0  0  0  0  0  0  0  0
  143.9169   77.1634  219.4868 H   0  0  0  0  0  0  0  0  0  0  0  0
  142.5530   72.7712  219.1713 H   0  0  0  0  0  0  0  0  0  0  0  0
  144.0157   71.1611  220.3152 H   0  0  0  0  0  0  0  0  0  0  0  0
  145.9989   71.9478  221.5444 H   0  0  0  0  0  0  0  0  0  0  0  0
  146.5195   74.3733  221.6187 H   0  0  0  0  0  0  0  0  0  0  0  0
  145.0584   75.9686  220.4755 H   0  0  0  0  0  0  0  0  0  0  0  0
  139.0499   69.6553  222.2826 H   0  0  0  0  0  0  0  0  0  0  0  0
  138.8921   68.2376  224.2999 H   0  0  0  0  0  0  0  0  0  0  0  0
  139.3163   68.0017  226.7032 H   0  0  0  0  0  0  0  0  0  0  0  0
  141.1331   71.1917  228.9201 H   0  0  0  0  0  0  0  0  0  0  0  0
  141.2339   72.5167  226.8220 H   0  0  0  0  0  0  0  0  0  0  0  0
  1  2  2  0
  2  3  1  0
  3  4  1  0
  4  5  1  0
  5  6  2  0
  5  7  1  0
  7  8  1  0
  8  9  1  0
  9 10  1  0
 10 11  1  0
 11 12  1  0
 12 13  1  0
 13 14  1  0
 14 15  2  0
 15 16  1  0
 16 17  2  0
 17 18  1  0
 18 19  2  0
  2 20  1  0
 20 21  2  0
 21 22  1  0
 22 23  2  0
 23 24  1  0
 24 25  2  0
 25 26  1  0
 25 27  1  0
 27 28  2  0
 28 29  1  0
 29 30  2  0
 11  7  1  0
 19 14  1  0
 30 20  1  0
 29 23  1  0
  3 31  1  0
  4 32  1  0
  4 33  1  0
  8 34  1  0
  8 35  1  0
  9 36  1  0
  9 37  1  0
 10 38  1  0
 10 39  1  0
 11 40  1  1
 12 41  1  0
 12 42  1  0
 15 43  1  0
 16 44  1  0
 17 45  1  0
 18 46  1  0
 19 47  1  0
 21 48  1  0
 22 49  1  0
 24 50  1  0
 27 51  1  0
 28 52  1  0
M  END
>  <smiles>  (20) 
O=C(NCC(=O)N1CCC[C@@H]1COc1ccccc1)c1ccc2cc(F)ccc2n1

>  <score_type>  (20) 
oracle

>  <origin>  (20) 
autodockgpu

>  <m_score__min__energy>  (20) 
-8.4499999999999993

>  <m_primary>  (20) 
energy

>  <rmsd>  (20) 
1.756813214124766

>  <m_score__min__rmsd>  (20) 
1.756813214124766

>  <meeko>  (20) 
{"free_energy": -7.68, "intermolecular_energy": -9.76, "internal_energy": -2.46, "cluster_size": 9, "cluster_id": 4, "rank_in_cluster": 6}

>  <energy>  (20) 
-7.79

>  <cluster_rmsd>  (20) 
1.81

>  <cluster>  (20) 
1

$$$$

     RDKit          3D

 52 55  0  0  0  0  0  0  0  0999 V2000
  141.6280   73.2090  220.9560 O   0  0  0  0  0  0  0  0  0  0  0  0
  140.7690   73.9020  221.5650 C   0  0  0  0  0  0  0  0  0  0  0  0
  139.7030   73.3360  222.2930 N   0  0  0  0  0  0  0  0  0  0  0  0
  139.5700   71.8970  222.3590 C   0  0  0  0  0  0  0  0  0  0  0  0
  138.2110   71.5710  222.8670 C   0  0  0  0  0  0  0  0  0  0  0  0
  137.3620   72.4970  223.0680 O   0  0  0  0  0  0  0  0  0  0  0  0
  137.9090   70.2130  223.1150 N   0  0  0  0  0  0  0  0  0  0  0  0
  136.6170   69.5440  223.1770 C   0  0  0  0  0  0  0  0  0  0  0  0
  136.8820   68.1310  222.6590 C   0  0  0  0  0  0  0  0  0  0  0  0
  138.3440   68.1180  222.3520 C   0  0  0  0  0  0  0  0  0  0  0  0
  138.8770   69.1350  223.3770 C   0  0  2  0  0  0  0  0  0  0  0  0
  138.6680   68.6060  224.7770 C   0  0  0  0  0  0  0  0  0  0  0  0
  139.7210   68.7990  225.6510 O   0  0  0  0  0  0  0  0  0  0  0  0
  140.1500   69.8650  226.3550 C   0  0  0  0  0  0  0  0  0  0  0  0
  139.9070   70.1440  227.6810 C   0  0  0  0  0  0  0  0  0  0  0  0
  140.3980   71.2710  228.3100 C   0  0  0  0  0  0  0  0  0  0  0  0
  141.1550   72.1590  227.6140 C   0  0  0  0  0  0  0  0  0  0  0  0
  141.4280   71.9290  226.2860 C   0  0  0  0  0  0  0  0  0  0  0  0
  140.9320   70.8080  225.6820 C   0  0  0  0  0  0  0  0  0  0  0  0
  140.8660   75.3670  221.5240 C   0  0  0  0  0  0  0  0  0  0  0  0
  141.7610   76.0050  220.6840 C   0  0  0  0  0  0  0  0  0  0  0  0
  141.8730   77.3810  220.6260 C   0  0  0  0  0  0  0  0  0  0  0  0
  141.0590   78.1530  221.4370 C   0  0  0  0  0  0  0  0  0  0  0  0
  141.1010   79.5150  221.4450 C   0  0  0  0  0  0  0  0  0  0  0  0
  140.2880   80.2820  222.2550 C   0  0  0  0  0  0  0  0  0  0  0  0
  140.3200   81.6340  222.2730 F   0  0  0  0  0  0  0  0  0  0  0  0
  139.3920   79.6520  223.0960 C   0  0  0  0  0  0  0  0  0  0  0  0
  139.3490   78.2670  223.0880 C   0  0  0  0  0  0  0  0  0  0  0  0
  140.1710   77.5090  222.2680 C   0  0  0  0  0  0  0  0  0  0  0  0
  140.0950   76.1620  222.2940 N   0  0  0  0  0  0  0  0  0  0  0  0
  138.9900   73.9360  222.7970 H   0  0  0  0  0  0  0  0  0  0  0  0
  139.7045   71.4657  221.3561 H   0  0  0  0  0  0  0  0  0  0  0  0
  140.3337   71.4786  223.0310 H   0  0  0  0  0  0  0  0  0  0  0  0
  136.2459   69.5137  224.2121 H   0  0  0  0  0  0  0  0  0  0  0  0
  135.8511   70.0659  222.5846 H   0  0  0  0  0  0  0  0  0  0  0  0
  136.6386   67.3824  223.4273 H   0  0  0  0  0  0  0  0  0  0  0  0
  136.2664   67.8828  221.7818 H   0  0  0  0  0  0  0  0  0  0  0  0
  138.7798   67.1205  222.5105 H   0  0  0  0  0  0  0  0  0  0  0  0
  138.5869   68.3621  221.3073 H   0  0  0  0  0  0  0  0  0  0  0  0
  139.9430   69.3951  223.2999 H   0  0  0  0  0  0  0  0  0  0  0  0
  137.7825   69.1042  225.1985 H   0  0  0  0  0  0  0  0  0  0  0  0
  138.5579   67.5164  224.6740 H   0  0  0  0  0  0  0  0  0  0  0  0
  139.2959   69.4394  228.2641 H   0  0  0  0  0  0  0  0  0  0  0  0
  140.1766   71.4495  229.3726 H   0  0  0  0  0  0  0  0  0  0  0  0
  141.5479   73.0583  228.1108 H   0  0  0  0  0  0  0  0  0  0  0  0
  142.0407   72.6417  225.7144 H   0  0  0  0  0  0  0  0  0  0  0  0
  141.1583   70.6403  224.6187 H   0  0  0  0  0  0  0  0  0  0  0  0
  142.4081   75.3937  220.0377 H   0  0  0  0  0  0  0  0  0  0  0  0
  142.5969   77.8550  219.9468 H   0  0  0  0  0  0  0  0  0  0  0  0
  141.8123   80.0244  220.7783 H   0  0  0  0  0  0  0  0  0  0  0  0
  138.7303   80.2339  223.7544 H   0  0  0  0  0  0  0  0  0  0  0  0
  138.6401   77.7525  223.7534 H   0  0  0  0  0  0  0  0  0  0  0  0
  1  2  2  0
  2  3  1  0
  3  4  1  0
  4  5  1  0
  5  6  2  0
  5  7  1  0
  7  8  1  0
  8  9  1  0
  9 10  1  0
 10 11  1  0
 11 12  1  0
 12 13  1  0
 13 14  1  0
 14 15  2  0
 15 16  1  0
 16 17  2  0
 17 18  1  0
 18 19  2  0
  2 20  1  0
 20 21  2  0
 21 22  1  0
 22 23  2  0
 23 24  1  0
 24 25  2  0
 25 26  1  0
 25 27  1  0
 27 28  2  0
 28 29  1  0
 29 30  2  0
 11  7  1  0
 19 14  1  0
 30 20  1  0
 29 23  1  0
  3 31  1  0
  4 32  1  0
  4 33  1  0
  8 34  1  0
  8 35  1  0
  9 36  1  0
  9 37  1  0
 10 38  1  0
 10 39  1  0
 11 40  1  6
 12 41  1  0
 12 42  1  0
 15 43  1  0
 16 44  1  0
 17 45  1  0
 18 46  1  0
 19 47  1  0
 21 48  1  0
 22 49  1  0
 24 50  1  0
 27 51  1  0
 28 52  1  0
M  END
>  <smiles>  (21) 
O=C(NCC(=O)N1CCC[C@@H]1COc1ccccc1)c1ccc2cc(F)ccc2n1

>  <score_type>  (21) 
oracle

>  <origin>  (21) 
autodockgpu

>  <m_score__min__energy>  (21) 
-8.4499999999999993

>  <m_primary>  (21) 
energy

>  <rmsd>  (21) 
8.579083584943712

>  <m_score__min__rmsd>  (21) 
8.579083584943712

>  <meeko>  (21) 
{"free_energy": -7.33, "intermolecular_energy": -9.42, "internal_energy": -2.36, "cluster_size": 14, "cluster_id": 3, "rank_in_cluster": 12}

>  <energy>  (21) 
-7.52

>  <cluster_rmsd>  (21) 
1.73

>  <cluster>  (21) 
1

$$$$

     RDKit          3D

 52 55  0  0  0  0  0  0  0  0999 V2000
  140.2150   71.6140  220.9290 O   0  0  0  0  0  0  0  0  0  0  0  0
  139.9740   72.1760  222.0310 C   0  0  0  0  0  0  0  0  0  0  0  0
  139.7760   73.5660  222.1550 N   0  0  0  0  0  0  0  0  0  0  0  0
  139.8460   74.4040  220.9770 C   0  0  0  0  0  0  0  0  0  0  0  0
  140.4980   75.6870  221.3500 C   0  0  0  0  0  0  0  0  0  0  0  0
  140.4930   76.0840  222.5580 O   0  0  0  0  0  0  0  0  0  0  0  0
  141.1140   76.4350  220.3200 N   0  0  0  0  0  0  0  0  0  0  0  0
  142.5240   76.7180  220.0930 C   0  0  0  0  0  0  0  0  0  0  0  0
  142.6690   76.7960  218.5740 C   0  0  0  0  0  0  0  0  0  0  0  0
  141.2870   76.5560  218.0590 C   0  0  0  0  0  0  0  0  0  0  0  0
  140.4330   77.1190  219.2090 C   0  0  2  0  0  0  0  0  0  0  0  0
  140.6560   78.6090  219.3290 C   0  0  0  0  0  0  0  0  0  0  0  0
  140.2950   79.1720  220.5390 O   0  0  0  0  0  0  0  0  0  0  0  0
  140.9740   79.4270  221.6740 C   0  0  0  0  0  0  0  0  0  0  0  0
  140.6320   79.0540  222.9540 C   0  0  0  0  0  0  0  0  0  0  0  0
  141.4030   79.3670  224.0560 C   0  0  0  0  0  0  0  0  0  0  0  0
  142.5530   80.0730  223.8980 C   0  0  0  0  0  0  0  0  0  0  0  0
  142.9420   80.4720  222.6400 C   0  0  0  0  0  0  0  0  0  0  0  0
  142.1640   80.1520  221.5640 C   0  0  0  0  0  0  0  0  0  0  0  0
  139.8940   71.3630  223.2520 C   0  0  0  0  0  0  0  0  0  0  0  0
  139.3340   70.0990  223.2380 C   0  0  0  0  0  0  0  0  0  0  0  0
  139.2450   69.3130  224.3710 C   0  0  0  0  0  0  0  0  0  0  0  0
  139.7360   69.8080  225.5680 C   0  0  0  0  0  0  0  0  0  0  0  0
  139.6910   69.1040  226.7330 C   0  0  0  0  0  0  0  0  0  0  0  0
  140.1810   69.5990  227.9240 C   0  0  0  0  0  0  0  0  0  0  0  0
  140.1420   68.9110  229.0880 F   0  0  0  0  0  0  0  0  0  0  0  0
  140.7410   70.8610  227.9460 C   0  0  0  0  0  0  0  0  0  0  0  0
  140.7870   71.5780  226.7610 C   0  0  0  0  0  0  0  0  0  0  0  0
  140.2920   71.0670  225.5710 C   0  0  0  0  0  0  0  0  0  0  0  0
  140.3580   71.8010  224.4400 N   0  0  0  0  0  0  0  0  0  0  0  0
  139.5750   74.0200  223.0910 H   0  0  0  0  0  0  0  0  0  0  0  0
  140.4366   73.9003  220.1976 H   0  0  0  0  0  0  0  0  0  0  0  0
  138.8346   74.5938  220.5883 H   0  0  0  0  0  0  0  0  0  0  0  0
  142.8069   77.6737  220.5585 H   0  0  0  0  0  0  0  0  0  0  0  0
  143.1769   75.9496  220.5327 H   0  0  0  0  0  0  0  0  0  0  0  0
  143.0324   77.7880  218.2676 H   0  0  0  0  0  0  0  0  0  0  0  0
  143.3957   76.0686  218.1830 H   0  0  0  0  0  0  0  0  0  0  0  0
  141.1071   77.1005  217.1203 H   0  0  0  0  0  0  0  0  0  0  0  0
  141.0745   75.5050  217.8136 H   0  0  0  0  0  0  0  0  0  0  0  0
  139.3456   76.9741  219.1277 H   0  0  0  0  0  0  0  0  0  0  0  0
  141.7269   78.8046  219.1709 H   0  0  0  0  0  0  0  0  0  0  0  0
  140.0029   79.0725  218.5749 H   0  0  0  0  0  0  0  0  0  0  0  0
  139.7047   78.4820  223.1056 H   0  0  0  0  0  0  0  0  0  0  0  0
  141.0869   79.0455  225.0593 H   0  0  0  0  0  0  0  0  0  0  0  0
  143.1708   80.3247  224.7726 H   0  0  0  0  0  0  0  0  0  0  0  0
  143.8715   81.0438  222.5020 H   0  0  0  0  0  0  0  0  0  0  0  0
  142.4887   80.4797  220.5654 H   0  0  0  0  0  0  0  0  0  0  0  0
  138.9443   69.7038  222.2883 H   0  0  0  0  0  0  0  0  0  0  0  0
  138.7921   68.3117  224.3233 H   0  0  0  0  0  0  0  0  0  0  0  0
  139.2452   68.0984  226.7240 H   0  0  0  0  0  0  0  0  0  0  0  0
  141.1398   71.2858  228.8790 H   0  0  0  0  0  0  0  0  0  0  0  0
  141.2304   72.5847  226.7646 H   0  0  0  0  0  0  0  0  0  0  0  0
  1  2  2  0
  2  3  1  0
  3  4  1  0
  4  5  1  0
  5  6  2  0
  5  7  1  0
  7  8  1  0
  8  9  1  0
  9 10  1  0
 10 11  1  0
 11 12  1  0
 12 13  1  0
 13 14  1  0
 14 15  2  0
 15 16  1  0
 16 17  2  0
 17 18  1  0
 18 19  2  0
  2 20  1  0
 20 21  2  0
 21 22  1  0
 22 23  2  0
 23 24  1  0
 24 25  2  0
 25 26  1  0
 25 27  1  0
 27 28  2  0
 28 29  1  0
 29 30  2  0
 11  7  1  0
 19 14  1  0
 30 20  1  0
 29 23  1  0
  3 31  1  0
  4 32  1  0
  4 33  1  0
  8 34  1  0
  8 35  1  0
  9 36  1  0
  9 37  1  0
 10 38  1  0
 10 39  1  0
 11 40  1  6
 12 41  1  0
 12 42  1  0
 15 43  1  0
 16 44  1  0
 17 45  1  0
 18 46  1  0
 19 47  1  0
 21 48  1  0
 22 49  1  0
 24 50  1  0
 27 51  1  0
 28 52  1  0
M  END
>  <smiles>  (22) 
O=C(NCC(=O)N1CCC[C@@H]1COc1ccccc1)c1ccc2cc(F)ccc2n1

>  <score_type>  (22) 
oracle

>  <origin>  (22) 
autodockgpu

>  <m_score__min__energy>  (22) 
-8.4499999999999993

>  <m_primary>  (22) 
energy

>  <rmsd>  (22) 
2.00090130012449

>  <m_score__min__rmsd>  (22) 
2.00090130012449

>  <meeko>  (22) 
{"free_energy": -8.05, "intermolecular_energy": -10.14, "internal_energy": -2.26, "cluster_size": 22, "cluster_id": 1, "rank_in_cluster": 11}

>  <energy>  (22) 
-7.31

>  <cluster_rmsd>  (22) 
1.54

>  <cluster>  (22) 
1

$$$$

     RDKit          3D

 52 55  0  0  0  0  0  0  0  0999 V2000
  140.7170   71.7730  221.0520 O   0  0  0  0  0  0  0  0  0  0  0  0
  140.1720   72.2750  222.0710 C   0  0  0  0  0  0  0  0  0  0  0  0
  139.6900   73.6000  222.1090 N   0  0  0  0  0  0  0  0  0  0  0  0
  139.8140   74.4370  220.9350 C   0  0  0  0  0  0  0  0  0  0  0  0
  140.6870   75.5930  221.2700 C   0  0  0  0  0  0  0  0  0  0  0  0
  140.5960   76.1580  222.4070 O   0  0  0  0  0  0  0  0  0  0  0  0
  141.6040   76.0320  220.2890 N   0  0  0  0  0  0  0  0  0  0  0  0
  143.0010   75.6670  220.0930 C   0  0  0  0  0  0  0  0  0  0  0  0
  143.2160   75.7370  218.5820 C   0  0  0  0  0  0  0  0  0  0  0  0
  141.8890   76.1580  218.0390 C   0  0  0  0  0  0  0  0  0  0  0  0
  141.3350   76.9940  219.2080 C   0  0  2  0  0  0  0  0  0  0  0  0
  142.1920   78.2220  219.4080 C   0  0  0  0  0  0  0  0  0  0  0  0
  141.5790   79.2800  220.0510 O   0  0  0  0  0  0  0  0  0  0  0  0
  141.7440   79.8400  221.2650 C   0  0  0  0  0  0  0  0  0  0  0  0
  141.6410   81.1740  221.5920 C   0  0  0  0  0  0  0  0  0  0  0  0
  141.8290   81.6460  222.8750 C   0  0  0  0  0  0  0  0  0  0  0  0
  142.1320   80.7810  223.8780 C   0  0  0  0  0  0  0  0  0  0  0  0
  142.2490   79.4370  223.6070 C   0  0  0  0  0  0  0  0  0  0  0  0
  142.0580   78.9900  222.3290 C   0  0  0  0  0  0  0  0  0  0  0  0
  140.0260   71.4610  223.2850 C   0  0  0  0  0  0  0  0  0  0  0  0
  139.3880   70.2340  223.2550 C   0  0  0  0  0  0  0  0  0  0  0  0
  139.2360   69.4480  224.3800 C   0  0  0  0  0  0  0  0  0  0  0  0
  139.7400   69.9040  225.5870 C   0  0  0  0  0  0  0  0  0  0  0  0
  139.6360   69.1960  226.7460 C   0  0  0  0  0  0  0  0  0  0  0  0
  140.1400   69.6520  227.9480 C   0  0  0  0  0  0  0  0  0  0  0  0
  140.0430   68.9600  229.1050 F   0  0  0  0  0  0  0  0  0  0  0  0
  140.7770   70.8770  227.9860 C   0  0  0  0  0  0  0  0  0  0  0  0
  140.8830   71.5970  226.8070 C   0  0  0  0  0  0  0  0  0  0  0  0
  140.3730   71.1250  225.6070 C   0  0  0  0  0  0  0  0  0  0  0  0
  140.4990   71.8610  224.4820 N   0  0  0  0  0  0  0  0  0  0  0  0
  139.2360   74.0040  222.9760 H   0  0  0  0  0  0  0  0  0  0  0  0
  140.2622   73.8594  220.1131 H   0  0  0  0  0  0  0  0  0  0  0  0
  138.8222   74.7927  220.6192 H   0  0  0  0  0  0  0  0  0  0  0  0
  143.6629   76.3762  220.6116 H   0  0  0  0  0  0  0  0  0  0  0  0
  143.2300   74.6705  220.4986 H   0  0  0  0  0  0  0  0  0  0  0  0
  143.9913   76.4764  218.3326 H   0  0  0  0  0  0  0  0  0  0  0  0
  143.5575   74.7796  218.1614 H   0  0  0  0  0  0  0  0  0  0  0  0
  142.0008   76.7643  217.1280 H   0  0  0  0  0  0  0  0  0  0  0  0
  141.2408   75.3224  217.7363 H   0  0  0  0  0  0  0  0  0  0  0  0
  140.2997   77.3518  219.1074 H   0  0  0  0  0  0  0  0  0  0  0  0
  143.0705   77.9285  220.0015 H   0  0  0  0  0  0  0  0  0  0  0  0
  142.4376   78.5849  218.3990 H   0  0  0  0  0  0  0  0  0  0  0  0
  141.3985   81.8939  220.7964 H   0  0  0  0  0  0  0  0  0  0  0  0
  141.7336   82.7215  223.0855 H   0  0  0  0  0  0  0  0  0  0  0  0
  142.2831   81.1534  224.9020 H   0  0  0  0  0  0  0  0  0  0  0  0
  142.4941   78.7282  224.4117 H   0  0  0  0  0  0  0  0  0  0  0  0
  142.1559   77.9127  222.1293 H   0  0  0  0  0  0  0  0  0  0  0  0
  138.9862   69.8703  222.2978 H   0  0  0  0  0  0  0  0  0  0  0  0
  138.7236   68.4766  224.3188 H   0  0  0  0  0  0  0  0  0  0  0  0
  139.1292   68.2200  226.7235 H   0  0  0  0  0  0  0  0  0  0  0  0
  141.1890   71.2704  228.9270 H   0  0  0  0  0  0  0  0  0  0  0  0
  141.3878   72.5742  226.8234 H   0  0  0  0  0  0  0  0  0  0  0  0
  1  2  2  0
  2  3  1  0
  3  4  1  0
  4  5  1  0
  5  6  2  0
  5  7  1  0
  7  8  1  0
  8  9  1  0
  9 10  1  0
 10 11  1  0
 11 12  1  0
 12 13  1  0
 13 14  1  0
 14 15  2  0
 15 16  1  0
 16 17  2  0
 17 18  1  0
 18 19  2  0
  2 20  1  0
 20 21  2  0
 21 22  1  0
 22 23  2  0
 23 24  1  0
 24 25  2  0
 25 26  1  0
 25 27  1  0
 27 28  2  0
 28 29  1  0
 29 30  2  0
 11  7  1  0
 19 14  1  0
 30 20  1  0
 29 23  1  0
  3 31  1  0
  4 32  1  0
  4 33  1  0
  8 34  1  0
  8 35  1  0
  9 36  1  0
  9 37  1  0
 10 38  1  0
 10 39  1  0
 11 40  1  6
 12 41  1  0
 12 42  1  0
 15 43  1  0
 16 44  1  0
 17 45  1  0
 18 46  1  0
 19 47  1  0
 21 48  1  0
 22 49  1  0
 24 50  1  0
 27 51  1  0
 28 52  1  0
M  END
>  <smiles>  (23) 
O=C(NCC(=O)N1CCC[C@@H]1COc1ccccc1)c1ccc2cc(F)ccc2n1

>  <score_type>  (23) 
oracle

>  <origin>  (23) 
autodockgpu

>  <m_score__min__energy>  (23) 
-8.4499999999999993

>  <m_primary>  (23) 
energy

>  <rmsd>  (23) 
2.104136315433666

>  <m_score__min__rmsd>  (23) 
2.104136315433666

>  <meeko>  (23) 
{"free_energy": -8.45, "intermolecular_energy": -10.54, "internal_energy": -1.75, "cluster_size": 22, "cluster_id": 1, "rank_in_cluster": 1}

>  <energy>  (23) 
-8.3

>  <cluster_rmsd>  (23) 
0.0

>  <cluster>  (23) 
2

$$$$

     RDKit          3D

 52 55  0  0  0  0  0  0  0  0999 V2000
  140.3340   71.1860  221.0550 O   0  0  0  0  0  0  0  0  0  0  0  0
  140.0420   71.7860  222.1240 C   0  0  0  0  0  0  0  0  0  0  0  0
  139.8260   73.1780  222.1880 N   0  0  0  0  0  0  0  0  0  0  0  0
  139.9400   73.9720  220.9840 C   0  0  0  0  0  0  0  0  0  0  0  0
  140.3890   75.3390  221.3620 C   0  0  0  0  0  0  0  0  0  0  0  0
  140.0310   75.8490  222.4710 O   0  0  0  0  0  0  0  0  0  0  0  0
  141.2150   76.0350  220.4500 N   0  0  0  0  0  0  0  0  0  0  0  0
  142.6040   75.7950  220.0840 C   0  0  0  0  0  0  0  0  0  0  0  0
  142.7020   76.2180  218.6190 C   0  0  0  0  0  0  0  0  0  0  0  0
  141.3250   76.6860  218.2770 C   0  0  0  0  0  0  0  0  0  0  0  0
  140.8340   77.2040  219.6410 C   0  0  2  0  0  0  0  0  0  0  0  0
  141.6620   78.3950  220.0640 C   0  0  0  0  0  0  0  0  0  0  0  0
  142.0380   78.4200  221.3940 O   0  0  0  0  0  0  0  0  0  0  0  0
  142.1580   79.4110  222.2980 C   0  0  0  0  0  0  0  0  0  0  0  0
  143.3070   79.8370  222.9250 C   0  0  0  0  0  0  0  0  0  0  0  0
  143.3210   80.8700  223.8400 C   0  0  0  0  0  0  0  0  0  0  0  0
  142.1650   81.5100  224.1560 C   0  0  0  0  0  0  0  0  0  0  0  0
  140.9870   81.1240  223.5600 C   0  0  0  0  0  0  0  0  0  0  0  0
  140.9950   80.1000  222.6560 C   0  0  0  0  0  0  0  0  0  0  0  0
  139.9170   71.0180  223.3700 C   0  0  0  0  0  0  0  0  0  0  0  0
  139.3340   69.7640  223.3860 C   0  0  0  0  0  0  0  0  0  0  0  0
  139.2030   69.0200  224.5420 C   0  0  0  0  0  0  0  0  0  0  0  0
  139.6730   69.5480  225.7330 C   0  0  0  0  0  0  0  0  0  0  0  0
  139.5860   68.8850  226.9210 C   0  0  0  0  0  0  0  0  0  0  0  0
  140.0550   69.4140  228.1070 C   0  0  0  0  0  0  0  0  0  0  0  0
  139.9750   68.7670  229.2920 F   0  0  0  0  0  0  0  0  0  0  0  0
  140.6380   70.6660  228.0990 C   0  0  0  0  0  0  0  0  0  0  0  0
  140.7260   71.3400  226.8910 C   0  0  0  0  0  0  0  0  0  0  0  0
  140.2510   70.7960  225.7070 C   0  0  0  0  0  0  0  0  0  0  0  0
  140.3580   71.4880  224.5540 N   0  0  0  0  0  0  0  0  0  0  0  0
  139.5820   73.6640  223.0980 H   0  0  0  0  0  0  0  0  0  0  0  0
  140.6750   73.5142  220.3056 H   0  0  0  0  0  0  0  0  0  0  0  0
  138.9679   74.0223  220.4717 H   0  0  0  0  0  0  0  0  0  0  0  0
  143.2788   76.3998  220.7076 H   0  0  0  0  0  0  0  0  0  0  0  0
  142.8965   74.7451  220.2328 H   0  0  0  0  0  0  0  0  0  0  0  0
  143.4318   77.0318  218.4964 H   0  0  0  0  0  0  0  0  0  0  0  0
  143.0418   75.3997  217.9671 H   0  0  0  0  0  0  0  0  0  0  0  0
  141.3478   77.4893  217.5258 H   0  0  0  0  0  0  0  0  0  0  0  0
  140.6836   75.9108  217.8325 H   0  0  0  0  0  0  0  0  0  0  0  0
  139.7828   77.5238  219.6937 H   0  0  0  0  0  0  0  0  0  0  0  0
  142.5770   78.4048  219.4536 H   0  0  0  0  0  0  0  0  0  0  0  0
  141.0192   79.2754  219.9168 H   0  0  0  0  0  0  0  0  0  0  0  0
  144.2548   79.3323  222.6865 H   0  0  0  0  0  0  0  0  0  0  0  0
  144.2664   81.1747  224.3126 H   0  0  0  0  0  0  0  0  0  0  0  0
  142.1711   82.3334  224.8854 H   0  0  0  0  0  0  0  0  0  0  0  0
  140.0459   81.6359  223.8094 H   0  0  0  0  0  0  0  0  0  0  0  0
  140.0441   79.8041  222.1888 H   0  0  0  0  0  0  0  0  0  0  0  0
  138.9601   69.3428  222.4411 H   0  0  0  0  0  0  0  0  0  0  0  0
  138.7336   68.0255  224.5173 H   0  0  0  0  0  0  0  0  0  0  0  0
  139.1230   67.8873  226.9353 H   0  0  0  0  0  0  0  0  0  0  0  0
  141.0221   71.1161  229.0263 H   0  0  0  0  0  0  0  0  0  0  0  0
  141.1874   72.3384  226.8708 H   0  0  0  0  0  0  0  0  0  0  0  0
  1  2  2  0
  2  3  1  0
  3  4  1  0
  4  5  1  0
  5  6  2  0
  5  7  1  0
  7  8  1  0
  8  9  1  0
  9 10  1  0
 10 11  1  0
 11 12  1  0
 12 13  1  0
 13 14  1  0
 14 15  2  0
 15 16  1  0
 16 17  2  0
 17 18  1  0
 18 19  2  0
  2 20  1  0
 20 21  2  0
 21 22  1  0
 22 23  2  0
 23 24  1  0
 24 25  2  0
 25 26  1  0
 25 27  1  0
 27 28  2  0
 28 29  1  0
 29 30  2  0
 11  7  1  0
 19 14  1  0
 30 20  1  0
 29 23  1  0
  3 31  1  0
  4 32  1  0
  4 33  1  0
  8 34  1  0
  8 35  1  0
  9 36  1  0
  9 37  1  0
 10 38  1  0
 10 39  1  0
 11 40  1  6
 12 41  1  0
 12 42  1  0
 15 43  1  0
 16 44  1  0
 17 45  1  0
 18 46  1  0
 19 47  1  0
 21 48  1  0
 22 49  1  0
 24 50  1  0
 27 51  1  0
 28 52  1  0
M  END
>  <smiles>  (24) 
O=C(NCC(=O)N1CCC[C@@H]1COc1ccccc1)c1ccc2cc(F)ccc2n1

>  <score_type>  (24) 
oracle

>  <origin>  (24) 
autodockgpu

>  <m_score__min__energy>  (24) 
-8.4499999999999993

>  <m_primary>  (24) 
energy

>  <rmsd>  (24) 
1.8782036197363594

>  <m_score__min__rmsd>  (24) 
1.8782036197363594

>  <meeko>  (24) 
{"free_energy": -8.3, "intermolecular_energy": -10.39, "internal_energy": -1.92, "cluster_size": 22, "cluster_id": 1, "rank_in_cluster": 4}

>  <energy>  (24) 
-8.0

>  <cluster_rmsd>  (24) 
0.0

>  <cluster>  (24) 
3

$$$$

     RDKit          3D

 52 55  0  0  0  0  0  0  0  0999 V2000
  137.8260   70.8990  221.9290 O   0  0  0  0  0  0  0  0  0  0  0  0
  138.6430   71.3350  222.7830 C   0  0  0  0  0  0  0  0  0  0  0  0
  139.1950   72.6310  222.7250 N   0  0  0  0  0  0  0  0  0  0  0  0
  138.8190   73.5170  221.6440 C   0  0  0  0  0  0  0  0  0  0  0  0
  139.7370   74.6870  221.6520 C   0  0  0  0  0  0  0  0  0  0  0  0
  140.9110   74.5790  222.1320 O   0  0  0  0  0  0  0  0  0  0  0  0
  139.2580   75.9030  221.1140 N   0  0  0  0  0  0  0  0  0  0  0  0
  139.9220   76.8570  220.2370 C   0  0  0  0  0  0  0  0  0  0  0  0
  138.8040   77.4430  219.3770 C   0  0  0  0  0  0  0  0  0  0  0  0
  137.5680   76.7600  219.8630 C   0  0  0  0  0  0  0  0  0  0  0  0
  137.9280   76.4940  221.3360 C   0  0  2  0  0  0  0  0  0  0  0  0
  138.0810   77.8060  222.0690 C   0  0  0  0  0  0  0  0  0  0  0  0
  139.1690   77.8920  222.9180 O   0  0  0  0  0  0  0  0  0  0  0  0
  140.1450   78.8080  223.0730 C   0  0  0  0  0  0  0  0  0  0  0  0
  139.9990   80.1440  223.3700 C   0  0  0  0  0  0  0  0  0  0  0  0
  141.0720   81.0010  223.5100 C   0  0  0  0  0  0  0  0  0  0  0  0
  142.3370   80.5330  223.3500 C   0  0  0  0  0  0  0  0  0  0  0  0
  142.5410   79.2060  223.0510 C   0  0  0  0  0  0  0  0  0  0  0  0
  141.4650   78.3740  222.9170 C   0  0  0  0  0  0  0  0  0  0  0  0
  139.0520   70.4700  223.8970 C   0  0  0  0  0  0  0  0  0  0  0  0
  138.8120   69.1070  223.8740 C   0  0  0  0  0  0  0  0  0  0  0  0
  139.1860   68.2700  224.9070 C   0  0  0  0  0  0  0  0  0  0  0  0
  139.8250   68.8120  226.0100 C   0  0  0  0  0  0  0  0  0  0  0  0
  140.2290   68.0630  227.0730 C   0  0  0  0  0  0  0  0  0  0  0  0
  140.8650   68.6050  228.1710 C   0  0  0  0  0  0  0  0  0  0  0  0
  141.2700   67.8730  229.2330 F   0  0  0  0  0  0  0  0  0  0  0  0
  141.1080   69.9650  228.2010 C   0  0  0  0  0  0  0  0  0  0  0  0
  140.6970   70.7280  227.1190 C   0  0  0  0  0  0  0  0  0  0  0  0
  140.0590   70.1680  226.0230 C   0  0  0  0  0  0  0  0  0  0  0  0
  139.6770   70.9500  224.9910 N   0  0  0  0  0  0  0  0  0  0  0  0
  139.8810   72.9800  223.4530 H   0  0  0  0  0  0  0  0  0  0  0  0
  138.9019   72.9868  220.6838 H   0  0  0  0  0  0  0  0  0  0  0  0
  137.7797   73.8524  221.7757 H   0  0  0  0  0  0  0  0  0  0  0  0
  140.4127   77.6467  220.8248 H   0  0  0  0  0  0  0  0  0  0  0  0
  140.7077   76.3842  219.6295 H   0  0  0  0  0  0  0  0  0  0  0  0
  138.7306   78.5310  219.5218 H   0  0  0  0  0  0  0  0  0  0  0  0
  138.9752   77.2869  218.3017 H   0  0  0  0  0  0  0  0  0  0  0  0
  136.6868   77.4125  219.7756 H   0  0  0  0  0  0  0  0  0  0  0  0
  137.3001   75.8568  219.2951 H   0  0  0  0  0  0  0  0  0  0  0  0
  137.2090   75.8972  221.9165 H   0  0  0  0  0  0  0  0  0  0  0  0
  138.1735   78.6045  221.3181 H   0  0  0  0  0  0  0  0  0  0  0  0
  137.1913   77.8989  222.7092 H   0  0  0  0  0  0  0  0  0  0  0  0
  138.9836   80.5461  223.5014 H   0  0  0  0  0  0  0  0  0  0  0  0
  140.9029   82.0609  223.7507 H   0  0  0  0  0  0  0  0  0  0  0  0
  143.1950   81.2126  223.4591 H   0  0  0  0  0  0  0  0  0  0  0  0
  143.5619   78.8176  222.9208 H   0  0  0  0  0  0  0  0  0  0  0  0
  141.6454   77.3161  222.6758 H   0  0  0  0  0  0  0  0  0  0  0  0
  138.3040   68.6739  222.9997 H   0  0  0  0  0  0  0  0  0  0  0  0
  138.9798   67.1908  224.8547 H   0  0  0  0  0  0  0  0  0  0  0  0
  140.0403   66.9795  227.0556 H   0  0  0  0  0  0  0  0  0  0  0  0
  141.6139   70.4296  229.0602 H   0  0  0  0  0  0  0  0  0  0  0  0
  140.8830   71.8121  227.1305 H   0  0  0  0  0  0  0  0  0  0  0  0
  1  2  2  0
  2  3  1  0
  3  4  1  0
  4  5  1  0
  5  6  2  0
  5  7  1  0
  7  8  1  0
  8  9  1  0
  9 10  1  0
 10 11  1  0
 11 12  1  0
 12 13  1  0
 13 14  1  0
 14 15  2  0
 15 16  1  0
 16 17  2  0
 17 18  1  0
 18 19  2  0
  2 20  1  0
 20 21  2  0
 21 22  1  0
 22 23  2  0
 23 24  1  0
 24 25  2  0
 25 26  1  0
 25 27  1  0
 27 28  2  0
 28 29  1  0
 29 30  2  0
 11  7  1  0
 19 14  1  0
 30 20  1  0
 29 23  1  0
  3 31  1  0
  4 32  1  0
  4 33  1  0
  8 34  1  0
  8 35  1  0
  9 36  1  0
  9 37  1  0
 10 38  1  0
 10 39  1  0
 11 40  1  1
 12 41  1  0
 12 42  1  0
 15 43  1  0
 16 44  1  0
 17 45  1  0
 18 46  1  0
 19 47  1  0
 21 48  1  0
 22 49  1  0
 24 50  1  0
 27 51  1  0
 28 52  1  0
M  END
>  <smiles>  (25) 
O=C(NCC(=O)N1CCC[C@@H]1COc1ccccc1)c1ccc2cc(F)ccc2n1

>  <score_type>  (25) 
oracle

>  <origin>  (25) 
autodockgpu

>  <m_score__min__energy>  (25) 
-8.4499999999999993

>  <m_primary>  (25) 
energy

>  <rmsd>  (25) 
2.13122258650792

>  <m_score__min__rmsd>  (25) 
2.13122258650792

>  <meeko>  (25) 
{"free_energy": -7.79, "intermolecular_energy": -9.88, "internal_energy": -2.17, "cluster_size": 22, "cluster_id": 1, "rank_in_cluster": 20}

>  <energy>  (25) 
-7.99

>  <cluster_rmsd>  (25) 
1.2

>  <cluster>  (25) 
3

$$$$

     RDKit          3D

 52 55  0  0  0  0  0  0  0  0999 V2000
  137.1480   75.9780  221.8170 O   0  0  0  0  0  0  0  0  0  0  0  0
  138.3530   76.0220  222.1820 C   0  0  0  0  0  0  0  0  0  0  0  0
  139.1830   74.8830  222.2250 N   0  0  0  0  0  0  0  0  0  0  0  0
  138.6480   73.5960  221.8360 C   0  0  0  0  0  0  0  0  0  0  0  0
  139.4290   72.5340  222.5230 C   0  0  0  0  0  0  0  0  0  0  0  0
  140.6730   72.6870  222.7360 O   0  0  0  0  0  0  0  0  0  0  0  0
  138.7400   71.3650  222.9210 N   0  0  0  0  0  0  0  0  0  0  0  0
  137.4600   71.2260  223.6000 C   0  0  0  0  0  0  0  0  0  0  0  0
  136.8670   69.9260  223.0580 C   0  0  0  0  0  0  0  0  0  0  0  0
  137.8970   69.4220  222.1010 C   0  0  0  0  0  0  0  0  0  0  0  0
  139.1900   69.9760  222.7270 C   0  0  2  0  0  0  0  0  0  0  0  0
  139.4210   69.3340  224.0750 C   0  0  0  0  0  0  0  0  0  0  0  0
  140.5150   69.8000  224.7790 O   0  0  0  0  0  0  0  0  0  0  0  0
  140.6420   70.5190  225.9110 C   0  0  0  0  0  0  0  0  0  0  0  0
  141.3740   71.6710  226.0920 C   0  0  0  0  0  0  0  0  0  0  0  0
  141.4370   72.3350  227.3010 C   0  0  0  0  0  0  0  0  0  0  0  0
  140.7580   71.8530  228.3740 C   0  0  0  0  0  0  0  0  0  0  0  0
  140.0110   70.7040  228.2490 C   0  0  0  0  0  0  0  0  0  0  0  0
  139.9620   70.0620  227.0440 C   0  0  0  0  0  0  0  0  0  0  0  0
  138.9370   77.3080  222.5860 C   0  0  0  0  0  0  0  0  0  0  0  0
  138.1410   78.4060  222.8550 C   0  0  0  0  0  0  0  0  0  0  0  0
  138.6630   79.6270  223.2360 C   0  0  0  0  0  0  0  0  0  0  0  0
  140.0360   79.7590  223.3550 C   0  0  0  0  0  0  0  0  0  0  0  0
  140.6380   80.9230  223.7250 C   0  0  0  0  0  0  0  0  0  0  0  0
  142.0070   81.0520  223.8420 C   0  0  0  0  0  0  0  0  0  0  0  0
  142.6170   82.2020  224.2080 F   0  0  0  0  0  0  0  0  0  0  0  0
  142.8090   79.9600  223.5740 C   0  0  0  0  0  0  0  0  0  0  0  0
  142.1970   78.7750  223.1980 C   0  0  0  0  0  0  0  0  0  0  0  0
  140.8200   78.6600  223.0850 C   0  0  0  0  0  0  0  0  0  0  0  0
  140.2670   77.4860  222.7150 N   0  0  0  0  0  0  0  0  0  0  0  0
  140.1940   74.9410  222.5360 H   0  0  0  0  0  0  0  0  0  0  0  0
  137.5905   73.5290  222.1314 H   0  0  0  0  0  0  0  0  0  0  0  0
  138.7202   73.4716  220.7455 H   0  0  0  0  0  0  0  0  0  0  0  0
  137.6043   71.1614  224.6886 H   0  0  0  0  0  0  0  0  0  0  0  0
  136.8006   72.0882  223.4215 H   0  0  0  0  0  0  0  0  0  0  0  0
  136.7036   69.2033  223.8711 H   0  0  0  0  0  0  0  0  0  0  0  0
  135.8877   70.0775  222.5805 H   0  0  0  0  0  0  0  0  0  0  0  0
  137.9073   68.3227  222.0630 H   0  0  0  0  0  0  0  0  0  0  0  0
  137.7329   69.7329  221.0587 H   0  0  0  0  0  0  0  0  0  0  0  0
  140.1156   69.8284  222.1512 H   0  0  0  0  0  0  0  0  0  0  0  0
  138.5250   69.5057  224.6896 H   0  0  0  0  0  0  0  0  0  0  0  0
  139.6243   68.2723  223.8716 H   0  0  0  0  0  0  0  0  0  0  0  0
  141.9324   72.0798  225.2370 H   0  0  0  0  0  0  0  0  0  0  0  0
  142.0361   73.2528  227.3950 H   0  0  0  0  0  0  0  0  0  0  0  0
  140.8050   72.3789  229.3390 H   0  0  0  0  0  0  0  0  0  0  0  0
  139.4578   70.3057  229.1123 H   0  0  0  0  0  0  0  0  0  0  0  0
  139.3607   69.1446  226.9615 H   0  0  0  0  0  0  0  0  0  0  0  0
  137.0498   78.3034  222.7620 H   0  0  0  0  0  0  0  0  0  0  0  0
  137.9991   80.4797  223.4413 H   0  0  0  0  0  0  0  0  0  0  0  0
  140.0063   81.7976  223.9398 H   0  0  0  0  0  0  0  0  0  0  0  0
  143.9037   80.0291  223.6568 H   0  0  0  0  0  0  0  0  0  0  0  0
  142.8239   77.8973  222.9822 H   0  0  0  0  0  0  0  0  0  0  0  0
  1  2  2  0
  2  3  1  0
  3  4  1  0
  4  5  1  0
  5  6  2  0
  5  7  1  0
  7  8  1  0
  8  9  1  0
  9 10  1  0
 10 11  1  0
 11 12  1  0
 12 13  1  0
 13 14  1  0
 14 15  2  0
 15 16  1  0
 16 17  2  0
 17 18  1  0
 18 19  2  0
  2 20  1  0
 20 21  2  0
 21 22  1  0
 22 23  2  0
 23 24  1  0
 24 25  2  0
 25 26  1  0
 25 27  1  0
 27 28  2  0
 28 29  1  0
 29 30  2  0
 11  7  1  0
 19 14  1  0
 30 20  1  0
 29 23  1  0
  3 31  1  0
  4 32  1  0
  4 33  1  0
  8 34  1  0
  8 35  1  0
  9 36  1  0
  9 37  1  0
 10 38  1  0
 10 39  1  0
 11 40  1  6
 12 41  1  0
 12 42  1  0
 15 43  1  0
 16 44  1  0
 17 45  1  0
 18 46  1  0
 19 47  1  0
 21 48  1  0
 22 49  1  0
 24 50  1  0
 27 51  1  0
 28 52  1  0
M  END
>  <smiles>  (26) 
O=C(NCC(=O)N1CCC[C@@H]1COc1ccccc1)c1ccc2cc(F)ccc2n1

>  <score_type>  (26) 
oracle

>  <origin>  (26) 
autodockgpu

>  <m_score__min__energy>  (26) 
-8.4499999999999993

>  <m_primary>  (26) 
energy

>  <rmsd>  (26) 
8.577044413091734

>  <m_score__min__rmsd>  (26) 
8.577044413091734

>  <meeko>  (26) 
{"free_energy": -7.91, "intermolecular_energy": -10.0, "internal_energy": -2.22, "cluster_size": 14, "cluster_id": 3, "rank_in_cluster": 5}

>  <energy>  (26) 
-7.99

>  <cluster_rmsd>  (26) 
0.51

>  <cluster>  (26) 
3

$$$$

     RDKit          3D

 52 55  0  0  0  0  0  0  0  0999 V2000
  138.0080   70.4590  221.7080 O   0  0  0  0  0  0  0  0  0  0  0  0
  138.6450   71.0390  222.6280 C   0  0  0  0  0  0  0  0  0  0  0  0
  138.9960   72.4030  222.5750 N   0  0  0  0  0  0  0  0  0  0  0  0
  138.6160   73.1930  221.4240 C   0  0  0  0  0  0  0  0  0  0  0  0
  139.3500   74.4850  221.4750 C   0  0  0  0  0  0  0  0  0  0  0  0
  140.3060   74.6480  222.2990 O   0  0  0  0  0  0  0  0  0  0  0  0
  138.9470   75.5070  220.5850 N   0  0  0  0  0  0  0  0  0  0  0  0
  138.6680   75.4390  219.1570 C   0  0  0  0  0  0  0  0  0  0  0  0
  137.5710   76.4770  218.9230 C   0  0  0  0  0  0  0  0  0  0  0  0
  137.3270   77.0670  220.2740 C   0  0  0  0  0  0  0  0  0  0  0  0
  138.7140   76.9200  220.9240 C   0  0  2  0  0  0  0  0  0  0  0  0
  139.7160   77.7810  220.1900 C   0  0  0  0  0  0  0  0  0  0  0  0
  139.9840   79.0080  220.7660 O   0  0  0  0  0  0  0  0  0  0  0  0
  140.8520   79.4100  221.7140 C   0  0  0  0  0  0  0  0  0  0  0  0
  141.6520   80.5300  221.6950 C   0  0  0  0  0  0  0  0  0  0  0  0
  142.5120   80.8530  222.7260 C   0  0  0  0  0  0  0  0  0  0  0  0
  142.5930   80.0480  223.8170 C   0  0  0  0  0  0  0  0  0  0  0  0
  141.8170   78.9140  223.8880 C   0  0  0  0  0  0  0  0  0  0  0  0
  140.9720   78.6130  222.8570 C   0  0  0  0  0  0  0  0  0  0  0  0
  139.0510   70.2750  223.8150 C   0  0  0  0  0  0  0  0  0  0  0  0
  138.8290   68.9120  223.9030 C   0  0  0  0  0  0  0  0  0  0  0  0
  139.2010   68.1700  225.0070 C   0  0  0  0  0  0  0  0  0  0  0  0
  139.8190   68.8110  226.0670 C   0  0  0  0  0  0  0  0  0  0  0  0
  140.2190   68.1580  227.1940 C   0  0  0  0  0  0  0  0  0  0  0  0
  140.8350   68.8000  228.2490 C   0  0  0  0  0  0  0  0  0  0  0  0
  141.2370   68.1640  229.3740 F   0  0  0  0  0  0  0  0  0  0  0  0
  141.0600   70.1600  228.1680 C   0  0  0  0  0  0  0  0  0  0  0  0
  140.6540   70.8240  227.0220 C   0  0  0  0  0  0  0  0  0  0  0  0
  140.0360   70.1660  225.9690 C   0  0  0  0  0  0  0  0  0  0  0  0
  139.6570   70.8530  224.8710 N   0  0  0  0  0  0  0  0  0  0  0  0
  139.5330   72.8720  223.3590 H   0  0  0  0  0  0  0  0  0  0  0  0
  138.8774   72.6540  220.5014 H   0  0  0  0  0  0  0  0  0  0  0  0
  137.5313   73.3753  221.4337 H   0  0  0  0  0  0  0  0  0  0  0  0
  139.5673   75.6877  218.5743 H   0  0  0  0  0  0  0  0  0  0  0  0
  138.3597   74.4312  218.8420 H   0  0  0  0  0  0  0  0  0  0  0  0
  137.9092   77.2488  218.2160 H   0  0  0  0  0  0  0  0  0  0  0  0
  136.6624   76.0371  218.4861 H   0  0  0  0  0  0  0  0  0  0  0  0
  137.0254   78.1225  220.2037 H   0  0  0  0  0  0  0  0  0  0  0  0
  136.5136   76.5842  220.8355 H   0  0  0  0  0  0  0  0  0  0  0  0
  138.7887   77.1952  221.9864 H   0  0  0  0  0  0  0  0  0  0  0  0
  140.6615   77.2223  220.1285 H   0  0  0  0  0  0  0  0  0  0  0  0
  139.2645   78.0002  219.2112 H   0  0  0  0  0  0  0  0  0  0  0  0
  141.6042   81.1963  220.8211 H   0  0  0  0  0  0  0  0  0  0  0  0
  143.1304   81.7606  222.6638 H   0  0  0  0  0  0  0  0  0  0  0  0
  143.2764   80.3017  224.6407 H   0  0  0  0  0  0  0  0  0  0  0  0
  141.8763   78.2554  224.7670 H   0  0  0  0  0  0  0  0  0  0  0  0
  140.3586   77.7028  222.9294 H   0  0  0  0  0  0  0  0  0  0  0  0
  138.3379   68.4003  223.0622 H   0  0  0  0  0  0  0  0  0  0  0  0
  139.0093   67.0874  225.0434 H   0  0  0  0  0  0  0  0  0  0  0  0
  140.0437   67.0744  227.2659 H   0  0  0  0  0  0  0  0  0  0  0  0
  141.5485   70.7016  228.9914 H   0  0  0  0  0  0  0  0  0  0  0  0
  140.8273   71.9075  226.9447 H   0  0  0  0  0  0  0  0  0  0  0  0
  1  2  2  0
  2  3  1  0
  3  4  1  0
  4  5  1  0
  5  6  2  0
  5  7  1  0
  7  8  1  0
  8  9  1  0
  9 10  1  0
 10 11  1  0
 11 12  1  0
 12 13  1  0
 13 14  1  0
 14 15  2  0
 15 16  1  0
 16 17  2  0
 17 18  1  0
 18 19  2  0
  2 20  1  0
 20 21  2  0
 21 22  1  0
 22 23  2  0
 23 24  1  0
 24 25  2  0
 25 26  1  0
 25 27  1  0
 27 28  2  0
 28 29  1  0
 29 30  2  0
 11  7  1  0
 19 14  1  0
 30 20  1  0
 29 23  1  0
  3 31  1  0
  4 32  1  0
  4 33  1  0
  8 34  1  0
  8 35  1  0
  9 36  1  0
  9 37  1  0
 10 38  1  0
 10 39  1  0
 11 40  1  1
 12 41  1  0
 12 42  1  0
 15 43  1  0
 16 44  1  0
 17 45  1  0
 18 46  1  0
 19 47  1  0
 21 48  1  0
 22 49  1  0
 24 50  1  0
 27 51  1  0
 28 52  1  0
M  END
>  <smiles>  (27) 
O=C(NCC(=O)N1CCC[C@@H]1COc1ccccc1)c1ccc2cc(F)ccc2n1

>  <score_type>  (27) 
oracle

>  <origin>  (27) 
autodockgpu

>  <m_score__min__energy>  (27) 
-8.4499999999999993

>  <m_primary>  (27) 
energy

>  <rmsd>  (27) 
1.8039019042865374

>  <m_score__min__rmsd>  (27) 
1.8039019042865374

>  <meeko>  (27) 
{"free_energy": -7.52, "intermolecular_energy": -9.61, "internal_energy": -2.08, "cluster_size": 22, "cluster_id": 1, "rank_in_cluster": 21}

>  <energy>  (27) 
-7.92

>  <cluster_rmsd>  (27) 
0.35

>  <cluster>  (27) 
3

$$$$

     RDKit          3D

 52 55  0  0  0  0  0  0  0  0999 V2000
  140.0900   74.6450  222.1450 O   0  0  0  0  0  0  0  0  0  0  0  0
  139.3050   75.6010  221.9030 C   0  0  0  0  0  0  0  0  0  0  0  0
  138.1020   75.4420  221.1860 N   0  0  0  0  0  0  0  0  0  0  0  0
  137.7310   74.1310  220.6980 C   0  0  0  0  0  0  0  0  0  0  0  0
  137.4940   73.2430  221.8660 C   0  0  0  0  0  0  0  0  0  0  0  0
  136.5800   73.5180  222.7070 O   0  0  0  0  0  0  0  0  0  0  0  0
  138.3150   72.1000  222.0010 N   0  0  0  0  0  0  0  0  0  0  0  0
  138.5160   70.9870  221.0840 C   0  0  0  0  0  0  0  0  0  0  0  0
  139.9650   70.5560  221.3020 C   0  0  0  0  0  0  0  0  0  0  0  0
  140.4690   71.4800  222.3630 C   0  0  0  0  0  0  0  0  0  0  0  0
  139.1780   71.7730  223.1480 C   0  0  2  0  0  0  0  0  0  0  0  0
  138.6800   70.5060  223.8020 C   0  0  0  0  0  0  0  0  0  0  0  0
  139.4620   70.0180  224.8320 O   0  0  0  0  0  0  0  0  0  0  0  0
  140.0390   70.5970  225.9030 C   0  0  0  0  0  0  0  0  0  0  0  0
  140.8600   71.7020  225.9160 C   0  0  0  0  0  0  0  0  0  0  0  0
  141.4010   72.2180  227.0760 C   0  0  0  0  0  0  0  0  0  0  0  0
  141.1280   71.6300  228.2700 C   0  0  0  0  0  0  0  0  0  0  0  0
  140.3140   70.5220  228.3150 C   0  0  0  0  0  0  0  0  0  0  0  0
  139.7890   70.0270  227.1550 C   0  0  0  0  0  0  0  0  0  0  0  0
  139.6430   76.9490  222.3790 C   0  0  0  0  0  0  0  0  0  0  0  0
  138.6620   77.8280  222.8010 C   0  0  0  0  0  0  0  0  0  0  0  0
  138.9500   79.1010  223.2540 C   0  0  0  0  0  0  0  0  0  0  0  0
  140.2710   79.5150  223.2880 C   0  0  0  0  0  0  0  0  0  0  0  0
  140.6480   80.7510  223.7200 C   0  0  0  0  0  0  0  0  0  0  0  0
  141.9650   81.1610  223.7530 C   0  0  0  0  0  0  0  0  0  0  0  0
  142.3520   82.3850  224.1780 F   0  0  0  0  0  0  0  0  0  0  0  0
  142.9500   80.2890  223.3330 C   0  0  0  0  0  0  0  0  0  0  0  0
  142.5670   79.0310  222.8940 C   0  0  0  0  0  0  0  0  0  0  0  0
  141.2400   78.6330  222.8670 C   0  0  0  0  0  0  0  0  0  0  0  0
  140.9130   77.3980  222.4320 N   0  0  0  0  0  0  0  0  0  0  0  0
  137.4560   76.2590  220.9910 H   0  0  0  0  0  0  0  0  0  0  0  0
  136.8134   74.2051  220.0959 H   0  0  0  0  0  0  0  0  0  0  0  0
  138.5355   73.7210  220.0698 H   0  0  0  0  0  0  0  0  0  0  0  0
  137.8272   70.1623  221.3193 H   0  0  0  0  0  0  0  0  0  0  0  0
  138.3206   71.2704  220.0392 H   0  0  0  0  0  0  0  0  0  0  0  0
  140.0139   69.5105  221.6403 H   0  0  0  0  0  0  0  0  0  0  0  0
  140.5626   70.6087  220.3800 H   0  0  0  0  0  0  0  0  0  0  0  0
  141.2234   70.9913  222.9971 H   0  0  0  0  0  0  0  0  0  0  0  0
  140.9734   72.3774  221.9755 H   0  0  0  0  0  0  0  0  0  0  0  0
  139.2499   72.5260  223.9467 H   0  0  0  0  0  0  0  0  0  0  0  0
  137.6759   70.7052  224.2046 H   0  0  0  0  0  0  0  0  0  0  0  0
  138.7000   69.7348  223.0178 H   0  0  0  0  0  0  0  0  0  0  0  0
  141.0948   72.1947  224.9610 H   0  0  0  0  0  0  0  0  0  0  0  0
  142.0520   73.1037  227.0340 H   0  0  0  0  0  0  0  0  0  0  0  0
  141.5563   72.0384  229.1972 H   0  0  0  0  0  0  0  0  0  0  0  0
  140.0877   70.0387  229.2769 H   0  0  0  0  0  0  0  0  0  0  0  0
  139.1404   69.1401  227.2083 H   0  0  0  0  0  0  0  0  0  0  0  0
  137.6121   77.5009  222.7749 H   0  0  0  0  0  0  0  0  0  0  0  0
  138.1440   79.7740  223.5820 H   0  0  0  0  0  0  0  0  0  0  0  0
  139.8696   81.4515  224.0566 H   0  0  0  0  0  0  0  0  0  0  0  0
  144.0095   80.5845  223.3464 H   0  0  0  0  0  0  0  0  0  0  0  0
  143.3412   78.3263  222.5563 H   0  0  0  0  0  0  0  0  0  0  0  0
  1  2  2  0
  2  3  1  0
  3  4  1  0
  4  5  1  0
  5  6  2  0
  5  7  1  0
  7  8  1  0
  8  9  1  0
  9 10  1  0
 10 11  1  0
 11 12  1  0
 12 13  1  0
 13 14  1  0
 14 15  2  0
 15 16  1  0
 16 17  2  0
 17 18  1  0
 18 19  2  0
  2 20  1  0
 20 21  2  0
 21 22  1  0
 22 23  2  0
 23 24  1  0
 24 25  2  0
 25 26  1  0
 25 27  1  0
 27 28  2  0
 28 29  1  0
 29 30  2  0
 11  7  1  0
 19 14  1  0
 30 20  1  0
 29 23  1  0
  3 31  1  0
  4 32  1  0
  4 33  1  0
  8 34  1  0
  8 35  1  0
  9 36  1  0
  9 37  1  0
 10 38  1  0
 10 39  1  0
 11 40  1  1
 12 41  1  0
 12 42  1  0
 15 43  1  0
 16 44  1  0
 17 45  1  0
 18 46  1  0
 19 47  1  0
 21 48  1  0
 22 49  1  0
 24 50  1  0
 27 51  1  0
 28 52  1  0
M  END
>  <smiles>  (28) 
O=C(NCC(=O)N1CCC[C@@H]1COc1ccccc1)c1ccc2cc(F)ccc2n1

>  <score_type>  (28) 
oracle

>  <origin>  (28) 
autodockgpu

>  <m_score__min__energy>  (28) 
-8.4499999999999993

>  <m_primary>  (28) 
energy

>  <rmsd>  (28) 
8.031854111137939

>  <m_score__min__rmsd>  (28) 
8.031854111137939

>  <meeko>  (28) 
{"free_energy": -7.99, "intermolecular_energy": -10.08, "internal_energy": -1.53, "cluster_size": 14, "cluster_id": 3, "rank_in_cluster": 2}

>  <energy>  (28) 
-7.91

>  <cluster_rmsd>  (28) 
0.37

>  <cluster>  (28) 
3

$$$$

     RDKit          3D

 52 55  0  0  0  0  0  0  0  0999 V2000
  141.1020   71.5060  221.2920 O   0  0  0  0  0  0  0  0  0  0  0  0
  140.4980   72.0040  222.2800 C   0  0  0  0  0  0  0  0  0  0  0  0
  140.0170   73.3290  222.2980 N   0  0  0  0  0  0  0  0  0  0  0  0
  140.2120   74.1730  221.1390 C   0  0  0  0  0  0  0  0  0  0  0  0
  140.0950   75.5930  221.5640 C   0  0  0  0  0  0  0  0  0  0  0  0
  139.6060   75.8840  222.7020 O   0  0  0  0  0  0  0  0  0  0  0  0
  140.5400   76.5880  220.6650 N   0  0  0  0  0  0  0  0  0  0  0  0
  139.8690   77.1630  219.5070 C   0  0  0  0  0  0  0  0  0  0  0  0
  140.3590   78.6080  219.4480 C   0  0  0  0  0  0  0  0  0  0  0  0
  141.3010   78.7270  220.6010 C   0  0  0  0  0  0  0  0  0  0  0  0
  141.8350   77.2870  220.7050 C   0  0  2  0  0  0  0  0  0  0  0  0
  142.6250   76.9440  219.4630 C   0  0  0  0  0  0  0  0  0  0  0  0
  143.7770   76.2100  219.6720 O   0  0  0  0  0  0  0  0  0  0  0  0
  144.0060   74.9040  219.9110 C   0  0  0  0  0  0  0  0  0  0  0  0
  143.1810   73.8430  219.6130 C   0  0  0  0  0  0  0  0  0  0  0  0
  143.5130   72.5340  219.9010 C   0  0  0  0  0  0  0  0  0  0  0  0
  144.6970   72.2530  220.5050 C   0  0  0  0  0  0  0  0  0  0  0  0
  145.5590   73.2760  220.8250 C   0  0  0  0  0  0  0  0  0  0  0  0
  145.2110   74.5650  220.5310 C   0  0  0  0  0  0  0  0  0  0  0  0
  140.2780   71.1820  223.4780 C   0  0  0  0  0  0  0  0  0  0  0  0
  139.5620   70.0000  223.4180 C   0  0  0  0  0  0  0  0  0  0  0  0
  139.3410   69.2090  224.5270 C   0  0  0  0  0  0  0  0  0  0  0  0
  139.8530   69.6110  225.7490 C   0  0  0  0  0  0  0  0  0  0  0  0
  139.6840   68.8940  226.8940 C   0  0  0  0  0  0  0  0  0  0  0  0
  140.1960   69.2970  228.1110 C   0  0  0  0  0  0  0  0  0  0  0  0
  140.0350   68.5950  229.2550 F   0  0  0  0  0  0  0  0  0  0  0  0
  140.9120   70.4760  228.1800 C   0  0  0  0  0  0  0  0  0  0  0  0
  141.0850   71.2060  227.0140 C   0  0  0  0  0  0  0  0  0  0  0  0
  140.5650   70.7880  225.7990 C   0  0  0  0  0  0  0  0  0  0  0  0
  140.7580   71.5310  224.6890 N   0  0  0  0  0  0  0  0  0  0  0  0
  139.5130   73.7290  223.1390 H   0  0  0  0  0  0  0  0  0  0  0  0
  141.2105   73.9941  220.7136 H   0  0  0  0  0  0  0  0  0  0  0  0
  139.4543   73.9447  220.3749 H   0  0  0  0  0  0  0  0  0  0  0  0
  140.1469   76.6222  218.5903 H   0  0  0  0  0  0  0  0  0  0  0  0
  138.7739   77.0996  219.5885 H   0  0  0  0  0  0  0  0  0  0  0  0
  140.8787   78.8045  218.4986 H   0  0  0  0  0  0  0  0  0  0  0  0
  139.5341   79.3335  219.5033 H   0  0  0  0  0  0  0  0  0  0  0  0
  142.1095   79.4418  220.3881 H   0  0  0  0  0  0  0  0  0  0  0  0
  140.8367   79.1028  221.5247 H   0  0  0  0  0  0  0  0  0  0  0  0
  142.4917   77.0690  221.5601 H   0  0  0  0  0  0  0  0  0  0  0  0
  141.9708   76.3643  218.7951 H   0  0  0  0  0  0  0  0  0  0  0  0
  142.9530   77.9050  219.0400 H   0  0  0  0  0  0  0  0  0  0  0  0
  142.2165   74.0466  219.1248 H   0  0  0  0  0  0  0  0  0  0  0  0
  142.8199   71.7201  219.6418 H   0  0  0  0  0  0  0  0  0  0  0  0
  144.9652   71.2118  220.7372 H   0  0  0  0  0  0  0  0  0  0  0  0
  146.5204   73.0588  221.3134 H   0  0  0  0  0  0  0  0  0  0  0  0
  145.9113   75.3713  220.7945 H   0  0  0  0  0  0  0  0  0  0  0  0
  139.1530   69.6781  222.4489 H   0  0  0  0  0  0  0  0  0  0  0  0
  138.7674   68.2743  224.4415 H   0  0  0  0  0  0  0  0  0  0  0  0
  139.1153   67.9536  226.8473 H   0  0  0  0  0  0  0  0  0  0  0  0
  141.3334   70.8262  229.1338 H   0  0  0  0  0  0  0  0  0  0  0  0
  141.6531   72.1471  227.0544 H   0  0  0  0  0  0  0  0  0  0  0  0
  1  2  2  0
  2  3  1  0
  3  4  1  0
  4  5  1  0
  5  6  2  0
  5  7  1  0
  7  8  1  0
  8  9  1  0
  9 10  1  0
 10 11  1  0
 11 12  1  0
 12 13  1  0
 13 14  1  0
 14 15  2  0
 15 16  1  0
 16 17  2  0
 17 18  1  0
 18 19  2  0
  2 20  1  0
 20 21  2  0
 21 22  1  0
 22 23  2  0
 23 24  1  0
 24 25  2  0
 25 26  1  0
 25 27  1  0
 27 28  2  0
 28 29  1  0
 29 30  2  0
 11  7  1  0
 19 14  1  0
 30 20  1  0
 29 23  1  0
  3 31  1  0
  4 32  1  0
  4 33  1  0
  8 34  1  0
  8 35  1  0
  9 36  1  0
  9 37  1  0
 10 38  1  0
 10 39  1  0
 11 40  1  1
 12 41  1  0
 12 42  1  0
 15 43  1  0
 16 44  1  0
 17 45  1  0
 18 46  1  0
 19 47  1  0
 21 48  1  0
 22 49  1  0
 24 50  1  0
 27 51  1  0
 28 52  1  0
M  END
>  <smiles>  (29) 
O=C(NCC(=O)N1CCC[C@@H]1COc1ccccc1)c1ccc2cc(F)ccc2n1

>  <score_type>  (29) 
oracle

>  <origin>  (29) 
autodockgpu

>  <m_score__min__energy>  (29) 
-8.4499999999999993

>  <m_primary>  (29) 
energy

>  <rmsd>  (29) 
1.9023630305200558

>  <m_score__min__rmsd>  (29) 
1.9023630305200558

>  <meeko>  (29) 
{"free_energy": -7.75, "intermolecular_energy": -9.84, "internal_energy": -2.35, "cluster_size": 9, "cluster_id": 4, "rank_in_cluster": 3}

>  <energy>  (29) 
-7.91

>  <cluster_rmsd>  (29) 
0.47

>  <cluster>  (29) 
3

$$$$

     RDKit          3D

 52 55  0  0  0  0  0  0  0  0999 V2000
  133.9110   69.1850  226.4250 O   0  0  0  0  0  0  0  0  0  0  0  0
  134.3460   70.2750  225.9670 C   0  0  0  0  0  0  0  0  0  0  0  0
  135.4120   70.3500  225.0470 N   0  0  0  0  0  0  0  0  0  0  0  0
  136.0480   69.1310  224.5930 C   0  0  0  0  0  0  0  0  0  0  0  0
  137.5200   69.2870  224.7340 C   0  0  0  0  0  0  0  0  0  0  0  0
  138.1290   68.7690  225.7240 O   0  0  0  0  0  0  0  0  0  0  0  0
  138.2010   70.0240  223.7380 N   0  0  0  0  0  0  0  0  0  0  0  0
  138.4660   69.6830  222.3470 C   0  0  0  0  0  0  0  0  0  0  0  0
  138.4510   71.0190  221.6070 C   0  0  0  0  0  0  0  0  0  0  0  0
  138.1840   72.0300  222.6740 C   0  0  0  0  0  0  0  0  0  0  0  0
  138.8190   71.3500  223.9010 C   0  0  2  0  0  0  0  0  0  0  0  0
  140.3120   71.2330  223.7030 C   0  0  0  0  0  0  0  0  0  0  0  0
  141.0550   71.0560  224.8550 O   0  0  0  0  0  0  0  0  0  0  0  0
  140.8000   70.4480  226.0300 C   0  0  0  0  0  0  0  0  0  0  0  0
  140.3060   71.0240  227.1790 C   0  0  0  0  0  0  0  0  0  0  0  0
  140.0780   70.3070  228.3360 C   0  0  0  0  0  0  0  0  0  0  0  0
  140.3450   68.9750  228.3710 C   0  0  0  0  0  0  0  0  0  0  0  0
  140.8410   68.3490  227.2510 C   0  0  0  0  0  0  0  0  0  0  0  0
  141.0600   69.0780  226.1160 C   0  0  0  0  0  0  0  0  0  0  0  0
  133.7300   71.5360  226.4000 C   0  0  0  0  0  0  0  0  0  0  0  0
  132.5830   71.5470  227.1730 C   0  0  0  0  0  0  0  0  0  0  0  0
  131.9820   72.7180  227.5950 C   0  0  0  0  0  0  0  0  0  0  0  0
  132.5490   73.9280  227.2310 C   0  0  0  0  0  0  0  0  0  0  0  0
  132.0250   75.1300  227.6020 C   0  0  0  0  0  0  0  0  0  0  0  0
  132.5910   76.3350  227.2380 C   0  0  0  0  0  0  0  0  0  0  0  0
  132.0820   77.5340  227.5990 F   0  0  0  0  0  0  0  0  0  0  0  0
  133.7370   76.3320  226.4660 C   0  0  0  0  0  0  0  0  0  0  0  0
  134.2700   75.1090  226.0890 C   0  0  0  0  0  0  0  0  0  0  0  0
  133.6900   73.9070  226.4630 C   0  0  0  0  0  0  0  0  0  0  0  0
  134.2430   72.7390  226.0730 N   0  0  0  0  0  0  0  0  0  0  0  0
  135.7640   71.2770  224.6740 H   0  0  0  0  0  0  0  0  0  0  0  0
  135.7044   68.2833  225.2039 H   0  0  0  0  0  0  0  0  0  0  0  0
  135.7880   68.9389  223.5416 H   0  0  0  0  0  0  0  0  0  0  0  0
  139.4474   69.1963  222.2477 H   0  0  0  0  0  0  0  0  0  0  0  0
  137.7243   68.9774  221.9443 H   0  0  0  0  0  0  0  0  0  0  0  0
  139.4216   71.2083  221.1251 H   0  0  0  0  0  0  0  0  0  0  0  0
  137.6987   71.0463  220.8049 H   0  0  0  0  0  0  0  0  0  0  0  0
  138.6707   72.9905  222.4493 H   0  0  0  0  0  0  0  0  0  0  0  0
  137.1206   72.2822  222.7992 H   0  0  0  0  0  0  0  0  0  0  0  0
  138.6734   71.8505  224.8697 H   0  0  0  0  0  0  0  0  0  0  0  0
  140.4996   70.3727  223.0437 H   0  0  0  0  0  0  0  0  0  0  0  0
  140.6360   72.1957  223.2808 H   0  0  0  0  0  0  0  0  0  0  0  0
  140.0837   72.1013  227.1745 H   0  0  0  0  0  0  0  0  0  0  0  0
  139.6808   70.8129  229.2284 H   0  0  0  0  0  0  0  0  0  0  0  0
  140.1652   68.3997  229.2912 H   0  0  0  0  0  0  0  0  0  0  0  0
  141.0595   67.2711  227.2688 H   0  0  0  0  0  0  0  0  0  0  0  0
  141.4591   68.5627  225.2299 H   0  0  0  0  0  0  0  0  0  0  0  0
  132.1317   70.5867  227.4631 H   0  0  0  0  0  0  0  0  0  0  0  0
  131.0697   72.6894  228.2089 H   0  0  0  0  0  0  0  0  0  0  0  0
  131.1131   75.1403  228.2171 H   0  0  0  0  0  0  0  0  0  0  0  0
  134.2136   77.2746  226.1588 H   0  0  0  0  0  0  0  0  0  0  0  0
  135.1817   75.0920  225.4738 H   0  0  0  0  0  0  0  0  0  0  0  0
  1  2  2  0
  2  3  1  0
  3  4  1  0
  4  5  1  0
  5  6  2  0
  5  7  1  0
  7  8  1  0
  8  9  1  0
  9 10  1  0
 10 11  1  0
 11 12  1  0
 12 13  1  0
 13 14  1  0
 14 15  2  0
 15 16  1  0
 16 17  2  0
 17 18  1  0
 18 19  2  0
  2 20  1  0
 20 21  2  0
 21 22  1  0
 22 23  2  0
 23 24  1  0
 24 25  2  0
 25 26  1  0
 25 27  1  0
 27 28  2  0
 28 29  1  0
 29 30  2  0
 11  7  1  0
 19 14  1  0
 30 20  1  0
 29 23  1  0
  3 31  1  0
  4 32  1  0
  4 33  1  0
  8 34  1  0
  8 35  1  0
  9 36  1  0
  9 37  1  0
 10 38  1  0
 10 39  1  0
 11 40  1  1
 12 41  1  0
 12 42  1  0
 15 43  1  0
 16 44  1  0
 17 45  1  0
 18 46  1  0
 19 47  1  0
 21 48  1  0
 22 49  1  0
 24 50  1  0
 27 51  1  0
 28 52  1  0
M  END
>  <smiles>  (30) 
O=C(NCC(=O)N1CCC[C@@H]1COc1ccccc1)c1ccc2cc(F)ccc2n1

>  <score_type>  (30) 
oracle

>  <origin>  (30) 
autodockgpu

>  <m_score__min__energy>  (30) 
-8.4499999999999993

>  <m_primary>  (30) 
energy

>  <rmsd>  (30) 
7.821199089696756

>  <m_score__min__rmsd>  (30) 
7.821199089696756

>  <meeko>  (30) 
{"free_energy": -7.65, "intermolecular_energy": -9.74, "internal_energy": -2.09, "cluster_size": 2, "cluster_id": 5, "rank_in_cluster": 2}

>  <energy>  (30) 
-7.87

>  <cluster_rmsd>  (30) 
0.46

>  <cluster>  (30) 
3

$$$$

     RDKit          3D

 52 55  0  0  0  0  0  0  0  0999 V2000
  140.3220   71.6450  220.9440 O   0  0  0  0  0  0  0  0  0  0  0  0
  140.0350   72.2110  222.0330 C   0  0  0  0  0  0  0  0  0  0  0  0
  139.8170   73.6000  222.1410 N   0  0  0  0  0  0  0  0  0  0  0  0
  139.9210   74.4310  220.9610 C   0  0  0  0  0  0  0  0  0  0  0  0
  141.0200   75.4110  221.1700 C   0  0  0  0  0  0  0  0  0  0  0  0
  141.4330   75.6720  222.3450 O   0  0  0  0  0  0  0  0  0  0  0  0
  141.5760   76.0290  220.0270 N   0  0  0  0  0  0  0  0  0  0  0  0
  142.8760   75.8290  219.4010 C   0  0  0  0  0  0  0  0  0  0  0  0
  142.6330   76.0590  217.9110 C   0  0  0  0  0  0  0  0  0  0  0  0
  141.1790   76.3910  217.8200 C   0  0  0  0  0  0  0  0  0  0  0  0
  140.9340   77.0540  219.1880 C   0  0  2  0  0  0  0  0  0  0  0  0
  141.7220   78.3400  219.2800 C   0  0  0  0  0  0  0  0  0  0  0  0
  141.2780   79.2460  220.2240 O   0  0  0  0  0  0  0  0  0  0  0  0
  141.5710   79.4380  221.5240 C   0  0  0  0  0  0  0  0  0  0  0  0
  141.3110   78.5870  222.5750 C   0  0  0  0  0  0  0  0  0  0  0  0
  141.6570   78.8800  223.8790 C   0  0  0  0  0  0  0  0  0  0  0  0
  142.2790   80.0530  224.1660 C   0  0  0  0  0  0  0  0  0  0  0  0
  142.5620   80.9420  223.1540 C   0  0  0  0  0  0  0  0  0  0  0  0
  142.2120   80.6320  221.8710 C   0  0  0  0  0  0  0  0  0  0  0  0
  139.9190   71.4050  223.2550 C   0  0  0  0  0  0  0  0  0  0  0  0
  139.3330   70.1520  223.2370 C   0  0  0  0  0  0  0  0  0  0  0  0
  139.2110   69.3730  224.3710 C   0  0  0  0  0  0  0  0  0  0  0  0
  139.6930   69.8620  225.5730 C   0  0  0  0  0  0  0  0  0  0  0  0
  139.6160   69.1630  226.7400 C   0  0  0  0  0  0  0  0  0  0  0  0
  140.0980   69.6530  227.9370 C   0  0  0  0  0  0  0  0  0  0  0  0
  140.0270   68.9700  229.1020 F   0  0  0  0  0  0  0  0  0  0  0  0
  140.6840   70.9030  227.9630 C   0  0  0  0  0  0  0  0  0  0  0  0
  140.7630   71.6140  226.7760 C   0  0  0  0  0  0  0  0  0  0  0  0
  140.2750   71.1090  225.5810 C   0  0  0  0  0  0  0  0  0  0  0  0
  140.3740   71.8370  224.4480 N   0  0  0  0  0  0  0  0  0  0  0  0
  139.5770   74.0570  223.0660 H   0  0  0  0  0  0  0  0  0  0  0  0
  140.1438   73.8048  220.0845 H   0  0  0  0  0  0  0  0  0  0  0  0
  138.9722   74.9598  220.7873 H   0  0  0  0  0  0  0  0  0  0  0  0
  143.6083   76.5518  219.7900 H   0  0  0  0  0  0  0  0  0  0  0  0
  143.2846   74.8282  219.6047 H   0  0  0  0  0  0  0  0  0  0  0  0
  143.2469   76.8931  217.5404 H   0  0  0  0  0  0  0  0  0  0  0  0
  142.9028   75.1839  217.3016 H   0  0  0  0  0  0  0  0  0  0  0  0
  140.9761   77.0874  216.9930 H   0  0  0  0  0  0  0  0  0  0  0  0
  140.5314   75.5254  217.6168 H   0  0  0  0  0  0  0  0  0  0  0  0
  139.8919   77.3114  219.4283 H   0  0  0  0  0  0  0  0  0  0  0  0
  142.7636   78.0821  219.5221 H   0  0  0  0  0  0  0  0  0  0  0  0
  141.6017   78.8369  218.3061 H   0  0  0  0  0  0  0  0  0  0  0  0
  140.8058   77.6324  222.3665 H   0  0  0  0  0  0  0  0  0  0  0  0
  141.4295   78.1653  224.6836 H   0  0  0  0  0  0  0  0  0  0  0  0
  142.5556   80.2916  225.2036 H   0  0  0  0  0  0  0  0  0  0  0  0
  143.0658   81.8941  223.3769 H   0  0  0  0  0  0  0  0  0  0  0  0
  142.4447   81.3539  221.0743 H   0  0  0  0  0  0  0  0  0  0  0  0
  138.9495   69.7611  222.2830 H   0  0  0  0  0  0  0  0  0  0  0  0
  138.7388   68.3808  224.3199 H   0  0  0  0  0  0  0  0  0  0  0  0
  139.1502   68.1665  226.7277 H   0  0  0  0  0  0  0  0  0  0  0  0
  141.0775   71.3231  228.9004 H   0  0  0  0  0  0  0  0  0  0  0  0
  141.2278   72.6109  226.7824 H   0  0  0  0  0  0  0  0  0  0  0  0
  1  2  2  0
  2  3  1  0
  3  4  1  0
  4  5  1  0
  5  6  2  0
  5  7  1  0
  7  8  1  0
  8  9  1  0
  9 10  1  0
 10 11  1  0
 11 12  1  0
 12 13  1  0
 13 14  1  0
 14 15  2  0
 15 16  1  0
 16 17  2  0
 17 18  1  0
 18 19  2  0
  2 20  1  0
 20 21  2  0
 21 22  1  0
 22 23  2  0
 23 24  1  0
 24 25  2  0
 25 26  1  0
 25 27  1  0
 27 28  2  0
 28 29  1  0
 29 30  2  0
 11  7  1  0
 19 14  1  0
 30 20  1  0
 29 23  1  0
  3 31  1  0
  4 32  1  0
  4 33  1  0
  8 34  1  0
  8 35  1  0
  9 36  1  0
  9 37  1  0
 10 38  1  0
 10 39  1  0
 11 40  1  1
 12 41  1  0
 12 42  1  0
 15 43  1  0
 16 44  1  0
 17 45  1  0
 18 46  1  0
 19 47  1  0
 21 48  1  0
 22 49  1  0
 24 50  1  0
 27 51  1  0
 28 52  1  0
M  END
>  <smiles>  (31) 
O=C(NCC(=O)N1CCC[C@@H]1COc1ccccc1)c1ccc2cc(F)ccc2n1

>  <score_type>  (31) 
oracle

>  <origin>  (31) 
autodockgpu

>  <m_score__min__energy>  (31) 
-8.4499999999999993

>  <m_primary>  (31) 
energy

>  <rmsd>  (31) 
1.942085229553437

>  <m_score__min__rmsd>  (31) 
1.942085229553437

>  <meeko>  (31) 
{"free_energy": -8.1, "intermolecular_energy": -10.19, "internal_energy": -1.84, "cluster_size": 22, "cluster_id": 1, "rank_in_cluster": 8}

>  <energy>  (31) 
-7.86

>  <cluster_rmsd>  (31) 
0.44

>  <cluster>  (31) 
3

$$$$

     RDKit          3D

 52 55  0  0  0  0  0  0  0  0999 V2000
  141.2430   72.1070  221.2860 O   0  0  0  0  0  0  0  0  0  0  0  0
  140.3660   72.4210  222.1340 C   0  0  0  0  0  0  0  0  0  0  0  0
  139.5480   73.5630  222.0050 N   0  0  0  0  0  0  0  0  0  0  0  0
  139.7070   74.4250  220.8540 C   0  0  0  0  0  0  0  0  0  0  0  0
  140.7350   75.4510  221.1710 C   0  0  0  0  0  0  0  0  0  0  0  0
  141.1480   75.5990  222.3650 O   0  0  0  0  0  0  0  0  0  0  0  0
  141.2260   76.2420  220.1070 N   0  0  0  0  0  0  0  0  0  0  0  0
  142.5970   76.5920  219.7640 C   0  0  0  0  0  0  0  0  0  0  0  0
  142.6050   76.7000  218.2400 C   0  0  0  0  0  0  0  0  0  0  0  0
  141.1950   76.4070  217.8420 C   0  0  0  0  0  0  0  0  0  0  0  0
  140.4210   76.9130  219.0730 C   0  0  2  0  0  0  0  0  0  0  0  0
  140.5890   78.4090  219.2020 C   0  0  0  0  0  0  0  0  0  0  0  0
  140.2370   78.9460  220.4260 O   0  0  0  0  0  0  0  0  0  0  0  0
  140.9300   79.1990  221.5530 C   0  0  0  0  0  0  0  0  0  0  0  0
  140.7440   78.6330  222.7940 C   0  0  0  0  0  0  0  0  0  0  0  0
  141.5150   78.9640  223.8900 C   0  0  0  0  0  0  0  0  0  0  0  0
  142.5050   79.8860  223.7680 C   0  0  0  0  0  0  0  0  0  0  0  0
  142.7330   80.4850  222.5500 C   0  0  0  0  0  0  0  0  0  0  0  0
  141.9590   80.1420  221.4780 C   0  0  0  0  0  0  0  0  0  0  0  0
  140.1710   71.5740  223.3180 C   0  0  0  0  0  0  0  0  0  0  0  0
  139.4460   70.3980  223.2490 C   0  0  0  0  0  0  0  0  0  0  0  0
  139.2470   69.5820  224.3460 C   0  0  0  0  0  0  0  0  0  0  0  0
  139.7950   69.9530  225.5620 C   0  0  0  0  0  0  0  0  0  0  0  0
  139.6500   69.2100  226.6950 C   0  0  0  0  0  0  0  0  0  0  0  0
  140.1970   69.5820  227.9070 C   0  0  0  0  0  0  0  0  0  0  0  0
  140.0610   68.8540  229.0390 F   0  0  0  0  0  0  0  0  0  0  0  0
  140.9230   70.7550  227.9840 C   0  0  0  0  0  0  0  0  0  0  0  0
  141.0700   71.5110  226.8310 C   0  0  0  0  0  0  0  0  0  0  0  0
  140.5150   71.1240  225.6210 C   0  0  0  0  0  0  0  0  0  0  0  0
  140.6840   71.8910  224.5230 N   0  0  0  0  0  0  0  0  0  0  0  0
  138.8160   73.8110  222.7290 H   0  0  0  0  0  0  0  0  0  0  0  0
  140.0312   73.8304  219.9872 H   0  0  0  0  0  0  0  0  0  0  0  0
  138.7505   74.9119  220.6130 H   0  0  0  0  0  0  0  0  0  0  0  0
  142.8775   77.5522  220.2216 H   0  0  0  0  0  0  0  0  0  0  0  0
  143.3188   75.8472  220.1304 H   0  0  0  0  0  0  0  0  0  0  0  0
  142.8973   77.7118  217.9225 H   0  0  0  0  0  0  0  0  0  0  0  0
  143.3251   76.0116  217.7736 H   0  0  0  0  0  0  0  0  0  0  0  0
  140.9106   76.9579  216.9334 H   0  0  0  0  0  0  0  0  0  0  0  0
  141.0073   75.3516  217.5951 H   0  0  0  0  0  0  0  0  0  0  0  0
  139.3379   76.7211  219.0840 H   0  0  0  0  0  0  0  0  0  0  0  0
  141.6471   78.6478  219.0193 H   0  0  0  0  0  0  0  0  0  0  0  0
  139.8999   78.8536  218.4689 H   0  0  0  0  0  0  0  0  0  0  0  0
  139.9469   77.8850  222.9175 H   0  0  0  0  0  0  0  0  0  0  0  0
  141.3280   78.4818  224.8608 H   0  0  0  0  0  0  0  0  0  0  0  0
  143.1218   80.1528  224.6389 H   0  0  0  0  0  0  0  0  0  0  0  0
  143.5316   81.2335  222.4408 H   0  0  0  0  0  0  0  0  0  0  0  0
  142.1544   80.6301  220.5118 H   0  0  0  0  0  0  0  0  0  0  0  0
  139.0110   70.1010  222.2833 H   0  0  0  0  0  0  0  0  0  0  0  0
  138.6635   68.6540  224.2548 H   0  0  0  0  0  0  0  0  0  0  0  0
  139.0731   68.2749  226.6419 H   0  0  0  0  0  0  0  0  0  0  0  0
  141.3721   71.0802  228.9340 H   0  0  0  0  0  0  0  0  0  0  0  0
  141.6452   72.4475  226.8779 H   0  0  0  0  0  0  0  0  0  0  0  0
  1  2  2  0
  2  3  1  0
  3  4  1  0
  4  5  1  0
  5  6  2  0
  5  7  1  0
  7  8  1  0
  8  9  1  0
  9 10  1  0
 10 11  1  0
 11 12  1  0
 12 13  1  0
 13 14  1  0
 14 15  2  0
 15 16  1  0
 16 17  2  0
 17 18  1  0
 18 19  2  0
  2 20  1  0
 20 21  2  0
 21 22  1  0
 22 23  2  0
 23 24  1  0
 24 25  2  0
 25 26  1  0
 25 27  1  0
 27 28  2  0
 28 29  1  0
 29 30  2  0
 11  7  1  0
 19 14  1  0
 30 20  1  0
 29 23  1  0
  3 31  1  0
  4 32  1  0
  4 33  1  0
  8 34  1  0
  8 35  1  0
  9 36  1  0
  9 37  1  0
 10 38  1  0
 10 39  1  0
 11 40  1  6
 12 41  1  0
 12 42  1  0
 15 43  1  0
 16 44  1  0
 17 45  1  0
 18 46  1  0
 19 47  1  0
 21 48  1  0
 22 49  1  0
 24 50  1  0
 27 51  1  0
 28 52  1  0
M  END
>  <smiles>  (32) 
O=C(NCC(=O)N1CCC[C@@H]1COc1ccccc1)c1ccc2cc(F)ccc2n1

>  <score_type>  (32) 
oracle

>  <origin>  (32) 
autodockgpu

>  <m_score__min__energy>  (32) 
-8.4499999999999993

>  <m_primary>  (32) 
energy

>  <rmsd>  (32) 
2.0216769644102137

>  <m_score__min__rmsd>  (32) 
2.0216769644102137

>  <meeko>  (32) 
{"free_energy": -8.21, "intermolecular_energy": -10.3, "internal_energy": -1.81, "cluster_size": 22, "cluster_id": 1, "rank_in_cluster": 6}

>  <energy>  (32) 
-7.85

>  <cluster_rmsd>  (32) 
0.51

>  <cluster>  (32) 
3

$$$$

     RDKit          3D

 52 55  0  0  0  0  0  0  0  0999 V2000
  140.2530   71.1730  221.0120 O   0  0  0  0  0  0  0  0  0  0  0  0
  139.9870   71.7760  222.0860 C   0  0  0  0  0  0  0  0  0  0  0  0
  139.7980   73.1710  222.1570 N   0  0  0  0  0  0  0  0  0  0  0  0
  139.9090   73.9660  220.9530 C   0  0  0  0  0  0  0  0  0  0  0  0
  140.5950   75.2410  221.2910 C   0  0  0  0  0  0  0  0  0  0  0  0
  140.4250   75.7790  222.4310 O   0  0  0  0  0  0  0  0  0  0  0  0
  141.4290   75.8210  220.3080 N   0  0  0  0  0  0  0  0  0  0  0  0
  142.8620   75.6690  220.0970 C   0  0  0  0  0  0  0  0  0  0  0  0
  143.0500   75.7850  218.5850 C   0  0  0  0  0  0  0  0  0  0  0  0
  141.6710   76.0120  218.0580 C   0  0  0  0  0  0  0  0  0  0  0  0
  141.0110   76.7440  219.2400 C   0  0  2  0  0  0  0  0  0  0  0  0
  141.6800   78.0830  219.4490 C   0  0  0  0  0  0  0  0  0  0  0  0
  141.1260   78.8800  220.4330 O   0  0  0  0  0  0  0  0  0  0  0  0
  141.5220   79.2150  221.6760 C   0  0  0  0  0  0  0  0  0  0  0  0
  141.3440   78.4920  222.8340 C   0  0  0  0  0  0  0  0  0  0  0  0
  141.7930   78.9280  224.0640 C   0  0  0  0  0  0  0  0  0  0  0  0
  142.4400   80.1190  224.1660 C   0  0  0  0  0  0  0  0  0  0  0  0
  142.6440   80.8830  223.0400 C   0  0  0  0  0  0  0  0  0  0  0  0
  142.1920   80.4330  221.8320 C   0  0  0  0  0  0  0  0  0  0  0  0
  139.8660   71.0080  223.3330 C   0  0  0  0  0  0  0  0  0  0  0  0
  139.2740   69.7570  223.3510 C   0  0  0  0  0  0  0  0  0  0  0  0
  139.1470   69.0130  224.5080 C   0  0  0  0  0  0  0  0  0  0  0  0
  139.6300   69.5360  225.6960 C   0  0  0  0  0  0  0  0  0  0  0  0
  139.5470   68.8730  226.8830 C   0  0  0  0  0  0  0  0  0  0  0  0
  140.0290   69.3970  228.0660 C   0  0  0  0  0  0  0  0  0  0  0  0
  139.9530   68.7500  229.2510 F   0  0  0  0  0  0  0  0  0  0  0  0
  140.6200   70.6450  228.0550 C   0  0  0  0  0  0  0  0  0  0  0  0
  140.7040   71.3200  226.8470 C   0  0  0  0  0  0  0  0  0  0  0  0
  140.2170   70.7800  225.6670 C   0  0  0  0  0  0  0  0  0  0  0  0
  140.3200   71.4730  224.5130 N   0  0  0  0  0  0  0  0  0  0  0  0
  139.5760   73.6600  223.0700 H   0  0  0  0  0  0  0  0  0  0  0  0
  140.4940   73.4184  220.1994 H   0  0  0  0  0  0  0  0  0  0  0  0
  138.9088   74.1730  220.5446 H   0  0  0  0  0  0  0  0  0  0  0  0
  143.4165   76.4632  220.6182 H   0  0  0  0  0  0  0  0  0  0  0  0
  143.2398   74.7134  220.4897 H   0  0  0  0  0  0  0  0  0  0  0  0
  143.7061   76.6326  218.3378 H   0  0  0  0  0  0  0  0  0  0  0  0
  143.5242   74.8925  218.1508 H   0  0  0  0  0  0  0  0  0  0  0  0
  141.6839   76.6380  217.1536 H   0  0  0  0  0  0  0  0  0  0  0  0
  141.1501   75.0932  217.7506 H   0  0  0  0  0  0  0  0  0  0  0  0
  139.9334   76.9460  219.1507 H   0  0  0  0  0  0  0  0  0  0  0  0
  142.7312   77.8983  219.7150 H   0  0  0  0  0  0  0  0  0  0  0  0
  141.5503   78.6347  218.5063 H   0  0  0  0  0  0  0  0  0  0  0  0
  140.8216   77.5257  222.7764 H   0  0  0  0  0  0  0  0  0  0  0  0
  141.6275   78.3125  224.9606 H   0  0  0  0  0  0  0  0  0  0  0  0
  142.7990   80.4706  225.1445 H   0  0  0  0  0  0  0  0  0  0  0  0
  143.1667   81.8482  223.1119 H   0  0  0  0  0  0  0  0  0  0  0  0
  142.3626   81.0564  220.9419 H   0  0  0  0  0  0  0  0  0  0  0  0
  138.8902   69.3395  222.4085 H   0  0  0  0  0  0  0  0  0  0  0  0
  138.6703   68.0219  224.4861 H   0  0  0  0  0  0  0  0  0  0  0  0
  139.0764   67.8789  226.8998 H   0  0  0  0  0  0  0  0  0  0  0  0
  141.0136   71.0916  228.9800 H   0  0  0  0  0  0  0  0  0  0  0  0
  141.1718   72.3153  226.8243 H   0  0  0  0  0  0  0  0  0  0  0  0
  1  2  2  0
  2  3  1  0
  3  4  1  0
  4  5  1  0
  5  6  2  0
  5  7  1  0
  7  8  1  0
  8  9  1  0
  9 10  1  0
 10 11  1  0
 11 12  1  0
 12 13  1  0
 13 14  1  0
 14 15  2  0
 15 16  1  0
 16 17  2  0
 17 18  1  0
 18 19  2  0
  2 20  1  0
 20 21  2  0
 21 22  1  0
 22 23  2  0
 23 24  1  0
 24 25  2  0
 25 26  1  0
 25 27  1  0
 27 28  2  0
 28 29  1  0
 29 30  2  0
 11  7  1  0
 19 14  1  0
 30 20  1  0
 29 23  1  0
  3 31  1  0
  4 32  1  0
  4 33  1  0
  8 34  1  0
  8 35  1  0
  9 36  1  0
  9 37  1  0
 10 38  1  0
 10 39  1  0
 11 40  1  6
 12 41  1  0
 12 42  1  0
 15 43  1  0
 16 44  1  0
 17 45  1  0
 18 46  1  0
 19 47  1  0
 21 48  1  0
 22 49  1  0
 24 50  1  0
 27 51  1  0
 28 52  1  0
M  END
>  <smiles>  (33) 
O=C(NCC(=O)N1CCC[C@@H]1COc1ccccc1)c1ccc2cc(F)ccc2n1

>  <score_type>  (33) 
oracle

>  <origin>  (33) 
autodockgpu

>  <m_score__min__energy>  (33) 
-8.4499999999999993

>  <m_primary>  (33) 
energy

>  <rmsd>  (33) 
1.9776834441623854

>  <m_score__min__rmsd>  (33) 
1.9776834441623854

>  <meeko>  (33) 
{"free_energy": -8.28, "intermolecular_energy": -10.36, "internal_energy": -2.0, "cluster_size": 22, "cluster_id": 1, "rank_in_cluster": 5}

>  <energy>  (33) 
-7.74

>  <cluster_rmsd>  (33) 
1.66

>  <cluster>  (33) 
3

$$$$

     RDKit          3D

 52 55  0  0  0  0  0  0  0  0999 V2000
  139.6130   70.9830  220.9220 O   0  0  0  0  0  0  0  0  0  0  0  0
  139.8600   71.5630  222.0130 C   0  0  0  0  0  0  0  0  0  0  0  0
  140.1930   72.9300  222.0960 N   0  0  0  0  0  0  0  0  0  0  0  0
  140.2580   73.7220  220.8870 C   0  0  0  0  0  0  0  0  0  0  0  0
  140.8770   75.0340  221.2150 C   0  0  0  0  0  0  0  0  0  0  0  0
  140.6630   75.5800  222.3440 O   0  0  0  0  0  0  0  0  0  0  0  0
  141.6980   75.6370  220.2360 N   0  0  0  0  0  0  0  0  0  0  0  0
  143.1410   75.5540  220.0510 C   0  0  0  0  0  0  0  0  0  0  0  0
  143.3490   75.6540  218.5410 C   0  0  0  0  0  0  0  0  0  0  0  0
  141.9690   75.8020  217.9870 C   0  0  0  0  0  0  0  0  0  0  0  0
  141.2540   76.5210  219.1450 C   0  0  2  0  0  0  0  0  0  0  0  0
  141.8510   77.8950  219.3410 C   0  0  0  0  0  0  0  0  0  0  0  0
  141.2360   78.6830  220.2940 O   0  0  0  0  0  0  0  0  0  0  0  0
  141.5990   79.0890  221.5260 C   0  0  0  0  0  0  0  0  0  0  0  0
  141.4480   78.4050  222.7110 C   0  0  0  0  0  0  0  0  0  0  0  0
  141.8590   78.9130  223.9270 C   0  0  0  0  0  0  0  0  0  0  0  0
  142.4390   80.1400  223.9860 C   0  0  0  0  0  0  0  0  0  0  0  0
  142.6140   80.8690  222.8320 C   0  0  0  0  0  0  0  0  0  0  0  0
  142.2000   80.3460  221.6390 C   0  0  0  0  0  0  0  0  0  0  0  0
  139.8050   70.7970  223.2650 C   0  0  0  0  0  0  0  0  0  0  0  0
  139.2590   69.5260  223.3070 C   0  0  0  0  0  0  0  0  0  0  0  0
  139.1940   68.7840  224.4700 C   0  0  0  0  0  0  0  0  0  0  0  0
  139.6940   69.3300  225.6400 C   0  0  0  0  0  0  0  0  0  0  0  0
  139.6720   68.6700  226.8320 C   0  0  0  0  0  0  0  0  0  0  0  0
  140.1710   69.2160  227.9970 C   0  0  0  0  0  0  0  0  0  0  0  0
  140.1550   68.5720  229.1860 F   0  0  0  0  0  0  0  0  0  0  0  0
  140.7170   70.4840  227.9630 C   0  0  0  0  0  0  0  0  0  0  0  0
  140.7400   71.1560  226.7510 C   0  0  0  0  0  0  0  0  0  0  0  0
  140.2350   70.5930  225.5880 C   0  0  0  0  0  0  0  0  0  0  0  0
  140.2780   71.2840  224.4290 N   0  0  0  0  0  0  0  0  0  0  0  0
  140.3970   73.4000  223.0230 H   0  0  0  0  0  0  0  0  0  0  0  0
  140.8687   73.2013  220.1347 H   0  0  0  0  0  0  0  0  0  0  0  0
  139.2470   73.8733  220.4807 H   0  0  0  0  0  0  0  0  0  0  0  0
  143.6459   76.3838  220.5672 H   0  0  0  0  0  0  0  0  0  0  0  0
  143.5594   74.6254  220.4665 H   0  0  0  0  0  0  0  0  0  0  0  0
  143.9657   76.5295  218.2898 H   0  0  0  0  0  0  0  0  0  0  0  0
  143.8750   74.7795  218.1305 H   0  0  0  0  0  0  0  0  0  0  0  0
  141.9660   76.4117  217.0714 H   0  0  0  0  0  0  0  0  0  0  0  0
  141.4997   74.8531  217.6879 H   0  0  0  0  0  0  0  0  0  0  0  0
  140.1695   76.6685  219.0346 H   0  0  0  0  0  0  0  0  0  0  0  0
  142.9033   77.7678  219.6350 H   0  0  0  0  0  0  0  0  0  0  0  0
  141.7166   78.4205  218.3840 H   0  0  0  0  0  0  0  0  0  0  0  0
  140.9793   77.4101  222.6880 H   0  0  0  0  0  0  0  0  0  0  0  0
  141.7172   78.3256  224.8461 H   0  0  0  0  0  0  0  0  0  0  0  0
  142.7676   80.5493  224.9527 H   0  0  0  0  0  0  0  0  0  0  0  0
  143.0827   81.8634  222.8693 H   0  0  0  0  0  0  0  0  0  0  0  0
  142.3465   80.9416  220.7259 H   0  0  0  0  0  0  0  0  0  0  0  0
  138.8616   69.0901  222.3785 H   0  0  0  0  0  0  0  0  0  0  0  0
  138.7525   67.7765  224.4668 H   0  0  0  0  0  0  0  0  0  0  0  0
  139.2383   67.6597  226.8670 H   0  0  0  0  0  0  0  0  0  0  0  0
  141.1229   70.9484  228.8738 H   0  0  0  0  0  0  0  0  0  0  0  0
  141.1720   72.1668  226.7100 H   0  0  0  0  0  0  0  0  0  0  0  0
  1  2  2  0
  2  3  1  0
  3  4  1  0
  4  5  1  0
  5  6  2  0
  5  7  1  0
  7  8  1  0
  8  9  1  0
  9 10  1  0
 10 11  1  0
 11 12  1  0
 12 13  1  0
 13 14  1  0
 14 15  2  0
 15 16  1  0
 16 17  2  0
 17 18  1  0
 18 19  2  0
  2 20  1  0
 20 21  2  0
 21 22  1  0
 22 23  2  0
 23 24  1  0
 24 25  2  0
 25 26  1  0
 25 27  1  0
 27 28  2  0
 28 29  1  0
 29 30  2  0
 11  7  1  0
 19 14  1  0
 30 20  1  0
 29 23  1  0
  3 31  1  0
  4 32  1  0
  4 33  1  0
  8 34  1  0
  8 35  1  0
  9 36  1  0
  9 37  1  0
 10 38  1  0
 10 39  1  0
 11 40  1  6
 12 41  1  0
 12 42  1  0
 15 43  1  0
 16 44  1  0
 17 45  1  0
 18 46  1  0
 19 47  1  0
 21 48  1  0
 22 49  1  0
 24 50  1  0
 27 51  1  0
 28 52  1  0
M  END
>  <smiles>  (34) 
O=C(NCC(=O)N1CCC[C@@H]1COc1ccccc1)c1ccc2cc(F)ccc2n1

>  <score_type>  (34) 
oracle

>  <origin>  (34) 
autodockgpu

>  <m_score__min__energy>  (34) 
-8.4499999999999993

>  <m_primary>  (34) 
energy

>  <rmsd>  (34) 
2.089608647199218

>  <m_score__min__rmsd>  (34) 
2.089608647199218

>  <meeko>  (34) 
{"free_energy": -7.88, "intermolecular_energy": -9.96, "internal_energy": -2.18, "cluster_size": 22, "cluster_id": 1, "rank_in_cluster": 18}

>  <energy>  (34) 
-7.72

>  <cluster_rmsd>  (34) 
1.71

>  <cluster>  (34) 
3

$$$$

     RDKit          3D

 52 55  0  0  0  0  0  0  0  0999 V2000
  137.0310   76.0950  221.6390 O   0  0  0  0  0  0  0  0  0  0  0  0
  138.2030   76.0970  222.1020 C   0  0  0  0  0  0  0  0  0  0  0  0
  138.9730   74.9250  222.2470 N   0  0  0  0  0  0  0  0  0  0  0  0
  138.4120   73.6510  221.8510 C   0  0  0  0  0  0  0  0  0  0  0  0
  139.2340   72.5670  222.4510 C   0  0  0  0  0  0  0  0  0  0  0  0
  140.4620   72.7640  222.7180 O   0  0  0  0  0  0  0  0  0  0  0  0
  138.6030   71.3280  222.7070 N   0  0  0  0  0  0  0  0  0  0  0  0
  137.2280   71.0480  223.1000 C   0  0  0  0  0  0  0  0  0  0  0  0
  136.9040   69.7000  222.4590 C   0  0  0  0  0  0  0  0  0  0  0  0
  138.1610   69.3170  221.7490 C   0  0  0  0  0  0  0  0  0  0  0  0
  139.2260   69.9970  222.6290 C   0  0  2  0  0  0  0  0  0  0  0  0
  139.2300   69.3670  224.0030 C   0  0  0  0  0  0  0  0  0  0  0  0
  140.2970   69.7080  224.8130 O   0  0  0  0  0  0  0  0  0  0  0  0
  140.3870   70.3520  225.9930 C   0  0  0  0  0  0  0  0  0  0  0  0
  139.8310   69.9770  227.1950 C   0  0  0  0  0  0  0  0  0  0  0  0
  139.9860   70.7110  228.3530 C   0  0  0  0  0  0  0  0  0  0  0  0
  140.7130   71.8590  228.3340 C   0  0  0  0  0  0  0  0  0  0  0  0
  141.2910   72.2810  227.1590 C   0  0  0  0  0  0  0  0  0  0  0  0
  141.1250   71.5390  226.0240 C   0  0  0  0  0  0  0  0  0  0  0  0
  138.8110   77.3680  222.5170 C   0  0  0  0  0  0  0  0  0  0  0  0
  138.0350   78.4750  222.8090 C   0  0  0  0  0  0  0  0  0  0  0  0
  138.5800   79.6820  223.2020 C   0  0  0  0  0  0  0  0  0  0  0  0
  139.9560   79.7910  223.3080 C   0  0  0  0  0  0  0  0  0  0  0  0
  140.5790   80.9410  223.6880 C   0  0  0  0  0  0  0  0  0  0  0  0
  141.9520   81.0470  223.7930 C   0  0  0  0  0  0  0  0  0  0  0  0
  142.5830   82.1830  224.1680 F   0  0  0  0  0  0  0  0  0  0  0  0
  142.7340   79.9470  223.5030 C   0  0  0  0  0  0  0  0  0  0  0  0
  142.1000   78.7760  223.1160 C   0  0  0  0  0  0  0  0  0  0  0  0
  140.7200   78.6840  223.0160 C   0  0  0  0  0  0  0  0  0  0  0  0
  140.1450   77.5240  222.6360 N   0  0  0  0  0  0  0  0  0  0  0  0
  139.9560   74.9470  222.6400 H   0  0  0  0  0  0  0  0  0  0  0  0
  137.3756   73.5737  222.2115 H   0  0  0  0  0  0  0  0  0  0  0  0
  138.4138   73.5627  220.7546 H   0  0  0  0  0  0  0  0  0  0  0  0
  137.1431   70.9864  224.1950 H   0  0  0  0  0  0  0  0  0  0  0  0
  136.5350   71.8384  222.7759 H   0  0  0  0  0  0  0  0  0  0  0  0
  136.6477   68.9551  223.2267 H   0  0  0  0  0  0  0  0  0  0  0  0
  136.0388   69.7539  221.7819 H   0  0  0  0  0  0  0  0  0  0  0  0
  138.2942   68.2253  221.7273 H   0  0  0  0  0  0  0  0  0  0  0  0
  138.1907   69.6200  220.6920 H   0  0  0  0  0  0  0  0  0  0  0  0
  140.2631   69.9541  222.2649 H   0  0  0  0  0  0  0  0  0  0  0  0
  138.3052   69.6688  224.5165 H   0  0  0  0  0  0  0  0  0  0  0  0
  139.3126   68.2828  223.8368 H   0  0  0  0  0  0  0  0  0  0  0  0
  139.2372   69.0518  227.2341 H   0  0  0  0  0  0  0  0  0  0  0  0
  139.5221   70.3677  229.2895 H   0  0  0  0  0  0  0  0  0  0  0  0
  140.8388   72.4484  229.2542 H   0  0  0  0  0  0  0  0  0  0  0  0
  141.8820   73.2084  227.1336 H   0  0  0  0  0  0  0  0  0  0  0  0
  141.5929   71.8912  225.0929 H   0  0  0  0  0  0  0  0  0  0  0  0
  136.9414   78.3911  222.7251 H   0  0  0  0  0  0  0  0  0  0  0  0
  137.9317   80.5418  223.4268 H   0  0  0  0  0  0  0  0  0  0  0  0
  139.9630   81.8220  223.9210 H   0  0  0  0  0  0  0  0  0  0  0  0
  143.8303   79.9980  223.5769 H   0  0  0  0  0  0  0  0  0  0  0  0
  142.7111   77.8921  222.8809 H   0  0  0  0  0  0  0  0  0  0  0  0
  1  2  2  0
  2  3  1  0
  3  4  1  0
  4  5  1  0
  5  6  2  0
  5  7  1  0
  7  8  1  0
  8  9  1  0
  9 10  1  0
 10 11  1  0
 11 12  1  0
 12 13  1  0
 13 14  1  0
 14 15  2  0
 15 16  1  0
 16 17  2  0
 17 18  1  0
 18 19  2  0
  2 20  1  0
 20 21  2  0
 21 22  1  0
 22 23  2  0
 23 24  1  0
 24 25  2  0
 25 26  1  0
 25 27  1  0
 27 28  2  0
 28 29  1  0
 29 30  2  0
 11  7  1  0
 19 14  1  0
 30 20  1  0
 29 23  1  0
  3 31  1  0
  4 32  1  0
  4 33  1  0
  8 34  1  0
  8 35  1  0
  9 36  1  0
  9 37  1  0
 10 38  1  0
 10 39  1  0
 11 40  1  6
 12 41  1  0
 12 42  1  0
 15 43  1  0
 16 44  1  0
 17 45  1  0
 18 46  1  0
 19 47  1  0
 21 48  1  0
 22 49  1  0
 24 50  1  0
 27 51  1  0
 28 52  1  0
M  END
>  <smiles>  (35) 
O=C(NCC(=O)N1CCC[C@@H]1COc1ccccc1)c1ccc2cc(F)ccc2n1

>  <score_type>  (35) 
oracle

>  <origin>  (35) 
autodockgpu

>  <m_score__min__energy>  (35) 
-8.4499999999999993

>  <m_primary>  (35) 
energy

>  <rmsd>  (35) 
8.549724161114588

>  <m_score__min__rmsd>  (35) 
8.549724161114588

>  <meeko>  (35) 
{"free_energy": -7.87, "intermolecular_energy": -9.96, "internal_energy": -2.19, "cluster_size": 14, "cluster_id": 3, "rank_in_cluster": 7}

>  <energy>  (35) 
-7.33

>  <cluster_rmsd>  (35) 
1.77

>  <cluster>  (35) 
3

$$$$

     RDKit          3D

 52 55  0  0  0  0  0  0  0  0999 V2000
  137.3490   75.7350  222.3150 O   0  0  0  0  0  0  0  0  0  0  0  0
  138.5900   75.9470  222.2560 C   0  0  0  0  0  0  0  0  0  0  0  0
  139.5130   74.9780  221.8110 N   0  0  0  0  0  0  0  0  0  0  0  0
  139.0360   73.6760  221.3990 C   0  0  0  0  0  0  0  0  0  0  0  0
  139.5630   72.6590  222.3460 C   0  0  0  0  0  0  0  0  0  0  0  0
  140.7640   72.7270  222.7590 O   0  0  0  0  0  0  0  0  0  0  0  0
  138.6880   71.6290  222.7600 N   0  0  0  0  0  0  0  0  0  0  0  0
  137.3980   71.7190  223.4310 C   0  0  0  0  0  0  0  0  0  0  0  0
  136.6000   70.5250  222.9080 C   0  0  0  0  0  0  0  0  0  0  0  0
  137.5370   69.8370  221.9700 C   0  0  0  0  0  0  0  0  0  0  0  0
  138.9010   70.1820  222.5970 C   0  0  2  0  0  0  0  0  0  0  0  0
  139.0140   69.5370  223.9590 C   0  0  0  0  0  0  0  0  0  0  0  0
  140.1620   69.8350  224.6670 O   0  0  0  0  0  0  0  0  0  0  0  0
  140.3890   70.5040  225.8140 C   0  0  0  0  0  0  0  0  0  0  0  0
  141.0950   71.6750  225.9750 C   0  0  0  0  0  0  0  0  0  0  0  0
  141.2670   72.2830  227.2020 C   0  0  0  0  0  0  0  0  0  0  0  0
  140.7300   71.7220  228.3160 C   0  0  0  0  0  0  0  0  0  0  0  0
  140.0150   70.5510  228.2140 C   0  0  0  0  0  0  0  0  0  0  0  0
  139.8560   69.9660  226.9890 C   0  0  0  0  0  0  0  0  0  0  0  0
  139.1180   77.2550  222.6650 C   0  0  0  0  0  0  0  0  0  0  0  0
  138.2750   78.2860  223.0390 C   0  0  0  0  0  0  0  0  0  0  0  0
  138.7440   79.5250  223.4290 C   0  0  0  0  0  0  0  0  0  0  0  0
  140.1100   79.7480  223.4460 C   0  0  0  0  0  0  0  0  0  0  0  0
  140.6610   80.9370  223.8160 C   0  0  0  0  0  0  0  0  0  0  0  0
  142.0230   81.1570  223.8320 C   0  0  0  0  0  0  0  0  0  0  0  0
  142.5830   82.3330  224.1960 F   0  0  0  0  0  0  0  0  0  0  0  0
  142.8720   80.1330  223.4600 C   0  0  0  0  0  0  0  0  0  0  0  0
  142.3120   78.9220  223.0830 C   0  0  0  0  0  0  0  0  0  0  0  0
  140.9410   78.7160  223.0730 C   0  0  0  0  0  0  0  0  0  0  0  0
  140.4390   77.5200  222.6990 N   0  0  0  0  0  0  0  0  0  0  0  0
  140.5530   75.1760  221.7690 H   0  0  0  0  0  0  0  0  0  0  0  0
  137.9362   73.6621  221.4138 H   0  0  0  0  0  0  0  0  0  0  0  0
  139.3803   73.4543  220.3781 H   0  0  0  0  0  0  0  0  0  0  0  0
  137.5235   71.6530  224.5218 H   0  0  0  0  0  0  0  0  0  0  0  0
  136.8924   72.6752  223.2310 H   0  0  0  0  0  0  0  0  0  0  0  0
  136.3137   69.8562  223.7331 H   0  0  0  0  0  0  0  0  0  0  0  0
  135.6626   70.8280  222.4186 H   0  0  0  0  0  0  0  0  0  0  0  0
  137.3647   68.7507  221.9537 H   0  0  0  0  0  0  0  0  0  0  0  0
  137.4325   70.1487  220.9203 H   0  0  0  0  0  0  0  0  0  0  0  0
  139.7926   69.8717  222.0325 H   0  0  0  0  0  0  0  0  0  0  0  0
  138.1518   69.8619  224.5599 H   0  0  0  0  0  0  0  0  0  0  0  0
  139.0458   68.4527  223.7768 H   0  0  0  0  0  0  0  0  0  0  0  0
  141.5414   72.1465  225.0871 H   0  0  0  0  0  0  0  0  0  0  0  0
  141.8380   73.2202  227.2774 H   0  0  0  0  0  0  0  0  0  0  0  0
  140.8662   72.2021  229.2963 H   0  0  0  0  0  0  0  0  0  0  0  0
  139.5752   70.0896  229.1105 H   0  0  0  0  0  0  0  0  0  0  0  0
  139.2827   69.0294  226.9248 H   0  0  0  0  0  0  0  0  0  0  0  0
  137.1889   78.1122  223.0252 H   0  0  0  0  0  0  0  0  0  0  0  0
  138.0437   80.3214  223.7213 H   0  0  0  0  0  0  0  0  0  0  0  0
  139.9916   81.7571  224.1149 H   0  0  0  0  0  0  0  0  0  0  0  0
  143.9629   80.2745  223.4628 H   0  0  0  0  0  0  0  0  0  0  0  0
  142.9765   78.0986  222.7823 H   0  0  0  0  0  0  0  0  0  0  0  0
  1  2  2  0
  2  3  1  0
  3  4  1  0
  4  5  1  0
  5  6  2  0
  5  7  1  0
  7  8  1  0
  8  9  1  0
  9 10  1  0
 10 11  1  0
 11 12  1  0
 12 13  1  0
 13 14  1  0
 14 15  2  0
 15 16  1  0
 16 17  2  0
 17 18  1  0
 18 19  2  0
  2 20  1  0
 20 21  2  0
 21 22  1  0
 22 23  2  0
 23 24  1  0
 24 25  2  0
 25 26  1  0
 25 27  1  0
 27 28  2  0
 28 29  1  0
 29 30  2  0
 11  7  1  0
 19 14  1  0
 30 20  1  0
 29 23  1  0
  3 31  1  0
  4 32  1  0
  4 33  1  0
  8 34  1  0
  8 35  1  0
  9 36  1  0
  9 37  1  0
 10 38  1  0
 10 39  1  0
 11 40  1  6
 12 41  1  0
 12 42  1  0
 15 43  1  0
 16 44  1  0
 17 45  1  0
 18 46  1  0
 19 47  1  0
 21 48  1  0
 22 49  1  0
 24 50  1  0
 27 51  1  0
 28 52  1  0
M  END
>  <smiles>  (36) 
O=C(NCC(=O)N1CCC[C@@H]1COc1ccccc1)c1ccc2cc(F)ccc2n1

>  <score_type>  (36) 
oracle

>  <origin>  (36) 
autodockgpu

>  <m_score__min__energy>  (36) 
-8.4499999999999993

>  <m_primary>  (36) 
energy

>  <rmsd>  (36) 
8.509574441799876

>  <m_score__min__rmsd>  (36) 
8.509574441799876

>  <meeko>  (36) 
{"free_energy": -8.0, "intermolecular_energy": -10.08, "internal_energy": -2.01, "cluster_size": 14, "cluster_id": 3, "rank_in_cluster": 1}

>  <energy>  (36) 
-7.31

>  <cluster_rmsd>  (36) 
1.55

>  <cluster>  (36) 
3

$$$$

     RDKit          3D

 52 55  0  0  0  0  0  0  0  0999 V2000
  137.1380   75.9240  221.8180 O   0  0  0  0  0  0  0  0  0  0  0  0
  138.3470   75.9750  222.1730 C   0  0  0  0  0  0  0  0  0  0  0  0
  139.1850   74.8430  222.2050 N   0  0  0  0  0  0  0  0  0  0  0  0
  138.6570   73.5530  221.8160 C   0  0  0  0  0  0  0  0  0  0  0  0
  139.4170   72.4960  222.5330 C   0  0  0  0  0  0  0  0  0  0  0  0
  140.6660   72.6280  222.7350 O   0  0  0  0  0  0  0  0  0  0  0  0
  138.7040   71.3570  222.9730 N   0  0  0  0  0  0  0  0  0  0  0  0
  137.5080   71.2710  223.8000 C   0  0  0  0  0  0  0  0  0  0  0  0
  136.7690   70.0350  223.2910 C   0  0  0  0  0  0  0  0  0  0  0  0
  137.6400   69.5070  222.1990 C   0  0  0  0  0  0  0  0  0  0  0  0
  139.0330   69.9530  222.6800 C   0  0  2  0  0  0  0  0  0  0  0  0
  139.3800   69.2420  223.9670 C   0  0  0  0  0  0  0  0  0  0  0  0
  140.4050   69.8050  224.7020 O   0  0  0  0  0  0  0  0  0  0  0  0
  140.4560   70.3820  225.9180 C   0  0  0  0  0  0  0  0  0  0  0  0
  139.8780   69.9300  227.0830 C   0  0  0  0  0  0  0  0  0  0  0  0
  139.9920   70.6010  228.2840 C   0  0  0  0  0  0  0  0  0  0  0  0
  140.6990   71.7590  228.3480 C   0  0  0  0  0  0  0  0  0  0  0  0
  141.2980   72.2570  227.2140 C   0  0  0  0  0  0  0  0  0  0  0  0
  141.1720   71.5770  226.0350 C   0  0  0  0  0  0  0  0  0  0  0  0
  138.9250   77.2640  222.5760 C   0  0  0  0  0  0  0  0  0  0  0  0
  138.1210   78.3450  222.8920 C   0  0  0  0  0  0  0  0  0  0  0  0
  138.6370   79.5680  223.2740 C   0  0  0  0  0  0  0  0  0  0  0  0
  140.0120   79.7210  223.3450 C   0  0  0  0  0  0  0  0  0  0  0  0
  140.6080   80.8890  223.7120 C   0  0  0  0  0  0  0  0  0  0  0  0
  141.9780   81.0390  223.7820 C   0  0  0  0  0  0  0  0  0  0  0  0
  142.5820   82.1930  224.1440 F   0  0  0  0  0  0  0  0  0  0  0  0
  142.7870   79.9650  223.4680 C   0  0  0  0  0  0  0  0  0  0  0  0
  142.1810   78.7750  223.0940 C   0  0  0  0  0  0  0  0  0  0  0  0
  140.8020   78.6400  223.0290 C   0  0  0  0  0  0  0  0  0  0  0  0
  140.2550   77.4620  222.6600 N   0  0  0  0  0  0  0  0  0  0  0  0
  140.1990   74.9070  222.5080 H   0  0  0  0  0  0  0  0  0  0  0  0
  137.5922   73.4915  222.0851 H   0  0  0  0  0  0  0  0  0  0  0  0
  138.7572   73.4173  220.7290 H   0  0  0  0  0  0  0  0  0  0  0  0
  137.7776   71.1521  224.8598 H   0  0  0  0  0  0  0  0  0  0  0  0
  136.8915   72.1796  223.7339 H   0  0  0  0  0  0  0  0  0  0  0  0
  136.6559   69.2909  224.0932 H   0  0  0  0  0  0  0  0  0  0  0  0
  135.7522   70.2678  222.9417 H   0  0  0  0  0  0  0  0  0  0  0  0
  137.5718   68.4117  222.1239 H   0  0  0  0  0  0  0  0  0  0  0  0
  137.3731   69.8697  221.1954 H   0  0  0  0  0  0  0  0  0  0  0  0
  139.8712   69.7722  221.9910 H   0  0  0  0  0  0  0  0  0  0  0  0
  138.4795   69.2265  224.5986 H   0  0  0  0  0  0  0  0  0  0  0  0
  139.7340   68.2429  223.6729 H   0  0  0  0  0  0  0  0  0  0  0  0
  139.3006   68.9941  227.0556 H   0  0  0  0  0  0  0  0  0  0  0  0
  139.5111   70.1985  229.1877 H   0  0  0  0  0  0  0  0  0  0  0  0
  140.7923   72.2967  229.3031 H   0  0  0  0  0  0  0  0  0  0  0  0
  141.8730   73.1938  227.2557 H   0  0  0  0  0  0  0  0  0  0  0  0
  141.6561   71.9889  225.1372 H   0  0  0  0  0  0  0  0  0  0  0  0
  137.0289   78.2258  222.8368 H   0  0  0  0  0  0  0  0  0  0  0  0
  137.9675   80.4061  223.5177 H   0  0  0  0  0  0  0  0  0  0  0  0
  139.9704   81.7494  223.9633 H   0  0  0  0  0  0  0  0  0  0  0  0
  143.8827   80.0510  223.5133 H   0  0  0  0  0  0  0  0  0  0  0  0
  142.8135   77.9113  222.8410 H   0  0  0  0  0  0  0  0  0  0  0  0
  1  2  2  0
  2  3  1  0
  3  4  1  0
  4  5  1  0
  5  6  2  0
  5  7  1  0
  7  8  1  0
  8  9  1  0
  9 10  1  0
 10 11  1  0
 11 12  1  0
 12 13  1  0
 13 14  1  0
 14 15  2  0
 15 16  1  0
 16 17  2  0
 17 18  1  0
 18 19  2  0
  2 20  1  0
 20 21  2  0
 21 22  1  0
 22 23  2  0
 23 24  1  0
 24 25  2  0
 25 26  1  0
 25 27  1  0
 27 28  2  0
 28 29  1  0
 29 30  2  0
 11  7  1  0
 19 14  1  0
 30 20  1  0
 29 23  1  0
  3 31  1  0
  4 32  1  0
  4 33  1  0
  8 34  1  0
  8 35  1  0
  9 36  1  0
  9 37  1  0
 10 38  1  0
 10 39  1  0
 11 40  1  6
 12 41  1  0
 12 42  1  0
 15 43  1  0
 16 44  1  0
 17 45  1  0
 18 46  1  0
 19 47  1  0
 21 48  1  0
 22 49  1  0
 24 50  1  0
 27 51  1  0
 28 52  1  0
M  END
>  <smiles>  (37) 
O=C(NCC(=O)N1CCC[C@@H]1COc1ccccc1)c1ccc2cc(F)ccc2n1

>  <score_type>  (37) 
oracle

>  <origin>  (37) 
autodockgpu

>  <m_score__min__energy>  (37) 
-8.4499999999999993

>  <m_primary>  (37) 
energy

>  <rmsd>  (37) 
8.592626932722197

>  <m_score__min__rmsd>  (37) 
8.592626932722197

>  <meeko>  (37) 
{"free_energy": -7.92, "intermolecular_energy": -10.0, "internal_energy": -2.22, "cluster_size": 14, "cluster_id": 3, "rank_in_cluster": 4}

>  <energy>  (37) 
-7.19

>  <cluster_rmsd>  (37) 
0.93

>  <cluster>  (37) 
3

$$$$

     RDKit          3D

 52 55  0  0  0  0  0  0  0  0999 V2000
  140.9420   71.9620  221.1990 O   0  0  0  0  0  0  0  0  0  0  0  0
  140.3560   72.4010  222.2260 C   0  0  0  0  0  0  0  0  0  0  0  0
  139.8270   73.7050  222.3080 N   0  0  0  0  0  0  0  0  0  0  0  0
  139.9500   74.5960  221.1750 C   0  0  0  0  0  0  0  0  0  0  0  0
  139.1790   75.8340  221.4640 C   0  0  0  0  0  0  0  0  0  0  0  0
  138.7390   76.0580  222.6360 O   0  0  0  0  0  0  0  0  0  0  0  0
  138.9580   76.7360  220.3970 N   0  0  0  0  0  0  0  0  0  0  0  0
  139.0620   76.5190  218.9610 C   0  0  0  0  0  0  0  0  0  0  0  0
  138.0030   77.4350  218.3490 C   0  0  0  0  0  0  0  0  0  0  0  0
  137.3830   78.1190  219.5240 C   0  0  0  0  0  0  0  0  0  0  0  0
  138.5610   78.1480  220.5140 C   0  0  2  0  0  0  0  0  0  0  0  0
  139.6650   79.0240  219.9670 C   0  0  0  0  0  0  0  0  0  0  0  0
  140.1120   80.0200  220.8140 O   0  0  0  0  0  0  0  0  0  0  0  0
  140.9020   80.0160  221.9050 C   0  0  0  0  0  0  0  0  0  0  0  0
  141.2960   78.9250  222.6470 C   0  0  0  0  0  0  0  0  0  0  0  0
  142.1140   79.0300  223.7540 C   0  0  0  0  0  0  0  0  0  0  0  0
  142.5630   80.2490  224.1510 C   0  0  0  0  0  0  0  0  0  0  0  0
  142.1980   81.3730  223.4460 C   0  0  0  0  0  0  0  0  0  0  0  0
  141.3880   81.2470  222.3530 C   0  0  0  0  0  0  0  0  0  0  0  0
  140.2100   71.5290  223.3990 C   0  0  0  0  0  0  0  0  0  0  0  0
  139.5920   70.2950  223.3050 C   0  0  0  0  0  0  0  0  0  0  0  0
  139.4410   69.4560  224.3920 C   0  0  0  0  0  0  0  0  0  0  0  0
  139.9250   69.8630  225.6230 C   0  0  0  0  0  0  0  0  0  0  0  0
  139.8200   69.1010  226.7480 C   0  0  0  0  0  0  0  0  0  0  0  0
  140.3030   69.5090  227.9740 C   0  0  0  0  0  0  0  0  0  0  0  0
  140.2040   68.7630  229.0980 F   0  0  0  0  0  0  0  0  0  0  0  0
  140.9200   70.7400  228.0760 C   0  0  0  0  0  0  0  0  0  0  0  0
  141.0280   71.5160  226.9320 C   0  0  0  0  0  0  0  0  0  0  0  0
  140.5380   71.0920  225.7060 C   0  0  0  0  0  0  0  0  0  0  0  0
  140.6640   71.8800  224.6180 N   0  0  0  0  0  0  0  0  0  0  0  0
  139.3390   74.0550  223.1810 H   0  0  0  0  0  0  0  0  0  0  0  0
  141.0087   74.8472  221.0134 H   0  0  0  0  0  0  0  0  0  0  0  0
  139.5586   74.1105  220.2689 H   0  0  0  0  0  0  0  0  0  0  0  0
  140.0648   76.7909  218.5998 H   0  0  0  0  0  0  0  0  0  0  0  0
  138.9061   75.4648  218.6884 H   0  0  0  0  0  0  0  0  0  0  0  0
  138.4659   78.1674  217.6713 H   0  0  0  0  0  0  0  0  0  0  0  0
  137.2663   76.8825  217.7474 H   0  0  0  0  0  0  0  0  0  0  0  0
  137.0477   79.1348  219.2676 H   0  0  0  0  0  0  0  0  0  0  0  0
  136.4821   77.6204  219.9111 H   0  0  0  0  0  0  0  0  0  0  0  0
  138.3421   78.5202  221.5257 H   0  0  0  0  0  0  0  0  0  0  0  0
  140.5209   78.3773  219.7236 H   0  0  0  0  0  0  0  0  0  0  0  0
  139.2356   79.5402  219.0957 H   0  0  0  0  0  0  0  0  0  0  0  0
  140.9440   77.9276  222.3449 H   0  0  0  0  0  0  0  0  0  0  0  0
  142.4018   78.1279  224.3138 H   0  0  0  0  0  0  0  0  0  0  0  0
  143.2155   80.3373  225.0322 H   0  0  0  0  0  0  0  0  0  0  0  0
  142.5555   82.3648  223.7599 H   0  0  0  0  0  0  0  0  0  0  0  0
  141.1058   82.1556  221.8008 H   0  0  0  0  0  0  0  0  0  0  0  0
  139.2062   69.9695  222.3277 H   0  0  0  0  0  0  0  0  0  0  0  0
  138.9444   68.4808  224.2810 H   0  0  0  0  0  0  0  0  0  0  0  0
  139.3294   68.1192  226.6753 H   0  0  0  0  0  0  0  0  0  0  0  0
  141.3153   71.0955  229.0390 H   0  0  0  0  0  0  0  0  0  0  0  0
  141.5177   72.4987  226.9991 H   0  0  0  0  0  0  0  0  0  0  0  0
  1  2  2  0
  2  3  1  0
  3  4  1  0
  4  5  1  0
  5  6  2  0
  5  7  1  0
  7  8  1  0
  8  9  1  0
  9 10  1  0
 10 11  1  0
 11 12  1  0
 12 13  1  0
 13 14  1  0
 14 15  2  0
 15 16  1  0
 16 17  2  0
 17 18  1  0
 18 19  2  0
  2 20  1  0
 20 21  2  0
 21 22  1  0
 22 23  2  0
 23 24  1  0
 24 25  2  0
 25 26  1  0
 25 27  1  0
 27 28  2  0
 28 29  1  0
 29 30  2  0
 11  7  1  0
 19 14  1  0
 30 20  1  0
 29 23  1  0
  3 31  1  0
  4 32  1  0
  4 33  1  0
  8 34  1  0
  8 35  1  0
  9 36  1  0
  9 37  1  0
 10 38  1  0
 10 39  1  0
 11 40  1  1
 12 41  1  0
 12 42  1  0
 15 43  1  0
 16 44  1  0
 17 45  1  0
 18 46  1  0
 19 47  1  0
 21 48  1  0
 22 49  1  0
 24 50  1  0
 27 51  1  0
 28 52  1  0
M  END
>  <smiles>  (38) 
O=C(NCC(=O)N1CCC[C@@H]1COc1ccccc1)c1ccc2cc(F)ccc2n1

>  <score_type>  (38) 
oracle

>  <origin>  (38) 
autodockgpu

>  <m_score__min__energy>  (38) 
-8.4499999999999993

>  <m_primary>  (38) 
energy

>  <rmsd>  (38) 
2.122255063917617

>  <m_score__min__rmsd>  (38) 
2.122255063917617

>  <meeko>  (38) 
{"free_energy": -7.31, "intermolecular_energy": -9.4, "internal_energy": -2.01, "cluster_size": 22, "cluster_id": 1, "rank_in_cluster": 22}

>  <energy>  (38) 
-7.83

>  <cluster_rmsd>  (38) 
0.0

>  <cluster>  (38) 
4

$$$$

     RDKit          3D

 52 55  0  0  0  0  0  0  0  0999 V2000
  137.0360   76.3280  221.9810 O   0  0  0  0  0  0  0  0  0  0  0  0
  138.2680   76.3490  222.2480 C   0  0  0  0  0  0  0  0  0  0  0  0
  139.0860   75.2020  222.1860 N   0  0  0  0  0  0  0  0  0  0  0  0
  138.5060   73.9340  221.8000 C   0  0  0  0  0  0  0  0  0  0  0  0
  139.4100   72.8440  222.2550 C   0  0  0  0  0  0  0  0  0  0  0  0
  140.6590   73.0530  222.3720 O   0  0  0  0  0  0  0  0  0  0  0  0
  138.8310   71.5880  222.5460 N   0  0  0  0  0  0  0  0  0  0  0  0
  137.4850   71.2670  223.0000 C   0  0  0  0  0  0  0  0  0  0  0  0
  137.1770   69.9050  222.3820 C   0  0  0  0  0  0  0  0  0  0  0  0
  138.4140   69.5560  221.6200 C   0  0  0  0  0  0  0  0  0  0  0  0
  139.4930   70.2770  222.4490 C   0  0  2  0  0  0  0  0  0  0  0  0
  139.5780   69.6580  223.8250 C   0  0  0  0  0  0  0  0  0  0  0  0
  140.6420   70.0750  224.6030 O   0  0  0  0  0  0  0  0  0  0  0  0
  140.7220   70.7100  225.7880 C   0  0  0  0  0  0  0  0  0  0  0  0
  141.4400   71.8480  226.0800 C   0  0  0  0  0  0  0  0  0  0  0  0
  141.4530   72.4220  227.3350 C   0  0  0  0  0  0  0  0  0  0  0  0
  140.7380   71.8600  228.3440 C   0  0  0  0  0  0  0  0  0  0  0  0
  140.0040   70.7210  228.1080 C   0  0  0  0  0  0  0  0  0  0  0  0
  140.0040   70.1690  226.8580 C   0  0  0  0  0  0  0  0  0  0  0  0
  138.8970   77.6150  222.6450 C   0  0  0  0  0  0  0  0  0  0  0  0
  138.1390   78.7360  222.9330 C   0  0  0  0  0  0  0  0  0  0  0  0
  138.7040   79.9390  223.3090 C   0  0  0  0  0  0  0  0  0  0  0  0
  140.0820   80.0300  223.4020 C   0  0  0  0  0  0  0  0  0  0  0  0
  140.7250   81.1750  223.7640 C   0  0  0  0  0  0  0  0  0  0  0  0
  142.0990   81.2630  223.8560 C   0  0  0  0  0  0  0  0  0  0  0  0
  142.7490   82.3930  224.2140 F   0  0  0  0  0  0  0  0  0  0  0  0
  142.8630   80.1490  223.5690 C   0  0  0  0  0  0  0  0  0  0  0  0
  142.2100   78.9840  223.2000 C   0  0  0  0  0  0  0  0  0  0  0  0
  140.8280   78.9100  223.1140 C   0  0  0  0  0  0  0  0  0  0  0  0
  140.2340   77.7540  222.7500 N   0  0  0  0  0  0  0  0  0  0  0  0
  140.1190   75.2410  222.4160 H   0  0  0  0  0  0  0  0  0  0  0  0
  137.5189   73.8185  222.2714 H   0  0  0  0  0  0  0  0  0  0  0  0
  138.3846   73.8918  220.7075 H   0  0  0  0  0  0  0  0  0  0  0  0
  137.4499   71.2108  224.0980 H   0  0  0  0  0  0  0  0  0  0  0  0
  136.7535   72.0324  222.7016 H   0  0  0  0  0  0  0  0  0  0  0  0
  136.9780   69.1582  223.1647 H   0  0  0  0  0  0  0  0  0  0  0  0
  136.2821   69.9267  221.7427 H   0  0  0  0  0  0  0  0  0  0  0  0
  138.5812   68.4690  221.5998 H   0  0  0  0  0  0  0  0  0  0  0  0
  138.3884   69.8506  220.5605 H   0  0  0  0  0  0  0  0  0  0  0  0
  140.5141   70.2650  222.0402 H   0  0  0  0  0  0  0  0  0  0  0  0
  138.6498   69.9005  224.3631 H   0  0  0  0  0  0  0  0  0  0  0  0
  139.7289   68.5807  223.6615 H   0  0  0  0  0  0  0  0  0  0  0  0
  142.0282   72.3197  225.2790 H   0  0  0  0  0  0  0  0  0  0  0  0
  142.0415   73.3332  227.5179 H   0  0  0  0  0  0  0  0  0  0  0  0
  140.7460   72.3140  229.3459 H   0  0  0  0  0  0  0  0  0  0  0  0
  139.4219   70.2584  228.9186 H   0  0  0  0  0  0  0  0  0  0  0  0
  139.4122   69.2578  226.6862 H   0  0  0  0  0  0  0  0  0  0  0  0
  137.0437   78.6665  222.8597 H   0  0  0  0  0  0  0  0  0  0  0  0
  138.0696   80.8099  223.5308 H   0  0  0  0  0  0  0  0  0  0  0  0
  140.1235   82.0672  223.9927 H   0  0  0  0  0  0  0  0  0  0  0  0
  143.9606   80.1856  223.6317 H   0  0  0  0  0  0  0  0  0  0  0  0
  142.8068   78.0896  222.9679 H   0  0  0  0  0  0  0  0  0  0  0  0
  1  2  2  0
  2  3  1  0
  3  4  1  0
  4  5  1  0
  5  6  2  0
  5  7  1  0
  7  8  1  0
  8  9  1  0
  9 10  1  0
 10 11  1  0
 11 12  1  0
 12 13  1  0
 13 14  1  0
 14 15  2  0
 15 16  1  0
 16 17  2  0
 17 18  1  0
 18 19  2  0
  2 20  1  0
 20 21  2  0
 21 22  1  0
 22 23  2  0
 23 24  1  0
 24 25  2  0
 25 26  1  0
 25 27  1  0
 27 28  2  0
 28 29  1  0
 29 30  2  0
 11  7  1  0
 19 14  1  0
 30 20  1  0
 29 23  1  0
  3 31  1  0
  4 32  1  0
  4 33  1  0
  8 34  1  0
  8 35  1  0
  9 36  1  0
  9 37  1  0
 10 38  1  0
 10 39  1  0
 11 40  1  6
 12 41  1  0
 12 42  1  0
 15 43  1  0
 16 44  1  0
 17 45  1  0
 18 46  1  0
 19 47  1  0
 21 48  1  0
 22 49  1  0
 24 50  1  0
 27 51  1  0
 28 52  1  0
M  END
>  <smiles>  (39) 
O=C(NCC(=O)N1CCC[C@@H]1COc1ccccc1)c1ccc2cc(F)ccc2n1

>  <score_type>  (39) 
oracle

>  <origin>  (39) 
autodockgpu

>  <m_score__min__energy>  (39) 
-8.4499999999999993

>  <m_primary>  (39) 
energy

>  <rmsd>  (39) 
8.579083835080656

>  <m_score__min__rmsd>  (39) 
8.579083835080656

>  <meeko>  (39) 
{"free_energy": -7.91, "intermolecular_energy": -10.0, "internal_energy": -2.21, "cluster_size": 14, "cluster_id": 3, "rank_in_cluster": 6}

>  <energy>  (39) 
-7.76

>  <cluster_rmsd>  (39) 
0.66

>  <cluster>  (39) 
4

$$$$

     RDKit          3D

 52 55  0  0  0  0  0  0  0  0999 V2000
  140.2530   71.5160  220.9160 O   0  0  0  0  0  0  0  0  0  0  0  0
  140.0090   72.0860  222.0140 C   0  0  0  0  0  0  0  0  0  0  0  0
  139.8160   73.4770  222.1290 N   0  0  0  0  0  0  0  0  0  0  0  0
  139.8950   74.3080  220.9470 C   0  0  0  0  0  0  0  0  0  0  0  0
  140.4920   75.6150  221.3280 C   0  0  0  0  0  0  0  0  0  0  0  0
  140.4300   76.0230  222.5320 O   0  0  0  0  0  0  0  0  0  0  0  0
  141.1190   76.3730  220.3130 N   0  0  0  0  0  0  0  0  0  0  0  0
  142.5330   76.6450  220.0950 C   0  0  0  0  0  0  0  0  0  0  0  0
  142.6820   76.7470  218.5780 C   0  0  0  0  0  0  0  0  0  0  0  0
  141.3000   76.5300  218.0550 C   0  0  0  0  0  0  0  0  0  0  0  0
  140.4480   77.0840  219.2120 C   0  0  2  0  0  0  0  0  0  0  0  0
  140.6880   78.5690  219.3570 C   0  0  0  0  0  0  0  0  0  0  0  0
  140.3320   79.1140  220.5760 O   0  0  0  0  0  0  0  0  0  0  0  0
  141.0200   79.3680  221.7060 C   0  0  0  0  0  0  0  0  0  0  0  0
  140.7190   78.9430  222.9810 C   0  0  0  0  0  0  0  0  0  0  0  0
  141.4960   79.2590  224.0770 C   0  0  0  0  0  0  0  0  0  0  0  0
  142.6100   80.0210  223.9210 C   0  0  0  0  0  0  0  0  0  0  0  0
  142.9570   80.4730  222.6680 C   0  0  0  0  0  0  0  0  0  0  0  0
  142.1740   80.1490  221.5970 C   0  0  0  0  0  0  0  0  0  0  0  0
  139.9210   71.2810  223.2400 C   0  0  0  0  0  0  0  0  0  0  0  0
  139.3570   70.0170  223.2300 C   0  0  0  0  0  0  0  0  0  0  0  0
  139.2610   69.2390  224.3670 C   0  0  0  0  0  0  0  0  0  0  0  0
  139.7460   69.7400  225.5630 C   0  0  0  0  0  0  0  0  0  0  0  0
  139.6930   69.0420  226.7320 C   0  0  0  0  0  0  0  0  0  0  0  0
  140.1780   69.5430  227.9240 C   0  0  0  0  0  0  0  0  0  0  0  0
  140.1310   68.8620  229.0910 F   0  0  0  0  0  0  0  0  0  0  0  0
  140.7420   70.8040  227.9410 C   0  0  0  0  0  0  0  0  0  0  0  0
  140.7960   71.5140  226.7510 C   0  0  0  0  0  0  0  0  0  0  0  0
  140.3050   70.9970  225.5620 C   0  0  0  0  0  0  0  0  0  0  0  0
  140.3790   71.7240  224.4270 N   0  0  0  0  0  0  0  0  0  0  0  0
  139.6130   73.9380  223.0620 H   0  0  0  0  0  0  0  0  0  0  0  0
  140.5260   73.8183  220.1907 H   0  0  0  0  0  0  0  0  0  0  0  0
  138.8903   74.4611  220.5262 H   0  0  0  0  0  0  0  0  0  0  0  0
  142.8247   77.5896  220.5773 H   0  0  0  0  0  0  0  0  0  0  0  0
  143.1769   75.8629  220.5236 H   0  0  0  0  0  0  0  0  0  0  0  0
  143.0562   77.7403  218.2893 H   0  0  0  0  0  0  0  0  0  0  0  0
  143.4019   76.0184  218.1769 H   0  0  0  0  0  0  0  0  0  0  0  0
  141.1290   77.0913  217.1246 H   0  0  0  0  0  0  0  0  0  0  0  0
  141.0771   75.4854  217.7920 H   0  0  0  0  0  0  0  0  0  0  0  0
  139.3592   76.9535  219.1259 H   0  0  0  0  0  0  0  0  0  0  0  0
  141.7612   78.7552  219.2032 H   0  0  0  0  0  0  0  0  0  0  0  0
  140.0418   79.0532  218.6100 H   0  0  0  0  0  0  0  0  0  0  0  0
  139.8213   78.3256  223.1322 H   0  0  0  0  0  0  0  0  0  0  0  0
  141.2137   78.8944  225.0757 H   0  0  0  0  0  0  0  0  0  0  0  0
  143.2317   80.2756  224.7920 H   0  0  0  0  0  0  0  0  0  0  0  0
  143.8573   81.0899  222.5305 H   0  0  0  0  0  0  0  0  0  0  0  0
  142.4649   80.5197  220.6030 H   0  0  0  0  0  0  0  0  0  0  0  0
  138.9707   69.6172  222.2808 H   0  0  0  0  0  0  0  0  0  0  0  0
  138.8068   68.2381  224.3231 H   0  0  0  0  0  0  0  0  0  0  0  0
  139.2451   68.0373  226.7260 H   0  0  0  0  0  0  0  0  0  0  0  0
  141.1376   71.2333  228.8733 H   0  0  0  0  0  0  0  0  0  0  0  0
  141.2426   72.5193  226.7504 H   0  0  0  0  0  0  0  0  0  0  0  0
  1  2  2  0
  2  3  1  0
  3  4  1  0
  4  5  1  0
  5  6  2  0
  5  7  1  0
  7  8  1  0
  8  9  1  0
  9 10  1  0
 10 11  1  0
 11 12  1  0
 12 13  1  0
 13 14  1  0
 14 15  2  0
 15 16  1  0
 16 17  2  0
 17 18  1  0
 18 19  2  0
  2 20  1  0
 20 21  2  0
 21 22  1  0
 22 23  2  0
 23 24  1  0
 24 25  2  0
 25 26  1  0
 25 27  1  0
 27 28  2  0
 28 29  1  0
 29 30  2  0
 11  7  1  0
 19 14  1  0
 30 20  1  0
 29 23  1  0
  3 31  1  0
  4 32  1  0
  4 33  1  0
  8 34  1  0
  8 35  1  0
  9 36  1  0
  9 37  1  0
 10 38  1  0
 10 39  1  0
 11 40  1  6
 12 41  1  0
 12 42  1  0
 15 43  1  0
 16 44  1  0
 17 45  1  0
 18 46  1  0
 19 47  1  0
 21 48  1  0
 22 49  1  0
 24 50  1  0
 27 51  1  0
 28 52  1  0
M  END
>  <smiles>  (40) 
O=C(NCC(=O)N1CCC[C@@H]1COc1ccccc1)c1ccc2cc(F)ccc2n1

>  <score_type>  (40) 
oracle

>  <origin>  (40) 
autodockgpu

>  <m_score__min__energy>  (40) 
-8.4499999999999993

>  <m_primary>  (40) 
energy

>  <rmsd>  (40) 
1.9853814038691489

>  <m_score__min__rmsd>  (40) 
1.9853814038691489

>  <meeko>  (40) 
{"free_energy": -8.03, "intermolecular_energy": -10.12, "internal_energy": -2.26, "cluster_size": 22, "cluster_id": 1, "rank_in_cluster": 12}

>  <energy>  (40) 
-7.75

>  <cluster_rmsd>  (40) 
0.69

>  <cluster>  (40) 
4

$$$$

     RDKit          3D

 52 55  0  0  0  0  0  0  0  0999 V2000
  137.4340   70.4780  222.2750 O   0  0  0  0  0  0  0  0  0  0  0  0
  138.3250   70.9590  223.0260 C   0  0  0  0  0  0  0  0  0  0  0  0
  138.8420   72.2610  222.8660 N   0  0  0  0  0  0  0  0  0  0  0  0
  138.3400   73.1000  221.7990 C   0  0  0  0  0  0  0  0  0  0  0  0
  139.1590   74.3400  221.7500 C   0  0  0  0  0  0  0  0  0  0  0  0
  140.3690   74.3270  222.1440 O   0  0  0  0  0  0  0  0  0  0  0  0
  138.5450   75.5150  221.2580 N   0  0  0  0  0  0  0  0  0  0  0  0
  137.6460   75.6890  220.1260 C   0  0  0  0  0  0  0  0  0  0  0  0
  136.7190   76.8330  220.5350 C   0  0  0  0  0  0  0  0  0  0  0  0
  137.1960   77.2270  221.8950 C   0  0  0  0  0  0  0  0  0  0  0  0
  138.6910   76.8730  221.8060 C   0  0  2  0  0  0  0  0  0  0  0  0
  139.3640   77.7550  220.7800 C   0  0  0  0  0  0  0  0  0  0  0  0
  140.6850   78.0700  221.0370 O   0  0  0  0  0  0  0  0  0  0  0  0
  141.2850   78.8260  221.9760 C   0  0  0  0  0  0  0  0  0  0  0  0
  141.4010   78.5540  223.3210 C   0  0  0  0  0  0  0  0  0  0  0  0
  142.0410   79.4010  224.2030 C   0  0  0  0  0  0  0  0  0  0  0  0
  142.5880   80.5600  223.7520 C   0  0  0  0  0  0  0  0  0  0  0  0
  142.5010   80.8820  222.4170 C   0  0  0  0  0  0  0  0  0  0  0  0
  141.8630   80.0300  221.5610 C   0  0  0  0  0  0  0  0  0  0  0  0
  138.8630   70.1410  224.1210 C   0  0  0  0  0  0  0  0  0  0  0  0
  138.7600   68.7620  224.1060 C   0  0  0  0  0  0  0  0  0  0  0  0
  139.2560   67.9690  225.1220 C   0  0  0  0  0  0  0  0  0  0  0  0
  139.8820   68.5750  226.1990 C   0  0  0  0  0  0  0  0  0  0  0  0
  140.4000   67.8730  227.2440 C   0  0  0  0  0  0  0  0  0  0  0  0
  141.0230   68.4790  228.3160 C   0  0  0  0  0  0  0  0  0  0  0  0
  141.5420   67.7940  229.3600 F   0  0  0  0  0  0  0  0  0  0  0  0
  141.1300   69.8560  228.3380 C   0  0  0  0  0  0  0  0  0  0  0  0
  140.6020   70.5720  227.2750 C   0  0  0  0  0  0  0  0  0  0  0  0
  139.9800   69.9480  226.2040 C   0  0  0  0  0  0  0  0  0  0  0  0
  139.4800   70.6840  225.1900 N   0  0  0  0  0  0  0  0  0  0  0  0
  139.5910   72.6470  223.5070 H   0  0  0  0  0  0  0  0  0  0  0  0
  138.4164   72.5665  220.8401 H   0  0  0  0  0  0  0  0  0  0  0  0
  137.2849   73.3517  221.9816 H   0  0  0  0  0  0  0  0  0  0  0  0
  138.2108   75.9532  219.2198 H   0  0  0  0  0  0  0  0  0  0  0  0
  137.0909   74.7687  219.8917 H   0  0  0  0  0  0  0  0  0  0  0  0
  136.8059   77.6750  219.8326 H   0  0  0  0  0  0  0  0  0  0  0  0
  135.6595   76.5372  220.5308 H   0  0  0  0  0  0  0  0  0  0  0  0
  137.0470   78.3014  222.0782 H   0  0  0  0  0  0  0  0  0  0  0  0
  136.6643   76.7300  222.7198 H   0  0  0  0  0  0  0  0  0  0  0  0
  139.2744   76.9748  222.7330 H   0  0  0  0  0  0  0  0  0  0  0  0
  139.3220   77.2382  219.8099 H   0  0  0  0  0  0  0  0  0  0  0  0
  138.8179   78.7097  220.7997 H   0  0  0  0  0  0  0  0  0  0  0  0
  140.9649   77.6217  223.7090 H   0  0  0  0  0  0  0  0  0  0  0  0
  142.1081   79.1382  225.2690 H   0  0  0  0  0  0  0  0  0  0  0  0
  143.0985   81.2384  224.4514 H   0  0  0  0  0  0  0  0  0  0  0  0
  142.9416   81.8177  222.0423 H   0  0  0  0  0  0  0  0  0  0  0  0
  141.8010   80.3032  220.4973 H   0  0  0  0  0  0  0  0  0  0  0  0
  138.2638   68.2781  223.2518 H   0  0  0  0  0  0  0  0  0  0  0  0
  139.1557   66.8745  225.0768 H   0  0  0  0  0  0  0  0  0  0  0  0
  140.3185   66.7761  227.2335 H   0  0  0  0  0  0  0  0  0  0  0  0
  141.6212   70.3707  229.1769 H   0  0  0  0  0  0  0  0  0  0  0  0
  140.6788   71.6693  227.2811 H   0  0  0  0  0  0  0  0  0  0  0  0
  1  2  2  0
  2  3  1  0
  3  4  1  0
  4  5  1  0
  5  6  2  0
  5  7  1  0
  7  8  1  0
  8  9  1  0
  9 10  1  0
 10 11  1  0
 11 12  1  0
 12 13  1  0
 13 14  1  0
 14 15  2  0
 15 16  1  0
 16 17  2  0
 17 18  1  0
 18 19  2  0
  2 20  1  0
 20 21  2  0
 21 22  1  0
 22 23  2  0
 23 24  1  0
 24 25  2  0
 25 26  1  0
 25 27  1  0
 27 28  2  0
 28 29  1  0
 29 30  2  0
 11  7  1  0
 19 14  1  0
 30 20  1  0
 29 23  1  0
  3 31  1  0
  4 32  1  0
  4 33  1  0
  8 34  1  0
  8 35  1  0
  9 36  1  0
  9 37  1  0
 10 38  1  0
 10 39  1  0
 11 40  1  1
 12 41  1  0
 12 42  1  0
 15 43  1  0
 16 44  1  0
 17 45  1  0
 18 46  1  0
 19 47  1  0
 21 48  1  0
 22 49  1  0
 24 50  1  0
 27 51  1  0
 28 52  1  0
M  END
>  <smiles>  (41) 
O=C(NCC(=O)N1CCC[C@@H]1COc1ccccc1)c1ccc2cc(F)ccc2n1

>  <score_type>  (41) 
oracle

>  <origin>  (41) 
autodockgpu

>  <m_score__min__energy>  (41) 
-8.4499999999999993

>  <m_primary>  (41) 
energy

>  <rmsd>  (41) 
2.390543041204317

>  <m_score__min__rmsd>  (41) 
2.390543041204317

>  <meeko>  (41) 
{"free_energy": -7.89, "intermolecular_energy": -9.98, "internal_energy": -1.94, "cluster_size": 22, "cluster_id": 1, "rank_in_cluster": 17}

>  <energy>  (41) 
-7.75

>  <cluster_rmsd>  (41) 
0.64

>  <cluster>  (41) 
4

$$$$

     RDKit          3D

 52 55  0  0  0  0  0  0  0  0999 V2000
  136.9920   75.9890  221.7160 O   0  0  0  0  0  0  0  0  0  0  0  0
  138.1830   76.0080  222.1300 C   0  0  0  0  0  0  0  0  0  0  0  0
  138.9750   74.8480  222.2390 N   0  0  0  0  0  0  0  0  0  0  0  0
  138.4180   73.5670  221.8620 C   0  0  0  0  0  0  0  0  0  0  0  0
  139.2110   72.4950  222.5210 C   0  0  0  0  0  0  0  0  0  0  0  0
  140.4520   72.6610  222.7470 O   0  0  0  0  0  0  0  0  0  0  0  0
  138.5390   71.3040  222.8780 N   0  0  0  0  0  0  0  0  0  0  0  0
  137.2410   71.1240  223.5130 C   0  0  0  0  0  0  0  0  0  0  0  0
  136.6980   69.8200  222.9310 C   0  0  0  0  0  0  0  0  0  0  0  0
  137.7700   69.3550  222.0010 C   0  0  0  0  0  0  0  0  0  0  0  0
  139.0280   69.9300  222.6770 C   0  0  2  0  0  0  0  0  0  0  0  0
  139.2310   69.2710  224.0220 C   0  0  0  0  0  0  0  0  0  0  0  0
  140.3390   69.6920  224.7320 O   0  0  0  0  0  0  0  0  0  0  0  0
  140.4910   70.4140  225.8580 C   0  0  0  0  0  0  0  0  0  0  0  0
  141.1680   71.6040  226.0040 C   0  0  0  0  0  0  0  0  0  0  0  0
  141.2630   72.2680  227.2110 C   0  0  0  0  0  0  0  0  0  0  0  0
  140.6740   71.7460  228.3180 C   0  0  0  0  0  0  0  0  0  0  0  0
  139.9850   70.5580  228.2300 C   0  0  0  0  0  0  0  0  0  0  0  0
  139.9030   69.9180  227.0250 C   0  0  0  0  0  0  0  0  0  0  0  0
  138.7880   77.2880  222.5240 C   0  0  0  0  0  0  0  0  0  0  0  0
  138.0120   78.4100  222.7540 C   0  0  0  0  0  0  0  0  0  0  0  0
  138.5550   79.6240  223.1250 C   0  0  0  0  0  0  0  0  0  0  0  0
  139.9280   79.7260  223.2730 C   0  0  0  0  0  0  0  0  0  0  0  0
  140.5490   80.8830  223.6350 C   0  0  0  0  0  0  0  0  0  0  0  0
  141.9180   80.9820  223.7820 C   0  0  0  0  0  0  0  0  0  0  0  0
  142.5460   82.1240  224.1400 F   0  0  0  0  0  0  0  0  0  0  0  0
  142.6990   79.8660  223.5530 C   0  0  0  0  0  0  0  0  0  0  0  0
  142.0680   78.6890  223.1840 C   0  0  0  0  0  0  0  0  0  0  0  0
  140.6910   78.6050  223.0420 C   0  0  0  0  0  0  0  0  0  0  0  0
  140.1190   77.4370  222.6810 N   0  0  0  0  0  0  0  0  0  0  0  0
  139.9740   74.8850  222.5900 H   0  0  0  0  0  0  0  0  0  0  0  0
  137.3695   73.5075  222.1894 H   0  0  0  0  0  0  0  0  0  0  0  0
  138.4562   73.4464  220.7693 H   0  0  0  0  0  0  0  0  0  0  0  0
  137.3515   71.0446  224.6045 H   0  0  0  0  0  0  0  0  0  0  0  0
  136.5671   71.9734  223.3274 H   0  0  0  0  0  0  0  0  0  0  0  0
  136.5251   69.0805  223.7268 H   0  0  0  0  0  0  0  0  0  0  0  0
  135.7320   69.9571  222.4230 H   0  0  0  0  0  0  0  0  0  0  0  0
  137.8081   68.2570  221.9476 H   0  0  0  0  0  0  0  0  0  0  0  0
  137.6322   69.6774  220.9584 H   0  0  0  0  0  0  0  0  0  0  0  0
  139.9748   69.8145  222.1291 H   0  0  0  0  0  0  0  0  0  0  0  0
  138.3400   69.4716  224.6351 H   0  0  0  0  0  0  0  0  0  0  0  0
  139.3957   68.2038  223.8124 H   0  0  0  0  0  0  0  0  0  0  0  0
  141.6541   72.0447  225.1211 H   0  0  0  0  0  0  0  0  0  0  0  0
  141.8145   73.2176  227.2758 H   0  0  0  0  0  0  0  0  0  0  0  0
  140.7475   72.2712  229.2817 H   0  0  0  0  0  0  0  0  0  0  0  0
  139.5047   70.1275  229.1211 H   0  0  0  0  0  0  0  0  0  0  0  0
  139.3489   68.9692  226.9712 H   0  0  0  0  0  0  0  0  0  0  0  0
  136.9210   78.3320  222.6368 H   0  0  0  0  0  0  0  0  0  0  0  0
  137.9075   80.4959  223.3001 H   0  0  0  0  0  0  0  0  0  0  0  0
  139.9336   81.7762  223.8179 H   0  0  0  0  0  0  0  0  0  0  0  0
  143.7928   79.9105  223.6607 H   0  0  0  0  0  0  0  0  0  0  0  0
  142.6784   77.7930  222.9978 H   0  0  0  0  0  0  0  0  0  0  0  0
  1  2  2  0
  2  3  1  0
  3  4  1  0
  4  5  1  0
  5  6  2  0
  5  7  1  0
  7  8  1  0
  8  9  1  0
  9 10  1  0
 10 11  1  0
 11 12  1  0
 12 13  1  0
 13 14  1  0
 14 15  2  0
 15 16  1  0
 16 17  2  0
 17 18  1  0
 18 19  2  0
  2 20  1  0
 20 21  2  0
 21 22  1  0
 22 23  2  0
 23 24  1  0
 24 25  2  0
 25 26  1  0
 25 27  1  0
 27 28  2  0
 28 29  1  0
 29 30  2  0
 11  7  1  0
 19 14  1  0
 30 20  1  0
 29 23  1  0
  3 31  1  0
  4 32  1  0
  4 33  1  0
  8 34  1  0
  8 35  1  0
  9 36  1  0
  9 37  1  0
 10 38  1  0
 10 39  1  0
 11 40  1  6
 12 41  1  0
 12 42  1  0
 15 43  1  0
 16 44  1  0
 17 45  1  0
 18 46  1  0
 19 47  1  0
 21 48  1  0
 22 49  1  0
 24 50  1  0
 27 51  1  0
 28 52  1  0
M  END
>  <smiles>  (42) 
O=C(NCC(=O)N1CCC[C@@H]1COc1ccccc1)c1ccc2cc(F)ccc2n1

>  <score_type>  (42) 
oracle

>  <origin>  (42) 
autodockgpu

>  <m_score__min__energy>  (42) 
-8.4499999999999993

>  <m_primary>  (42) 
energy

>  <rmsd>  (42) 
8.574820695987404

>  <m_score__min__rmsd>  (42) 
8.574820695987404

>  <meeko>  (42) 
{"free_energy": -7.86, "intermolecular_energy": -9.95, "internal_energy": -2.23, "cluster_size": 14, "cluster_id": 3, "rank_in_cluster": 8}

>  <energy>  (42) 
-7.73

>  <cluster_rmsd>  (42) 
0.68

>  <cluster>  (42) 
4

$$$$

     RDKit          3D

 52 55  0  0  0  0  0  0  0  0999 V2000
  133.2980   69.9170  226.5200 O   0  0  0  0  0  0  0  0  0  0  0  0
  133.7930   71.0210  226.1670 C   0  0  0  0  0  0  0  0  0  0  0  0
  134.9270   71.1220  225.3350 N   0  0  0  0  0  0  0  0  0  0  0  0
  135.5670   69.9170  224.8530 C   0  0  0  0  0  0  0  0  0  0  0  0
  136.5770   70.2960  223.8300 C   0  0  0  0  0  0  0  0  0  0  0  0
  136.7820   71.5210  223.5530 O   0  0  0  0  0  0  0  0  0  0  0  0
  137.2880   69.2560  223.1900 N   0  0  0  0  0  0  0  0  0  0  0  0
  136.7870   68.1140  222.4370 C   0  0  0  0  0  0  0  0  0  0  0  0
  137.8480   67.8510  221.3700 C   0  0  0  0  0  0  0  0  0  0  0  0
  138.8930   68.8880  221.6260 C   0  0  0  0  0  0  0  0  0  0  0  0
  138.7500   69.0940  223.1450 C   0  0  2  0  0  0  0  0  0  0  0  0
  139.1340   67.8250  223.8710 C   0  0  0  0  0  0  0  0  0  0  0  0
  138.9520   67.8420  225.2400 O   0  0  0  0  0  0  0  0  0  0  0  0
  139.6400   68.4030  226.2530 C   0  0  0  0  0  0  0  0  0  0  0  0
  140.3650   67.7570  227.2300 C   0  0  0  0  0  0  0  0  0  0  0  0
  141.0400   68.4300  228.2290 C   0  0  0  0  0  0  0  0  0  0  0  0
  141.0020   69.7870  228.2750 C   0  0  0  0  0  0  0  0  0  0  0  0
  140.2910   70.4830  227.3250 C   0  0  0  0  0  0  0  0  0  0  0  0
  139.6310   69.7970  226.3440 C   0  0  0  0  0  0  0  0  0  0  0  0
  133.1760   72.2690  226.6340 C   0  0  0  0  0  0  0  0  0  0  0  0
  131.9630   72.2660  227.2990 C   0  0  0  0  0  0  0  0  0  0  0  0
  131.3600   73.4240  227.7490 C   0  0  0  0  0  0  0  0  0  0  0  0
  131.9920   74.6370  227.5270 C   0  0  0  0  0  0  0  0  0  0  0  0
  131.4710   75.8270  227.9360 C   0  0  0  0  0  0  0  0  0  0  0  0
  132.1020   77.0340  227.7130 C   0  0  0  0  0  0  0  0  0  0  0  0
  131.5960   78.2230  228.1120 F   0  0  0  0  0  0  0  0  0  0  0  0
  133.3130   77.0450  227.0490 C   0  0  0  0  0  0  0  0  0  0  0  0
  133.8430   75.8340  226.6330 C   0  0  0  0  0  0  0  0  0  0  0  0
  133.1970   74.6290  226.8650 C   0  0  0  0  0  0  0  0  0  0  0  0
  133.7510   73.4730  226.4420 N   0  0  0  0  0  0  0  0  0  0  0  0
  135.3290   72.0600  225.0510 H   0  0  0  0  0  0  0  0  0  0  0  0
  136.0613   69.3997  225.6885 H   0  0  0  0  0  0  0  0  0  0  0  0
  134.8179   69.2432  224.4115 H   0  0  0  0  0  0  0  0  0  0  0  0
  136.6721   67.2383  223.0927 H   0  0  0  0  0  0  0  0  0  0  0  0
  135.7975   68.3093  221.9979 H   0  0  0  0  0  0  0  0  0  0  0  0
  138.2675   66.8399  221.4783 H   0  0  0  0  0  0  0  0  0  0  0  0
  137.4411   67.9069  220.3495 H   0  0  0  0  0  0  0  0  0  0  0  0
  139.8962   68.5221  221.3622 H   0  0  0  0  0  0  0  0  0  0  0  0
  138.7697   69.8068  221.0338 H   0  0  0  0  0  0  0  0  0  0  0  0
  139.3533   69.8995  223.5890 H   0  0  0  0  0  0  0  0  0  0  0  0
  138.5293   67.0035  223.4594 H   0  0  0  0  0  0  0  0  0  0  0  0
  140.2158   67.7036  223.7129 H   0  0  0  0  0  0  0  0  0  0  0  0
  140.4081   66.6580  227.2136 H   0  0  0  0  0  0  0  0  0  0  0  0
  141.6072   67.8685  228.9859 H   0  0  0  0  0  0  0  0  0  0  0  0
  141.5379   70.3275  229.0691 H   0  0  0  0  0  0  0  0  0  0  0  0
  140.2539   71.5820  227.3545 H   0  0  0  0  0  0  0  0  0  0  0  0
  139.0672   70.3686  225.5921 H   0  0  0  0  0  0  0  0  0  0  0  0
  131.4594   71.3042  227.4762 H   0  0  0  0  0  0  0  0  0  0  0  0
  130.3945   73.3842  228.2746 H   0  0  0  0  0  0  0  0  0  0  0  0
  130.5072   75.8261  228.4661 H   0  0  0  0  0  0  0  0  0  0  0  0
  133.8425   77.9896  226.8556 H   0  0  0  0  0  0  0  0  0  0  0  0
  134.8064   75.8284  226.1021 H   0  0  0  0  0  0  0  0  0  0  0  0
  1  2  2  0
  2  3  1  0
  3  4  1  0
  4  5  1  0
  5  6  2  0
  5  7  1  0
  7  8  1  0
  8  9  1  0
  9 10  1  0
 10 11  1  0
 11 12  1  0
 12 13  1  0
 13 14  1  0
 14 15  2  0
 15 16  1  0
 16 17  2  0
 17 18  1  0
 18 19  2  0
  2 20  1  0
 20 21  2  0
 21 22  1  0
 22 23  2  0
 23 24  1  0
 24 25  2  0
 25 26  1  0
 25 27  1  0
 27 28  2  0
 28 29  1  0
 29 30  2  0
 11  7  1  0
 19 14  1  0
 30 20  1  0
 29 23  1  0
  3 31  1  0
  4 32  1  0
  4 33  1  0
  8 34  1  0
  8 35  1  0
  9 36  1  0
  9 37  1  0
 10 38  1  0
 10 39  1  0
 11 40  1  1
 12 41  1  0
 12 42  1  0
 15 43  1  0
 16 44  1  0
 17 45  1  0
 18 46  1  0
 19 47  1  0
 21 48  1  0
 22 49  1  0
 24 50  1  0
 27 51  1  0
 28 52  1  0
M  END
>  <smiles>  (43) 
O=C(NCC(=O)N1CCC[C@@H]1COc1ccccc1)c1ccc2cc(F)ccc2n1

>  <score_type>  (43) 
oracle

>  <origin>  (43) 
autodockgpu

>  <m_score__min__energy>  (43) 
-8.4499999999999993

>  <m_primary>  (43) 
energy

>  <rmsd>  (43) 
8.772561695307187

>  <m_score__min__rmsd>  (43) 
8.772561695307187

>  <meeko>  (43) 
{"free_energy": -7.77, "intermolecular_energy": -9.86, "internal_energy": -2.31, "cluster_size": 2, "cluster_id": 5, "rank_in_cluster": 1}

>  <energy>  (43) 
-7.68

>  <cluster_rmsd>  (43) 
0.65

>  <cluster>  (43) 
4

$$$$

     RDKit          3D

 52 55  0  0  0  0  0  0  0  0999 V2000
  140.5720   70.8790  221.7840 O   0  0  0  0  0  0  0  0  0  0  0  0
  140.2560   71.6230  222.7510 C   0  0  0  0  0  0  0  0  0  0  0  0
  139.7940   72.9440  222.5830 N   0  0  0  0  0  0  0  0  0  0  0  0
  139.6670   73.4910  221.2500 C   0  0  0  0  0  0  0  0  0  0  0  0
  140.1330   74.9020  221.2720 C   0  0  0  0  0  0  0  0  0  0  0  0
  139.5360   75.7650  221.9920 O   0  0  0  0  0  0  0  0  0  0  0  0
  141.2490   75.2390  220.4710 N   0  0  0  0  0  0  0  0  0  0  0  0
  142.6290   74.7840  220.5620 C   0  0  0  0  0  0  0  0  0  0  0  0
  143.1330   74.7700  219.1200 C   0  0  0  0  0  0  0  0  0  0  0  0
  141.9650   75.2420  218.3170 C   0  0  0  0  0  0  0  0  0  0  0  0
  141.2560   76.1630  219.3260 C   0  0  2  0  0  0  0  0  0  0  0  0
  142.1390   77.3470  219.6450 C   0  0  0  0  0  0  0  0  0  0  0  0
  141.5170   78.3980  220.2910 O   0  0  0  0  0  0  0  0  0  0  0  0
  141.7380   79.0140  221.4690 C   0  0  0  0  0  0  0  0  0  0  0  0
  142.2200   80.2880  221.6690 C   0  0  0  0  0  0  0  0  0  0  0  0
  142.4090   80.8270  222.9250 C   0  0  0  0  0  0  0  0  0  0  0  0
  142.1160   80.0910  224.0290 C   0  0  0  0  0  0  0  0  0  0  0  0
  141.6320   78.8110  223.8870 C   0  0  0  0  0  0  0  0  0  0  0  0
  141.4520   78.2970  222.6340 C   0  0  0  0  0  0  0  0  0  0  0  0
  140.3700   71.1090  224.1230 C   0  0  0  0  0  0  0  0  0  0  0  0
  140.8360   71.9060  225.1530 C   0  0  0  0  0  0  0  0  0  0  0  0
  140.9520   71.4490  226.4510 C   0  0  0  0  0  0  0  0  0  0  0  0
  140.5900   70.1430  226.7350 C   0  0  0  0  0  0  0  0  0  0  0  0
  140.6720   69.6090  227.9850 C   0  0  0  0  0  0  0  0  0  0  0  0
  140.3110   68.3060  228.2660 C   0  0  0  0  0  0  0  0  0  0  0  0
  140.3880   67.7630  229.5020 F   0  0  0  0  0  0  0  0  0  0  0  0
  139.8450   67.5040  227.2430 C   0  0  0  0  0  0  0  0  0  0  0  0
  139.7610   68.0480  225.9700 C   0  0  0  0  0  0  0  0  0  0  0  0
  140.1280   69.3580  225.7040 C   0  0  0  0  0  0  0  0  0  0  0  0
  140.0300   69.8460  224.4490 N   0  0  0  0  0  0  0  0  0  0  0  0
  139.5340   73.5540  223.4100 H   0  0  0  0  0  0  0  0  0  0  0  0
  140.2829   72.9079  220.5496 H   0  0  0  0  0  0  0  0  0  0  0  0
  138.6177   73.4461  220.9230 H   0  0  0  0  0  0  0  0  0  0  0  0
  143.2255   75.4766  221.1739 H   0  0  0  0  0  0  0  0  0  0  0  0
  142.7091   73.7959  221.0387 H   0  0  0  0  0  0  0  0  0  0  0  0
  143.9891   75.4501  218.9997 H   0  0  0  0  0  0  0  0  0  0  0  0
  143.4844   73.7758  218.8069 H   0  0  0  0  0  0  0  0  0  0  0  0
  142.2884   75.7968  217.4239 H   0  0  0  0  0  0  0  0  0  0  0  0
  141.3320   74.4324  217.9248 H   0  0  0  0  0  0  0  0  0  0  0  0
  140.2853   76.5762  219.0146 H   0  0  0  0  0  0  0  0  0  0  0  0
  142.9602   76.9939  220.2861 H   0  0  0  0  0  0  0  0  0  0  0  0
  142.4720   77.7444  218.6749 H   0  0  0  0  0  0  0  0  0  0  0  0
  142.4649   80.9024  220.7900 H   0  0  0  0  0  0  0  0  0  0  0  0
  142.7963   81.8510  223.0324 H   0  0  0  0  0  0  0  0  0  0  0  0
  142.2652   80.5169  225.0322 H   0  0  0  0  0  0  0  0  0  0  0  0
  141.3921   78.2068  224.7744 H   0  0  0  0  0  0  0  0  0  0  0  0
  141.0643   77.2721  222.5378 H   0  0  0  0  0  0  0  0  0  0  0  0
  141.1253   72.9435  224.9297 H   0  0  0  0  0  0  0  0  0  0  0  0
  141.3256   72.1113  227.2458 H   0  0  0  0  0  0  0  0  0  0  0  0
  141.0413   70.2421  228.8053 H   0  0  0  0  0  0  0  0  0  0  0  0
  139.5484   66.4618  227.4326 H   0  0  0  0  0  0  0  0  0  0  0  0
  139.3916   67.4203  225.1457 H   0  0  0  0  0  0  0  0  0  0  0  0
  1  2  2  0
  2  3  1  0
  3  4  1  0
  4  5  1  0
  5  6  2  0
  5  7  1  0
  7  8  1  0
  8  9  1  0
  9 10  1  0
 10 11  1  0
 11 12  1  0
 12 13  1  0
 13 14  1  0
 14 15  2  0
 15 16  1  0
 16 17  2  0
 17 18  1  0
 18 19  2  0
  2 20  1  0
 20 21  2  0
 21 22  1  0
 22 23  2  0
 23 24  1  0
 24 25  2  0
 25 26  1  0
 25 27  1  0
 27 28  2  0
 28 29  1  0
 29 30  2  0
 11  7  1  0
 19 14  1  0
 30 20  1  0
 29 23  1  0
  3 31  1  0
  4 32  1  0
  4 33  1  0
  8 34  1  0
  8 35  1  0
  9 36  1  0
  9 37  1  0
 10 38  1  0
 10 39  1  0
 11 40  1  6
 12 41  1  0
 12 42  1  0
 15 43  1  0
 16 44  1  0
 17 45  1  0
 18 46  1  0
 19 47  1  0
 21 48  1  0
 22 49  1  0
 24 50  1  0
 27 51  1  0
 28 52  1  0
M  END
>  <smiles>  (44) 
O=C(NCC(=O)N1CCC[C@@H]1COc1ccccc1)c1ccc2cc(F)ccc2n1

>  <score_type>  (44) 
oracle

>  <origin>  (44) 
autodockgpu

>  <m_score__min__energy>  (44) 
-8.4499999999999993

>  <m_primary>  (44) 
energy

>  <rmsd>  (44) 
3.0797502895128837

>  <m_score__min__rmsd>  (44) 
3.0797502895128837

>  <meeko>  (44) 
{"free_energy": -8.15, "intermolecular_energy": -10.23, "internal_energy": -1.64, "cluster_size": 22, "cluster_id": 1, "rank_in_cluster": 7}

>  <energy>  (44) 
-7.66

>  <cluster_rmsd>  (44) 
0.74

>  <cluster>  (44) 
4

$$$$

     RDKit          3D

 52 55  0  0  0  0  0  0  0  0999 V2000
  136.2630   77.0700  222.3290 O   0  0  0  0  0  0  0  0  0  0  0  0
  136.4660   75.9250  222.8140 C   0  0  0  0  0  0  0  0  0  0  0  0
  137.5310   75.0960  222.4050 N   0  0  0  0  0  0  0  0  0  0  0  0
  138.4440   75.5620  221.3840 C   0  0  0  0  0  0  0  0  0  0  0  0
  139.7460   74.8670  221.5640 C   0  0  0  0  0  0  0  0  0  0  0  0
  139.8350   73.8590  222.3360 O   0  0  0  0  0  0  0  0  0  0  0  0
  140.8620   75.3660  220.8540 N   0  0  0  0  0  0  0  0  0  0  0  0
  142.2450   74.9080  220.8540 C   0  0  0  0  0  0  0  0  0  0  0  0
  142.7520   75.1920  219.4420 C   0  0  0  0  0  0  0  0  0  0  0  0
  141.5840   75.8150  218.7480 C   0  0  0  0  0  0  0  0  0  0  0  0
  140.8670   76.5050  219.9220 C   0  0  2  0  0  0  0  0  0  0  0  0
  141.7440   77.6020  220.4810 C   0  0  0  0  0  0  0  0  0  0  0  0
  141.5530   77.8970  221.8180 O   0  0  0  0  0  0  0  0  0  0  0  0
  141.6620   79.0320  222.5350 C   0  0  0  0  0  0  0  0  0  0  0  0
  140.6410   79.8040  223.0400 C   0  0  0  0  0  0  0  0  0  0  0  0
  140.8630   80.9560  223.7680 C   0  0  0  0  0  0  0  0  0  0  0  0
  142.1350   81.3690  224.0100 C   0  0  0  0  0  0  0  0  0  0  0  0
  143.1940   80.6350  223.5270 C   0  0  0  0  0  0  0  0  0  0  0  0
  142.9510   79.4980  222.8090 C   0  0  0  0  0  0  0  0  0  0  0  0
  135.5630   75.4120  223.8530 C   0  0  0  0  0  0  0  0  0  0  0  0
  134.8050   76.2670  224.6330 C   0  0  0  0  0  0  0  0  0  0  0  0
  133.9480   75.8130  225.6160 C   0  0  0  0  0  0  0  0  0  0  0  0
  133.8410   74.4490  225.8320 C   0  0  0  0  0  0  0  0  0  0  0  0
  133.0220   73.9130  226.7780 C   0  0  0  0  0  0  0  0  0  0  0  0
  132.9160   72.5530  226.9920 C   0  0  0  0  0  0  0  0  0  0  0  0
  132.1080   72.0080  227.9280 F   0  0  0  0  0  0  0  0  0  0  0  0
  133.6700   71.6930  226.2170 C   0  0  0  0  0  0  0  0  0  0  0  0
  134.5030   72.2380  225.2530 C   0  0  0  0  0  0  0  0  0  0  0  0
  134.5980   73.6070  225.0510 C   0  0  0  0  0  0  0  0  0  0  0  0
  135.4230   74.0940  224.1000 N   0  0  0  0  0  0  0  0  0  0  0  0
  137.6840   74.1350  222.8250 H   0  0  0  0  0  0  0  0  0  0  0  0
  138.0357   75.3334  220.3885 H   0  0  0  0  0  0  0  0  0  0  0  0
  138.5821   76.6500  221.4693 H   0  0  0  0  0  0  0  0  0  0  0  0
  142.8367   75.4631  221.5968 H   0  0  0  0  0  0  0  0  0  0  0  0
  142.3290   73.8435  221.1182 H   0  0  0  0  0  0  0  0  0  0  0  0
  143.6057   75.8853  219.4667 H   0  0  0  0  0  0  0  0  0  0  0  0
  143.1078   74.2841  218.9329 H   0  0  0  0  0  0  0  0  0  0  0  0
  141.9079   76.5434  217.9901 H   0  0  0  0  0  0  0  0  0  0  0  0
  140.9564   75.1012  218.1943 H   0  0  0  0  0  0  0  0  0  0  0  0
  139.8947   76.9681  219.6980 H   0  0  0  0  0  0  0  0  0  0  0  0
  142.7927   77.2976  220.3482 H   0  0  0  0  0  0  0  0  0  0  0  0
  141.4723   78.5144  219.9299 H   0  0  0  0  0  0  0  0  0  0  0  0
  139.6031   79.4898  222.8557 H   0  0  0  0  0  0  0  0  0  0  0  0
  140.0121   81.5383  224.1513 H   0  0  0  0  0  0  0  0  0  0  0  0
  142.3172   82.2861  224.5895 H   0  0  0  0  0  0  0  0  0  0  0  0
  144.2273   80.9607  223.7172 H   0  0  0  0  0  0  0  0  0  0  0  0
  143.8088   78.9234  222.4294 H   0  0  0  0  0  0  0  0  0  0  0  0
  134.8882   77.3507  224.4635 H   0  0  0  0  0  0  0  0  0  0  0  0
  133.3604   76.5224  226.2172 H   0  0  0  0  0  0  0  0  0  0  0  0
  132.4189   74.5922  227.3984 H   0  0  0  0  0  0  0  0  0  0  0  0
  133.6106   70.6041  226.3614 H   0  0  0  0  0  0  0  0  0  0  0  0
  135.1078   71.5640  224.6285 H   0  0  0  0  0  0  0  0  0  0  0  0
  1  2  2  0
  2  3  1  0
  3  4  1  0
  4  5  1  0
  5  6  2  0
  5  7  1  0
  7  8  1  0
  8  9  1  0
  9 10  1  0
 10 11  1  0
 11 12  1  0
 12 13  1  0
 13 14  1  0
 14 15  2  0
 15 16  1  0
 16 17  2  0
 17 18  1  0
 18 19  2  0
  2 20  1  0
 20 21  2  0
 21 22  1  0
 22 23  2  0
 23 24  1  0
 24 25  2  0
 25 26  1  0
 25 27  1  0
 27 28  2  0
 28 29  1  0
 29 30  2  0
 11  7  1  0
 19 14  1  0
 30 20  1  0
 29 23  1  0
  3 31  1  0
  4 32  1  0
  4 33  1  0
  8 34  1  0
  8 35  1  0
  9 36  1  0
  9 37  1  0
 10 38  1  0
 10 39  1  0
 11 40  1  6
 12 41  1  0
 12 42  1  0
 15 43  1  0
 16 44  1  0
 17 45  1  0
 18 46  1  0
 19 47  1  0
 21 48  1  0
 22 49  1  0
 24 50  1  0
 27 51  1  0
 28 52  1  0
M  END
>  <smiles>  (45) 
O=C(NCC(=O)N1CCC[C@@H]1COc1ccccc1)c1ccc2cc(F)ccc2n1

>  <score_type>  (45) 
oracle

>  <origin>  (45) 
autodockgpu

>  <m_score__min__energy>  (45) 
-8.4499999999999993

>  <m_primary>  (45) 
energy

>  <rmsd>  (45) 
5.881141463962846

>  <m_score__min__rmsd>  (45) 
5.881141463962846

>  <meeko>  (45) 
{"free_energy": -7.05, "intermolecular_energy": -9.14, "internal_energy": -2.13, "cluster_size": 1, "cluster_id": 6, "rank_in_cluster": 1}

>  <energy>  (45) 
-7.6

>  <cluster_rmsd>  (45) 
0.59

>  <cluster>  (45) 
4

$$$$

     RDKit          3D

 52 55  0  0  0  0  0  0  0  0999 V2000
  141.2310   71.5310  221.4270 O   0  0  0  0  0  0  0  0  0  0  0  0
  140.5640   72.0560  222.3590 C   0  0  0  0  0  0  0  0  0  0  0  0
  140.0770   73.3780  222.3010 N   0  0  0  0  0  0  0  0  0  0  0  0
  140.3410   74.1850  221.1300 C   0  0  0  0  0  0  0  0  0  0  0  0
  140.1430   75.6140  221.4870 C   0  0  0  0  0  0  0  0  0  0  0  0
  139.5660   75.9300  222.5760 O   0  0  0  0  0  0  0  0  0  0  0  0
  140.6150   76.5900  220.5800 N   0  0  0  0  0  0  0  0  0  0  0  0
  141.9560   77.1370  220.4160 C   0  0  0  0  0  0  0  0  0  0  0  0
  142.0730   77.4470  218.9250 C   0  0  0  0  0  0  0  0  0  0  0  0
  140.7480   77.0510  218.3600 C   0  0  0  0  0  0  0  0  0  0  0  0
  139.8190   77.2970  219.5630 C   0  0  2  0  0  0  0  0  0  0  0  0
  139.7880   78.7720  219.8900 C   0  0  0  0  0  0  0  0  0  0  0  0
  139.7290   79.0840  221.2350 O   0  0  0  0  0  0  0  0  0  0  0  0
  140.6460   79.5220  222.1200 C   0  0  0  0  0  0  0  0  0  0  0  0
  141.3450   80.7070  222.0820 C   0  0  0  0  0  0  0  0  0  0  0  0
  142.2680   81.0620  223.0460 C   0  0  0  0  0  0  0  0  0  0  0  0
  142.5170   80.2240  224.0860 C   0  0  0  0  0  0  0  0  0  0  0  0
  141.8470   79.0260  224.1720 C   0  0  0  0  0  0  0  0  0  0  0  0
  140.9380   78.6940  223.2080 C   0  0  0  0  0  0  0  0  0  0  0  0
  140.2720   71.2730  223.5670 C   0  0  0  0  0  0  0  0  0  0  0  0
  139.5880   70.0730  223.4980 C   0  0  0  0  0  0  0  0  0  0  0  0
  139.3000   69.3170  224.6170 C   0  0  0  0  0  0  0  0  0  0  0  0
  139.7120   69.7750  225.8570 C   0  0  0  0  0  0  0  0  0  0  0  0
  139.4730   69.0950  227.0130 C   0  0  0  0  0  0  0  0  0  0  0  0
  139.8840   69.5530  228.2480 C   0  0  0  0  0  0  0  0  0  0  0  0
  139.6520   68.8890  229.4030 F   0  0  0  0  0  0  0  0  0  0  0  0
  140.5680   70.7510  228.3250 C   0  0  0  0  0  0  0  0  0  0  0  0
  140.8120   71.4430  227.1490 C   0  0  0  0  0  0  0  0  0  0  0  0
  140.3930   70.9690  225.9150 C   0  0  0  0  0  0  0  0  0  0  0  0
  140.6520   71.6760  224.7960 N   0  0  0  0  0  0  0  0  0  0  0  0
  139.5180   73.8020  223.0960 H   0  0  0  0  0  0  0  0  0  0  0  0
  141.3769   74.0262  220.7959 H   0  0  0  0  0  0  0  0  0  0  0  0
  139.6577   73.9020  220.3157 H   0  0  0  0  0  0  0  0  0  0  0  0
  142.0761   78.0533  221.0126 H   0  0  0  0  0  0  0  0  0  0  0  0
  142.7336   76.4373  220.7563 H   0  0  0  0  0  0  0  0  0  0  0  0
  142.2608   78.5188  218.7635 H   0  0  0  0  0  0  0  0  0  0  0  0
  142.9089   76.9132  218.4493 H   0  0  0  0  0  0  0  0  0  0  0  0
  140.4715   77.6820  217.5025 H   0  0  0  0  0  0  0  0  0  0  0  0
  140.7149   76.0234  217.9690 H   0  0  0  0  0  0  0  0  0  0  0  0
  138.7712   76.9835  219.4457 H   0  0  0  0  0  0  0  0  0  0  0  0
  140.6985   79.2297  219.4760 H   0  0  0  0  0  0  0  0  0  0  0  0
  138.8567   79.1584  219.4502 H   0  0  0  0  0  0  0  0  0  0  0  0
  141.1607   81.4007  221.2485 H   0  0  0  0  0  0  0  0  0  0  0  0
  142.8007   82.0216  222.9719 H   0  0  0  0  0  0  0  0  0  0  0  0
  143.2514   80.5025  224.8561 H   0  0  0  0  0  0  0  0  0  0  0  0
  142.0416   78.3408  225.0102 H   0  0  0  0  0  0  0  0  0  0  0  0
  140.4119   77.7316  223.2915 H   0  0  0  0  0  0  0  0  0  0  0  0
  139.2608   69.7067  222.5138 H   0  0  0  0  0  0  0  0  0  0  0  0
  138.7527   68.3673  224.5249 H   0  0  0  0  0  0  0  0  0  0  0  0
  138.9293   68.1403  226.9596 H   0  0  0  0  0  0  0  0  0  0  0  0
  140.9097   71.1450  229.2935 H   0  0  0  0  0  0  0  0  0  0  0  0
  141.3552   72.3984  227.1961 H   0  0  0  0  0  0  0  0  0  0  0  0
  1  2  2  0
  2  3  1  0
  3  4  1  0
  4  5  1  0
  5  6  2  0
  5  7  1  0
  7  8  1  0
  8  9  1  0
  9 10  1  0
 10 11  1  0
 11 12  1  0
 12 13  1  0
 13 14  1  0
 14 15  2  0
 15 16  1  0
 16 17  2  0
 17 18  1  0
 18 19  2  0
  2 20  1  0
 20 21  2  0
 21 22  1  0
 22 23  2  0
 23 24  1  0
 24 25  2  0
 25 26  1  0
 25 27  1  0
 27 28  2  0
 28 29  1  0
 29 30  2  0
 11  7  1  0
 19 14  1  0
 30 20  1  0
 29 23  1  0
  3 31  1  0
  4 32  1  0
  4 33  1  0
  8 34  1  0
  8 35  1  0
  9 36  1  0
  9 37  1  0
 10 38  1  0
 10 39  1  0
 11 40  1  6
 12 41  1  0
 12 42  1  0
 15 43  1  0
 16 44  1  0
 17 45  1  0
 18 46  1  0
 19 47  1  0
 21 48  1  0
 22 49  1  0
 24 50  1  0
 27 51  1  0
 28 52  1  0
M  END
>  <smiles>  (46) 
O=C(NCC(=O)N1CCC[C@@H]1COc1ccccc1)c1ccc2cc(F)ccc2n1

>  <score_type>  (46) 
oracle

>  <origin>  (46) 
autodockgpu

>  <m_score__min__energy>  (46) 
-8.4499999999999993

>  <m_primary>  (46) 
energy

>  <rmsd>  (46) 
2.1179900679250268

>  <m_score__min__rmsd>  (46) 
2.1179900679250268

>  <meeko>  (46) 
{"free_energy": -8.0, "intermolecular_energy": -10.09, "internal_energy": -2.21, "cluster_size": 22, "cluster_id": 1, "rank_in_cluster": 14}

>  <energy>  (46) 
-7.12

>  <cluster_rmsd>  (46) 
0.91

>  <cluster>  (46) 
4

$$$$

     RDKit          3D

 52 55  0  0  0  0  0  0  0  0999 V2000
  140.3910   71.5750  220.9640 O   0  0  0  0  0  0  0  0  0  0  0  0
  140.0840   72.1200  222.0590 C   0  0  0  0  0  0  0  0  0  0  0  0
  139.8310   73.5010  222.1830 N   0  0  0  0  0  0  0  0  0  0  0  0
  139.9200   74.3500  221.0150 C   0  0  0  0  0  0  0  0  0  0  0  0
  140.1400   75.7500  221.4650 C   0  0  0  0  0  0  0  0  0  0  0  0
  139.9180   76.0790  222.6740 O   0  0  0  0  0  0  0  0  0  0  0  0
  140.5990   76.6840  220.5080 N   0  0  0  0  0  0  0  0  0  0  0  0
  139.9540   77.1650  219.2950 C   0  0  0  0  0  0  0  0  0  0  0  0
  140.4290   78.6090  219.1440 C   0  0  0  0  0  0  0  0  0  0  0  0
  141.3380   78.8220  220.3110 C   0  0  0  0  0  0  0  0  0  0  0  0
  141.8850   77.4010  220.5320 C   0  0  2  0  0  0  0  0  0  0  0  0
  142.7130   76.9800  219.3400 C   0  0  0  0  0  0  0  0  0  0  0  0
  143.8110   76.1900  219.6240 O   0  0  0  0  0  0  0  0  0  0  0  0
  143.9460   74.9030  219.9990 C   0  0  0  0  0  0  0  0  0  0  0  0
  142.9890   73.9140  219.9530 C   0  0  0  0  0  0  0  0  0  0  0  0
  143.2320   72.6180  220.3620 C   0  0  0  0  0  0  0  0  0  0  0  0
  144.4590   72.2770  220.8350 C   0  0  0  0  0  0  0  0  0  0  0  0
  145.4520   73.2270  220.9040 C   0  0  0  0  0  0  0  0  0  0  0  0
  145.1900   74.5040  220.4940 C   0  0  0  0  0  0  0  0  0  0  0  0
  139.9830   71.2960  223.2710 C   0  0  0  0  0  0  0  0  0  0  0  0
  139.4240   70.0310  223.2340 C   0  0  0  0  0  0  0  0  0  0  0  0
  139.3160   69.2340  224.3580 C   0  0  0  0  0  0  0  0  0  0  0  0
  139.7840   69.7180  225.5680 C   0  0  0  0  0  0  0  0  0  0  0  0
  139.7190   69.0020  226.7250 C   0  0  0  0  0  0  0  0  0  0  0  0
  140.1870   69.4860  227.9300 C   0  0  0  0  0  0  0  0  0  0  0  0
  140.1270   68.7870  229.0860 F   0  0  0  0  0  0  0  0  0  0  0  0
  140.7460   70.7480  227.9740 C   0  0  0  0  0  0  0  0  0  0  0  0
  140.8120   71.4770  226.7960 C   0  0  0  0  0  0  0  0  0  0  0  0
  140.3390   70.9770  225.5930 C   0  0  0  0  0  0  0  0  0  0  0  0
  140.4240   71.7210  224.4710 N   0  0  0  0  0  0  0  0  0  0  0  0
  139.5750   73.9400  223.1130 H   0  0  0  0  0  0  0  0  0  0  0  0
  140.7612   74.0264  220.3843 H   0  0  0  0  0  0  0  0  0  0  0  0
  138.9912   74.2839  220.4294 H   0  0  0  0  0  0  0  0  0  0  0  0
  140.2629   76.5632  218.4276 H   0  0  0  0  0  0  0  0  0  0  0  0
  138.8578   77.0933  219.3523 H   0  0  0  0  0  0  0  0  0  0  0  0
  140.9723   78.7436  218.1971 H   0  0  0  0  0  0  0  0  0  0  0  0
  139.5951   79.3261  219.1241 H   0  0  0  0  0  0  0  0  0  0  0  0
  142.1440   79.5305  220.0693 H   0  0  0  0  0  0  0  0  0  0  0  0
  140.8441   79.2562  221.1928 H   0  0  0  0  0  0  0  0  0  0  0  0
  142.5206   77.2534  221.4176 H   0  0  0  0  0  0  0  0  0  0  0  0
  142.0600   76.4183  218.6558 H   0  0  0  0  0  0  0  0  0  0  0  0
  143.1145   77.9092  218.9095 H   0  0  0  0  0  0  0  0  0  0  0  0
  141.9879   74.1675  219.5741 H   0  0  0  0  0  0  0  0  0  0  0  0
  142.4339   71.8632  220.3050 H   0  0  0  0  0  0  0  0  0  0  0  0
  144.6579   71.2456  221.1615 H   0  0  0  0  0  0  0  0  0  0  0  0
  146.4486   72.9607  221.2861 H   0  0  0  0  0  0  0  0  0  0  0  0
  145.9947   75.2513  220.5565 H   0  0  0  0  0  0  0  0  0  0  0  0
  139.0514   69.6449  222.2737 H   0  0  0  0  0  0  0  0  0  0  0  0
  138.8660   68.2324  224.2925 H   0  0  0  0  0  0  0  0  0  0  0  0
  139.2749   67.9960  226.6979 H   0  0  0  0  0  0  0  0  0  0  0  0
  141.1286   71.1638  228.9178 H   0  0  0  0  0  0  0  0  0  0  0  0
  141.2538   72.4841  226.8171 H   0  0  0  0  0  0  0  0  0  0  0  0
  1  2  2  0
  2  3  1  0
  3  4  1  0
  4  5  1  0
  5  6  2  0
  5  7  1  0
  7  8  1  0
  8  9  1  0
  9 10  1  0
 10 11  1  0
 11 12  1  0
 12 13  1  0
 13 14  1  0
 14 15  2  0
 15 16  1  0
 16 17  2  0
 17 18  1  0
 18 19  2  0
  2 20  1  0
 20 21  2  0
 21 22  1  0
 22 23  2  0
 23 24  1  0
 24 25  2  0
 25 26  1  0
 25 27  1  0
 27 28  2  0
 28 29  1  0
 29 30  2  0
 11  7  1  0
 19 14  1  0
 30 20  1  0
 29 23  1  0
  3 31  1  0
  4 32  1  0
  4 33  1  0
  8 34  1  0
  8 35  1  0
  9 36  1  0
  9 37  1  0
 10 38  1  0
 10 39  1  0
 11 40  1  1
 12 41  1  0
 12 42  1  0
 15 43  1  0
 16 44  1  0
 17 45  1  0
 18 46  1  0
 19 47  1  0
 21 48  1  0
 22 49  1  0
 24 50  1  0
 27 51  1  0
 28 52  1  0
M  END
>  <smiles>  (47) 
O=C(NCC(=O)N1CCC[C@@H]1COc1ccccc1)c1ccc2cc(F)ccc2n1

>  <score_type>  (47) 
oracle

>  <origin>  (47) 
autodockgpu

>  <m_score__min__energy>  (47) 
-8.4499999999999993

>  <m_primary>  (47) 
energy

>  <rmsd>  (47) 
1.783621368138025

>  <m_score__min__rmsd>  (47) 
1.783621368138025

>  <meeko>  (47) 
{"free_energy": -7.76, "intermolecular_energy": -9.85, "internal_energy": -2.48, "cluster_size": 9, "cluster_id": 4, "rank_in_cluster": 2}

>  <energy>  (47) 
-7.77

>  <cluster_rmsd>  (47) 
0.0

>  <cluster>  (47) 
5

$$$$

     RDKit          3D

 52 55  0  0  0  0  0  0  0  0999 V2000
  137.1540   76.0580  221.3310 O   0  0  0  0  0  0  0  0  0  0  0  0
  138.2260   76.0400  221.9940 C   0  0  0  0  0  0  0  0  0  0  0  0
  138.8910   74.8480  222.3430 N   0  0  0  0  0  0  0  0  0  0  0  0
  138.3370   73.5760  221.9330 C   0  0  0  0  0  0  0  0  0  0  0  0
  139.1630   72.4890  222.5210 C   0  0  0  0  0  0  0  0  0  0  0  0
  140.4160   72.6460  222.6750 O   0  0  0  0  0  0  0  0  0  0  0  0
  138.5080   71.2930  222.8950 N   0  0  0  0  0  0  0  0  0  0  0  0
  137.1890   71.1000  223.4800 C   0  0  0  0  0  0  0  0  0  0  0  0
  136.7070   69.7600  222.9270 C   0  0  0  0  0  0  0  0  0  0  0  0
  137.8320   69.2920  222.0620 C   0  0  0  0  0  0  0  0  0  0  0  0
  139.0430   69.9270  222.7700 C   0  0  2  0  0  0  0  0  0  0  0  0
  139.2030   69.3260  224.1470 C   0  0  0  0  0  0  0  0  0  0  0  0
  140.3420   69.7030  224.8340 O   0  0  0  0  0  0  0  0  0  0  0  0
  140.5460   70.4400  225.9430 C   0  0  0  0  0  0  0  0  0  0  0  0
  141.2970   71.5880  226.0570 C   0  0  0  0  0  0  0  0  0  0  0  0
  141.4410   72.2720  227.2470 C   0  0  0  0  0  0  0  0  0  0  0  0
  140.8260   71.8150  228.3690 C   0  0  0  0  0  0  0  0  0  0  0  0
  140.0640   70.6710  228.3120 C   0  0  0  0  0  0  0  0  0  0  0  0
  139.9340   70.0090  227.1240 C   0  0  0  0  0  0  0  0  0  0  0  0
  138.8240   77.3090  222.4310 C   0  0  0  0  0  0  0  0  0  0  0  0
  138.0400   78.4120  222.7190 C   0  0  0  0  0  0  0  0  0  0  0  0
  138.5760   79.6160  223.1320 C   0  0  0  0  0  0  0  0  0  0  0  0
  139.9500   79.7270  223.2640 C   0  0  0  0  0  0  0  0  0  0  0  0
  140.5640   80.8740  223.6650 C   0  0  0  0  0  0  0  0  0  0  0  0
  141.9340   80.9820  223.7950 C   0  0  0  0  0  0  0  0  0  0  0  0
  142.5560   82.1150  224.1920 F   0  0  0  0  0  0  0  0  0  0  0  0
  142.7230   79.8860  223.5090 C   0  0  0  0  0  0  0  0  0  0  0  0
  142.0990   78.7170  223.1010 C   0  0  0  0  0  0  0  0  0  0  0  0
  140.7210   78.6240  222.9750 C   0  0  0  0  0  0  0  0  0  0  0  0
  140.1550   77.4660  222.5740 N   0  0  0  0  0  0  0  0  0  0  0  0
  139.7920   74.8540  222.9010 H   0  0  0  0  0  0  0  0  0  0  0  0
  137.3008   73.4898  222.2919 H   0  0  0  0  0  0  0  0  0  0  0  0
  138.3407   73.5000  220.8356 H   0  0  0  0  0  0  0  0  0  0  0  0
  137.2536   71.0652  224.5775 H   0  0  0  0  0  0  0  0  0  0  0  0
  136.5014   71.9221  223.2322 H   0  0  0  0  0  0  0  0  0  0  0  0
  136.5197   69.0463  223.7429 H   0  0  0  0  0  0  0  0  0  0  0  0
  135.7604   69.8494  222.3739 H   0  0  0  0  0  0  0  0  0  0  0  0
  137.9019   68.1943  222.0516 H   0  0  0  0  0  0  0  0  0  0  0  0
  137.7320   69.5722  221.0030 H   0  0  0  0  0  0  0  0  0  0  0  0
  140.0165   69.8173  222.2697 H   0  0  0  0  0  0  0  0  0  0  0  0
  138.3311   69.6218  224.7489 H   0  0  0  0  0  0  0  0  0  0  0  0
  139.2893   68.2402  223.9936 H   0  0  0  0  0  0  0  0  0  0  0  0
  141.8039   71.9767  225.1615 H   0  0  0  0  0  0  0  0  0  0  0  0
  142.0525   73.1855  227.2870 H   0  0  0  0  0  0  0  0  0  0  0  0
  140.9370   72.3577  229.3194 H   0  0  0  0  0  0  0  0  0  0  0  0
  139.5635   70.2924  229.2154 H   0  0  0  0  0  0  0  0  0  0  0  0
  139.3206   69.0964  227.0953 H   0  0  0  0  0  0  0  0  0  0  0  0
  136.9482   78.3268  222.6151 H   0  0  0  0  0  0  0  0  0  0  0  0
  137.9222   80.4727  223.3525 H   0  0  0  0  0  0  0  0  0  0  0  0
  139.9422   81.7517  223.8951 H   0  0  0  0  0  0  0  0  0  0  0  0
  143.8178   79.9387  223.6023 H   0  0  0  0  0  0  0  0  0  0  0  0
  142.7160   77.8361  222.8701 H   0  0  0  0  0  0  0  0  0  0  0  0
  1  2  2  0
  2  3  1  0
  3  4  1  0
  4  5  1  0
  5  6  2  0
  5  7  1  0
  7  8  1  0
  8  9  1  0
  9 10  1  0
 10 11  1  0
 11 12  1  0
 12 13  1  0
 13 14  1  0
 14 15  2  0
 15 16  1  0
 16 17  2  0
 17 18  1  0
 18 19  2  0
  2 20  1  0
 20 21  2  0
 21 22  1  0
 22 23  2  0
 23 24  1  0
 24 25  2  0
 25 26  1  0
 25 27  1  0
 27 28  2  0
 28 29  1  0
 29 30  2  0
 11  7  1  0
 19 14  1  0
 30 20  1  0
 29 23  1  0
  3 31  1  0
  4 32  1  0
  4 33  1  0
  8 34  1  0
  8 35  1  0
  9 36  1  0
  9 37  1  0
 10 38  1  0
 10 39  1  0
 11 40  1  6
 12 41  1  0
 12 42  1  0
 15 43  1  0
 16 44  1  0
 17 45  1  0
 18 46  1  0
 19 47  1  0
 21 48  1  0
 22 49  1  0
 24 50  1  0
 27 51  1  0
 28 52  1  0
M  END
>  <smiles>  (48) 
O=C(NCC(=O)N1CCC[C@@H]1COc1ccccc1)c1ccc2cc(F)ccc2n1

>  <score_type>  (48) 
oracle

>  <origin>  (48) 
autodockgpu

>  <m_score__min__energy>  (48) 
-8.4499999999999993

>  <m_primary>  (48) 
energy

>  <rmsd>  (48) 
8.58790861192903

>  <m_score__min__rmsd>  (48) 
8.58790861192903

>  <meeko>  (48) 
{"free_energy": -7.99, "intermolecular_energy": -10.08, "internal_energy": -2.09, "cluster_size": 14, "cluster_id": 3, "rank_in_cluster": 3}

>  <energy>  (48) 
-7.65

>  <cluster_rmsd>  (48) 
1.47

>  <cluster>  (48) 
5

$$$$

     RDKit          3D

 52 55  0  0  0  0  0  0  0  0999 V2000
  140.4070   71.5520  220.9780 O   0  0  0  0  0  0  0  0  0  0  0  0
  140.0880   72.0960  222.0700 C   0  0  0  0  0  0  0  0  0  0  0  0
  139.8260   73.4760  222.1910 N   0  0  0  0  0  0  0  0  0  0  0  0
  139.9180   74.3240  221.0220 C   0  0  0  0  0  0  0  0  0  0  0  0
  140.0730   75.7320  221.4720 C   0  0  0  0  0  0  0  0  0  0  0  0
  139.7870   76.0600  222.6680 O   0  0  0  0  0  0  0  0  0  0  0  0
  140.5430   76.6760  220.5310 N   0  0  0  0  0  0  0  0  0  0  0  0
  139.8860   77.2170  219.3490 C   0  0  0  0  0  0  0  0  0  0  0  0
  140.4130   78.6460  219.2270 C   0  0  0  0  0  0  0  0  0  0  0  0
  141.3590   78.7900  220.3740 C   0  0  0  0  0  0  0  0  0  0  0  0
  141.8560   77.3420  220.5410 C   0  0  2  0  0  0  0  0  0  0  0  0
  142.6360   76.9260  219.3150 C   0  0  0  0  0  0  0  0  0  0  0  0
  143.7500   76.1440  219.5530 O   0  0  0  0  0  0  0  0  0  0  0  0
  143.9090   74.8690  219.9560 C   0  0  0  0  0  0  0  0  0  0  0  0
  142.9810   73.8530  219.9060 C   0  0  0  0  0  0  0  0  0  0  0  0
  143.2480   72.5730  220.3470 C   0  0  0  0  0  0  0  0  0  0  0  0
  144.4710   72.2740  220.8570 C   0  0  0  0  0  0  0  0  0  0  0  0
  145.4370   73.2510  220.9320 C   0  0  0  0  0  0  0  0  0  0  0  0
  145.1510   74.5120  220.4900 C   0  0  0  0  0  0  0  0  0  0  0  0
  139.9830   71.2730  223.2820 C   0  0  0  0  0  0  0  0  0  0  0  0
  139.4200   70.0090  223.2460 C   0  0  0  0  0  0  0  0  0  0  0  0
  139.3090   69.2140  224.3690 C   0  0  0  0  0  0  0  0  0  0  0  0
  139.7760   69.6970  225.5800 C   0  0  0  0  0  0  0  0  0  0  0  0
  139.7080   68.9820  226.7370 C   0  0  0  0  0  0  0  0  0  0  0  0
  140.1750   69.4660  227.9430 C   0  0  0  0  0  0  0  0  0  0  0  0
  140.1120   68.7670  229.0990 F   0  0  0  0  0  0  0  0  0  0  0  0
  140.7370   70.7260  227.9870 C   0  0  0  0  0  0  0  0  0  0  0  0
  140.8080   71.4540  226.8090 C   0  0  0  0  0  0  0  0  0  0  0  0
  140.3350   70.9540  225.6050 C   0  0  0  0  0  0  0  0  0  0  0  0
  140.4240   71.6980  224.4820 N   0  0  0  0  0  0  0  0  0  0  0  0
  139.5600   73.9150  223.1180 H   0  0  0  0  0  0  0  0  0  0  0  0
  140.7887   74.0296  220.4176 H   0  0  0  0  0  0  0  0  0  0  0  0
  139.0099   74.2217  220.4097 H   0  0  0  0  0  0  0  0  0  0  0  0
  140.1491   76.6298  218.4568 H   0  0  0  0  0  0  0  0  0  0  0  0
  138.7897   77.1853  219.4330 H   0  0  0  0  0  0  0  0  0  0  0  0
  140.9365   78.7878  218.2700 H   0  0  0  0  0  0  0  0  0  0  0  0
  139.6072   79.3944  219.2505 H   0  0  0  0  0  0  0  0  0  0  0  0
  142.1856   79.4736  220.1304 H   0  0  0  0  0  0  0  0  0  0  0  0
  140.9053   79.2172  221.2804 H   0  0  0  0  0  0  0  0  0  0  0  0
  142.5074   77.1437  221.4049 H   0  0  0  0  0  0  0  0  0  0  0  0
  141.9587   76.3594  218.6591 H   0  0  0  0  0  0  0  0  0  0  0  0
  143.0124   77.8577  218.8674 H   0  0  0  0  0  0  0  0  0  0  0  0
  141.9835   74.0711  219.4968 H   0  0  0  0  0  0  0  0  0  0  0  0
  142.4717   71.7960  220.2857 H   0  0  0  0  0  0  0  0  0  0  0  0
  144.6883   71.2546  221.2087 H   0  0  0  0  0  0  0  0  0  0  0  0
  146.4302   73.0191  221.3439 H   0  0  0  0  0  0  0  0  0  0  0  0
  145.9339   75.2817  220.5574 H   0  0  0  0  0  0  0  0  0  0  0  0
  139.0468   69.6233  222.2858 H   0  0  0  0  0  0  0  0  0  0  0  0
  138.8571   68.2133  224.3031 H   0  0  0  0  0  0  0  0  0  0  0  0
  139.2623   67.9767  226.7097 H   0  0  0  0  0  0  0  0  0  0  0  0
  141.1184   71.1415  228.9314 H   0  0  0  0  0  0  0  0  0  0  0  0
  141.2534   72.4596  226.8301 H   0  0  0  0  0  0  0  0  0  0  0  0
  1  2  2  0
  2  3  1  0
  3  4  1  0
  4  5  1  0
  5  6  2  0
  5  7  1  0
  7  8  1  0
  8  9  1  0
  9 10  1  0
 10 11  1  0
 11 12  1  0
 12 13  1  0
 13 14  1  0
 14 15  2  0
 15 16  1  0
 16 17  2  0
 17 18  1  0
 18 19  2  0
  2 20  1  0
 20 21  2  0
 21 22  1  0
 22 23  2  0
 23 24  1  0
 24 25  2  0
 25 26  1  0
 25 27  1  0
 27 28  2  0
 28 29  1  0
 29 30  2  0
 11  7  1  0
 19 14  1  0
 30 20  1  0
 29 23  1  0
  3 31  1  0
  4 32  1  0
  4 33  1  0
  8 34  1  0
  8 35  1  0
  9 36  1  0
  9 37  1  0
 10 38  1  0
 10 39  1  0
 11 40  1  1
 12 41  1  0
 12 42  1  0
 15 43  1  0
 16 44  1  0
 17 45  1  0
 18 46  1  0
 19 47  1  0
 21 48  1  0
 22 49  1  0
 24 50  1  0
 27 51  1  0
 28 52  1  0
M  END
>  <smiles>  (49) 
O=C(NCC(=O)N1CCC[C@@H]1COc1ccccc1)c1ccc2cc(F)ccc2n1

>  <score_type>  (49) 
oracle

>  <origin>  (49) 
autodockgpu

>  <m_score__min__energy>  (49) 
-8.4499999999999993

>  <m_primary>  (49) 
energy

>  <rmsd>  (49) 
1.7947240724157603

>  <m_score__min__rmsd>  (49) 
1.7947240724157603

>  <meeko>  (49) 
{"free_energy": -7.75, "intermolecular_energy": -9.84, "internal_energy": -2.48, "cluster_size": 9, "cluster_id": 4, "rank_in_cluster": 4}

>  <energy>  (49) 
-7.05

>  <cluster_rmsd>  (49) 
0.0

>  <cluster>  (49) 
6

$$$$

     RDKit          3D

 52 55  0  0  0  0  0  0  0  0999 V2000
  140.4010   71.5810  220.9760 O   0  0  0  0  0  0  0  0  0  0  0  0
  140.0760   72.1270  222.0650 C   0  0  0  0  0  0  0  0  0  0  0  0
  139.8100   73.5060  222.1820 N   0  0  0  0  0  0  0  0  0  0  0  0
  139.9070   74.3520  221.0110 C   0  0  0  0  0  0  0  0  0  0  0  0
  140.1880   75.7430  221.4570 C   0  0  0  0  0  0  0  0  0  0  0  0
  140.0420   76.0680  222.6780 O   0  0  0  0  0  0  0  0  0  0  0  0
  140.6170   76.6720  220.4810 N   0  0  0  0  0  0  0  0  0  0  0  0
  139.9400   77.1340  219.2770 C   0  0  0  0  0  0  0  0  0  0  0  0
  140.3970   78.5810  219.1020 C   0  0  0  0  0  0  0  0  0  0  0  0
  141.3270   78.8160  220.2470 C   0  0  0  0  0  0  0  0  0  0  0  0
  141.8940   77.4030  220.4710 C   0  0  2  0  0  0  0  0  0  0  0  0
  142.7020   76.9790  219.2660 C   0  0  0  0  0  0  0  0  0  0  0  0
  143.7970   76.1800  219.5310 O   0  0  0  0  0  0  0  0  0  0  0  0
  143.9270   74.9000  219.9310 C   0  0  0  0  0  0  0  0  0  0  0  0
  142.9880   73.8970  219.8420 C   0  0  0  0  0  0  0  0  0  0  0  0
  143.2240   72.6100  220.2820 C   0  0  0  0  0  0  0  0  0  0  0  0
  144.4250   72.2920  220.8320 C   0  0  0  0  0  0  0  0  0  0  0  0
  145.4000   73.2570  220.9460 C   0  0  0  0  0  0  0  0  0  0  0  0
  145.1450   74.5240  220.5040 C   0  0  0  0  0  0  0  0  0  0  0  0
  139.9660   71.3060  223.2780 C   0  0  0  0  0  0  0  0  0  0  0  0
  139.3970   70.0450  223.2430 C   0  0  0  0  0  0  0  0  0  0  0  0
  139.2810   69.2520  224.3680 C   0  0  0  0  0  0  0  0  0  0  0  0
  139.7510   69.7340  225.5780 C   0  0  0  0  0  0  0  0  0  0  0  0
  139.6780   69.0210  226.7360 C   0  0  0  0  0  0  0  0  0  0  0  0
  140.1480   69.5040  227.9410 C   0  0  0  0  0  0  0  0  0  0  0  0
  140.0810   68.8080  229.0980 F   0  0  0  0  0  0  0  0  0  0  0  0
  140.7170   70.7620  227.9840 C   0  0  0  0  0  0  0  0  0  0  0  0
  140.7920   71.4870  226.8050 C   0  0  0  0  0  0  0  0  0  0  0  0
  140.3160   70.9890  225.6020 C   0  0  0  0  0  0  0  0  0  0  0  0
  140.4090   71.7300  224.4780 N   0  0  0  0  0  0  0  0  0  0  0  0
  139.5400   73.9470  223.1070 H   0  0  0  0  0  0  0  0  0  0  0  0
  140.7227   73.9978  220.3636 H   0  0  0  0  0  0  0  0  0  0  0  0
  138.9651   74.3206  220.4437 H   0  0  0  0  0  0  0  0  0  0  0  0
  140.2360   76.5267  218.4089 H   0  0  0  0  0  0  0  0  0  0  0  0
  138.8461   77.0514  219.3586 H   0  0  0  0  0  0  0  0  0  0  0  0
  140.9194   78.7112  218.1428 H   0  0  0  0  0  0  0  0  0  0  0  0
  139.5553   79.2891  219.0924 H   0  0  0  0  0  0  0  0  0  0  0  0
  142.1200   79.5305  219.9814 H   0  0  0  0  0  0  0  0  0  0  0  0
  140.8468   79.2542  221.1343 H   0  0  0  0  0  0  0  0  0  0  0  0
  142.5491   77.2715  221.3448 H   0  0  0  0  0  0  0  0  0  0  0  0
  142.0348   76.4247  218.5895 H   0  0  0  0  0  0  0  0  0  0  0  0
  143.1049   77.9066  218.8333 H   0  0  0  0  0  0  0  0  0  0  0  0
  142.0077   74.1312  219.4014 H   0  0  0  0  0  0  0  0  0  0  0  0
  142.4410   71.8432  220.1875 H   0  0  0  0  0  0  0  0  0  0  0  0
  144.6174   71.2680  221.1846 H   0  0  0  0  0  0  0  0  0  0  0  0
  146.3760   73.0099  221.3892 H   0  0  0  0  0  0  0  0  0  0  0  0
  145.9346   75.2833  220.6036 H   0  0  0  0  0  0  0  0  0  0  0  0
  139.0230   69.6596  222.2830 H   0  0  0  0  0  0  0  0  0  0  0  0
  138.8228   68.2540  224.3037 H   0  0  0  0  0  0  0  0  0  0  0  0
  139.2258   68.0186  226.7102 H   0  0  0  0  0  0  0  0  0  0  0  0
  141.1000   71.1770  228.9279 H   0  0  0  0  0  0  0  0  0  0  0  0
  141.2438   72.4898  226.8245 H   0  0  0  0  0  0  0  0  0  0  0  0
  1  2  2  0
  2  3  1  0
  3  4  1  0
  4  5  1  0
  5  6  2  0
  5  7  1  0
  7  8  1  0
  8  9  1  0
  9 10  1  0
 10 11  1  0
 11 12  1  0
 12 13  1  0
 13 14  1  0
 14 15  2  0
 15 16  1  0
 16 17  2  0
 17 18  1  0
 18 19  2  0
  2 20  1  0
 20 21  2  0
 21 22  1  0
 22 23  2  0
 23 24  1  0
 24 25  2  0
 25 26  1  0
 25 27  1  0
 27 28  2  0
 28 29  1  0
 29 30  2  0
 11  7  1  0
 19 14  1  0
 30 20  1  0
 29 23  1  0
  3 31  1  0
  4 32  1  0
  4 33  1  0
  8 34  1  0
  8 35  1  0
  9 36  1  0
  9 37  1  0
 10 38  1  0
 10 39  1  0
 11 40  1  1
 12 41  1  0
 12 42  1  0
 15 43  1  0
 16 44  1  0
 17 45  1  0
 18 46  1  0
 19 47  1  0
 21 48  1  0
 22 49  1  0
 24 50  1  0
 27 51  1  0
 28 52  1  0
M  END
>  <smiles>  (50) 
O=C(NCC(=O)N1CCC[C@@H]1COc1ccccc1)c1ccc2cc(F)ccc2n1

>  <score_type>  (50) 
oracle

>  <origin>  (50) 
autodockgpu

>  <m_score__min__energy>  (50) 
-8.4499999999999993

>  <m_primary>  (50) 
energy

>  <rmsd>  (50) 
1.7642775398316237

>  <m_score__min__rmsd>  (50) 
1.7642775398316237

>  <meeko>  (50) 
{"free_energy": -7.73, "intermolecular_energy": -9.82, "internal_energy": -2.49, "cluster_size": 9, "cluster_id": 4, "rank_in_cluster": 5}

>  <energy>  (50) 
-6.0

>  <cluster_rmsd>  (50) 
0.0

>  <cluster>  (50) 
7

$$$$
