
     RDKit          3D

 55 58  0  0  0  0  0  0  0  0999 V2000
  141.3410   72.1430  221.7950 O   0  0  0  0  0  0  0  0  0  0  0  0
  140.3730   72.3820  222.5720 C   0  0  0  0  0  0  0  0  0  0  0  0
  139.4470   73.4400  222.3490 N   0  0  0  0  0  0  0  0  0  0  0  0
  139.5860   74.3260  221.1670 C   0  0  0  0  0  0  0  0  0  0  0  0
  140.0090   75.6570  221.6060 C   0  0  0  0  0  0  0  0  0  0  0  0
  139.2960   76.1510  222.5770 O   0  0  0  0  0  0  0  0  0  0  0  0
  141.0410   76.4830  221.1680 N   0  0  0  0  0  0  0  0  0  0  0  0
  142.1200   75.8320  220.3080 C   0  0  0  0  0  0  0  0  0  0  0  0
  142.3140   76.8190  219.2070 C   0  0  2  0  0  0  0  0  0  0  0  0
  143.6740   77.0110  218.9500 O   0  0  0  0  0  0  0  0  0  0  0  0
  141.6780   78.1060  219.6920 C   0  0  0  0  0  0  0  0  0  0  0  0
  141.4920   77.8140  221.1920 C   0  0  1  0  0  0  0  0  0  0  0  0
  140.6590   78.8640  221.7800 C   0  0  0  0  0  0  0  0  0  0  0  0
  140.4320   78.8680  223.2470 C   0  0  0  0  0  0  0  0  0  0  0  0
  141.8080   78.8520  223.8990 C   0  0  0  0  0  0  0  0  0  0  0  0
  142.4650   80.1590  223.5850 C   0  0  0  0  0  0  0  0  0  0  0  0
  142.4300   80.5850  222.1600 C   0  0  0  0  0  0  0  0  0  0  0  0
  141.1470   80.2700  221.4310 C   0  0  0  0  0  0  0  0  0  0  0  0
  140.1940   71.5310  223.7570 C   0  0  0  0  0  0  0  0  0  0  0  0
  139.4940   70.3480  223.6720 C   0  0  0  0  0  0  0  0  0  0  0  0
  139.2920   69.5090  224.7430 C   0  0  0  0  0  0  0  0  0  0  0  0
  139.8190   69.8800  225.9570 C   0  0  0  0  0  0  0  0  0  0  0  0
  139.6210   69.0480  227.0330 C   0  0  0  0  0  0  0  0  0  0  0  0
  140.1500   69.4120  228.2650 C   0  0  0  0  0  0  0  0  0  0  0  0
  140.8500   70.5970  228.3530 C   0  0  0  0  0  0  0  0  0  0  0  0
  141.0450   71.4240  227.2780 C   0  0  0  0  0  0  0  0  0  0  0  0
  140.5170   71.0660  226.0340 C   0  0  0  0  0  0  0  0  0  0  0  0
  140.7000   71.8710  224.9570 N   0  0  0  0  0  0  0  0  0  0  0  0
  138.6790   73.5660  223.0390 H   0  0  0  0  0  0  0  0  0  0  0  0
  140.3386   73.9088  220.4818 H   0  0  0  0  0  0  0  0  0  0  0  0
  138.6197   74.3998  220.6467 H   0  0  0  0  0  0  0  0  0  0  0  0
  143.0489   75.6902  220.8798 H   0  0  0  0  0  0  0  0  0  0  0  0
  141.8411   74.8308  219.9478 H   0  0  0  0  0  0  0  0  0  0  0  0
  141.8593   76.4701  218.2681 H   0  0  0  0  0  0  0  0  0  0  0  0
  144.0020   77.8740  219.3430 H   0  0  0  0  0  0  0  0  0  0  0  0
  142.3423   78.9677  219.5303 H   0  0  0  0  0  0  0  0  0  0  0  0
  140.7470   78.3696  219.1689 H   0  0  0  0  0  0  0  0  0  0  0  0
  142.3642   77.8592  221.8607 H   0  0  0  0  0  0  0  0  0  0  0  0
  139.6997   78.5966  221.3128 H   0  0  0  0  0  0  0  0  0  0  0  0
  139.8817   79.7731  223.5436 H   0  0  0  0  0  0  0  0  0  0  0  0
  139.8346   77.9986  223.5588 H   0  0  0  0  0  0  0  0  0  0  0  0
  141.7071   78.7335  224.9879 H   0  0  0  0  0  0  0  0  0  0  0  0
  142.4091   78.0129  223.5187 H   0  0  0  0  0  0  0  0  0  0  0  0
  141.9657   80.9375  224.1806 H   0  0  0  0  0  0  0  0  0  0  0  0
  143.5294   80.0191  223.8249 H   0  0  0  0  0  0  0  0  0  0  0  0
  142.5834   81.6737  222.1256 H   0  0  0  0  0  0  0  0  0  0  0  0
  143.2209   80.0158  221.6497 H   0  0  0  0  0  0  0  0  0  0  0  0
  140.3781   81.0014  221.7206 H   0  0  0  0  0  0  0  0  0  0  0  0
  141.3336   80.3212  220.3481 H   0  0  0  0  0  0  0  0  0  0  0  0
  139.0747   70.0591  222.6969 H   0  0  0  0  0  0  0  0  0  0  0  0
  138.7271   68.5717  224.6316 H   0  0  0  0  0  0  0  0  0  0  0  0
  139.0545   68.1118  226.9208 H   0  0  0  0  0  0  0  0  0  0  0  0
  140.0139   68.7709  229.1484 H   0  0  0  0  0  0  0  0  0  0  0  0
  141.2693   70.8905  229.3267 H   0  0  0  0  0  0  0  0  0  0  0  0
  141.6112   72.3601  227.3927 H   0  0  0  0  0  0  0  0  0  0  0  0
  1  2  2  0
  2  3  1  0
  3  4  1  0
  4  5  1  0
  5  6  2  0
  5  7  1  0
  7  8  1  0
  8  9  1  0
  9 10  1  0
  9 11  1  0
 11 12  1  0
 12 13  1  0
 13 14  1  0
 14 15  1  0
 15 16  1  0
 16 17  1  0
 17 18  1  0
  2 19  1  0
 19 20  2  0
 20 21  1  0
 21 22  2  0
 22 23  1  0
 23 24  2  0
 24 25  1  0
 25 26  2  0
 26 27  1  0
 27 28  2  0
 12  7  1  0
 18 13  1  0
 28 19  1  0
 27 22  1  0
  3 29  1  0
  4 30  1  0
  4 31  1  0
  8 32  1  0
  8 33  1  0
  9 34  1  6
 10 35  1  0
 11 36  1  0
 11 37  1  0
 12 38  1  1
 13 39  1  0
 14 40  1  0
 14 41  1  0
 15 42  1  0
 15 43  1  0
 16 44  1  0
 16 45  1  0
 17 46  1  0
 17 47  1  0
 18 48  1  0
 18 49  1  0
 20 50  1  0
 21 51  1  0
 23 52  1  0
 24 53  1  0
 25 54  1  0
 26 55  1  0
M  END
>  <smiles>  (1) 
O=C(NCC(=O)N1C[C@H](O)C[C@H]1C1CCCCC1)c1ccc2ccccc2n1

>  <score_type>  (1) 
oracle

>  <origin>  (1) 
autodockgpu

>  <m_score__min__energy>  (1) 
-9.6799999999999997

>  <m_primary>  (1) 
energy

>  <rmsd>  (1) 
1.930740890704411

>  <m_score__min__rmsd>  (1) 
1.930740890704411

>  <meeko>  (1) 
{"free_energy": -9.62, "intermolecular_energy": -11.41, "internal_energy": -1.48, "cluster_size": 32, "cluster_id": 1, "rank_in_cluster": 3}

>  <energy>  (1) 
-9.68

>  <cluster_rmsd>  (1) 
0.0

>  <cluster>  (1) 
1

$$$$

     RDKit          3D

 55 58  0  0  0  0  0  0  0  0999 V2000
  135.8600   77.2040  223.1410 O   0  0  0  0  0  0  0  0  0  0  0  0
  136.2270   76.0120  223.3410 C   0  0  0  0  0  0  0  0  0  0  0  0
  137.3640   75.4370  222.7060 N   0  0  0  0  0  0  0  0  0  0  0  0
  138.1830   76.2360  221.7620 C   0  0  0  0  0  0  0  0  0  0  0  0
  139.5800   75.8090  221.8510 C   0  0  0  0  0  0  0  0  0  0  0  0
  139.7430   74.6100  222.3330 O   0  0  0  0  0  0  0  0  0  0  0  0
  140.7630   76.4600  221.5080 N   0  0  0  0  0  0  0  0  0  0  0  0
  141.8210   75.6230  220.7940 C   0  0  0  0  0  0  0  0  0  0  0  0
  142.2750   76.5220  219.6930 C   0  0  2  0  0  0  0  0  0  0  0  0
  143.6670   76.5070  219.5860 O   0  0  0  0  0  0  0  0  0  0  0  0
  141.7850   77.9070  220.0660 C   0  0  0  0  0  0  0  0  0  0  0  0
  141.3980   77.7120  221.5430 C   0  0  1  0  0  0  0  0  0  0  0  0
  140.6700   78.8960  222.0030 C   0  0  0  0  0  0  0  0  0  0  0  0
  140.4160   79.0680  223.4560 C   0  0  0  0  0  0  0  0  0  0  0  0
  141.7710   78.9750  224.1460 C   0  0  0  0  0  0  0  0  0  0  0  0
  142.5680   80.1700  223.7270 C   0  0  0  0  0  0  0  0  0  0  0  0
  142.6050   80.4540  222.2670 C   0  0  0  0  0  0  0  0  0  0  0  0
  141.3090   80.2030  221.5350 C   0  0  0  0  0  0  0  0  0  0  0  0
  135.4470   75.1810  224.2680 C   0  0  0  0  0  0  0  0  0  0  0  0
  134.6630   75.7600  225.2410 C   0  0  0  0  0  0  0  0  0  0  0  0
  133.9110   75.0370  226.1390 C   0  0  0  0  0  0  0  0  0  0  0  0
  133.9510   73.6670  226.0500 C   0  0  0  0  0  0  0  0  0  0  0  0
  133.2020   72.9370  226.9430 C   0  0  0  0  0  0  0  0  0  0  0  0
  133.2330   71.5500  226.8650 C   0  0  0  0  0  0  0  0  0  0  0  0
  134.0180   70.9670  225.8910 C   0  0  0  0  0  0  0  0  0  0  0  0
  134.7620   71.6980  225.0040 C   0  0  0  0  0  0  0  0  0  0  0  0
  134.7370   73.0940  225.0750 C   0  0  0  0  0  0  0  0  0  0  0  0
  135.4680   73.8360  224.2040 N   0  0  0  0  0  0  0  0  0  0  0  0
  137.5950   74.4470  222.9280 H   0  0  0  0  0  0  0  0  0  0  0  0
  137.8165   76.0818  220.7364 H   0  0  0  0  0  0  0  0  0  0  0  0
  138.1070   77.3025  222.0204 H   0  0  0  0  0  0  0  0  0  0  0  0
  142.6523   75.3760  221.4707 H   0  0  0  0  0  0  0  0  0  0  0  0
  141.4383   74.6566  220.4340 H   0  0  0  0  0  0  0  0  0  0  0  0
  141.8784   76.1994  218.7190 H   0  0  0  0  0  0  0  0  0  0  0  0
  144.0780   77.2960  220.0510 H   0  0  0  0  0  0  0  0  0  0  0  0
  142.5815   78.6576  219.9556 H   0  0  0  0  0  0  0  0  0  0  0  0
  140.9642   78.2763  219.4337 H   0  0  0  0  0  0  0  0  0  0  0  0
  142.1906   77.6622  222.3041 H   0  0  0  0  0  0  0  0  0  0  0  0
  139.6973   78.6839  221.5352 H   0  0  0  0  0  0  0  0  0  0  0  0
  139.9583   80.0496  223.6482 H   0  0  0  0  0  0  0  0  0  0  0  0
  139.7243   78.3000  223.8325 H   0  0  0  0  0  0  0  0  0  0  0  0
  141.6380   78.9755  225.2379 H   0  0  0  0  0  0  0  0  0  0  0  0
  142.2874   78.0452  223.8653 H   0  0  0  0  0  0  0  0  0  0  0  0
  142.1423   81.0508  224.2299 H   0  0  0  0  0  0  0  0  0  0  0  0
  143.6070   79.9459  224.0105 H   0  0  0  0  0  0  0  0  0  0  0  0
  142.8737   81.5121  222.1319 H   0  0  0  0  0  0  0  0  0  0  0  0
  143.3405   79.7581  221.8371 H   0  0  0  0  0  0  0  0  0  0  0  0
  140.6162   81.0345  221.7314 H   0  0  0  0  0  0  0  0  0  0  0  0
  141.5193   80.1286  220.4579 H   0  0  0  0  0  0  0  0  0  0  0  0
  134.6363   76.8579  225.3038 H   0  0  0  0  0  0  0  0  0  0  0  0
  133.2986   75.5395  226.9022 H   0  0  0  0  0  0  0  0  0  0  0  0
  132.5897   73.4417  227.7048 H   0  0  0  0  0  0  0  0  0  0  0  0
  132.6470   70.9326  227.5616 H   0  0  0  0  0  0  0  0  0  0  0  0
  134.0472   69.8694  225.8246 H   0  0  0  0  0  0  0  0  0  0  0  0
  135.3736   71.1917  224.2427 H   0  0  0  0  0  0  0  0  0  0  0  0
  1  2  2  0
  2  3  1  0
  3  4  1  0
  4  5  1  0
  5  6  2  0
  5  7  1  0
  7  8  1  0
  8  9  1  0
  9 10  1  0
  9 11  1  0
 11 12  1  0
 12 13  1  0
 13 14  1  0
 14 15  1  0
 15 16  1  0
 16 17  1  0
 17 18  1  0
  2 19  1  0
 19 20  2  0
 20 21  1  0
 21 22  2  0
 22 23  1  0
 23 24  2  0
 24 25  1  0
 25 26  2  0
 26 27  1  0
 27 28  2  0
 12  7  1  0
 18 13  1  0
 28 19  1  0
 27 22  1  0
  3 29  1  0
  4 30  1  0
  4 31  1  0
  8 32  1  0
  8 33  1  0
  9 34  1  6
 10 35  1  0
 11 36  1  0
 11 37  1  0
 12 38  1  1
 13 39  1  0
 14 40  1  0
 14 41  1  0
 15 42  1  0
 15 43  1  0
 16 44  1  0
 16 45  1  0
 17 46  1  0
 17 47  1  0
 18 48  1  0
 18 49  1  0
 20 50  1  0
 21 51  1  0
 23 52  1  0
 24 53  1  0
 25 54  1  0
 26 55  1  0
M  END
>  <smiles>  (2) 
O=C(NCC(=O)N1C[C@H](O)C[C@H]1C1CCCCC1)c1ccc2ccccc2n1

>  <score_type>  (2) 
oracle

>  <origin>  (2) 
autodockgpu

>  <m_score__min__energy>  (2) 
-9.6799999999999997

>  <m_primary>  (2) 
energy

>  <rmsd>  (2) 
5.54110202474997

>  <m_score__min__rmsd>  (2) 
5.54110202474997

>  <meeko>  (2) 
{"free_energy": -8.31, "intermolecular_energy": -10.1, "internal_energy": -2.12, "cluster_size": 14, "cluster_id": 4, "rank_in_cluster": 3}

>  <energy>  (2) 
-9.63

>  <cluster_rmsd>  (2) 
0.32

>  <cluster>  (2) 
1

$$$$

     RDKit          3D

 55 58  0  0  0  0  0  0  0  0999 V2000
  141.2310   71.7750  221.5280 O   0  0  0  0  0  0  0  0  0  0  0  0
  140.4640   72.2200  222.4280 C   0  0  0  0  0  0  0  0  0  0  0  0
  139.8090   73.4800  222.3310 N   0  0  0  0  0  0  0  0  0  0  0  0
  140.0060   74.3410  221.1390 C   0  0  0  0  0  0  0  0  0  0  0  0
  140.3360   75.7000  221.5720 C   0  0  0  0  0  0  0  0  0  0  0  0
  139.7600   76.0620  222.6820 O   0  0  0  0  0  0  0  0  0  0  0  0
  141.1600   76.6700  221.0060 N   0  0  0  0  0  0  0  0  0  0  0  0
  142.1710   76.1870  219.9700 C   0  0  0  0  0  0  0  0  0  0  0  0
  142.0490   77.2010  218.8820 C   0  0  2  0  0  0  0  0  0  0  0  0
  143.3110   77.5880  218.4240 O   0  0  0  0  0  0  0  0  0  0  0  0
  141.3230   78.3790  219.5000 C   0  0  0  0  0  0  0  0  0  0  0  0
  141.4170   78.0510  221.0000 C   0  0  1  0  0  0  0  0  0  0  0  0
  140.5490   78.9660  221.7430 C   0  0  0  0  0  0  0  0  0  0  0  0
  140.3970   78.7880  223.2090 C   0  0  0  0  0  0  0  0  0  0  0  0
  141.8040   78.7960  223.7940 C   0  0  0  0  0  0  0  0  0  0  0  0
  142.3560   80.1730  223.6060 C   0  0  0  0  0  0  0  0  0  0  0  0
  142.2200   80.7540  222.2430 C   0  0  0  0  0  0  0  0  0  0  0  0
  140.9250   80.4330  221.5390 C   0  0  0  0  0  0  0  0  0  0  0  0
  140.2370   71.4030  223.6280 C   0  0  0  0  0  0  0  0  0  0  0  0
  139.5890   70.1900  223.5400 C   0  0  0  0  0  0  0  0  0  0  0  0
  139.3470   69.3800  224.6250 C   0  0  0  0  0  0  0  0  0  0  0  0
  139.7770   69.8120  225.8570 C   0  0  0  0  0  0  0  0  0  0  0  0
  139.5380   69.0090  226.9470 C   0  0  0  0  0  0  0  0  0  0  0  0
  139.9690   69.4350  228.1970 C   0  0  0  0  0  0  0  0  0  0  0  0
  140.6170   70.6490  228.2880 C   0  0  0  0  0  0  0  0  0  0  0  0
  140.8520   71.4460  227.2000 C   0  0  0  0  0  0  0  0  0  0  0  0
  140.4240   71.0270  225.9370 C   0  0  0  0  0  0  0  0  0  0  0  0
  140.6480   71.8020  224.8470 N   0  0  0  0  0  0  0  0  0  0  0  0
  139.1940   73.7700  223.1190 H   0  0  0  0  0  0  0  0  0  0  0  0
  140.8284   73.9402  220.5283 H   0  0  0  0  0  0  0  0  0  0  0  0
  139.0827   74.3591  220.5413 H   0  0  0  0  0  0  0  0  0  0  0  0
  143.1889   76.1752  220.3868 H   0  0  0  0  0  0  0  0  0  0  0  0
  141.9821   75.1590  219.6271 H   0  0  0  0  0  0  0  0  0  0  0  0
  141.5061   76.7989  218.0139 H   0  0  0  0  0  0  0  0  0  0  0  0
  143.9010   77.8770  219.1830 H   0  0  0  0  0  0  0  0  0  0  0  0
  141.8263   79.3284  219.2648 H   0  0  0  0  0  0  0  0  0  0  0  0
  140.2936   78.5105  219.1353 H   0  0  0  0  0  0  0  0  0  0  0  0
  142.3686   78.2156  221.5266 H   0  0  0  0  0  0  0  0  0  0  0  0
  139.5866   78.6851  221.2904 H   0  0  0  0  0  0  0  0  0  0  0  0
  139.8047   79.6125  223.6325 H   0  0  0  0  0  0  0  0  0  0  0  0
  139.8740   77.8492  223.4436 H   0  0  0  0  0  0  0  0  0  0  0  0
  141.7677   78.5480  224.8651 H   0  0  0  0  0  0  0  0  0  0  0  0
  142.4385   78.0503  223.2926 H   0  0  0  0  0  0  0  0  0  0  0  0
  141.8376   80.8414  224.3092 H   0  0  0  0  0  0  0  0  0  0  0  0
  143.4382   80.0832  223.7815 H   0  0  0  0  0  0  0  0  0  0  0  0
  142.2996   81.8477  222.3289 H   0  0  0  0  0  0  0  0  0  0  0  0
  143.0194   80.3040  221.6360 H   0  0  0  0  0  0  0  0  0  0  0  0
  140.1257   81.0705  221.9448 H   0  0  0  0  0  0  0  0  0  0  0  0
  141.0520   80.6193  220.4624 H   0  0  0  0  0  0  0  0  0  0  0  0
  139.2475   69.8519  222.5505 H   0  0  0  0  0  0  0  0  0  0  0  0
  138.8263   68.4178  224.5105 H   0  0  0  0  0  0  0  0  0  0  0  0
  139.0156   68.0479  226.8316 H   0  0  0  0  0  0  0  0  0  0  0  0
  139.7976   68.8192  229.0922 H   0  0  0  0  0  0  0  0  0  0  0  0
  140.9593   70.9911  229.2758 H   0  0  0  0  0  0  0  0  0  0  0  0
  141.3730   72.4075  227.3186 H   0  0  0  0  0  0  0  0  0  0  0  0
  1  2  2  0
  2  3  1  0
  3  4  1  0
  4  5  1  0
  5  6  2  0
  5  7  1  0
  7  8  1  0
  8  9  1  0
  9 10  1  0
  9 11  1  0
 11 12  1  0
 12 13  1  0
 13 14  1  0
 14 15  1  0
 15 16  1  0
 16 17  1  0
 17 18  1  0
  2 19  1  0
 19 20  2  0
 20 21  1  0
 21 22  2  0
 22 23  1  0
 23 24  2  0
 24 25  1  0
 25 26  2  0
 26 27  1  0
 27 28  2  0
 12  7  1  0
 18 13  1  0
 28 19  1  0
 27 22  1  0
  3 29  1  0
  4 30  1  0
  4 31  1  0
  8 32  1  0
  8 33  1  0
  9 34  1  6
 10 35  1  0
 11 36  1  0
 11 37  1  0
 12 38  1  1
 13 39  1  0
 14 40  1  0
 14 41  1  0
 15 42  1  0
 15 43  1  0
 16 44  1  0
 16 45  1  0
 17 46  1  0
 17 47  1  0
 18 48  1  0
 18 49  1  0
 20 50  1  0
 21 51  1  0
 23 52  1  0
 24 53  1  0
 25 54  1  0
 26 55  1  0
M  END
>  <smiles>  (3) 
O=C(NCC(=O)N1C[C@H](O)C[C@H]1C1CCCCC1)c1ccc2ccccc2n1

>  <score_type>  (3) 
oracle

>  <origin>  (3) 
autodockgpu

>  <m_score__min__energy>  (3) 
-9.6799999999999997

>  <m_primary>  (3) 
energy

>  <rmsd>  (3) 
1.9246476039519642

>  <m_score__min__rmsd>  (3) 
1.9246476039519642

>  <meeko>  (3) 
{"free_energy": -9.51, "intermolecular_energy": -11.3, "internal_energy": -1.67, "cluster_size": 32, "cluster_id": 1, "rank_in_cluster": 7}

>  <energy>  (3) 
-9.62

>  <cluster_rmsd>  (3) 
0.16

>  <cluster>  (3) 
1

$$$$

     RDKit          3D

 55 58  0  0  0  0  0  0  0  0999 V2000
  141.0140   71.5200  221.4170 O   0  0  0  0  0  0  0  0  0  0  0  0
  140.4550   72.0950  222.3940 C   0  0  0  0  0  0  0  0  0  0  0  0
  140.0050   73.4450  222.3420 N   0  0  0  0  0  0  0  0  0  0  0  0
  140.1790   74.2490  221.1080 C   0  0  0  0  0  0  0  0  0  0  0  0
  140.2180   75.6700  221.4570 C   0  0  0  0  0  0  0  0  0  0  0  0
  139.3080   76.0350  222.3140 O   0  0  0  0  0  0  0  0  0  0  0  0
  141.0600   76.6970  221.0350 N   0  0  0  0  0  0  0  0  0  0  0  0
  141.9720   76.3890  219.8510 C   0  0  0  0  0  0  0  0  0  0  0  0
  141.8400   77.6070  218.9990 C   0  0  2  0  0  0  0  0  0  0  0  0
  143.0910   78.0220  218.5350 O   0  0  0  0  0  0  0  0  0  0  0  0
  141.2260   78.6670  219.8910 C   0  0  0  0  0  0  0  0  0  0  0  0
  141.3970   78.0370  221.2850 C   0  0  1  0  0  0  0  0  0  0  0  0
  140.6330   78.8210  222.2580 C   0  0  0  0  0  0  0  0  0  0  0  0
  141.1400   78.9390  223.6480 C   0  0  0  0  0  0  0  0  0  0  0  0
  142.5670   79.4620  223.5460 C   0  0  0  0  0  0  0  0  0  0  0  0
  142.4920   80.8600  223.0190 C   0  0  0  0  0  0  0  0  0  0  0  0
  141.6420   81.0630  221.8150 C   0  0  0  0  0  0  0  0  0  0  0  0
  140.3700   80.2520  221.7870 C   0  0  0  0  0  0  0  0  0  0  0  0
  140.2610   71.3380  223.6390 C   0  0  0  0  0  0  0  0  0  0  0  0
  139.6190   70.1200  223.6270 C   0  0  0  0  0  0  0  0  0  0  0  0
  139.4060   69.3650  224.7570 C   0  0  0  0  0  0  0  0  0  0  0  0
  139.8620   69.8610  225.9550 C   0  0  0  0  0  0  0  0  0  0  0  0
  139.6530   69.1130  227.0890 C   0  0  0  0  0  0  0  0  0  0  0  0
  140.1090   69.6040  228.3060 C   0  0  0  0  0  0  0  0  0  0  0  0
  140.7510   70.8240  228.3210 C   0  0  0  0  0  0  0  0  0  0  0  0
  140.9570   71.5670  227.1890 C   0  0  0  0  0  0  0  0  0  0  0  0
  140.5020   71.0810  225.9590 C   0  0  0  0  0  0  0  0  0  0  0  0
  140.6970   71.8020  224.8260 N   0  0  0  0  0  0  0  0  0  0  0  0
  139.5550   73.8400  223.1930 H   0  0  0  0  0  0  0  0  0  0  0  0
  141.1207   73.9659  220.6149 H   0  0  0  0  0  0  0  0  0  0  0  0
  139.3381   74.0608  220.4243 H   0  0  0  0  0  0  0  0  0  0  0  0
  143.0122   76.2474  220.1797 H   0  0  0  0  0  0  0  0  0  0  0  0
  141.7013   75.4613  219.3255 H   0  0  0  0  0  0  0  0  0  0  0  0
  141.2195   77.4136  218.1115 H   0  0  0  0  0  0  0  0  0  0  0  0
  143.7090   78.2370  219.2950 H   0  0  0  0  0  0  0  0  0  0  0  0
  141.7683   79.6208  219.8125 H   0  0  0  0  0  0  0  0  0  0  0  0
  140.1850   78.9163  219.6377 H   0  0  0  0  0  0  0  0  0  0  0  0
  142.3884   78.0481  221.7614 H   0  0  0  0  0  0  0  0  0  0  0  0
  139.7302   78.1942  222.3048 H   0  0  0  0  0  0  0  0  0  0  0  0
  140.5177   79.6423  224.2209 H   0  0  0  0  0  0  0  0  0  0  0  0
  141.1083   77.9692  224.1662 H   0  0  0  0  0  0  0  0  0  0  0  0
  143.0409   79.4589  224.5387 H   0  0  0  0  0  0  0  0  0  0  0  0
  143.1680   78.8262  222.8792 H   0  0  0  0  0  0  0  0  0  0  0  0
  142.0963   81.5003  223.8211 H   0  0  0  0  0  0  0  0  0  0  0  0
  143.5153   81.1109  222.7028 H   0  0  0  0  0  0  0  0  0  0  0  0
  141.3689   82.1274  221.7659 H   0  0  0  0  0  0  0  0  0  0  0  0
  142.2405   80.7249  220.9562 H   0  0  0  0  0  0  0  0  0  0  0  0
  139.6281   80.7203  222.4505 H   0  0  0  0  0  0  0  0  0  0  0  0
  139.9918   80.2214  220.7545 H   0  0  0  0  0  0  0  0  0  0  0  0
  139.2577   69.7305  222.6638 H   0  0  0  0  0  0  0  0  0  0  0  0
  138.8878   68.3962  224.7036 H   0  0  0  0  0  0  0  0  0  0  0  0
  139.1347   68.1443  227.0340 H   0  0  0  0  0  0  0  0  0  0  0  0
  139.9614   69.0334  229.2348 H   0  0  0  0  0  0  0  0  0  0  0  0
  141.1130   71.2171  229.2825 H   0  0  0  0  0  0  0  0  0  0  0  0
  141.4748   72.5358  227.2466 H   0  0  0  0  0  0  0  0  0  0  0  0
  1  2  2  0
  2  3  1  0
  3  4  1  0
  4  5  1  0
  5  6  2  0
  5  7  1  0
  7  8  1  0
  8  9  1  0
  9 10  1  0
  9 11  1  0
 11 12  1  0
 12 13  1  0
 13 14  1  0
 14 15  1  0
 15 16  1  0
 16 17  1  0
 17 18  1  0
  2 19  1  0
 19 20  2  0
 20 21  1  0
 21 22  2  0
 22 23  1  0
 23 24  2  0
 24 25  1  0
 25 26  2  0
 26 27  1  0
 27 28  2  0
 12  7  1  0
 18 13  1  0
 28 19  1  0
 27 22  1  0
  3 29  1  0
  4 30  1  0
  4 31  1  0
  8 32  1  0
  8 33  1  0
  9 34  1  6
 10 35  1  0
 11 36  1  0
 11 37  1  0
 12 38  1  1
 13 39  1  0
 14 40  1  0
 14 41  1  0
 15 42  1  0
 15 43  1  0
 16 44  1  0
 16 45  1  0
 17 46  1  0
 17 47  1  0
 18 48  1  0
 18 49  1  0
 20 50  1  0
 21 51  1  0
 23 52  1  0
 24 53  1  0
 25 54  1  0
 26 55  1  0
M  END
>  <smiles>  (4) 
O=C(NCC(=O)N1C[C@H](O)C[C@H]1C1CCCCC1)c1ccc2ccccc2n1

>  <score_type>  (4) 
oracle

>  <origin>  (4) 
autodockgpu

>  <m_score__min__energy>  (4) 
-9.6799999999999997

>  <m_primary>  (4) 
energy

>  <rmsd>  (4) 
1.9799139523336298

>  <m_score__min__rmsd>  (4) 
1.9799139523336298

>  <meeko>  (4) 
{"free_energy": -9.24, "intermolecular_energy": -11.03, "internal_energy": -1.64, "cluster_size": 32, "cluster_id": 1, "rank_in_cluster": 24}

>  <energy>  (4) 
-9.62

>  <cluster_rmsd>  (4) 
0.33

>  <cluster>  (4) 
1

$$$$

     RDKit          3D

 55 58  0  0  0  0  0  0  0  0999 V2000
  141.2670   71.6710  221.4980 O   0  0  0  0  0  0  0  0  0  0  0  0
  140.6060   72.2170  222.4260 C   0  0  0  0  0  0  0  0  0  0  0  0
  140.1090   73.5490  222.3400 N   0  0  0  0  0  0  0  0  0  0  0  0
  140.3530   74.3660  221.1270 C   0  0  0  0  0  0  0  0  0  0  0  0
  140.4400   75.7780  221.5030 C   0  0  0  0  0  0  0  0  0  0  0  0
  139.6890   76.1080  222.5150 O   0  0  0  0  0  0  0  0  0  0  0  0
  141.1860   76.8270  220.9710 N   0  0  0  0  0  0  0  0  0  0  0  0
  142.0810   76.4920  219.7810 C   0  0  0  0  0  0  0  0  0  0  0  0
  141.8300   77.6240  218.8420 C   0  0  2  0  0  0  0  0  0  0  0  0
  143.0290   78.0910  218.3000 O   0  0  0  0  0  0  0  0  0  0  0  0
  141.1640   78.7040  219.6710 C   0  0  0  0  0  0  0  0  0  0  0  0
  141.4280   78.2040  221.1020 C   0  0  1  0  0  0  0  0  0  0  0  0
  140.6370   79.0050  222.0380 C   0  0  0  0  0  0  0  0  0  0  0  0
  141.0330   79.0440  223.4690 C   0  0  0  0  0  0  0  0  0  0  0  0
  142.4940   79.4740  223.5030 C   0  0  0  0  0  0  0  0  0  0  0  0
  142.5530   80.8900  223.0250 C   0  0  0  0  0  0  0  0  0  0  0  0
  141.8210   81.1880  221.7640 C   0  0  0  0  0  0  0  0  0  0  0  0
  140.5070   80.4650  221.6030 C   0  0  0  0  0  0  0  0  0  0  0  0
  140.3390   71.4460  223.6490 C   0  0  0  0  0  0  0  0  0  0  0  0
  139.6840   70.2360  223.5860 C   0  0  0  0  0  0  0  0  0  0  0  0
  139.4040   69.4680  224.6930 C   0  0  0  0  0  0  0  0  0  0  0  0
  139.8020   69.9430  225.9190 C   0  0  0  0  0  0  0  0  0  0  0  0
  139.5260   69.1820  227.0310 C   0  0  0  0  0  0  0  0  0  0  0  0
  139.9240   69.6510  228.2770 C   0  0  0  0  0  0  0  0  0  0  0  0
  140.5780   70.8630  228.3420 C   0  0  0  0  0  0  0  0  0  0  0  0
  140.8510   71.6180  227.2330 C   0  0  0  0  0  0  0  0  0  0  0  0
  140.4560   71.1550  225.9740 C   0  0  0  0  0  0  0  0  0  0  0  0
  140.7170   71.8880  224.8630 N   0  0  0  0  0  0  0  0  0  0  0  0
  139.5730   73.9200  223.1510 H   0  0  0  0  0  0  0  0  0  0  0  0
  141.2966   74.0524  220.6567 H   0  0  0  0  0  0  0  0  0  0  0  0
  139.5259   74.2248  220.4156 H   0  0  0  0  0  0  0  0  0  0  0  0
  143.1388   76.4540  220.0804 H   0  0  0  0  0  0  0  0  0  0  0  0
  141.8651   75.5076  219.3402 H   0  0  0  0  0  0  0  0  0  0  0  0
  141.1991   77.3144  217.9957 H   0  0  0  0  0  0  0  0  0  0  0  0
  142.8660   78.8030  217.6110 H   0  0  0  0  0  0  0  0  0  0  0  0
  141.6276   79.6863  219.4973 H   0  0  0  0  0  0  0  0  0  0  0  0
  140.0992   78.8531  219.4388 H   0  0  0  0  0  0  0  0  0  0  0  0
  142.4306   78.3271  221.5374 H   0  0  0  0  0  0  0  0  0  0  0  0
  139.6953   78.4388  221.9863 H   0  0  0  0  0  0  0  0  0  0  0  0
  140.4111   79.7682  224.0156 H   0  0  0  0  0  0  0  0  0  0  0  0
  140.8965   78.0622  223.9459 H   0  0  0  0  0  0  0  0  0  0  0  0
  142.8821   79.4071  224.5301 H   0  0  0  0  0  0  0  0  0  0  0  0
  143.1066   78.8216  222.8634 H   0  0  0  0  0  0  0  0  0  0  0  0
  142.1334   81.5291  223.8159 H   0  0  0  0  0  0  0  0  0  0  0  0
  143.6131   81.0822  222.8029 H   0  0  0  0  0  0  0  0  0  0  0  0
  141.6215   82.2693  221.7328 H   0  0  0  0  0  0  0  0  0  0  0  0
  142.4662   80.8388  220.9444 H   0  0  0  0  0  0  0  0  0  0  0  0
  139.7443   80.9598  222.2222 H   0  0  0  0  0  0  0  0  0  0  0  0
  140.2150   80.4936  220.5428 H   0  0  0  0  0  0  0  0  0  0  0  0
  139.3684   69.8644  222.5999 H   0  0  0  0  0  0  0  0  0  0  0  0
  138.8790   68.5059  224.5993 H   0  0  0  0  0  0  0  0  0  0  0  0
  139.0002   68.2205  226.9358 H   0  0  0  0  0  0  0  0  0  0  0  0
  139.7223   69.0697  229.1888 H   0  0  0  0  0  0  0  0  0  0  0  0
  140.8937   71.2392  229.3263 H   0  0  0  0  0  0  0  0  0  0  0  0
  141.3760   72.5796  227.3314 H   0  0  0  0  0  0  0  0  0  0  0  0
  1  2  2  0
  2  3  1  0
  3  4  1  0
  4  5  1  0
  5  6  2  0
  5  7  1  0
  7  8  1  0
  8  9  1  0
  9 10  1  0
  9 11  1  0
 11 12  1  0
 12 13  1  0
 13 14  1  0
 14 15  1  0
 15 16  1  0
 16 17  1  0
 17 18  1  0
  2 19  1  0
 19 20  2  0
 20 21  1  0
 21 22  2  0
 22 23  1  0
 23 24  2  0
 24 25  1  0
 25 26  2  0
 26 27  1  0
 27 28  2  0
 12  7  1  0
 18 13  1  0
 28 19  1  0
 27 22  1  0
  3 29  1  0
  4 30  1  0
  4 31  1  0
  8 32  1  0
  8 33  1  0
  9 34  1  6
 10 35  1  0
 11 36  1  0
 11 37  1  0
 12 38  1  1
 13 39  1  0
 14 40  1  0
 14 41  1  0
 15 42  1  0
 15 43  1  0
 16 44  1  0
 16 45  1  0
 17 46  1  0
 17 47  1  0
 18 48  1  0
 18 49  1  0
 20 50  1  0
 21 51  1  0
 23 52  1  0
 24 53  1  0
 25 54  1  0
 26 55  1  0
M  END
>  <smiles>  (5) 
O=C(NCC(=O)N1C[C@H](O)C[C@H]1C1CCCCC1)c1ccc2ccccc2n1

>  <score_type>  (5) 
oracle

>  <origin>  (5) 
autodockgpu

>  <m_score__min__energy>  (5) 
-9.6799999999999997

>  <m_primary>  (5) 
energy

>  <rmsd>  (5) 
2.046817937176304

>  <m_score__min__rmsd>  (5) 
2.046817937176304

>  <meeko>  (5) 
{"free_energy": -8.92, "intermolecular_energy": -10.71, "internal_energy": -1.81, "cluster_size": 32, "cluster_id": 1, "rank_in_cluster": 31}

>  <energy>  (5) 
-9.61

>  <cluster_rmsd>  (5) 
0.29

>  <cluster>  (5) 
1

$$$$

     RDKit          3D

 55 58  0  0  0  0  0  0  0  0999 V2000
  140.6870   71.3160  221.4040 O   0  0  0  0  0  0  0  0  0  0  0  0
  140.2670   71.8920  222.4470 C   0  0  0  0  0  0  0  0  0  0  0  0
  139.8920   73.2650  222.4730 N   0  0  0  0  0  0  0  0  0  0  0  0
  139.9810   74.0940  221.2450 C   0  0  0  0  0  0  0  0  0  0  0  0
  140.3010   75.4740  221.6140 C   0  0  0  0  0  0  0  0  0  0  0  0
  139.6260   75.9250  222.6320 O   0  0  0  0  0  0  0  0  0  0  0  0
  141.2020   76.3850  221.0680 N   0  0  0  0  0  0  0  0  0  0  0  0
  142.2550   75.8200  220.1190 C   0  0  0  0  0  0  0  0  0  0  0  0
  142.2480   76.7950  218.9900 C   0  0  2  0  0  0  0  0  0  0  0  0
  143.5530   77.1100  218.6020 O   0  0  0  0  0  0  0  0  0  0  0  0
  141.5370   78.0250  219.5150 C   0  0  0  0  0  0  0  0  0  0  0  0
  141.5200   77.7530  221.0290 C   0  0  1  0  0  0  0  0  0  0  0  0
  140.6470   78.7310  221.6790 C   0  0  0  0  0  0  0  0  0  0  0  0
  140.4460   78.6570  223.1480 C   0  0  0  0  0  0  0  0  0  0  0  0
  141.8330   78.6800  223.7770 C   0  0  0  0  0  0  0  0  0  0  0  0
  142.4190   80.0310  223.5140 C   0  0  0  0  0  0  0  0  0  0  0  0
  142.3380   80.5200  222.1110 C   0  0  0  0  0  0  0  0  0  0  0  0
  141.0590   80.1750  221.3880 C   0  0  0  0  0  0  0  0  0  0  0  0
  140.1610   71.1130  223.6890 C   0  0  0  0  0  0  0  0  0  0  0  0
  139.5700   69.8690  223.6880 C   0  0  0  0  0  0  0  0  0  0  0  0
  139.4410   69.0910  224.8160 C   0  0  0  0  0  0  0  0  0  0  0  0
  139.9290   69.5920  225.9990 C   0  0  0  0  0  0  0  0  0  0  0  0
  139.8030   68.8210  227.1310 C   0  0  0  0  0  0  0  0  0  0  0  0
  140.2930   69.3150  228.3330 C   0  0  0  0  0  0  0  0  0  0  0  0
  140.8840   70.5620  228.3360 C   0  0  0  0  0  0  0  0  0  0  0  0
  141.0070   71.3260  227.2070 C   0  0  0  0  0  0  0  0  0  0  0  0
  140.5180   70.8370  225.9910 C   0  0  0  0  0  0  0  0  0  0  0  0
  140.6310   71.5790  224.8610 N   0  0  0  0  0  0  0  0  0  0  0  0
  139.5560   73.6600  223.3750 H   0  0  0  0  0  0  0  0  0  0  0  0
  140.7703   73.6965  220.5899 H   0  0  0  0  0  0  0  0  0  0  0  0
  139.0184   74.0689  220.7133 H   0  0  0  0  0  0  0  0  0  0  0  0
  143.2425   75.7817  220.6020 H   0  0  0  0  0  0  0  0  0  0  0  0
  142.0432   74.7883  219.8017 H   0  0  0  0  0  0  0  0  0  0  0  0
  141.7443   76.3828  218.1033 H   0  0  0  0  0  0  0  0  0  0  0  0
  144.0750   77.5030  219.3640 H   0  0  0  0  0  0  0  0  0  0  0  0
  142.0957   78.9426  219.2787 H   0  0  0  0  0  0  0  0  0  0  0  0
  140.5399   78.1847  219.0788 H   0  0  0  0  0  0  0  0  0  0  0  0
  142.4421   77.8989  221.6108 H   0  0  0  0  0  0  0  0  0  0  0  0
  139.6938   78.4364  221.2157 H   0  0  0  0  0  0  0  0  0  0  0  0
  139.8573   79.5191  223.4947 H   0  0  0  0  0  0  0  0  0  0  0  0
  139.8975   77.7458  223.4286 H   0  0  0  0  0  0  0  0  0  0  0  0
  141.7577   78.5069  224.8607 H   0  0  0  0  0  0  0  0  0  0  0  0
  142.4677   77.8903  223.3486 H   0  0  0  0  0  0  0  0  0  0  0  0
  141.8926   80.7554  224.1529 H   0  0  0  0  0  0  0  0  0  0  0  0
  143.4931   79.9334  223.7304 H   0  0  0  0  0  0  0  0  0  0  0  0
  142.4371   81.6154  222.1252 H   0  0  0  0  0  0  0  0  0  0  0  0
  143.1469   80.0153  221.5624 H   0  0  0  0  0  0  0  0  0  0  0  0
  140.2604   80.8531  221.7232 H   0  0  0  0  0  0  0  0  0  0  0  0
  141.2233   80.2850  220.3059 H   0  0  0  0  0  0  0  0  0  0  0  0
  139.1810   69.4770  222.7367 H   0  0  0  0  0  0  0  0  0  0  0  0
  138.9632   68.1012  224.7721 H   0  0  0  0  0  0  0  0  0  0  0  0
  139.3234   67.8321  227.0852 H   0  0  0  0  0  0  0  0  0  0  0  0
  140.2120   68.7271  229.2592 H   0  0  0  0  0  0  0  0  0  0  0  0
  141.2726   70.9587  229.2856 H   0  0  0  0  0  0  0  0  0  0  0  0
  141.4858   72.3151  227.2554 H   0  0  0  0  0  0  0  0  0  0  0  0
  1  2  2  0
  2  3  1  0
  3  4  1  0
  4  5  1  0
  5  6  2  0
  5  7  1  0
  7  8  1  0
  8  9  1  0
  9 10  1  0
  9 11  1  0
 11 12  1  0
 12 13  1  0
 13 14  1  0
 14 15  1  0
 15 16  1  0
 16 17  1  0
 17 18  1  0
  2 19  1  0
 19 20  2  0
 20 21  1  0
 21 22  2  0
 22 23  1  0
 23 24  2  0
 24 25  1  0
 25 26  2  0
 26 27  1  0
 27 28  2  0
 12  7  1  0
 18 13  1  0
 28 19  1  0
 27 22  1  0
  3 29  1  0
  4 30  1  0
  4 31  1  0
  8 32  1  0
  8 33  1  0
  9 34  1  6
 10 35  1  0
 11 36  1  0
 11 37  1  0
 12 38  1  1
 13 39  1  0
 14 40  1  0
 14 41  1  0
 15 42  1  0
 15 43  1  0
 16 44  1  0
 16 45  1  0
 17 46  1  0
 17 47  1  0
 18 48  1  0
 18 49  1  0
 20 50  1  0
 21 51  1  0
 23 52  1  0
 24 53  1  0
 25 54  1  0
 26 55  1  0
M  END
>  <smiles>  (6) 
O=C(NCC(=O)N1C[C@H](O)C[C@H]1C1CCCCC1)c1ccc2ccccc2n1

>  <score_type>  (6) 
oracle

>  <origin>  (6) 
autodockgpu

>  <m_score__min__energy>  (6) 
-9.6799999999999997

>  <m_primary>  (6) 
energy

>  <rmsd>  (6) 
1.8423669692455573

>  <m_score__min__rmsd>  (6) 
1.8423669692455573

>  <meeko>  (6) 
{"free_energy": -9.45, "intermolecular_energy": -11.24, "internal_energy": -1.76, "cluster_size": 32, "cluster_id": 1, "rank_in_cluster": 8}

>  <energy>  (6) 
-9.54

>  <cluster_rmsd>  (6) 
0.45

>  <cluster>  (6) 
1

$$$$

     RDKit          3D

 55 58  0  0  0  0  0  0  0  0999 V2000
  140.9040   71.4840  221.4300 O   0  0  0  0  0  0  0  0  0  0  0  0
  140.3810   72.0410  222.4360 C   0  0  0  0  0  0  0  0  0  0  0  0
  139.9630   73.4030  222.4340 N   0  0  0  0  0  0  0  0  0  0  0  0
  140.1280   74.2390  221.2200 C   0  0  0  0  0  0  0  0  0  0  0  0
  140.4080   75.6200  221.6180 C   0  0  0  0  0  0  0  0  0  0  0  0
  139.7990   75.9960  222.7050 O   0  0  0  0  0  0  0  0  0  0  0  0
  141.2140   76.5970  221.0370 N   0  0  0  0  0  0  0  0  0  0  0  0
  142.2220   76.1210  219.9960 C   0  0  0  0  0  0  0  0  0  0  0  0
  142.0760   77.1260  218.9030 C   0  0  2  0  0  0  0  0  0  0  0  0
  143.3280   77.5280  218.4310 O   0  0  0  0  0  0  0  0  0  0  0  0
  141.3390   78.2980  219.5190 C   0  0  0  0  0  0  0  0  0  0  0  0
  141.4510   77.9820  221.0210 C   0  0  1  0  0  0  0  0  0  0  0  0
  140.5760   78.8890  221.7640 C   0  0  0  0  0  0  0  0  0  0  0  0
  140.4890   78.7590  223.2410 C   0  0  0  0  0  0  0  0  0  0  0  0
  141.9150   78.8430  223.7690 C   0  0  0  0  0  0  0  0  0  0  0  0
  142.4050   80.2330  223.5100 C   0  0  0  0  0  0  0  0  0  0  0  0
  142.1940   80.7570  222.1340 C   0  0  0  0  0  0  0  0  0  0  0  0
  140.8850   80.3620  221.4940 C   0  0  0  0  0  0  0  0  0  0  0  0
  140.1960   71.2530  223.6630 C   0  0  0  0  0  0  0  0  0  0  0  0
  139.5940   70.0150  223.6170 C   0  0  0  0  0  0  0  0  0  0  0  0
  139.3920   69.2300  224.7290 C   0  0  0  0  0  0  0  0  0  0  0  0
  139.8170   69.7150  225.9420 C   0  0  0  0  0  0  0  0  0  0  0  0
  139.6180   68.9370  227.0590 C   0  0  0  0  0  0  0  0  0  0  0  0
  140.0430   69.4160  228.2910 C   0  0  0  0  0  0  0  0  0  0  0  0
  140.6460   70.6560  228.3390 C   0  0  0  0  0  0  0  0  0  0  0  0
  140.8410   71.4290  227.2250 C   0  0  0  0  0  0  0  0  0  0  0  0
  140.4170   70.9550  225.9800 C   0  0  0  0  0  0  0  0  0  0  0  0
  140.6020   71.7050  224.8640 N   0  0  0  0  0  0  0  0  0  0  0  0
  139.5410   73.7820  223.3070 H   0  0  0  0  0  0  0  0  0  0  0  0
  140.9645   73.8530  220.6189 H   0  0  0  0  0  0  0  0  0  0  0  0
  139.2049   74.2076  220.6226 H   0  0  0  0  0  0  0  0  0  0  0  0
  143.2436   76.1260  220.4038 H   0  0  0  0  0  0  0  0  0  0  0  0
  142.0447   75.0882  219.6616 H   0  0  0  0  0  0  0  0  0  0  0  0
  141.5310   76.7099  218.0428 H   0  0  0  0  0  0  0  0  0  0  0  0
  143.9120   77.8540  219.1790 H   0  0  0  0  0  0  0  0  0  0  0  0
  141.8267   79.2527  219.2726 H   0  0  0  0  0  0  0  0  0  0  0  0
  140.3047   78.4124  219.1626 H   0  0  0  0  0  0  0  0  0  0  0  0
  142.4040   78.1640  221.5394 H   0  0  0  0  0  0  0  0  0  0  0  0
  139.6089   78.5554  221.3598 H   0  0  0  0  0  0  0  0  0  0  0  0
  139.8807   79.5748  223.6588 H   0  0  0  0  0  0  0  0  0  0  0  0
  140.0143   77.8093  223.5287 H   0  0  0  0  0  0  0  0  0  0  0  0
  141.9293   78.6340  224.8489 H   0  0  0  0  0  0  0  0  0  0  0  0
  142.5590   78.1040  223.2698 H   0  0  0  0  0  0  0  0  0  0  0  0
  141.8880   80.9070  224.2089 H   0  0  0  0  0  0  0  0  0  0  0  0
  143.4958   80.1911  223.6454 H   0  0  0  0  0  0  0  0  0  0  0  0
  142.2348   81.8554  222.1773 H   0  0  0  0  0  0  0  0  0  0  0  0
  142.9859   80.3144  221.5120 H   0  0  0  0  0  0  0  0  0  0  0  0
  140.0776   80.9827  221.9098 H   0  0  0  0  0  0  0  0  0  0  0  0
  140.9616   80.5146  220.4073 H   0  0  0  0  0  0  0  0  0  0  0  0
  139.2575   69.6343  222.6414 H   0  0  0  0  0  0  0  0  0  0  0  0
  138.9061   68.2464  224.6492 H   0  0  0  0  0  0  0  0  0  0  0  0
  139.1313   67.9539  226.9776 H   0  0  0  0  0  0  0  0  0  0  0  0
  139.9024   68.8217  229.2059 H   0  0  0  0  0  0  0  0  0  0  0  0
  140.9844   71.0400  229.3127 H   0  0  0  0  0  0  0  0  0  0  0  0
  141.3262   72.4126  227.3092 H   0  0  0  0  0  0  0  0  0  0  0  0
  1  2  2  0
  2  3  1  0
  3  4  1  0
  4  5  1  0
  5  6  2  0
  5  7  1  0
  7  8  1  0
  8  9  1  0
  9 10  1  0
  9 11  1  0
 11 12  1  0
 12 13  1  0
 13 14  1  0
 14 15  1  0
 15 16  1  0
 16 17  1  0
 17 18  1  0
  2 19  1  0
 19 20  2  0
 20 21  1  0
 21 22  2  0
 22 23  1  0
 23 24  2  0
 24 25  1  0
 25 26  2  0
 26 27  1  0
 27 28  2  0
 12  7  1  0
 18 13  1  0
 28 19  1  0
 27 22  1  0
  3 29  1  0
  4 30  1  0
  4 31  1  0
  8 32  1  0
  8 33  1  0
  9 34  1  6
 10 35  1  0
 11 36  1  0
 11 37  1  0
 12 38  1  1
 13 39  1  0
 14 40  1  0
 14 41  1  0
 15 42  1  0
 15 43  1  0
 16 44  1  0
 16 45  1  0
 17 46  1  0
 17 47  1  0
 18 48  1  0
 18 49  1  0
 20 50  1  0
 21 51  1  0
 23 52  1  0
 24 53  1  0
 25 54  1  0
 26 55  1  0
M  END
>  <smiles>  (7) 
O=C(NCC(=O)N1C[C@H](O)C[C@H]1C1CCCCC1)c1ccc2ccccc2n1

>  <score_type>  (7) 
oracle

>  <origin>  (7) 
autodockgpu

>  <m_score__min__energy>  (7) 
-9.6799999999999997

>  <m_primary>  (7) 
energy

>  <rmsd>  (7) 
1.910373475368351

>  <m_score__min__rmsd>  (7) 
1.910373475368351

>  <meeko>  (7) 
{"free_energy": -9.4, "intermolecular_energy": -11.19, "internal_energy": -1.83, "cluster_size": 32, "cluster_id": 1, "rank_in_cluster": 14}

>  <energy>  (7) 
-9.51

>  <cluster_rmsd>  (7) 
0.45

>  <cluster>  (7) 
1

$$$$

     RDKit          3D

 55 58  0  0  0  0  0  0  0  0999 V2000
  141.1020   74.9580  221.0720 O   0  0  0  0  0  0  0  0  0  0  0  0
  140.2100   75.3550  221.8730 C   0  0  0  0  0  0  0  0  0  0  0  0
  139.1610   74.5130  222.3420 N   0  0  0  0  0  0  0  0  0  0  0  0
  139.0740   73.1010  221.8950 C   0  0  0  0  0  0  0  0  0  0  0  0
  139.7440   72.2410  222.8720 C   0  0  0  0  0  0  0  0  0  0  0  0
  141.0440   72.2910  222.8260 O   0  0  0  0  0  0  0  0  0  0  0  0
  139.2320   71.3830  223.8430 N   0  0  0  0  0  0  0  0  0  0  0  0
  137.7940   70.9110  223.6490 C   0  0  0  0  0  0  0  0  0  0  0  0
  137.8760   69.4510  223.9460 C   0  0  2  0  0  0  0  0  0  0  0  0
  136.8110   69.0520  224.7570 O   0  0  0  0  0  0  0  0  0  0  0  0
  139.1950   69.2520  224.6650 C   0  0  0  0  0  0  0  0  0  0  0  0
  139.5760   70.7000  225.0220 C   0  0  1  0  0  0  0  0  0  0  0  0
  140.9560   70.7220  225.5100 C   0  0  0  0  0  0  0  0  0  0  0  0
  141.3590   71.7610  226.4900 C   0  0  0  0  0  0  0  0  0  0  0  0
  140.3820   71.6610  227.6560 C   0  0  0  0  0  0  0  0  0  0  0  0
  140.6280   70.3480  228.3300 C   0  0  0  0  0  0  0  0  0  0  0  0
  140.6980   69.1570  227.4410 C   0  0  0  0  0  0  0  0  0  0  0  0
  141.3880   69.3870  226.1190 C   0  0  0  0  0  0  0  0  0  0  0  0
  140.2540   76.7460  222.3440 C   0  0  0  0  0  0  0  0  0  0  0  0
  139.0930   77.4240  222.6420 C   0  0  0  0  0  0  0  0  0  0  0  0
  139.0680   78.7260  223.0860 C   0  0  0  0  0  0  0  0  0  0  0  0
  140.2700   79.3740  223.2380 C   0  0  0  0  0  0  0  0  0  0  0  0
  140.2540   80.6760  223.6810 C   0  0  0  0  0  0  0  0  0  0  0  0
  141.4620   81.3430  223.8390 C   0  0  0  0  0  0  0  0  0  0  0  0
  142.6260   80.6670  223.5410 C   0  0  0  0  0  0  0  0  0  0  0  0
  142.6380   79.3700  223.0990 C   0  0  0  0  0  0  0  0  0  0  0  0
  141.4270   78.6900  222.9380 C   0  0  0  0  0  0  0  0  0  0  0  0
  141.4180   77.4060  222.5010 N   0  0  0  0  0  0  0  0  0  0  0  0
  138.4680   74.9210  223.0010 H   0  0  0  0  0  0  0  0  0  0  0  0
  138.0174   72.8070  221.8105 H   0  0  0  0  0  0  0  0  0  0  0  0
  139.5621   72.9945  220.9150 H   0  0  0  0  0  0  0  0  0  0  0  0
  137.1136   71.4189  224.3483 H   0  0  0  0  0  0  0  0  0  0  0  0
  137.3988   71.1273  222.6455 H   0  0  0  0  0  0  0  0  0  0  0  0
  137.8191   68.8485  223.0274 H   0  0  0  0  0  0  0  0  0  0  0  0
  136.0400   69.6920  224.6880 H   0  0  0  0  0  0  0  0  0  0  0  0
  139.0709   68.6357  225.5676 H   0  0  0  0  0  0  0  0  0  0  0  0
  139.9539   68.7242  224.0688 H   0  0  0  0  0  0  0  0  0  0  0  0
  139.0651   71.1988  225.8587 H   0  0  0  0  0  0  0  0  0  0  0  0
  141.4627   70.9666  224.5648 H   0  0  0  0  0  0  0  0  0  0  0  0
  142.3860   71.5765  226.8383 H   0  0  0  0  0  0  0  0  0  0  0  0
  141.3362   72.7635  226.0378 H   0  0  0  0  0  0  0  0  0  0  0  0
  140.5542   72.4856  228.3634 H   0  0  0  0  0  0  0  0  0  0  0  0
  139.3431   71.7283  227.3009 H   0  0  0  0  0  0  0  0  0  0  0  0
  141.5841   70.4212  228.8691 H   0  0  0  0  0  0  0  0  0  0  0  0
  139.7549   70.1812  228.9780 H   0  0  0  0  0  0  0  0  0  0  0  0
  141.2409   68.3637  227.9757 H   0  0  0  0  0  0  0  0  0  0  0  0
  139.6578   68.8903  227.2023 H   0  0  0  0  0  0  0  0  0  0  0  0
  142.4766   69.3972  226.2766 H   0  0  0  0  0  0  0  0  0  0  0  0
  141.1104   68.5766  225.4289 H   0  0  0  0  0  0  0  0  0  0  0  0
  138.1354   76.8970  222.5186 H   0  0  0  0  0  0  0  0  0  0  0  0
  138.1174   79.2313  223.3118 H   0  0  0  0  0  0  0  0  0  0  0  0
  139.3023   81.1796  223.9059 H   0  0  0  0  0  0  0  0  0  0  0  0
  141.4893   82.3842  224.1929 H   0  0  0  0  0  0  0  0  0  0  0  0
  143.5855   81.1908  223.6632 H   0  0  0  0  0  0  0  0  0  0  0  0
  143.5908   78.8689  222.8731 H   0  0  0  0  0  0  0  0  0  0  0  0
  1  2  2  0
  2  3  1  0
  3  4  1  0
  4  5  1  0
  5  6  2  0
  5  7  1  0
  7  8  1  0
  8  9  1  0
  9 10  1  0
  9 11  1  0
 11 12  1  0
 12 13  1  0
 13 14  1  0
 14 15  1  0
 15 16  1  0
 16 17  1  0
 17 18  1  0
  2 19  1  0
 19 20  2  0
 20 21  1  0
 21 22  2  0
 22 23  1  0
 23 24  2  0
 24 25  1  0
 25 26  2  0
 26 27  1  0
 27 28  2  0
 12  7  1  0
 18 13  1  0
 28 19  1  0
 27 22  1  0
  3 29  1  0
  4 30  1  0
  4 31  1  0
  8 32  1  0
  8 33  1  0
  9 34  1  6
 10 35  1  0
 11 36  1  0
 11 37  1  0
 12 38  1  1
 13 39  1  0
 14 40  1  0
 14 41  1  0
 15 42  1  0
 15 43  1  0
 16 44  1  0
 16 45  1  0
 17 46  1  0
 17 47  1  0
 18 48  1  0
 18 49  1  0
 20 50  1  0
 21 51  1  0
 23 52  1  0
 24 53  1  0
 25 54  1  0
 26 55  1  0
M  END
>  <smiles>  (8) 
O=C(NCC(=O)N1C[C@H](O)C[C@H]1C1CCCCC1)c1ccc2ccccc2n1

>  <score_type>  (8) 
oracle

>  <origin>  (8) 
autodockgpu

>  <m_score__min__energy>  (8) 
-9.6799999999999997

>  <m_primary>  (8) 
energy

>  <rmsd>  (8) 
8.39415656007235

>  <m_score__min__rmsd>  (8) 
8.39415656007235

>  <meeko>  (8) 
{"free_energy": -9.18, "intermolecular_energy": -10.97, "internal_energy": -1.23, "cluster_size": 2, "cluster_id": 2, "rank_in_cluster": 1}

>  <energy>  (8) 
-9.45

>  <cluster_rmsd>  (8) 
0.48

>  <cluster>  (8) 
1

$$$$

     RDKit          3D

 55 58  0  0  0  0  0  0  0  0999 V2000
  141.0930   71.5130  221.4190 O   0  0  0  0  0  0  0  0  0  0  0  0
  140.4930   72.0450  222.3950 C   0  0  0  0  0  0  0  0  0  0  0  0
  140.0210   73.3890  222.3730 N   0  0  0  0  0  0  0  0  0  0  0  0
  140.2220   74.2370  221.1720 C   0  0  0  0  0  0  0  0  0  0  0  0
  140.4120   75.6280  221.5880 C   0  0  0  0  0  0  0  0  0  0  0  0
  139.7440   75.9630  222.6540 O   0  0  0  0  0  0  0  0  0  0  0  0
  141.1850   76.6510  221.0430 N   0  0  0  0  0  0  0  0  0  0  0  0
  142.0870   76.2760  219.8720 C   0  0  0  0  0  0  0  0  0  0  0  0
  141.8680   77.3930  218.9070 C   0  0  2  0  0  0  0  0  0  0  0  0
  143.0830   77.8270  218.3700 O   0  0  0  0  0  0  0  0  0  0  0  0
  141.2140   78.5020  219.7060 C   0  0  0  0  0  0  0  0  0  0  0  0
  141.4500   78.0260  221.1500 C   0  0  1  0  0  0  0  0  0  0  0  0
  140.6630   78.8600  222.0600 C   0  0  0  0  0  0  0  0  0  0  0  0
  141.0800   78.9720  223.4810 C   0  0  0  0  0  0  0  0  0  0  0  0
  142.5360   79.4200  223.4720 C   0  0  0  0  0  0  0  0  0  0  0  0
  142.5700   80.8130  222.9270 C   0  0  0  0  0  0  0  0  0  0  0  0
  141.8150   81.0420  221.6650 C   0  0  0  0  0  0  0  0  0  0  0  0
  140.5080   80.2960  221.5590 C   0  0  0  0  0  0  0  0  0  0  0  0
  140.2700   71.2450  223.6070 C   0  0  0  0  0  0  0  0  0  0  0  0
  139.6420   70.0210  223.5350 C   0  0  0  0  0  0  0  0  0  0  0  0
  139.4040   69.2250  224.6320 C   0  0  0  0  0  0  0  0  0  0  0  0
  139.8200   69.6840  225.8580 C   0  0  0  0  0  0  0  0  0  0  0  0
  139.5860   68.8950  226.9600 C   0  0  0  0  0  0  0  0  0  0  0  0
  140.0010   69.3480  228.2060 C   0  0  0  0  0  0  0  0  0  0  0  0
  140.6300   70.5730  228.2810 C   0  0  0  0  0  0  0  0  0  0  0  0
  140.8600   71.3570  227.1820 C   0  0  0  0  0  0  0  0  0  0  0  0
  140.4470   70.9100  225.9230 C   0  0  0  0  0  0  0  0  0  0  0  0
  140.6670   71.6710  224.8210 N   0  0  0  0  0  0  0  0  0  0  0  0
  139.5360   73.7470  223.2210 H   0  0  0  0  0  0  0  0  0  0  0  0
  141.1113   73.8927  220.6237 H   0  0  0  0  0  0  0  0  0  0  0  0
  139.3402   74.1651  220.5184 H   0  0  0  0  0  0  0  0  0  0  0  0
  143.1403   76.2250  220.1850 H   0  0  0  0  0  0  0  0  0  0  0  0
  141.8582   75.2869  219.4486 H   0  0  0  0  0  0  0  0  0  0  0  0
  141.2410   77.0777  218.0600 H   0  0  0  0  0  0  0  0  0  0  0  0
  143.7920   77.8940  219.0780 H   0  0  0  0  0  0  0  0  0  0  0  0
  141.6994   79.4712  219.5188 H   0  0  0  0  0  0  0  0  0  0  0  0
  140.1553   78.6672  219.4574 H   0  0  0  0  0  0  0  0  0  0  0  0
  142.4489   78.1396  221.5963 H   0  0  0  0  0  0  0  0  0  0  0  0
  139.7284   78.2799  222.0503 H   0  0  0  0  0  0  0  0  0  0  0  0
  140.4575   79.7143  224.0021 H   0  0  0  0  0  0  0  0  0  0  0  0
  140.9629   78.0126  224.0061 H   0  0  0  0  0  0  0  0  0  0  0  0
  142.9404   79.4061  224.4949 H   0  0  0  0  0  0  0  0  0  0  0  0
  143.1470   78.7453  222.8543 H   0  0  0  0  0  0  0  0  0  0  0  0
  142.1545   81.4838  223.6934 H   0  0  0  0  0  0  0  0  0  0  0  0
  143.6241   81.0073  222.6796 H   0  0  0  0  0  0  0  0  0  0  0  0
  141.6010   82.1181  221.5860 H   0  0  0  0  0  0  0  0  0  0  0  0
  142.4522   80.6623  220.8527 H   0  0  0  0  0  0  0  0  0  0  0  0
  139.7485   80.8102  222.1662 H   0  0  0  0  0  0  0  0  0  0  0  0
  140.1999   80.2708  220.5033 H   0  0  0  0  0  0  0  0  0  0  0  0
  139.3135   69.6610  222.5488 H   0  0  0  0  0  0  0  0  0  0  0  0
  138.8976   68.2538  224.5305 H   0  0  0  0  0  0  0  0  0  0  0  0
  139.0799   67.9238  226.8567 H   0  0  0  0  0  0  0  0  0  0  0  0
  139.8321   68.7447  229.1101 H   0  0  0  0  0  0  0  0  0  0  0  0
  140.9610   70.9357  229.2653 H   0  0  0  0  0  0  0  0  0  0  0  0
  141.3646   72.3286  227.2885 H   0  0  0  0  0  0  0  0  0  0  0  0
  1  2  2  0
  2  3  1  0
  3  4  1  0
  4  5  1  0
  5  6  2  0
  5  7  1  0
  7  8  1  0
  8  9  1  0
  9 10  1  0
  9 11  1  0
 11 12  1  0
 12 13  1  0
 13 14  1  0
 14 15  1  0
 15 16  1  0
 16 17  1  0
 17 18  1  0
  2 19  1  0
 19 20  2  0
 20 21  1  0
 21 22  2  0
 22 23  1  0
 23 24  2  0
 24 25  1  0
 25 26  2  0
 26 27  1  0
 27 28  2  0
 12  7  1  0
 18 13  1  0
 28 19  1  0
 27 22  1  0
  3 29  1  0
  4 30  1  0
  4 31  1  0
  8 32  1  0
  8 33  1  0
  9 34  1  6
 10 35  1  0
 11 36  1  0
 11 37  1  0
 12 38  1  1
 13 39  1  0
 14 40  1  0
 14 41  1  0
 15 42  1  0
 15 43  1  0
 16 44  1  0
 16 45  1  0
 17 46  1  0
 17 47  1  0
 18 48  1  0
 18 49  1  0
 20 50  1  0
 21 51  1  0
 23 52  1  0
 24 53  1  0
 25 54  1  0
 26 55  1  0
M  END
>  <smiles>  (9) 
O=C(NCC(=O)N1C[C@H](O)C[C@H]1C1CCCCC1)c1ccc2ccccc2n1

>  <score_type>  (9) 
oracle

>  <origin>  (9) 
autodockgpu

>  <m_score__min__energy>  (9) 
-9.6799999999999997

>  <m_primary>  (9) 
energy

>  <rmsd>  (9) 
1.932239827168591

>  <m_score__min__rmsd>  (9) 
1.932239827168591

>  <meeko>  (9) 
{"free_energy": -9.31, "intermolecular_energy": -11.1, "internal_energy": -1.8, "cluster_size": 32, "cluster_id": 1, "rank_in_cluster": 23}

>  <energy>  (9) 
-9.44

>  <cluster_rmsd>  (9) 
0.51

>  <cluster>  (9) 
1

$$$$

     RDKit          3D

 55 58  0  0  0  0  0  0  0  0999 V2000
  140.6430   71.0030  221.7050 O   0  0  0  0  0  0  0  0  0  0  0  0
  140.2460   71.7080  222.6750 C   0  0  0  0  0  0  0  0  0  0  0  0
  139.7700   73.0410  222.5180 N   0  0  0  0  0  0  0  0  0  0  0  0
  139.7220   73.6690  221.1740 C   0  0  0  0  0  0  0  0  0  0  0  0
  140.7900   74.6640  221.0660 C   0  0  0  0  0  0  0  0  0  0  0  0
  140.7100   75.6310  221.9350 O   0  0  0  0  0  0  0  0  0  0  0  0
  141.8770   74.7550  220.1990 N   0  0  0  0  0  0  0  0  0  0  0  0
  141.8030   75.8320  219.1220 C   0  0  0  0  0  0  0  0  0  0  0  0
  143.1650   76.4420  219.1620 C   0  0  2  0  0  0  0  0  0  0  0  0
  143.6580   76.6330  217.8690 O   0  0  0  0  0  0  0  0  0  0  0  0
  144.0320   75.4590  219.9230 C   0  0  0  0  0  0  0  0  0  0  0  0
  143.1410   74.2030  219.9340 C   0  0  1  0  0  0  0  0  0  0  0  0
  143.7220   73.2170  220.8470 C   0  0  0  0  0  0  0  0  0  0  0  0
  143.4900   71.7730  220.5930 C   0  0  0  0  0  0  0  0  0  0  0  0
  143.9420   71.5060  219.1630 C   0  0  0  0  0  0  0  0  0  0  0  0
  145.4250   71.6930  219.1230 C   0  0  0  0  0  0  0  0  0  0  0  0
  145.9460   72.9420  219.7430 C   0  0  0  0  0  0  0  0  0  0  0  0
  145.2350   73.3740  221.0010 C   0  0  0  0  0  0  0  0  0  0  0  0
  140.2750   71.1300  224.0260 C   0  0  0  0  0  0  0  0  0  0  0  0
  140.7000   71.8780  225.1010 C   0  0  0  0  0  0  0  0  0  0  0  0
  140.7500   71.3950  226.3890 C   0  0  0  0  0  0  0  0  0  0  0  0
  140.3530   70.0970  226.6010 C   0  0  0  0  0  0  0  0  0  0  0  0
  140.4000   69.6050  227.8850 C   0  0  0  0  0  0  0  0  0  0  0  0
  140.0010   68.2940  228.1130 C   0  0  0  0  0  0  0  0  0  0  0  0
  139.5760   67.5430  227.0380 C   0  0  0  0  0  0  0  0  0  0  0  0
  139.5310   68.0350  225.7610 C   0  0  0  0  0  0  0  0  0  0  0  0
  139.9290   69.3540  225.5210 C   0  0  0  0  0  0  0  0  0  0  0  0
  139.8920   69.8610  224.2630 N   0  0  0  0  0  0  0  0  0  0  0  0
  139.4620   73.5510  223.3710 H   0  0  0  0  0  0  0  0  0  0  0  0
  139.8598   72.8970  220.4026 H   0  0  0  0  0  0  0  0  0  0  0  0
  138.7472   74.1581  221.0306 H   0  0  0  0  0  0  0  0  0  0  0  0
  141.5962   75.3911  218.1357 H   0  0  0  0  0  0  0  0  0  0  0  0
  140.9968   76.5606  219.2926 H   0  0  0  0  0  0  0  0  0  0  0  0
  143.1514   77.4300  219.6454 H   0  0  0  0  0  0  0  0  0  0  0  0
  144.5050   76.1140  217.7220 H   0  0  0  0  0  0  0  0  0  0  0  0
  144.9815   75.2728  219.3998 H   0  0  0  0  0  0  0  0  0  0  0  0
  144.3284   75.8058  220.9239 H   0  0  0  0  0  0  0  0  0  0  0  0
  143.0554   73.5960  219.0207 H   0  0  0  0  0  0  0  0  0  0  0  0
  143.1525   73.4735  221.7525 H   0  0  0  0  0  0  0  0  0  0  0  0
  144.0770   71.1645  221.2967 H   0  0  0  0  0  0  0  0  0  0  0  0
  142.4306   71.5107  220.7303 H   0  0  0  0  0  0  0  0  0  0  0  0
  143.6845   70.4767  218.8728 H   0  0  0  0  0  0  0  0  0  0  0  0
  143.4439   72.1926  218.4626 H   0  0  0  0  0  0  0  0  0  0  0  0
  145.8850   70.8414  219.6457 H   0  0  0  0  0  0  0  0  0  0  0  0
  145.6847   71.7628  218.0564 H   0  0  0  0  0  0  0  0  0  0  0  0
  147.0069   72.7847  219.9875 H   0  0  0  0  0  0  0  0  0  0  0  0
  145.7814   73.7424  219.0067 H   0  0  0  0  0  0  0  0  0  0  0  0
  145.5788   72.7533  221.8415 H   0  0  0  0  0  0  0  0  0  0  0  0
  145.4634   74.4332  221.1907 H   0  0  0  0  0  0  0  0  0  0  0  0
  141.0162   72.9161  224.9211 H   0  0  0  0  0  0  0  0  0  0  0  0
  141.0961   72.0268  227.2203 H   0  0  0  0  0  0  0  0  0  0  0  0
  140.7469   70.2377  228.7153 H   0  0  0  0  0  0  0  0  0  0  0  0
  140.0237   67.8659  229.1260 H   0  0  0  0  0  0  0  0  0  0  0  0
  139.2595   66.5042  227.2135 H   0  0  0  0  0  0  0  0  0  0  0  0
  139.1854   67.3994  224.9325 H   0  0  0  0  0  0  0  0  0  0  0  0
  1  2  2  0
  2  3  1  0
  3  4  1  0
  4  5  1  0
  5  6  2  0
  5  7  1  0
  7  8  1  0
  8  9  1  0
  9 10  1  0
  9 11  1  0
 11 12  1  0
 12 13  1  0
 13 14  1  0
 14 15  1  0
 15 16  1  0
 16 17  1  0
 17 18  1  0
  2 19  1  0
 19 20  2  0
 20 21  1  0
 21 22  2  0
 22 23  1  0
 23 24  2  0
 24 25  1  0
 25 26  2  0
 26 27  1  0
 27 28  2  0
 12  7  1  0
 18 13  1  0
 28 19  1  0
 27 22  1  0
  3 29  1  0
  4 30  1  0
  4 31  1  0
  8 32  1  0
  8 33  1  0
  9 34  1  1
 10 35  1  0
 11 36  1  0
 11 37  1  0
 12 38  1  6
 13 39  1  0
 14 40  1  0
 14 41  1  0
 15 42  1  0
 15 43  1  0
 16 44  1  0
 16 45  1  0
 17 46  1  0
 17 47  1  0
 18 48  1  0
 18 49  1  0
 20 50  1  0
 21 51  1  0
 23 52  1  0
 24 53  1  0
 25 54  1  0
 26 55  1  0
M  END
>  <smiles>  (10) 
O=C(NCC(=O)N1C[C@H](O)C[C@H]1C1CCCCC1)c1ccc2ccccc2n1

>  <score_type>  (10) 
oracle

>  <origin>  (10) 
autodockgpu

>  <m_score__min__energy>  (10) 
-9.6799999999999997

>  <m_primary>  (10) 
energy

>  <rmsd>  (10) 
3.270583566804055

>  <m_score__min__rmsd>  (10) 
3.270583566804055

>  <meeko>  (10) 
{"free_energy": -8.62, "intermolecular_energy": -10.41, "internal_energy": -1.67, "cluster_size": 2, "cluster_id": 3, "rank_in_cluster": 1}

>  <energy>  (10) 
-9.41

>  <cluster_rmsd>  (10) 
0.47

>  <cluster>  (10) 
1

$$$$

     RDKit          3D

 55 58  0  0  0  0  0  0  0  0999 V2000
  135.8010   77.2220  223.1610 O   0  0  0  0  0  0  0  0  0  0  0  0
  136.1960   76.0410  223.3730 C   0  0  0  0  0  0  0  0  0  0  0  0
  137.3610   75.4940  222.7630 N   0  0  0  0  0  0  0  0  0  0  0  0
  138.1770   76.3120  221.8320 C   0  0  0  0  0  0  0  0  0  0  0  0
  139.5700   75.8660  221.8880 C   0  0  0  0  0  0  0  0  0  0  0  0
  139.7240   74.6510  222.3310 O   0  0  0  0  0  0  0  0  0  0  0  0
  140.7550   76.5130  221.5480 N   0  0  0  0  0  0  0  0  0  0  0  0
  141.8150   75.6710  220.8440 C   0  0  0  0  0  0  0  0  0  0  0  0
  142.2760   76.5630  219.7410 C   0  0  2  0  0  0  0  0  0  0  0  0
  143.6700   76.5450  219.6410 O   0  0  0  0  0  0  0  0  0  0  0  0
  141.7870   77.9500  220.1040 C   0  0  0  0  0  0  0  0  0  0  0  0
  141.3920   77.7640  221.5800 C   0  0  1  0  0  0  0  0  0  0  0  0
  140.6640   78.9510  222.0300 C   0  0  0  0  0  0  0  0  0  0  0  0
  140.3790   79.1180  223.4780 C   0  0  0  0  0  0  0  0  0  0  0  0
  141.7170   79.0090  224.1980 C   0  0  0  0  0  0  0  0  0  0  0  0
  142.5330   80.1990  223.8040 C   0  0  0  0  0  0  0  0  0  0  0  0
  142.6060   80.4910  222.3470 C   0  0  0  0  0  0  0  0  0  0  0  0
  141.3250   80.2550  221.5840 C   0  0  0  0  0  0  0  0  0  0  0  0
  135.4210   75.1920  224.2890 C   0  0  0  0  0  0  0  0  0  0  0  0
  134.6400   75.7540  225.2750 C   0  0  0  0  0  0  0  0  0  0  0  0
  133.8920   75.0140  226.1620 C   0  0  0  0  0  0  0  0  0  0  0  0
  133.9340   73.6450  226.0500 C   0  0  0  0  0  0  0  0  0  0  0  0
  133.1900   72.8980  226.9330 C   0  0  0  0  0  0  0  0  0  0  0  0
  133.2230   71.5140  226.8300 C   0  0  0  0  0  0  0  0  0  0  0  0
  134.0050   70.9490  225.8440 C   0  0  0  0  0  0  0  0  0  0  0  0
  134.7450   71.6960  224.9670 C   0  0  0  0  0  0  0  0  0  0  0  0
  134.7180   73.0910  225.0620 C   0  0  0  0  0  0  0  0  0  0  0  0
  135.4440   73.8490  224.2020 N   0  0  0  0  0  0  0  0  0  0  0  0
  137.6150   74.5120  222.9940 H   0  0  0  0  0  0  0  0  0  0  0  0
  137.7945   76.1937  220.8075 H   0  0  0  0  0  0  0  0  0  0  0  0
  138.1177   77.3709  222.1240 H   0  0  0  0  0  0  0  0  0  0  0  0
  142.6425   75.4263  221.5262 H   0  0  0  0  0  0  0  0  0  0  0  0
  141.4325   74.7034  220.4870 H   0  0  0  0  0  0  0  0  0  0  0  0
  141.8837   76.2359  218.7668 H   0  0  0  0  0  0  0  0  0  0  0  0
  144.0770   77.3520  220.0770 H   0  0  0  0  0  0  0  0  0  0  0  0
  142.5855   78.6985  219.9937 H   0  0  0  0  0  0  0  0  0  0  0  0
  140.9700   78.3172  219.4655 H   0  0  0  0  0  0  0  0  0  0  0  0
  142.1805   77.7174  222.3455 H   0  0  0  0  0  0  0  0  0  0  0  0
  139.7003   78.7493  221.5395 H   0  0  0  0  0  0  0  0  0  0  0  0
  139.9261   80.1028  223.6650 H   0  0  0  0  0  0  0  0  0  0  0  0
  139.6721   78.3544  223.8348 H   0  0  0  0  0  0  0  0  0  0  0  0
  141.5593   79.0046  225.2866 H   0  0  0  0  0  0  0  0  0  0  0  0
  142.2316   78.0762  223.9239 H   0  0  0  0  0  0  0  0  0  0  0  0
  142.1033   81.0806  224.3020 H   0  0  0  0  0  0  0  0  0  0  0  0
  143.5633   79.9642  224.1096 H   0  0  0  0  0  0  0  0  0  0  0  0
  142.8865   81.5475  222.2244 H   0  0  0  0  0  0  0  0  0  0  0  0
  143.3455   79.7915  221.9300 H   0  0  0  0  0  0  0  0  0  0  0  0
  140.6350   81.0915  221.7690 H   0  0  0  0  0  0  0  0  0  0  0  0
  141.5595   80.1843  220.5116 H   0  0  0  0  0  0  0  0  0  0  0  0
  134.6129   76.8506  225.3575 H   0  0  0  0  0  0  0  0  0  0  0  0
  133.2806   75.5023  226.9352 H   0  0  0  0  0  0  0  0  0  0  0  0
  132.5802   73.3880  227.7064 H   0  0  0  0  0  0  0  0  0  0  0  0
  132.6401   70.8835  227.5175 H   0  0  0  0  0  0  0  0  0  0  0  0
  134.0353   69.8527  225.7588 H   0  0  0  0  0  0  0  0  0  0  0  0
  135.3548   71.2036  224.1952 H   0  0  0  0  0  0  0  0  0  0  0  0
  1  2  2  0
  2  3  1  0
  3  4  1  0
  4  5  1  0
  5  6  2  0
  5  7  1  0
  7  8  1  0
  8  9  1  0
  9 10  1  0
  9 11  1  0
 11 12  1  0
 12 13  1  0
 13 14  1  0
 14 15  1  0
 15 16  1  0
 16 17  1  0
 17 18  1  0
  2 19  1  0
 19 20  2  0
 20 21  1  0
 21 22  2  0
 22 23  1  0
 23 24  2  0
 24 25  1  0
 25 26  2  0
 26 27  1  0
 27 28  2  0
 12  7  1  0
 18 13  1  0
 28 19  1  0
 27 22  1  0
  3 29  1  0
  4 30  1  0
  4 31  1  0
  8 32  1  0
  8 33  1  0
  9 34  1  6
 10 35  1  0
 11 36  1  0
 11 37  1  0
 12 38  1  1
 13 39  1  0
 14 40  1  0
 14 41  1  0
 15 42  1  0
 15 43  1  0
 16 44  1  0
 16 45  1  0
 17 46  1  0
 17 47  1  0
 18 48  1  0
 18 49  1  0
 20 50  1  0
 21 51  1  0
 23 52  1  0
 24 53  1  0
 25 54  1  0
 26 55  1  0
M  END
>  <smiles>  (11) 
O=C(NCC(=O)N1C[C@H](O)C[C@H]1C1CCCCC1)c1ccc2ccccc2n1

>  <score_type>  (11) 
oracle

>  <origin>  (11) 
autodockgpu

>  <m_score__min__energy>  (11) 
-9.6799999999999997

>  <m_primary>  (11) 
energy

>  <rmsd>  (11) 
5.5634518712267775

>  <m_score__min__rmsd>  (11) 
5.5634518712267775

>  <meeko>  (11) 
{"free_energy": -8.34, "intermolecular_energy": -10.13, "internal_energy": -2.12, "cluster_size": 14, "cluster_id": 4, "rank_in_cluster": 1}

>  <energy>  (11) 
-9.41

>  <cluster_rmsd>  (11) 
0.51

>  <cluster>  (11) 
1

$$$$

     RDKit          3D

 55 58  0  0  0  0  0  0  0  0999 V2000
  141.1870   71.7600  221.4580 O   0  0  0  0  0  0  0  0  0  0  0  0
  140.5220   72.2740  222.4010 C   0  0  0  0  0  0  0  0  0  0  0  0
  139.9990   73.5970  222.3470 N   0  0  0  0  0  0  0  0  0  0  0  0
  140.2210   74.4450  221.1500 C   0  0  0  0  0  0  0  0  0  0  0  0
  140.3350   75.8450  221.5620 C   0  0  0  0  0  0  0  0  0  0  0  0
  139.6070   76.1590  222.5950 O   0  0  0  0  0  0  0  0  0  0  0  0
  141.0880   76.8960  221.0440 N   0  0  0  0  0  0  0  0  0  0  0  0
  142.0350   76.5580  219.8970 C   0  0  0  0  0  0  0  0  0  0  0  0
  141.8060   77.6720  218.9320 C   0  0  2  0  0  0  0  0  0  0  0  0
  143.0200   78.1490  218.4310 O   0  0  0  0  0  0  0  0  0  0  0  0
  141.0930   78.7550  219.7170 C   0  0  0  0  0  0  0  0  0  0  0  0
  141.3050   78.2790  221.1650 C   0  0  1  0  0  0  0  0  0  0  0  0
  140.4660   79.0820  222.0560 C   0  0  0  0  0  0  0  0  0  0  0  0
  140.6820   78.9970  223.5220 C   0  0  0  0  0  0  0  0  0  0  0  0
  142.1560   79.3010  223.7610 C   0  0  0  0  0  0  0  0  0  0  0  0
  142.3800   80.7350  223.3990 C   0  0  0  0  0  0  0  0  0  0  0  0
  141.8350   81.1720  222.0850 C   0  0  0  0  0  0  0  0  0  0  0  0
  140.5000   80.5720  221.7160 C   0  0  0  0  0  0  0  0  0  0  0  0
  140.2760   71.4730  223.6090 C   0  0  0  0  0  0  0  0  0  0  0  0
  139.6200   70.2650  223.5270 C   0  0  0  0  0  0  0  0  0  0  0  0
  139.3590   69.4690  224.6190 C   0  0  0  0  0  0  0  0  0  0  0  0
  139.7800   69.9120  225.8500 C   0  0  0  0  0  0  0  0  0  0  0  0
  139.5240   69.1230  226.9470 C   0  0  0  0  0  0  0  0  0  0  0  0
  139.9440   69.5600  228.1970 C   0  0  0  0  0  0  0  0  0  0  0  0
  140.6010   70.7700  228.2810 C   0  0  0  0  0  0  0  0  0  0  0  0
  140.8540   71.5530  227.1860 C   0  0  0  0  0  0  0  0  0  0  0  0
  140.4350   71.1220  225.9230 C   0  0  0  0  0  0  0  0  0  0  0  0
  140.6770   71.8830  224.8270 N   0  0  0  0  0  0  0  0  0  0  0  0
  139.4620   73.9410  223.1690 H   0  0  0  0  0  0  0  0  0  0  0  0
  141.1480   74.1338  220.6462 H   0  0  0  0  0  0  0  0  0  0  0  0
  139.3738   74.3330  220.4574 H   0  0  0  0  0  0  0  0  0  0  0  0
  143.0802   76.5405  220.2396 H   0  0  0  0  0  0  0  0  0  0  0  0
  141.8516   75.5642  219.4626 H   0  0  0  0  0  0  0  0  0  0  0  0
  141.2135   77.3403  218.0666 H   0  0  0  0  0  0  0  0  0  0  0  0
  143.7850   77.9050  219.0340 H   0  0  0  0  0  0  0  0  0  0  0  0
  141.5507   79.7408  219.5476 H   0  0  0  0  0  0  0  0  0  0  0  0
  140.0367   78.8866  219.4396 H   0  0  0  0  0  0  0  0  0  0  0  0
  142.2869   78.4224  221.6397 H   0  0  0  0  0  0  0  0  0  0  0  0
  139.4984   78.6003  221.8515 H   0  0  0  0  0  0  0  0  0  0  0  0
  140.0528   79.7343  224.0421 H   0  0  0  0  0  0  0  0  0  0  0  0
  140.4139   78.0018  223.9064 H   0  0  0  0  0  0  0  0  0  0  0  0
  142.4073   79.1364  224.8192 H   0  0  0  0  0  0  0  0  0  0  0  0
  142.7927   78.6421  223.1523 H   0  0  0  0  0  0  0  0  0  0  0  0
  141.9141   81.3551  224.1790 H   0  0  0  0  0  0  0  0  0  0  0  0
  143.4708   80.8526  223.3200 H   0  0  0  0  0  0  0  0  0  0  0  0
  141.7223   82.2659  222.1092 H   0  0  0  0  0  0  0  0  0  0  0  0
  142.5493   80.8229  221.3248 H   0  0  0  0  0  0  0  0  0  0  0  0
  139.7052   81.0882  222.2744 H   0  0  0  0  0  0  0  0  0  0  0  0
  140.3449   80.6919  220.6336 H   0  0  0  0  0  0  0  0  0  0  0  0
  139.2874   69.9183  222.5375 H   0  0  0  0  0  0  0  0  0  0  0  0
  138.8310   68.5102  224.5101 H   0  0  0  0  0  0  0  0  0  0  0  0
  138.9966   68.1640  226.8367 H   0  0  0  0  0  0  0  0  0  0  0  0
  139.7573   68.9562  229.0973 H   0  0  0  0  0  0  0  0  0  0  0  0
  140.9356   71.1207  229.2684 H   0  0  0  0  0  0  0  0  0  0  0  0
  141.3816   72.5116  227.2988 H   0  0  0  0  0  0  0  0  0  0  0  0
  1  2  2  0
  2  3  1  0
  3  4  1  0
  4  5  1  0
  5  6  2  0
  5  7  1  0
  7  8  1  0
  8  9  1  0
  9 10  1  0
  9 11  1  0
 11 12  1  0
 12 13  1  0
 13 14  1  0
 14 15  1  0
 15 16  1  0
 16 17  1  0
 17 18  1  0
  2 19  1  0
 19 20  2  0
 20 21  1  0
 21 22  2  0
 22 23  1  0
 23 24  2  0
 24 25  1  0
 25 26  2  0
 26 27  1  0
 27 28  2  0
 12  7  1  0
 18 13  1  0
 28 19  1  0
 27 22  1  0
  3 29  1  0
  4 30  1  0
  4 31  1  0
  8 32  1  0
  8 33  1  0
  9 34  1  6
 10 35  1  0
 11 36  1  0
 11 37  1  0
 12 38  1  1
 13 39  1  0
 14 40  1  0
 14 41  1  0
 15 42  1  0
 15 43  1  0
 16 44  1  0
 16 45  1  0
 17 46  1  0
 17 47  1  0
 18 48  1  0
 18 49  1  0
 20 50  1  0
 21 51  1  0
 23 52  1  0
 24 53  1  0
 25 54  1  0
 26 55  1  0
M  END
>  <smiles>  (12) 
O=C(NCC(=O)N1C[C@H](O)C[C@H]1C1CCCCC1)c1ccc2ccccc2n1

>  <score_type>  (12) 
oracle

>  <origin>  (12) 
autodockgpu

>  <m_score__min__energy>  (12) 
-9.6799999999999997

>  <m_primary>  (12) 
energy

>  <rmsd>  (12) 
2.0447794779848265

>  <m_score__min__rmsd>  (12) 
2.0447794779848265

>  <meeko>  (12) 
{"free_energy": -9.32, "intermolecular_energy": -11.11, "internal_energy": -1.82, "cluster_size": 32, "cluster_id": 1, "rank_in_cluster": 22}

>  <energy>  (12) 
-9.4

>  <cluster_rmsd>  (12) 
0.49

>  <cluster>  (12) 
1

$$$$

     RDKit          3D

 55 58  0  0  0  0  0  0  0  0999 V2000
  141.2840   71.6040  221.5260 O   0  0  0  0  0  0  0  0  0  0  0  0
  140.5850   72.1370  222.4330 C   0  0  0  0  0  0  0  0  0  0  0  0
  140.0990   73.4740  222.3490 N   0  0  0  0  0  0  0  0  0  0  0  0
  140.4040   74.3110  221.1630 C   0  0  0  0  0  0  0  0  0  0  0  0
  140.5130   75.7120  221.5740 C   0  0  0  0  0  0  0  0  0  0  0  0
  139.8470   76.0050  222.6540 O   0  0  0  0  0  0  0  0  0  0  0  0
  141.2060   76.7820  221.0130 N   0  0  0  0  0  0  0  0  0  0  0  0
  142.0850   76.4700  219.8060 C   0  0  0  0  0  0  0  0  0  0  0  0
  141.7690   77.5810  218.8630 C   0  0  2  0  0  0  0  0  0  0  0  0
  142.9370   78.0880  218.2870 O   0  0  0  0  0  0  0  0  0  0  0  0
  141.0830   78.6440  219.6970 C   0  0  0  0  0  0  0  0  0  0  0  0
  141.3980   78.1690  221.1260 C   0  0  1  0  0  0  0  0  0  0  0  0
  140.6000   78.9490  222.0730 C   0  0  0  0  0  0  0  0  0  0  0  0
  141.0120   78.9970  223.4980 C   0  0  0  0  0  0  0  0  0  0  0  0
  142.4630   79.4620  223.5150 C   0  0  0  0  0  0  0  0  0  0  0  0
  142.4810   80.8800  223.0380 C   0  0  0  0  0  0  0  0  0  0  0  0
  141.7270   81.1610  221.7870 C   0  0  0  0  0  0  0  0  0  0  0  0
  140.4280   80.4060  221.6410 C   0  0  0  0  0  0  0  0  0  0  0  0
  140.2570   71.3470  223.6280 C   0  0  0  0  0  0  0  0  0  0  0  0
  139.5450   70.1730  223.5190 C   0  0  0  0  0  0  0  0  0  0  0  0
  139.2080   69.3890  224.5980 C   0  0  0  0  0  0  0  0  0  0  0  0
  139.6060   69.8090  225.8450 C   0  0  0  0  0  0  0  0  0  0  0  0
  139.2730   69.0310  226.9290 C   0  0  0  0  0  0  0  0  0  0  0  0
  139.6700   69.4440  228.1940 C   0  0  0  0  0  0  0  0  0  0  0  0
  140.3820   70.6200  228.3060 C   0  0  0  0  0  0  0  0  0  0  0  0
  140.7120   71.3920  227.2230 C   0  0  0  0  0  0  0  0  0  0  0  0
  140.3180   70.9840  225.9450 C   0  0  0  0  0  0  0  0  0  0  0  0
  140.6350   71.7350  224.8600 N   0  0  0  0  0  0  0  0  0  0  0  0
  139.5300   73.8340  223.1410 H   0  0  0  0  0  0  0  0  0  0  0  0
  141.3550   73.9839  220.7172 H   0  0  0  0  0  0  0  0  0  0  0  0
  139.5984   74.2064  220.4214 H   0  0  0  0  0  0  0  0  0  0  0  0
  143.1501   76.4759  220.0808 H   0  0  0  0  0  0  0  0  0  0  0  0
  141.8971   75.4736  219.3796 H   0  0  0  0  0  0  0  0  0  0  0  0
  141.1302   77.2383  218.0356 H   0  0  0  0  0  0  0  0  0  0  0  0
  143.6810   78.1400  218.9590 H   0  0  0  0  0  0  0  0  0  0  0  0
  141.5059   79.6408  219.5032 H   0  0  0  0  0  0  0  0  0  0  0  0
  140.0083   78.7513  219.4884 H   0  0  0  0  0  0  0  0  0  0  0  0
  142.4047   78.3344  221.5373 H   0  0  0  0  0  0  0  0  0  0  0  0
  139.6726   78.3588  222.0330 H   0  0  0  0  0  0  0  0  0  0  0  0
  140.3795   79.7059  224.0525 H   0  0  0  0  0  0  0  0  0  0  0  0
  140.9050   78.0120  223.9758 H   0  0  0  0  0  0  0  0  0  0  0  0
  142.8652   79.4035  224.5372 H   0  0  0  0  0  0  0  0  0  0  0  0
  143.0838   78.8252  222.8676 H   0  0  0  0  0  0  0  0  0  0  0  0
  142.0553   81.5077  223.8347 H   0  0  0  0  0  0  0  0  0  0  0  0
  143.5332   81.0986  222.8033 H   0  0  0  0  0  0  0  0  0  0  0  0
  141.5010   82.2372  221.7594 H   0  0  0  0  0  0  0  0  0  0  0  0
  142.3704   80.8281  220.9593 H   0  0  0  0  0  0  0  0  0  0  0  0
  139.6610   80.8813  222.2702 H   0  0  0  0  0  0  0  0  0  0  0  0
  140.1218   80.4286  220.5847 H   0  0  0  0  0  0  0  0  0  0  0  0
  139.2295   69.8454  222.5174 H   0  0  0  0  0  0  0  0  0  0  0  0
  138.6388   68.4568  224.4673 H   0  0  0  0  0  0  0  0  0  0  0  0
  138.7031   68.0995  226.7966 H   0  0  0  0  0  0  0  0  0  0  0  0
  139.4227   68.8479  229.0848 H   0  0  0  0  0  0  0  0  0  0  0  0
  140.6980   70.9519  229.3060 H   0  0  0  0  0  0  0  0  0  0  0  0
  141.2813   72.3235  227.3578 H   0  0  0  0  0  0  0  0  0  0  0  0
  1  2  2  0
  2  3  1  0
  3  4  1  0
  4  5  1  0
  5  6  2  0
  5  7  1  0
  7  8  1  0
  8  9  1  0
  9 10  1  0
  9 11  1  0
 11 12  1  0
 12 13  1  0
 13 14  1  0
 14 15  1  0
 15 16  1  0
 16 17  1  0
 17 18  1  0
  2 19  1  0
 19 20  2  0
 20 21  1  0
 21 22  2  0
 22 23  1  0
 23 24  2  0
 24 25  1  0
 25 26  2  0
 26 27  1  0
 27 28  2  0
 12  7  1  0
 18 13  1  0
 28 19  1  0
 27 22  1  0
  3 29  1  0
  4 30  1  0
  4 31  1  0
  8 32  1  0
  8 33  1  0
  9 34  1  6
 10 35  1  0
 11 36  1  0
 11 37  1  0
 12 38  1  1
 13 39  1  0
 14 40  1  0
 14 41  1  0
 15 42  1  0
 15 43  1  0
 16 44  1  0
 16 45  1  0
 17 46  1  0
 17 47  1  0
 18 48  1  0
 18 49  1  0
 20 50  1  0
 21 51  1  0
 23 52  1  0
 24 53  1  0
 25 54  1  0
 26 55  1  0
M  END
>  <smiles>  (13) 
O=C(NCC(=O)N1C[C@H](O)C[C@H]1C1CCCCC1)c1ccc2ccccc2n1

>  <score_type>  (13) 
oracle

>  <origin>  (13) 
autodockgpu

>  <m_score__min__energy>  (13) 
-9.6799999999999997

>  <m_primary>  (13) 
energy

>  <rmsd>  (13) 
2.0279554194590896

>  <m_score__min__rmsd>  (13) 
2.0279554194590896

>  <meeko>  (13) 
{"free_energy": -9.21, "intermolecular_energy": -11.0, "internal_energy": -1.85, "cluster_size": 32, "cluster_id": 1, "rank_in_cluster": 25}

>  <energy>  (13) 
-9.4

>  <cluster_rmsd>  (13) 
0.49

>  <cluster>  (13) 
1

$$$$

     RDKit          3D

 55 58  0  0  0  0  0  0  0  0999 V2000
  140.9700   71.4920  221.4090 O   0  0  0  0  0  0  0  0  0  0  0  0
  140.4110   72.0380  222.4020 C   0  0  0  0  0  0  0  0  0  0  0  0
  139.9660   73.3910  222.3890 N   0  0  0  0  0  0  0  0  0  0  0  0
  140.1440   74.2310  221.1800 C   0  0  0  0  0  0  0  0  0  0  0  0
  140.4200   75.6100  221.5850 C   0  0  0  0  0  0  0  0  0  0  0  0
  139.8140   75.9780  222.6770 O   0  0  0  0  0  0  0  0  0  0  0  0
  141.2180   76.5950  221.0070 N   0  0  0  0  0  0  0  0  0  0  0  0
  142.2280   76.1300  219.9620 C   0  0  0  0  0  0  0  0  0  0  0  0
  142.0740   77.1370  218.8730 C   0  0  2  0  0  0  0  0  0  0  0  0
  143.3230   77.5490  218.4010 O   0  0  0  0  0  0  0  0  0  0  0  0
  141.3300   78.3020  219.4940 C   0  0  0  0  0  0  0  0  0  0  0  0
  141.4470   77.9810  220.9950 C   0  0  1  0  0  0  0  0  0  0  0  0
  140.5670   78.8800  221.7430 C   0  0  0  0  0  0  0  0  0  0  0  0
  140.4680   78.7320  223.2170 C   0  0  0  0  0  0  0  0  0  0  0  0
  141.8900   78.8060  223.7580 C   0  0  0  0  0  0  0  0  0  0  0  0
  142.3840   80.1980  223.5210 C   0  0  0  0  0  0  0  0  0  0  0  0
  142.1850   80.7410  222.1500 C   0  0  0  0  0  0  0  0  0  0  0  0
  140.8810   80.3560  221.4940 C   0  0  0  0  0  0  0  0  0  0  0  0
  140.2120   71.2460  223.6230 C   0  0  0  0  0  0  0  0  0  0  0  0
  139.5850   70.0210  223.5700 C   0  0  0  0  0  0  0  0  0  0  0  0
  139.3690   69.2320  224.6770 C   0  0  0  0  0  0  0  0  0  0  0  0
  139.8050   69.7010  225.8930 C   0  0  0  0  0  0  0  0  0  0  0  0
  139.5920   68.9190  227.0040 C   0  0  0  0  0  0  0  0  0  0  0  0
  140.0280   69.3820  228.2390 C   0  0  0  0  0  0  0  0  0  0  0  0
  140.6550   70.6090  228.2950 C   0  0  0  0  0  0  0  0  0  0  0  0
  140.8650   71.3850  227.1860 C   0  0  0  0  0  0  0  0  0  0  0  0
  140.4300   70.9280  225.9380 C   0  0  0  0  0  0  0  0  0  0  0  0
  140.6290   71.6820  224.8270 N   0  0  0  0  0  0  0  0  0  0  0  0
  139.5150   73.7610  223.2510 H   0  0  0  0  0  0  0  0  0  0  0  0
  140.9867   73.8468  220.5865 H   0  0  0  0  0  0  0  0  0  0  0  0
  139.2271   74.2019  220.5730 H   0  0  0  0  0  0  0  0  0  0  0  0
  143.2502   76.1406  220.3683 H   0  0  0  0  0  0  0  0  0  0  0  0
  142.0568   75.0973  219.6240 H   0  0  0  0  0  0  0  0  0  0  0  0
  141.5308   76.7203  218.0120 H   0  0  0  0  0  0  0  0  0  0  0  0
  143.9120   77.8610  219.1510 H   0  0  0  0  0  0  0  0  0  0  0  0
  141.8108   79.2609  219.2501 H   0  0  0  0  0  0  0  0  0  0  0  0
  140.2944   78.4109  219.1396 H   0  0  0  0  0  0  0  0  0  0  0  0
  142.4002   78.1668  221.5116 H   0  0  0  0  0  0  0  0  0  0  0  0
  139.6026   78.5526  221.3273 H   0  0  0  0  0  0  0  0  0  0  0  0
  139.8582   79.5440  223.6399 H   0  0  0  0  0  0  0  0  0  0  0  0
  139.9890   77.7798  223.4889 H   0  0  0  0  0  0  0  0  0  0  0  0
  141.8951   78.5830  224.8351 H   0  0  0  0  0  0  0  0  0  0  0  0
  142.5368   78.0722  223.2549 H   0  0  0  0  0  0  0  0  0  0  0  0
  141.8625   80.8636  224.2246 H   0  0  0  0  0  0  0  0  0  0  0  0
  143.4737   80.1521  223.6643 H   0  0  0  0  0  0  0  0  0  0  0  0
  142.2265   81.8387  222.2084 H   0  0  0  0  0  0  0  0  0  0  0  0
  142.9817   80.3061  221.5286 H   0  0  0  0  0  0  0  0  0  0  0  0
  140.0711   80.9729  221.9105 H   0  0  0  0  0  0  0  0  0  0  0  0
  140.9674   80.5217  220.4100 H   0  0  0  0  0  0  0  0  0  0  0  0
  139.2389   69.6541  222.5925 H   0  0  0  0  0  0  0  0  0  0  0  0
  138.8642   68.2584  224.5912 H   0  0  0  0  0  0  0  0  0  0  0  0
  139.0863   67.9460  226.9164 H   0  0  0  0  0  0  0  0  0  0  0  0
  139.8768   68.7845  229.1501 H   0  0  0  0  0  0  0  0  0  0  0  0
  141.0009   70.9800  229.2711 H   0  0  0  0  0  0  0  0  0  0  0  0
  141.3707   72.3577  227.2761 H   0  0  0  0  0  0  0  0  0  0  0  0
  1  2  2  0
  2  3  1  0
  3  4  1  0
  4  5  1  0
  5  6  2  0
  5  7  1  0
  7  8  1  0
  8  9  1  0
  9 10  1  0
  9 11  1  0
 11 12  1  0
 12 13  1  0
 13 14  1  0
 14 15  1  0
 15 16  1  0
 16 17  1  0
 17 18  1  0
  2 19  1  0
 19 20  2  0
 20 21  1  0
 21 22  2  0
 22 23  1  0
 23 24  2  0
 24 25  1  0
 25 26  2  0
 26 27  1  0
 27 28  2  0
 12  7  1  0
 18 13  1  0
 28 19  1  0
 27 22  1  0
  3 29  1  0
  4 30  1  0
  4 31  1  0
  8 32  1  0
  8 33  1  0
  9 34  1  6
 10 35  1  0
 11 36  1  0
 11 37  1  0
 12 38  1  1
 13 39  1  0
 14 40  1  0
 14 41  1  0
 15 42  1  0
 15 43  1  0
 16 44  1  0
 16 45  1  0
 17 46  1  0
 17 47  1  0
 18 48  1  0
 18 49  1  0
 20 50  1  0
 21 51  1  0
 23 52  1  0
 24 53  1  0
 25 54  1  0
 26 55  1  0
M  END
>  <smiles>  (14) 
O=C(NCC(=O)N1C[C@H](O)C[C@H]1C1CCCCC1)c1ccc2ccccc2n1

>  <score_type>  (14) 
oracle

>  <origin>  (14) 
autodockgpu

>  <m_score__min__energy>  (14) 
-9.6799999999999997

>  <m_primary>  (14) 
energy

>  <rmsd>  (14) 
1.9038761925901722

>  <m_score__min__rmsd>  (14) 
1.9038761925901722

>  <meeko>  (14) 
{"free_energy": -9.41, "intermolecular_energy": -11.2, "internal_energy": -1.81, "cluster_size": 32, "cluster_id": 1, "rank_in_cluster": 11}

>  <energy>  (14) 
-9.4

>  <cluster_rmsd>  (14) 
0.51

>  <cluster>  (14) 
1

$$$$

     RDKit          3D

 55 58  0  0  0  0  0  0  0  0999 V2000
  140.7810   71.4590  221.4110 O   0  0  0  0  0  0  0  0  0  0  0  0
  140.3140   72.0200  222.4420 C   0  0  0  0  0  0  0  0  0  0  0  0
  139.9260   73.3900  222.4680 N   0  0  0  0  0  0  0  0  0  0  0  0
  140.0590   74.2330  221.2550 C   0  0  0  0  0  0  0  0  0  0  0  0
  140.3320   75.6150  221.6520 C   0  0  0  0  0  0  0  0  0  0  0  0
  139.6830   76.0040  222.7120 O   0  0  0  0  0  0  0  0  0  0  0  0
  141.1670   76.5820  221.0970 N   0  0  0  0  0  0  0  0  0  0  0  0
  142.1880   76.0970  220.0720 C   0  0  0  0  0  0  0  0  0  0  0  0
  142.0820   77.1130  218.9850 C   0  0  2  0  0  0  0  0  0  0  0  0
  143.3510   77.4970  218.5420 O   0  0  0  0  0  0  0  0  0  0  0  0
  141.3530   78.2930  219.5950 C   0  0  0  0  0  0  0  0  0  0  0  0
  141.4290   77.9620  221.0960 C   0  0  1  0  0  0  0  0  0  0  0  0
  140.5540   78.8790  221.8300 C   0  0  0  0  0  0  0  0  0  0  0  0
  140.4560   78.7580  223.3060 C   0  0  0  0  0  0  0  0  0  0  0  0
  141.8800   78.8350  223.8430 C   0  0  0  0  0  0  0  0  0  0  0  0
  142.3800   80.2200  223.5810 C   0  0  0  0  0  0  0  0  0  0  0  0
  142.1810   80.7390  222.2000 C   0  0  0  0  0  0  0  0  0  0  0  0
  140.8750   80.3480  221.5540 C   0  0  0  0  0  0  0  0  0  0  0  0
  140.1630   71.2250  223.6700 C   0  0  0  0  0  0  0  0  0  0  0  0
  139.5850   69.9760  223.6300 C   0  0  0  0  0  0  0  0  0  0  0  0
  139.4150   69.1840  224.7430 C   0  0  0  0  0  0  0  0  0  0  0  0
  139.8490   69.6760  225.9510 C   0  0  0  0  0  0  0  0  0  0  0  0
  139.6830   68.8910  227.0680 C   0  0  0  0  0  0  0  0  0  0  0  0
  140.1160   69.3760  228.2950 C   0  0  0  0  0  0  0  0  0  0  0  0
  140.6950   70.6280  228.3370 C   0  0  0  0  0  0  0  0  0  0  0  0
  140.8580   71.4060  227.2220 C   0  0  0  0  0  0  0  0  0  0  0  0
  140.4250   70.9270  225.9820 C   0  0  0  0  0  0  0  0  0  0  0  0
  140.5780   71.6830  224.8660 N   0  0  0  0  0  0  0  0  0  0  0  0
  139.5500   73.7710  223.3600 H   0  0  0  0  0  0  0  0  0  0  0  0
  140.8878   73.8581  220.6365 H   0  0  0  0  0  0  0  0  0  0  0  0
  139.1245   74.1944  220.6760 H   0  0  0  0  0  0  0  0  0  0  0  0
  143.2010   76.0808  220.5004 H   0  0  0  0  0  0  0  0  0  0  0  0
  141.9995   75.0703  219.7252 H   0  0  0  0  0  0  0  0  0  0  0  0
  141.5476   76.7132  218.1106 H   0  0  0  0  0  0  0  0  0  0  0  0
  143.9020   77.8690  219.2940 H   0  0  0  0  0  0  0  0  0  0  0  0
  141.8623   79.2409  219.3668 H   0  0  0  0  0  0  0  0  0  0  0  0
  140.3285   78.4292  219.2183 H   0  0  0  0  0  0  0  0  0  0  0  0
  142.3752   78.1224  221.6336 H   0  0  0  0  0  0  0  0  0  0  0  0
  139.5873   78.5487  221.4221 H   0  0  0  0  0  0  0  0  0  0  0  0
  139.8508   79.5804  223.7152 H   0  0  0  0  0  0  0  0  0  0  0  0
  139.9725   77.8135  223.5960 H   0  0  0  0  0  0  0  0  0  0  0  0
  141.8862   78.6308  224.9239 H   0  0  0  0  0  0  0  0  0  0  0  0
  142.5224   78.0896  223.3513 H   0  0  0  0  0  0  0  0  0  0  0  0
  141.8626   80.9004  224.2733 H   0  0  0  0  0  0  0  0  0  0  0  0
  143.4696   80.1722  223.7240 H   0  0  0  0  0  0  0  0  0  0  0  0
  142.2274   81.8374  222.2382 H   0  0  0  0  0  0  0  0  0  0  0  0
  142.9748   80.2895  221.5853 H   0  0  0  0  0  0  0  0  0  0  0  0
  140.0688   80.9763  221.9605 H   0  0  0  0  0  0  0  0  0  0  0  0
  140.9608   80.4930  220.4670 H   0  0  0  0  0  0  0  0  0  0  0  0
  139.2413   69.5911  222.6585 H   0  0  0  0  0  0  0  0  0  0  0  0
  138.9477   68.1910  224.6683 H   0  0  0  0  0  0  0  0  0  0  0  0
  139.2162   67.8980  226.9909 H   0  0  0  0  0  0  0  0  0  0  0  0
  140.0004   68.7773  229.2105 H   0  0  0  0  0  0  0  0  0  0  0  0
  141.0399   71.0171  229.3064 H   0  0  0  0  0  0  0  0  0  0  0  0
  141.3253   72.3987  227.3012 H   0  0  0  0  0  0  0  0  0  0  0  0
  1  2  2  0
  2  3  1  0
  3  4  1  0
  4  5  1  0
  5  6  2  0
  5  7  1  0
  7  8  1  0
  8  9  1  0
  9 10  1  0
  9 11  1  0
 11 12  1  0
 12 13  1  0
 13 14  1  0
 14 15  1  0
 15 16  1  0
 16 17  1  0
 17 18  1  0
  2 19  1  0
 19 20  2  0
 20 21  1  0
 21 22  2  0
 22 23  1  0
 23 24  2  0
 24 25  1  0
 25 26  2  0
 26 27  1  0
 27 28  2  0
 12  7  1  0
 18 13  1  0
 28 19  1  0
 27 22  1  0
  3 29  1  0
  4 30  1  0
  4 31  1  0
  8 32  1  0
  8 33  1  0
  9 34  1  6
 10 35  1  0
 11 36  1  0
 11 37  1  0
 12 38  1  1
 13 39  1  0
 14 40  1  0
 14 41  1  0
 15 42  1  0
 15 43  1  0
 16 44  1  0
 16 45  1  0
 17 46  1  0
 17 47  1  0
 18 48  1  0
 18 49  1  0
 20 50  1  0
 21 51  1  0
 23 52  1  0
 24 53  1  0
 25 54  1  0
 26 55  1  0
M  END
>  <smiles>  (15) 
O=C(NCC(=O)N1C[C@H](O)C[C@H]1C1CCCCC1)c1ccc2ccccc2n1

>  <score_type>  (15) 
oracle

>  <origin>  (15) 
autodockgpu

>  <m_score__min__energy>  (15) 
-9.6799999999999997

>  <m_primary>  (15) 
energy

>  <rmsd>  (15) 
1.899460511066468

>  <m_score__min__rmsd>  (15) 
1.899460511066468

>  <meeko>  (15) 
{"free_energy": -9.4, "intermolecular_energy": -11.19, "internal_energy": -1.82, "cluster_size": 32, "cluster_id": 1, "rank_in_cluster": 12}

>  <energy>  (15) 
-9.39

>  <cluster_rmsd>  (15) 
0.51

>  <cluster>  (15) 
1

$$$$

     RDKit          3D

 55 58  0  0  0  0  0  0  0  0999 V2000
  135.7820   77.3080  223.2730 O   0  0  0  0  0  0  0  0  0  0  0  0
  136.1880   76.1290  223.4750 C   0  0  0  0  0  0  0  0  0  0  0  0
  137.3690   75.6050  222.8760 N   0  0  0  0  0  0  0  0  0  0  0  0
  138.1890   76.4450  221.9680 C   0  0  0  0  0  0  0  0  0  0  0  0
  139.5620   75.9380  221.9470 C   0  0  0  0  0  0  0  0  0  0  0  0
  139.6820   74.7060  222.3490 O   0  0  0  0  0  0  0  0  0  0  0  0
  140.7580   76.5440  221.5690 N   0  0  0  0  0  0  0  0  0  0  0  0
  141.7910   75.6500  220.8900 C   0  0  0  0  0  0  0  0  0  0  0  0
  142.2600   76.4850  219.7470 C   0  0  2  0  0  0  0  0  0  0  0  0
  143.6520   76.4310  219.6340 O   0  0  0  0  0  0  0  0  0  0  0  0
  141.8070   77.8970  220.0580 C   0  0  0  0  0  0  0  0  0  0  0  0
  141.4230   77.7810  221.5440 C   0  0  1  0  0  0  0  0  0  0  0  0
  140.7260   79.0010  221.9520 C   0  0  0  0  0  0  0  0  0  0  0  0
  140.3600   79.1810  223.3800 C   0  0  0  0  0  0  0  0  0  0  0  0
  141.6440   79.0070  224.1820 C   0  0  0  0  0  0  0  0  0  0  0  0
  142.5400   80.1560  223.8430 C   0  0  0  0  0  0  0  0  0  0  0  0
  142.7170   80.4450  222.3940 C   0  0  0  0  0  0  0  0  0  0  0  0
  141.4770   80.2720  221.5530 C   0  0  0  0  0  0  0  0  0  0  0  0
  135.4090   75.2580  224.3670 C   0  0  0  0  0  0  0  0  0  0  0  0
  134.6040   75.7960  225.3450 C   0  0  0  0  0  0  0  0  0  0  0  0
  133.8510   75.0360  226.2110 C   0  0  0  0  0  0  0  0  0  0  0  0
  133.9150   73.6690  226.0830 C   0  0  0  0  0  0  0  0  0  0  0  0
  133.1660   72.9010  226.9440 C   0  0  0  0  0  0  0  0  0  0  0  0
  133.2210   71.5180  226.8250 C   0  0  0  0  0  0  0  0  0  0  0  0
  134.0280   70.9770  225.8460 C   0  0  0  0  0  0  0  0  0  0  0  0
  134.7730   71.7450  224.9910 C   0  0  0  0  0  0  0  0  0  0  0  0
  134.7230   73.1380  225.1020 C   0  0  0  0  0  0  0  0  0  0  0  0
  135.4530   73.9160  224.2640 N   0  0  0  0  0  0  0  0  0  0  0  0
  137.6310   74.6230  223.0970 H   0  0  0  0  0  0  0  0  0  0  0  0
  137.7679   76.4072  220.9525 H   0  0  0  0  0  0  0  0  0  0  0  0
  138.1861   77.4852  222.3259 H   0  0  0  0  0  0  0  0  0  0  0  0
  142.6200   75.4145  221.5736 H   0  0  0  0  0  0  0  0  0  0  0  0
  141.3830   74.6776  220.5770 H   0  0  0  0  0  0  0  0  0  0  0  0
  141.8496   76.1274  218.7911 H   0  0  0  0  0  0  0  0  0  0  0  0
  144.0840   77.2270  220.0670 H   0  0  0  0  0  0  0  0  0  0  0  0
  142.6215   78.6213  219.9096 H   0  0  0  0  0  0  0  0  0  0  0  0
  140.9920   78.2569  219.4128 H   0  0  0  0  0  0  0  0  0  0  0  0
  142.2182   77.7486  222.3034 H   0  0  0  0  0  0  0  0  0  0  0  0
  139.7859   78.8465  221.4021 H   0  0  0  0  0  0  0  0  0  0  0  0
  139.9444   80.1865  223.5418 H   0  0  0  0  0  0  0  0  0  0  0  0
  139.5963   78.4522  223.6894 H   0  0  0  0  0  0  0  0  0  0  0  0
  141.4186   79.0104  225.2587 H   0  0  0  0  0  0  0  0  0  0  0  0
  142.1287   78.0502  223.9379 H   0  0  0  0  0  0  0  0  0  0  0  0
  142.1239   81.0574  224.3168 H   0  0  0  0  0  0  0  0  0  0  0  0
  143.5368   79.8708  224.2105 H   0  0  0  0  0  0  0  0  0  0  0  0
  143.0553   81.4868  222.2927 H   0  0  0  0  0  0  0  0  0  0  0  0
  143.4461   79.7106  222.0211 H   0  0  0  0  0  0  0  0  0  0  0  0
  140.8184   81.1411  221.6978 H   0  0  0  0  0  0  0  0  0  0  0  0
  141.7745   80.1902  220.4971 H   0  0  0  0  0  0  0  0  0  0  0  0
  134.5600   76.8910  225.4396 H   0  0  0  0  0  0  0  0  0  0  0  0
  133.2197   75.5065  226.9792 H   0  0  0  0  0  0  0  0  0  0  0  0
  132.5356   73.3729  227.7120 H   0  0  0  0  0  0  0  0  0  0  0  0
  132.6357   70.8707  227.4946 H   0  0  0  0  0  0  0  0  0  0  0  0
  134.0753   69.8824  225.7477 H   0  0  0  0  0  0  0  0  0  0  0  0
  135.4041   71.2709  224.2249 H   0  0  0  0  0  0  0  0  0  0  0  0
  1  2  2  0
  2  3  1  0
  3  4  1  0
  4  5  1  0
  5  6  2  0
  5  7  1  0
  7  8  1  0
  8  9  1  0
  9 10  1  0
  9 11  1  0
 11 12  1  0
 12 13  1  0
 13 14  1  0
 14 15  1  0
 15 16  1  0
 16 17  1  0
 17 18  1  0
  2 19  1  0
 19 20  2  0
 20 21  1  0
 21 22  2  0
 22 23  1  0
 23 24  2  0
 24 25  1  0
 25 26  2  0
 26 27  1  0
 27 28  2  0
 12  7  1  0
 18 13  1  0
 28 19  1  0
 27 22  1  0
  3 29  1  0
  4 30  1  0
  4 31  1  0
  8 32  1  0
  8 33  1  0
  9 34  1  6
 10 35  1  0
 11 36  1  0
 11 37  1  0
 12 38  1  1
 13 39  1  0
 14 40  1  0
 14 41  1  0
 15 42  1  0
 15 43  1  0
 16 44  1  0
 16 45  1  0
 17 46  1  0
 17 47  1  0
 18 48  1  0
 18 49  1  0
 20 50  1  0
 21 51  1  0
 23 52  1  0
 24 53  1  0
 25 54  1  0
 26 55  1  0
M  END
>  <smiles>  (16) 
O=C(NCC(=O)N1C[C@H](O)C[C@H]1C1CCCCC1)c1ccc2ccccc2n1

>  <score_type>  (16) 
oracle

>  <origin>  (16) 
autodockgpu

>  <m_score__min__energy>  (16) 
-9.6799999999999997

>  <m_primary>  (16) 
energy

>  <rmsd>  (16) 
5.595085177033743

>  <m_score__min__rmsd>  (16) 
5.595085177033743

>  <meeko>  (16) 
{"free_energy": -8.29, "intermolecular_energy": -10.08, "internal_energy": -2.15, "cluster_size": 14, "cluster_id": 4, "rank_in_cluster": 10}

>  <energy>  (16) 
-9.38

>  <cluster_rmsd>  (16) 
0.51

>  <cluster>  (16) 
1

$$$$

     RDKit          3D

 55 58  0  0  0  0  0  0  0  0999 V2000
  140.8370   71.5560  221.4130 O   0  0  0  0  0  0  0  0  0  0  0  0
  140.2970   72.1140  222.4090 C   0  0  0  0  0  0  0  0  0  0  0  0
  139.7880   73.4430  222.3680 N   0  0  0  0  0  0  0  0  0  0  0  0
  139.8730   74.2430  221.1220 C   0  0  0  0  0  0  0  0  0  0  0  0
  140.1040   75.6480  221.4640 C   0  0  0  0  0  0  0  0  0  0  0  0
  139.3290   76.1030  222.4070 O   0  0  0  0  0  0  0  0  0  0  0  0
  141.0080   76.5790  220.9580 N   0  0  0  0  0  0  0  0  0  0  0  0
  142.0210   76.0650  219.9400 C   0  0  0  0  0  0  0  0  0  0  0  0
  142.0020   77.1200  218.8850 C   0  0  2  0  0  0  0  0  0  0  0  0
  143.3020   77.4380  218.4820 O   0  0  0  0  0  0  0  0  0  0  0  0
  141.3330   78.3220  219.5190 C   0  0  0  0  0  0  0  0  0  0  0  0
  141.3540   77.9400  221.0090 C   0  0  1  0  0  0  0  0  0  0  0  0
  140.5210   78.8850  221.7540 C   0  0  0  0  0  0  0  0  0  0  0  0
  140.4080   78.7430  223.2280 C   0  0  0  0  0  0  0  0  0  0  0  0
  141.8300   78.7420  223.7730 C   0  0  0  0  0  0  0  0  0  0  0  0
  142.3990   80.1050  223.5380 C   0  0  0  0  0  0  0  0  0  0  0  0
  142.2340   80.6570  222.1660 C   0  0  0  0  0  0  0  0  0  0  0  0
  140.9140   80.3420  221.5060 C   0  0  0  0  0  0  0  0  0  0  0  0
  140.1900   71.3600  223.6660 C   0  0  0  0  0  0  0  0  0  0  0  0
  139.5940   70.1190  223.6920 C   0  0  0  0  0  0  0  0  0  0  0  0
  139.4630   69.3650  224.8360 C   0  0  0  0  0  0  0  0  0  0  0  0
  139.9550   69.8870  226.0070 C   0  0  0  0  0  0  0  0  0  0  0  0
  139.8280   69.1400  227.1550 C   0  0  0  0  0  0  0  0  0  0  0  0
  140.3210   69.6570  228.3460 C   0  0  0  0  0  0  0  0  0  0  0  0
  140.9180   70.9000  228.3230 C   0  0  0  0  0  0  0  0  0  0  0  0
  141.0420   71.6410  227.1780 C   0  0  0  0  0  0  0  0  0  0  0  0
  140.5490   71.1300  225.9740 C   0  0  0  0  0  0  0  0  0  0  0  0
  140.6630   71.8480  224.8290 N   0  0  0  0  0  0  0  0  0  0  0  0
  139.3580   73.8250  223.2350 H   0  0  0  0  0  0  0  0  0  0  0  0
  140.7048   73.8736  220.5042 H   0  0  0  0  0  0  0  0  0  0  0  0
  138.9322   74.1504  220.5596 H   0  0  0  0  0  0  0  0  0  0  0  0
  143.0209   75.9731  220.3891 H   0  0  0  0  0  0  0  0  0  0  0  0
  141.7788   75.0632  219.5555 H   0  0  0  0  0  0  0  0  0  0  0  0
  141.4642   76.7830  217.9865 H   0  0  0  0  0  0  0  0  0  0  0  0
  143.7110   78.1290  219.0830 H   0  0  0  0  0  0  0  0  0  0  0  0
  141.9043   79.2434  219.3331 H   0  0  0  0  0  0  0  0  0  0  0  0
  140.3274   78.5327  219.1259 H   0  0  0  0  0  0  0  0  0  0  0  0
  142.2952   78.0246  221.5719 H   0  0  0  0  0  0  0  0  0  0  0  0
  139.5422   78.6091  221.3347 H   0  0  0  0  0  0  0  0  0  0  0  0
  139.8405   79.5863  223.6485 H   0  0  0  0  0  0  0  0  0  0  0  0
  139.8777   77.8181  223.4989 H   0  0  0  0  0  0  0  0  0  0  0  0
  141.8198   78.5192  224.8502 H   0  0  0  0  0  0  0  0  0  0  0  0
  142.4382   77.9750  223.2711 H   0  0  0  0  0  0  0  0  0  0  0  0
  141.9116   80.7979  224.2396 H   0  0  0  0  0  0  0  0  0  0  0  0
  143.4841   80.0010  223.6855 H   0  0  0  0  0  0  0  0  0  0  0  0
  142.3340   81.7509  222.2241 H   0  0  0  0  0  0  0  0  0  0  0  0
  143.0084   80.1797  221.5476 H   0  0  0  0  0  0  0  0  0  0  0  0
  140.1367   81.0013  221.9198 H   0  0  0  0  0  0  0  0  0  0  0  0
  141.0127   80.5026  220.4223 H   0  0  0  0  0  0  0  0  0  0  0  0
  139.2022   69.7089  222.7495 H   0  0  0  0  0  0  0  0  0  0  0  0
  138.9801   68.3769  224.8130 H   0  0  0  0  0  0  0  0  0  0  0  0
  139.3452   68.1519  227.1302 H   0  0  0  0  0  0  0  0  0  0  0  0
  140.2374   69.0891  229.2844 H   0  0  0  0  0  0  0  0  0  0  0  0
  141.3109   71.3135  229.2635 H   0  0  0  0  0  0  0  0  0  0  0  0
  141.5250   72.6289  227.2055 H   0  0  0  0  0  0  0  0  0  0  0  0
  1  2  2  0
  2  3  1  0
  3  4  1  0
  4  5  1  0
  5  6  2  0
  5  7  1  0
  7  8  1  0
  8  9  1  0
  9 10  1  0
  9 11  1  0
 11 12  1  0
 12 13  1  0
 13 14  1  0
 14 15  1  0
 15 16  1  0
 16 17  1  0
 17 18  1  0
  2 19  1  0
 19 20  2  0
 20 21  1  0
 21 22  2  0
 22 23  1  0
 23 24  2  0
 24 25  1  0
 25 26  2  0
 26 27  1  0
 27 28  2  0
 12  7  1  0
 18 13  1  0
 28 19  1  0
 27 22  1  0
  3 29  1  0
  4 30  1  0
  4 31  1  0
  8 32  1  0
  8 33  1  0
  9 34  1  6
 10 35  1  0
 11 36  1  0
 11 37  1  0
 12 38  1  1
 13 39  1  0
 14 40  1  0
 14 41  1  0
 15 42  1  0
 15 43  1  0
 16 44  1  0
 16 45  1  0
 17 46  1  0
 17 47  1  0
 18 48  1  0
 18 49  1  0
 20 50  1  0
 21 51  1  0
 23 52  1  0
 24 53  1  0
 25 54  1  0
 26 55  1  0
M  END
>  <smiles>  (17) 
O=C(NCC(=O)N1C[C@H](O)C[C@H]1C1CCCCC1)c1ccc2ccccc2n1

>  <score_type>  (17) 
oracle

>  <origin>  (17) 
autodockgpu

>  <m_score__min__energy>  (17) 
-9.6799999999999997

>  <m_primary>  (17) 
energy

>  <rmsd>  (17) 
1.8472179363309633

>  <m_score__min__rmsd>  (17) 
1.8472179363309633

>  <meeko>  (17) 
{"free_energy": -9.37, "intermolecular_energy": -11.16, "internal_energy": -1.7, "cluster_size": 32, "cluster_id": 1, "rank_in_cluster": 21}

>  <energy>  (17) 
-9.38

>  <cluster_rmsd>  (17) 
0.52

>  <cluster>  (17) 
1

$$$$

     RDKit          3D

 55 58  0  0  0  0  0  0  0  0999 V2000
  135.6660   77.2100  223.3690 O   0  0  0  0  0  0  0  0  0  0  0  0
  136.1270   76.0440  223.5210 C   0  0  0  0  0  0  0  0  0  0  0  0
  137.3770   75.6300  222.9790 N   0  0  0  0  0  0  0  0  0  0  0  0
  138.2080   76.5780  222.1970 C   0  0  0  0  0  0  0  0  0  0  0  0
  139.5210   75.9800  221.9490 C   0  0  0  0  0  0  0  0  0  0  0  0
  139.5590   74.6890  222.1100 O   0  0  0  0  0  0  0  0  0  0  0  0
  140.7330   76.5520  221.5680 N   0  0  0  0  0  0  0  0  0  0  0  0
  141.7480   75.6240  220.9070 C   0  0  0  0  0  0  0  0  0  0  0  0
  142.2420   76.4320  219.7550 C   0  0  2  0  0  0  0  0  0  0  0  0
  143.6330   76.3440  219.6500 O   0  0  0  0  0  0  0  0  0  0  0  0
  141.8200   77.8590  220.0430 C   0  0  0  0  0  0  0  0  0  0  0  0
  141.4270   77.7720  221.5290 C   0  0  1  0  0  0  0  0  0  0  0  0
  140.7570   79.0150  221.9160 C   0  0  0  0  0  0  0  0  0  0  0  0
  140.3760   79.2170  223.3370 C   0  0  0  0  0  0  0  0  0  0  0  0
  141.6430   79.0170  224.1580 C   0  0  0  0  0  0  0  0  0  0  0  0
  142.5740   80.1390  223.8220 C   0  0  0  0  0  0  0  0  0  0  0  0
  142.7790   80.4100  222.3730 C   0  0  0  0  0  0  0  0  0  0  0  0
  141.5470   80.2610  221.5150 C   0  0  0  0  0  0  0  0  0  0  0  0
  135.3400   75.0690  224.2890 C   0  0  0  0  0  0  0  0  0  0  0  0
  135.5100   73.7170  224.0910 C   0  0  0  0  0  0  0  0  0  0  0  0
  134.8050   72.7550  224.7780 C   0  0  0  0  0  0  0  0  0  0  0  0
  133.8850   73.1770  225.7070 C   0  0  0  0  0  0  0  0  0  0  0  0
  133.1750   72.2220  226.3970 C   0  0  0  0  0  0  0  0  0  0  0  0
  132.2420   72.6360  227.3390 C   0  0  0  0  0  0  0  0  0  0  0  0
  132.0680   73.9890  227.5390 C   0  0  0  0  0  0  0  0  0  0  0  0
  132.7770   74.9370  226.8490 C   0  0  0  0  0  0  0  0  0  0  0  0
  133.7190   74.5310  225.8990 C   0  0  0  0  0  0  0  0  0  0  0  0
  134.4310   75.4540  225.2050 N   0  0  0  0  0  0  0  0  0  0  0  0
  137.6810   74.6510  223.1520 H   0  0  0  0  0  0  0  0  0  0  0  0
  137.7152   76.7934  221.2374 H   0  0  0  0  0  0  0  0  0  0  0  0
  138.3302   77.5137  222.7623 H   0  0  0  0  0  0  0  0  0  0  0  0
  142.5679   75.3786  221.5981 H   0  0  0  0  0  0  0  0  0  0  0  0
  141.3188   74.6571  220.6055 H   0  0  0  0  0  0  0  0  0  0  0  0
  141.8280   76.0704  218.8022 H   0  0  0  0  0  0  0  0  0  0  0  0
  144.0800   77.1560  220.0350 H   0  0  0  0  0  0  0  0  0  0  0  0
  142.6514   78.5624  219.8883 H   0  0  0  0  0  0  0  0  0  0  0  0
  141.0168   78.2287  219.3887 H   0  0  0  0  0  0  0  0  0  0  0  0
  142.2175   77.7305  222.2928 H   0  0  0  0  0  0  0  0  0  0  0  0
  139.8205   78.8818  221.3546 H   0  0  0  0  0  0  0  0  0  0  0  0
  139.9845   80.2344  223.4844 H   0  0  0  0  0  0  0  0  0  0  0  0
  139.5894   78.5110  223.6418 H   0  0  0  0  0  0  0  0  0  0  0  0
  141.4028   79.0361  225.2313 H   0  0  0  0  0  0  0  0  0  0  0  0
  142.1057   78.0457  223.9288 H   0  0  0  0  0  0  0  0  0  0  0  0
  142.1753   81.0553  224.2819 H   0  0  0  0  0  0  0  0  0  0  0  0
  143.5576   79.8311  224.2064 H   0  0  0  0  0  0  0  0  0  0  0  0
  143.1453   81.4418  222.2675 H   0  0  0  0  0  0  0  0  0  0  0  0
  143.4941   79.6536  222.0174 H   0  0  0  0  0  0  0  0  0  0  0  0
  140.9097   81.1487  221.6409 H   0  0  0  0  0  0  0  0  0  0  0  0
  141.8575   80.1601  220.4646 H   0  0  0  0  0  0  0  0  0  0  0  0
  136.2481   73.3885  223.3445 H   0  0  0  0  0  0  0  0  0  0  0  0
  134.9725   71.6843  224.5896 H   0  0  0  0  0  0  0  0  0  0  0  0
  133.3428   71.1517  226.2065 H   0  0  0  0  0  0  0  0  0  0  0  0
  131.6560   71.9020  227.9117 H   0  0  0  0  0  0  0  0  0  0  0  0
  131.3294   74.3212  228.2834 H   0  0  0  0  0  0  0  0  0  0  0  0
  132.6067   76.0067  227.0406 H   0  0  0  0  0  0  0  0  0  0  0  0
  1  2  2  0
  2  3  1  0
  3  4  1  0
  4  5  1  0
  5  6  2  0
  5  7  1  0
  7  8  1  0
  8  9  1  0
  9 10  1  0
  9 11  1  0
 11 12  1  0
 12 13  1  0
 13 14  1  0
 14 15  1  0
 15 16  1  0
 16 17  1  0
 17 18  1  0
  2 19  1  0
 19 20  2  0
 20 21  1  0
 21 22  2  0
 22 23  1  0
 23 24  2  0
 24 25  1  0
 25 26  2  0
 26 27  1  0
 27 28  2  0
 12  7  1  0
 18 13  1  0
 28 19  1  0
 27 22  1  0
  3 29  1  0
  4 30  1  0
  4 31  1  0
  8 32  1  0
  8 33  1  0
  9 34  1  6
 10 35  1  0
 11 36  1  0
 11 37  1  0
 12 38  1  1
 13 39  1  0
 14 40  1  0
 14 41  1  0
 15 42  1  0
 15 43  1  0
 16 44  1  0
 16 45  1  0
 17 46  1  0
 17 47  1  0
 18 48  1  0
 18 49  1  0
 20 50  1  0
 21 51  1  0
 23 52  1  0
 24 53  1  0
 25 54  1  0
 26 55  1  0
M  END
>  <smiles>  (18) 
O=C(NCC(=O)N1C[C@H](O)C[C@H]1C1CCCCC1)c1ccc2ccccc2n1

>  <score_type>  (18) 
oracle

>  <origin>  (18) 
autodockgpu

>  <m_score__min__energy>  (18) 
-9.6799999999999997

>  <m_primary>  (18) 
energy

>  <rmsd>  (18) 
5.582021989114272

>  <m_score__min__rmsd>  (18) 
5.582021989114272

>  <meeko>  (18) 
{"free_energy": -8.3, "intermolecular_energy": -10.09, "internal_energy": -1.89, "cluster_size": 14, "cluster_id": 4, "rank_in_cluster": 5}

>  <energy>  (18) 
-9.38

>  <cluster_rmsd>  (18) 
0.54

>  <cluster>  (18) 
1

$$$$

     RDKit          3D

 55 58  0  0  0  0  0  0  0  0999 V2000
  135.7440   77.3030  223.2340 O   0  0  0  0  0  0  0  0  0  0  0  0
  136.1530   76.1260  223.4440 C   0  0  0  0  0  0  0  0  0  0  0  0
  137.3340   75.6000  222.8450 N   0  0  0  0  0  0  0  0  0  0  0  0
  138.1490   76.4350  221.9290 C   0  0  0  0  0  0  0  0  0  0  0  0
  139.5280   75.9450  221.9250 C   0  0  0  0  0  0  0  0  0  0  0  0
  139.6610   74.7200  222.3470 O   0  0  0  0  0  0  0  0  0  0  0  0
  140.7200   76.5580  221.5460 N   0  0  0  0  0  0  0  0  0  0  0  0
  141.7510   75.6760  220.8490 C   0  0  0  0  0  0  0  0  0  0  0  0
  142.2090   76.5270  219.7120 C   0  0  2  0  0  0  0  0  0  0  0  0
  143.6000   76.4790  219.5890 O   0  0  0  0  0  0  0  0  0  0  0  0
  141.7530   77.9330  220.0430 C   0  0  0  0  0  0  0  0  0  0  0  0
  141.3810   77.7980  221.5300 C   0  0  1  0  0  0  0  0  0  0  0  0
  140.6830   79.0110  221.9580 C   0  0  0  0  0  0  0  0  0  0  0  0
  140.3520   79.1860  223.3950 C   0  0  0  0  0  0  0  0  0  0  0  0
  141.6580   79.0240  224.1630 C   0  0  0  0  0  0  0  0  0  0  0  0
  142.5330   80.1820  223.8030 C   0  0  0  0  0  0  0  0  0  0  0  0
  142.6700   80.4740  222.3500 C   0  0  0  0  0  0  0  0  0  0  0  0
  141.4100   80.2890  221.5410 C   0  0  0  0  0  0  0  0  0  0  0  0
  135.3790   75.2600  224.3440 C   0  0  0  0  0  0  0  0  0  0  0  0
  134.5680   75.8040  225.3150 C   0  0  0  0  0  0  0  0  0  0  0  0
  133.8190   75.0480  226.1870 C   0  0  0  0  0  0  0  0  0  0  0  0
  133.8920   73.6800  226.0750 C   0  0  0  0  0  0  0  0  0  0  0  0
  133.1460   72.9170  226.9430 C   0  0  0  0  0  0  0  0  0  0  0  0
  133.2110   71.5330  226.8400 C   0  0  0  0  0  0  0  0  0  0  0  0
  134.0240   70.9860  225.8690 C   0  0  0  0  0  0  0  0  0  0  0  0
  134.7650   71.7500  225.0070 C   0  0  0  0  0  0  0  0  0  0  0  0
  134.7060   73.1430  225.1020 C   0  0  0  0  0  0  0  0  0  0  0  0
  135.4320   73.9170  224.2560 N   0  0  0  0  0  0  0  0  0  0  0  0
  137.5980   74.6200  223.0730 H   0  0  0  0  0  0  0  0  0  0  0  0
  137.7351   76.3755  220.9116 H   0  0  0  0  0  0  0  0  0  0  0  0
  138.1308   77.4807  222.2698 H   0  0  0  0  0  0  0  0  0  0  0  0
  142.5858   75.4353  221.5237 H   0  0  0  0  0  0  0  0  0  0  0  0
  141.3442   74.7060  220.5273 H   0  0  0  0  0  0  0  0  0  0  0  0
  141.7932   76.1799  218.7546 H   0  0  0  0  0  0  0  0  0  0  0  0
  144.0410   77.1740  220.1630 H   0  0  0  0  0  0  0  0  0  0  0  0
  142.5635   78.6623  219.8970 H   0  0  0  0  0  0  0  0  0  0  0  0
  140.9317   78.2972  219.4084 H   0  0  0  0  0  0  0  0  0  0  0  0
  142.1824   77.7592  222.2825 H   0  0  0  0  0  0  0  0  0  0  0  0
  139.7304   78.8476  221.4327 H   0  0  0  0  0  0  0  0  0  0  0  0
  139.9308   80.1872  223.5687 H   0  0  0  0  0  0  0  0  0  0  0  0
  139.6037   78.4496  223.7232 H   0  0  0  0  0  0  0  0  0  0  0  0
  141.4606   79.0236  225.2451 H   0  0  0  0  0  0  0  0  0  0  0  0
  142.1459   78.0726  223.9047 H   0  0  0  0  0  0  0  0  0  0  0  0
  142.1199   81.0786  224.2882 H   0  0  0  0  0  0  0  0  0  0  0  0
  143.5417   79.9069  224.1448 H   0  0  0  0  0  0  0  0  0  0  0  0
  142.9951   81.5192  222.2411 H   0  0  0  0  0  0  0  0  0  0  0  0
  143.3968   79.7475  221.9576 H   0  0  0  0  0  0  0  0  0  0  0  0
  140.7466   81.1512  221.7036 H   0  0  0  0  0  0  0  0  0  0  0  0
  141.6807   80.2109  220.4777 H   0  0  0  0  0  0  0  0  0  0  0  0
  134.5164   76.8997  225.3977 H   0  0  0  0  0  0  0  0  0  0  0  0
  133.1828   75.5226  226.9486 H   0  0  0  0  0  0  0  0  0  0  0  0
  132.5103   73.3934  227.7039 H   0  0  0  0  0  0  0  0  0  0  0  0
  132.6287   70.8895  227.5159 H   0  0  0  0  0  0  0  0  0  0  0  0
  134.0795   69.8907  225.7835 H   0  0  0  0  0  0  0  0  0  0  0  0
  135.4005   71.2717  224.2472 H   0  0  0  0  0  0  0  0  0  0  0  0
  1  2  2  0
  2  3  1  0
  3  4  1  0
  4  5  1  0
  5  6  2  0
  5  7  1  0
  7  8  1  0
  8  9  1  0
  9 10  1  0
  9 11  1  0
 11 12  1  0
 12 13  1  0
 13 14  1  0
 14 15  1  0
 15 16  1  0
 16 17  1  0
 17 18  1  0
  2 19  1  0
 19 20  2  0
 20 21  1  0
 21 22  2  0
 22 23  1  0
 23 24  2  0
 24 25  1  0
 25 26  2  0
 26 27  1  0
 27 28  2  0
 12  7  1  0
 18 13  1  0
 28 19  1  0
 27 22  1  0
  3 29  1  0
  4 30  1  0
  4 31  1  0
  8 32  1  0
  8 33  1  0
  9 34  1  6
 10 35  1  0
 11 36  1  0
 11 37  1  0
 12 38  1  1
 13 39  1  0
 14 40  1  0
 14 41  1  0
 15 42  1  0
 15 43  1  0
 16 44  1  0
 16 45  1  0
 17 46  1  0
 17 47  1  0
 18 48  1  0
 18 49  1  0
 20 50  1  0
 21 51  1  0
 23 52  1  0
 24 53  1  0
 25 54  1  0
 26 55  1  0
M  END
>  <smiles>  (19) 
O=C(NCC(=O)N1C[C@H](O)C[C@H]1C1CCCCC1)c1ccc2ccccc2n1

>  <score_type>  (19) 
oracle

>  <origin>  (19) 
autodockgpu

>  <m_score__min__energy>  (19) 
-9.6799999999999997

>  <m_primary>  (19) 
energy

>  <rmsd>  (19) 
5.596309352335749

>  <m_score__min__rmsd>  (19) 
5.596309352335749

>  <meeko>  (19) 
{"free_energy": -8.28, "intermolecular_energy": -10.07, "internal_energy": -2.14, "cluster_size": 14, "cluster_id": 4, "rank_in_cluster": 12}

>  <energy>  (19) 
-9.37

>  <cluster_rmsd>  (19) 
0.51

>  <cluster>  (19) 
1

$$$$

     RDKit          3D

 55 58  0  0  0  0  0  0  0  0999 V2000
  140.1600   71.3180  221.3460 O   0  0  0  0  0  0  0  0  0  0  0  0
  139.9620   71.9260  222.4360 C   0  0  0  0  0  0  0  0  0  0  0  0
  139.6960   73.3240  222.5020 N   0  0  0  0  0  0  0  0  0  0  0  0
  139.6410   74.1390  221.2640 C   0  0  0  0  0  0  0  0  0  0  0  0
  139.9880   75.5260  221.5810 C   0  0  0  0  0  0  0  0  0  0  0  0
  139.1820   76.0990  222.4270 O   0  0  0  0  0  0  0  0  0  0  0  0
  141.0320   76.3350  221.1370 N   0  0  0  0  0  0  0  0  0  0  0  0
  142.1200   75.6550  220.3120 C   0  0  0  0  0  0  0  0  0  0  0  0
  142.3370   76.6110  219.1870 C   0  0  2  0  0  0  0  0  0  0  0  0
  143.7010   76.7890  218.9470 O   0  0  0  0  0  0  0  0  0  0  0  0
  141.7000   77.9140  219.6280 C   0  0  0  0  0  0  0  0  0  0  0  0
  141.4890   77.6630  221.1320 C   0  0  1  0  0  0  0  0  0  0  0  0
  140.6520   78.7330  221.6790 C   0  0  0  0  0  0  0  0  0  0  0  0
  140.4130   78.7850  223.1430 C   0  0  0  0  0  0  0  0  0  0  0  0
  141.7850   78.7890  223.8060 C   0  0  0  0  0  0  0  0  0  0  0  0
  142.4460   80.0840  223.4550 C   0  0  0  0  0  0  0  0  0  0  0  0
  142.4230   80.4630  222.0160 C   0  0  0  0  0  0  0  0  0  0  0  0
  141.1450   80.1260  221.2870 C   0  0  0  0  0  0  0  0  0  0  0  0
  140.0070   71.1610  223.6890 C   0  0  0  0  0  0  0  0  0  0  0  0
  139.5670   69.8570  223.7320 C   0  0  0  0  0  0  0  0  0  0  0  0
  139.5830   69.0880  224.8730 C   0  0  0  0  0  0  0  0  0  0  0  0
  140.0650   69.6620  226.0250 C   0  0  0  0  0  0  0  0  0  0  0  0
  140.0850   68.9010  227.1700 C   0  0  0  0  0  0  0  0  0  0  0  0
  140.5700   69.4700  228.3410 C   0  0  0  0  0  0  0  0  0  0  0  0
  141.0100   70.7760  228.3020 C   0  0  0  0  0  0  0  0  0  0  0  0
  140.9880   71.5310  227.1590 C   0  0  0  0  0  0  0  0  0  0  0  0
  140.5030   70.9680  225.9750 C   0  0  0  0  0  0  0  0  0  0  0  0
  140.4740   71.6990  224.8320 N   0  0  0  0  0  0  0  0  0  0  0  0
  139.5440   73.7450  223.4410 H   0  0  0  0  0  0  0  0  0  0  0  0
  140.3562   73.7401  220.5296 H   0  0  0  0  0  0  0  0  0  0  0  0
  138.6256   74.1006  220.8427 H   0  0  0  0  0  0  0  0  0  0  0  0
  143.0392   75.5237  220.9018 H   0  0  0  0  0  0  0  0  0  0  0  0
  141.8406   74.6459  219.9748 H   0  0  0  0  0  0  0  0  0  0  0  0
  141.8958   76.2394  218.2504 H   0  0  0  0  0  0  0  0  0  0  0  0
  144.0770   76.0370  218.3990 H   0  0  0  0  0  0  0  0  0  0  0  0
  142.3713   78.7679  219.4540 H   0  0  0  0  0  0  0  0  0  0  0  0
  140.7786   78.1681  219.0835 H   0  0  0  0  0  0  0  0  0  0  0  0
  142.3511   77.7219  221.8127 H   0  0  0  0  0  0  0  0  0  0  0  0
  139.6956   78.4517  221.2140 H   0  0  0  0  0  0  0  0  0  0  0  0
  139.8614   79.6998  223.4057 H   0  0  0  0  0  0  0  0  0  0  0  0
  139.8118   77.9270  223.4784 H   0  0  0  0  0  0  0  0  0  0  0  0
  141.6757   78.7061  224.8974 H   0  0  0  0  0  0  0  0  0  0  0  0
  142.3879   77.9375  223.4575 H   0  0  0  0  0  0  0  0  0  0  0  0
  141.9428   80.8821  224.0206 H   0  0  0  0  0  0  0  0  0  0  0  0
  143.5082   79.9512  223.7082 H   0  0  0  0  0  0  0  0  0  0  0  0
  142.5786   81.5497  221.9470 H   0  0  0  0  0  0  0  0  0  0  0  0
  143.2169   79.8760  221.5312 H   0  0  0  0  0  0  0  0  0  0  0  0
  140.3751   80.8678  221.5457 H   0  0  0  0  0  0  0  0  0  0  0  0
  141.3402   80.1410  220.2046 H   0  0  0  0  0  0  0  0  0  0  0  0
  139.1824   69.4062  222.8053 H   0  0  0  0  0  0  0  0  0  0  0  0
  139.2222   68.0489  224.8634 H   0  0  0  0  0  0  0  0  0  0  0  0
  139.7241   67.8620  227.1591 H   0  0  0  0  0  0  0  0  0  0  0  0
  140.6022   68.8925  229.2766 H   0  0  0  0  0  0  0  0  0  0  0  0
  141.3946   71.2306  229.2269 H   0  0  0  0  0  0  0  0  0  0  0  0
  141.3485   72.5702  227.1728 H   0  0  0  0  0  0  0  0  0  0  0  0
  1  2  2  0
  2  3  1  0
  3  4  1  0
  4  5  1  0
  5  6  2  0
  5  7  1  0
  7  8  1  0
  8  9  1  0
  9 10  1  0
  9 11  1  0
 11 12  1  0
 12 13  1  0
 13 14  1  0
 14 15  1  0
 15 16  1  0
 16 17  1  0
 17 18  1  0
  2 19  1  0
 19 20  2  0
 20 21  1  0
 21 22  2  0
 22 23  1  0
 23 24  2  0
 24 25  1  0
 25 26  2  0
 26 27  1  0
 27 28  2  0
 12  7  1  0
 18 13  1  0
 28 19  1  0
 27 22  1  0
  3 29  1  0
  4 30  1  0
  4 31  1  0
  8 32  1  0
  8 33  1  0
  9 34  1  6
 10 35  1  0
 11 36  1  0
 11 37  1  0
 12 38  1  1
 13 39  1  0
 14 40  1  0
 14 41  1  0
 15 42  1  0
 15 43  1  0
 16 44  1  0
 16 45  1  0
 17 46  1  0
 17 47  1  0
 18 48  1  0
 18 49  1  0
 20 50  1  0
 21 51  1  0
 23 52  1  0
 24 53  1  0
 25 54  1  0
 26 55  1  0
M  END
>  <smiles>  (20) 
O=C(NCC(=O)N1C[C@H](O)C[C@H]1C1CCCCC1)c1ccc2ccccc2n1

>  <score_type>  (20) 
oracle

>  <origin>  (20) 
autodockgpu

>  <m_score__min__energy>  (20) 
-9.6799999999999997

>  <m_primary>  (20) 
energy

>  <rmsd>  (20) 
1.8013345116308472

>  <m_score__min__rmsd>  (20) 
1.8013345116308472

>  <meeko>  (20) 
{"free_energy": -9.05, "intermolecular_energy": -10.84, "internal_energy": -1.65, "cluster_size": 32, "cluster_id": 1, "rank_in_cluster": 28}

>  <energy>  (20) 
-9.37

>  <cluster_rmsd>  (20) 
0.59

>  <cluster>  (20) 
1

$$$$

     RDKit          3D

 55 58  0  0  0  0  0  0  0  0999 V2000
  135.7040   77.2910  223.2750 O   0  0  0  0  0  0  0  0  0  0  0  0
  136.1400   76.1280  223.5080 C   0  0  0  0  0  0  0  0  0  0  0  0
  137.3470   75.6270  222.9420 N   0  0  0  0  0  0  0  0  0  0  0  0
  138.1600   76.4730  222.0340 C   0  0  0  0  0  0  0  0  0  0  0  0
  139.5140   75.9240  221.9420 C   0  0  0  0  0  0  0  0  0  0  0  0
  139.5970   74.6580  222.2320 O   0  0  0  0  0  0  0  0  0  0  0  0
  140.7250   76.5190  221.5970 N   0  0  0  0  0  0  0  0  0  0  0  0
  141.7640   75.6200  220.9350 C   0  0  0  0  0  0  0  0  0  0  0  0
  142.2680   76.4580  219.8090 C   0  0  2  0  0  0  0  0  0  0  0  0
  143.6610   76.3910  219.7280 O   0  0  0  0  0  0  0  0  0  0  0  0
  141.8220   77.8730  220.1200 C   0  0  0  0  0  0  0  0  0  0  0  0
  141.4030   77.7500  221.5960 C   0  0  1  0  0  0  0  0  0  0  0  0
  140.7090   78.9740  221.9970 C   0  0  0  0  0  0  0  0  0  0  0  0
  140.3610   79.1720  223.4270 C   0  0  0  0  0  0  0  0  0  0  0  0
  141.6550   79.0110  224.2140 C   0  0  0  0  0  0  0  0  0  0  0  0
  142.5450   80.1570  223.8490 C   0  0  0  0  0  0  0  0  0  0  0  0
  142.7030   80.4270  222.3940 C   0  0  0  0  0  0  0  0  0  0  0  0
  141.4530   80.2410  221.5710 C   0  0  0  0  0  0  0  0  0  0  0  0
  135.3700   75.2520  224.4020 C   0  0  0  0  0  0  0  0  0  0  0  0
  134.5540   75.7860  225.3750 C   0  0  0  0  0  0  0  0  0  0  0  0
  133.8080   75.0200  226.2420 C   0  0  0  0  0  0  0  0  0  0  0  0
  133.8890   73.6540  226.1220 C   0  0  0  0  0  0  0  0  0  0  0  0
  133.1470   72.8810  226.9840 C   0  0  0  0  0  0  0  0  0  0  0  0
  133.2200   71.4980  226.8730 C   0  0  0  0  0  0  0  0  0  0  0  0
  134.0370   70.9620  225.9000 C   0  0  0  0  0  0  0  0  0  0  0  0
  134.7740   71.7350  225.0430 C   0  0  0  0  0  0  0  0  0  0  0  0
  134.7080   73.1270  225.1460 C   0  0  0  0  0  0  0  0  0  0  0  0
  135.4300   73.9110  224.3070 N   0  0  0  0  0  0  0  0  0  0  0  0
  137.6330   74.6580  223.1880 H   0  0  0  0  0  0  0  0  0  0  0  0
  137.7004   76.4861  221.0347 H   0  0  0  0  0  0  0  0  0  0  0  0
  138.2050   77.4987  222.4288 H   0  0  0  0  0  0  0  0  0  0  0  0
  142.5747   75.3711  221.6356 H   0  0  0  0  0  0  0  0  0  0  0  0
  141.3531   74.6544  220.6052 H   0  0  0  0  0  0  0  0  0  0  0  0
  141.8765   76.1109  218.8414 H   0  0  0  0  0  0  0  0  0  0  0  0
  144.0900   77.2030  220.1310 H   0  0  0  0  0  0  0  0  0  0  0  0
  142.6469   78.5900  219.9956 H   0  0  0  0  0  0  0  0  0  0  0  0
  141.0257   78.2460  219.4591 H   0  0  0  0  0  0  0  0  0  0  0  0
  142.1804   77.7039  222.3729 H   0  0  0  0  0  0  0  0  0  0  0  0
  139.7619   78.8111  221.4618 H   0  0  0  0  0  0  0  0  0  0  0  0
  139.9455   80.1788  223.5810 H   0  0  0  0  0  0  0  0  0  0  0  0
  139.6028   78.4460  223.7558 H   0  0  0  0  0  0  0  0  0  0  0  0
  141.4434   79.0280  225.2933 H   0  0  0  0  0  0  0  0  0  0  0  0
  142.1383   78.0521  223.9756 H   0  0  0  0  0  0  0  0  0  0  0  0
  142.1335   81.0639  224.3161 H   0  0  0  0  0  0  0  0  0  0  0  0
  143.5468   79.8784  224.2078 H   0  0  0  0  0  0  0  0  0  0  0  0
  143.0382   81.4679  222.2747 H   0  0  0  0  0  0  0  0  0  0  0  0
  143.4285   79.6887  222.0217 H   0  0  0  0  0  0  0  0  0  0  0  0
  140.7949   81.1110  221.7122 H   0  0  0  0  0  0  0  0  0  0  0  0
  141.7372   80.1454  220.5127 H   0  0  0  0  0  0  0  0  0  0  0  0
  134.4955   76.8809  225.4637 H   0  0  0  0  0  0  0  0  0  0  0  0
  133.1682   75.4863  227.0056 H   0  0  0  0  0  0  0  0  0  0  0  0
  132.5077   73.3489  227.7471 H   0  0  0  0  0  0  0  0  0  0  0  0
  132.6407   70.8471  227.5443 H   0  0  0  0  0  0  0  0  0  0  0  0
  134.0993   69.8676  225.8084 H   0  0  0  0  0  0  0  0  0  0  0  0
  135.4121   71.2645  224.2805 H   0  0  0  0  0  0  0  0  0  0  0  0
  1  2  2  0
  2  3  1  0
  3  4  1  0
  4  5  1  0
  5  6  2  0
  5  7  1  0
  7  8  1  0
  8  9  1  0
  9 10  1  0
  9 11  1  0
 11 12  1  0
 12 13  1  0
 13 14  1  0
 14 15  1  0
 15 16  1  0
 16 17  1  0
 17 18  1  0
  2 19  1  0
 19 20  2  0
 20 21  1  0
 21 22  2  0
 22 23  1  0
 23 24  2  0
 24 25  1  0
 25 26  2  0
 26 27  1  0
 27 28  2  0
 12  7  1  0
 18 13  1  0
 28 19  1  0
 27 22  1  0
  3 29  1  0
  4 30  1  0
  4 31  1  0
  8 32  1  0
  8 33  1  0
  9 34  1  6
 10 35  1  0
 11 36  1  0
 11 37  1  0
 12 38  1  1
 13 39  1  0
 14 40  1  0
 14 41  1  0
 15 42  1  0
 15 43  1  0
 16 44  1  0
 16 45  1  0
 17 46  1  0
 17 47  1  0
 18 48  1  0
 18 49  1  0
 20 50  1  0
 21 51  1  0
 23 52  1  0
 24 53  1  0
 25 54  1  0
 26 55  1  0
M  END
>  <smiles>  (21) 
O=C(NCC(=O)N1C[C@H](O)C[C@H]1C1CCCCC1)c1ccc2ccccc2n1

>  <score_type>  (21) 
oracle

>  <origin>  (21) 
autodockgpu

>  <m_score__min__energy>  (21) 
-9.6799999999999997

>  <m_primary>  (21) 
energy

>  <rmsd>  (21) 
5.607736282227299

>  <m_score__min__rmsd>  (21) 
5.607736282227299

>  <meeko>  (21) 
{"free_energy": -8.21, "intermolecular_energy": -10.0, "internal_energy": -2.13, "cluster_size": 14, "cluster_id": 4, "rank_in_cluster": 14}

>  <energy>  (21) 
-9.37

>  <cluster_rmsd>  (21) 
0.48

>  <cluster>  (21) 
1

$$$$

     RDKit          3D

 55 58  0  0  0  0  0  0  0  0999 V2000
  141.2160   72.7070  221.8810 O   0  0  0  0  0  0  0  0  0  0  0  0
  140.1610   72.6300  222.5720 C   0  0  0  0  0  0  0  0  0  0  0  0
  139.0300   73.4660  222.3500 N   0  0  0  0  0  0  0  0  0  0  0  0
  139.0460   74.4840  221.2720 C   0  0  0  0  0  0  0  0  0  0  0  0
  139.6240   75.7270  221.7880 C   0  0  0  0  0  0  0  0  0  0  0  0
  138.9100   76.3040  222.7120 O   0  0  0  0  0  0  0  0  0  0  0  0
  140.8020   76.3950  221.4650 N   0  0  0  0  0  0  0  0  0  0  0  0
  141.8850   75.5740  220.7700 C   0  0  0  0  0  0  0  0  0  0  0  0
  142.3440   76.4800  219.6770 C   0  0  2  0  0  0  0  0  0  0  0  0
  143.7380   76.4860  219.5940 O   0  0  0  0  0  0  0  0  0  0  0  0
  141.8270   77.8570  220.0410 C   0  0  0  0  0  0  0  0  0  0  0  0
  141.4180   77.6570  221.5110 C   0  0  1  0  0  0  0  0  0  0  0  0
  140.6640   78.8290  221.9580 C   0  0  0  0  0  0  0  0  0  0  0  0
  140.4310   79.0270  223.4110 C   0  0  0  0  0  0  0  0  0  0  0  0
  141.8000   78.9880  224.0790 C   0  0  0  0  0  0  0  0  0  0  0  0
  142.5550   80.1950  223.6180 C   0  0  0  0  0  0  0  0  0  0  0  0
  142.5580   80.4470  222.1520 C   0  0  0  0  0  0  0  0  0  0  0  0
  141.2580   80.1430  221.4490 C   0  0  0  0  0  0  0  0  0  0  0  0
  140.0970   71.6350  223.6520 C   0  0  0  0  0  0  0  0  0  0  0  0
  139.5160   70.4050  223.4390 C   0  0  0  0  0  0  0  0  0  0  0  0
  139.4250   69.4320  224.4090 C   0  0  0  0  0  0  0  0  0  0  0  0
  139.9430   69.7140  225.6500 C   0  0  0  0  0  0  0  0  0  0  0  0
  139.8560   68.7480  226.6240 C   0  0  0  0  0  0  0  0  0  0  0  0
  140.3770   69.0200  227.8830 C   0  0  0  0  0  0  0  0  0  0  0  0
  140.9580   70.2520  228.0990 C   0  0  0  0  0  0  0  0  0  0  0  0
  141.0420   71.2120  227.1260 C   0  0  0  0  0  0  0  0  0  0  0  0
  140.5220   70.9480  225.8550 C   0  0  0  0  0  0  0  0  0  0  0  0
  140.5970   71.8850  224.8770 N   0  0  0  0  0  0  0  0  0  0  0  0
  138.2010   73.3350  222.9660 H   0  0  0  0  0  0  0  0  0  0  0  0
  139.6527   74.1184  220.4304 H   0  0  0  0  0  0  0  0  0  0  0  0
  138.0185   74.6711  220.9268 H   0  0  0  0  0  0  0  0  0  0  0  0
  142.7081   75.3398  221.4611 H   0  0  0  0  0  0  0  0  0  0  0  0
  141.5237   74.6017  220.4038 H   0  0  0  0  0  0  0  0  0  0  0  0
  141.9689   76.1517  218.6964 H   0  0  0  0  0  0  0  0  0  0  0  0
  144.1310   77.2610  220.0950 H   0  0  0  0  0  0  0  0  0  0  0  0
  142.6138   78.6195  219.9437 H   0  0  0  0  0  0  0  0  0  0  0  0
  141.0114   78.2134  219.3947 H   0  0  0  0  0  0  0  0  0  0  0  0
  142.1984   77.6200  222.2854 H   0  0  0  0  0  0  0  0  0  0  0  0
  139.6893   78.5786  221.5138 H   0  0  0  0  0  0  0  0  0  0  0  0
  139.9489   79.9995  223.5893 H   0  0  0  0  0  0  0  0  0  0  0  0
  139.7684   78.2484  223.8169 H   0  0  0  0  0  0  0  0  0  0  0  0
  141.6858   79.0106  225.1728 H   0  0  0  0  0  0  0  0  0  0  0  0
  142.3378   78.0666  223.8111 H   0  0  0  0  0  0  0  0  0  0  0  0
  142.1135   81.0748  224.1089 H   0  0  0  0  0  0  0  0  0  0  0  0
  143.6048   80.0060  223.8865 H   0  0  0  0  0  0  0  0  0  0  0  0
  142.7936   81.5090  221.9890 H   0  0  0  0  0  0  0  0  0  0  0  0
  143.3055   79.7626  221.7244 H   0  0  0  0  0  0  0  0  0  0  0  0
  140.5453   80.9591  221.6386 H   0  0  0  0  0  0  0  0  0  0  0  0
  141.4521   80.0495  220.3703 H   0  0  0  0  0  0  0  0  0  0  0  0
  139.1033   70.1885  222.4426 H   0  0  0  0  0  0  0  0  0  0  0  0
  138.9532   68.4611  224.1974 H   0  0  0  0  0  0  0  0  0  0  0  0
  139.3829   67.7781  226.4108 H   0  0  0  0  0  0  0  0  0  0  0  0
  140.3273   68.2714  228.6874 H   0  0  0  0  0  0  0  0  0  0  0  0
  141.3711   70.4727  229.0943 H   0  0  0  0  0  0  0  0  0  0  0  0
  141.5141   72.1817  227.3422 H   0  0  0  0  0  0  0  0  0  0  0  0
  1  2  2  0
  2  3  1  0
  3  4  1  0
  4  5  1  0
  5  6  2  0
  5  7  1  0
  7  8  1  0
  8  9  1  0
  9 10  1  0
  9 11  1  0
 11 12  1  0
 12 13  1  0
 13 14  1  0
 14 15  1  0
 15 16  1  0
 16 17  1  0
 17 18  1  0
  2 19  1  0
 19 20  2  0
 20 21  1  0
 21 22  2  0
 22 23  1  0
 23 24  2  0
 24 25  1  0
 25 26  2  0
 26 27  1  0
 27 28  2  0
 12  7  1  0
 18 13  1  0
 28 19  1  0
 27 22  1  0
  3 29  1  0
  4 30  1  0
  4 31  1  0
  8 32  1  0
  8 33  1  0
  9 34  1  6
 10 35  1  0
 11 36  1  0
 11 37  1  0
 12 38  1  1
 13 39  1  0
 14 40  1  0
 14 41  1  0
 15 42  1  0
 15 43  1  0
 16 44  1  0
 16 45  1  0
 17 46  1  0
 17 47  1  0
 18 48  1  0
 18 49  1  0
 20 50  1  0
 21 51  1  0
 23 52  1  0
 24 53  1  0
 25 54  1  0
 26 55  1  0
M  END
>  <smiles>  (22) 
O=C(NCC(=O)N1C[C@H](O)C[C@H]1C1CCCCC1)c1ccc2ccccc2n1

>  <score_type>  (22) 
oracle

>  <origin>  (22) 
autodockgpu

>  <m_score__min__energy>  (22) 
-9.6799999999999997

>  <m_primary>  (22) 
energy

>  <rmsd>  (22) 
1.9492586516160328

>  <m_score__min__rmsd>  (22) 
1.9492586516160328

>  <meeko>  (22) 
{"free_energy": -9.62, "intermolecular_energy": -11.41, "internal_energy": -1.46, "cluster_size": 32, "cluster_id": 1, "rank_in_cluster": 4}

>  <energy>  (22) 
-9.32

>  <cluster_rmsd>  (22) 
0.64

>  <cluster>  (22) 
1

$$$$

     RDKit          3D

 55 58  0  0  0  0  0  0  0  0999 V2000
  141.3880   72.1580  221.7570 O   0  0  0  0  0  0  0  0  0  0  0  0
  140.4280   72.4170  222.5360 C   0  0  0  0  0  0  0  0  0  0  0  0
  139.5390   73.5110  222.3300 N   0  0  0  0  0  0  0  0  0  0  0  0
  139.7100   74.4100  221.1620 C   0  0  0  0  0  0  0  0  0  0  0  0
  140.1270   75.7340  221.6280 C   0  0  0  0  0  0  0  0  0  0  0  0
  139.5610   76.1120  222.7380 O   0  0  0  0  0  0  0  0  0  0  0  0
  141.0230   76.6560  221.0920 N   0  0  0  0  0  0  0  0  0  0  0  0
  142.0420   76.1160  220.0930 C   0  0  0  0  0  0  0  0  0  0  0  0
  142.0160   77.1330  219.0020 C   0  0  2  0  0  0  0  0  0  0  0  0
  143.3130   77.4490  218.5910 O   0  0  0  0  0  0  0  0  0  0  0  0
  141.3340   78.3500  219.5930 C   0  0  0  0  0  0  0  0  0  0  0  0
  141.3550   78.0210  221.0960 C   0  0  1  0  0  0  0  0  0  0  0  0
  140.5120   78.9830  221.8060 C   0  0  0  0  0  0  0  0  0  0  0  0
  140.4120   78.9030  223.2850 C   0  0  0  0  0  0  0  0  0  0  0  0
  141.8380   78.9490  223.8190 C   0  0  0  0  0  0  0  0  0  0  0  0
  142.3810   80.3110  223.5200 C   0  0  0  0  0  0  0  0  0  0  0  0
  142.1970   80.8000  222.1270 C   0  0  0  0  0  0  0  0  0  0  0  0
  140.8780   80.4340  221.4920 C   0  0  0  0  0  0  0  0  0  0  0  0
  140.2170   71.5540  223.7070 C   0  0  0  0  0  0  0  0  0  0  0  0
  139.5230   70.3700  223.5900 C   0  0  0  0  0  0  0  0  0  0  0  0
  139.2930   69.5200  224.6480 C   0  0  0  0  0  0  0  0  0  0  0  0
  139.7850   69.8810  225.8790 C   0  0  0  0  0  0  0  0  0  0  0  0
  139.5600   69.0370  226.9410 C   0  0  0  0  0  0  0  0  0  0  0  0
  140.0520   69.3900  228.1910 C   0  0  0  0  0  0  0  0  0  0  0  0
  140.7460   70.5750  228.3100 C   0  0  0  0  0  0  0  0  0  0  0  0
  140.9690   71.4130  227.2500 C   0  0  0  0  0  0  0  0  0  0  0  0
  140.4780   71.0670  225.9870 C   0  0  0  0  0  0  0  0  0  0  0  0
  140.6880   71.8840  224.9250 N   0  0  0  0  0  0  0  0  0  0  0  0
  138.7740   73.6520  223.0210 H   0  0  0  0  0  0  0  0  0  0  0  0
  140.4777   73.9981  220.4904 H   0  0  0  0  0  0  0  0  0  0  0  0
  138.7573   74.4936  220.6185 H   0  0  0  0  0  0  0  0  0  0  0  0
  143.0420   76.0482  220.5462 H   0  0  0  0  0  0  0  0  0  0  0  0
  141.8085   75.0996  219.7430 H   0  0  0  0  0  0  0  0  0  0  0  0
  141.4840   76.7599  218.1144 H   0  0  0  0  0  0  0  0  0  0  0  0
  143.9280   77.5600  219.3760 H   0  0  0  0  0  0  0  0  0  0  0  0
  141.8969   79.2698  219.3761 H   0  0  0  0  0  0  0  0  0  0  0  0
  140.3272   78.5366  219.1910 H   0  0  0  0  0  0  0  0  0  0  0  0
  142.2939   78.1350  221.6577 H   0  0  0  0  0  0  0  0  0  0  0  0
  139.5350   78.6729  221.4070 H   0  0  0  0  0  0  0  0  0  0  0  0
  139.8334   79.7542  223.6732 H   0  0  0  0  0  0  0  0  0  0  0  0
  139.8994   77.9819  223.5994 H   0  0  0  0  0  0  0  0  0  0  0  0
  141.8393   78.7732  224.9049 H   0  0  0  0  0  0  0  0  0  0  0  0
  142.4560   78.1710  223.3471 H   0  0  0  0  0  0  0  0  0  0  0  0
  141.8861   81.0252  224.1946 H   0  0  0  0  0  0  0  0  0  0  0  0
  143.4688   80.2323  223.6632 H   0  0  0  0  0  0  0  0  0  0  0  0
  142.2783   81.8969  222.1368 H   0  0  0  0  0  0  0  0  0  0  0  0
  142.9753   80.3099  221.5237 H   0  0  0  0  0  0  0  0  0  0  0  0
  140.0925   81.0974  221.8830 H   0  0  0  0  0  0  0  0  0  0  0  0
  140.9662   80.5488  220.4016 H   0  0  0  0  0  0  0  0  0  0  0  0
  139.1326   70.0894  222.6006 H   0  0  0  0  0  0  0  0  0  0  0  0
  138.7337   68.5826  224.5124 H   0  0  0  0  0  0  0  0  0  0  0  0
  139.0008   68.0998  226.8032 H   0  0  0  0  0  0  0  0  0  0  0  0
  139.8919   68.7403  229.0640 H   0  0  0  0  0  0  0  0  0  0  0  0
  141.1372   70.8595  229.2979 H   0  0  0  0  0  0  0  0  0  0  0  0
  141.5289   72.3493  227.3906 H   0  0  0  0  0  0  0  0  0  0  0  0
  1  2  2  0
  2  3  1  0
  3  4  1  0
  4  5  1  0
  5  6  2  0
  5  7  1  0
  7  8  1  0
  8  9  1  0
  9 10  1  0
  9 11  1  0
 11 12  1  0
 12 13  1  0
 13 14  1  0
 14 15  1  0
 15 16  1  0
 16 17  1  0
 17 18  1  0
  2 19  1  0
 19 20  2  0
 20 21  1  0
 21 22  2  0
 22 23  1  0
 23 24  2  0
 24 25  1  0
 25 26  2  0
 26 27  1  0
 27 28  2  0
 12  7  1  0
 18 13  1  0
 28 19  1  0
 27 22  1  0
  3 29  1  0
  4 30  1  0
  4 31  1  0
  8 32  1  0
  8 33  1  0
  9 34  1  6
 10 35  1  0
 11 36  1  0
 11 37  1  0
 12 38  1  1
 13 39  1  0
 14 40  1  0
 14 41  1  0
 15 42  1  0
 15 43  1  0
 16 44  1  0
 16 45  1  0
 17 46  1  0
 17 47  1  0
 18 48  1  0
 18 49  1  0
 20 50  1  0
 21 51  1  0
 23 52  1  0
 24 53  1  0
 25 54  1  0
 26 55  1  0
M  END
>  <smiles>  (23) 
O=C(NCC(=O)N1C[C@H](O)C[C@H]1C1CCCCC1)c1ccc2ccccc2n1

>  <score_type>  (23) 
oracle

>  <origin>  (23) 
autodockgpu

>  <m_score__min__energy>  (23) 
-9.6799999999999997

>  <m_primary>  (23) 
energy

>  <rmsd>  (23) 
1.918313164418515

>  <m_score__min__rmsd>  (23) 
1.918313164418515

>  <meeko>  (23) 
{"free_energy": -9.61, "intermolecular_energy": -11.4, "internal_energy": -1.52, "cluster_size": 32, "cluster_id": 1, "rank_in_cluster": 5}

>  <energy>  (23) 
-9.31

>  <cluster_rmsd>  (23) 
0.64

>  <cluster>  (23) 
1

$$$$

     RDKit          3D

 55 58  0  0  0  0  0  0  0  0999 V2000
  141.1450   73.0500  222.2950 O   0  0  0  0  0  0  0  0  0  0  0  0
  139.9980   72.7770  222.7510 C   0  0  0  0  0  0  0  0  0  0  0  0
  138.8170   73.4500  222.3260 N   0  0  0  0  0  0  0  0  0  0  0  0
  138.8900   74.5250  221.3060 C   0  0  0  0  0  0  0  0  0  0  0  0
  139.5420   75.7000  221.8860 C   0  0  0  0  0  0  0  0  0  0  0  0
  138.9070   76.2190  222.8970 O   0  0  0  0  0  0  0  0  0  0  0  0
  140.7230   76.3560  221.5460 N   0  0  0  0  0  0  0  0  0  0  0  0
  141.7950   75.5190  220.8530 C   0  0  0  0  0  0  0  0  0  0  0  0
  142.2520   76.4080  219.7460 C   0  0  2  0  0  0  0  0  0  0  0  0
  143.6460   76.4030  219.6520 O   0  0  0  0  0  0  0  0  0  0  0  0
  141.7480   77.7930  220.0960 C   0  0  0  0  0  0  0  0  0  0  0  0
  141.3480   77.6140  221.5720 C   0  0  1  0  0  0  0  0  0  0  0  0
  140.6060   78.7970  222.0100 C   0  0  0  0  0  0  0  0  0  0  0  0
  140.4160   79.0330  223.4630 C   0  0  0  0  0  0  0  0  0  0  0  0
  141.8030   79.0130  224.0910 C   0  0  0  0  0  0  0  0  0  0  0  0
  142.5420   80.2080  223.5770 C   0  0  0  0  0  0  0  0  0  0  0  0
  142.5020   80.4210  222.1050 C   0  0  0  0  0  0  0  0  0  0  0  0
  141.1820   80.0980  221.4490 C   0  0  0  0  0  0  0  0  0  0  0  0
  139.8750   71.7190  223.7630 C   0  0  0  0  0  0  0  0  0  0  0  0
  139.1040   70.6040  223.5230 C   0  0  0  0  0  0  0  0  0  0  0  0
  138.9490   69.5800  224.4290 C   0  0  0  0  0  0  0  0  0  0  0  0
  139.6020   69.6860  225.6340 C   0  0  0  0  0  0  0  0  0  0  0  0
  139.4520   68.6680  226.5450 C   0  0  0  0  0  0  0  0  0  0  0  0
  140.1080   68.7630  227.7660 C   0  0  0  0  0  0  0  0  0  0  0  0
  140.8800   69.8790  228.0100 C   0  0  0  0  0  0  0  0  0  0  0  0
  141.0270   70.8920  227.0990 C   0  0  0  0  0  0  0  0  0  0  0  0
  140.3720   70.8050  225.8670 C   0  0  0  0  0  0  0  0  0  0  0  0
  140.5040   71.7980  224.9510 N   0  0  0  0  0  0  0  0  0  0  0  0
  137.9140   73.1620  222.7520 H   0  0  0  0  0  0  0  0  0  0  0  0
  139.4710   74.1720  220.4413 H   0  0  0  0  0  0  0  0  0  0  0  0
  137.8742   74.7917  220.9790 H   0  0  0  0  0  0  0  0  0  0  0  0
  142.6216   75.2874  221.5408 H   0  0  0  0  0  0  0  0  0  0  0  0
  141.4241   74.5449  220.5014 H   0  0  0  0  0  0  0  0  0  0  0  0
  141.8667   76.0699  218.7727 H   0  0  0  0  0  0  0  0  0  0  0  0
  144.0470   77.1820  220.1400 H   0  0  0  0  0  0  0  0  0  0  0  0
  142.5397   78.5484  219.9836 H   0  0  0  0  0  0  0  0  0  0  0  0
  140.9305   78.1476  219.4510 H   0  0  0  0  0  0  0  0  0  0  0  0
  142.1335   77.5809  222.3414 H   0  0  0  0  0  0  0  0  0  0  0  0
  139.6191   78.5340  221.6014 H   0  0  0  0  0  0  0  0  0  0  0  0
  139.9377   80.0094  223.6297 H   0  0  0  0  0  0  0  0  0  0  0  0
  139.7672   78.2645  223.9086 H   0  0  0  0  0  0  0  0  0  0  0  0
  141.7207   79.0640  225.1867 H   0  0  0  0  0  0  0  0  0  0  0  0
  142.3344   78.0855  223.8315 H   0  0  0  0  0  0  0  0  0  0  0  0
  142.1133   81.1000  224.0571 H   0  0  0  0  0  0  0  0  0  0  0  0
  143.5995   80.0276  223.8201 H   0  0  0  0  0  0  0  0  0  0  0  0
  142.7317   81.4784  221.9069 H   0  0  0  0  0  0  0  0  0  0  0  0
  143.2375   79.7258  221.6739 H   0  0  0  0  0  0  0  0  0  0  0  0
  140.4739   80.9182  221.6385 H   0  0  0  0  0  0  0  0  0  0  0  0
  141.3437   79.9770  220.3677 H   0  0  0  0  0  0  0  0  0  0  0  0
  138.5847   70.5277  222.5563 H   0  0  0  0  0  0  0  0  0  0  0  0
  138.3233   68.7056  224.1967 H   0  0  0  0  0  0  0  0  0  0  0  0
  138.8247   67.7949  226.3120 H   0  0  0  0  0  0  0  0  0  0  0  0
  140.0138   67.9673  228.5197 H   0  0  0  0  0  0  0  0  0  0  0  0
  141.3996   69.9595  228.9762 H   0  0  0  0  0  0  0  0  0  0  0  0
  141.6539   71.7646  227.3346 H   0  0  0  0  0  0  0  0  0  0  0  0
  1  2  2  0
  2  3  1  0
  3  4  1  0
  4  5  1  0
  5  6  2  0
  5  7  1  0
  7  8  1  0
  8  9  1  0
  9 10  1  0
  9 11  1  0
 11 12  1  0
 12 13  1  0
 13 14  1  0
 14 15  1  0
 15 16  1  0
 16 17  1  0
 17 18  1  0
  2 19  1  0
 19 20  2  0
 20 21  1  0
 21 22  2  0
 22 23  1  0
 23 24  2  0
 24 25  1  0
 25 26  2  0
 26 27  1  0
 27 28  2  0
 12  7  1  0
 18 13  1  0
 28 19  1  0
 27 22  1  0
  3 29  1  0
  4 30  1  0
  4 31  1  0
  8 32  1  0
  8 33  1  0
  9 34  1  6
 10 35  1  0
 11 36  1  0
 11 37  1  0
 12 38  1  1
 13 39  1  0
 14 40  1  0
 14 41  1  0
 15 42  1  0
 15 43  1  0
 16 44  1  0
 16 45  1  0
 17 46  1  0
 17 47  1  0
 18 48  1  0
 18 49  1  0
 20 50  1  0
 21 51  1  0
 23 52  1  0
 24 53  1  0
 25 54  1  0
 26 55  1  0
M  END
>  <smiles>  (24) 
O=C(NCC(=O)N1C[C@H](O)C[C@H]1C1CCCCC1)c1ccc2ccccc2n1

>  <score_type>  (24) 
oracle

>  <origin>  (24) 
autodockgpu

>  <m_score__min__energy>  (24) 
-9.6799999999999997

>  <m_primary>  (24) 
energy

>  <rmsd>  (24) 
1.9890751253348924

>  <m_score__min__rmsd>  (24) 
1.9890751253348924

>  <meeko>  (24) 
{"free_energy": -9.41, "intermolecular_energy": -11.2, "internal_energy": -1.43, "cluster_size": 32, "cluster_id": 1, "rank_in_cluster": 10}

>  <energy>  (24) 
-9.24

>  <cluster_rmsd>  (24) 
0.66

>  <cluster>  (24) 
1

$$$$

     RDKit          3D

 55 58  0  0  0  0  0  0  0  0999 V2000
  141.0400   74.4270  221.3720 O   0  0  0  0  0  0  0  0  0  0  0  0
  140.0190   74.8860  221.9580 C   0  0  0  0  0  0  0  0  0  0  0  0
  138.8890   74.0840  222.2850 N   0  0  0  0  0  0  0  0  0  0  0  0
  138.8670   72.6400  221.9410 C   0  0  0  0  0  0  0  0  0  0  0  0
  139.4790   71.8750  223.0280 C   0  0  0  0  0  0  0  0  0  0  0  0
  140.7670   72.0350  223.1350 O   0  0  0  0  0  0  0  0  0  0  0  0
  138.9240   71.0080  223.9670 N   0  0  0  0  0  0  0  0  0  0  0  0
  137.4310   70.7260  223.8370 C   0  0  0  0  0  0  0  0  0  0  0  0
  137.3500   69.2480  224.0210 C   0  0  2  0  0  0  0  0  0  0  0  0
  136.2930   68.9130  224.8720 O   0  0  0  0  0  0  0  0  0  0  0  0
  138.6740   68.8380  224.6330 C   0  0  0  0  0  0  0  0  0  0  0  0
  139.2510   70.1970  225.0670 C   0  0  1  0  0  0  0  0  0  0  0  0
  140.6490   70.0170  225.4610 C   0  0  0  0  0  0  0  0  0  0  0  0
  141.4240   71.1920  225.9320 C   0  0  0  0  0  0  0  0  0  0  0  0
  140.6250   71.8100  227.0720 C   0  0  0  0  0  0  0  0  0  0  0  0
  140.6370   70.8330  228.2050 C   0  0  0  0  0  0  0  0  0  0  0  0
  140.2930   69.4270  227.8620 C   0  0  0  0  0  0  0  0  0  0  0  0
  140.8260   68.9440  226.5360 C   0  0  0  0  0  0  0  0  0  0  0  0
  139.9940   76.3110  222.3180 C   0  0  0  0  0  0  0  0  0  0  0  0
  138.8010   76.9920  222.4040 C   0  0  0  0  0  0  0  0  0  0  0  0
  138.7110   78.3250  222.7360 C   0  0  0  0  0  0  0  0  0  0  0  0
  139.8790   79.0010  222.9940 C   0  0  0  0  0  0  0  0  0  0  0  0
  139.7990   80.3330  223.3270 C   0  0  0  0  0  0  0  0  0  0  0  0
  140.9730   81.0270  223.5900 C   0  0  0  0  0  0  0  0  0  0  0  0
  142.1690   80.3470  223.5040 C   0  0  0  0  0  0  0  0  0  0  0  0
  142.2450   79.0210  223.1720 C   0  0  0  0  0  0  0  0  0  0  0  0
  141.0700   78.3120  222.9060 C   0  0  0  0  0  0  0  0  0  0  0  0
  141.1240   76.9970  222.5760 N   0  0  0  0  0  0  0  0  0  0  0  0
  138.0910   74.5430  222.7680 H   0  0  0  0  0  0  0  0  0  0  0  0
  137.8266   72.3114  221.8007 H   0  0  0  0  0  0  0  0  0  0  0  0
  139.4301   72.4740  221.0108 H   0  0  0  0  0  0  0  0  0  0  0  0
  136.8601   71.2530  224.6157 H   0  0  0  0  0  0  0  0  0  0  0  0
  137.0076   71.0671  222.8807 H   0  0  0  0  0  0  0  0  0  0  0  0
  137.1656   68.7325  223.0669 H   0  0  0  0  0  0  0  0  0  0  0  0
  135.4090   68.9840  224.4010 H   0  0  0  0  0  0  0  0  0  0  0  0
  138.5277   68.1707  225.4951 H   0  0  0  0  0  0  0  0  0  0  0  0
  139.3259   68.2736  223.9501 H   0  0  0  0  0  0  0  0  0  0  0  0
  138.8562   70.6843  225.9707 H   0  0  0  0  0  0  0  0  0  0  0  0
  141.0632   69.7391  224.4806 H   0  0  0  0  0  0  0  0  0  0  0  0
  142.4143   70.8748  226.2907 H   0  0  0  0  0  0  0  0  0  0  0  0
  141.5812   71.9160  225.1189 H   0  0  0  0  0  0  0  0  0  0  0  0
  141.0885   72.7567  227.3865 H   0  0  0  0  0  0  0  0  0  0  0  0
  139.5941   72.0241  226.7535 H   0  0  0  0  0  0  0  0  0  0  0  0
  141.6475   70.8351  228.6395 H   0  0  0  0  0  0  0  0  0  0  0  0
  139.8480   71.1701  228.8934 H   0  0  0  0  0  0  0  0  0  0  0  0
  140.6978   68.7750  228.6501 H   0  0  0  0  0  0  0  0  0  0  0  0
  139.1964   69.3899  227.7837 H   0  0  0  0  0  0  0  0  0  0  0  0
  141.8957   68.7098  226.6402 H   0  0  0  0  0  0  0  0  0  0  0  0
  140.2670   68.0456  226.2354 H   0  0  0  0  0  0  0  0  0  0  0  0
  137.8709   76.4425  222.1967 H   0  0  0  0  0  0  0  0  0  0  0  0
  137.7365   78.8320  222.7928 H   0  0  0  0  0  0  0  0  0  0  0  0
  138.8239   80.8390  223.3839 H   0  0  0  0  0  0  0  0  0  0  0  0
  140.9490   82.0930  223.8603 H   0  0  0  0  0  0  0  0  0  0  0  0
  143.1015   80.8927  223.7108 H   0  0  0  0  0  0  0  0  0  0  0  0
  143.2217   78.5181  223.1151 H   0  0  0  0  0  0  0  0  0  0  0  0
  1  2  2  0
  2  3  1  0
  3  4  1  0
  4  5  1  0
  5  6  2  0
  5  7  1  0
  7  8  1  0
  8  9  1  0
  9 10  1  0
  9 11  1  0
 11 12  1  0
 12 13  1  0
 13 14  1  0
 14 15  1  0
 15 16  1  0
 16 17  1  0
 17 18  1  0
  2 19  1  0
 19 20  2  0
 20 21  1  0
 21 22  2  0
 22 23  1  0
 23 24  2  0
 24 25  1  0
 25 26  2  0
 26 27  1  0
 27 28  2  0
 12  7  1  0
 18 13  1  0
 28 19  1  0
 27 22  1  0
  3 29  1  0
  4 30  1  0
  4 31  1  0
  8 32  1  0
  8 33  1  0
  9 34  1  6
 10 35  1  0
 11 36  1  0
 11 37  1  0
 12 38  1  1
 13 39  1  0
 14 40  1  0
 14 41  1  0
 15 42  1  0
 15 43  1  0
 16 44  1  0
 16 45  1  0
 17 46  1  0
 17 47  1  0
 18 48  1  0
 18 49  1  0
 20 50  1  0
 21 51  1  0
 23 52  1  0
 24 53  1  0
 25 54  1  0
 26 55  1  0
M  END
>  <smiles>  (25) 
O=C(NCC(=O)N1C[C@H](O)C[C@H]1C1CCCCC1)c1ccc2ccccc2n1

>  <score_type>  (25) 
oracle

>  <origin>  (25) 
autodockgpu

>  <m_score__min__energy>  (25) 
-9.6799999999999997

>  <m_primary>  (25) 
energy

>  <rmsd>  (25) 
8.35345926591019

>  <m_score__min__rmsd>  (25) 
8.35345926591019

>  <meeko>  (25) 
{"free_energy": -9.14, "intermolecular_energy": -10.93, "internal_energy": -1.3, "cluster_size": 2, "cluster_id": 2, "rank_in_cluster": 2}

>  <energy>  (25) 
-9.21

>  <cluster_rmsd>  (25) 
0.71

>  <cluster>  (25) 
1

$$$$

     RDKit          3D

 55 58  0  0  0  0  0  0  0  0999 V2000
  141.0510   71.5590  221.4580 O   0  0  0  0  0  0  0  0  0  0  0  0
  140.4450   72.0960  222.4280 C   0  0  0  0  0  0  0  0  0  0  0  0
  139.9680   73.4380  222.3930 N   0  0  0  0  0  0  0  0  0  0  0  0
  140.1690   74.2770  221.1860 C   0  0  0  0  0  0  0  0  0  0  0  0
  140.4030   75.6640  221.5940 C   0  0  0  0  0  0  0  0  0  0  0  0
  139.7350   76.0300  222.6500 O   0  0  0  0  0  0  0  0  0  0  0  0
  141.2170   76.6550  221.0520 N   0  0  0  0  0  0  0  0  0  0  0  0
  142.2050   76.2150  219.9760 C   0  0  0  0  0  0  0  0  0  0  0  0
  142.0630   77.2740  218.9340 C   0  0  2  0  0  0  0  0  0  0  0  0
  143.3160   77.6790  218.4670 O   0  0  0  0  0  0  0  0  0  0  0  0
  141.3520   78.4260  219.6150 C   0  0  0  0  0  0  0  0  0  0  0  0
  141.4770   78.0350  221.0990 C   0  0  1  0  0  0  0  0  0  0  0  0
  140.6250   78.9190  221.8960 C   0  0  0  0  0  0  0  0  0  0  0  0
  140.6840   78.8350  223.3770 C   0  0  0  0  0  0  0  0  0  0  0  0
  142.1460   79.0140  223.7640 C   0  0  0  0  0  0  0  0  0  0  0  0
  142.5300   80.4180  223.4200 C   0  0  0  0  0  0  0  0  0  0  0  0
  142.1610   80.8830  222.0550 C   0  0  0  0  0  0  0  0  0  0  0  0
  140.8230   80.3960  221.5550 C   0  0  0  0  0  0  0  0  0  0  0  0
  140.2220   71.3050  223.6450 C   0  0  0  0  0  0  0  0  0  0  0  0
  139.5970   70.0790  223.5810 C   0  0  0  0  0  0  0  0  0  0  0  0
  139.3600   69.2900  224.6830 C   0  0  0  0  0  0  0  0  0  0  0  0
  139.7710   69.7600  225.9070 C   0  0  0  0  0  0  0  0  0  0  0  0
  139.5360   68.9790  227.0150 C   0  0  0  0  0  0  0  0  0  0  0  0
  139.9470   69.4430  228.2580 C   0  0  0  0  0  0  0  0  0  0  0  0
  140.5720   70.6700  228.3250 C   0  0  0  0  0  0  0  0  0  0  0  0
  140.8030   71.4460  227.2200 C   0  0  0  0  0  0  0  0  0  0  0  0
  140.3940   70.9880  225.9640 C   0  0  0  0  0  0  0  0  0  0  0  0
  140.6140   71.7410  224.8570 N   0  0  0  0  0  0  0  0  0  0  0  0
  139.4790   73.8010  223.2370 H   0  0  0  0  0  0  0  0  0  0  0  0
  141.0388   73.9080  220.6227 H   0  0  0  0  0  0  0  0  0  0  0  0
  139.2737   74.2264  220.5489 H   0  0  0  0  0  0  0  0  0  0  0  0
  143.2313   76.1843  220.3708 H   0  0  0  0  0  0  0  0  0  0  0  0
  142.0065   75.2027  219.5941 H   0  0  0  0  0  0  0  0  0  0  0  0
  141.5020   76.9086  218.0612 H   0  0  0  0  0  0  0  0  0  0  0  0
  143.9670   77.7950  219.2220 H   0  0  0  0  0  0  0  0  0  0  0  0
  141.8519   79.3840  219.4091 H   0  0  0  0  0  0  0  0  0  0  0  0
  140.3155   78.5738  219.2775 H   0  0  0  0  0  0  0  0  0  0  0  0
  142.4394   78.1760  221.6127 H   0  0  0  0  0  0  0  0  0  0  0  0
  139.6448   78.5202  221.5958 H   0  0  0  0  0  0  0  0  0  0  0  0
  140.0719   79.6304  223.8271 H   0  0  0  0  0  0  0  0  0  0  0  0
  140.2933   77.8714  223.7360 H   0  0  0  0  0  0  0  0  0  0  0  0
  142.2731   78.8429  224.8432 H   0  0  0  0  0  0  0  0  0  0  0  0
  142.7813   78.2944  223.2268 H   0  0  0  0  0  0  0  0  0  0  0  0
  142.0436   81.0866  224.1455 H   0  0  0  0  0  0  0  0  0  0  0  0
  143.6293   80.4395  223.4519 H   0  0  0  0  0  0  0  0  0  0  0  0
  142.1427   81.9828  222.0626 H   0  0  0  0  0  0  0  0  0  0  0  0
  142.9152   80.4633  221.3731 H   0  0  0  0  0  0  0  0  0  0  0  0
  140.0241   80.9862  222.0276 H   0  0  0  0  0  0  0  0  0  0  0  0
  140.7888   80.5148  220.4620 H   0  0  0  0  0  0  0  0  0  0  0  0
  139.2702   69.7115  222.5970 H   0  0  0  0  0  0  0  0  0  0  0  0
  138.8584   68.3157  224.5874 H   0  0  0  0  0  0  0  0  0  0  0  0
  139.0323   68.0059  226.9184 H   0  0  0  0  0  0  0  0  0  0  0  0
  139.7780   68.8462  229.1665 H   0  0  0  0  0  0  0  0  0  0  0  0
  140.8990   71.0416  229.3073 H   0  0  0  0  0  0  0  0  0  0  0  0
  141.3052   72.4196  227.3199 H   0  0  0  0  0  0  0  0  0  0  0  0
  1  2  2  0
  2  3  1  0
  3  4  1  0
  4  5  1  0
  5  6  2  0
  5  7  1  0
  7  8  1  0
  8  9  1  0
  9 10  1  0
  9 11  1  0
 11 12  1  0
 12 13  1  0
 13 14  1  0
 14 15  1  0
 15 16  1  0
 16 17  1  0
 17 18  1  0
  2 19  1  0
 19 20  2  0
 20 21  1  0
 21 22  2  0
 22 23  1  0
 23 24  2  0
 24 25  1  0
 25 26  2  0
 26 27  1  0
 27 28  2  0
 12  7  1  0
 18 13  1  0
 28 19  1  0
 27 22  1  0
  3 29  1  0
  4 30  1  0
  4 31  1  0
  8 32  1  0
  8 33  1  0
  9 34  1  6
 10 35  1  0
 11 36  1  0
 11 37  1  0
 12 38  1  1
 13 39  1  0
 14 40  1  0
 14 41  1  0
 15 42  1  0
 15 43  1  0
 16 44  1  0
 16 45  1  0
 17 46  1  0
 17 47  1  0
 18 48  1  0
 18 49  1  0
 20 50  1  0
 21 51  1  0
 23 52  1  0
 24 53  1  0
 25 54  1  0
 26 55  1  0
M  END
>  <smiles>  (26) 
O=C(NCC(=O)N1C[C@H](O)C[C@H]1C1CCCCC1)c1ccc2ccccc2n1

>  <score_type>  (26) 
oracle

>  <origin>  (26) 
autodockgpu

>  <m_score__min__energy>  (26) 
-9.6799999999999997

>  <m_primary>  (26) 
energy

>  <rmsd>  (26) 
1.9558695964851431

>  <m_score__min__rmsd>  (26) 
1.9558695964851431

>  <meeko>  (26) 
{"free_energy": -9.39, "intermolecular_energy": -11.18, "internal_energy": -1.82, "cluster_size": 32, "cluster_id": 1, "rank_in_cluster": 15}

>  <energy>  (26) 
-9.19

>  <cluster_rmsd>  (26) 
0.57

>  <cluster>  (26) 
1

$$$$

     RDKit          3D

 55 58  0  0  0  0  0  0  0  0999 V2000
  140.9900   71.4960  221.4500 O   0  0  0  0  0  0  0  0  0  0  0  0
  140.4240   72.0360  222.4420 C   0  0  0  0  0  0  0  0  0  0  0  0
  139.9810   73.3900  222.4360 N   0  0  0  0  0  0  0  0  0  0  0  0
  140.1720   74.2390  221.2350 C   0  0  0  0  0  0  0  0  0  0  0  0
  140.3970   75.6240  221.6520 C   0  0  0  0  0  0  0  0  0  0  0  0
  139.7270   75.9790  222.7100 O   0  0  0  0  0  0  0  0  0  0  0  0
  141.2050   76.6240  221.1150 N   0  0  0  0  0  0  0  0  0  0  0  0
  142.2060   76.1950  220.0470 C   0  0  0  0  0  0  0  0  0  0  0  0
  142.0600   77.2520  219.0040 C   0  0  2  0  0  0  0  0  0  0  0  0
  143.3120   77.6700  218.5460 O   0  0  0  0  0  0  0  0  0  0  0  0
  141.3310   78.3960  219.6790 C   0  0  0  0  0  0  0  0  0  0  0  0
  141.4490   78.0070  221.1640 C   0  0  1  0  0  0  0  0  0  0  0  0
  140.5820   78.8820  221.9540 C   0  0  0  0  0  0  0  0  0  0  0  0
  140.6340   78.8030  223.4360 C   0  0  0  0  0  0  0  0  0  0  0  0
  142.0920   79.0020  223.8290 C   0  0  0  0  0  0  0  0  0  0  0  0
  142.4590   80.4100  223.4830 C   0  0  0  0  0  0  0  0  0  0  0  0
  142.0900   80.8670  222.1150 C   0  0  0  0  0  0  0  0  0  0  0  0
  140.7620   80.3600  221.6100 C   0  0  0  0  0  0  0  0  0  0  0  0
  140.2130   71.2350  223.6560 C   0  0  0  0  0  0  0  0  0  0  0  0
  139.5850   70.0110  223.5880 C   0  0  0  0  0  0  0  0  0  0  0  0
  139.3580   69.2140  224.6870 C   0  0  0  0  0  0  0  0  0  0  0  0
  139.7830   69.6730  225.9100 C   0  0  0  0  0  0  0  0  0  0  0  0
  139.5600   68.8830  227.0130 C   0  0  0  0  0  0  0  0  0  0  0  0
  139.9850   69.3360  228.2560 C   0  0  0  0  0  0  0  0  0  0  0  0
  140.6130   70.5620  228.3260 C   0  0  0  0  0  0  0  0  0  0  0  0
  140.8330   71.3460  227.2250 C   0  0  0  0  0  0  0  0  0  0  0  0
  140.4090   70.8990  225.9700 C   0  0  0  0  0  0  0  0  0  0  0  0
  140.6190   71.6610  224.8670 N   0  0  0  0  0  0  0  0  0  0  0  0
  139.5240   73.7540  223.2970 H   0  0  0  0  0  0  0  0  0  0  0  0
  141.0427   73.8805  220.6663 H   0  0  0  0  0  0  0  0  0  0  0  0
  139.2751   74.1865  220.6004 H   0  0  0  0  0  0  0  0  0  0  0  0
  143.2295   76.1760  220.4496 H   0  0  0  0  0  0  0  0  0  0  0  0
  142.0220   75.1804  219.6638 H   0  0  0  0  0  0  0  0  0  0  0  0
  141.5094   76.8807  218.1271 H   0  0  0  0  0  0  0  0  0  0  0  0
  143.9910   77.6630  219.2850 H   0  0  0  0  0  0  0  0  0  0  0  0
  141.8216   79.3595  219.4765 H   0  0  0  0  0  0  0  0  0  0  0  0
  140.2955   78.5320  219.3335 H   0  0  0  0  0  0  0  0  0  0  0  0
  142.4055   78.1586  221.6856 H   0  0  0  0  0  0  0  0  0  0  0  0
  139.6088   78.4693  221.6497 H   0  0  0  0  0  0  0  0  0  0  0  0
  140.0095   79.5918  223.8807 H   0  0  0  0  0  0  0  0  0  0  0  0
  140.2534   77.8359  223.7963 H   0  0  0  0  0  0  0  0  0  0  0  0
  142.2166   78.8353  224.9091 H   0  0  0  0  0  0  0  0  0  0  0  0
  142.7390   78.2894  223.2965 H   0  0  0  0  0  0  0  0  0  0  0  0
  141.9607   81.0740  224.2047 H   0  0  0  0  0  0  0  0  0  0  0  0
  143.5578   80.4458  223.5195 H   0  0  0  0  0  0  0  0  0  0  0  0
  142.0559   81.9665  222.1201 H   0  0  0  0  0  0  0  0  0  0  0  0
  142.8534   80.4568  221.4375 H   0  0  0  0  0  0  0  0  0  0  0  0
  139.9526   80.9406  222.0768 H   0  0  0  0  0  0  0  0  0  0  0  0
  140.7323   80.4748  220.5164 H   0  0  0  0  0  0  0  0  0  0  0  0
  139.2475   69.6519  222.6046 H   0  0  0  0  0  0  0  0  0  0  0  0
  138.8530   68.2417  224.5892 H   0  0  0  0  0  0  0  0  0  0  0  0
  139.0548   67.9110  226.9134 H   0  0  0  0  0  0  0  0  0  0  0  0
  139.8246   68.7321  229.1613 H   0  0  0  0  0  0  0  0  0  0  0  0
  140.9514   70.9253  229.3076 H   0  0  0  0  0  0  0  0  0  0  0  0
  141.3383   72.3178  227.3270 H   0  0  0  0  0  0  0  0  0  0  0  0
  1  2  2  0
  2  3  1  0
  3  4  1  0
  4  5  1  0
  5  6  2  0
  5  7  1  0
  7  8  1  0
  8  9  1  0
  9 10  1  0
  9 11  1  0
 11 12  1  0
 12 13  1  0
 13 14  1  0
 14 15  1  0
 15 16  1  0
 16 17  1  0
 17 18  1  0
  2 19  1  0
 19 20  2  0
 20 21  1  0
 21 22  2  0
 22 23  1  0
 23 24  2  0
 24 25  1  0
 25 26  2  0
 26 27  1  0
 27 28  2  0
 12  7  1  0
 18 13  1  0
 28 19  1  0
 27 22  1  0
  3 29  1  0
  4 30  1  0
  4 31  1  0
  8 32  1  0
  8 33  1  0
  9 34  1  6
 10 35  1  0
 11 36  1  0
 11 37  1  0
 12 38  1  1
 13 39  1  0
 14 40  1  0
 14 41  1  0
 15 42  1  0
 15 43  1  0
 16 44  1  0
 16 45  1  0
 17 46  1  0
 17 47  1  0
 18 48  1  0
 18 49  1  0
 20 50  1  0
 21 51  1  0
 23 52  1  0
 24 53  1  0
 25 54  1  0
 26 55  1  0
M  END
>  <smiles>  (27) 
O=C(NCC(=O)N1C[C@H](O)C[C@H]1C1CCCCC1)c1ccc2ccccc2n1

>  <score_type>  (27) 
oracle

>  <origin>  (27) 
autodockgpu

>  <m_score__min__energy>  (27) 
-9.6799999999999997

>  <m_primary>  (27) 
energy

>  <rmsd>  (27) 
1.9528063735045615

>  <m_score__min__rmsd>  (27) 
1.9528063735045615

>  <meeko>  (27) 
{"free_energy": -9.38, "intermolecular_energy": -11.17, "internal_energy": -1.83, "cluster_size": 32, "cluster_id": 1, "rank_in_cluster": 16}

>  <energy>  (27) 
-9.09

>  <cluster_rmsd>  (27) 
0.68

>  <cluster>  (27) 
1

$$$$

     RDKit          3D

 55 58  0  0  0  0  0  0  0  0999 V2000
  141.2880   71.7960  221.4820 O   0  0  0  0  0  0  0  0  0  0  0  0
  140.5940   72.3150  222.4010 C   0  0  0  0  0  0  0  0  0  0  0  0
  140.1030   73.6510  222.3380 N   0  0  0  0  0  0  0  0  0  0  0  0
  140.3950   74.5050  221.1610 C   0  0  0  0  0  0  0  0  0  0  0  0
  140.5510   75.8940  221.5970 C   0  0  0  0  0  0  0  0  0  0  0  0
  139.9430   76.1740  222.7140 O   0  0  0  0  0  0  0  0  0  0  0  0
  141.2370   76.9640  221.0270 N   0  0  0  0  0  0  0  0  0  0  0  0
  142.1710   76.6360  219.8660 C   0  0  0  0  0  0  0  0  0  0  0  0
  141.8620   77.7060  218.8730 C   0  0  2  0  0  0  0  0  0  0  0  0
  143.0380   78.2260  218.3260 O   0  0  0  0  0  0  0  0  0  0  0  0
  141.1160   78.7760  219.6430 C   0  0  0  0  0  0  0  0  0  0  0  0
  141.3870   78.3580  221.0990 C   0  0  1  0  0  0  0  0  0  0  0  0
  140.5320   79.1470  221.9880 C   0  0  0  0  0  0  0  0  0  0  0  0
  140.6920   79.0060  223.4570 C   0  0  0  0  0  0  0  0  0  0  0  0
  142.1610   79.2690  223.7610 C   0  0  0  0  0  0  0  0  0  0  0  0
  142.4270   80.7090  223.4590 C   0  0  0  0  0  0  0  0  0  0  0  0
  141.9410   81.2050  222.1430 C   0  0  0  0  0  0  0  0  0  0  0  0
  140.6090   80.6470  221.7030 C   0  0  0  0  0  0  0  0  0  0  0  0
  140.2780   71.5080  223.5880 C   0  0  0  0  0  0  0  0  0  0  0  0
  139.5690   70.3340  223.4690 C   0  0  0  0  0  0  0  0  0  0  0  0
  139.2420   69.5340  224.5410 C   0  0  0  0  0  0  0  0  0  0  0  0
  139.6500   69.9380  225.7890 C   0  0  0  0  0  0  0  0  0  0  0  0
  139.3280   69.1460  226.8660 C   0  0  0  0  0  0  0  0  0  0  0  0
  139.7340   69.5430  228.1330 C   0  0  0  0  0  0  0  0  0  0  0  0
  140.4440   70.7190  228.2550 C   0  0  0  0  0  0  0  0  0  0  0  0
  140.7630   71.5060  227.1800 C   0  0  0  0  0  0  0  0  0  0  0  0
  140.3590   71.1150  225.9000 C   0  0  0  0  0  0  0  0  0  0  0  0
  140.6650   71.8810  224.8230 N   0  0  0  0  0  0  0  0  0  0  0  0
  139.5390   73.9990  223.1400 H   0  0  0  0  0  0  0  0  0  0  0  0
  141.3243   74.1640  220.6812 H   0  0  0  0  0  0  0  0  0  0  0  0
  139.5661   74.4359  220.4412 H   0  0  0  0  0  0  0  0  0  0  0  0
  143.2240   76.6812  220.1809 H   0  0  0  0  0  0  0  0  0  0  0  0
  142.0271   75.6208  219.4677 H   0  0  0  0  0  0  0  0  0  0  0  0
  141.2655   77.3184  218.0340 H   0  0  0  0  0  0  0  0  0  0  0  0
  142.8630   78.6760  217.4460 H   0  0  0  0  0  0  0  0  0  0  0  0
  141.5194   79.7773  219.4315 H   0  0  0  0  0  0  0  0  0  0  0  0
  140.0478   78.8460  219.3897 H   0  0  0  0  0  0  0  0  0  0  0  0
  142.3720   78.5653  221.5425 H   0  0  0  0  0  0  0  0  0  0  0  0
  139.5631   78.6935  221.7320 H   0  0  0  0  0  0  0  0  0  0  0  0
  140.0591   79.7381  223.9799 H   0  0  0  0  0  0  0  0  0  0  0  0
  140.3898   78.0037  223.7949 H   0  0  0  0  0  0  0  0  0  0  0  0
  142.3688   79.0622  224.8212 H   0  0  0  0  0  0  0  0  0  0  0  0
  142.8069   78.6181  223.1534 H   0  0  0  0  0  0  0  0  0  0  0  0
  141.9449   81.3110  224.2434 H   0  0  0  0  0  0  0  0  0  0  0  0
  143.5222   80.8048  223.4234 H   0  0  0  0  0  0  0  0  0  0  0  0
  141.8492   82.2995  222.2036 H   0  0  0  0  0  0  0  0  0  0  0  0
  142.6765   80.8690  221.3972 H   0  0  0  0  0  0  0  0  0  0  0  0
  139.8040   81.1603  222.2493 H   0  0  0  0  0  0  0  0  0  0  0  0
  140.4978   80.8079  220.6205 H   0  0  0  0  0  0  0  0  0  0  0  0
  139.2470   70.0186  222.4656 H   0  0  0  0  0  0  0  0  0  0  0  0
  138.6732   68.6027  224.4027 H   0  0  0  0  0  0  0  0  0  0  0  0
  138.7592   68.2149  226.7263 H   0  0  0  0  0  0  0  0  0  0  0  0
  139.4952   68.9345  229.0177 H   0  0  0  0  0  0  0  0  0  0  0  0
  140.7675   71.0382  229.2567 H   0  0  0  0  0  0  0  0  0  0  0  0
  141.3316   72.4368  227.3226 H   0  0  0  0  0  0  0  0  0  0  0  0
  1  2  2  0
  2  3  1  0
  3  4  1  0
  4  5  1  0
  5  6  2  0
  5  7  1  0
  7  8  1  0
  8  9  1  0
  9 10  1  0
  9 11  1  0
 11 12  1  0
 12 13  1  0
 13 14  1  0
 14 15  1  0
 15 16  1  0
 16 17  1  0
 17 18  1  0
  2 19  1  0
 19 20  2  0
 20 21  1  0
 21 22  2  0
 22 23  1  0
 23 24  2  0
 24 25  1  0
 25 26  2  0
 26 27  1  0
 27 28  2  0
 12  7  1  0
 18 13  1  0
 28 19  1  0
 27 22  1  0
  3 29  1  0
  4 30  1  0
  4 31  1  0
  8 32  1  0
  8 33  1  0
  9 34  1  6
 10 35  1  0
 11 36  1  0
 11 37  1  0
 12 38  1  1
 13 39  1  0
 14 40  1  0
 14 41  1  0
 15 42  1  0
 15 43  1  0
 16 44  1  0
 16 45  1  0
 17 46  1  0
 17 47  1  0
 18 48  1  0
 18 49  1  0
 20 50  1  0
 21 51  1  0
 23 52  1  0
 24 53  1  0
 25 54  1  0
 26 55  1  0
M  END
>  <smiles>  (28) 
O=C(NCC(=O)N1C[C@H](O)C[C@H]1C1CCCCC1)c1ccc2ccccc2n1

>  <score_type>  (28) 
oracle

>  <origin>  (28) 
autodockgpu

>  <m_score__min__energy>  (28) 
-9.6799999999999997

>  <m_primary>  (28) 
energy

>  <rmsd>  (28) 
2.1151362049375413

>  <m_score__min__rmsd>  (28) 
2.1151362049375413

>  <meeko>  (28) 
{"free_energy": -8.93, "intermolecular_energy": -10.72, "internal_energy": -1.87, "cluster_size": 32, "cluster_id": 1, "rank_in_cluster": 30}

>  <energy>  (28) 
-9.05

>  <cluster_rmsd>  (28) 
0.61

>  <cluster>  (28) 
1

$$$$

     RDKit          3D

 55 58  0  0  0  0  0  0  0  0999 V2000
  140.8790   71.4590  221.4140 O   0  0  0  0  0  0  0  0  0  0  0  0
  140.3670   72.0130  222.4280 C   0  0  0  0  0  0  0  0  0  0  0  0
  139.9600   73.3780  222.4390 N   0  0  0  0  0  0  0  0  0  0  0  0
  140.1250   74.2230  221.2310 C   0  0  0  0  0  0  0  0  0  0  0  0
  140.3950   75.6030  221.6380 C   0  0  0  0  0  0  0  0  0  0  0  0
  139.7700   75.9740  222.7180 O   0  0  0  0  0  0  0  0  0  0  0  0
  141.2070   76.5840  221.0720 N   0  0  0  0  0  0  0  0  0  0  0  0
  142.2080   76.1190  220.0200 C   0  0  0  0  0  0  0  0  0  0  0  0
  142.0670   77.1450  218.9450 C   0  0  2  0  0  0  0  0  0  0  0  0
  143.3210   77.5450  218.4770 O   0  0  0  0  0  0  0  0  0  0  0  0
  141.3410   78.3110  219.5840 C   0  0  0  0  0  0  0  0  0  0  0  0
  141.4550   77.9670  221.0800 C   0  0  1  0  0  0  0  0  0  0  0  0
  140.5890   78.8670  221.8420 C   0  0  0  0  0  0  0  0  0  0  0  0
  140.5940   78.7910  223.3250 C   0  0  0  0  0  0  0  0  0  0  0  0
  142.0440   78.9490  223.7630 C   0  0  0  0  0  0  0  0  0  0  0  0
  142.4610   80.3460  223.4260 C   0  0  0  0  0  0  0  0  0  0  0  0
  142.1470   80.8090  222.0470 C   0  0  0  0  0  0  0  0  0  0  0  0
  140.8210   80.3390  221.5010 C   0  0  0  0  0  0  0  0  0  0  0  0
  140.1840   71.2170  223.6490 C   0  0  0  0  0  0  0  0  0  0  0  0
  139.5820   69.9790  223.5960 C   0  0  0  0  0  0  0  0  0  0  0  0
  139.3820   69.1860  224.7030 C   0  0  0  0  0  0  0  0  0  0  0  0
  139.8080   69.6640  225.9190 C   0  0  0  0  0  0  0  0  0  0  0  0
  139.6110   68.8780  227.0300 C   0  0  0  0  0  0  0  0  0  0  0  0
  140.0370   69.3490  228.2650 C   0  0  0  0  0  0  0  0  0  0  0  0
  140.6390   70.5890  228.3210 C   0  0  0  0  0  0  0  0  0  0  0  0
  140.8330   71.3690  227.2120 C   0  0  0  0  0  0  0  0  0  0  0  0
  140.4080   70.9030  225.9640 C   0  0  0  0  0  0  0  0  0  0  0  0
  140.5910   71.6610  224.8530 N   0  0  0  0  0  0  0  0  0  0  0  0
  139.5470   73.7540  223.3170 H   0  0  0  0  0  0  0  0  0  0  0  0
  140.9662   73.8458  220.6310 H   0  0  0  0  0  0  0  0  0  0  0  0
  139.2042   74.1899  220.6301 H   0  0  0  0  0  0  0  0  0  0  0  0
  143.2307   76.1086  220.4248 H   0  0  0  0  0  0  0  0  0  0  0  0
  142.0215   75.0938  219.6677 H   0  0  0  0  0  0  0  0  0  0  0  0
  141.5165   76.7493  218.0788 H   0  0  0  0  0  0  0  0  0  0  0  0
  143.9160   77.8370  219.2310 H   0  0  0  0  0  0  0  0  0  0  0  0
  141.8353   79.2662  219.3533 H   0  0  0  0  0  0  0  0  0  0  0  0
  140.3065   78.4397  219.2328 H   0  0  0  0  0  0  0  0  0  0  0  0
  142.4110   78.1323  221.5983 H   0  0  0  0  0  0  0  0  0  0  0  0
  139.6144   78.4801  221.5096 H   0  0  0  0  0  0  0  0  0  0  0  0
  139.9792   79.5988  223.7487 H   0  0  0  0  0  0  0  0  0  0  0  0
  140.1753   77.8359  223.6750 H   0  0  0  0  0  0  0  0  0  0  0  0
  142.1302   78.7815  224.8467 H   0  0  0  0  0  0  0  0  0  0  0  0
  142.6870   78.2168  223.2526 H   0  0  0  0  0  0  0  0  0  0  0  0
  141.9596   81.0255  224.1309 H   0  0  0  0  0  0  0  0  0  0  0  0
  143.5587   80.3515  223.4964 H   0  0  0  0  0  0  0  0  0  0  0  0
  142.1442   81.9090  222.0491 H   0  0  0  0  0  0  0  0  0  0  0  0
  142.9186   80.3745  221.3945 H   0  0  0  0  0  0  0  0  0  0  0  0
  140.0142   80.9434  221.9413 H   0  0  0  0  0  0  0  0  0  0  0  0
  140.8282   80.4523  220.4069 H   0  0  0  0  0  0  0  0  0  0  0  0
  139.2437   69.6049  222.6184 H   0  0  0  0  0  0  0  0  0  0  0  0
  138.8973   68.2023  224.6173 H   0  0  0  0  0  0  0  0  0  0  0  0
  139.1253   67.8950  226.9422 H   0  0  0  0  0  0  0  0  0  0  0  0
  139.8979   68.7483  229.1759 H   0  0  0  0  0  0  0  0  0  0  0  0
  140.9773   70.9670  229.2970 H   0  0  0  0  0  0  0  0  0  0  0  0
  141.3182   72.3521  227.3022 H   0  0  0  0  0  0  0  0  0  0  0  0
  1  2  2  0
  2  3  1  0
  3  4  1  0
  4  5  1  0
  5  6  2  0
  5  7  1  0
  7  8  1  0
  8  9  1  0
  9 10  1  0
  9 11  1  0
 11 12  1  0
 12 13  1  0
 13 14  1  0
 14 15  1  0
 15 16  1  0
 16 17  1  0
 17 18  1  0
  2 19  1  0
 19 20  2  0
 20 21  1  0
 21 22  2  0
 22 23  1  0
 23 24  2  0
 24 25  1  0
 25 26  2  0
 26 27  1  0
 27 28  2  0
 12  7  1  0
 18 13  1  0
 28 19  1  0
 27 22  1  0
  3 29  1  0
  4 30  1  0
  4 31  1  0
  8 32  1  0
  8 33  1  0
  9 34  1  6
 10 35  1  0
 11 36  1  0
 11 37  1  0
 12 38  1  1
 13 39  1  0
 14 40  1  0
 14 41  1  0
 15 42  1  0
 15 43  1  0
 16 44  1  0
 16 45  1  0
 17 46  1  0
 17 47  1  0
 18 48  1  0
 18 49  1  0
 20 50  1  0
 21 51  1  0
 23 52  1  0
 24 53  1  0
 25 54  1  0
 26 55  1  0
M  END
>  <smiles>  (29) 
O=C(NCC(=O)N1C[C@H](O)C[C@H]1C1CCCCC1)c1ccc2ccccc2n1

>  <score_type>  (29) 
oracle

>  <origin>  (29) 
autodockgpu

>  <m_score__min__energy>  (29) 
-9.6799999999999997

>  <m_primary>  (29) 
energy

>  <rmsd>  (29) 
1.9073721499052896

>  <m_score__min__rmsd>  (29) 
1.9073721499052896

>  <meeko>  (29) 
{"free_energy": -9.37, "intermolecular_energy": -11.16, "internal_energy": -1.84, "cluster_size": 32, "cluster_id": 1, "rank_in_cluster": 19}

>  <energy>  (29) 
-8.96

>  <cluster_rmsd>  (29) 
0.81

>  <cluster>  (29) 
1

$$$$

     RDKit          3D

 55 58  0  0  0  0  0  0  0  0999 V2000
  135.7690   77.3340  223.2690 O   0  0  0  0  0  0  0  0  0  0  0  0
  136.1770   76.1560  223.4740 C   0  0  0  0  0  0  0  0  0  0  0  0
  137.3590   75.6330  222.8750 N   0  0  0  0  0  0  0  0  0  0  0  0
  138.1760   76.4730  221.9650 C   0  0  0  0  0  0  0  0  0  0  0  0
  139.5500   75.9670  221.9430 C   0  0  0  0  0  0  0  0  0  0  0  0
  139.6730   74.7360  222.3490 O   0  0  0  0  0  0  0  0  0  0  0  0
  140.7450   76.5730  221.5620 N   0  0  0  0  0  0  0  0  0  0  0  0
  141.7670   75.6850  220.8590 C   0  0  0  0  0  0  0  0  0  0  0  0
  142.2280   76.5360  219.7230 C   0  0  2  0  0  0  0  0  0  0  0  0
  143.6180   76.4780  219.5950 O   0  0  0  0  0  0  0  0  0  0  0  0
  141.7840   77.9450  220.0600 C   0  0  0  0  0  0  0  0  0  0  0  0
  141.4150   77.8080  221.5480 C   0  0  1  0  0  0  0  0  0  0  0  0
  140.7280   79.0250  221.9820 C   0  0  0  0  0  0  0  0  0  0  0  0
  140.3850   79.1890  223.4170 C   0  0  0  0  0  0  0  0  0  0  0  0
  141.6810   79.0030  224.1960 C   0  0  0  0  0  0  0  0  0  0  0  0
  142.5740   80.1540  223.8570 C   0  0  0  0  0  0  0  0  0  0  0  0
  142.7290   80.4590  222.4080 C   0  0  0  0  0  0  0  0  0  0  0  0
  141.4750   80.2990  221.5850 C   0  0  0  0  0  0  0  0  0  0  0  0
  135.4010   75.2850  224.3680 C   0  0  0  0  0  0  0  0  0  0  0  0
  134.5870   75.8250  225.3390 C   0  0  0  0  0  0  0  0  0  0  0  0
  133.8360   75.0640  226.2060 C   0  0  0  0  0  0  0  0  0  0  0  0
  133.9090   73.6970  226.0880 C   0  0  0  0  0  0  0  0  0  0  0  0
  133.1620   72.9300  226.9510 C   0  0  0  0  0  0  0  0  0  0  0  0
  133.2280   71.5470  226.8410 C   0  0  0  0  0  0  0  0  0  0  0  0
  134.0430   71.0040  225.8700 C   0  0  0  0  0  0  0  0  0  0  0  0
  134.7860   71.7720  225.0130 C   0  0  0  0  0  0  0  0  0  0  0  0
  134.7260   73.1650  225.1140 C   0  0  0  0  0  0  0  0  0  0  0  0
  135.4540   73.9430  224.2740 N   0  0  0  0  0  0  0  0  0  0  0  0
  137.6230   74.6520  223.0980 H   0  0  0  0  0  0  0  0  0  0  0  0
  137.7535   76.4336  220.9501 H   0  0  0  0  0  0  0  0  0  0  0  0
  138.1721   77.5137  222.3212 H   0  0  0  0  0  0  0  0  0  0  0  0
  142.6020   75.4358  221.5303 H   0  0  0  0  0  0  0  0  0  0  0  0
  141.3517   74.7191  220.5357 H   0  0  0  0  0  0  0  0  0  0  0  0
  141.8064   76.1947  218.7661 H   0  0  0  0  0  0  0  0  0  0  0  0
  144.0600   77.2440  220.0690 H   0  0  0  0  0  0  0  0  0  0  0  0
  142.5998   78.6683  219.9141 H   0  0  0  0  0  0  0  0  0  0  0  0
  140.9638   78.3178  219.4289 H   0  0  0  0  0  0  0  0  0  0  0  0
  142.2180   77.7606  222.2983 H   0  0  0  0  0  0  0  0  0  0  0  0
  139.7787   78.8789  221.4459 H   0  0  0  0  0  0  0  0  0  0  0  0
  139.9743   80.1934  223.5971 H   0  0  0  0  0  0  0  0  0  0  0  0
  139.6246   78.4584  223.7301 H   0  0  0  0  0  0  0  0  0  0  0  0
  141.4728   78.9937  225.2761 H   0  0  0  0  0  0  0  0  0  0  0  0
  142.1598   78.0484  223.9324 H   0  0  0  0  0  0  0  0  0  0  0  0
  142.1671   81.0506  224.3474 H   0  0  0  0  0  0  0  0  0  0  0  0
  143.5757   79.8632  224.2062 H   0  0  0  0  0  0  0  0  0  0  0  0
  143.0688   81.5009  222.3131 H   0  0  0  0  0  0  0  0  0  0  0  0
  143.4499   79.7269  222.0152 H   0  0  0  0  0  0  0  0  0  0  0  0
  140.8209   81.1678  221.7506 H   0  0  0  0  0  0  0  0  0  0  0  0
  141.7547   80.2293  220.5234 H   0  0  0  0  0  0  0  0  0  0  0  0
  134.5344   76.9203  225.4261 H   0  0  0  0  0  0  0  0  0  0  0  0
  133.1982   75.5349  226.9685 H   0  0  0  0  0  0  0  0  0  0  0  0
  132.5249   73.4024  227.7132 H   0  0  0  0  0  0  0  0  0  0  0  0
  132.6441   70.9002  227.5124 H   0  0  0  0  0  0  0  0  0  0  0  0
  134.0987   69.9091  225.7800 H   0  0  0  0  0  0  0  0  0  0  0  0
  135.4237   71.2973  224.2527 H   0  0  0  0  0  0  0  0  0  0  0  0
  1  2  2  0
  2  3  1  0
  3  4  1  0
  4  5  1  0
  5  6  2  0
  5  7  1  0
  7  8  1  0
  8  9  1  0
  9 10  1  0
  9 11  1  0
 11 12  1  0
 12 13  1  0
 13 14  1  0
 14 15  1  0
 15 16  1  0
 16 17  1  0
 17 18  1  0
  2 19  1  0
 19 20  2  0
 20 21  1  0
 21 22  2  0
 22 23  1  0
 23 24  2  0
 24 25  1  0
 25 26  2  0
 26 27  1  0
 27 28  2  0
 12  7  1  0
 18 13  1  0
 28 19  1  0
 27 22  1  0
  3 29  1  0
  4 30  1  0
  4 31  1  0
  8 32  1  0
  8 33  1  0
  9 34  1  6
 10 35  1  0
 11 36  1  0
 11 37  1  0
 12 38  1  1
 13 39  1  0
 14 40  1  0
 14 41  1  0
 15 42  1  0
 15 43  1  0
 16 44  1  0
 16 45  1  0
 17 46  1  0
 17 47  1  0
 18 48  1  0
 18 49  1  0
 20 50  1  0
 21 51  1  0
 23 52  1  0
 24 53  1  0
 25 54  1  0
 26 55  1  0
M  END
>  <smiles>  (30) 
O=C(NCC(=O)N1C[C@H](O)C[C@H]1C1CCCCC1)c1ccc2ccccc2n1

>  <score_type>  (30) 
oracle

>  <origin>  (30) 
autodockgpu

>  <m_score__min__energy>  (30) 
-9.6799999999999997

>  <m_primary>  (30) 
energy

>  <rmsd>  (30) 
5.603085722685376

>  <m_score__min__rmsd>  (30) 
5.603085722685376

>  <meeko>  (30) 
{"free_energy": -8.29, "intermolecular_energy": -10.08, "internal_energy": -2.15, "cluster_size": 14, "cluster_id": 4, "rank_in_cluster": 9}

>  <energy>  (30) 
-8.93

>  <cluster_rmsd>  (30) 
0.85

>  <cluster>  (30) 
1

$$$$

     RDKit          3D

 55 58  0  0  0  0  0  0  0  0999 V2000
  135.7800   77.2490  223.2160 O   0  0  0  0  0  0  0  0  0  0  0  0
  136.1780   76.0680  223.4250 C   0  0  0  0  0  0  0  0  0  0  0  0
  137.3470   75.5280  222.8190 N   0  0  0  0  0  0  0  0  0  0  0  0
  138.1650   76.3520  221.8950 C   0  0  0  0  0  0  0  0  0  0  0  0
  139.5500   75.8800  221.9220 C   0  0  0  0  0  0  0  0  0  0  0  0
  139.6900   74.6580  222.3500 O   0  0  0  0  0  0  0  0  0  0  0  0
  140.7420   76.5090  221.5670 N   0  0  0  0  0  0  0  0  0  0  0  0
  141.7860   75.6470  220.8640 C   0  0  0  0  0  0  0  0  0  0  0  0
  142.2500   76.5230  219.7490 C   0  0  2  0  0  0  0  0  0  0  0  0
  143.6430   76.4860  219.6400 O   0  0  0  0  0  0  0  0  0  0  0  0
  141.7810   77.9190  220.1030 C   0  0  0  0  0  0  0  0  0  0  0  0
  141.3950   77.7520  221.5830 C   0  0  1  0  0  0  0  0  0  0  0  0
  140.6840   78.9530  222.0270 C   0  0  0  0  0  0  0  0  0  0  0  0
  140.3880   79.1240  223.4720 C   0  0  0  0  0  0  0  0  0  0  0  0
  141.7170   78.9890  224.2060 C   0  0  0  0  0  0  0  0  0  0  0  0
  142.5590   80.1640  223.8200 C   0  0  0  0  0  0  0  0  0  0  0  0
  142.6520   80.4550  222.3640 C   0  0  0  0  0  0  0  0  0  0  0  0
  141.3740   80.2440  221.5880 C   0  0  0  0  0  0  0  0  0  0  0  0
  135.4010   75.2130  224.3330 C   0  0  0  0  0  0  0  0  0  0  0  0
  134.6140   75.7680  225.3180 C   0  0  0  0  0  0  0  0  0  0  0  0
  133.8640   75.0230  226.1990 C   0  0  0  0  0  0  0  0  0  0  0  0
  133.9090   73.6540  226.0800 C   0  0  0  0  0  0  0  0  0  0  0  0
  133.1630   72.9020  226.9560 C   0  0  0  0  0  0  0  0  0  0  0  0
  133.2000   71.5180  226.8470 C   0  0  0  0  0  0  0  0  0  0  0  0
  133.9880   70.9590  225.8620 C   0  0  0  0  0  0  0  0  0  0  0  0
  134.7300   71.7120  224.9920 C   0  0  0  0  0  0  0  0  0  0  0  0
  134.6990   73.1070  225.0930 C   0  0  0  0  0  0  0  0  0  0  0  0
  135.4270   73.8700  224.2400 N   0  0  0  0  0  0  0  0  0  0  0  0
  137.6030   74.5460  223.0470 H   0  0  0  0  0  0  0  0  0  0  0  0
  137.7666   76.2634  220.8735 H   0  0  0  0  0  0  0  0  0  0  0  0
  138.1288   77.4050  222.2109 H   0  0  0  0  0  0  0  0  0  0  0  0
  142.6153   75.3984  221.5426 H   0  0  0  0  0  0  0  0  0  0  0  0
  141.3890   74.6808  220.5193 H   0  0  0  0  0  0  0  0  0  0  0  0
  141.8468   76.1926  218.7804 H   0  0  0  0  0  0  0  0  0  0  0  0
  144.0660   77.2720  220.0990 H   0  0  0  0  0  0  0  0  0  0  0  0
  142.5878   78.6564  219.9797 H   0  0  0  0  0  0  0  0  0  0  0  0
  140.9636   78.2902  219.4673 H   0  0  0  0  0  0  0  0  0  0  0  0
  142.1886   77.7028  222.3431 H   0  0  0  0  0  0  0  0  0  0  0  0
  139.7212   78.7704  221.5274 H   0  0  0  0  0  0  0  0  0  0  0  0
  139.9519   80.1171  223.6555 H   0  0  0  0  0  0  0  0  0  0  0  0
  139.6634   78.3734  223.8207 H   0  0  0  0  0  0  0  0  0  0  0  0
  141.5484   78.9874  225.2930 H   0  0  0  0  0  0  0  0  0  0  0  0
  142.2166   78.0465  223.9374 H   0  0  0  0  0  0  0  0  0  0  0  0
  142.1408   81.0534  224.3140 H   0  0  0  0  0  0  0  0  0  0  0  0
  143.5817   79.9098  224.1355 H   0  0  0  0  0  0  0  0  0  0  0  0
  142.9540   81.5060  222.2447 H   0  0  0  0  0  0  0  0  0  0  0  0
  143.3819   79.7415  221.9540 H   0  0  0  0  0  0  0  0  0  0  0  0
  140.6984   81.0935  221.7665 H   0  0  0  0  0  0  0  0  0  0  0  0
  141.6175   80.1693  220.5179 H   0  0  0  0  0  0  0  0  0  0  0  0
  134.5835   76.8641  225.4049 H   0  0  0  0  0  0  0  0  0  0  0  0
  133.2492   75.5065  226.9724 H   0  0  0  0  0  0  0  0  0  0  0  0
  132.5484   73.3872  227.7286 H   0  0  0  0  0  0  0  0  0  0  0  0
  132.6155   70.8831  227.5291 H   0  0  0  0  0  0  0  0  0  0  0  0
  134.0215   69.8632  225.7720 H   0  0  0  0  0  0  0  0  0  0  0  0
  135.3447   71.2247  224.2209 H   0  0  0  0  0  0  0  0  0  0  0  0
  1  2  2  0
  2  3  1  0
  3  4  1  0
  4  5  1  0
  5  6  2  0
  5  7  1  0
  7  8  1  0
  8  9  1  0
  9 10  1  0
  9 11  1  0
 11 12  1  0
 12 13  1  0
 13 14  1  0
 14 15  1  0
 15 16  1  0
 16 17  1  0
 17 18  1  0
  2 19  1  0
 19 20  2  0
 20 21  1  0
 21 22  2  0
 22 23  1  0
 23 24  2  0
 24 25  1  0
 25 26  2  0
 26 27  1  0
 27 28  2  0
 12  7  1  0
 18 13  1  0
 28 19  1  0
 27 22  1  0
  3 29  1  0
  4 30  1  0
  4 31  1  0
  8 32  1  0
  8 33  1  0
  9 34  1  6
 10 35  1  0
 11 36  1  0
 11 37  1  0
 12 38  1  1
 13 39  1  0
 14 40  1  0
 14 41  1  0
 15 42  1  0
 15 43  1  0
 16 44  1  0
 16 45  1  0
 17 46  1  0
 17 47  1  0
 18 48  1  0
 18 49  1  0
 20 50  1  0
 21 51  1  0
 23 52  1  0
 24 53  1  0
 25 54  1  0
 26 55  1  0
M  END
>  <smiles>  (31) 
O=C(NCC(=O)N1C[C@H](O)C[C@H]1C1CCCCC1)c1ccc2ccccc2n1

>  <score_type>  (31) 
oracle

>  <origin>  (31) 
autodockgpu

>  <m_score__min__energy>  (31) 
-9.6799999999999997

>  <m_primary>  (31) 
energy

>  <rmsd>  (31) 
5.582570233048272

>  <m_score__min__rmsd>  (31) 
5.582570233048272

>  <meeko>  (31) 
{"free_energy": -8.31, "intermolecular_energy": -10.1, "internal_energy": -2.13, "cluster_size": 14, "cluster_id": 4, "rank_in_cluster": 2}

>  <energy>  (31) 
-8.92

>  <cluster_rmsd>  (31) 
0.84

>  <cluster>  (31) 
1

$$$$

     RDKit          3D

 55 58  0  0  0  0  0  0  0  0999 V2000
  141.3220   71.8270  221.5760 O   0  0  0  0  0  0  0  0  0  0  0  0
  140.5530   72.2900  222.4650 C   0  0  0  0  0  0  0  0  0  0  0  0
  139.9350   73.5690  222.3630 N   0  0  0  0  0  0  0  0  0  0  0  0
  140.1760   74.4290  221.1780 C   0  0  0  0  0  0  0  0  0  0  0  0
  140.3310   75.8180  221.6120 C   0  0  0  0  0  0  0  0  0  0  0  0
  139.6190   76.1350  222.6540 O   0  0  0  0  0  0  0  0  0  0  0  0
  141.1090   76.8570  221.1050 N   0  0  0  0  0  0  0  0  0  0  0  0
  142.0670   76.5030  219.9710 C   0  0  0  0  0  0  0  0  0  0  0  0
  141.8710   77.6210  219.0030 C   0  0  2  0  0  0  0  0  0  0  0  0
  143.1000   78.0770  218.5210 O   0  0  0  0  0  0  0  0  0  0  0  0
  141.1650   78.7150  219.7780 C   0  0  0  0  0  0  0  0  0  0  0  0
  141.3470   78.2360  221.2300 C   0  0  1  0  0  0  0  0  0  0  0  0
  140.5090   79.0520  222.1090 C   0  0  0  0  0  0  0  0  0  0  0  0
  140.7310   78.9960  223.5750 C   0  0  0  0  0  0  0  0  0  0  0  0
  142.2050   79.3090  223.8030 C   0  0  0  0  0  0  0  0  0  0  0  0
  142.4220   80.7360  223.4130 C   0  0  0  0  0  0  0  0  0  0  0  0
  141.8710   81.1470  222.0930 C   0  0  0  0  0  0  0  0  0  0  0  0
  140.5370   80.5360  221.7410 C   0  0  0  0  0  0  0  0  0  0  0  0
  140.2840   71.4750  223.6570 C   0  0  0  0  0  0  0  0  0  0  0  0
  139.6070   70.2800  223.5520 C   0  0  0  0  0  0  0  0  0  0  0  0
  139.3240   69.4720  224.6300 C   0  0  0  0  0  0  0  0  0  0  0  0
  139.7430   69.8890  225.8700 C   0  0  0  0  0  0  0  0  0  0  0  0
  139.4630   69.0880  226.9530 C   0  0  0  0  0  0  0  0  0  0  0  0
  139.8820   69.4970  228.2120 C   0  0  0  0  0  0  0  0  0  0  0  0
  140.5590   70.6940  228.3200 C   0  0  0  0  0  0  0  0  0  0  0  0
  140.8350   71.4890  227.2400 C   0  0  0  0  0  0  0  0  0  0  0  0
  140.4190   71.0850  225.9680 C   0  0  0  0  0  0  0  0  0  0  0  0
  140.6820   71.8590  224.8850 N   0  0  0  0  0  0  0  0  0  0  0  0
  139.3150   73.8720  223.1410 H   0  0  0  0  0  0  0  0  0  0  0  0
  141.0918   74.0999  220.6652 H   0  0  0  0  0  0  0  0  0  0  0  0
  139.3235   74.3517  220.4871 H   0  0  0  0  0  0  0  0  0  0  0  0
  143.1067   76.4676  220.3286 H   0  0  0  0  0  0  0  0  0  0  0  0
  141.8729   75.5126  219.5336 H   0  0  0  0  0  0  0  0  0  0  0  0
  141.2860   77.3002  218.1285 H   0  0  0  0  0  0  0  0  0  0  0  0
  143.8440   77.8700  219.1620 H   0  0  0  0  0  0  0  0  0  0  0  0
  141.6416   79.6930  219.6156 H   0  0  0  0  0  0  0  0  0  0  0  0
  140.1152   78.8636  219.4850 H   0  0  0  0  0  0  0  0  0  0  0  0
  142.3237   78.3640  221.7195 H   0  0  0  0  0  0  0  0  0  0  0  0
  139.5426   78.5627  221.9177 H   0  0  0  0  0  0  0  0  0  0  0  0
  140.1015   79.7413  224.0832 H   0  0  0  0  0  0  0  0  0  0  0  0
  140.4676   78.0074  223.9792 H   0  0  0  0  0  0  0  0  0  0  0  0
  142.4607   79.1655  224.8632 H   0  0  0  0  0  0  0  0  0  0  0  0
  142.8421   78.6407  223.2051 H   0  0  0  0  0  0  0  0  0  0  0  0
  141.9565   81.3689  224.1829 H   0  0  0  0  0  0  0  0  0  0  0  0
  143.5121   80.8555  223.3273 H   0  0  0  0  0  0  0  0  0  0  0  0
  141.7549   82.2409  222.0972 H   0  0  0  0  0  0  0  0  0  0  0  0
  142.5836   80.7865  221.3365 H   0  0  0  0  0  0  0  0  0  0  0  0
  139.7428   81.0601  222.2929 H   0  0  0  0  0  0  0  0  0  0  0  0
  140.3773   80.6350  220.6572 H   0  0  0  0  0  0  0  0  0  0  0  0
  139.2753   69.9545  222.5550 H   0  0  0  0  0  0  0  0  0  0  0  0
  138.7805   68.5241  224.5027 H   0  0  0  0  0  0  0  0  0  0  0  0
  138.9175   68.1415  226.8239 H   0  0  0  0  0  0  0  0  0  0  0  0
  139.6792   68.8819  229.1011 H   0  0  0  0  0  0  0  0  0  0  0  0
  140.8910   71.0236  229.3155 H   0  0  0  0  0  0  0  0  0  0  0  0
  141.3786   72.4361  227.3719 H   0  0  0  0  0  0  0  0  0  0  0  0
  1  2  2  0
  2  3  1  0
  3  4  1  0
  4  5  1  0
  5  6  2  0
  5  7  1  0
  7  8  1  0
  8  9  1  0
  9 10  1  0
  9 11  1  0
 11 12  1  0
 12 13  1  0
 13 14  1  0
 14 15  1  0
 15 16  1  0
 16 17  1  0
 17 18  1  0
  2 19  1  0
 19 20  2  0
 20 21  1  0
 21 22  2  0
 22 23  1  0
 23 24  2  0
 24 25  1  0
 25 26  2  0
 26 27  1  0
 27 28  2  0
 12  7  1  0
 18 13  1  0
 28 19  1  0
 27 22  1  0
  3 29  1  0
  4 30  1  0
  4 31  1  0
  8 32  1  0
  8 33  1  0
  9 34  1  6
 10 35  1  0
 11 36  1  0
 11 37  1  0
 12 38  1  1
 13 39  1  0
 14 40  1  0
 14 41  1  0
 15 42  1  0
 15 43  1  0
 16 44  1  0
 16 45  1  0
 17 46  1  0
 17 47  1  0
 18 48  1  0
 18 49  1  0
 20 50  1  0
 21 51  1  0
 23 52  1  0
 24 53  1  0
 25 54  1  0
 26 55  1  0
M  END
>  <smiles>  (32) 
O=C(NCC(=O)N1C[C@H](O)C[C@H]1C1CCCCC1)c1ccc2ccccc2n1

>  <score_type>  (32) 
oracle

>  <origin>  (32) 
autodockgpu

>  <m_score__min__energy>  (32) 
-9.6799999999999997

>  <m_primary>  (32) 
energy

>  <rmsd>  (32) 
2.0567287923559996

>  <m_score__min__rmsd>  (32) 
2.0567287923559996

>  <meeko>  (32) 
{"free_energy": -9.37, "intermolecular_energy": -11.16, "internal_energy": -1.77, "cluster_size": 32, "cluster_id": 1, "rank_in_cluster": 20}

>  <energy>  (32) 
-8.92

>  <cluster_rmsd>  (32) 
0.88

>  <cluster>  (32) 
1

$$$$

     RDKit          3D

 55 58  0  0  0  0  0  0  0  0999 V2000
  135.7890   77.3010  223.2230 O   0  0  0  0  0  0  0  0  0  0  0  0
  136.1990   76.1250  223.4320 C   0  0  0  0  0  0  0  0  0  0  0  0
  137.3810   75.6000  222.8350 N   0  0  0  0  0  0  0  0  0  0  0  0
  138.1970   76.4370  221.9210 C   0  0  0  0  0  0  0  0  0  0  0  0
  139.5750   75.9440  221.9150 C   0  0  0  0  0  0  0  0  0  0  0  0
  139.7060   74.7180  222.3340 O   0  0  0  0  0  0  0  0  0  0  0  0
  140.7680   76.5560  221.5360 N   0  0  0  0  0  0  0  0  0  0  0  0
  141.8030   75.6690  220.8500 C   0  0  0  0  0  0  0  0  0  0  0  0
  142.2650   76.5120  219.7090 C   0  0  2  0  0  0  0  0  0  0  0  0
  143.6570   76.4640  219.5920 O   0  0  0  0  0  0  0  0  0  0  0  0
  141.8060   77.9200  220.0260 C   0  0  0  0  0  0  0  0  0  0  0  0
  141.4270   77.7960  221.5130 C   0  0  1  0  0  0  0  0  0  0  0  0
  140.7260   79.0120  221.9280 C   0  0  0  0  0  0  0  0  0  0  0  0
  140.3680   79.1870  223.3580 C   0  0  0  0  0  0  0  0  0  0  0  0
  141.6580   79.0200  224.1510 C   0  0  0  0  0  0  0  0  0  0  0  0
  142.5450   80.1750  223.8080 C   0  0  0  0  0  0  0  0  0  0  0  0
  142.7110   80.4670  222.3590 C   0  0  0  0  0  0  0  0  0  0  0  0
  141.4660   80.2880  221.5250 C   0  0  0  0  0  0  0  0  0  0  0  0
  135.4240   75.2570  224.3300 C   0  0  0  0  0  0  0  0  0  0  0  0
  134.6250   75.7990  225.3120 C   0  0  0  0  0  0  0  0  0  0  0  0
  133.8750   75.0410  226.1830 C   0  0  0  0  0  0  0  0  0  0  0  0
  133.9350   73.6750  226.0580 C   0  0  0  0  0  0  0  0  0  0  0  0
  133.1900   72.9100  226.9240 C   0  0  0  0  0  0  0  0  0  0  0  0
  133.2410   71.5270  226.8080 C   0  0  0  0  0  0  0  0  0  0  0  0
  134.0410   70.9820  225.8250 C   0  0  0  0  0  0  0  0  0  0  0  0
  134.7820   71.7460  224.9640 C   0  0  0  0  0  0  0  0  0  0  0  0
  134.7370   73.1400  225.0730 C   0  0  0  0  0  0  0  0  0  0  0  0
  135.4640   73.9150  224.2290 N   0  0  0  0  0  0  0  0  0  0  0  0
  137.6460   74.6200  223.0620 H   0  0  0  0  0  0  0  0  0  0  0  0
  137.7825   76.3817  220.9036 H   0  0  0  0  0  0  0  0  0  0  0  0
  138.1808   77.4818  222.2648 H   0  0  0  0  0  0  0  0  0  0  0  0
  142.6350   75.4340  221.5301 H   0  0  0  0  0  0  0  0  0  0  0  0
  141.3985   74.6961  220.5339 H   0  0  0  0  0  0  0  0  0  0  0  0
  141.8534   76.1572  218.7526 H   0  0  0  0  0  0  0  0  0  0  0  0
  144.0890   77.2310  220.0740 H   0  0  0  0  0  0  0  0  0  0  0  0
  142.6163   78.6490  219.8780 H   0  0  0  0  0  0  0  0  0  0  0  0
  140.9875   78.2784  219.3845 H   0  0  0  0  0  0  0  0  0  0  0  0
  142.2247   77.7637  222.2697 H   0  0  0  0  0  0  0  0  0  0  0  0
  139.7831   78.8532  221.3842 H   0  0  0  0  0  0  0  0  0  0  0  0
  139.9469   80.1895  223.5243 H   0  0  0  0  0  0  0  0  0  0  0  0
  139.6110   78.4528  223.6710 H   0  0  0  0  0  0  0  0  0  0  0  0
  141.4397   79.0205  225.2291 H   0  0  0  0  0  0  0  0  0  0  0  0
  142.1470   78.0666  223.9021 H   0  0  0  0  0  0  0  0  0  0  0  0
  142.1265   81.0732  224.2857 H   0  0  0  0  0  0  0  0  0  0  0  0
  143.5458   79.8953  224.1688 H   0  0  0  0  0  0  0  0  0  0  0  0
  143.0426   81.5109  222.2572 H   0  0  0  0  0  0  0  0  0  0  0  0
  143.4419   79.7373  221.9804 H   0  0  0  0  0  0  0  0  0  0  0  0
  140.8031   81.1529  221.6751 H   0  0  0  0  0  0  0  0  0  0  0  0
  141.7566   80.2098  220.4670 H   0  0  0  0  0  0  0  0  0  0  0  0
  134.5839   76.8943  225.4054 H   0  0  0  0  0  0  0  0  0  0  0  0
  133.2485   75.5141  226.9535 H   0  0  0  0  0  0  0  0  0  0  0  0
  132.5649   73.3847  227.6947 H   0  0  0  0  0  0  0  0  0  0  0  0
  132.6584   70.8826  227.4827 H   0  0  0  0  0  0  0  0  0  0  0  0
  134.0853   69.8871  225.7290 H   0  0  0  0  0  0  0  0  0  0  0  0
  135.4064   71.2687  224.1944 H   0  0  0  0  0  0  0  0  0  0  0  0
  1  2  2  0
  2  3  1  0
  3  4  1  0
  4  5  1  0
  5  6  2  0
  5  7  1  0
  7  8  1  0
  8  9  1  0
  9 10  1  0
  9 11  1  0
 11 12  1  0
 12 13  1  0
 13 14  1  0
 14 15  1  0
 15 16  1  0
 16 17  1  0
 17 18  1  0
  2 19  1  0
 19 20  2  0
 20 21  1  0
 21 22  2  0
 22 23  1  0
 23 24  2  0
 24 25  1  0
 25 26  2  0
 26 27  1  0
 27 28  2  0
 12  7  1  0
 18 13  1  0
 28 19  1  0
 27 22  1  0
  3 29  1  0
  4 30  1  0
  4 31  1  0
  8 32  1  0
  8 33  1  0
  9 34  1  6
 10 35  1  0
 11 36  1  0
 11 37  1  0
 12 38  1  1
 13 39  1  0
 14 40  1  0
 14 41  1  0
 15 42  1  0
 15 43  1  0
 16 44  1  0
 16 45  1  0
 17 46  1  0
 17 47  1  0
 18 48  1  0
 18 49  1  0
 20 50  1  0
 21 51  1  0
 23 52  1  0
 24 53  1  0
 25 54  1  0
 26 55  1  0
M  END
>  <smiles>  (33) 
O=C(NCC(=O)N1C[C@H](O)C[C@H]1C1CCCCC1)c1ccc2ccccc2n1

>  <score_type>  (33) 
oracle

>  <origin>  (33) 
autodockgpu

>  <m_score__min__energy>  (33) 
-9.6799999999999997

>  <m_primary>  (33) 
energy

>  <rmsd>  (33) 
5.582394998352432

>  <m_score__min__rmsd>  (33) 
5.582394998352432

>  <meeko>  (33) 
{"free_energy": -8.29, "intermolecular_energy": -10.08, "internal_energy": -2.14, "cluster_size": 14, "cluster_id": 4, "rank_in_cluster": 8}

>  <energy>  (33) 
-9.18

>  <cluster_rmsd>  (33) 
0.0

>  <cluster>  (33) 
2

$$$$

     RDKit          3D

 55 58  0  0  0  0  0  0  0  0999 V2000
  141.1530   71.6930  221.4500 O   0  0  0  0  0  0  0  0  0  0  0  0
  140.4900   72.1990  222.3990 C   0  0  0  0  0  0  0  0  0  0  0  0
  139.9500   73.5160  222.3480 N   0  0  0  0  0  0  0  0  0  0  0  0
  140.1500   74.3660  221.1480 C   0  0  0  0  0  0  0  0  0  0  0  0
  140.3990   75.7460  221.5680 C   0  0  0  0  0  0  0  0  0  0  0  0
  139.7640   76.0980  222.6480 O   0  0  0  0  0  0  0  0  0  0  0  0
  141.1990   76.7430  221.0150 N   0  0  0  0  0  0  0  0  0  0  0  0
  142.2090   76.3030  219.9600 C   0  0  0  0  0  0  0  0  0  0  0  0
  142.0570   77.3370  218.8950 C   0  0  2  0  0  0  0  0  0  0  0  0
  143.3070   77.7590  218.4350 O   0  0  0  0  0  0  0  0  0  0  0  0
  141.3130   78.4870  219.5440 C   0  0  0  0  0  0  0  0  0  0  0  0
  141.4280   78.1290  221.0360 C   0  0  1  0  0  0  0  0  0  0  0  0
  140.5480   79.0100  221.8050 C   0  0  0  0  0  0  0  0  0  0  0  0
  140.4620   78.8390  223.2780 C   0  0  0  0  0  0  0  0  0  0  0  0
  141.8880   78.9170  223.8080 C   0  0  0  0  0  0  0  0  0  0  0  0
  142.3690   80.3160  223.5870 C   0  0  0  0  0  0  0  0  0  0  0  0
  142.1540   80.8770  222.2260 C   0  0  0  0  0  0  0  0  0  0  0  0
  140.8480   80.4920  221.5760 C   0  0  0  0  0  0  0  0  0  0  0  0
  140.2640   71.3960  223.6090 C   0  0  0  0  0  0  0  0  0  0  0  0
  139.6290   70.1760  223.5330 C   0  0  0  0  0  0  0  0  0  0  0  0
  139.3890   69.3780  224.6280 C   0  0  0  0  0  0  0  0  0  0  0  0
  139.8090   69.8310  225.8560 C   0  0  0  0  0  0  0  0  0  0  0  0
  139.5720   69.0400  226.9550 C   0  0  0  0  0  0  0  0  0  0  0  0
  139.9910   69.4870  228.2020 C   0  0  0  0  0  0  0  0  0  0  0  0
  140.6270   70.7080  228.2800 C   0  0  0  0  0  0  0  0  0  0  0  0
  140.8600   71.4940  227.1830 C   0  0  0  0  0  0  0  0  0  0  0  0
  140.4430   71.0530  225.9230 C   0  0  0  0  0  0  0  0  0  0  0  0
  140.6650   71.8160  224.8240 N   0  0  0  0  0  0  0  0  0  0  0  0
  139.4160   73.8540  223.1740 H   0  0  0  0  0  0  0  0  0  0  0  0
  141.0125   73.9952  220.5748 H   0  0  0  0  0  0  0  0  0  0  0  0
  139.2497   74.3299  220.5170 H   0  0  0  0  0  0  0  0  0  0  0  0
  143.2308   76.3027  220.3673 H   0  0  0  0  0  0  0  0  0  0  0  0
  142.0369   75.2791  219.5967 H   0  0  0  0  0  0  0  0  0  0  0  0
  141.5146   76.9424  218.0232 H   0  0  0  0  0  0  0  0  0  0  0  0
  143.9670   77.8320  219.1870 H   0  0  0  0  0  0  0  0  0  0  0  0
  141.7947   79.4512  219.3245 H   0  0  0  0  0  0  0  0  0  0  0  0
  140.2778   78.6054  219.1913 H   0  0  0  0  0  0  0  0  0  0  0  0
  142.3810   78.3015  221.5576 H   0  0  0  0  0  0  0  0  0  0  0  0
  139.5829   78.6812  221.3920 H   0  0  0  0  0  0  0  0  0  0  0  0
  139.8490   79.6394  223.7181 H   0  0  0  0  0  0  0  0  0  0  0  0
  139.9930   77.8790  223.5397 H   0  0  0  0  0  0  0  0  0  0  0  0
  141.9040   78.6787  224.8818 H   0  0  0  0  0  0  0  0  0  0  0  0
  142.5363   78.1958  223.2888 H   0  0  0  0  0  0  0  0  0  0  0  0
  141.8484   80.9672  224.3046 H   0  0  0  0  0  0  0  0  0  0  0  0
  143.4602   80.2767  223.7203 H   0  0  0  0  0  0  0  0  0  0  0  0
  142.1879   81.9740  222.2999 H   0  0  0  0  0  0  0  0  0  0  0  0
  142.9484   80.4569  221.5916 H   0  0  0  0  0  0  0  0  0  0  0  0
  140.0370   81.0959  222.0090 H   0  0  0  0  0  0  0  0  0  0  0  0
  140.9233   80.6751  220.4940 H   0  0  0  0  0  0  0  0  0  0  0  0
  139.2966   69.8214  222.5462 H   0  0  0  0  0  0  0  0  0  0  0  0
  138.8779   68.4095  224.5241 H   0  0  0  0  0  0  0  0  0  0  0  0
  139.0605   68.0719  226.8492 H   0  0  0  0  0  0  0  0  0  0  0  0
  139.8196   68.8820  229.1045 H   0  0  0  0  0  0  0  0  0  0  0  0
  140.9613   71.0658  229.2650 H   0  0  0  0  0  0  0  0  0  0  0  0
  141.3700   72.4625  227.2918 H   0  0  0  0  0  0  0  0  0  0  0  0
  1  2  2  0
  2  3  1  0
  3  4  1  0
  4  5  1  0
  5  6  2  0
  5  7  1  0
  7  8  1  0
  8  9  1  0
  9 10  1  0
  9 11  1  0
 11 12  1  0
 12 13  1  0
 13 14  1  0
 14 15  1  0
 15 16  1  0
 16 17  1  0
 17 18  1  0
  2 19  1  0
 19 20  2  0
 20 21  1  0
 21 22  2  0
 22 23  1  0
 23 24  2  0
 24 25  1  0
 25 26  2  0
 26 27  1  0
 27 28  2  0
 12  7  1  0
 18 13  1  0
 28 19  1  0
 27 22  1  0
  3 29  1  0
  4 30  1  0
  4 31  1  0
  8 32  1  0
  8 33  1  0
  9 34  1  6
 10 35  1  0
 11 36  1  0
 11 37  1  0
 12 38  1  1
 13 39  1  0
 14 40  1  0
 14 41  1  0
 15 42  1  0
 15 43  1  0
 16 44  1  0
 16 45  1  0
 17 46  1  0
 17 47  1  0
 18 48  1  0
 18 49  1  0
 20 50  1  0
 21 51  1  0
 23 52  1  0
 24 53  1  0
 25 54  1  0
 26 55  1  0
M  END
>  <smiles>  (34) 
O=C(NCC(=O)N1C[C@H](O)C[C@H]1C1CCCCC1)c1ccc2ccccc2n1

>  <score_type>  (34) 
oracle

>  <origin>  (34) 
autodockgpu

>  <m_score__min__energy>  (34) 
-9.6799999999999997

>  <m_primary>  (34) 
energy

>  <rmsd>  (34) 
1.9795261042249206

>  <m_score__min__rmsd>  (34) 
1.9795261042249206

>  <meeko>  (34) 
{"free_energy": -9.44, "intermolecular_energy": -11.23, "internal_energy": -1.78, "cluster_size": 32, "cluster_id": 1, "rank_in_cluster": 9}

>  <energy>  (34) 
-9.14

>  <cluster_rmsd>  (34) 
0.61

>  <cluster>  (34) 
2

$$$$

     RDKit          3D

 55 58  0  0  0  0  0  0  0  0999 V2000
  141.0650   71.6030  221.4290 O   0  0  0  0  0  0  0  0  0  0  0  0
  140.4710   72.1570  222.3970 C   0  0  0  0  0  0  0  0  0  0  0  0
  140.0070   73.5030  222.3500 N   0  0  0  0  0  0  0  0  0  0  0  0
  140.2080   74.3260  221.1320 C   0  0  0  0  0  0  0  0  0  0  0  0
  140.3710   75.7290  221.5170 C   0  0  0  0  0  0  0  0  0  0  0  0
  139.6110   76.1030  222.5050 O   0  0  0  0  0  0  0  0  0  0  0  0
  141.1990   76.7290  221.0120 N   0  0  0  0  0  0  0  0  0  0  0  0
  142.1890   76.3140  219.9280 C   0  0  0  0  0  0  0  0  0  0  0  0
  142.0640   77.4080  218.9210 C   0  0  2  0  0  0  0  0  0  0  0  0
  143.3240   77.8140  218.4750 O   0  0  0  0  0  0  0  0  0  0  0  0
  141.3610   78.5440  219.6350 C   0  0  0  0  0  0  0  0  0  0  0  0
  141.4720   78.1040  221.1060 C   0  0  1  0  0  0  0  0  0  0  0  0
  140.6240   78.9700  221.9270 C   0  0  0  0  0  0  0  0  0  0  0  0
  140.6760   78.8400  223.4050 C   0  0  0  0  0  0  0  0  0  0  0  0
  142.1380   78.9940  223.8030 C   0  0  0  0  0  0  0  0  0  0  0  0
  142.5350   80.4050  223.5040 C   0  0  0  0  0  0  0  0  0  0  0  0
  142.1760   80.9150  222.1530 C   0  0  0  0  0  0  0  0  0  0  0  0
  140.8370   80.4550  221.6320 C   0  0  0  0  0  0  0  0  0  0  0  0
  140.2480   71.3820  223.6250 C   0  0  0  0  0  0  0  0  0  0  0  0
  139.6060   70.1650  223.5800 C   0  0  0  0  0  0  0  0  0  0  0  0
  139.3680   69.3920  224.6930 C   0  0  0  0  0  0  0  0  0  0  0  0
  139.7970   69.8690  225.9080 C   0  0  0  0  0  0  0  0  0  0  0  0
  139.5630   69.1040  227.0260 C   0  0  0  0  0  0  0  0  0  0  0  0
  139.9920   69.5750  228.2600 C   0  0  0  0  0  0  0  0  0  0  0  0
  140.6350   70.7940  228.3080 C   0  0  0  0  0  0  0  0  0  0  0  0
  140.8660   71.5540  227.1930 C   0  0  0  0  0  0  0  0  0  0  0  0
  140.4380   71.0880  225.9460 C   0  0  0  0  0  0  0  0  0  0  0  0
  140.6580   71.8260  224.8280 N   0  0  0  0  0  0  0  0  0  0  0  0
  139.5270   73.8810  223.1920 H   0  0  0  0  0  0  0  0  0  0  0  0
  141.1088   73.9835  220.6017 H   0  0  0  0  0  0  0  0  0  0  0  0
  139.3348   74.2246  220.4708 H   0  0  0  0  0  0  0  0  0  0  0  0
  143.2125   76.2596  220.3274 H   0  0  0  0  0  0  0  0  0  0  0  0
  141.9827   75.3168  219.5119 H   0  0  0  0  0  0  0  0  0  0  0  0
  141.5041   77.0781  218.0335 H   0  0  0  0  0  0  0  0  0  0  0  0
  144.0280   77.6530  219.1730 H   0  0  0  0  0  0  0  0  0  0  0  0
  141.8722   79.5028  219.4636 H   0  0  0  0  0  0  0  0  0  0  0  0
  140.3283   78.7134  219.2962 H   0  0  0  0  0  0  0  0  0  0  0  0
  142.4322   78.2190  221.6302 H   0  0  0  0  0  0  0  0  0  0  0  0
  139.6414   78.5891  221.6117 H   0  0  0  0  0  0  0  0  0  0  0  0
  140.0690   79.6267  223.8770 H   0  0  0  0  0  0  0  0  0  0  0  0
  140.2753   77.8694  223.7327 H   0  0  0  0  0  0  0  0  0  0  0  0
  142.2593   78.7885  224.8768 H   0  0  0  0  0  0  0  0  0  0  0  0
  142.7695   78.2859  223.2464 H   0  0  0  0  0  0  0  0  0  0  0  0
  142.0510   81.0549  224.2479 H   0  0  0  0  0  0  0  0  0  0  0  0
  143.6343   80.4162  223.5409 H   0  0  0  0  0  0  0  0  0  0  0  0
  142.1664   82.0142  222.1948 H   0  0  0  0  0  0  0  0  0  0  0  0
  142.9299   80.5103  221.4617 H   0  0  0  0  0  0  0  0  0  0  0  0
  140.0407   81.0377  222.1182 H   0  0  0  0  0  0  0  0  0  0  0  0
  140.8100   80.6068  220.5429 H   0  0  0  0  0  0  0  0  0  0  0  0
  139.2655   69.7911  222.6031 H   0  0  0  0  0  0  0  0  0  0  0  0
  138.8514   68.4242  224.6128 H   0  0  0  0  0  0  0  0  0  0  0  0
  139.0456   68.1367  226.9447 H   0  0  0  0  0  0  0  0  0  0  0  0
  139.8231   68.9903  229.1763 H   0  0  0  0  0  0  0  0  0  0  0  0
  140.9766   71.1715  229.2831 H   0  0  0  0  0  0  0  0  0  0  0  0
  141.3830   72.5213  227.2772 H   0  0  0  0  0  0  0  0  0  0  0  0
  1  2  2  0
  2  3  1  0
  3  4  1  0
  4  5  1  0
  5  6  2  0
  5  7  1  0
  7  8  1  0
  8  9  1  0
  9 10  1  0
  9 11  1  0
 11 12  1  0
 12 13  1  0
 13 14  1  0
 14 15  1  0
 15 16  1  0
 16 17  1  0
 17 18  1  0
  2 19  1  0
 19 20  2  0
 20 21  1  0
 21 22  2  0
 22 23  1  0
 23 24  2  0
 24 25  1  0
 25 26  2  0
 26 27  1  0
 27 28  2  0
 12  7  1  0
 18 13  1  0
 28 19  1  0
 27 22  1  0
  3 29  1  0
  4 30  1  0
  4 31  1  0
  8 32  1  0
  8 33  1  0
  9 34  1  6
 10 35  1  0
 11 36  1  0
 11 37  1  0
 12 38  1  1
 13 39  1  0
 14 40  1  0
 14 41  1  0
 15 42  1  0
 15 43  1  0
 16 44  1  0
 16 45  1  0
 17 46  1  0
 17 47  1  0
 18 48  1  0
 18 49  1  0
 20 50  1  0
 21 51  1  0
 23 52  1  0
 24 53  1  0
 25 54  1  0
 26 55  1  0
M  END
>  <smiles>  (35) 
O=C(NCC(=O)N1C[C@H](O)C[C@H]1C1CCCCC1)c1ccc2ccccc2n1

>  <score_type>  (35) 
oracle

>  <origin>  (35) 
autodockgpu

>  <m_score__min__energy>  (35) 
-9.6799999999999997

>  <m_primary>  (35) 
energy

>  <rmsd>  (35) 
1.9964492481916056

>  <m_score__min__rmsd>  (35) 
1.9964492481916056

>  <meeko>  (35) 
{"free_energy": -9.38, "intermolecular_energy": -11.17, "internal_energy": -1.8, "cluster_size": 32, "cluster_id": 1, "rank_in_cluster": 18}

>  <energy>  (35) 
-8.62

>  <cluster_rmsd>  (35) 
0.0

>  <cluster>  (35) 
3

$$$$

     RDKit          3D

 55 58  0  0  0  0  0  0  0  0999 V2000
  140.1030   70.9870  221.2880 O   0  0  0  0  0  0  0  0  0  0  0  0
  139.9360   71.6490  222.3510 C   0  0  0  0  0  0  0  0  0  0  0  0
  139.7270   73.0580  222.3580 N   0  0  0  0  0  0  0  0  0  0  0  0
  139.6960   73.8210  221.0860 C   0  0  0  0  0  0  0  0  0  0  0  0
  140.8590   74.7080  221.0250 C   0  0  0  0  0  0  0  0  0  0  0  0
  140.8960   75.6060  221.9670 O   0  0  0  0  0  0  0  0  0  0  0  0
  141.9320   74.7550  220.1370 N   0  0  0  0  0  0  0  0  0  0  0  0
  141.8330   75.7680  219.0000 C   0  0  0  0  0  0  0  0  0  0  0  0
  143.1900   76.3890  218.9840 C   0  0  2  0  0  0  0  0  0  0  0  0
  143.6620   76.5080  217.6740 O   0  0  0  0  0  0  0  0  0  0  0  0
  144.0760   75.4580  219.7870 C   0  0  0  0  0  0  0  0  0  0  0  0
  143.1970   74.1990  219.8850 C   0  0  1  0  0  0  0  0  0  0  0  0
  143.7990   73.2720  220.8450 C   0  0  0  0  0  0  0  0  0  0  0  0
  143.5210   71.8200  220.7180 C   0  0  0  0  0  0  0  0  0  0  0  0
  143.8950   71.4290  219.2940 C   0  0  0  0  0  0  0  0  0  0  0  0
  145.3790   71.5720  219.1680 C   0  0  0  0  0  0  0  0  0  0  0  0
  145.9590   72.8510  219.6610 C   0  0  0  0  0  0  0  0  0  0  0  0
  145.3210   73.4000  220.9130 C   0  0  0  0  0  0  0  0  0  0  0  0
  139.9580   70.9380  223.6370 C   0  0  0  0  0  0  0  0  0  0  0  0
  139.5360   69.6300  223.7220 C   0  0  0  0  0  0  0  0  0  0  0  0
  139.5330   68.9100  224.8950 C   0  0  0  0  0  0  0  0  0  0  0  0
  139.9760   69.5380  226.0340 C   0  0  0  0  0  0  0  0  0  0  0  0
  139.9760   68.8260  227.2100 C   0  0  0  0  0  0  0  0  0  0  0  0
  140.4210   69.4500  228.3690 C   0  0  0  0  0  0  0  0  0  0  0  0
  140.8430   70.7600  228.2860 C   0  0  0  0  0  0  0  0  0  0  0  0
  140.8420   71.4660  227.1120 C   0  0  0  0  0  0  0  0  0  0  0  0
  140.3960   70.8470  225.9410 C   0  0  0  0  0  0  0  0  0  0  0  0
  140.3870   71.5300  224.7680 N   0  0  0  0  0  0  0  0  0  0  0  0
  139.5980   73.5250  223.2790 H   0  0  0  0  0  0  0  0  0  0  0  0
  139.7224   73.1216  220.2374 H   0  0  0  0  0  0  0  0  0  0  0  0
  138.7739   74.4188  221.0374 H   0  0  0  0  0  0  0  0  0  0  0  0
  141.6152   75.2692  218.0441 H   0  0  0  0  0  0  0  0  0  0  0  0
  141.0234   76.4993  219.1405 H   0  0  0  0  0  0  0  0  0  0  0  0
  143.1759   77.4032  219.4097 H   0  0  0  0  0  0  0  0  0  0  0  0
  144.5780   76.1080  217.5790 H   0  0  0  0  0  0  0  0  0  0  0  0
  145.0190   75.2488  219.2608 H   0  0  0  0  0  0  0  0  0  0  0  0
  144.3841   75.8646  220.7615 H   0  0  0  0  0  0  0  0  0  0  0  0
  143.1041   73.5397  219.0094 H   0  0  0  0  0  0  0  0  0  0  0  0
  143.2814   73.6132  221.7537 H   0  0  0  0  0  0  0  0  0  0  0  0
  144.1277   71.2528  221.4393 H   0  0  0  0  0  0  0  0  0  0  0  0
  142.4638   71.5985  220.9258 H   0  0  0  0  0  0  0  0  0  0  0  0
  143.5995   70.3874  219.0998 H   0  0  0  0  0  0  0  0  0  0  0  0
  143.3788   72.0716  218.5656 H   0  0  0  0  0  0  0  0  0  0  0  0
  145.8447   70.7518  219.7341 H   0  0  0  0  0  0  0  0  0  0  0  0
  145.5866   71.5510  218.0880 H   0  0  0  0  0  0  0  0  0  0  0  0
  147.0266   72.6845  219.8670 H   0  0  0  0  0  0  0  0  0  0  0  0
  145.7772   73.5953  218.8717 H   0  0  0  0  0  0  0  0  0  0  0  0
  145.6920   72.8387  221.7832 H   0  0  0  0  0  0  0  0  0  0  0  0
  145.5825   74.4645  221.0055 H   0  0  0  0  0  0  0  0  0  0  0  0
  139.1831   69.1351  222.8052 H   0  0  0  0  0  0  0  0  0  0  0  0
  139.1873   67.8660  224.9198 H   0  0  0  0  0  0  0  0  0  0  0  0
  139.6302   67.7820  227.2330 H   0  0  0  0  0  0  0  0  0  0  0  0
  140.4362   68.9124  229.3286 H   0  0  0  0  0  0  0  0  0  0  0  0
  141.1952   71.2591  229.2008 H   0  0  0  0  0  0  0  0  0  0  0  0
  141.1888   72.5097  227.0912 H   0  0  0  0  0  0  0  0  0  0  0  0
  1  2  2  0
  2  3  1  0
  3  4  1  0
  4  5  1  0
  5  6  2  0
  5  7  1  0
  7  8  1  0
  8  9  1  0
  9 10  1  0
  9 11  1  0
 11 12  1  0
 12 13  1  0
 13 14  1  0
 14 15  1  0
 15 16  1  0
 16 17  1  0
 17 18  1  0
  2 19  1  0
 19 20  2  0
 20 21  1  0
 21 22  2  0
 22 23  1  0
 23 24  2  0
 24 25  1  0
 25 26  2  0
 26 27  1  0
 27 28  2  0
 12  7  1  0
 18 13  1  0
 28 19  1  0
 27 22  1  0
  3 29  1  0
  4 30  1  0
  4 31  1  0
  8 32  1  0
  8 33  1  0
  9 34  1  1
 10 35  1  0
 11 36  1  0
 11 37  1  0
 12 38  1  6
 13 39  1  0
 14 40  1  0
 14 41  1  0
 15 42  1  0
 15 43  1  0
 16 44  1  0
 16 45  1  0
 17 46  1  0
 17 47  1  0
 18 48  1  0
 18 49  1  0
 20 50  1  0
 21 51  1  0
 23 52  1  0
 24 53  1  0
 25 54  1  0
 26 55  1  0
M  END
>  <smiles>  (36) 
O=C(NCC(=O)N1C[C@H](O)C[C@H]1C1CCCCC1)c1ccc2ccccc2n1

>  <score_type>  (36) 
oracle

>  <origin>  (36) 
autodockgpu

>  <m_score__min__energy>  (36) 
-9.6799999999999997

>  <m_primary>  (36) 
energy

>  <rmsd>  (36) 
2.324383250360921

>  <m_score__min__rmsd>  (36) 
2.324383250360921

>  <meeko>  (36) 
{"free_energy": -8.6, "intermolecular_energy": -10.39, "internal_energy": -1.89, "cluster_size": 2, "cluster_id": 3, "rank_in_cluster": 2}

>  <energy>  (36) 
-8.6

>  <cluster_rmsd>  (36) 
0.65

>  <cluster>  (36) 
3

$$$$

     RDKit          3D

 55 58  0  0  0  0  0  0  0  0999 V2000
  141.3660   72.0560  221.6790 O   0  0  0  0  0  0  0  0  0  0  0  0
  140.4660   72.3720  222.5070 C   0  0  0  0  0  0  0  0  0  0  0  0
  139.6330   73.5150  222.3440 N   0  0  0  0  0  0  0  0  0  0  0  0
  139.7940   74.4010  221.1650 C   0  0  0  0  0  0  0  0  0  0  0  0
  140.1900   75.7370  221.6140 C   0  0  0  0  0  0  0  0  0  0  0  0
  139.6090   76.1250  222.7120 O   0  0  0  0  0  0  0  0  0  0  0  0
  141.0800   76.6620  221.0720 N   0  0  0  0  0  0  0  0  0  0  0  0
  142.0990   76.1250  220.0710 C   0  0  0  0  0  0  0  0  0  0  0  0
  142.0640   77.1380  218.9770 C   0  0  2  0  0  0  0  0  0  0  0  0
  143.3580   77.4600  218.5610 O   0  0  0  0  0  0  0  0  0  0  0  0
  141.3770   78.3540  219.5670 C   0  0  0  0  0  0  0  0  0  0  0  0
  141.4060   78.0290  221.0710 C   0  0  1  0  0  0  0  0  0  0  0  0
  140.5600   78.9890  221.7810 C   0  0  0  0  0  0  0  0  0  0  0  0
  140.4390   78.8920  223.2570 C   0  0  0  0  0  0  0  0  0  0  0  0
  141.8580   78.9210  223.8110 C   0  0  0  0  0  0  0  0  0  0  0  0
  142.4160   80.2820  223.5360 C   0  0  0  0  0  0  0  0  0  0  0  0
  142.2540   80.7890  222.1470 C   0  0  0  0  0  0  0  0  0  0  0  0
  140.9410   80.4410  221.4890 C   0  0  0  0  0  0  0  0  0  0  0  0
  140.2680   71.5240  223.6910 C   0  0  0  0  0  0  0  0  0  0  0  0
  139.6050   70.3210  223.5900 C   0  0  0  0  0  0  0  0  0  0  0  0
  139.3880   69.4840  224.6600 C   0  0  0  0  0  0  0  0  0  0  0  0
  139.8610   69.8780  225.8890 C   0  0  0  0  0  0  0  0  0  0  0  0
  139.6470   69.0470  226.9640 C   0  0  0  0  0  0  0  0  0  0  0  0
  140.1200   69.4340  228.2110 C   0  0  0  0  0  0  0  0  0  0  0  0
  140.7830   70.6390  228.3150 C   0  0  0  0  0  0  0  0  0  0  0  0
  140.9930   71.4640  227.2420 C   0  0  0  0  0  0  0  0  0  0  0  0
  140.5220   71.0830  225.9820 C   0  0  0  0  0  0  0  0  0  0  0  0
  140.7200   71.8870  224.9070 N   0  0  0  0  0  0  0  0  0  0  0  0
  138.9160   73.7020  223.0740 H   0  0  0  0  0  0  0  0  0  0  0  0
  140.5696   73.9917  220.5010 H   0  0  0  0  0  0  0  0  0  0  0  0
  138.8416   74.4634  220.6182 H   0  0  0  0  0  0  0  0  0  0  0  0
  143.1008   76.0644  220.5212 H   0  0  0  0  0  0  0  0  0  0  0  0
  141.8699   75.1063  219.7248 H   0  0  0  0  0  0  0  0  0  0  0  0
  141.5313   76.7591  218.0923 H   0  0  0  0  0  0  0  0  0  0  0  0
  143.9720   77.5880  219.3440 H   0  0  0  0  0  0  0  0  0  0  0  0
  141.9339   79.2763  219.3452 H   0  0  0  0  0  0  0  0  0  0  0  0
  140.3678   78.5343  219.1683 H   0  0  0  0  0  0  0  0  0  0  0  0
  142.3466   78.1487  221.6286 H   0  0  0  0  0  0  0  0  0  0  0  0
  139.5861   78.6911  221.3652 H   0  0  0  0  0  0  0  0  0  0  0  0
  139.8613   79.7427  223.6475 H   0  0  0  0  0  0  0  0  0  0  0  0
  139.9154   77.9711  223.5532 H   0  0  0  0  0  0  0  0  0  0  0  0
  141.8429   78.7324  224.8946 H   0  0  0  0  0  0  0  0  0  0  0  0
  142.4764   78.1440  223.3380 H   0  0  0  0  0  0  0  0  0  0  0  0
  141.9182   80.9920  224.2128 H   0  0  0  0  0  0  0  0  0  0  0  0
  143.5011   80.1928  223.6925 H   0  0  0  0  0  0  0  0  0  0  0  0
  142.3433   81.8851  222.1715 H   0  0  0  0  0  0  0  0  0  0  0  0
  143.0365   80.2998  221.5484 H   0  0  0  0  0  0  0  0  0  0  0  0
  140.1551   81.1058  221.8767 H   0  0  0  0  0  0  0  0  0  0  0  0
  141.0450   80.5682  220.4013 H   0  0  0  0  0  0  0  0  0  0  0  0
  139.2296   70.0136  222.6028 H   0  0  0  0  0  0  0  0  0  0  0  0
  138.8535   68.5306  224.5361 H   0  0  0  0  0  0  0  0  0  0  0  0
  139.1116   68.0943  226.8384 H   0  0  0  0  0  0  0  0  0  0  0  0
  139.9696   68.7954  229.0939 H   0  0  0  0  0  0  0  0  0  0  0  0
  141.1588   70.9504  229.3008 H   0  0  0  0  0  0  0  0  0  0  0  0
  141.5270   72.4171  227.3704 H   0  0  0  0  0  0  0  0  0  0  0  0
  1  2  2  0
  2  3  1  0
  3  4  1  0
  4  5  1  0
  5  6  2  0
  5  7  1  0
  7  8  1  0
  8  9  1  0
  9 10  1  0
  9 11  1  0
 11 12  1  0
 12 13  1  0
 13 14  1  0
 14 15  1  0
 15 16  1  0
 16 17  1  0
 17 18  1  0
  2 19  1  0
 19 20  2  0
 20 21  1  0
 21 22  2  0
 22 23  1  0
 23 24  2  0
 24 25  1  0
 25 26  2  0
 26 27  1  0
 27 28  2  0
 12  7  1  0
 18 13  1  0
 28 19  1  0
 27 22  1  0
  3 29  1  0
  4 30  1  0
  4 31  1  0
  8 32  1  0
  8 33  1  0
  9 34  1  6
 10 35  1  0
 11 36  1  0
 11 37  1  0
 12 38  1  1
 13 39  1  0
 14 40  1  0
 14 41  1  0
 15 42  1  0
 15 43  1  0
 16 44  1  0
 16 45  1  0
 17 46  1  0
 17 47  1  0
 18 48  1  0
 18 49  1  0
 20 50  1  0
 21 51  1  0
 23 52  1  0
 24 53  1  0
 25 54  1  0
 26 55  1  0
M  END
>  <smiles>  (37) 
O=C(NCC(=O)N1C[C@H](O)C[C@H]1C1CCCCC1)c1ccc2ccccc2n1

>  <score_type>  (37) 
oracle

>  <origin>  (37) 
autodockgpu

>  <m_score__min__energy>  (37) 
-9.6799999999999997

>  <m_primary>  (37) 
energy

>  <rmsd>  (37) 
1.9300664203489182

>  <m_score__min__rmsd>  (37) 
1.9300664203489182

>  <meeko>  (37) 
{"free_energy": -9.63, "intermolecular_energy": -11.42, "internal_energy": -1.55, "cluster_size": 32, "cluster_id": 1, "rank_in_cluster": 2}

>  <energy>  (37) 
-8.34

>  <cluster_rmsd>  (37) 
0.0

>  <cluster>  (37) 
4

$$$$

     RDKit          3D

 55 58  0  0  0  0  0  0  0  0999 V2000
  141.3830   72.3610  221.9190 O   0  0  0  0  0  0  0  0  0  0  0  0
  140.3370   72.4720  222.6190 C   0  0  0  0  0  0  0  0  0  0  0  0
  139.3160   73.4240  222.3380 N   0  0  0  0  0  0  0  0  0  0  0  0
  139.4440   74.3450  221.1810 C   0  0  0  0  0  0  0  0  0  0  0  0
  139.9180   75.6480  221.6500 C   0  0  0  0  0  0  0  0  0  0  0  0
  139.2320   76.1400  222.6420 O   0  0  0  0  0  0  0  0  0  0  0  0
  140.9730   76.4500  221.2220 N   0  0  0  0  0  0  0  0  0  0  0  0
  142.0500   75.7710  220.3810 C   0  0  0  0  0  0  0  0  0  0  0  0
  142.2800   76.7470  219.2760 C   0  0  2  0  0  0  0  0  0  0  0  0
  143.6470   76.9080  219.0380 O   0  0  0  0  0  0  0  0  0  0  0  0
  141.6650   78.0500  219.7460 C   0  0  0  0  0  0  0  0  0  0  0  0
  141.4510   77.7710  221.2440 C   0  0  1  0  0  0  0  0  0  0  0  0
  140.6330   78.8420  221.8150 C   0  0  0  0  0  0  0  0  0  0  0  0
  140.4360   78.8940  223.2860 C   0  0  0  0  0  0  0  0  0  0  0  0
  141.8250   78.8950  223.9100 C   0  0  0  0  0  0  0  0  0  0  0  0
  142.4790   80.1890  223.5410 C   0  0  0  0  0  0  0  0  0  0  0  0
  142.4160   80.5680  222.1030 C   0  0  0  0  0  0  0  0  0  0  0  0
  141.1170   80.2340  221.4110 C   0  0  0  0  0  0  0  0  0  0  0  0
  140.1650   71.5820  223.7760 C   0  0  0  0  0  0  0  0  0  0  0  0
  139.4440   70.4140  223.6610 C   0  0  0  0  0  0  0  0  0  0  0  0
  139.2480   69.5390  224.7050 C   0  0  0  0  0  0  0  0  0  0  0  0
  139.8030   69.8580  225.9210 C   0  0  0  0  0  0  0  0  0  0  0  0
  139.6110   68.9900  226.9700 C   0  0  0  0  0  0  0  0  0  0  0  0
  140.1670   69.3000  228.2040 C   0  0  0  0  0  0  0  0  0  0  0  0
  140.8880   70.4700  228.3220 C   0  0  0  0  0  0  0  0  0  0  0  0
  141.0770   71.3320  227.2750 C   0  0  0  0  0  0  0  0  0  0  0  0
  140.5220   71.0290  226.0280 C   0  0  0  0  0  0  0  0  0  0  0  0
  140.6980   71.8700  224.9790 N   0  0  0  0  0  0  0  0  0  0  0  0
  138.4870   73.4480  222.9660 H   0  0  0  0  0  0  0  0  0  0  0  0
  140.1631   73.9305  220.4592 H   0  0  0  0  0  0  0  0  0  0  0  0
  138.4649   74.4627  220.6936 H   0  0  0  0  0  0  0  0  0  0  0  0
  142.9678   75.6136  220.9666 H   0  0  0  0  0  0  0  0  0  0  0  0
  141.7551   74.7735  220.0232 H   0  0  0  0  0  0  0  0  0  0  0  0
  141.8312   76.4030  218.3325 H   0  0  0  0  0  0  0  0  0  0  0  0
  144.0930   77.4010  219.7900 H   0  0  0  0  0  0  0  0  0  0  0  0
  142.3501   78.8963  219.5895 H   0  0  0  0  0  0  0  0  0  0  0  0
  140.7472   78.3304  219.2083 H   0  0  0  0  0  0  0  0  0  0  0  0
  142.3146   77.8019  221.9247 H   0  0  0  0  0  0  0  0  0  0  0  0
  139.6636   78.5625  221.3766 H   0  0  0  0  0  0  0  0  0  0  0  0
  139.8940   79.8098  223.5644 H   0  0  0  0  0  0  0  0  0  0  0  0
  139.8432   78.0368  223.6379 H   0  0  0  0  0  0  0  0  0  0  0  0
  141.7460   78.8120  225.0040 H   0  0  0  0  0  0  0  0  0  0  0  0
  142.4161   78.0424  223.5445 H   0  0  0  0  0  0  0  0  0  0  0  0
  141.9938   80.9881  224.1207 H   0  0  0  0  0  0  0  0  0  0  0  0
  143.5476   80.0542  223.7644 H   0  0  0  0  0  0  0  0  0  0  0  0
  142.5722   81.6544  222.0294 H   0  0  0  0  0  0  0  0  0  0  0  0
  143.1944   79.9791  221.5958 H   0  0  0  0  0  0  0  0  0  0  0  0
  140.3562   80.9769  221.6927 H   0  0  0  0  0  0  0  0  0  0  0  0
  141.2810   80.2499  220.3234 H   0  0  0  0  0  0  0  0  0  0  0  0
  139.0020   70.1679  222.6842 H   0  0  0  0  0  0  0  0  0  0  0  0
  138.6664   68.6150  224.5706 H   0  0  0  0  0  0  0  0  0  0  0  0
  139.0278   68.0673  226.8341 H   0  0  0  0  0  0  0  0  0  0  0  0
  140.0358   68.6293  229.0659 H   0  0  0  0  0  0  0  0  0  0  0  0
  141.3295   70.7210  229.2978 H   0  0  0  0  0  0  0  0  0  0  0  0
  141.6601   72.2544  227.4137 H   0  0  0  0  0  0  0  0  0  0  0  0
  1  2  2  0
  2  3  1  0
  3  4  1  0
  4  5  1  0
  5  6  2  0
  5  7  1  0
  7  8  1  0
  8  9  1  0
  9 10  1  0
  9 11  1  0
 11 12  1  0
 12 13  1  0
 13 14  1  0
 14 15  1  0
 15 16  1  0
 16 17  1  0
 17 18  1  0
  2 19  1  0
 19 20  2  0
 20 21  1  0
 21 22  2  0
 22 23  1  0
 23 24  2  0
 24 25  1  0
 25 26  2  0
 26 27  1  0
 27 28  2  0
 12  7  1  0
 18 13  1  0
 28 19  1  0
 27 22  1  0
  3 29  1  0
  4 30  1  0
  4 31  1  0
  8 32  1  0
  8 33  1  0
  9 34  1  6
 10 35  1  0
 11 36  1  0
 11 37  1  0
 12 38  1  1
 13 39  1  0
 14 40  1  0
 14 41  1  0
 15 42  1  0
 15 43  1  0
 16 44  1  0
 16 45  1  0
 17 46  1  0
 17 47  1  0
 18 48  1  0
 18 49  1  0
 20 50  1  0
 21 51  1  0
 23 52  1  0
 24 53  1  0
 25 54  1  0
 26 55  1  0
M  END
>  <smiles>  (38) 
O=C(NCC(=O)N1C[C@H](O)C[C@H]1C1CCCCC1)c1ccc2ccccc2n1

>  <score_type>  (38) 
oracle

>  <origin>  (38) 
autodockgpu

>  <m_score__min__energy>  (38) 
-9.6799999999999997

>  <m_primary>  (38) 
energy

>  <rmsd>  (38) 
1.9228718783235472

>  <m_score__min__rmsd>  (38) 
1.9228718783235472

>  <meeko>  (38) 
{"free_energy": -9.68, "intermolecular_energy": -11.47, "internal_energy": -1.46, "cluster_size": 32, "cluster_id": 1, "rank_in_cluster": 1}

>  <energy>  (38) 
-8.31

>  <cluster_rmsd>  (38) 
0.05

>  <cluster>  (38) 
4

$$$$

     RDKit          3D

 55 58  0  0  0  0  0  0  0  0999 V2000
  141.3450   71.9610  221.5000 O   0  0  0  0  0  0  0  0  0  0  0  0
  140.5090   72.3770  222.3500 C   0  0  0  0  0  0  0  0  0  0  0  0
  139.8160   73.6140  222.2120 N   0  0  0  0  0  0  0  0  0  0  0  0
  140.0570   74.4830  221.0340 C   0  0  0  0  0  0  0  0  0  0  0  0
  140.4610   75.8140  221.4900 C   0  0  0  0  0  0  0  0  0  0  0  0
  139.9990   76.1410  222.6620 O   0  0  0  0  0  0  0  0  0  0  0  0
  141.2550   76.7890  220.8890 N   0  0  0  0  0  0  0  0  0  0  0  0
  142.2480   76.3060  219.8360 C   0  0  0  0  0  0  0  0  0  0  0  0
  142.0830   77.3020  218.7360 C   0  0  2  0  0  0  0  0  0  0  0  0
  143.3270   77.7020  218.2420 O   0  0  0  0  0  0  0  0  0  0  0  0
  141.3520   78.4770  219.3540 C   0  0  0  0  0  0  0  0  0  0  0  0
  141.4890   78.1730  220.8560 C   0  0  1  0  0  0  0  0  0  0  0  0
  140.6230   79.0850  221.6060 C   0  0  0  0  0  0  0  0  0  0  0  0
  140.4240   78.8610  223.0600 C   0  0  0  0  0  0  0  0  0  0  0  0
  141.8130   78.8110  223.6850 C   0  0  0  0  0  0  0  0  0  0  0  0
  142.4060   80.1780  223.5610 C   0  0  0  0  0  0  0  0  0  0  0  0
  142.3250   80.8090  222.2150 C   0  0  0  0  0  0  0  0  0  0  0  0
  141.0430   80.5480  221.4640 C   0  0  0  0  0  0  0  0  0  0  0  0
  140.2360   71.5500  223.5340 C   0  0  0  0  0  0  0  0  0  0  0  0
  139.5080   70.3860  223.4250 C   0  0  0  0  0  0  0  0  0  0  0  0
  139.2200   69.5690  224.4940 C   0  0  0  0  0  0  0  0  0  0  0  0
  139.6880   69.9440  225.7310 C   0  0  0  0  0  0  0  0  0  0  0  0
  139.4040   69.1340  226.8050 C   0  0  0  0  0  0  0  0  0  0  0  0
  139.8710   69.5020  228.0600 C   0  0  0  0  0  0  0  0  0  0  0  0
  140.6000   70.6670  228.1720 C   0  0  0  0  0  0  0  0  0  0  0  0
  140.8800   71.4720  227.1000 C   0  0  0  0  0  0  0  0  0  0  0  0
  140.4150   71.1100  225.8320 C   0  0  0  0  0  0  0  0  0  0  0  0
  140.6820   71.8940  224.7570 N   0  0  0  0  0  0  0  0  0  0  0  0
  139.1430   73.8790  222.9590 H   0  0  0  0  0  0  0  0  0  0  0  0
  140.8553   74.0488  220.4141 H   0  0  0  0  0  0  0  0  0  0  0  0
  139.1353   74.5612  220.4387 H   0  0  0  0  0  0  0  0  0  0  0  0
  143.2758   76.3164  220.2277 H   0  0  0  0  0  0  0  0  0  0  0  0
  142.0675   75.2701  219.5131 H   0  0  0  0  0  0  0  0  0  0  0  0
  141.5263   76.8785  217.8871 H   0  0  0  0  0  0  0  0  0  0  0  0
  143.2450   78.5200  217.6670 H   0  0  0  0  0  0  0  0  0  0  0  0
  141.8327   79.4312  219.0923 H   0  0  0  0  0  0  0  0  0  0  0  0
  140.3119   78.5858  219.0130 H   0  0  0  0  0  0  0  0  0  0  0  0
  142.4506   78.3607  221.3561 H   0  0  0  0  0  0  0  0  0  0  0  0
  139.6671   78.8456  221.1172 H   0  0  0  0  0  0  0  0  0  0  0  0
  139.8411   79.6861  223.4952 H   0  0  0  0  0  0  0  0  0  0  0  0
  139.8705   77.9289  223.2465 H   0  0  0  0  0  0  0  0  0  0  0  0
  141.7387   78.5277  224.7453 H   0  0  0  0  0  0  0  0  0  0  0  0
  142.4423   78.0660  223.1762 H   0  0  0  0  0  0  0  0  0  0  0  0
  141.8849   80.8358  224.2722 H   0  0  0  0  0  0  0  0  0  0  0  0
  143.4799   80.0530  223.7639 H   0  0  0  0  0  0  0  0  0  0  0  0
  142.4311   81.8966  222.3412 H   0  0  0  0  0  0  0  0  0  0  0  0
  143.1295   80.3580  221.6154 H   0  0  0  0  0  0  0  0  0  0  0  0
  140.2492   81.1927  221.8693 H   0  0  0  0  0  0  0  0  0  0  0  0
  141.2058   80.7678  220.3986 H   0  0  0  0  0  0  0  0  0  0  0  0
  139.1374   70.0942  222.4313 H   0  0  0  0  0  0  0  0  0  0  0  0
  138.6349   68.6467  224.3632 H   0  0  0  0  0  0  0  0  0  0  0  0
  138.8183   68.2124  226.6728 H   0  0  0  0  0  0  0  0  0  0  0  0
  139.6644   68.8794  228.9430 H   0  0  0  0  0  0  0  0  0  0  0  0
  140.9723   70.9622  229.1641 H   0  0  0  0  0  0  0  0  0  0  0  0
  141.4647   72.3939  227.2351 H   0  0  0  0  0  0  0  0  0  0  0  0
  1  2  2  0
  2  3  1  0
  3  4  1  0
  4  5  1  0
  5  6  2  0
  5  7  1  0
  7  8  1  0
  8  9  1  0
  9 10  1  0
  9 11  1  0
 11 12  1  0
 12 13  1  0
 13 14  1  0
 14 15  1  0
 15 16  1  0
 16 17  1  0
 17 18  1  0
  2 19  1  0
 19 20  2  0
 20 21  1  0
 21 22  2  0
 22 23  1  0
 23 24  2  0
 24 25  1  0
 25 26  2  0
 26 27  1  0
 27 28  2  0
 12  7  1  0
 18 13  1  0
 28 19  1  0
 27 22  1  0
  3 29  1  0
  4 30  1  0
  4 31  1  0
  8 32  1  0
  8 33  1  0
  9 34  1  6
 10 35  1  0
 11 36  1  0
 11 37  1  0
 12 38  1  1
 13 39  1  0
 14 40  1  0
 14 41  1  0
 15 42  1  0
 15 43  1  0
 16 44  1  0
 16 45  1  0
 17 46  1  0
 17 47  1  0
 18 48  1  0
 18 49  1  0
 20 50  1  0
 21 51  1  0
 23 52  1  0
 24 53  1  0
 25 54  1  0
 26 55  1  0
M  END
>  <smiles>  (39) 
O=C(NCC(=O)N1C[C@H](O)C[C@H]1C1CCCCC1)c1ccc2ccccc2n1

>  <score_type>  (39) 
oracle

>  <origin>  (39) 
autodockgpu

>  <m_score__min__energy>  (39) 
-9.6799999999999997

>  <m_primary>  (39) 
energy

>  <rmsd>  (39) 
1.9769234354386926

>  <m_score__min__rmsd>  (39) 
1.9769234354386926

>  <meeko>  (39) 
{"free_energy": -9.09, "intermolecular_energy": -10.88, "internal_energy": -1.58, "cluster_size": 32, "cluster_id": 1, "rank_in_cluster": 27}

>  <energy>  (39) 
-8.31

>  <cluster_rmsd>  (39) 
0.06

>  <cluster>  (39) 
4

$$$$

     RDKit          3D

 55 58  0  0  0  0  0  0  0  0999 V2000
  135.7750   77.1610  223.0100 O   0  0  0  0  0  0  0  0  0  0  0  0
  136.1840   75.9940  223.2710 C   0  0  0  0  0  0  0  0  0  0  0  0
  137.3600   75.4400  222.6900 N   0  0  0  0  0  0  0  0  0  0  0  0
  138.1710   76.2320  221.7320 C   0  0  0  0  0  0  0  0  0  0  0  0
  139.5740   75.8290  221.8380 C   0  0  0  0  0  0  0  0  0  0  0  0
  139.7530   74.6430  222.3430 O   0  0  0  0  0  0  0  0  0  0  0  0
  140.7490   76.4930  221.4890 N   0  0  0  0  0  0  0  0  0  0  0  0
  141.8030   75.6730  220.7510 C   0  0  0  0  0  0  0  0  0  0  0  0
  142.2370   76.5900  219.6570 C   0  0  2  0  0  0  0  0  0  0  0  0
  143.6280   76.5860  219.5320 O   0  0  0  0  0  0  0  0  0  0  0  0
  141.7430   77.9660  220.0560 C   0  0  0  0  0  0  0  0  0  0  0  0
  141.3760   77.7490  221.5340 C   0  0  1  0  0  0  0  0  0  0  0  0
  140.6450   78.9210  222.0200 C   0  0  0  0  0  0  0  0  0  0  0  0
  140.3940   79.0630  223.4760 C   0  0  0  0  0  0  0  0  0  0  0  0
  141.7490   78.9580  224.1630 C   0  0  0  0  0  0  0  0  0  0  0  0
  142.5430   80.1630  223.7680 C   0  0  0  0  0  0  0  0  0  0  0  0
  142.5780   80.4770  222.3140 C   0  0  0  0  0  0  0  0  0  0  0  0
  141.2820   80.2390  221.5780 C   0  0  0  0  0  0  0  0  0  0  0  0
  135.4130   75.1710  224.2130 C   0  0  0  0  0  0  0  0  0  0  0  0
  134.6360   75.7590  225.1860 C   0  0  0  0  0  0  0  0  0  0  0  0
  133.8930   75.0440  226.0970 C   0  0  0  0  0  0  0  0  0  0  0  0
  133.9350   73.6730  226.0240 C   0  0  0  0  0  0  0  0  0  0  0  0
  133.1960   72.9510  226.9310 C   0  0  0  0  0  0  0  0  0  0  0  0
  133.2300   71.5640  226.8670 C   0  0  0  0  0  0  0  0  0  0  0  0
  134.0080   70.9720  225.8940 C   0  0  0  0  0  0  0  0  0  0  0  0
  134.7440   71.6950  224.9920 C   0  0  0  0  0  0  0  0  0  0  0  0
  134.7160   73.0920  225.0480 C   0  0  0  0  0  0  0  0  0  0  0  0
  135.4370   73.8250  224.1640 N   0  0  0  0  0  0  0  0  0  0  0  0
  137.6250   74.4710  222.9600 H   0  0  0  0  0  0  0  0  0  0  0  0
  137.8125   76.0495  220.7082 H   0  0  0  0  0  0  0  0  0  0  0  0
  138.0763   77.3027  221.9657 H   0  0  0  0  0  0  0  0  0  0  0  0
  142.6444   75.4224  221.4138 H   0  0  0  0  0  0  0  0  0  0  0  0
  141.4223   74.7089  220.3828 H   0  0  0  0  0  0  0  0  0  0  0  0
  141.8302   76.2783  218.6837 H   0  0  0  0  0  0  0  0  0  0  0  0
  144.0500   77.2740  220.1290 H   0  0  0  0  0  0  0  0  0  0  0  0
  142.5333   78.7232  219.9461 H   0  0  0  0  0  0  0  0  0  0  0  0
  140.9115   78.3381  219.4394 H   0  0  0  0  0  0  0  0  0  0  0  0
  142.1786   77.6954  222.2843 H   0  0  0  0  0  0  0  0  0  0  0  0
  139.6715   78.7160  221.5507 H   0  0  0  0  0  0  0  0  0  0  0  0
  139.9353   80.0399  223.6886 H   0  0  0  0  0  0  0  0  0  0  0  0
  139.7045   78.2859  223.8375 H   0  0  0  0  0  0  0  0  0  0  0  0
  141.6167   78.9357  225.2548 H   0  0  0  0  0  0  0  0  0  0  0  0
  142.2670   78.0351  223.8632 H   0  0  0  0  0  0  0  0  0  0  0  0
  142.1159   81.0324  224.2892 H   0  0  0  0  0  0  0  0  0  0  0  0
  143.5827   79.9354  224.0459 H   0  0  0  0  0  0  0  0  0  0  0  0
  142.8448   81.5381  222.2005 H   0  0  0  0  0  0  0  0  0  0  0  0
  143.3141   79.7912  221.8693 H   0  0  0  0  0  0  0  0  0  0  0  0
  140.5881   81.0653  221.7918 H   0  0  0  0  0  0  0  0  0  0  0  0
  141.4916   80.1869  220.4994 H   0  0  0  0  0  0  0  0  0  0  0  0
  134.6079   76.8574  225.2376 H   0  0  0  0  0  0  0  0  0  0  0  0
  133.2851   75.5537  226.8590 H   0  0  0  0  0  0  0  0  0  0  0  0
  132.5893   73.4621  227.6930 H   0  0  0  0  0  0  0  0  0  0  0  0
  132.6508   70.9528  227.5748 H   0  0  0  0  0  0  0  0  0  0  0  0
  134.0390   69.8738  225.8398 H   0  0  0  0  0  0  0  0  0  0  0  0
  135.3507   71.1816  224.2316 H   0  0  0  0  0  0  0  0  0  0  0  0
  1  2  2  0
  2  3  1  0
  3  4  1  0
  4  5  1  0
  5  6  2  0
  5  7  1  0
  7  8  1  0
  8  9  1  0
  9 10  1  0
  9 11  1  0
 11 12  1  0
 12 13  1  0
 13 14  1  0
 14 15  1  0
 15 16  1  0
 16 17  1  0
 17 18  1  0
  2 19  1  0
 19 20  2  0
 20 21  1  0
 21 22  2  0
 22 23  1  0
 23 24  2  0
 24 25  1  0
 25 26  2  0
 26 27  1  0
 27 28  2  0
 12  7  1  0
 18 13  1  0
 28 19  1  0
 27 22  1  0
  3 29  1  0
  4 30  1  0
  4 31  1  0
  8 32  1  0
  8 33  1  0
  9 34  1  6
 10 35  1  0
 11 36  1  0
 11 37  1  0
 12 38  1  1
 13 39  1  0
 14 40  1  0
 14 41  1  0
 15 42  1  0
 15 43  1  0
 16 44  1  0
 16 45  1  0
 17 46  1  0
 17 47  1  0
 18 48  1  0
 18 49  1  0
 20 50  1  0
 21 51  1  0
 23 52  1  0
 24 53  1  0
 25 54  1  0
 26 55  1  0
M  END
>  <smiles>  (40) 
O=C(NCC(=O)N1C[C@H](O)C[C@H]1C1CCCCC1)c1ccc2ccccc2n1

>  <score_type>  (40) 
oracle

>  <origin>  (40) 
autodockgpu

>  <m_score__min__energy>  (40) 
-9.6799999999999997

>  <m_primary>  (40) 
energy

>  <rmsd>  (40) 
5.5407676818563445

>  <m_score__min__rmsd>  (40) 
5.5407676818563445

>  <meeko>  (40) 
{"free_energy": -8.3, "intermolecular_energy": -10.09, "internal_energy": -2.11, "cluster_size": 14, "cluster_id": 4, "rank_in_cluster": 4}

>  <energy>  (40) 
-8.3

>  <cluster_rmsd>  (40) 
0.08

>  <cluster>  (40) 
4

$$$$

     RDKit          3D

 55 58  0  0  0  0  0  0  0  0999 V2000
  141.1450   71.8070  221.3320 O   0  0  0  0  0  0  0  0  0  0  0  0
  140.5060   72.3280  222.2890 C   0  0  0  0  0  0  0  0  0  0  0  0
  140.0430   73.6750  222.2660 N   0  0  0  0  0  0  0  0  0  0  0  0
  140.2990   74.5390  221.0870 C   0  0  0  0  0  0  0  0  0  0  0  0
  140.6740   75.8790  221.5410 C   0  0  0  0  0  0  0  0  0  0  0  0
  140.2790   76.1640  222.7490 O   0  0  0  0  0  0  0  0  0  0  0  0
  141.3810   76.8980  220.9080 N   0  0  0  0  0  0  0  0  0  0  0  0
  142.3710   76.4740  219.8270 C   0  0  0  0  0  0  0  0  0  0  0  0
  142.1050   77.4460  218.7270 C   0  0  2  0  0  0  0  0  0  0  0  0
  143.3030   77.9240  218.1900 O   0  0  0  0  0  0  0  0  0  0  0  0
  141.3170   78.5750  219.3590 C   0  0  0  0  0  0  0  0  0  0  0  0
  141.5200   78.2950  220.8580 C   0  0  1  0  0  0  0  0  0  0  0  0
  140.6190   79.1540  221.6280 C   0  0  0  0  0  0  0  0  0  0  0  0
  140.4530   78.9060  223.0820 C   0  0  0  0  0  0  0  0  0  0  0  0
  141.8500   78.9230  223.6880 C   0  0  0  0  0  0  0  0  0  0  0  0
  142.3700   80.3200  223.5700 C   0  0  0  0  0  0  0  0  0  0  0  0
  142.2380   80.9590  222.2320 C   0  0  0  0  0  0  0  0  0  0  0  0
  140.9600   80.6380  221.4960 C   0  0  0  0  0  0  0  0  0  0  0  0
  140.2270   71.5120  223.4780 C   0  0  0  0  0  0  0  0  0  0  0  0
  139.5200   70.3350  223.3720 C   0  0  0  0  0  0  0  0  0  0  0  0
  139.2270   69.5270  224.4470 C   0  0  0  0  0  0  0  0  0  0  0  0
  139.6680   69.9250  225.6860 C   0  0  0  0  0  0  0  0  0  0  0  0
  139.3790   69.1240  226.7660 C   0  0  0  0  0  0  0  0  0  0  0  0
  139.8190   69.5140  228.0240 C   0  0  0  0  0  0  0  0  0  0  0  0
  140.5270   70.6930  228.1330 C   0  0  0  0  0  0  0  0  0  0  0  0
  140.8130   71.4890  227.0560 C   0  0  0  0  0  0  0  0  0  0  0  0
  140.3740   71.1040  225.7850 C   0  0  0  0  0  0  0  0  0  0  0  0
  140.6470   71.8780  224.7040 N   0  0  0  0  0  0  0  0  0  0  0  0
  139.5230   74.0240  223.0970 H   0  0  0  0  0  0  0  0  0  0  0  0
  141.1172   74.1114  220.4889 H   0  0  0  0  0  0  0  0  0  0  0  0
  139.3899   74.5999  220.4707 H   0  0  0  0  0  0  0  0  0  0  0  0
  143.4075   76.5572  220.1858 H   0  0  0  0  0  0  0  0  0  0  0  0
  142.2508   75.4255  219.5169 H   0  0  0  0  0  0  0  0  0  0  0  0
  141.5512   76.9779  217.8998 H   0  0  0  0  0  0  0  0  0  0  0  0
  143.1430   78.4440  217.3470 H   0  0  0  0  0  0  0  0  0  0  0  0
  141.7247   79.5565  219.0755 H   0  0  0  0  0  0  0  0  0  0  0  0
  140.2619   78.6111  219.0501 H   0  0  0  0  0  0  0  0  0  0  0  0
  142.4815   78.5513  221.3269 H   0  0  0  0  0  0  0  0  0  0  0  0
  139.6703   78.8707  221.1487 H   0  0  0  0  0  0  0  0  0  0  0  0
  139.8337   79.6951  223.5334 H   0  0  0  0  0  0  0  0  0  0  0  0
  139.9522   77.9440  223.2659 H   0  0  0  0  0  0  0  0  0  0  0  0
  141.8047   78.6265  224.7463 H   0  0  0  0  0  0  0  0  0  0  0  0
  142.5102   78.2166  223.1635 H   0  0  0  0  0  0  0  0  0  0  0  0
  141.8257   80.9432  224.2948 H   0  0  0  0  0  0  0  0  0  0  0  0
  143.4516   80.2486  223.7570 H   0  0  0  0  0  0  0  0  0  0  0  0
  142.2891   82.0494  222.3679 H   0  0  0  0  0  0  0  0  0  0  0  0
  143.0567   80.5572  221.6169 H   0  0  0  0  0  0  0  0  0  0  0  0
  140.1396   81.2361  221.9192 H   0  0  0  0  0  0  0  0  0  0  0  0
  141.0958   80.8764  220.4308 H   0  0  0  0  0  0  0  0  0  0  0  0
  139.1712   70.0244  222.3761 H   0  0  0  0  0  0  0  0  0  0  0  0
  138.6588   68.5939  224.3186 H   0  0  0  0  0  0  0  0  0  0  0  0
  138.8099   68.1917  226.6357 H   0  0  0  0  0  0  0  0  0  0  0  0
  139.6084   68.8985  228.9110 H   0  0  0  0  0  0  0  0  0  0  0  0
  140.8767   71.0071  229.1275 H   0  0  0  0  0  0  0  0  0  0  0  0
  141.3818   72.4211  227.1890 H   0  0  0  0  0  0  0  0  0  0  0  0
  1  2  2  0
  2  3  1  0
  3  4  1  0
  4  5  1  0
  5  6  2  0
  5  7  1  0
  7  8  1  0
  8  9  1  0
  9 10  1  0
  9 11  1  0
 11 12  1  0
 12 13  1  0
 13 14  1  0
 14 15  1  0
 15 16  1  0
 16 17  1  0
 17 18  1  0
  2 19  1  0
 19 20  2  0
 20 21  1  0
 21 22  2  0
 22 23  1  0
 23 24  2  0
 24 25  1  0
 25 26  2  0
 26 27  1  0
 27 28  2  0
 12  7  1  0
 18 13  1  0
 28 19  1  0
 27 22  1  0
  3 29  1  0
  4 30  1  0
  4 31  1  0
  8 32  1  0
  8 33  1  0
  9 34  1  6
 10 35  1  0
 11 36  1  0
 11 37  1  0
 12 38  1  1
 13 39  1  0
 14 40  1  0
 14 41  1  0
 15 42  1  0
 15 43  1  0
 16 44  1  0
 16 45  1  0
 17 46  1  0
 17 47  1  0
 18 48  1  0
 18 49  1  0
 20 50  1  0
 21 51  1  0
 23 52  1  0
 24 53  1  0
 25 54  1  0
 26 55  1  0
M  END
>  <smiles>  (41) 
O=C(NCC(=O)N1C[C@H](O)C[C@H]1C1CCCCC1)c1ccc2ccccc2n1

>  <score_type>  (41) 
oracle

>  <origin>  (41) 
autodockgpu

>  <m_score__min__energy>  (41) 
-9.6799999999999997

>  <m_primary>  (41) 
energy

>  <rmsd>  (41) 
2.0557162153716906

>  <m_score__min__rmsd>  (41) 
2.0557162153716906

>  <meeko>  (41) 
{"free_energy": -8.96, "intermolecular_energy": -10.75, "internal_energy": -1.75, "cluster_size": 32, "cluster_id": 1, "rank_in_cluster": 29}

>  <energy>  (41) 
-8.3

>  <cluster_rmsd>  (41) 
0.7

>  <cluster>  (41) 
4

$$$$

     RDKit          3D

 55 58  0  0  0  0  0  0  0  0999 V2000
  141.0490   71.5030  221.4780 O   0  0  0  0  0  0  0  0  0  0  0  0
  140.4430   72.0430  222.4460 C   0  0  0  0  0  0  0  0  0  0  0  0
  139.9430   73.3760  222.3970 N   0  0  0  0  0  0  0  0  0  0  0  0
  140.1190   74.2010  221.1770 C   0  0  0  0  0  0  0  0  0  0  0  0
  140.5150   75.5570  221.5620 C   0  0  0  0  0  0  0  0  0  0  0  0
  139.9560   75.9860  222.6570 O   0  0  0  0  0  0  0  0  0  0  0  0
  141.3870   76.4640  220.9640 N   0  0  0  0  0  0  0  0  0  0  0  0
  142.4450   75.8810  220.0320 C   0  0  0  0  0  0  0  0  0  0  0  0
  142.4020   76.8000  218.8570 C   0  0  2  0  0  0  0  0  0  0  0  0
  143.6950   77.1300  218.4420 O   0  0  0  0  0  0  0  0  0  0  0  0
  141.6640   78.0360  219.3310 C   0  0  0  0  0  0  0  0  0  0  0  0
  141.6690   77.8350  220.8570 C   0  0  1  0  0  0  0  0  0  0  0  0
  140.7770   78.8220  221.4690 C   0  0  0  0  0  0  0  0  0  0  0  0
  140.4800   78.7240  222.9200 C   0  0  0  0  0  0  0  0  0  0  0  0
  141.8230   78.7030  223.6380 C   0  0  0  0  0  0  0  0  0  0  0  0
  142.4540   80.0450  223.4410 C   0  0  0  0  0  0  0  0  0  0  0  0
  142.4750   80.5620  222.0460 C   0  0  0  0  0  0  0  0  0  0  0  0
  141.2380   80.2610  221.2350 C   0  0  0  0  0  0  0  0  0  0  0  0
  140.2440   71.2650  223.6760 C   0  0  0  0  0  0  0  0  0  0  0  0
  139.5950   70.0510  223.6420 C   0  0  0  0  0  0  0  0  0  0  0  0
  139.3780   69.2750  224.7580 C   0  0  0  0  0  0  0  0  0  0  0  0
  139.8370   69.7470  225.9640 C   0  0  0  0  0  0  0  0  0  0  0  0
  139.6240   68.9780  227.0850 C   0  0  0  0  0  0  0  0  0  0  0  0
  140.0830   69.4430  228.3100 C   0  0  0  0  0  0  0  0  0  0  0  0
  140.7330   70.6590  228.3480 C   0  0  0  0  0  0  0  0  0  0  0  0
  140.9430   71.4220  227.2300 C   0  0  0  0  0  0  0  0  0  0  0  0
  140.4850   70.9620  225.9910 C   0  0  0  0  0  0  0  0  0  0  0  0
  140.6830   71.7030  224.8710 N   0  0  0  0  0  0  0  0  0  0  0  0
  139.4550   73.7420  223.2400 H   0  0  0  0  0  0  0  0  0  0  0  0
  140.8999   73.7565  220.5425 H   0  0  0  0  0  0  0  0  0  0  0  0
  139.1723   74.2386  220.6182 H   0  0  0  0  0  0  0  0  0  0  0  0
  143.4378   75.8913  220.5056 H   0  0  0  0  0  0  0  0  0  0  0  0
  142.2570   74.8301  219.7670 H   0  0  0  0  0  0  0  0  0  0  0  0
  141.9013   76.3328  217.9961 H   0  0  0  0  0  0  0  0  0  0  0  0
  144.2870   76.3200  218.4150 H   0  0  0  0  0  0  0  0  0  0  0  0
  142.1965   78.9553  219.0457 H   0  0  0  0  0  0  0  0  0  0  0  0
  140.6590   78.1499  218.8985 H   0  0  0  0  0  0  0  0  0  0  0  0
  142.5926   78.0304  221.4217 H   0  0  0  0  0  0  0  0  0  0  0  0
  139.8498   78.5596  220.9384 H   0  0  0  0  0  0  0  0  0  0  0  0
  139.8888   79.5924  223.2460 H   0  0  0  0  0  0  0  0  0  0  0  0
  139.8953   77.8199  223.1453 H   0  0  0  0  0  0  0  0  0  0  0  0
  141.6733   78.5113  224.7108 H   0  0  0  0  0  0  0  0  0  0  0  0
  142.4671   77.9071  223.2359 H   0  0  0  0  0  0  0  0  0  0  0  0
  141.9029   80.7691  224.0591 H   0  0  0  0  0  0  0  0  0  0  0  0
  143.5094   79.9188  223.7244 H   0  0  0  0  0  0  0  0  0  0  0  0
  142.5974   81.6543  222.0888 H   0  0  0  0  0  0  0  0  0  0  0  0
  143.3062   80.0486  221.5406 H   0  0  0  0  0  0  0  0  0  0  0  0
  140.4343   80.9508  221.5322 H   0  0  0  0  0  0  0  0  0  0  0  0
  141.4741   80.3883  220.1682 H   0  0  0  0  0  0  0  0  0  0  0  0
  139.2308   69.6819  222.6719 H   0  0  0  0  0  0  0  0  0  0  0  0
  138.8550   68.3099  224.6868 H   0  0  0  0  0  0  0  0  0  0  0  0
  139.1002   68.0135  227.0120 H   0  0  0  0  0  0  0  0  0  0  0  0
  139.9320   68.8560  229.2279 H   0  0  0  0  0  0  0  0  0  0  0  0
  141.0979   71.0315  229.3165 H   0  0  0  0  0  0  0  0  0  0  0  0
  141.4664   72.3865  227.3058 H   0  0  0  0  0  0  0  0  0  0  0  0
  1  2  2  0
  2  3  1  0
  3  4  1  0
  4  5  1  0
  5  6  2  0
  5  7  1  0
  7  8  1  0
  8  9  1  0
  9 10  1  0
  9 11  1  0
 11 12  1  0
 12 13  1  0
 13 14  1  0
 14 15  1  0
 15 16  1  0
 16 17  1  0
 17 18  1  0
  2 19  1  0
 19 20  2  0
 20 21  1  0
 21 22  2  0
 22 23  1  0
 23 24  2  0
 24 25  1  0
 25 26  2  0
 26 27  1  0
 27 28  2  0
 12  7  1  0
 18 13  1  0
 28 19  1  0
 27 22  1  0
  3 29  1  0
  4 30  1  0
  4 31  1  0
  8 32  1  0
  8 33  1  0
  9 34  1  6
 10 35  1  0
 11 36  1  0
 11 37  1  0
 12 38  1  1
 13 39  1  0
 14 40  1  0
 14 41  1  0
 15 42  1  0
 15 43  1  0
 16 44  1  0
 16 45  1  0
 17 46  1  0
 17 47  1  0
 18 48  1  0
 18 49  1  0
 20 50  1  0
 21 51  1  0
 23 52  1  0
 24 53  1  0
 25 54  1  0
 26 55  1  0
M  END
>  <smiles>  (42) 
O=C(NCC(=O)N1C[C@H](O)C[C@H]1C1CCCCC1)c1ccc2ccccc2n1

>  <score_type>  (42) 
oracle

>  <origin>  (42) 
autodockgpu

>  <m_score__min__energy>  (42) 
-9.6799999999999997

>  <m_primary>  (42) 
energy

>  <rmsd>  (42) 
1.9271963536889718

>  <m_score__min__rmsd>  (42) 
1.9271963536889718

>  <meeko>  (42) 
{"free_energy": -9.19, "intermolecular_energy": -10.98, "internal_energy": -1.7, "cluster_size": 32, "cluster_id": 1, "rank_in_cluster": 26}

>  <energy>  (42) 
-8.3

>  <cluster_rmsd>  (42) 
0.09

>  <cluster>  (42) 
4

$$$$

     RDKit          3D

 55 58  0  0  0  0  0  0  0  0999 V2000
  135.8280   77.2270  223.0890 O   0  0  0  0  0  0  0  0  0  0  0  0
  136.2180   76.0460  223.3090 C   0  0  0  0  0  0  0  0  0  0  0  0
  137.3780   75.4890  222.6970 N   0  0  0  0  0  0  0  0  0  0  0  0
  138.1930   76.2960  221.7560 C   0  0  0  0  0  0  0  0  0  0  0  0
  139.5910   75.8700  221.8390 C   0  0  0  0  0  0  0  0  0  0  0  0
  139.7580   74.6780  222.3340 O   0  0  0  0  0  0  0  0  0  0  0  0
  140.7710   76.5180  221.4780 N   0  0  0  0  0  0  0  0  0  0  0  0
  141.8200   75.6750  220.7600 C   0  0  0  0  0  0  0  0  0  0  0  0
  142.2630   76.5650  219.6470 C   0  0  2  0  0  0  0  0  0  0  0  0
  143.6540   76.5480  219.5250 O   0  0  0  0  0  0  0  0  0  0  0  0
  141.7780   77.9530  220.0150 C   0  0  0  0  0  0  0  0  0  0  0  0
  141.4070   77.7700  221.4970 C   0  0  1  0  0  0  0  0  0  0  0  0
  140.6840   78.9570  221.9560 C   0  0  0  0  0  0  0  0  0  0  0  0
  140.4050   79.1180  223.4050 C   0  0  0  0  0  0  0  0  0  0  0  0
  141.7460   79.0010  224.1200 C   0  0  0  0  0  0  0  0  0  0  0  0
  142.5640   80.1900  223.7280 C   0  0  0  0  0  0  0  0  0  0  0  0
  142.6330   80.4890  222.2720 C   0  0  0  0  0  0  0  0  0  0  0  0
  141.3480   80.2610  221.5130 C   0  0  0  0  0  0  0  0  0  0  0  0
  135.4430   75.2080  224.2340 C   0  0  0  0  0  0  0  0  0  0  0  0
  134.6620   75.7810  225.2130 C   0  0  0  0  0  0  0  0  0  0  0  0
  133.9140   75.0510  226.1090 C   0  0  0  0  0  0  0  0  0  0  0  0
  133.9560   73.6810  226.0130 C   0  0  0  0  0  0  0  0  0  0  0  0
  133.2120   72.9450  226.9040 C   0  0  0  0  0  0  0  0  0  0  0  0
  133.2460   71.5590  226.8180 C   0  0  0  0  0  0  0  0  0  0  0  0
  134.0280   70.9830  225.8390 C   0  0  0  0  0  0  0  0  0  0  0  0
  134.7680   71.7200  224.9530 C   0  0  0  0  0  0  0  0  0  0  0  0
  134.7400   73.1150  225.0310 C   0  0  0  0  0  0  0  0  0  0  0  0
  135.4660   73.8630  224.1630 N   0  0  0  0  0  0  0  0  0  0  0  0
  137.6280   74.5070  222.9340 H   0  0  0  0  0  0  0  0  0  0  0  0
  137.8241   76.1481  220.7303 H   0  0  0  0  0  0  0  0  0  0  0  0
  138.1158   77.3608  222.0212 H   0  0  0  0  0  0  0  0  0  0  0  0
  142.6583   75.4327  221.4297 H   0  0  0  0  0  0  0  0  0  0  0  0
  141.4328   74.7061  220.4118 H   0  0  0  0  0  0  0  0  0  0  0  0
  141.8560   76.2353  218.6797 H   0  0  0  0  0  0  0  0  0  0  0  0
  144.0790   77.2630  220.0870 H   0  0  0  0  0  0  0  0  0  0  0  0
  142.5737   78.7022  219.8902 H   0  0  0  0  0  0  0  0  0  0  0  0
  140.9504   78.3178  219.3889 H   0  0  0  0  0  0  0  0  0  0  0  0
  142.2080   77.7264  222.2497 H   0  0  0  0  0  0  0  0  0  0  0  0
  139.7173   78.7606  221.4692 H   0  0  0  0  0  0  0  0  0  0  0  0
  139.9561   80.1035  223.5983 H   0  0  0  0  0  0  0  0  0  0  0  0
  139.6968   78.3551  223.7607 H   0  0  0  0  0  0  0  0  0  0  0  0
  141.5924   78.9923  225.2092 H   0  0  0  0  0  0  0  0  0  0  0  0
  142.2565   78.0677  223.8402 H   0  0  0  0  0  0  0  0  0  0  0  0
  142.1388   81.0707  224.2316 H   0  0  0  0  0  0  0  0  0  0  0  0
  143.5947   79.9501  224.0283 H   0  0  0  0  0  0  0  0  0  0  0  0
  142.9167   81.5451  222.1535 H   0  0  0  0  0  0  0  0  0  0  0  0
  143.3688   79.7894  221.8487 H   0  0  0  0  0  0  0  0  0  0  0  0
  140.6617   81.0991  221.7045 H   0  0  0  0  0  0  0  0  0  0  0  0
  141.5780   80.1943  220.4394 H   0  0  0  0  0  0  0  0  0  0  0  0
  134.6345   76.8784  225.2826 H   0  0  0  0  0  0  0  0  0  0  0  0
  133.3028   75.5482  226.8766 H   0  0  0  0  0  0  0  0  0  0  0  0
  132.6012   73.4441  227.6707 H   0  0  0  0  0  0  0  0  0  0  0  0
  132.6638   70.9365  227.5133 H   0  0  0  0  0  0  0  0  0  0  0  0
  134.0587   69.8858  225.7667 H   0  0  0  0  0  0  0  0  0  0  0  0
  135.3785   71.2187  224.1874 H   0  0  0  0  0  0  0  0  0  0  0  0
  1  2  2  0
  2  3  1  0
  3  4  1  0
  4  5  1  0
  5  6  2  0
  5  7  1  0
  7  8  1  0
  8  9  1  0
  9 10  1  0
  9 11  1  0
 11 12  1  0
 12 13  1  0
 13 14  1  0
 14 15  1  0
 15 16  1  0
 16 17  1  0
 17 18  1  0
  2 19  1  0
 19 20  2  0
 20 21  1  0
 21 22  2  0
 22 23  1  0
 23 24  2  0
 24 25  1  0
 25 26  2  0
 26 27  1  0
 27 28  2  0
 12  7  1  0
 18 13  1  0
 28 19  1  0
 27 22  1  0
  3 29  1  0
  4 30  1  0
  4 31  1  0
  8 32  1  0
  8 33  1  0
  9 34  1  6
 10 35  1  0
 11 36  1  0
 11 37  1  0
 12 38  1  1
 13 39  1  0
 14 40  1  0
 14 41  1  0
 15 42  1  0
 15 43  1  0
 16 44  1  0
 16 45  1  0
 17 46  1  0
 17 47  1  0
 18 48  1  0
 18 49  1  0
 20 50  1  0
 21 51  1  0
 23 52  1  0
 24 53  1  0
 25 54  1  0
 26 55  1  0
M  END
>  <smiles>  (43) 
O=C(NCC(=O)N1C[C@H](O)C[C@H]1C1CCCCC1)c1ccc2ccccc2n1

>  <score_type>  (43) 
oracle

>  <origin>  (43) 
autodockgpu

>  <m_score__min__energy>  (43) 
-9.6799999999999997

>  <m_primary>  (43) 
energy

>  <rmsd>  (43) 
5.546335143828788

>  <m_score__min__rmsd>  (43) 
5.546335143828788

>  <meeko>  (43) 
{"free_energy": -8.29, "intermolecular_energy": -10.08, "internal_energy": -2.12, "cluster_size": 14, "cluster_id": 4, "rank_in_cluster": 11}

>  <energy>  (43) 
-8.29

>  <cluster_rmsd>  (43) 
0.1

>  <cluster>  (43) 
4

$$$$

     RDKit          3D

 55 58  0  0  0  0  0  0  0  0999 V2000
  141.3660   71.8890  221.5990 O   0  0  0  0  0  0  0  0  0  0  0  0
  140.5420   72.2970  222.4660 C   0  0  0  0  0  0  0  0  0  0  0  0
  139.8360   73.5270  222.3410 N   0  0  0  0  0  0  0  0  0  0  0  0
  140.0450   74.3990  221.1590 C   0  0  0  0  0  0  0  0  0  0  0  0
  140.3780   75.7520  221.6080 C   0  0  0  0  0  0  0  0  0  0  0  0
  139.8170   76.0950  222.7320 O   0  0  0  0  0  0  0  0  0  0  0  0
  141.1910   76.7330  221.0440 N   0  0  0  0  0  0  0  0  0  0  0  0
  142.2000   76.2660  219.9990 C   0  0  0  0  0  0  0  0  0  0  0  0
  142.0640   77.2860  218.9190 C   0  0  2  0  0  0  0  0  0  0  0  0
  143.3200   77.6870  218.4580 O   0  0  0  0  0  0  0  0  0  0  0  0
  141.3310   78.4530  219.5480 C   0  0  0  0  0  0  0  0  0  0  0  0
  141.4360   78.1160  221.0460 C   0  0  1  0  0  0  0  0  0  0  0  0
  140.5630   79.0180  221.7990 C   0  0  0  0  0  0  0  0  0  0  0  0
  140.4640   78.8650  223.2720 C   0  0  0  0  0  0  0  0  0  0  0  0
  141.8870   78.9290  223.8120 C   0  0  0  0  0  0  0  0  0  0  0  0
  142.3900   80.3180  223.5790 C   0  0  0  0  0  0  0  0  0  0  0  0
  142.1920   80.8670  222.2100 C   0  0  0  0  0  0  0  0  0  0  0  0
  140.8860   80.4930  221.5550 C   0  0  0  0  0  0  0  0  0  0  0  0
  140.3010   71.4680  223.6550 C   0  0  0  0  0  0  0  0  0  0  0  0
  139.6420   70.2630  223.5480 C   0  0  0  0  0  0  0  0  0  0  0  0
  139.3860   69.4420  224.6230 C   0  0  0  0  0  0  0  0  0  0  0  0
  139.8140   69.8560  225.8610 C   0  0  0  0  0  0  0  0  0  0  0  0
  139.5620   69.0410  226.9410 C   0  0  0  0  0  0  0  0  0  0  0  0
  139.9900   69.4480  228.1980 C   0  0  0  0  0  0  0  0  0  0  0  0
  140.6490   70.6540  228.3070 C   0  0  0  0  0  0  0  0  0  0  0  0
  140.8980   71.4630  227.2300 C   0  0  0  0  0  0  0  0  0  0  0  0
  140.4720   71.0620  225.9600 C   0  0  0  0  0  0  0  0  0  0  0  0
  140.7090   71.8490  224.8800 N   0  0  0  0  0  0  0  0  0  0  0  0
  139.1760   73.7870  223.1020 H   0  0  0  0  0  0  0  0  0  0  0  0
  140.8698   74.0007  220.5499 H   0  0  0  0  0  0  0  0  0  0  0  0
  139.1260   74.4272  220.5551 H   0  0  0  0  0  0  0  0  0  0  0  0
  143.2202   76.2597  220.4101 H   0  0  0  0  0  0  0  0  0  0  0  0
  142.0173   75.2390  219.6497 H   0  0  0  0  0  0  0  0  0  0  0  0
  141.5205   76.8850  218.0508 H   0  0  0  0  0  0  0  0  0  0  0  0
  143.9790   77.7630  219.2120 H   0  0  0  0  0  0  0  0  0  0  0  0
  141.8245   79.4084  219.3163 H   0  0  0  0  0  0  0  0  0  0  0  0
  140.2986   78.5776  219.1895 H   0  0  0  0  0  0  0  0  0  0  0  0
  142.3888   78.2858  221.5688 H   0  0  0  0  0  0  0  0  0  0  0  0
  139.5961   78.6982  221.3833 H   0  0  0  0  0  0  0  0  0  0  0  0
  139.8591   79.6788  223.6985 H   0  0  0  0  0  0  0  0  0  0  0  0
  139.9797   77.9146  223.5408 H   0  0  0  0  0  0  0  0  0  0  0  0
  141.8915   78.7028  224.8885 H   0  0  0  0  0  0  0  0  0  0  0  0
  142.5287   78.1928  223.3058 H   0  0  0  0  0  0  0  0  0  0  0  0
  141.8744   80.9847  224.2859 H   0  0  0  0  0  0  0  0  0  0  0  0
  143.4796   80.2643  223.7201 H   0  0  0  0  0  0  0  0  0  0  0  0
  142.2404   81.9642  222.2723 H   0  0  0  0  0  0  0  0  0  0  0  0
  142.9849   80.4290  221.5860 H   0  0  0  0  0  0  0  0  0  0  0  0
  140.0805   81.1135  221.9748 H   0  0  0  0  0  0  0  0  0  0  0  0
  140.9720   80.6621  220.4715 H   0  0  0  0  0  0  0  0  0  0  0  0
  139.3030   69.9403  222.5526 H   0  0  0  0  0  0  0  0  0  0  0  0
  138.8564   68.4864  224.4949 H   0  0  0  0  0  0  0  0  0  0  0  0
  139.0319   68.0859  226.8112 H   0  0  0  0  0  0  0  0  0  0  0  0
  139.8076   68.8234  229.0849 H   0  0  0  0  0  0  0  0  0  0  0  0
  140.9892   70.9804  229.3008 H   0  0  0  0  0  0  0  0  0  0  0  0
  141.4275   72.4180  227.3628 H   0  0  0  0  0  0  0  0  0  0  0  0
  1  2  2  0
  2  3  1  0
  3  4  1  0
  4  5  1  0
  5  6  2  0
  5  7  1  0
  7  8  1  0
  8  9  1  0
  9 10  1  0
  9 11  1  0
 11 12  1  0
 12 13  1  0
 13 14  1  0
 14 15  1  0
 15 16  1  0
 16 17  1  0
 17 18  1  0
  2 19  1  0
 19 20  2  0
 20 21  1  0
 21 22  2  0
 22 23  1  0
 23 24  2  0
 24 25  1  0
 25 26  2  0
 26 27  1  0
 27 28  2  0
 12  7  1  0
 18 13  1  0
 28 19  1  0
 27 22  1  0
  3 29  1  0
  4 30  1  0
  4 31  1  0
  8 32  1  0
  8 33  1  0
  9 34  1  6
 10 35  1  0
 11 36  1  0
 11 37  1  0
 12 38  1  1
 13 39  1  0
 14 40  1  0
 14 41  1  0
 15 42  1  0
 15 43  1  0
 16 44  1  0
 16 45  1  0
 17 46  1  0
 17 47  1  0
 18 48  1  0
 18 49  1  0
 20 50  1  0
 21 51  1  0
 23 52  1  0
 24 53  1  0
 25 54  1  0
 26 55  1  0
M  END
>  <smiles>  (44) 
O=C(NCC(=O)N1C[C@H](O)C[C@H]1C1CCCCC1)c1ccc2ccccc2n1

>  <score_type>  (44) 
oracle

>  <origin>  (44) 
autodockgpu

>  <m_score__min__energy>  (44) 
-9.6799999999999997

>  <m_primary>  (44) 
energy

>  <rmsd>  (44) 
1.9849010929800297

>  <m_score__min__rmsd>  (44) 
1.9849010929800297

>  <meeko>  (44) 
{"free_energy": -9.54, "intermolecular_energy": -11.33, "internal_energy": -1.66, "cluster_size": 32, "cluster_id": 1, "rank_in_cluster": 6}

>  <energy>  (44) 
-8.29

>  <cluster_rmsd>  (44) 
0.09

>  <cluster>  (44) 
4

$$$$

     RDKit          3D

 55 58  0  0  0  0  0  0  0  0999 V2000
  140.8490   71.4520  221.4110 O   0  0  0  0  0  0  0  0  0  0  0  0
  140.3590   72.0130  222.4320 C   0  0  0  0  0  0  0  0  0  0  0  0
  139.9720   73.3840  222.4490 N   0  0  0  0  0  0  0  0  0  0  0  0
  140.1330   74.2260  221.2380 C   0  0  0  0  0  0  0  0  0  0  0  0
  140.3510   75.6170  221.6420 C   0  0  0  0  0  0  0  0  0  0  0  0
  139.6470   75.9910  222.6710 O   0  0  0  0  0  0  0  0  0  0  0  0
  141.1810   76.6050  221.1180 N   0  0  0  0  0  0  0  0  0  0  0  0
  142.1770   76.1660  220.0490 C   0  0  0  0  0  0  0  0  0  0  0  0
  142.0570   77.2350  219.0160 C   0  0  2  0  0  0  0  0  0  0  0  0
  143.3190   77.6320  218.5680 O   0  0  0  0  0  0  0  0  0  0  0  0
  141.3490   78.3880  219.7000 C   0  0  0  0  0  0  0  0  0  0  0  0
  141.4530   77.9820  221.1810 C   0  0  1  0  0  0  0  0  0  0  0  0
  140.6010   78.8670  221.9770 C   0  0  0  0  0  0  0  0  0  0  0  0
  140.6750   78.8000  223.4580 C   0  0  0  0  0  0  0  0  0  0  0  0
  142.1400   78.9970  223.8280 C   0  0  0  0  0  0  0  0  0  0  0  0
  142.5060   80.4010  223.4640 C   0  0  0  0  0  0  0  0  0  0  0  0
  142.1190   80.8470  222.0980 C   0  0  0  0  0  0  0  0  0  0  0  0
  140.7810   80.3420  221.6170 C   0  0  0  0  0  0  0  0  0  0  0  0
  140.1790   71.2190  223.6550 C   0  0  0  0  0  0  0  0  0  0  0  0
  139.6070   69.9680  223.6020 C   0  0  0  0  0  0  0  0  0  0  0  0
  139.4120   69.1760  224.7110 C   0  0  0  0  0  0  0  0  0  0  0  0
  139.8120   69.6700  225.9290 C   0  0  0  0  0  0  0  0  0  0  0  0
  139.6210   68.8850  227.0420 C   0  0  0  0  0  0  0  0  0  0  0  0
  140.0210   69.3730  228.2800 C   0  0  0  0  0  0  0  0  0  0  0  0
  140.5930   70.6270  228.3360 C   0  0  0  0  0  0  0  0  0  0  0  0
  140.7820   71.4050  227.2250 C   0  0  0  0  0  0  0  0  0  0  0  0
  140.3830   70.9230  225.9740 C   0  0  0  0  0  0  0  0  0  0  0  0
  140.5620   71.6790  224.8620 N   0  0  0  0  0  0  0  0  0  0  0  0
  139.5760   73.7650  223.3320 H   0  0  0  0  0  0  0  0  0  0  0  0
  140.9972   73.8723  220.6566 H   0  0  0  0  0  0  0  0  0  0  0  0
  139.2260   74.1595  220.6193 H   0  0  0  0  0  0  0  0  0  0  0  0
  143.1984   76.1220  220.4550 H   0  0  0  0  0  0  0  0  0  0  0  0
  141.9733   75.1593  219.6553 H   0  0  0  0  0  0  0  0  0  0  0  0
  141.5026   76.8833  218.1334 H   0  0  0  0  0  0  0  0  0  0  0  0
  143.9400   77.8120  219.3360 H   0  0  0  0  0  0  0  0  0  0  0  0
  141.8605   79.3429  219.5089 H   0  0  0  0  0  0  0  0  0  0  0  0
  140.3180   78.5491  219.3520 H   0  0  0  0  0  0  0  0  0  0  0  0
  142.4106   78.1089  221.7071 H   0  0  0  0  0  0  0  0  0  0  0  0
  139.6216   78.4554  221.6916 H   0  0  0  0  0  0  0  0  0  0  0  0
  140.0600   79.5947  223.9054 H   0  0  0  0  0  0  0  0  0  0  0  0
  140.2966   77.8371  223.8318 H   0  0  0  0  0  0  0  0  0  0  0  0
  142.2800   78.8394  224.9076 H   0  0  0  0  0  0  0  0  0  0  0  0
  142.7769   78.2774  223.2928 H   0  0  0  0  0  0  0  0  0  0  0  0
  142.0200   81.0728  224.1868 H   0  0  0  0  0  0  0  0  0  0  0  0
  143.6053   80.4337  223.4843 H   0  0  0  0  0  0  0  0  0  0  0  0
  142.0903   81.9466  222.0935 H   0  0  0  0  0  0  0  0  0  0  0  0
  142.8703   80.4267  221.4132 H   0  0  0  0  0  0  0  0  0  0  0  0
  139.9812   80.9299  222.0909 H   0  0  0  0  0  0  0  0  0  0  0  0
  140.7345   80.4481  220.5231 H   0  0  0  0  0  0  0  0  0  0  0  0
  139.2892   69.5811  222.6226 H   0  0  0  0  0  0  0  0  0  0  0  0
  138.9513   68.1808  224.6248 H   0  0  0  0  0  0  0  0  0  0  0  0
  139.1604   67.8900  226.9539 H   0  0  0  0  0  0  0  0  0  0  0  0
  139.8849   68.7742  229.1927 H   0  0  0  0  0  0  0  0  0  0  0  0
  140.9105   71.0183  229.3138 H   0  0  0  0  0  0  0  0  0  0  0  0
  141.2432   72.3995  227.3155 H   0  0  0  0  0  0  0  0  0  0  0  0
  1  2  2  0
  2  3  1  0
  3  4  1  0
  4  5  1  0
  5  6  2  0
  5  7  1  0
  7  8  1  0
  8  9  1  0
  9 10  1  0
  9 11  1  0
 11 12  1  0
 12 13  1  0
 13 14  1  0
 14 15  1  0
 15 16  1  0
 16 17  1  0
 17 18  1  0
  2 19  1  0
 19 20  2  0
 20 21  1  0
 21 22  2  0
 22 23  1  0
 23 24  2  0
 24 25  1  0
 25 26  2  0
 26 27  1  0
 27 28  2  0
 12  7  1  0
 18 13  1  0
 28 19  1  0
 27 22  1  0
  3 29  1  0
  4 30  1  0
  4 31  1  0
  8 32  1  0
  8 33  1  0
  9 34  1  6
 10 35  1  0
 11 36  1  0
 11 37  1  0
 12 38  1  1
 13 39  1  0
 14 40  1  0
 14 41  1  0
 15 42  1  0
 15 43  1  0
 16 44  1  0
 16 45  1  0
 17 46  1  0
 17 47  1  0
 18 48  1  0
 18 49  1  0
 20 50  1  0
 21 51  1  0
 23 52  1  0
 24 53  1  0
 25 54  1  0
 26 55  1  0
M  END
>  <smiles>  (45) 
O=C(NCC(=O)N1C[C@H](O)C[C@H]1C1CCCCC1)c1ccc2ccccc2n1

>  <score_type>  (45) 
oracle

>  <origin>  (45) 
autodockgpu

>  <m_score__min__energy>  (45) 
-9.6799999999999997

>  <m_primary>  (45) 
energy

>  <rmsd>  (45) 
1.9322288425832403

>  <m_score__min__rmsd>  (45) 
1.9322288425832403

>  <meeko>  (45) 
{"free_energy": -9.38, "intermolecular_energy": -11.17, "internal_energy": -1.84, "cluster_size": 32, "cluster_id": 1, "rank_in_cluster": 17}

>  <energy>  (45) 
-8.29

>  <cluster_rmsd>  (45) 
0.11

>  <cluster>  (45) 
4

$$$$

     RDKit          3D

 55 58  0  0  0  0  0  0  0  0999 V2000
  135.8220   77.3140  223.2450 O   0  0  0  0  0  0  0  0  0  0  0  0
  136.2200   76.1320  223.4430 C   0  0  0  0  0  0  0  0  0  0  0  0
  137.3910   75.5980  222.8320 N   0  0  0  0  0  0  0  0  0  0  0  0
  138.2080   76.4310  221.9170 C   0  0  0  0  0  0  0  0  0  0  0  0
  139.5890   75.9440  221.9210 C   0  0  0  0  0  0  0  0  0  0  0  0
  139.7210   74.7190  222.3440 O   0  0  0  0  0  0  0  0  0  0  0  0
  140.7810   76.5600  221.5500 N   0  0  0  0  0  0  0  0  0  0  0  0
  141.8150   75.6820  220.8510 C   0  0  0  0  0  0  0  0  0  0  0  0
  142.2770   76.5400  219.7210 C   0  0  2  0  0  0  0  0  0  0  0  0
  143.6680   76.4940  219.6030 O   0  0  0  0  0  0  0  0  0  0  0  0
  141.8190   77.9450  220.0590 C   0  0  0  0  0  0  0  0  0  0  0  0
  141.4420   77.8000  221.5440 C   0  0  1  0  0  0  0  0  0  0  0  0
  140.7410   79.0110  221.9760 C   0  0  0  0  0  0  0  0  0  0  0  0
  140.3970   79.1720  223.4110 C   0  0  0  0  0  0  0  0  0  0  0  0
  141.6940   79.0000  224.1910 C   0  0  0  0  0  0  0  0  0  0  0  0
  142.5750   80.1600  223.8510 C   0  0  0  0  0  0  0  0  0  0  0  0
  142.7270   80.4660  222.4020 C   0  0  0  0  0  0  0  0  0  0  0  0
  141.4750   80.2920  221.5780 C   0  0  0  0  0  0  0  0  0  0  0  0
  135.4430   75.2670  224.3420 C   0  0  0  0  0  0  0  0  0  0  0  0
  134.6570   75.8120  225.3340 C   0  0  0  0  0  0  0  0  0  0  0  0
  133.9070   75.0580  226.2060 C   0  0  0  0  0  0  0  0  0  0  0  0
  133.9510   73.6910  226.0730 C   0  0  0  0  0  0  0  0  0  0  0  0
  133.2050   72.9290  226.9410 C   0  0  0  0  0  0  0  0  0  0  0  0
  133.2410   71.5460  226.8170 C   0  0  0  0  0  0  0  0  0  0  0  0
  134.0280   70.9980  225.8250 C   0  0  0  0  0  0  0  0  0  0  0  0
  134.7710   71.7600  224.9630 C   0  0  0  0  0  0  0  0  0  0  0  0
  134.7400   73.1530  225.0790 C   0  0  0  0  0  0  0  0  0  0  0  0
  135.4690   73.9260  224.2340 N   0  0  0  0  0  0  0  0  0  0  0  0
  137.6460   74.6130  223.0510 H   0  0  0  0  0  0  0  0  0  0  0  0
  137.7988   76.3667  220.8980 H   0  0  0  0  0  0  0  0  0  0  0  0
  138.1859   77.4779  222.2539 H   0  0  0  0  0  0  0  0  0  0  0  0
  142.6474   75.4372  221.5272 H   0  0  0  0  0  0  0  0  0  0  0  0
  141.4094   74.7139  220.5218 H   0  0  0  0  0  0  0  0  0  0  0  0
  141.8649   76.1980  218.7601 H   0  0  0  0  0  0  0  0  0  0  0  0
  144.1020   77.2610  220.0830 H   0  0  0  0  0  0  0  0  0  0  0  0
  142.6297   78.6755  219.9204 H   0  0  0  0  0  0  0  0  0  0  0  0
  140.9999   78.3132  219.4237 H   0  0  0  0  0  0  0  0  0  0  0  0
  142.2407   77.7561  222.2991 H   0  0  0  0  0  0  0  0  0  0  0  0
  139.7933   78.8555  221.4396 H   0  0  0  0  0  0  0  0  0  0  0  0
  139.9759   80.1722  223.5905 H   0  0  0  0  0  0  0  0  0  0  0  0
  139.6447   78.4331  223.7241 H   0  0  0  0  0  0  0  0  0  0  0  0
  141.4852   78.9898  225.2709 H   0  0  0  0  0  0  0  0  0  0  0  0
  142.1828   78.0500  223.9291 H   0  0  0  0  0  0  0  0  0  0  0  0
  142.1589   81.0527  224.3409 H   0  0  0  0  0  0  0  0  0  0  0  0
  143.5797   79.8795  224.2001 H   0  0  0  0  0  0  0  0  0  0  0  0
  143.0554   81.5115  222.3068 H   0  0  0  0  0  0  0  0  0  0  0  0
  143.4559   79.7414  222.0099 H   0  0  0  0  0  0  0  0  0  0  0  0
  140.8119   81.1542  221.7420 H   0  0  0  0  0  0  0  0  0  0  0  0
  141.7562   80.2238  220.5167 H   0  0  0  0  0  0  0  0  0  0  0  0
  134.6279   76.9071  225.4336 H   0  0  0  0  0  0  0  0  0  0  0  0
  133.2921   75.5335  226.9843 H   0  0  0  0  0  0  0  0  0  0  0  0
  132.5910   73.4058  227.7192 H   0  0  0  0  0  0  0  0  0  0  0  0
  132.6568   70.9039  227.4926 H   0  0  0  0  0  0  0  0  0  0  0  0
  134.0600   69.9033  225.7222 H   0  0  0  0  0  0  0  0  0  0  0  0
  135.3861   71.2808  224.1871 H   0  0  0  0  0  0  0  0  0  0  0  0
  1  2  2  0
  2  3  1  0
  3  4  1  0
  4  5  1  0
  5  6  2  0
  5  7  1  0
  7  8  1  0
  8  9  1  0
  9 10  1  0
  9 11  1  0
 11 12  1  0
 12 13  1  0
 13 14  1  0
 14 15  1  0
 15 16  1  0
 16 17  1  0
 17 18  1  0
  2 19  1  0
 19 20  2  0
 20 21  1  0
 21 22  2  0
 22 23  1  0
 23 24  2  0
 24 25  1  0
 25 26  2  0
 26 27  1  0
 27 28  2  0
 12  7  1  0
 18 13  1  0
 28 19  1  0
 27 22  1  0
  3 29  1  0
  4 30  1  0
  4 31  1  0
  8 32  1  0
  8 33  1  0
  9 34  1  6
 10 35  1  0
 11 36  1  0
 11 37  1  0
 12 38  1  1
 13 39  1  0
 14 40  1  0
 14 41  1  0
 15 42  1  0
 15 43  1  0
 16 44  1  0
 16 45  1  0
 17 46  1  0
 17 47  1  0
 18 48  1  0
 18 49  1  0
 20 50  1  0
 21 51  1  0
 23 52  1  0
 24 53  1  0
 25 54  1  0
 26 55  1  0
M  END
>  <smiles>  (46) 
O=C(NCC(=O)N1C[C@H](O)C[C@H]1C1CCCCC1)c1ccc2ccccc2n1

>  <score_type>  (46) 
oracle

>  <origin>  (46) 
autodockgpu

>  <m_score__min__energy>  (46) 
-9.6799999999999997

>  <m_primary>  (46) 
energy

>  <rmsd>  (46) 
5.587437558687584

>  <m_score__min__rmsd>  (46) 
5.587437558687584

>  <meeko>  (46) 
{"free_energy": -8.3, "intermolecular_energy": -10.09, "internal_energy": -2.15, "cluster_size": 14, "cluster_id": 4, "rank_in_cluster": 6}

>  <energy>  (46) 
-8.29

>  <cluster_rmsd>  (46) 
0.1

>  <cluster>  (46) 
4

$$$$

     RDKit          3D

 55 58  0  0  0  0  0  0  0  0999 V2000
  140.6370   71.4050  221.3850 O   0  0  0  0  0  0  0  0  0  0  0  0
  140.2280   71.9800  222.4320 C   0  0  0  0  0  0  0  0  0  0  0  0
  139.8820   73.3610  222.4700 N   0  0  0  0  0  0  0  0  0  0  0  0
  139.9900   74.1980  221.2500 C   0  0  0  0  0  0  0  0  0  0  0  0
  140.2590   75.5840  221.6360 C   0  0  0  0  0  0  0  0  0  0  0  0
  139.5780   75.9930  222.6670 O   0  0  0  0  0  0  0  0  0  0  0  0
  141.1170   76.5380  221.0940 N   0  0  0  0  0  0  0  0  0  0  0  0
  142.1480   76.0370  220.0860 C   0  0  0  0  0  0  0  0  0  0  0  0
  142.0760   77.0530  218.9970 C   0  0  2  0  0  0  0  0  0  0  0  0
  143.3580   77.4160  218.5760 O   0  0  0  0  0  0  0  0  0  0  0  0
  141.3550   78.2450  219.5950 C   0  0  0  0  0  0  0  0  0  0  0  0
  141.4010   77.9140  221.0970 C   0  0  1  0  0  0  0  0  0  0  0  0
  140.5290   78.8450  221.8150 C   0  0  0  0  0  0  0  0  0  0  0  0
  140.4130   78.7330  223.2910 C   0  0  0  0  0  0  0  0  0  0  0  0
  141.8310   78.7980  223.8440 C   0  0  0  0  0  0  0  0  0  0  0  0
  142.3500   80.1750  223.5790 C   0  0  0  0  0  0  0  0  0  0  0  0
  142.1720   80.6890  222.1940 C   0  0  0  0  0  0  0  0  0  0  0  0
  140.8690   80.3090  221.5350 C   0  0  0  0  0  0  0  0  0  0  0  0
  140.1030   71.1920  223.6670 C   0  0  0  0  0  0  0  0  0  0  0  0
  139.5690   69.9240  223.6380 C   0  0  0  0  0  0  0  0  0  0  0  0
  139.4260   69.1370  224.7580 C   0  0  0  0  0  0  0  0  0  0  0  0
  139.8410   69.6540  225.9620 C   0  0  0  0  0  0  0  0  0  0  0  0
  139.7010   68.8740  227.0860 C   0  0  0  0  0  0  0  0  0  0  0  0
  140.1170   69.3850  228.3090 C   0  0  0  0  0  0  0  0  0  0  0  0
  140.6520   70.6560  228.3400 C   0  0  0  0  0  0  0  0  0  0  0  0
  140.7890   71.4290  227.2180 C   0  0  0  0  0  0  0  0  0  0  0  0
  140.3740   70.9240  225.9820 C   0  0  0  0  0  0  0  0  0  0  0  0
  140.5020   71.6750  224.8590 N   0  0  0  0  0  0  0  0  0  0  0  0
  139.5530   73.7550  223.3760 H   0  0  0  0  0  0  0  0  0  0  0  0
  140.8119   73.8258  220.6207 H   0  0  0  0  0  0  0  0  0  0  0  0
  139.0473   74.1493  220.6853 H   0  0  0  0  0  0  0  0  0  0  0  0
  143.1533   76.0059  220.5314 H   0  0  0  0  0  0  0  0  0  0  0  0
  141.9495   75.0131  219.7365 H   0  0  0  0  0  0  0  0  0  0  0  0
  141.5502   76.6618  218.1136 H   0  0  0  0  0  0  0  0  0  0  0  0
  143.9620   77.5940  219.3570 H   0  0  0  0  0  0  0  0  0  0  0  0
  141.8825   79.1848  219.3749 H   0  0  0  0  0  0  0  0  0  0  0  0
  140.3391   78.3966  219.2015 H   0  0  0  0  0  0  0  0  0  0  0  0
  142.3404   78.0595  221.6505 H   0  0  0  0  0  0  0  0  0  0  0  0
  139.5636   78.5239  221.3969 H   0  0  0  0  0  0  0  0  0  0  0  0
  139.8118   79.5639  223.6888 H   0  0  0  0  0  0  0  0  0  0  0  0
  139.9164   77.7951  223.5803 H   0  0  0  0  0  0  0  0  0  0  0  0
  141.8222   78.6010  224.9262 H   0  0  0  0  0  0  0  0  0  0  0  0
  142.4705   78.0423  223.3646 H   0  0  0  0  0  0  0  0  0  0  0  0
  141.8337   80.8655  224.2621 H   0  0  0  0  0  0  0  0  0  0  0  0
  143.4375   80.1144  223.7329 H   0  0  0  0  0  0  0  0  0  0  0  0
  142.2299   81.7870  222.2275 H   0  0  0  0  0  0  0  0  0  0  0  0
  142.9676   80.2277  221.5904 H   0  0  0  0  0  0  0  0  0  0  0  0
  140.0651   80.9482  221.9290 H   0  0  0  0  0  0  0  0  0  0  0  0
  140.9685   80.4475  220.4483 H   0  0  0  0  0  0  0  0  0  0  0  0
  139.2395   69.5186  222.6699 H   0  0  0  0  0  0  0  0  0  0  0  0
  138.9939   68.1276  224.6918 H   0  0  0  0  0  0  0  0  0  0  0  0
  139.2680   67.8651  227.0179 H   0  0  0  0  0  0  0  0  0  0  0  0
  140.0221   68.7908  229.2298 H   0  0  0  0  0  0  0  0  0  0  0  0
  140.9823   71.0656  229.3060 H   0  0  0  0  0  0  0  0  0  0  0  0
  141.2216   72.4379  227.2885 H   0  0  0  0  0  0  0  0  0  0  0  0
  1  2  2  0
  2  3  1  0
  3  4  1  0
  4  5  1  0
  5  6  2  0
  5  7  1  0
  7  8  1  0
  8  9  1  0
  9 10  1  0
  9 11  1  0
 11 12  1  0
 12 13  1  0
 13 14  1  0
 14 15  1  0
 15 16  1  0
 16 17  1  0
 17 18  1  0
  2 19  1  0
 19 20  2  0
 20 21  1  0
 21 22  2  0
 22 23  1  0
 23 24  2  0
 24 25  1  0
 25 26  2  0
 26 27  1  0
 27 28  2  0
 12  7  1  0
 18 13  1  0
 28 19  1  0
 27 22  1  0
  3 29  1  0
  4 30  1  0
  4 31  1  0
  8 32  1  0
  8 33  1  0
  9 34  1  6
 10 35  1  0
 11 36  1  0
 11 37  1  0
 12 38  1  1
 13 39  1  0
 14 40  1  0
 14 41  1  0
 15 42  1  0
 15 43  1  0
 16 44  1  0
 16 45  1  0
 17 46  1  0
 17 47  1  0
 18 48  1  0
 18 49  1  0
 20 50  1  0
 21 51  1  0
 23 52  1  0
 24 53  1  0
 25 54  1  0
 26 55  1  0
M  END
>  <smiles>  (47) 
O=C(NCC(=O)N1C[C@H](O)C[C@H]1C1CCCCC1)c1ccc2ccccc2n1

>  <score_type>  (47) 
oracle

>  <origin>  (47) 
autodockgpu

>  <m_score__min__energy>  (47) 
-9.6799999999999997

>  <m_primary>  (47) 
energy

>  <rmsd>  (47) 
1.86102578585806

>  <m_score__min__rmsd>  (47) 
1.86102578585806

>  <meeko>  (47) 
{"free_energy": -9.4, "intermolecular_energy": -11.19, "internal_energy": -1.81, "cluster_size": 32, "cluster_id": 1, "rank_in_cluster": 13}

>  <energy>  (47) 
-8.29

>  <cluster_rmsd>  (47) 
0.07

>  <cluster>  (47) 
4

$$$$

     RDKit          3D

 55 58  0  0  0  0  0  0  0  0999 V2000
  135.6540   77.2620  223.1370 O   0  0  0  0  0  0  0  0  0  0  0  0
  136.1270   76.1230  223.4110 C   0  0  0  0  0  0  0  0  0  0  0  0
  137.3610   75.6500  222.8800 N   0  0  0  0  0  0  0  0  0  0  0  0
  138.1590   76.4980  221.9610 C   0  0  0  0  0  0  0  0  0  0  0  0
  139.5420   76.0180  221.9360 C   0  0  0  0  0  0  0  0  0  0  0  0
  139.6920   74.8010  222.3720 O   0  0  0  0  0  0  0  0  0  0  0  0
  140.7210   76.6360  221.5240 N   0  0  0  0  0  0  0  0  0  0  0  0
  141.7230   75.7640  220.7740 C   0  0  0  0  0  0  0  0  0  0  0  0
  142.1420   76.6340  219.6370 C   0  0  2  0  0  0  0  0  0  0  0  0
  143.5270   76.5850  219.4620 O   0  0  0  0  0  0  0  0  0  0  0  0
  141.7020   78.0350  220.0100 C   0  0  0  0  0  0  0  0  0  0  0  0
  141.3840   77.8740  221.5070 C   0  0  1  0  0  0  0  0  0  0  0  0
  140.7060   79.0810  221.9820 C   0  0  0  0  0  0  0  0  0  0  0  0
  140.4070   79.2190  223.4290 C   0  0  0  0  0  0  0  0  0  0  0  0
  141.7260   79.0250  224.1660 C   0  0  0  0  0  0  0  0  0  0  0  0
  142.6050   80.1850  223.8190 C   0  0  0  0  0  0  0  0  0  0  0  0
  142.7150   80.5150  222.3720 C   0  0  0  0  0  0  0  0  0  0  0  0
  141.4370   80.3640  221.5840 C   0  0  0  0  0  0  0  0  0  0  0  0
  135.3730   75.2460  224.3180 C   0  0  0  0  0  0  0  0  0  0  0  0
  134.5810   75.7780  225.3110 C   0  0  0  0  0  0  0  0  0  0  0  0
  133.8510   75.0110  226.1900 C   0  0  0  0  0  0  0  0  0  0  0  0
  133.9240   73.6450  226.0620 C   0  0  0  0  0  0  0  0  0  0  0  0
  133.1990   72.8710  226.9370 C   0  0  0  0  0  0  0  0  0  0  0  0
  133.2640   71.4890  226.8190 C   0  0  0  0  0  0  0  0  0  0  0  0
  134.0580   70.9540  225.8260 C   0  0  0  0  0  0  0  0  0  0  0  0
  134.7790   71.7270  224.9560 C   0  0  0  0  0  0  0  0  0  0  0  0
  134.7200   73.1200  225.0670 C   0  0  0  0  0  0  0  0  0  0  0  0
  135.4270   73.9040  224.2150 N   0  0  0  0  0  0  0  0  0  0  0  0
  137.6770   74.6990  223.1590 H   0  0  0  0  0  0  0  0  0  0  0  0
  137.7331   76.4437  220.9483 H   0  0  0  0  0  0  0  0  0  0  0  0
  138.1377   77.5407  222.3107 H   0  0  0  0  0  0  0  0  0  0  0  0
  142.5810   75.5088  221.4133 H   0  0  0  0  0  0  0  0  0  0  0  0
  141.3015   74.8011  220.4499 H   0  0  0  0  0  0  0  0  0  0  0  0
  141.6910   76.3052  218.6891 H   0  0  0  0  0  0  0  0  0  0  0  0
  143.9920   77.2660  220.0340 H   0  0  0  0  0  0  0  0  0  0  0  0
  142.5085   78.7652  219.8477 H   0  0  0  0  0  0  0  0  0  0  0  0
  140.8590   78.4122  219.4125 H   0  0  0  0  0  0  0  0  0  0  0  0
  142.2116   77.8197  222.2296 H   0  0  0  0  0  0  0  0  0  0  0  0
  139.7410   78.9411  221.4729 H   0  0  0  0  0  0  0  0  0  0  0  0
  139.9985   80.2186  223.6386 H   0  0  0  0  0  0  0  0  0  0  0  0
  139.6594   78.4796  223.7520 H   0  0  0  0  0  0  0  0  0  0  0  0
  141.5501   78.9976  225.2515 H   0  0  0  0  0  0  0  0  0  0  0  0
  142.1997   78.0764  223.8730 H   0  0  0  0  0  0  0  0  0  0  0  0
  142.2106   81.0718  224.3366 H   0  0  0  0  0  0  0  0  0  0  0  0
  143.6178   79.8916  224.1323 H   0  0  0  0  0  0  0  0  0  0  0  0
  143.0482   81.5597  222.2847 H   0  0  0  0  0  0  0  0  0  0  0  0
  143.4262   79.7924  221.9453 H   0  0  0  0  0  0  0  0  0  0  0  0
  140.7855   81.2276  221.7833 H   0  0  0  0  0  0  0  0  0  0  0  0
  141.6851   80.3126  220.5136 H   0  0  0  0  0  0  0  0  0  0  0  0
  134.5292   76.8726  225.4065 H   0  0  0  0  0  0  0  0  0  0  0  0
  133.2296   75.4762  226.9694 H   0  0  0  0  0  0  0  0  0  0  0  0
  132.5788   73.3380  227.7163 H   0  0  0  0  0  0  0  0  0  0  0  0
  132.6968   70.8375  227.5000 H   0  0  0  0  0  0  0  0  0  0  0  0
  134.1143   69.8597  225.7290 H   0  0  0  0  0  0  0  0  0  0  0  0
  135.3984   71.2574  224.1776 H   0  0  0  0  0  0  0  0  0  0  0  0
  1  2  2  0
  2  3  1  0
  3  4  1  0
  4  5  1  0
  5  6  2  0
  5  7  1  0
  7  8  1  0
  8  9  1  0
  9 10  1  0
  9 11  1  0
 11 12  1  0
 12 13  1  0
 13 14  1  0
 14 15  1  0
 15 16  1  0
 16 17  1  0
 17 18  1  0
  2 19  1  0
 19 20  2  0
 20 21  1  0
 21 22  2  0
 22 23  1  0
 23 24  2  0
 24 25  1  0
 25 26  2  0
 26 27  1  0
 27 28  2  0
 12  7  1  0
 18 13  1  0
 28 19  1  0
 27 22  1  0
  3 29  1  0
  4 30  1  0
  4 31  1  0
  8 32  1  0
  8 33  1  0
  9 34  1  6
 10 35  1  0
 11 36  1  0
 11 37  1  0
 12 38  1  1
 13 39  1  0
 14 40  1  0
 14 41  1  0
 15 42  1  0
 15 43  1  0
 16 44  1  0
 16 45  1  0
 17 46  1  0
 17 47  1  0
 18 48  1  0
 18 49  1  0
 20 50  1  0
 21 51  1  0
 23 52  1  0
 24 53  1  0
 25 54  1  0
 26 55  1  0
M  END
>  <smiles>  (48) 
O=C(NCC(=O)N1C[C@H](O)C[C@H]1C1CCCCC1)c1ccc2ccccc2n1

>  <score_type>  (48) 
oracle

>  <origin>  (48) 
autodockgpu

>  <m_score__min__energy>  (48) 
-9.6799999999999997

>  <m_primary>  (48) 
energy

>  <rmsd>  (48) 
5.575996044642486

>  <m_score__min__rmsd>  (48) 
5.575996044642486

>  <meeko>  (48) 
{"free_energy": -8.24, "intermolecular_energy": -10.03, "internal_energy": -2.12, "cluster_size": 14, "cluster_id": 4, "rank_in_cluster": 13}

>  <energy>  (48) 
-8.28

>  <cluster_rmsd>  (48) 
0.1

>  <cluster>  (48) 
4

$$$$

     RDKit          3D

 55 58  0  0  0  0  0  0  0  0999 V2000
  141.3720   71.8370  221.4920 O   0  0  0  0  0  0  0  0  0  0  0  0
  140.6520   72.3470  222.3960 C   0  0  0  0  0  0  0  0  0  0  0  0
  140.1440   73.6760  222.3210 N   0  0  0  0  0  0  0  0  0  0  0  0
  140.4480   74.5320  221.1490 C   0  0  0  0  0  0  0  0  0  0  0  0
  140.5750   75.9240  221.5850 C   0  0  0  0  0  0  0  0  0  0  0  0
  139.9590   76.1920  222.7010 O   0  0  0  0  0  0  0  0  0  0  0  0
  141.2400   77.0070  221.0170 N   0  0  0  0  0  0  0  0  0  0  0  0
  142.1670   76.7010  219.8440 C   0  0  0  0  0  0  0  0  0  0  0  0
  141.8340   77.7750  218.8630 C   0  0  2  0  0  0  0  0  0  0  0  0
  142.9970   78.3150  218.3080 O   0  0  0  0  0  0  0  0  0  0  0  0
  141.0800   78.8280  219.6480 C   0  0  0  0  0  0  0  0  0  0  0  0
  141.3710   78.4040  221.0980 C   0  0  1  0  0  0  0  0  0  0  0  0
  140.5140   79.1730  222.0010 C   0  0  0  0  0  0  0  0  0  0  0  0
  140.6930   79.0270  223.4670 C   0  0  0  0  0  0  0  0  0  0  0  0
  142.1610   79.3120  223.7560 C   0  0  0  0  0  0  0  0  0  0  0  0
  142.4000   80.7580  223.4590 C   0  0  0  0  0  0  0  0  0  0  0  0
  141.8910   81.2530  222.1510 C   0  0  0  0  0  0  0  0  0  0  0  0
  140.5630   80.6760  221.7240 C   0  0  0  0  0  0  0  0  0  0  0  0
  140.3240   71.5370  223.5780 C   0  0  0  0  0  0  0  0  0  0  0  0
  139.5940   70.3760  223.4520 C   0  0  0  0  0  0  0  0  0  0  0  0
  139.2550   69.5750  224.5180 C   0  0  0  0  0  0  0  0  0  0  0  0
  139.6710   69.9630  225.7690 C   0  0  0  0  0  0  0  0  0  0  0  0
  139.3360   69.1690  226.8400 C   0  0  0  0  0  0  0  0  0  0  0  0
  139.7500   69.5500  228.1100 C   0  0  0  0  0  0  0  0  0  0  0  0
  140.4810   70.7130  228.2390 C   0  0  0  0  0  0  0  0  0  0  0  0
  140.8120   71.5020  227.1700 C   0  0  0  0  0  0  0  0  0  0  0  0
  140.4000   71.1270  225.8870 C   0  0  0  0  0  0  0  0  0  0  0  0
  140.7190   71.8950  224.8150 N   0  0  0  0  0  0  0  0  0  0  0  0
  139.5590   74.0170  223.1110 H   0  0  0  0  0  0  0  0  0  0  0  0
  141.3918   74.2036  220.6893 H   0  0  0  0  0  0  0  0  0  0  0  0
  139.6351   74.4498  220.4125 H   0  0  0  0  0  0  0  0  0  0  0  0
  143.2223   76.7577  220.1490 H   0  0  0  0  0  0  0  0  0  0  0  0
  142.0327   75.6873  219.4387 H   0  0  0  0  0  0  0  0  0  0  0  0
  141.2348   77.3860  218.0265 H   0  0  0  0  0  0  0  0  0  0  0  0
  142.8160   78.7240  217.4090 H   0  0  0  0  0  0  0  0  0  0  0  0
  141.4665   79.8366  219.4399 H   0  0  0  0  0  0  0  0  0  0  0  0
  140.0085   78.8837  219.4055 H   0  0  0  0  0  0  0  0  0  0  0  0
  142.3572   78.6231  221.5332 H   0  0  0  0  0  0  0  0  0  0  0  0
  139.5501   78.7043  221.7535 H   0  0  0  0  0  0  0  0  0  0  0  0
  140.0544   79.7461  224.0009 H   0  0  0  0  0  0  0  0  0  0  0  0
  140.4109   78.0182  223.8028 H   0  0  0  0  0  0  0  0  0  0  0  0
  142.3842   79.1028  224.8126 H   0  0  0  0  0  0  0  0  0  0  0  0
  142.8105   78.6749  223.1378 H   0  0  0  0  0  0  0  0  0  0  0  0
  141.9170   81.3478  224.2520 H   0  0  0  0  0  0  0  0  0  0  0  0
  143.4930   80.8721  223.4118 H   0  0  0  0  0  0  0  0  0  0  0  0
  141.7826   82.3456  222.2183 H   0  0  0  0  0  0  0  0  0  0  0  0
  142.6230   80.9327  221.3949 H   0  0  0  0  0  0  0  0  0  0  0  0
  139.7566   81.1729  222.2832 H   0  0  0  0  0  0  0  0  0  0  0  0
  140.4358   80.8414  220.6440 H   0  0  0  0  0  0  0  0  0  0  0  0
  139.2649   70.0734  222.4469 H   0  0  0  0  0  0  0  0  0  0  0  0
  138.6703   68.6545  224.3737 H   0  0  0  0  0  0  0  0  0  0  0  0
  138.7509   68.2490  226.6940 H   0  0  0  0  0  0  0  0  0  0  0  0
  139.5013   68.9398  228.9908 H   0  0  0  0  0  0  0  0  0  0  0  0
  140.8117   71.0191  229.2425 H   0  0  0  0  0  0  0  0  0  0  0  0
  141.3963   72.4220  227.3188 H   0  0  0  0  0  0  0  0  0  0  0  0
  1  2  2  0
  2  3  1  0
  3  4  1  0
  4  5  1  0
  5  6  2  0
  5  7  1  0
  7  8  1  0
  8  9  1  0
  9 10  1  0
  9 11  1  0
 11 12  1  0
 12 13  1  0
 13 14  1  0
 14 15  1  0
 15 16  1  0
 16 17  1  0
 17 18  1  0
  2 19  1  0
 19 20  2  0
 20 21  1  0
 21 22  2  0
 22 23  1  0
 23 24  2  0
 24 25  1  0
 25 26  2  0
 26 27  1  0
 27 28  2  0
 12  7  1  0
 18 13  1  0
 28 19  1  0
 27 22  1  0
  3 29  1  0
  4 30  1  0
  4 31  1  0
  8 32  1  0
  8 33  1  0
  9 34  1  6
 10 35  1  0
 11 36  1  0
 11 37  1  0
 12 38  1  1
 13 39  1  0
 14 40  1  0
 14 41  1  0
 15 42  1  0
 15 43  1  0
 16 44  1  0
 16 45  1  0
 17 46  1  0
 17 47  1  0
 18 48  1  0
 18 49  1  0
 20 50  1  0
 21 51  1  0
 23 52  1  0
 24 53  1  0
 25 54  1  0
 26 55  1  0
M  END
>  <smiles>  (49) 
O=C(NCC(=O)N1C[C@H](O)C[C@H]1C1CCCCC1)c1ccc2ccccc2n1

>  <score_type>  (49) 
oracle

>  <origin>  (49) 
autodockgpu

>  <m_score__min__energy>  (49) 
-9.6799999999999997

>  <m_primary>  (49) 
energy

>  <rmsd>  (49) 
2.1465013594898084

>  <m_score__min__rmsd>  (49) 
2.1465013594898084

>  <meeko>  (49) 
{"free_energy": -8.92, "intermolecular_energy": -10.71, "internal_energy": -1.86, "cluster_size": 32, "cluster_id": 1, "rank_in_cluster": 32}

>  <energy>  (49) 
-8.24

>  <cluster_rmsd>  (49) 
0.13

>  <cluster>  (49) 
4

$$$$

     RDKit          3D

 55 58  0  0  0  0  0  0  0  0999 V2000
  135.7630   77.3190  223.2140 O   0  0  0  0  0  0  0  0  0  0  0  0
  136.1710   76.1440  223.4310 C   0  0  0  0  0  0  0  0  0  0  0  0
  137.3560   75.6160  222.8430 N   0  0  0  0  0  0  0  0  0  0  0  0
  138.1770   76.4480  221.9300 C   0  0  0  0  0  0  0  0  0  0  0  0
  139.5550   75.9520  221.9310 C   0  0  0  0  0  0  0  0  0  0  0  0
  139.6800   74.7250  222.3460 O   0  0  0  0  0  0  0  0  0  0  0  0
  140.7510   76.5640  221.5620 N   0  0  0  0  0  0  0  0  0  0  0  0
  141.7900   75.6780  220.8830 C   0  0  0  0  0  0  0  0  0  0  0  0
  142.2620   76.5220  219.7470 C   0  0  2  0  0  0  0  0  0  0  0  0
  143.6540   76.4730  219.6400 O   0  0  0  0  0  0  0  0  0  0  0  0
  141.8020   77.9310  220.0650 C   0  0  0  0  0  0  0  0  0  0  0  0
  141.4120   77.8030  221.5480 C   0  0  1  0  0  0  0  0  0  0  0  0
  140.7090   79.0190  221.9610 C   0  0  0  0  0  0  0  0  0  0  0  0
  140.3480   79.1950  223.3900 C   0  0  0  0  0  0  0  0  0  0  0  0
  141.6360   79.0280  224.1860 C   0  0  0  0  0  0  0  0  0  0  0  0
  142.5230   80.1830  223.8450 C   0  0  0  0  0  0  0  0  0  0  0  0
  142.6930   80.4750  222.3960 C   0  0  0  0  0  0  0  0  0  0  0  0
  141.4500   80.2950  221.5590 C   0  0  0  0  0  0  0  0  0  0  0  0
  135.3900   75.2810  224.3290 C   0  0  0  0  0  0  0  0  0  0  0  0
  134.5840   75.8280  225.3020 C   0  0  0  0  0  0  0  0  0  0  0  0
  133.8290   75.0750  226.1730 C   0  0  0  0  0  0  0  0  0  0  0  0
  133.8910   73.7070  226.0560 C   0  0  0  0  0  0  0  0  0  0  0  0
  133.1410   72.9470  226.9220 C   0  0  0  0  0  0  0  0  0  0  0  0
  133.1950   71.5630  226.8150 C   0  0  0  0  0  0  0  0  0  0  0  0
  134.0030   71.0130  225.8420 C   0  0  0  0  0  0  0  0  0  0  0  0
  134.7490   71.7730  224.9810 C   0  0  0  0  0  0  0  0  0  0  0  0
  134.7010   73.1670  225.0810 C   0  0  0  0  0  0  0  0  0  0  0  0
  135.4330   73.9380  224.2370 N   0  0  0  0  0  0  0  0  0  0  0  0
  137.6190   74.6370  223.0770 H   0  0  0  0  0  0  0  0  0  0  0  0
  137.7664   76.3902  220.9111 H   0  0  0  0  0  0  0  0  0  0  0  0
  138.1615   77.4939  222.2705 H   0  0  0  0  0  0  0  0  0  0  0  0
  142.6164   75.4411  221.5692 H   0  0  0  0  0  0  0  0  0  0  0  0
  141.3869   74.7062  220.5620 H   0  0  0  0  0  0  0  0  0  0  0  0
  141.8577   76.1692  218.7867 H   0  0  0  0  0  0  0  0  0  0  0  0
  144.0820   77.2650  220.0840 H   0  0  0  0  0  0  0  0  0  0  0  0
  142.6143   78.6594  219.9252 H   0  0  0  0  0  0  0  0  0  0  0  0
  140.9888   78.2925  219.4184 H   0  0  0  0  0  0  0  0  0  0  0  0
  142.2039   77.7672  222.3107 H   0  0  0  0  0  0  0  0  0  0  0  0
  139.7671   78.8593  221.4157 H   0  0  0  0  0  0  0  0  0  0  0  0
  139.9270   80.1978  223.5547 H   0  0  0  0  0  0  0  0  0  0  0  0
  139.5901   78.4613  223.7018 H   0  0  0  0  0  0  0  0  0  0  0  0
  141.4152   79.0284  225.2636 H   0  0  0  0  0  0  0  0  0  0  0  0
  142.1258   78.0747  223.9384 H   0  0  0  0  0  0  0  0  0  0  0  0
  142.1027   81.0810  224.3213 H   0  0  0  0  0  0  0  0  0  0  0  0
  143.5230   79.9037  224.2084 H   0  0  0  0  0  0  0  0  0  0  0  0
  143.0243   81.5190  222.2949 H   0  0  0  0  0  0  0  0  0  0  0  0
  143.4255   79.7460  222.0193 H   0  0  0  0  0  0  0  0  0  0  0  0
  140.7865   81.1599  221.7068 H   0  0  0  0  0  0  0  0  0  0  0  0
  141.7434   80.2160  220.5018 H   0  0  0  0  0  0  0  0  0  0  0  0
  134.5410   76.9238  225.3880 H   0  0  0  0  0  0  0  0  0  0  0  0
  133.1974   75.5522  226.9368 H   0  0  0  0  0  0  0  0  0  0  0  0
  132.5100   73.4258  227.6853 H   0  0  0  0  0  0  0  0  0  0  0  0
  132.6081   70.9220  227.4893 H   0  0  0  0  0  0  0  0  0  0  0  0
  134.0502   69.9176  225.7538 H   0  0  0  0  0  0  0  0  0  0  0  0
  135.3794   71.2919  224.2187 H   0  0  0  0  0  0  0  0  0  0  0  0
  1  2  2  0
  2  3  1  0
  3  4  1  0
  4  5  1  0
  5  6  2  0
  5  7  1  0
  7  8  1  0
  8  9  1  0
  9 10  1  0
  9 11  1  0
 11 12  1  0
 12 13  1  0
 13 14  1  0
 14 15  1  0
 15 16  1  0
 16 17  1  0
 17 18  1  0
  2 19  1  0
 19 20  2  0
 20 21  1  0
 21 22  2  0
 22 23  1  0
 23 24  2  0
 24 25  1  0
 25 26  2  0
 26 27  1  0
 27 28  2  0
 12  7  1  0
 18 13  1  0
 28 19  1  0
 27 22  1  0
  3 29  1  0
  4 30  1  0
  4 31  1  0
  8 32  1  0
  8 33  1  0
  9 34  1  6
 10 35  1  0
 11 36  1  0
 11 37  1  0
 12 38  1  1
 13 39  1  0
 14 40  1  0
 14 41  1  0
 15 42  1  0
 15 43  1  0
 16 44  1  0
 16 45  1  0
 17 46  1  0
 17 47  1  0
 18 48  1  0
 18 49  1  0
 20 50  1  0
 21 51  1  0
 23 52  1  0
 24 53  1  0
 25 54  1  0
 26 55  1  0
M  END
>  <smiles>  (50) 
O=C(NCC(=O)N1C[C@H](O)C[C@H]1C1CCCCC1)c1ccc2ccccc2n1

>  <score_type>  (50) 
oracle

>  <origin>  (50) 
autodockgpu

>  <m_score__min__energy>  (50) 
-9.6799999999999997

>  <m_primary>  (50) 
energy

>  <rmsd>  (50) 
5.614027619464507

>  <m_score__min__rmsd>  (50) 
5.614027619464507

>  <meeko>  (50) 
{"free_energy": -8.29, "intermolecular_energy": -10.08, "internal_energy": -2.14, "cluster_size": 14, "cluster_id": 4, "rank_in_cluster": 7}

>  <energy>  (50) 
-8.21

>  <cluster_rmsd>  (50) 
0.13

>  <cluster>  (50) 
4

$$$$
