
     RDKit          3D

 57 60  0  0  0  0  0  0  0  0999 V2000
  141.3550   71.5640  221.5340 O   0  0  0  0  0  0  0  0  0  0  0  0
  140.6640   72.1110  222.4420 C   0  0  0  0  0  0  0  0  0  0  0  0
  140.2000   73.4510  222.3120 N   0  0  0  0  0  0  0  0  0  0  0  0
  140.5310   74.2090  221.1070 C   0  0  0  0  0  0  0  0  0  0  0  0
  140.1020   75.6350  221.2610 C   0  0  0  0  0  0  0  0  0  0  0  0
  139.5560   75.9220  222.3560 O   0  0  0  0  0  0  0  0  0  0  0  0
  140.3220   76.5560  220.2050 N   0  0  0  0  0  0  0  0  0  0  0  0
  140.4610   76.0310  218.8420 C   0  0  0  0  0  0  0  0  0  0  0  0
  139.7600   76.8950  217.8230 C   0  0  0  0  0  0  0  0  0  0  0  0
  140.0260   78.3640  218.0380 C   0  0  0  0  0  0  0  0  0  0  0  0
  141.0440   78.5670  219.1720 C   0  0  0  0  0  0  0  0  0  0  0  0
  140.4170   77.9950  220.3980 C   0  0  2  0  0  0  0  0  0  0  0  0
  140.9420   78.4420  221.6990 C   0  0  0  0  0  0  0  0  0  0  0  0
  139.7930   79.1010  222.4850 C   0  0  0  0  0  0  0  0  0  0  0  0
  140.1900   79.3990  223.8890 C   0  0  0  0  0  0  0  0  0  0  0  0
  141.6160   79.0240  224.1380 C   0  0  0  0  0  0  0  0  0  0  0  0
  142.5310   79.6210  223.1100 C   0  0  0  0  0  0  0  0  0  0  0  0
  142.0470   79.4360  221.6920 C   0  0  0  0  0  0  0  0  0  0  0  0
  140.3410   71.3470  223.6460 C   0  0  0  0  0  0  0  0  0  0  0  0
  139.6140   70.1790  223.5490 C   0  0  0  0  0  0  0  0  0  0  0  0
  139.2910   69.4350  224.6620 C   0  0  0  0  0  0  0  0  0  0  0  0
  139.7260   69.9040  225.8970 C   0  0  0  0  0  0  0  0  0  0  0  0
  139.4030   69.1590  227.0120 C   0  0  0  0  0  0  0  0  0  0  0  0
  139.8340   69.6220  228.2410 C   0  0  0  0  0  0  0  0  0  0  0  0
  139.5590   68.9470  229.3890 F   0  0  0  0  0  0  0  0  0  0  0  0
  140.5580   70.7920  228.3060 C   0  0  0  0  0  0  0  0  0  0  0  0
  140.8810   71.5370  227.1900 C   0  0  0  0  0  0  0  0  0  0  0  0
  140.4510   71.0730  225.9770 C   0  0  0  0  0  0  0  0  0  0  0  0
  140.7610   71.7960  224.8630 N   0  0  0  0  0  0  0  0  0  0  0  0
  139.6330   73.8410  223.0960 H   0  0  0  0  0  0  0  0  0  0  0  0
  141.6178   74.1721  220.9413 H   0  0  0  0  0  0  0  0  0  0  0  0
  140.0057   73.7662  220.2480 H   0  0  0  0  0  0  0  0  0  0  0  0
  141.5304   75.9819  218.5889 H   0  0  0  0  0  0  0  0  0  0  0  0
  139.9965   75.0342  218.8156 H   0  0  0  0  0  0  0  0  0  0  0  0
  140.1124   76.6149  216.8193 H   0  0  0  0  0  0  0  0  0  0  0  0
  138.6777   76.7299  217.9294 H   0  0  0  0  0  0  0  0  0  0  0  0
  140.4262   78.7989  217.1102 H   0  0  0  0  0  0  0  0  0  0  0  0
  139.0833   78.8594  218.3135 H   0  0  0  0  0  0  0  0  0  0  0  0
  141.9820   78.0405  218.9418 H   0  0  0  0  0  0  0  0  0  0  0  0
  141.2901   79.6308  219.3054 H   0  0  0  0  0  0  0  0  0  0  0  0
  139.4086   78.4226  220.4990 H   0  0  0  0  0  0  0  0  0  0  0  0
  141.3582   77.5228  222.1371 H   0  0  0  0  0  0  0  0  0  0  0  0
  139.5120   80.0404  221.9864 H   0  0  0  0  0  0  0  0  0  0  0  0
  138.9455   78.4001  222.5083 H   0  0  0  0  0  0  0  0  0  0  0  0
  140.0638   80.4755  224.0769 H   0  0  0  0  0  0  0  0  0  0  0  0
  139.5516   78.8104  224.5643 H   0  0  0  0  0  0  0  0  0  0  0  0
  141.9121   79.3869  225.1333 H   0  0  0  0  0  0  0  0  0  0  0  0
  141.6994   77.9288  224.0786 H   0  0  0  0  0  0  0  0  0  0  0  0
  142.6217   80.6991  223.3089 H   0  0  0  0  0  0  0  0  0  0  0  0
  143.4954   79.0984  223.1932 H   0  0  0  0  0  0  0  0  0  0  0  0
  141.6814   80.3950  221.2962 H   0  0  0  0  0  0  0  0  0  0  0  0
  142.8705   79.0809  221.0550 H   0  0  0  0  0  0  0  0  0  0  0  0
  139.2840   69.8332  222.5583 H   0  0  0  0  0  0  0  0  0  0  0  0
  138.7106   68.5044  224.5774 H   0  0  0  0  0  0  0  0  0  0  0  0
  138.8225   68.2286  226.9261 H   0  0  0  0  0  0  0  0  0  0  0  0
  140.8936   71.1484  229.2911 H   0  0  0  0  0  0  0  0  0  0  0  0
  141.4616   72.4676  227.2726 H   0  0  0  0  0  0  0  0  0  0  0  0
  1  2  2  0
  2  3  1  0
  3  4  1  0
  4  5  1  0
  5  6  2  0
  5  7  1  0
  7  8  1  0
  8  9  1  0
  9 10  1  0
 10 11  1  0
 11 12  1  0
 12 13  1  0
 13 14  1  0
 14 15  1  0
 15 16  1  0
 16 17  1  0
 17 18  1  0
  2 19  1  0
 19 20  2  0
 20 21  1  0
 21 22  2  0
 22 23  1  0
 23 24  2  0
 24 25  1  0
 24 26  1  0
 26 27  2  0
 27 28  1  0
 28 29  2  0
 12  7  1  0
 18 13  1  0
 29 19  1  0
 28 22  1  0
  3 30  1  0
  4 31  1  0
  4 32  1  0
  8 33  1  0
  8 34  1  0
  9 35  1  0
  9 36  1  0
 10 37  1  0
 10 38  1  0
 11 39  1  0
 11 40  1  0
 12 41  1  1
 13 42  1  0
 14 43  1  0
 14 44  1  0
 15 45  1  0
 15 46  1  0
 16 47  1  0
 16 48  1  0
 17 49  1  0
 17 50  1  0
 18 51  1  0
 18 52  1  0
 20 53  1  0
 21 54  1  0
 23 55  1  0
 26 56  1  0
 27 57  1  0
M  END
>  <smiles>  (1) 
O=C(NCC(=O)N1CCCCC1C1CCCCC1)c1ccc2cc(F)ccc2n1

>  <score_type>  (1) 
oracle

>  <origin>  (1) 
autodockgpu

>  <m_score__min__energy>  (1) 
-8.8000000000000007

>  <m_primary>  (1) 
energy

>  <rmsd>  (1) 
1.782445302701728

>  <m_score__min__rmsd>  (1) 
1.782445302701728

>  <meeko>  (1) 
{"free_energy": -8.07, "intermolecular_energy": -9.57, "internal_energy": -1.96, "cluster_size": 45, "cluster_id": 1, "rank_in_cluster": 39}

>  <energy>  (1) 
-8.8

>  <cluster_rmsd>  (1) 
0.0

>  <cluster>  (1) 
1

$$$$

     RDKit          3D

 57 60  0  0  0  0  0  0  0  0999 V2000
  140.9810   71.5790  221.2040 O   0  0  0  0  0  0  0  0  0  0  0  0
  140.3310   72.0840  222.1650 C   0  0  0  0  0  0  0  0  0  0  0  0
  139.7770   73.3940  222.0760 N   0  0  0  0  0  0  0  0  0  0  0  0
  139.9670   74.1680  220.8510 C   0  0  0  0  0  0  0  0  0  0  0  0
  140.7320   75.4200  221.1460 C   0  0  0  0  0  0  0  0  0  0  0  0
  140.7010   75.8060  222.3410 O   0  0  0  0  0  0  0  0  0  0  0  0
  141.4280   76.0850  220.1040 N   0  0  0  0  0  0  0  0  0  0  0  0
  140.7060   77.0900  219.3170 C   0  0  0  0  0  0  0  0  0  0  0  0
  141.5600   78.2950  219.0070 C   0  0  0  0  0  0  0  0  0  0  0  0
  142.9460   77.9100  218.5500 C   0  0  0  0  0  0  0  0  0  0  0  0
  143.0640   76.3840  218.4100 C   0  0  0  0  0  0  0  0  0  0  0  0
  142.8200   75.8250  219.7710 C   0  0  2  0  0  0  0  0  0  0  0  0
  143.3080   74.4610  220.0390 C   0  0  0  0  0  0  0  0  0  0  0  0
  144.7880   74.5490  220.4550 C   0  0  0  0  0  0  0  0  0  0  0  0
  145.3010   73.2370  220.9370 C   0  0  0  0  0  0  0  0  0  0  0  0
  144.2490   72.1770  220.8380 C   0  0  0  0  0  0  0  0  0  0  0  0
  143.6490   72.1240  219.4650 C   0  0  0  0  0  0  0  0  0  0  0  0
  143.2600   73.4790  218.9240 C   0  0  0  0  0  0  0  0  0  0  0  0
  140.1490   71.3040  223.3880 C   0  0  0  0  0  0  0  0  0  0  0  0
  139.5120   70.0820  223.3400 C   0  0  0  0  0  0  0  0  0  0  0  0
  139.3230   69.3220  224.4720 C   0  0  0  0  0  0  0  0  0  0  0  0
  139.8010   69.8300  225.6750 C   0  0  0  0  0  0  0  0  0  0  0  0
  139.6120   69.0680  226.8090 C   0  0  0  0  0  0  0  0  0  0  0  0
  140.0860   69.5710  228.0080 C   0  0  0  0  0  0  0  0  0  0  0  0
  139.9410   68.8830  229.1710 F   0  0  0  0  0  0  0  0  0  0  0  0
  140.7180   70.7940  228.0240 C   0  0  0  0  0  0  0  0  0  0  0  0
  140.9060   71.5560  226.8880 C   0  0  0  0  0  0  0  0  0  0  0  0
  140.4350   71.0530  225.7060 C   0  0  0  0  0  0  0  0  0  0  0  0
  140.6120   71.7920  224.5740 N   0  0  0  0  0  0  0  0  0  0  0  0
  139.2510   73.7500  222.9020 H   0  0  0  0  0  0  0  0  0  0  0  0
  140.5263   73.5634  220.1219 H   0  0  0  0  0  0  0  0  0  0  0  0
  138.9830   74.4364  220.4390 H   0  0  0  0  0  0  0  0  0  0  0  0
  140.3823   76.6326  218.3704 H   0  0  0  0  0  0  0  0  0  0  0  0
  139.8462   77.4305  219.9127 H   0  0  0  0  0  0  0  0  0  0  0  0
  141.0739   78.8782  218.2110 H   0  0  0  0  0  0  0  0  0  0  0  0
  141.6607   78.8838  219.9307 H   0  0  0  0  0  0  0  0  0  0  0  0
  143.1491   78.3793  217.5761 H   0  0  0  0  0  0  0  0  0  0  0  0
  143.6751   78.2554  219.2978 H   0  0  0  0  0  0  0  0  0  0  0  0
  142.3122   76.0062  217.7014 H   0  0  0  0  0  0  0  0  0  0  0  0
  144.0519   76.0904  218.0256 H   0  0  0  0  0  0  0  0  0  0  0  0
  143.4741   76.3520  220.4812 H   0  0  0  0  0  0  0  0  0  0  0  0
  142.6147   74.0870  220.8068 H   0  0  0  0  0  0  0  0  0  0  0  0
  145.3842   74.8685  219.5876 H   0  0  0  0  0  0  0  0  0  0  0  0
  144.8715   75.2743  221.2778 H   0  0  0  0  0  0  0  0  0  0  0  0
  146.1661   72.9427  220.3246 H   0  0  0  0  0  0  0  0  0  0  0  0
  145.5920   73.3424  221.9925 H   0  0  0  0  0  0  0  0  0  0  0  0
  144.7021   71.2014  221.0679 H   0  0  0  0  0  0  0  0  0  0  0  0
  143.4496   72.4165  221.5547 H   0  0  0  0  0  0  0  0  0  0  0  0
  144.3839   71.6742  218.7812 H   0  0  0  0  0  0  0  0  0  0  0  0
  142.7271   71.5284  219.5380 H   0  0  0  0  0  0  0  0  0  0  0  0
  143.9637   73.7795  218.1338 H   0  0  0  0  0  0  0  0  0  0  0  0
  142.2463   73.4393  218.4988 H   0  0  0  0  0  0  0  0  0  0  0  0
  139.1459   69.7053  222.3735 H   0  0  0  0  0  0  0  0  0  0  0  0
  138.8126   68.3486  224.4267 H   0  0  0  0  0  0  0  0  0  0  0  0
  139.1023   68.0944  226.7620 H   0  0  0  0  0  0  0  0  0  0  0  0
  141.0896   71.1812  228.9842 H   0  0  0  0  0  0  0  0  0  0  0  0
  141.4150   72.5302  226.9316 H   0  0  0  0  0  0  0  0  0  0  0  0
  1  2  2  0
  2  3  1  0
  3  4  1  0
  4  5  1  0
  5  6  2  0
  5  7  1  0
  7  8  1  0
  8  9  1  0
  9 10  1  0
 10 11  1  0
 11 12  1  0
 12 13  1  0
 13 14  1  0
 14 15  1  0
 15 16  1  0
 16 17  1  0
 17 18  1  0
  2 19  1  0
 19 20  2  0
 20 21  1  0
 21 22  2  0
 22 23  1  0
 23 24  2  0
 24 25  1  0
 24 26  1  0
 26 27  2  0
 27 28  1  0
 28 29  2  0
 12  7  1  0
 18 13  1  0
 29 19  1  0
 28 22  1  0
  3 30  1  0
  4 31  1  0
  4 32  1  0
  8 33  1  0
  8 34  1  0
  9 35  1  0
  9 36  1  0
 10 37  1  0
 10 38  1  0
 11 39  1  0
 11 40  1  0
 12 41  1  1
 13 42  1  0
 14 43  1  0
 14 44  1  0
 15 45  1  0
 15 46  1  0
 16 47  1  0
 16 48  1  0
 17 49  1  0
 17 50  1  0
 18 51  1  0
 18 52  1  0
 20 53  1  0
 21 54  1  0
 23 55  1  0
 26 56  1  0
 27 57  1  0
M  END
>  <smiles>  (2) 
O=C(NCC(=O)N1CCCCC1C1CCCCC1)c1ccc2cc(F)ccc2n1

>  <score_type>  (2) 
oracle

>  <origin>  (2) 
autodockgpu

>  <m_score__min__energy>  (2) 
-8.8000000000000007

>  <m_primary>  (2) 
energy

>  <rmsd>  (2) 
1.9388806015874394

>  <m_score__min__rmsd>  (2) 
1.9388806015874394

>  <meeko>  (2) 
{"free_energy": -8.41, "intermolecular_energy": -9.9, "internal_energy": -2.07, "cluster_size": 45, "cluster_id": 1, "rank_in_cluster": 21}

>  <energy>  (2) 
-8.79

>  <cluster_rmsd>  (2) 
0.23

>  <cluster>  (2) 
1

$$$$

     RDKit          3D

 57 60  0  0  0  0  0  0  0  0999 V2000
  140.2570   71.1710  221.1020 O   0  0  0  0  0  0  0  0  0  0  0  0
  139.9980   71.7690  222.1860 C   0  0  0  0  0  0  0  0  0  0  0  0
  139.7840   73.1780  222.2210 N   0  0  0  0  0  0  0  0  0  0  0  0
  139.8690   73.9440  220.9790 C   0  0  0  0  0  0  0  0  0  0  0  0
  140.3790   75.3230  221.2590 C   0  0  0  0  0  0  0  0  0  0  0  0
  140.1510   75.7620  222.4140 O   0  0  0  0  0  0  0  0  0  0  0  0
  141.0670   76.0400  220.2460 N   0  0  0  0  0  0  0  0  0  0  0  0
  140.3290   77.0560  219.4900 C   0  0  0  0  0  0  0  0  0  0  0  0
  141.1580   78.2890  219.2290 C   0  0  0  0  0  0  0  0  0  0  0  0
  142.5560   77.9520  218.7710 C   0  0  0  0  0  0  0  0  0  0  0  0
  142.7090   76.4350  218.5780 C   0  0  0  0  0  0  0  0  0  0  0  0
  142.4680   75.8230  219.9160 C   0  0  2  0  0  0  0  0  0  0  0  0
  142.9840   74.4620  220.1400 C   0  0  0  0  0  0  0  0  0  0  0  0
  144.5070   74.5500  220.3550 C   0  0  0  0  0  0  0  0  0  0  0  0
  145.0760   73.2440  220.7870 C   0  0  0  0  0  0  0  0  0  0  0  0
  144.0190   72.1880  220.8460 C   0  0  0  0  0  0  0  0  0  0  0  0
  143.2420   72.1140  219.5650 C   0  0  0  0  0  0  0  0  0  0  0  0
  142.7870   73.4620  219.0580 C   0  0  0  0  0  0  0  0  0  0  0  0
  139.9200   70.9960  223.4240 C   0  0  0  0  0  0  0  0  0  0  0  0
  139.3820   69.7260  223.4120 C   0  0  0  0  0  0  0  0  0  0  0  0
  139.2920   68.9700  224.5590 C   0  0  0  0  0  0  0  0  0  0  0  0
  139.7660   69.5330  225.7400 C   0  0  0  0  0  0  0  0  0  0  0  0
  139.6760   68.7750  226.8890 C   0  0  0  0  0  0  0  0  0  0  0  0
  140.1450   69.3320  228.0640 C   0  0  0  0  0  0  0  0  0  0  0  0
  140.0950   68.6520  229.2400 F   0  0  0  0  0  0  0  0  0  0  0  0
  140.6770   70.6030  228.0440 C   0  0  0  0  0  0  0  0  0  0  0  0
  140.7660   71.3600  226.8930 C   0  0  0  0  0  0  0  0  0  0  0  0
  140.2990   70.8030  225.7340 C   0  0  0  0  0  0  0  0  0  0  0  0
  140.3800   71.5370  224.5880 N   0  0  0  0  0  0  0  0  0  0  0  0
  139.5730   73.6090  223.1460 H   0  0  0  0  0  0  0  0  0  0  0  0
  140.5549   73.4365  220.2848 H   0  0  0  0  0  0  0  0  0  0  0  0
  138.8671   74.0149  220.5305 H   0  0  0  0  0  0  0  0  0  0  0  0
  140.0216   76.6256  218.5255 H   0  0  0  0  0  0  0  0  0  0  0  0
  139.4582   77.3567  220.0911 H   0  0  0  0  0  0  0  0  0  0  0  0
  140.6651   78.8884  218.4494 H   0  0  0  0  0  0  0  0  0  0  0  0
  141.2383   78.8470  220.1735 H   0  0  0  0  0  0  0  0  0  0  0  0
  142.7564   78.4603  217.8163 H   0  0  0  0  0  0  0  0  0  0  0  0
  143.2713   78.2868  219.5367 H   0  0  0  0  0  0  0  0  0  0  0  0
  141.9709   76.0661  217.8506 H   0  0  0  0  0  0  0  0  0  0  0  0
  143.7059   76.1771  218.1911 H   0  0  0  0  0  0  0  0  0  0  0  0
  143.1051   76.3387  220.6495 H   0  0  0  0  0  0  0  0  0  0  0  0
  142.3974   74.1041  220.9990 H   0  0  0  0  0  0  0  0  0  0  0  0
  144.9839   74.8523  219.4110 H   0  0  0  0  0  0  0  0  0  0  0  0
  144.7005   75.2884  221.1471 H   0  0  0  0  0  0  0  0  0  0  0  0
  145.8518   72.9358  220.0707 H   0  0  0  0  0  0  0  0  0  0  0  0
  145.5041   73.3656  221.7930 H   0  0  0  0  0  0  0  0  0  0  0  0
  144.4966   71.2145  221.0308 H   0  0  0  0  0  0  0  0  0  0  0  0
  143.3218   72.4433  221.6576 H   0  0  0  0  0  0  0  0  0  0  0  0
  143.8791   71.6502  218.7976 H   0  0  0  0  0  0  0  0  0  0  0  0
  142.3372   71.5226  219.7689 H   0  0  0  0  0  0  0  0  0  0  0  0
  143.3803   73.7468  218.1766 H   0  0  0  0  0  0  0  0  0  0  0  0
  141.7257   73.4193  218.7719 H   0  0  0  0  0  0  0  0  0  0  0  0
  139.0160   69.3071  222.4630 H   0  0  0  0  0  0  0  0  0  0  0  0
  138.8612   67.9580  224.5425 H   0  0  0  0  0  0  0  0  0  0  0  0
  139.2460   67.7627  226.8709 H   0  0  0  0  0  0  0  0  0  0  0  0
  141.0469   71.0332  228.9864 H   0  0  0  0  0  0  0  0  0  0  0  0
  141.1960   72.3724  226.9072 H   0  0  0  0  0  0  0  0  0  0  0  0
  1  2  2  0
  2  3  1  0
  3  4  1  0
  4  5  1  0
  5  6  2  0
  5  7  1  0
  7  8  1  0
  8  9  1  0
  9 10  1  0
 10 11  1  0
 11 12  1  0
 12 13  1  0
 13 14  1  0
 14 15  1  0
 15 16  1  0
 16 17  1  0
 17 18  1  0
  2 19  1  0
 19 20  2  0
 20 21  1  0
 21 22  2  0
 22 23  1  0
 23 24  2  0
 24 25  1  0
 24 26  1  0
 26 27  2  0
 27 28  1  0
 28 29  2  0
 12  7  1  0
 18 13  1  0
 29 19  1  0
 28 22  1  0
  3 30  1  0
  4 31  1  0
  4 32  1  0
  8 33  1  0
  8 34  1  0
  9 35  1  0
  9 36  1  0
 10 37  1  0
 10 38  1  0
 11 39  1  0
 11 40  1  0
 12 41  1  1
 13 42  1  0
 14 43  1  0
 14 44  1  0
 15 45  1  0
 15 46  1  0
 16 47  1  0
 16 48  1  0
 17 49  1  0
 17 50  1  0
 18 51  1  0
 18 52  1  0
 20 53  1  0
 21 54  1  0
 23 55  1  0
 26 56  1  0
 27 57  1  0
M  END
>  <smiles>  (3) 
O=C(NCC(=O)N1CCCCC1C1CCCCC1)c1ccc2cc(F)ccc2n1

>  <score_type>  (3) 
oracle

>  <origin>  (3) 
autodockgpu

>  <m_score__min__energy>  (3) 
-8.8000000000000007

>  <m_primary>  (3) 
energy

>  <rmsd>  (3) 
1.7696689439218334

>  <m_score__min__rmsd>  (3) 
1.7696689439218334

>  <meeko>  (3) 
{"free_energy": -8.15, "intermolecular_energy": -9.64, "internal_energy": -2.33, "cluster_size": 45, "cluster_id": 1, "rank_in_cluster": 36}

>  <energy>  (3) 
-8.72

>  <cluster_rmsd>  (3) 
0.25

>  <cluster>  (3) 
1

$$$$

     RDKit          3D

 57 60  0  0  0  0  0  0  0  0999 V2000
  140.8090   71.7450  221.1590 O   0  0  0  0  0  0  0  0  0  0  0  0
  140.3340   72.2720  222.2060 C   0  0  0  0  0  0  0  0  0  0  0  0
  139.9730   73.6500  222.2410 N   0  0  0  0  0  0  0  0  0  0  0  0
  140.1590   74.4690  221.0450 C   0  0  0  0  0  0  0  0  0  0  0  0
  140.7150   75.8070  221.4180 C   0  0  0  0  0  0  0  0  0  0  0  0
  140.6110   76.1190  222.6300 O   0  0  0  0  0  0  0  0  0  0  0  0
  141.3090   76.6270  220.4240 N   0  0  0  0  0  0  0  0  0  0  0  0
  142.1550   75.9880  219.4100 C   0  0  0  0  0  0  0  0  0  0  0  0
  141.9410   76.5720  218.0360 C   0  0  0  0  0  0  0  0  0  0  0  0
  141.8900   78.0800  218.0570 C   0  0  0  0  0  0  0  0  0  0  0  0
  142.1960   78.6100  219.4670 C   0  0  0  0  0  0  0  0  0  0  0  0
  141.1250   78.0680  220.3530 C   0  0  2  0  0  0  0  0  0  0  0  0
  140.8930   78.7570  221.6340 C   0  0  0  0  0  0  0  0  0  0  0  0
  140.2620   80.1310  221.3380 C   0  0  0  0  0  0  0  0  0  0  0  0
  139.8120   80.8070  222.5860 C   0  0  0  0  0  0  0  0  0  0  0  0
  140.1410   79.9870  223.7930 C   0  0  0  0  0  0  0  0  0  0  0  0
  141.5870   79.5880  223.8100 C   0  0  0  0  0  0  0  0  0  0  0  0
  142.0740   79.0330  222.4930 C   0  0  0  0  0  0  0  0  0  0  0  0
  140.1540   71.4480  223.4000 C   0  0  0  0  0  0  0  0  0  0  0  0
  139.5000   70.2370  223.3110 C   0  0  0  0  0  0  0  0  0  0  0  0
  139.3130   69.4350  224.4150 C   0  0  0  0  0  0  0  0  0  0  0  0
  139.8100   69.8900  225.6310 C   0  0  0  0  0  0  0  0  0  0  0  0
  139.6230   69.0860  226.7370 C   0  0  0  0  0  0  0  0  0  0  0  0
  140.1170   69.5350  227.9490 C   0  0  0  0  0  0  0  0  0  0  0  0
  139.9750   68.8040  229.0860 F   0  0  0  0  0  0  0  0  0  0  0  0
  140.7650   70.7490  228.0050 C   0  0  0  0  0  0  0  0  0  0  0  0
  140.9520   71.5520  226.8980 C   0  0  0  0  0  0  0  0  0  0  0  0
  140.4610   71.1020  225.7030 C   0  0  0  0  0  0  0  0  0  0  0  0
  140.6360   71.8820  224.5980 N   0  0  0  0  0  0  0  0  0  0  0  0
  139.5840   74.0230  223.1340 H   0  0  0  0  0  0  0  0  0  0  0  0
  140.8573   73.9625  220.3625 H   0  0  0  0  0  0  0  0  0  0  0  0
  139.1865   74.6090  220.5503 H   0  0  0  0  0  0  0  0  0  0  0  0
  143.2095   76.1242  219.6920 H   0  0  0  0  0  0  0  0  0  0  0  0
  141.8848   74.9225  219.3688 H   0  0  0  0  0  0  0  0  0  0  0  0
  142.7682   76.2550  217.3840 H   0  0  0  0  0  0  0  0  0  0  0  0
  140.9729   76.2074  217.6621 H   0  0  0  0  0  0  0  0  0  0  0  0
  142.6348   78.4771  217.3516 H   0  0  0  0  0  0  0  0  0  0  0  0
  140.8804   78.4056  217.7662 H   0  0  0  0  0  0  0  0  0  0  0  0
  143.1830   78.2579  219.8015 H   0  0  0  0  0  0  0  0  0  0  0  0
  142.2171   79.7096  219.4877 H   0  0  0  0  0  0  0  0  0  0  0  0
  140.1518   78.2943  219.8930 H   0  0  0  0  0  0  0  0  0  0  0  0
  140.2640   78.0501  222.1949 H   0  0  0  0  0  0  0  0  0  0  0  0
  141.0075   80.7659  220.8369 H   0  0  0  0  0  0  0  0  0  0  0  0
  139.3834   79.9751  220.6948 H   0  0  0  0  0  0  0  0  0  0  0  0
  140.3140   81.7824  222.6669 H   0  0  0  0  0  0  0  0  0  0  0  0
  138.7206   80.9358  222.5388 H   0  0  0  0  0  0  0  0  0  0  0  0
  139.9223   80.5763  224.6957 H   0  0  0  0  0  0  0  0  0  0  0  0
  139.5311   79.0720  223.7649 H   0  0  0  0  0  0  0  0  0  0  0  0
  142.1898   80.4739  224.0588 H   0  0  0  0  0  0  0  0  0  0  0  0
  141.6932   78.7879  224.5574 H   0  0  0  0  0  0  0  0  0  0  0  0
  142.7285   79.7669  222.0000 H   0  0  0  0  0  0  0  0  0  0  0  0
  142.6435   78.1070  222.6609 H   0  0  0  0  0  0  0  0  0  0  0  0
  139.1185   69.9036  222.3346 H   0  0  0  0  0  0  0  0  0  0  0  0
  138.7899   68.4704  224.3374 H   0  0  0  0  0  0  0  0  0  0  0  0
  139.0995   68.1218  226.6578 H   0  0  0  0  0  0  0  0  0  0  0  0
  141.1509   71.0942  228.9755 H   0  0  0  0  0  0  0  0  0  0  0  0
  141.4756   72.5164  226.9737 H   0  0  0  0  0  0  0  0  0  0  0  0
  1  2  2  0
  2  3  1  0
  3  4  1  0
  4  5  1  0
  5  6  2  0
  5  7  1  0
  7  8  1  0
  8  9  1  0
  9 10  1  0
 10 11  1  0
 11 12  1  0
 12 13  1  0
 13 14  1  0
 14 15  1  0
 15 16  1  0
 16 17  1  0
 17 18  1  0
  2 19  1  0
 19 20  2  0
 20 21  1  0
 21 22  2  0
 22 23  1  0
 23 24  2  0
 24 25  1  0
 24 26  1  0
 26 27  2  0
 27 28  1  0
 28 29  2  0
 12  7  1  0
 18 13  1  0
 29 19  1  0
 28 22  1  0
  3 30  1  0
  4 31  1  0
  4 32  1  0
  8 33  1  0
  8 34  1  0
  9 35  1  0
  9 36  1  0
 10 37  1  0
 10 38  1  0
 11 39  1  0
 11 40  1  0
 12 41  1  6
 13 42  1  0
 14 43  1  0
 14 44  1  0
 15 45  1  0
 15 46  1  0
 16 47  1  0
 16 48  1  0
 17 49  1  0
 17 50  1  0
 18 51  1  0
 18 52  1  0
 20 53  1  0
 21 54  1  0
 23 55  1  0
 26 56  1  0
 27 57  1  0
M  END
>  <smiles>  (4) 
O=C(NCC(=O)N1CCCCC1C1CCCCC1)c1ccc2cc(F)ccc2n1

>  <score_type>  (4) 
oracle

>  <origin>  (4) 
autodockgpu

>  <m_score__min__energy>  (4) 
-8.8000000000000007

>  <m_primary>  (4) 
energy

>  <rmsd>  (4) 
1.9886166159261363

>  <m_score__min__rmsd>  (4) 
1.9886166159261363

>  <meeko>  (4) 
{"free_energy": -8.57, "intermolecular_energy": -10.06, "internal_energy": -1.78, "cluster_size": 45, "cluster_id": 1, "rank_in_cluster": 9}

>  <energy>  (4) 
-8.63

>  <cluster_rmsd>  (4) 
0.72

>  <cluster>  (4) 
1

$$$$

     RDKit          3D

 57 60  0  0  0  0  0  0  0  0999 V2000
  140.1850   71.3100  221.0390 O   0  0  0  0  0  0  0  0  0  0  0  0
  140.0500   71.9280  222.1350 C   0  0  0  0  0  0  0  0  0  0  0  0
  139.9990   73.3510  222.1800 N   0  0  0  0  0  0  0  0  0  0  0  0
  140.1080   74.1100  220.9350 C   0  0  0  0  0  0  0  0  0  0  0  0
  140.7850   75.4200  221.1900 C   0  0  0  0  0  0  0  0  0  0  0  0
  140.7240   75.8430  222.3710 O   0  0  0  0  0  0  0  0  0  0  0  0
  141.4360   76.0960  220.1260 N   0  0  0  0  0  0  0  0  0  0  0  0
  140.6810   77.1090  219.3800 C   0  0  0  0  0  0  0  0  0  0  0  0
  141.5210   78.3170  219.0460 C   0  0  0  0  0  0  0  0  0  0  0  0
  142.8870   77.9390  218.5280 C   0  0  0  0  0  0  0  0  0  0  0  0
  143.0000   76.4140  218.3680 C   0  0  0  0  0  0  0  0  0  0  0  0
  142.8130   75.8410  219.7320 C   0  0  2  0  0  0  0  0  0  0  0  0
  143.3130   74.4760  219.9670 C   0  0  0  0  0  0  0  0  0  0  0  0
  144.7610   74.5710  220.4850 C   0  0  0  0  0  0  0  0  0  0  0  0
  145.2700   73.2470  220.9360 C   0  0  0  0  0  0  0  0  0  0  0  0
  144.2510   72.1740  220.7160 C   0  0  0  0  0  0  0  0  0  0  0  0
  143.7440   72.1770  219.3050 C   0  0  0  0  0  0  0  0  0  0  0  0
  143.3610   73.5490  218.8050 C   0  0  0  0  0  0  0  0  0  0  0  0
  139.9460   71.1610  223.3750 C   0  0  0  0  0  0  0  0  0  0  0  0
  139.4150   69.8880  223.3580 C   0  0  0  0  0  0  0  0  0  0  0  0
  139.3010   69.1380  224.5070 C   0  0  0  0  0  0  0  0  0  0  0  0
  139.7430   69.7110  225.6950 C   0  0  0  0  0  0  0  0  0  0  0  0
  139.6300   68.9600  226.8460 C   0  0  0  0  0  0  0  0  0  0  0  0
  140.0690   69.5260  228.0290 C   0  0  0  0  0  0  0  0  0  0  0  0
  139.9930   68.8520  229.2080 F   0  0  0  0  0  0  0  0  0  0  0  0
  140.5930   70.7990  228.0140 C   0  0  0  0  0  0  0  0  0  0  0  0
  140.7070   71.5500  226.8610 C   0  0  0  0  0  0  0  0  0  0  0  0
  140.2710   70.9840  225.6950 C   0  0  0  0  0  0  0  0  0  0  0  0
  140.3750   71.7110  224.5460 N   0  0  0  0  0  0  0  0  0  0  0  0
  139.8840   73.7980  223.1140 H   0  0  0  0  0  0  0  0  0  0  0  0
  140.6959   73.5321  220.2067 H   0  0  0  0  0  0  0  0  0  0  0  0
  139.0996   74.2968  220.5373 H   0  0  0  0  0  0  0  0  0  0  0  0
  140.3173   76.6609  218.4435 H   0  0  0  0  0  0  0  0  0  0  0  0
  139.8474   77.4434  220.0150 H   0  0  0  0  0  0  0  0  0  0  0  0
  141.0017   78.9072  218.2766 H   0  0  0  0  0  0  0  0  0  0  0  0
  141.6601   78.8963  219.9707 H   0  0  0  0  0  0  0  0  0  0  0  0
  143.0490   78.4183  217.5513 H   0  0  0  0  0  0  0  0  0  0  0  0
  143.6465   78.2781  219.2479 H   0  0  0  0  0  0  0  0  0  0  0  0
  142.2197   76.0425  217.6874 H   0  0  0  0  0  0  0  0  0  0  0  0
  143.9714   76.1253  217.9401 H   0  0  0  0  0  0  0  0  0  0  0  0
  143.4961   76.3622  220.4189 H   0  0  0  0  0  0  0  0  0  0  0  0
  142.5793   74.0522  220.6685 H   0  0  0  0  0  0  0  0  0  0  0  0
  145.4058   74.9444  219.6758 H   0  0  0  0  0  0  0  0  0  0  0  0
  144.7741   75.2558  221.3457 H   0  0  0  0  0  0  0  0  0  0  0  0
  146.1798   72.9999  220.3692 H   0  0  0  0  0  0  0  0  0  0  0  0
  145.4886   73.3053  222.0125 H   0  0  0  0  0  0  0  0  0  0  0  0
  144.7094   71.1970  220.9288 H   0  0  0  0  0  0  0  0  0  0  0  0
  143.4009   72.3631  221.3880 H   0  0  0  0  0  0  0  0  0  0  0  0
  144.5323   71.7758  218.6511 H   0  0  0  0  0  0  0  0  0  0  0  0
  142.8331   71.5606  219.2875 H   0  0  0  0  0  0  0  0  0  0  0  0
  144.1083   73.9018  218.0790 H   0  0  0  0  0  0  0  0  0  0  0  0
  142.3787   73.5106  218.3115 H   0  0  0  0  0  0  0  0  0  0  0  0
  139.0742   69.4616  222.4030 H   0  0  0  0  0  0  0  0  0  0  0  0
  138.8762   68.1235  224.4863 H   0  0  0  0  0  0  0  0  0  0  0  0
  139.2053   67.9455  226.8239 H   0  0  0  0  0  0  0  0  0  0  0  0
  140.9361   71.2373  228.9628 H   0  0  0  0  0  0  0  0  0  0  0  0
  141.1321   72.5644  226.8796 H   0  0  0  0  0  0  0  0  0  0  0  0
  1  2  2  0
  2  3  1  0
  3  4  1  0
  4  5  1  0
  5  6  2  0
  5  7  1  0
  7  8  1  0
  8  9  1  0
  9 10  1  0
 10 11  1  0
 11 12  1  0
 12 13  1  0
 13 14  1  0
 14 15  1  0
 15 16  1  0
 16 17  1  0
 17 18  1  0
  2 19  1  0
 19 20  2  0
 20 21  1  0
 21 22  2  0
 22 23  1  0
 23 24  2  0
 24 25  1  0
 24 26  1  0
 26 27  2  0
 27 28  1  0
 28 29  2  0
 12  7  1  0
 18 13  1  0
 29 19  1  0
 28 22  1  0
  3 30  1  0
  4 31  1  0
  4 32  1  0
  8 33  1  0
  8 34  1  0
  9 35  1  0
  9 36  1  0
 10 37  1  0
 10 38  1  0
 11 39  1  0
 11 40  1  0
 12 41  1  1
 13 42  1  0
 14 43  1  0
 14 44  1  0
 15 45  1  0
 15 46  1  0
 16 47  1  0
 16 48  1  0
 17 49  1  0
 17 50  1  0
 18 51  1  0
 18 52  1  0
 20 53  1  0
 21 54  1  0
 23 55  1  0
 26 56  1  0
 27 57  1  0
M  END
>  <smiles>  (5) 
O=C(NCC(=O)N1CCCCC1C1CCCCC1)c1ccc2cc(F)ccc2n1

>  <score_type>  (5) 
oracle

>  <origin>  (5) 
autodockgpu

>  <m_score__min__energy>  (5) 
-8.8000000000000007

>  <m_primary>  (5) 
energy

>  <rmsd>  (5) 
1.910423362747203

>  <m_score__min__rmsd>  (5) 
1.910423362747203

>  <meeko>  (5) 
{"free_energy": -8.09, "intermolecular_energy": -9.58, "internal_energy": -2.34, "cluster_size": 45, "cluster_id": 1, "rank_in_cluster": 38}

>  <energy>  (5) 
-8.63

>  <cluster_rmsd>  (5) 
0.64

>  <cluster>  (5) 
1

$$$$

     RDKit          3D

 57 60  0  0  0  0  0  0  0  0999 V2000
  141.1200   71.8990  221.3020 O   0  0  0  0  0  0  0  0  0  0  0  0
  140.3190   72.2890  222.2000 C   0  0  0  0  0  0  0  0  0  0  0  0
  139.5950   73.5090  222.0660 N   0  0  0  0  0  0  0  0  0  0  0  0
  139.7860   74.3260  220.8690 C   0  0  0  0  0  0  0  0  0  0  0  0
  140.7880   75.4040  221.1360 C   0  0  0  0  0  0  0  0  0  0  0  0
  140.9840   75.6760  222.3460 O   0  0  0  0  0  0  0  0  0  0  0  0
  141.4420   76.0440  220.0510 N   0  0  0  0  0  0  0  0  0  0  0  0
  140.6870   77.0250  219.2650 C   0  0  0  0  0  0  0  0  0  0  0  0
  141.5240   78.2240  218.8920 C   0  0  0  0  0  0  0  0  0  0  0  0
  142.8940   77.8330  218.3950 C   0  0  0  0  0  0  0  0  0  0  0  0
  143.0130   76.3040  218.2910 C   0  0  0  0  0  0  0  0  0  0  0  0
  142.8220   75.7800  219.6740 C   0  0  2  0  0  0  0  0  0  0  0  0
  143.3260   74.4260  219.9600 C   0  0  0  0  0  0  0  0  0  0  0  0
  144.7760   74.5450  220.4670 C   0  0  0  0  0  0  0  0  0  0  0  0
  145.2900   73.2410  220.9680 C   0  0  0  0  0  0  0  0  0  0  0  0
  144.2730   72.1580  220.7960 C   0  0  0  0  0  0  0  0  0  0  0  0
  143.7590   72.1040  219.3890 C   0  0  0  0  0  0  0  0  0  0  0  0
  143.3710   73.4540  218.8360 C   0  0  0  0  0  0  0  0  0  0  0  0
  140.1370   71.4690  223.3960 C   0  0  0  0  0  0  0  0  0  0  0  0
  139.4720   70.2630  223.3130 C   0  0  0  0  0  0  0  0  0  0  0  0
  139.2820   69.4660  224.4190 C   0  0  0  0  0  0  0  0  0  0  0  0
  139.7880   69.9190  225.6330 C   0  0  0  0  0  0  0  0  0  0  0  0
  139.5990   69.1200  226.7410 C   0  0  0  0  0  0  0  0  0  0  0  0
  140.1000   69.5670  227.9500 C   0  0  0  0  0  0  0  0  0  0  0  0
  139.9570   68.8400  229.0890 F   0  0  0  0  0  0  0  0  0  0  0  0
  140.7600   70.7750  228.0010 C   0  0  0  0  0  0  0  0  0  0  0  0
  140.9490   71.5740  226.8920 C   0  0  0  0  0  0  0  0  0  0  0  0
  140.4500   71.1260  225.6990 C   0  0  0  0  0  0  0  0  0  0  0  0
  140.6280   71.9020  224.5920 N   0  0  0  0  0  0  0  0  0  0  0  0
  138.9490   73.7720  222.8410 H   0  0  0  0  0  0  0  0  0  0  0  0
  140.1469   73.6892  220.0479 H   0  0  0  0  0  0  0  0  0  0  0  0
  138.8267   74.7873  220.5915 H   0  0  0  0  0  0  0  0  0  0  0  0
  140.3306   76.5415  218.3435 H   0  0  0  0  0  0  0  0  0  0  0  0
  139.8481   77.3783  219.8826 H   0  0  0  0  0  0  0  0  0  0  0  0
  141.0065   78.7840  218.0992 H   0  0  0  0  0  0  0  0  0  0  0  0
  141.6559   78.8370  219.7958 H   0  0  0  0  0  0  0  0  0  0  0  0
  143.0594   78.2773  217.4024 H   0  0  0  0  0  0  0  0  0  0  0  0
  143.6486   78.2010  219.1058 H   0  0  0  0  0  0  0  0  0  0  0  0
  142.2370   75.9053  217.6210 H   0  0  0  0  0  0  0  0  0  0  0  0
  143.9873   76.0036  217.8781 H   0  0  0  0  0  0  0  0  0  0  0  0
  143.4997   76.3275  220.3456 H   0  0  0  0  0  0  0  0  0  0  0  0
  142.5961   74.0284  220.6806 H   0  0  0  0  0  0  0  0  0  0  0  0
  145.4162   74.8873  219.6406 H   0  0  0  0  0  0  0  0  0  0  0  0
  144.7915   75.2637  221.2996 H   0  0  0  0  0  0  0  0  0  0  0  0
  146.1977   72.9735  220.4072 H   0  0  0  0  0  0  0  0  0  0  0  0
  145.5132   73.3428  222.0403 H   0  0  0  0  0  0  0  0  0  0  0  0
  144.7350   71.1913  221.0449 H   0  0  0  0  0  0  0  0  0  0  0  0
  143.4259   72.3714  221.4644 H   0  0  0  0  0  0  0  0  0  0  0  0
  144.5447   71.6781  218.7477 H   0  0  0  0  0  0  0  0  0  0  0  0
  142.8489   71.4863  219.4011 H   0  0  0  0  0  0  0  0  0  0  0  0
  144.1146   73.7789  218.0933 H   0  0  0  0  0  0  0  0  0  0  0  0
  142.3868   73.3941  218.3484 H   0  0  0  0  0  0  0  0  0  0  0  0
  139.0841   69.9302  222.3389 H   0  0  0  0  0  0  0  0  0  0  0  0
  138.7496   68.5062  224.3456 H   0  0  0  0  0  0  0  0  0  0  0  0
  139.0678   68.1597  226.6657 H   0  0  0  0  0  0  0  0  0  0  0  0
  141.1540   71.1180  228.9691 H   0  0  0  0  0  0  0  0  0  0  0  0
  141.4805   72.5344  226.9641 H   0  0  0  0  0  0  0  0  0  0  0  0
  1  2  2  0
  2  3  1  0
  3  4  1  0
  4  5  1  0
  5  6  2  0
  5  7  1  0
  7  8  1  0
  8  9  1  0
  9 10  1  0
 10 11  1  0
 11 12  1  0
 12 13  1  0
 13 14  1  0
 14 15  1  0
 15 16  1  0
 16 17  1  0
 17 18  1  0
  2 19  1  0
 19 20  2  0
 20 21  1  0
 21 22  2  0
 22 23  1  0
 23 24  2  0
 24 25  1  0
 24 26  1  0
 26 27  2  0
 27 28  1  0
 28 29  2  0
 12  7  1  0
 18 13  1  0
 29 19  1  0
 28 22  1  0
  3 30  1  0
  4 31  1  0
  4 32  1  0
  8 33  1  0
  8 34  1  0
  9 35  1  0
  9 36  1  0
 10 37  1  0
 10 38  1  0
 11 39  1  0
 11 40  1  0
 12 41  1  1
 13 42  1  0
 14 43  1  0
 14 44  1  0
 15 45  1  0
 15 46  1  0
 16 47  1  0
 16 48  1  0
 17 49  1  0
 17 50  1  0
 18 51  1  0
 18 52  1  0
 20 53  1  0
 21 54  1  0
 23 55  1  0
 26 56  1  0
 27 57  1  0
M  END
>  <smiles>  (6) 
O=C(NCC(=O)N1CCCCC1C1CCCCC1)c1ccc2cc(F)ccc2n1

>  <score_type>  (6) 
oracle

>  <origin>  (6) 
autodockgpu

>  <m_score__min__energy>  (6) 
-8.8000000000000007

>  <m_primary>  (6) 
energy

>  <rmsd>  (6) 
1.922247496176882

>  <m_score__min__rmsd>  (6) 
1.922247496176882

>  <meeko>  (6) 
{"free_energy": -8.49, "intermolecular_energy": -9.98, "internal_energy": -1.96, "cluster_size": 45, "cluster_id": 1, "rank_in_cluster": 13}

>  <energy>  (6) 
-8.62

>  <cluster_rmsd>  (6) 
0.73

>  <cluster>  (6) 
1

$$$$

     RDKit          3D

 57 60  0  0  0  0  0  0  0  0999 V2000
  141.0290   73.9020  221.3900 O   0  0  0  0  0  0  0  0  0  0  0  0
  139.9830   74.3540  221.9410 C   0  0  0  0  0  0  0  0  0  0  0  0
  138.9250   73.4870  222.3400 N   0  0  0  0  0  0  0  0  0  0  0  0
  139.0510   72.0490  222.1050 C   0  0  0  0  0  0  0  0  0  0  0  0
  138.1770   71.2940  223.0560 C   0  0  0  0  0  0  0  0  0  0  0  0
  137.3650   71.9890  223.7170 O   0  0  0  0  0  0  0  0  0  0  0  0
  138.3040   69.8850  223.1640 N   0  0  0  0  0  0  0  0  0  0  0  0
  137.4110   69.0430  222.3610 C   0  0  0  0  0  0  0  0  0  0  0  0
  138.1200   67.8440  221.7840 C   0  0  0  0  0  0  0  0  0  0  0  0
  139.0040   67.1600  222.7980 C   0  0  0  0  0  0  0  0  0  0  0  0
  138.8390   67.8080  224.1810 C   0  0  0  0  0  0  0  0  0  0  0  0
  139.2730   69.2270  224.0260 C   0  0  2  0  0  0  0  0  0  0  0  0
  139.6540   69.9550  225.2480 C   0  0  0  0  0  0  0  0  0  0  0  0
  140.9820   70.6890  224.9810 C   0  0  0  0  0  0  0  0  0  0  0  0
  141.3330   71.6100  226.0970 C   0  0  0  0  0  0  0  0  0  0  0  0
  140.3250   71.5320  227.1990 C   0  0  0  0  0  0  0  0  0  0  0  0
  140.0920   70.1160  227.6340 C   0  0  0  0  0  0  0  0  0  0  0  0
  139.8760   69.1600  226.4850 C   0  0  0  0  0  0  0  0  0  0  0  0
  139.8630   75.7930  222.1690 C   0  0  0  0  0  0  0  0  0  0  0  0
  138.6240   76.3580  222.3840 C   0  0  0  0  0  0  0  0  0  0  0  0
  138.4740   77.7090  222.6010 C   0  0  0  0  0  0  0  0  0  0  0  0
  139.6240   78.4920  222.5970 C   0  0  0  0  0  0  0  0  0  0  0  0
  139.4740   79.8460  222.8140 C   0  0  0  0  0  0  0  0  0  0  0  0
  140.6150   80.6270  222.8110 C   0  0  0  0  0  0  0  0  0  0  0  0
  140.5550   81.9690  223.0180 F   0  0  0  0  0  0  0  0  0  0  0  0
  141.8390   80.0340  222.5920 C   0  0  0  0  0  0  0  0  0  0  0  0
  141.9880   78.6790  222.3740 C   0  0  0  0  0  0  0  0  0  0  0  0
  140.8550   77.9120  222.3790 C   0  0  0  0  0  0  0  0  0  0  0  0
  140.9820   76.5710  222.1660 N   0  0  0  0  0  0  0  0  0  0  0  0
  138.0920   73.9220  222.7910 H   0  0  0  0  0  0  0  0  0  0  0  0
  138.7473   71.8211  221.0726 H   0  0  0  0  0  0  0  0  0  0  0  0
  140.0975   71.7489  222.2622 H   0  0  0  0  0  0  0  0  0  0  0  0
  136.5863   68.6929  222.9992 H   0  0  0  0  0  0  0  0  0  0  0  0
  137.0402   69.6503  221.5222 H   0  0  0  0  0  0  0  0  0  0  0  0
  137.3673   67.1250  221.4284 H   0  0  0  0  0  0  0  0  0  0  0  0
  138.7600   68.1947  220.9610 H   0  0  0  0  0  0  0  0  0  0  0  0
  138.7271   66.0973  222.8610 H   0  0  0  0  0  0  0  0  0  0  0  0
  140.0525   67.2610  222.4810 H   0  0  0  0  0  0  0  0  0  0  0  0
  137.7875   67.7629  224.5010 H   0  0  0  0  0  0  0  0  0  0  0  0
  139.4353   67.2858  224.9438 H   0  0  0  0  0  0  0  0  0  0  0  0
  140.2615   69.2330  223.5434 H   0  0  0  0  0  0  0  0  0  0  0  0
  138.7819   70.5954  225.4466 H   0  0  0  0  0  0  0  0  0  0  0  0
  141.7842   69.9452  224.8662 H   0  0  0  0  0  0  0  0  0  0  0  0
  140.8666   71.2868  224.0648 H   0  0  0  0  0  0  0  0  0  0  0  0
  142.3208   71.3330  226.4938 H   0  0  0  0  0  0  0  0  0  0  0  0
  141.3461   72.6391  225.7087 H   0  0  0  0  0  0  0  0  0  0  0  0
  140.6895   72.1141  228.0582 H   0  0  0  0  0  0  0  0  0  0  0  0
  139.3737   71.9382  226.8248 H   0  0  0  0  0  0  0  0  0  0  0  0
  140.9685   69.7792  228.2070 H   0  0  0  0  0  0  0  0  0  0  0  0
  139.1718   70.1102  228.2367 H   0  0  0  0  0  0  0  0  0  0  0  0
  140.7628   68.5210  226.3617 H   0  0  0  0  0  0  0  0  0  0  0  0
  139.0037   68.5203  226.6846 H   0  0  0  0  0  0  0  0  0  0  0  0
  137.7329   75.7130  222.3821 H   0  0  0  0  0  0  0  0  0  0  0  0
  137.4820   78.1529  222.7712 H   0  0  0  0  0  0  0  0  0  0  0  0
  138.4815   80.2889  222.9835 H   0  0  0  0  0  0  0  0  0  0  0  0
  142.7376   80.6684  222.5908 H   0  0  0  0  0  0  0  0  0  0  0  0
  142.9790   78.2333  222.2029 H   0  0  0  0  0  0  0  0  0  0  0  0
  1  2  2  0
  2  3  1  0
  3  4  1  0
  4  5  1  0
  5  6  2  0
  5  7  1  0
  7  8  1  0
  8  9  1  0
  9 10  1  0
 10 11  1  0
 11 12  1  0
 12 13  1  0
 13 14  1  0
 14 15  1  0
 15 16  1  0
 16 17  1  0
 17 18  1  0
  2 19  1  0
 19 20  2  0
 20 21  1  0
 21 22  2  0
 22 23  1  0
 23 24  2  0
 24 25  1  0
 24 26  1  0
 26 27  2  0
 27 28  1  0
 28 29  2  0
 12  7  1  0
 18 13  1  0
 29 19  1  0
 28 22  1  0
  3 30  1  0
  4 31  1  0
  4 32  1  0
  8 33  1  0
  8 34  1  0
  9 35  1  0
  9 36  1  0
 10 37  1  0
 10 38  1  0
 11 39  1  0
 11 40  1  0
 12 41  1  6
 13 42  1  0
 14 43  1  0
 14 44  1  0
 15 45  1  0
 15 46  1  0
 16 47  1  0
 16 48  1  0
 17 49  1  0
 17 50  1  0
 18 51  1  0
 18 52  1  0
 20 53  1  0
 21 54  1  0
 23 55  1  0
 26 56  1  0
 27 57  1  0
M  END
>  <smiles>  (7) 
O=C(NCC(=O)N1CCCCC1C1CCCCC1)c1ccc2cc(F)ccc2n1

>  <score_type>  (7) 
oracle

>  <origin>  (7) 
autodockgpu

>  <m_score__min__energy>  (7) 
-8.8000000000000007

>  <m_primary>  (7) 
energy

>  <rmsd>  (7) 
8.616128951288873

>  <m_score__min__rmsd>  (7) 
8.616128951288873

>  <meeko>  (7) 
{"free_energy": -7.58, "intermolecular_energy": -9.08, "internal_energy": -1.99, "cluster_size": 2, "cluster_id": 3, "rank_in_cluster": 2}

>  <energy>  (7) 
-8.58

>  <cluster_rmsd>  (7) 
0.65

>  <cluster>  (7) 
1

$$$$

     RDKit          3D

 57 60  0  0  0  0  0  0  0  0999 V2000
  141.1580   71.7770  221.3450 O   0  0  0  0  0  0  0  0  0  0  0  0
  140.5200   72.2820  222.3150 C   0  0  0  0  0  0  0  0  0  0  0  0
  140.0470   73.6250  222.2690 N   0  0  0  0  0  0  0  0  0  0  0  0
  140.3070   74.4350  221.0810 C   0  0  0  0  0  0  0  0  0  0  0  0
  139.6790   75.7850  221.2310 C   0  0  0  0  0  0  0  0  0  0  0  0
  139.1040   75.9980  222.3270 O   0  0  0  0  0  0  0  0  0  0  0  0
  139.7600   76.7230  220.1690 N   0  0  0  0  0  0  0  0  0  0  0  0
  139.6450   76.2270  218.7930 C   0  0  0  0  0  0  0  0  0  0  0  0
  138.8230   77.1430  217.9210 C   0  0  0  0  0  0  0  0  0  0  0  0
  139.1870   78.5940  218.1150 C   0  0  0  0  0  0  0  0  0  0  0  0
  140.3880   78.7280  219.0640 C   0  0  0  0  0  0  0  0  0  0  0  0
  139.9500   78.1510  220.3670 C   0  0  2  0  0  0  0  0  0  0  0  0
  140.7050   78.5440  221.5690 C   0  0  0  0  0  0  0  0  0  0  0  0
  139.7290   79.2040  222.5610 C   0  0  0  0  0  0  0  0  0  0  0  0
  140.3720   79.4480  223.8820 C   0  0  0  0  0  0  0  0  0  0  0  0
  141.8080   79.0320  223.8690 C   0  0  0  0  0  0  0  0  0  0  0  0
  142.5480   79.6410  222.7150 C   0  0  0  0  0  0  0  0  0  0  0  0
  141.8200   79.5120  221.3970 C   0  0  0  0  0  0  0  0  0  0  0  0
  140.2670   71.4660  223.5010 C   0  0  0  0  0  0  0  0  0  0  0  0
  139.5960   70.2670  223.3850 C   0  0  0  0  0  0  0  0  0  0  0  0
  139.3400   69.4740  224.4810 C   0  0  0  0  0  0  0  0  0  0  0  0
  139.7850   69.9250  225.7190 C   0  0  0  0  0  0  0  0  0  0  0  0
  139.5290   69.1310  226.8170 C   0  0  0  0  0  0  0  0  0  0  0  0
  139.9700   69.5760  228.0500 C   0  0  0  0  0  0  0  0  0  0  0  0
  139.7600   68.8530  229.1820 F   0  0  0  0  0  0  0  0  0  0  0  0
  140.6370   70.7780  228.1340 C   0  0  0  0  0  0  0  0  0  0  0  0
  140.8930   71.5730  227.0340 C   0  0  0  0  0  0  0  0  0  0  0  0
  140.4540   71.1260  225.8180 C   0  0  0  0  0  0  0  0  0  0  0  0
  140.6970   71.8980  224.7200 N   0  0  0  0  0  0  0  0  0  0  0  0
  139.5250   73.9790  223.1000 H   0  0  0  0  0  0  0  0  0  0  0  0
  141.3930   74.5515  220.9507 H   0  0  0  0  0  0  0  0  0  0  0  0
  139.8761   73.9333  220.2020 H   0  0  0  0  0  0  0  0  0  0  0  0
  140.6537   76.1402  218.3628 H   0  0  0  0  0  0  0  0  0  0  0  0
  139.1379   75.2515  218.8283 H   0  0  0  0  0  0  0  0  0  0  0  0
  138.9905   76.8737  216.8677 H   0  0  0  0  0  0  0  0  0  0  0  0
  137.7670   77.0195  218.2032 H   0  0  0  0  0  0  0  0  0  0  0  0
  139.4449   79.0354  217.1410 H   0  0  0  0  0  0  0  0  0  0  0  0
  138.3268   79.1196  218.5552 H   0  0  0  0  0  0  0  0  0  0  0  0
  141.2504   78.1703  218.6699 H   0  0  0  0  0  0  0  0  0  0  0  0
  140.6997   79.7773  219.1730 H   0  0  0  0  0  0  0  0  0  0  0  0
  138.9920   78.6163  220.6421 H   0  0  0  0  0  0  0  0  0  0  0  0
  141.1643   77.6018  221.9025 H   0  0  0  0  0  0  0  0  0  0  0  0
  139.3924   80.1650  222.1448 H   0  0  0  0  0  0  0  0  0  0  0  0
  138.8790   78.5224  222.7126 H   0  0  0  0  0  0  0  0  0  0  0  0
  140.3112   80.5207  224.1180 H   0  0  0  0  0  0  0  0  0  0  0  0
  139.8438   78.8533  224.6418 H   0  0  0  0  0  0  0  0  0  0  0  0
  142.2819   79.3551  224.8076 H   0  0  0  0  0  0  0  0  0  0  0  0
  141.8486   77.9377  223.7653 H   0  0  0  0  0  0  0  0  0  0  0  0
  142.7016   80.7098  222.9248 H   0  0  0  0  0  0  0  0  0  0  0  0
  143.4977   79.0950  222.6150 H   0  0  0  0  0  0  0  0  0  0  0  0
  141.4187   80.4913  221.0970 H   0  0  0  0  0  0  0  0  0  0  0  0
  142.5104   79.1582  220.6172 H   0  0  0  0  0  0  0  0  0  0  0  0
  139.2569   69.9359  222.3923 H   0  0  0  0  0  0  0  0  0  0  0  0
  138.8033   68.5190  224.3811 H   0  0  0  0  0  0  0  0  0  0  0  0
  138.9923   68.1762  226.7156 H   0  0  0  0  0  0  0  0  0  0  0  0
  140.9812   71.1201  229.1212 H   0  0  0  0  0  0  0  0  0  0  0  0
  141.4291   72.5285  227.1319 H   0  0  0  0  0  0  0  0  0  0  0  0
  1  2  2  0
  2  3  1  0
  3  4  1  0
  4  5  1  0
  5  6  2  0
  5  7  1  0
  7  8  1  0
  8  9  1  0
  9 10  1  0
 10 11  1  0
 11 12  1  0
 12 13  1  0
 13 14  1  0
 14 15  1  0
 15 16  1  0
 16 17  1  0
 17 18  1  0
  2 19  1  0
 19 20  2  0
 20 21  1  0
 21 22  2  0
 22 23  1  0
 23 24  2  0
 24 25  1  0
 24 26  1  0
 26 27  2  0
 27 28  1  0
 28 29  2  0
 12  7  1  0
 18 13  1  0
 29 19  1  0
 28 22  1  0
  3 30  1  0
  4 31  1  0
  4 32  1  0
  8 33  1  0
  8 34  1  0
  9 35  1  0
  9 36  1  0
 10 37  1  0
 10 38  1  0
 11 39  1  0
 11 40  1  0
 12 41  1  1
 13 42  1  0
 14 43  1  0
 14 44  1  0
 15 45  1  0
 15 46  1  0
 16 47  1  0
 16 48  1  0
 17 49  1  0
 17 50  1  0
 18 51  1  0
 18 52  1  0
 20 53  1  0
 21 54  1  0
 23 55  1  0
 26 56  1  0
 27 57  1  0
M  END
>  <smiles>  (8) 
O=C(NCC(=O)N1CCCCC1C1CCCCC1)c1ccc2cc(F)ccc2n1

>  <score_type>  (8) 
oracle

>  <origin>  (8) 
autodockgpu

>  <m_score__min__energy>  (8) 
-8.8000000000000007

>  <m_primary>  (8) 
energy

>  <rmsd>  (8) 
1.798316134307303

>  <m_score__min__rmsd>  (8) 
1.798316134307303

>  <meeko>  (8) 
{"free_energy": -7.91, "intermolecular_energy": -9.4, "internal_energy": -2.0, "cluster_size": 45, "cluster_id": 1, "rank_in_cluster": 41}

>  <energy>  (8) 
-8.57

>  <cluster_rmsd>  (8) 
0.74

>  <cluster>  (8) 
1

$$$$

     RDKit          3D

 57 60  0  0  0  0  0  0  0  0999 V2000
  140.1970   71.5400  221.0790 O   0  0  0  0  0  0  0  0  0  0  0  0
  139.9750   72.0850  222.1990 C   0  0  0  0  0  0  0  0  0  0  0  0
  139.7640   73.4900  222.3090 N   0  0  0  0  0  0  0  0  0  0  0  0
  139.8090   74.3160  221.1040 C   0  0  0  0  0  0  0  0  0  0  0  0
  140.4240   75.6440  221.4130 C   0  0  0  0  0  0  0  0  0  0  0  0
  140.3550   76.0090  222.6130 O   0  0  0  0  0  0  0  0  0  0  0  0
  141.0310   76.3990  220.3760 N   0  0  0  0  0  0  0  0  0  0  0  0
  141.5470   75.6820  219.2050 C   0  0  0  0  0  0  0  0  0  0  0  0
  141.2660   76.4150  217.9160 C   0  0  0  0  0  0  0  0  0  0  0  0
  141.5630   77.8900  218.0210 C   0  0  0  0  0  0  0  0  0  0  0  0
  142.1900   78.2180  219.3860 C   0  0  0  0  0  0  0  0  0  0  0  0
  141.1710   77.8460  220.4090 C   0  0  2  0  0  0  0  0  0  0  0  0
  141.2980   78.4560  221.7430 C   0  0  0  0  0  0  0  0  0  0  0  0
  139.9050   78.9400  222.1900 C   0  0  0  0  0  0  0  0  0  0  0  0
  139.9090   79.3860  223.6100 C   0  0  0  0  0  0  0  0  0  0  0  0
  141.2800   79.2910  224.2020 C   0  0  0  0  0  0  0  0  0  0  0  0
  142.2980   79.9840  223.3470 C   0  0  0  0  0  0  0  0  0  0  0  0
  142.1960   79.6320  221.8820 C   0  0  0  0  0  0  0  0  0  0  0  0
  139.9360   71.2520  223.4000 C   0  0  0  0  0  0  0  0  0  0  0  0
  139.4370   69.9680  223.3350 C   0  0  0  0  0  0  0  0  0  0  0  0
  139.3840   69.1570  224.4460 C   0  0  0  0  0  0  0  0  0  0  0  0
  139.8560   69.6790  225.6460 C   0  0  0  0  0  0  0  0  0  0  0  0
  139.8040   68.8660  226.7590 C   0  0  0  0  0  0  0  0  0  0  0  0
  140.2720   69.3810  227.9540 C   0  0  0  0  0  0  0  0  0  0  0  0
  140.2570   68.6460  229.0970 F   0  0  0  0  0  0  0  0  0  0  0  0
  140.7640   70.6670  227.9870 C   0  0  0  0  0  0  0  0  0  0  0  0
  140.8160   71.4800  226.8730 C   0  0  0  0  0  0  0  0  0  0  0  0
  140.3510   70.9640  225.6940 C   0  0  0  0  0  0  0  0  0  0  0  0
  140.3940   71.7520  224.5820 N   0  0  0  0  0  0  0  0  0  0  0  0
  139.5840   73.8760  223.2600 H   0  0  0  0  0  0  0  0  0  0  0  0
  140.4099   73.8067  220.3362 H   0  0  0  0  0  0  0  0  0  0  0  0
  138.7842   74.4711  220.7357 H   0  0  0  0  0  0  0  0  0  0  0  0
  142.6350   75.5625  219.3143 H   0  0  0  0  0  0  0  0  0  0  0  0
  141.0392   74.7074  219.1560 H   0  0  0  0  0  0  0  0  0  0  0  0
  141.8911   75.9839  217.1202 H   0  0  0  0  0  0  0  0  0  0  0  0
  140.1953   76.3021  217.6907 H   0  0  0  0  0  0  0  0  0  0  0  0
  142.2639   78.1757  217.2228 H   0  0  0  0  0  0  0  0  0  0  0  0
  140.6219   78.4502  217.9183 H   0  0  0  0  0  0  0  0  0  0  0  0
  143.1103   77.6338  219.5337 H   0  0  0  0  0  0  0  0  0  0  0  0
  142.4624   79.2813  219.4581 H   0  0  0  0  0  0  0  0  0  0  0  0
  140.2164   78.3156  220.1294 H   0  0  0  0  0  0  0  0  0  0  0  0
  141.7457   77.6545  222.3489 H   0  0  0  0  0  0  0  0  0  0  0  0
  139.5982   79.7821  221.5523 H   0  0  0  0  0  0  0  0  0  0  0  0
  139.2022   78.0991  222.0957 H   0  0  0  0  0  0  0  0  0  0  0  0
  139.5683   80.4308  223.6591 H   0  0  0  0  0  0  0  0  0  0  0  0
  139.2355   78.7317  224.1830 H   0  0  0  0  0  0  0  0  0  0  0  0
  141.2723   79.7581  225.1978 H   0  0  0  0  0  0  0  0  0  0  0  0
  141.5532   78.2276  224.2698 H   0  0  0  0  0  0  0  0  0  0  0  0
  142.1611   81.0702  223.4542 H   0  0  0  0  0  0  0  0  0  0  0  0
  143.2887   79.6518  223.6908 H   0  0  0  0  0  0  0  0  0  0  0  0
  141.7814   80.4840  221.3233 H   0  0  0  0  0  0  0  0  0  0  0  0
  143.1923   79.3961  221.4800 H   0  0  0  0  0  0  0  0  0  0  0  0
  139.0723   69.5824  222.3715 H   0  0  0  0  0  0  0  0  0  0  0  0
  138.9834   68.1342  224.3871 H   0  0  0  0  0  0  0  0  0  0  0  0
  139.4040   67.8431  226.6982 H   0  0  0  0  0  0  0  0  0  0  0  0
  141.1321   71.0640  228.9445 H   0  0  0  0  0  0  0  0  0  0  0  0
  141.2157   72.5032  226.9306 H   0  0  0  0  0  0  0  0  0  0  0  0
  1  2  2  0
  2  3  1  0
  3  4  1  0
  4  5  1  0
  5  6  2  0
  5  7  1  0
  7  8  1  0
  8  9  1  0
  9 10  1  0
 10 11  1  0
 11 12  1  0
 12 13  1  0
 13 14  1  0
 14 15  1  0
 15 16  1  0
 16 17  1  0
 17 18  1  0
  2 19  1  0
 19 20  2  0
 20 21  1  0
 21 22  2  0
 22 23  1  0
 23 24  2  0
 24 25  1  0
 24 26  1  0
 26 27  2  0
 27 28  1  0
 28 29  2  0
 12  7  1  0
 18 13  1  0
 29 19  1  0
 28 22  1  0
  3 30  1  0
  4 31  1  0
  4 32  1  0
  8 33  1  0
  8 34  1  0
  9 35  1  0
  9 36  1  0
 10 37  1  0
 10 38  1  0
 11 39  1  0
 11 40  1  0
 12 41  1  6
 13 42  1  0
 14 43  1  0
 14 44  1  0
 15 45  1  0
 15 46  1  0
 16 47  1  0
 16 48  1  0
 17 49  1  0
 17 50  1  0
 18 51  1  0
 18 52  1  0
 20 53  1  0
 21 54  1  0
 23 55  1  0
 26 56  1  0
 27 57  1  0
M  END
>  <smiles>  (9) 
O=C(NCC(=O)N1CCCCC1C1CCCCC1)c1ccc2cc(F)ccc2n1

>  <score_type>  (9) 
oracle

>  <origin>  (9) 
autodockgpu

>  <m_score__min__energy>  (9) 
-8.8000000000000007

>  <m_primary>  (9) 
energy

>  <rmsd>  (9) 
1.6498759083309666

>  <m_score__min__rmsd>  (9) 
1.6498759083309666

>  <meeko>  (9) 
{"free_energy": -8.58, "intermolecular_energy": -10.07, "internal_energy": -1.85, "cluster_size": 45, "cluster_id": 1, "rank_in_cluster": 7}

>  <energy>  (9) 
-8.57

>  <cluster_rmsd>  (9) 
0.76

>  <cluster>  (9) 
1

$$$$

     RDKit          3D

 57 60  0  0  0  0  0  0  0  0999 V2000
  141.0670   71.7260  221.1980 O   0  0  0  0  0  0  0  0  0  0  0  0
  140.3680   72.1950  222.1430 C   0  0  0  0  0  0  0  0  0  0  0  0
  139.7590   73.4790  222.0450 N   0  0  0  0  0  0  0  0  0  0  0  0
  139.9490   74.2700  220.8300 C   0  0  0  0  0  0  0  0  0  0  0  0
  140.8360   75.4410  221.1120 C   0  0  0  0  0  0  0  0  0  0  0  0
  140.9530   75.7550  222.3230 O   0  0  0  0  0  0  0  0  0  0  0  0
  141.4770   76.1160  220.0410 N   0  0  0  0  0  0  0  0  0  0  0  0
  140.7170   77.1320  219.3050 C   0  0  0  0  0  0  0  0  0  0  0  0
  141.5570   78.3370  218.9620 C   0  0  0  0  0  0  0  0  0  0  0  0
  142.9150   77.9540  218.4270 C   0  0  0  0  0  0  0  0  0  0  0  0
  143.0190   76.4290  218.2640 C   0  0  0  0  0  0  0  0  0  0  0  0
  142.8480   75.8550  219.6300 C   0  0  2  0  0  0  0  0  0  0  0  0
  143.3450   74.4880  219.8560 C   0  0  0  0  0  0  0  0  0  0  0  0
  144.7520   74.5800  220.4760 C   0  0  0  0  0  0  0  0  0  0  0  0
  145.2430   73.2470  220.9210 C   0  0  0  0  0  0  0  0  0  0  0  0
  144.2540   72.1720  220.5990 C   0  0  0  0  0  0  0  0  0  0  0  0
  143.8450   72.2140  219.1560 C   0  0  0  0  0  0  0  0  0  0  0  0
  143.4830   73.5990  218.6730 C   0  0  0  0  0  0  0  0  0  0  0  0
  140.1860   71.3990  223.3560 C   0  0  0  0  0  0  0  0  0  0  0  0
  139.5660   70.1690  223.2890 C   0  0  0  0  0  0  0  0  0  0  0  0
  139.3770   69.3940  224.4110 C   0  0  0  0  0  0  0  0  0  0  0  0
  139.8370   69.8960  225.6240 C   0  0  0  0  0  0  0  0  0  0  0  0
  139.6490   69.1190  226.7480 C   0  0  0  0  0  0  0  0  0  0  0  0
  140.1050   69.6150  227.9560 C   0  0  0  0  0  0  0  0  0  0  0  0
  139.9590   68.9130  229.1100 F   0  0  0  0  0  0  0  0  0  0  0  0
  140.7190   70.8470  227.9910 C   0  0  0  0  0  0  0  0  0  0  0  0
  140.9080   71.6240  226.8650 C   0  0  0  0  0  0  0  0  0  0  0  0
  140.4540   71.1270  225.6740 C   0  0  0  0  0  0  0  0  0  0  0  0
  140.6310   71.8810  224.5510 N   0  0  0  0  0  0  0  0  0  0  0  0
  139.1930   73.8060  222.8570 H   0  0  0  0  0  0  0  0  0  0  0  0
  140.4120   73.6412  220.0553 H   0  0  0  0  0  0  0  0  0  0  0  0
  138.9715   74.6347  220.4815 H   0  0  0  0  0  0  0  0  0  0  0  0
  140.3406   76.6860  218.3726 H   0  0  0  0  0  0  0  0  0  0  0  0
  139.8922   77.4688  219.9502 H   0  0  0  0  0  0  0  0  0  0  0  0
  141.0306   78.9299  218.1995 H   0  0  0  0  0  0  0  0  0  0  0  0
  141.7095   78.9151  219.8853 H   0  0  0  0  0  0  0  0  0  0  0  0
  143.0672   78.4338  217.4489 H   0  0  0  0  0  0  0  0  0  0  0  0
  143.6848   78.2891  219.1377 H   0  0  0  0  0  0  0  0  0  0  0  0
  142.2279   76.0618  217.5937 H   0  0  0  0  0  0  0  0  0  0  0  0
  143.9833   76.1366  217.8228 H   0  0  0  0  0  0  0  0  0  0  0  0
  143.5421   76.3712  220.3096 H   0  0  0  0  0  0  0  0  0  0  0  0
  142.5691   74.0352  220.4907 H   0  0  0  0  0  0  0  0  0  0  0  0
  145.4471   74.9841  219.7253 H   0  0  0  0  0  0  0  0  0  0  0  0
  144.6979   75.2380  221.3558 H   0  0  0  0  0  0  0  0  0  0  0  0
  146.1924   73.0257  220.4114 H   0  0  0  0  0  0  0  0  0  0  0  0
  145.3857   73.2742  222.0114 H   0  0  0  0  0  0  0  0  0  0  0  0
  144.7078   71.1932  220.8133 H   0  0  0  0  0  0  0  0  0  0  0  0
  143.3576   72.3322  221.2161 H   0  0  0  0  0  0  0  0  0  0  0  0
  144.6805   71.8397  218.5461 H   0  0  0  0  0  0  0  0  0  0  0  0
  142.9442   71.5906  219.0564 H   0  0  0  0  0  0  0  0  0  0  0  0
  144.2751   73.9806  218.0121 H   0  0  0  0  0  0  0  0  0  0  0  0
  142.5376   73.5680  218.1116 H   0  0  0  0  0  0  0  0  0  0  0  0
  139.2138   69.7980  222.3152 H   0  0  0  0  0  0  0  0  0  0  0  0
  138.8807   68.4142  224.3505 H   0  0  0  0  0  0  0  0  0  0  0  0
  139.1536   68.1388  226.6859 H   0  0  0  0  0  0  0  0  0  0  0  0
  141.0748   71.2294  228.9591 H   0  0  0  0  0  0  0  0  0  0  0  0
  141.4041   72.6040  226.9235 H   0  0  0  0  0  0  0  0  0  0  0  0
  1  2  2  0
  2  3  1  0
  3  4  1  0
  4  5  1  0
  5  6  2  0
  5  7  1  0
  7  8  1  0
  8  9  1  0
  9 10  1  0
 10 11  1  0
 11 12  1  0
 12 13  1  0
 13 14  1  0
 14 15  1  0
 15 16  1  0
 16 17  1  0
 17 18  1  0
  2 19  1  0
 19 20  2  0
 20 21  1  0
 21 22  2  0
 22 23  1  0
 23 24  2  0
 24 25  1  0
 24 26  1  0
 26 27  2  0
 27 28  1  0
 28 29  2  0
 12  7  1  0
 18 13  1  0
 29 19  1  0
 28 22  1  0
  3 30  1  0
  4 31  1  0
  4 32  1  0
  8 33  1  0
  8 34  1  0
  9 35  1  0
  9 36  1  0
 10 37  1  0
 10 38  1  0
 11 39  1  0
 11 40  1  0
 12 41  1  1
 13 42  1  0
 14 43  1  0
 14 44  1  0
 15 45  1  0
 15 46  1  0
 16 47  1  0
 16 48  1  0
 17 49  1  0
 17 50  1  0
 18 51  1  0
 18 52  1  0
 20 53  1  0
 21 54  1  0
 23 55  1  0
 26 56  1  0
 27 57  1  0
M  END
>  <smiles>  (10) 
O=C(NCC(=O)N1CCCCC1C1CCCCC1)c1ccc2cc(F)ccc2n1

>  <score_type>  (10) 
oracle

>  <origin>  (10) 
autodockgpu

>  <m_score__min__energy>  (10) 
-8.8000000000000007

>  <m_primary>  (10) 
energy

>  <rmsd>  (10) 
1.9591131052833806

>  <m_score__min__rmsd>  (10) 
1.9591131052833806

>  <meeko>  (10) 
{"free_energy": -8.42, "intermolecular_energy": -9.91, "internal_energy": -2.0, "cluster_size": 45, "cluster_id": 1, "rank_in_cluster": 20}

>  <energy>  (10) 
-8.53

>  <cluster_rmsd>  (10) 
0.63

>  <cluster>  (10) 
1

$$$$

     RDKit          3D

 57 60  0  0  0  0  0  0  0  0999 V2000
  141.0840   71.4250  221.4330 O   0  0  0  0  0  0  0  0  0  0  0  0
  140.4800   72.0000  222.3850 C   0  0  0  0  0  0  0  0  0  0  0  0
  140.0660   73.3600  222.2840 N   0  0  0  0  0  0  0  0  0  0  0  0
  140.3470   74.1040  221.0570 C   0  0  0  0  0  0  0  0  0  0  0  0
  140.5240   75.5570  221.3660 C   0  0  0  0  0  0  0  0  0  0  0  0
  140.0540   75.9400  222.4660 O   0  0  0  0  0  0  0  0  0  0  0  0
  141.1870   76.4000  220.4370 N   0  0  0  0  0  0  0  0  0  0  0  0
  142.0860   75.7820  219.4560 C   0  0  0  0  0  0  0  0  0  0  0  0
  141.9630   76.4130  218.0910 C   0  0  0  0  0  0  0  0  0  0  0  0
  141.9290   77.9200  218.1580 C   0  0  0  0  0  0  0  0  0  0  0  0
  142.1540   78.4000  219.6010 C   0  0  0  0  0  0  0  0  0  0  0  0
  141.0250   77.8450  220.4020 C   0  0  2  0  0  0  0  0  0  0  0  0
  140.7230   78.4960  221.6880 C   0  0  0  0  0  0  0  0  0  0  0  0
  139.8270   79.7180  221.4150 C   0  0  0  0  0  0  0  0  0  0  0  0
  139.3120   80.3130  222.6780 C   0  0  0  0  0  0  0  0  0  0  0  0
  139.8480   79.5910  223.8730 C   0  0  0  0  0  0  0  0  0  0  0  0
  141.3430   79.4780  223.8230 C   0  0  0  0  0  0  0  0  0  0  0  0
  141.8670   79.0060  222.4880 C   0  0  0  0  0  0  0  0  0  0  0  0
  140.2070   71.2510  223.6100 C   0  0  0  0  0  0  0  0  0  0  0  0
  139.5380   70.0460  223.5480 C   0  0  0  0  0  0  0  0  0  0  0  0
  139.2630   69.3140  224.6810 C   0  0  0  0  0  0  0  0  0  0  0  0
  139.6870   69.8330  225.9000 C   0  0  0  0  0  0  0  0  0  0  0  0
  139.4120   69.1000  227.0360 C   0  0  0  0  0  0  0  0  0  0  0  0
  139.8320   69.6130  228.2500 C   0  0  0  0  0  0  0  0  0  0  0  0
  139.6020   68.9520  229.4160 F   0  0  0  0  0  0  0  0  0  0  0  0
  140.4980   70.8180  228.2790 C   0  0  0  0  0  0  0  0  0  0  0  0
  140.7730   71.5510  227.1420 C   0  0  0  0  0  0  0  0  0  0  0  0
  140.3540   71.0380  225.9450 C   0  0  0  0  0  0  0  0  0  0  0  0
  140.6170   71.7490  224.8110 N   0  0  0  0  0  0  0  0  0  0  0  0
  139.5710   73.7730  223.1030 H   0  0  0  0  0  0  0  0  0  0  0  0
  141.2679   73.7148  220.5983 H   0  0  0  0  0  0  0  0  0  0  0  0
  139.5030   73.9839  220.3619 H   0  0  0  0  0  0  0  0  0  0  0  0
  143.1228   75.8946  219.8058 H   0  0  0  0  0  0  0  0  0  0  0  0
  141.8066   74.7221  219.3637 H   0  0  0  0  0  0  0  0  0  0  0  0
  142.8245   76.1054  217.4801 H   0  0  0  0  0  0  0  0  0  0  0  0
  141.0149   76.0743  217.6478 H   0  0  0  0  0  0  0  0  0  0  0  0
  142.7206   78.3290  217.5129 H   0  0  0  0  0  0  0  0  0  0  0  0
  140.9433   78.2691  217.8166 H   0  0  0  0  0  0  0  0  0  0  0  0
  143.1144   78.0238  219.9831 H   0  0  0  0  0  0  0  0  0  0  0  0
  142.1864   79.4980  219.6590 H   0  0  0  0  0  0  0  0  0  0  0  0
  140.0845   78.0992  219.8913 H   0  0  0  0  0  0  0  0  0  0  0  0
  140.2674   77.6902  222.2822 H   0  0  0  0  0  0  0  0  0  0  0  0
  140.4130   80.4769  220.8758 H   0  0  0  0  0  0  0  0  0  0  0  0
  138.9666   79.3865  220.8151 H   0  0  0  0  0  0  0  0  0  0  0  0
  139.6185   81.3682  222.7288 H   0  0  0  0  0  0  0  0  0  0  0  0
  138.2153   80.2275  222.6819 H   0  0  0  0  0  0  0  0  0  0  0  0
  139.5615   80.1414  224.7813 H   0  0  0  0  0  0  0  0  0  0  0  0
  139.4255   78.5754  223.8805 H   0  0  0  0  0  0  0  0  0  0  0  0
  141.7743   80.4672  224.0363 H   0  0  0  0  0  0  0  0  0  0  0  0
  141.6357   78.7254  224.5699 H   0  0  0  0  0  0  0  0  0  0  0  0
  142.3455   79.8437  221.9596 H   0  0  0  0  0  0  0  0  0  0  0  0
  142.6105   78.2087  222.6346 H   0  0  0  0  0  0  0  0  0  0  0  0
  139.2164   69.6607  222.5692 H   0  0  0  0  0  0  0  0  0  0  0  0
  138.7280   68.3545  224.6245 H   0  0  0  0  0  0  0  0  0  0  0  0
  138.8771   68.1405  226.9783 H   0  0  0  0  0  0  0  0  0  0  0  0
  140.8255   71.2141  229.2516 H   0  0  0  0  0  0  0  0  0  0  0  0
  141.3083   72.5104  227.1964 H   0  0  0  0  0  0  0  0  0  0  0  0
  1  2  2  0
  2  3  1  0
  3  4  1  0
  4  5  1  0
  5  6  2  0
  5  7  1  0
  7  8  1  0
  8  9  1  0
  9 10  1  0
 10 11  1  0
 11 12  1  0
 12 13  1  0
 13 14  1  0
 14 15  1  0
 15 16  1  0
 16 17  1  0
 17 18  1  0
  2 19  1  0
 19 20  2  0
 20 21  1  0
 21 22  2  0
 22 23  1  0
 23 24  2  0
 24 25  1  0
 24 26  1  0
 26 27  2  0
 27 28  1  0
 28 29  2  0
 12  7  1  0
 18 13  1  0
 29 19  1  0
 28 22  1  0
  3 30  1  0
  4 31  1  0
  4 32  1  0
  8 33  1  0
  8 34  1  0
  9 35  1  0
  9 36  1  0
 10 37  1  0
 10 38  1  0
 11 39  1  0
 11 40  1  0
 12 41  1  6
 13 42  1  0
 14 43  1  0
 14 44  1  0
 15 45  1  0
 15 46  1  0
 16 47  1  0
 16 48  1  0
 17 49  1  0
 17 50  1  0
 18 51  1  0
 18 52  1  0
 20 53  1  0
 21 54  1  0
 23 55  1  0
 26 56  1  0
 27 57  1  0
M  END
>  <smiles>  (11) 
O=C(NCC(=O)N1CCCCC1C1CCCCC1)c1ccc2cc(F)ccc2n1

>  <score_type>  (11) 
oracle

>  <origin>  (11) 
autodockgpu

>  <m_score__min__energy>  (11) 
-8.8000000000000007

>  <m_primary>  (11) 
energy

>  <rmsd>  (11) 
1.9824438556803081

>  <m_score__min__rmsd>  (11) 
1.9824438556803081

>  <meeko>  (11) 
{"free_energy": -8.46, "intermolecular_energy": -9.96, "internal_energy": -1.81, "cluster_size": 45, "cluster_id": 1, "rank_in_cluster": 16}

>  <energy>  (11) 
-8.53

>  <cluster_rmsd>  (11) 
0.75

>  <cluster>  (11) 
1

$$$$

     RDKit          3D

 57 60  0  0  0  0  0  0  0  0999 V2000
  139.7230   71.4170  220.9860 O   0  0  0  0  0  0  0  0  0  0  0  0
  140.1400   71.9090  222.0750 C   0  0  0  0  0  0  0  0  0  0  0  0
  140.7400   73.2010  222.1200 N   0  0  0  0  0  0  0  0  0  0  0  0
  140.8770   73.9690  220.8830 C   0  0  0  0  0  0  0  0  0  0  0  0
  141.0440   75.4230  221.1970 C   0  0  0  0  0  0  0  0  0  0  0  0
  140.7630   75.7610  222.3730 O   0  0  0  0  0  0  0  0  0  0  0  0
  141.4940   76.3150  220.1890 N   0  0  0  0  0  0  0  0  0  0  0  0
  142.3030   75.7730  219.0920 C   0  0  0  0  0  0  0  0  0  0  0  0
  141.9380   76.3780  217.7590 C   0  0  0  0  0  0  0  0  0  0  0  0
  141.7750   77.8760  217.8360 C   0  0  0  0  0  0  0  0  0  0  0  0
  142.1500   78.3880  219.2360 C   0  0  0  0  0  0  0  0  0  0  0  0
  141.1970   77.7390  220.1820 C   0  0  2  0  0  0  0  0  0  0  0  0
  141.0150   78.3700  221.5000 C   0  0  0  0  0  0  0  0  0  0  0  0
  139.9490   79.4740  221.3660 C   0  0  0  0  0  0  0  0  0  0  0  0
  139.5620   80.0250  222.6940 C   0  0  0  0  0  0  0  0  0  0  0  0
  140.3520   79.3910  223.7930 C   0  0  0  0  0  0  0  0  0  0  0  0
  141.8260   79.4530  223.5190 C   0  0  0  0  0  0  0  0  0  0  0  0
  142.1970   79.0250  222.1200 C   0  0  0  0  0  0  0  0  0  0  0  0
  140.0030   71.1330  223.3060 C   0  0  0  0  0  0  0  0  0  0  0  0
  139.3760   69.9050  223.2820 C   0  0  0  0  0  0  0  0  0  0  0  0
  139.2280   69.1480  224.4220 C   0  0  0  0  0  0  0  0  0  0  0  0
  139.7370   69.6660  225.6080 C   0  0  0  0  0  0  0  0  0  0  0  0
  139.5890   68.9070  226.7510 C   0  0  0  0  0  0  0  0  0  0  0  0
  140.0940   69.4190  227.9320 C   0  0  0  0  0  0  0  0  0  0  0  0
  139.9900   68.7350  229.1020 F   0  0  0  0  0  0  0  0  0  0  0  0
  140.7140   70.6490  227.9240 C   0  0  0  0  0  0  0  0  0  0  0  0
  140.8610   71.4080  226.7800 C   0  0  0  0  0  0  0  0  0  0  0  0
  140.3600   70.8950  225.6150 C   0  0  0  0  0  0  0  0  0  0  0  0
  140.4960   71.6310  224.4750 N   0  0  0  0  0  0  0  0  0  0  0  0
  141.0600   73.5500  223.0480 H   0  0  0  0  0  0  0  0  0  0  0  0
  141.7580   73.6127  220.3291 H   0  0  0  0  0  0  0  0  0  0  0  0
  139.9718   73.8338  220.2728 H   0  0  0  0  0  0  0  0  0  0  0  0
  143.3632   75.9824  219.2972 H   0  0  0  0  0  0  0  0  0  0  0  0
  142.1112   74.6914  219.0347 H   0  0  0  0  0  0  0  0  0  0  0  0
  142.7330   76.1453  217.0352 H   0  0  0  0  0  0  0  0  0  0  0  0
  140.9737   75.9499  217.4476 H   0  0  0  0  0  0  0  0  0  0  0  0
  142.4298   78.3500  217.0900 H   0  0  0  0  0  0  0  0  0  0  0  0
  140.7238   78.1299  217.6345 H   0  0  0  0  0  0  0  0  0  0  0  0
  143.1842   78.1051  219.4817 H   0  0  0  0  0  0  0  0  0  0  0  0
  142.0888   79.4848  219.2928 H   0  0  0  0  0  0  0  0  0  0  0  0
  140.1765   77.9025  219.8054 H   0  0  0  0  0  0  0  0  0  0  0  0
  140.7525   77.5258  222.1546 H   0  0  0  0  0  0  0  0  0  0  0  0
  140.3534   80.2876  220.7459 H   0  0  0  0  0  0  0  0  0  0  0  0
  139.0541   79.0342  220.9015 H   0  0  0  0  0  0  0  0  0  0  0  0
  139.7454   81.1096  222.6998 H   0  0  0  0  0  0  0  0  0  0  0  0
  138.4963   79.8111  222.8628 H   0  0  0  0  0  0  0  0  0  0  0  0
  140.1413   79.9189  224.7348 H   0  0  0  0  0  0  0  0  0  0  0  0
  140.0586   78.3331  223.8621 H   0  0  0  0  0  0  0  0  0  0  0  0
  142.1644   80.4891  223.6674 H   0  0  0  0  0  0  0  0  0  0  0  0
  142.3136   78.7515  224.2119 H   0  0  0  0  0  0  0  0  0  0  0  0
  142.4875   79.9049  221.5272 H   0  0  0  0  0  0  0  0  0  0  0  0
  143.0440   78.3239  222.1516 H   0  0  0  0  0  0  0  0  0  0  0  0
  138.9846   69.5210  222.3284 H   0  0  0  0  0  0  0  0  0  0  0  0
  138.7258   68.1697  224.3959 H   0  0  0  0  0  0  0  0  0  0  0  0
  139.0868   67.9287  226.7235 H   0  0  0  0  0  0  0  0  0  0  0  0
  141.1097   71.0442  228.8712 H   0  0  0  0  0  0  0  0  0  0  0  0
  141.3615   72.3872  226.8044 H   0  0  0  0  0  0  0  0  0  0  0  0
  1  2  2  0
  2  3  1  0
  3  4  1  0
  4  5  1  0
  5  6  2  0
  5  7  1  0
  7  8  1  0
  8  9  1  0
  9 10  1  0
 10 11  1  0
 11 12  1  0
 12 13  1  0
 13 14  1  0
 14 15  1  0
 15 16  1  0
 16 17  1  0
 17 18  1  0
  2 19  1  0
 19 20  2  0
 20 21  1  0
 21 22  2  0
 22 23  1  0
 23 24  2  0
 24 25  1  0
 24 26  1  0
 26 27  2  0
 27 28  1  0
 28 29  2  0
 12  7  1  0
 18 13  1  0
 29 19  1  0
 28 22  1  0
  3 30  1  0
  4 31  1  0
  4 32  1  0
  8 33  1  0
  8 34  1  0
  9 35  1  0
  9 36  1  0
 10 37  1  0
 10 38  1  0
 11 39  1  0
 11 40  1  0
 12 41  1  6
 13 42  1  0
 14 43  1  0
 14 44  1  0
 15 45  1  0
 15 46  1  0
 16 47  1  0
 16 48  1  0
 17 49  1  0
 17 50  1  0
 18 51  1  0
 18 52  1  0
 20 53  1  0
 21 54  1  0
 23 55  1  0
 26 56  1  0
 27 57  1  0
M  END
>  <smiles>  (12) 
O=C(NCC(=O)N1CCCCC1C1CCCCC1)c1ccc2cc(F)ccc2n1

>  <score_type>  (12) 
oracle

>  <origin>  (12) 
autodockgpu

>  <m_score__min__energy>  (12) 
-8.8000000000000007

>  <m_primary>  (12) 
energy

>  <rmsd>  (12) 
1.9748594492693128

>  <m_score__min__rmsd>  (12) 
1.9748594492693128

>  <meeko>  (12) 
{"free_energy": -7.78, "intermolecular_energy": -9.27, "internal_energy": -2.02, "cluster_size": 45, "cluster_id": 1, "rank_in_cluster": 43}

>  <energy>  (12) 
-8.49

>  <cluster_rmsd>  (12) 
0.62

>  <cluster>  (12) 
1

$$$$

     RDKit          3D

 57 60  0  0  0  0  0  0  0  0999 V2000
  141.2230   72.0840  221.8110 O   0  0  0  0  0  0  0  0  0  0  0  0
  140.2280   72.1670  222.5880 C   0  0  0  0  0  0  0  0  0  0  0  0
  139.1960   73.1250  222.3680 N   0  0  0  0  0  0  0  0  0  0  0  0
  139.2920   74.0300  221.2240 C   0  0  0  0  0  0  0  0  0  0  0  0
  140.0030   75.2860  221.6190 C   0  0  0  0  0  0  0  0  0  0  0  0
  139.6530   75.7840  222.7180 O   0  0  0  0  0  0  0  0  0  0  0  0
  140.9970   75.8320  220.7670 N   0  0  0  0  0  0  0  0  0  0  0  0
  141.8390   74.9080  220.0000 C   0  0  0  0  0  0  0  0  0  0  0  0
  142.0950   75.3990  218.5970 C   0  0  0  0  0  0  0  0  0  0  0  0
  142.4490   76.8650  218.5590 C   0  0  0  0  0  0  0  0  0  0  0  0
  142.5700   77.4280  219.9840 C   0  0  0  0  0  0  0  0  0  0  0  0
  141.2270   77.2600  220.6100 C   0  0  2  0  0  0  0  0  0  0  0  0
  140.9160   78.1000  221.7790 C   0  0  0  0  0  0  0  0  0  0  0  0
  139.7160   78.9990  221.4250 C   0  0  0  0  0  0  0  0  0  0  0  0
  139.2110   79.7340  222.6170 C   0  0  0  0  0  0  0  0  0  0  0  0
  140.0400   79.4370  223.8250 C   0  0  0  0  0  0  0  0  0  0  0  0
  141.5000   79.6500  223.5580 C   0  0  0  0  0  0  0  0  0  0  0  0
  141.9760   79.0190  222.2710 C   0  0  0  0  0  0  0  0  0  0  0  0
  140.1410   71.2610  223.7320 C   0  0  0  0  0  0  0  0  0  0  0  0
  139.5580   70.0200  223.5890 C   0  0  0  0  0  0  0  0  0  0  0  0
  139.4590   69.1420  224.6450 C   0  0  0  0  0  0  0  0  0  0  0  0
  139.9710   69.5520  225.8710 C   0  0  0  0  0  0  0  0  0  0  0  0
  139.8720   68.6720  226.9290 C   0  0  0  0  0  0  0  0  0  0  0  0
  140.3810   69.0760  228.1500 C   0  0  0  0  0  0  0  0  0  0  0  0
  140.3240   68.2690  229.2430 F   0  0  0  0  0  0  0  0  0  0  0  0
  140.9570   70.3220  228.2630 C   0  0  0  0  0  0  0  0  0  0  0  0
  141.0560   71.2010  227.2030 C   0  0  0  0  0  0  0  0  0  0  0  0
  140.5500   70.7950  225.9980 C   0  0  0  0  0  0  0  0  0  0  0  0
  140.6390   71.6510  224.9400 N   0  0  0  0  0  0  0  0  0  0  0  0
  138.4020   73.1400  223.0440 H   0  0  0  0  0  0  0  0  0  0  0  0
  139.8496   73.5355  220.4150 H   0  0  0  0  0  0  0  0  0  0  0  0
  138.2784   74.2835  220.8800 H   0  0  0  0  0  0  0  0  0  0  0  0
  142.8033   74.7957  220.5172 H   0  0  0  0  0  0  0  0  0  0  0  0
  141.3075   73.9475  219.9292 H   0  0  0  0  0  0  0  0  0  0  0  0
  142.9275   74.8228  218.1670 H   0  0  0  0  0  0  0  0  0  0  0  0
  141.1698   75.2612  218.0182 H   0  0  0  0  0  0  0  0  0  0  0  0
  143.4090   76.9919  218.0372 H   0  0  0  0  0  0  0  0  0  0  0  0
  141.6535   77.4089  218.0286 H   0  0  0  0  0  0  0  0  0  0  0  0
  143.3286   76.8696  220.5520 H   0  0  0  0  0  0  0  0  0  0  0  0
  142.8799   78.4834  219.9743 H   0  0  0  0  0  0  0  0  0  0  0  0
  140.4747   77.6826  219.9277 H   0  0  0  0  0  0  0  0  0  0  0  0
  140.7475   77.3677  222.5824 H   0  0  0  0  0  0  0  0  0  0  0  0
  140.0286   79.7276  220.6624 H   0  0  0  0  0  0  0  0  0  0  0  0
  138.9057   78.3580  221.0474 H   0  0  0  0  0  0  0  0  0  0  0  0
  139.2464   80.8145  222.4141 H   0  0  0  0  0  0  0  0  0  0  0  0
  138.1783   79.4107  222.8145 H   0  0  0  0  0  0  0  0  0  0  0  0
  139.7265   80.0999  224.6449 H   0  0  0  0  0  0  0  0  0  0  0  0
  139.8898   78.3811  224.0944 H   0  0  0  0  0  0  0  0  0  0  0  0
  141.6901   80.7322  223.5062 H   0  0  0  0  0  0  0  0  0  0  0  0
  142.0523   79.1679  224.3781 H   0  0  0  0  0  0  0  0  0  0  0  0
  142.1664   79.8015  221.5217 H   0  0  0  0  0  0  0  0  0  0  0  0
  142.9083   78.4618  222.4454 H   0  0  0  0  0  0  0  0  0  0  0  0
  139.1619   69.7237  222.6065 H   0  0  0  0  0  0  0  0  0  0  0  0
  138.9924   68.1533  224.5233 H   0  0  0  0  0  0  0  0  0  0  0  0
  139.4047   67.6838  226.8058 H   0  0  0  0  0  0  0  0  0  0  0  0
  141.3557   70.6303  229.2408 H   0  0  0  0  0  0  0  0  0  0  0  0
  141.5235   72.1895  227.3224 H   0  0  0  0  0  0  0  0  0  0  0  0
  1  2  2  0
  2  3  1  0
  3  4  1  0
  4  5  1  0
  5  6  2  0
  5  7  1  0
  7  8  1  0
  8  9  1  0
  9 10  1  0
 10 11  1  0
 11 12  1  0
 12 13  1  0
 13 14  1  0
 14 15  1  0
 15 16  1  0
 16 17  1  0
 17 18  1  0
  2 19  1  0
 19 20  2  0
 20 21  1  0
 21 22  2  0
 22 23  1  0
 23 24  2  0
 24 25  1  0
 24 26  1  0
 26 27  2  0
 27 28  1  0
 28 29  2  0
 12  7  1  0
 18 13  1  0
 29 19  1  0
 28 22  1  0
  3 30  1  0
  4 31  1  0
  4 32  1  0
  8 33  1  0
  8 34  1  0
  9 35  1  0
  9 36  1  0
 10 37  1  0
 10 38  1  0
 11 39  1  0
 11 40  1  0
 12 41  1  6
 13 42  1  0
 14 43  1  0
 14 44  1  0
 15 45  1  0
 15 46  1  0
 16 47  1  0
 16 48  1  0
 17 49  1  0
 17 50  1  0
 18 51  1  0
 18 52  1  0
 20 53  1  0
 21 54  1  0
 23 55  1  0
 26 56  1  0
 27 57  1  0
M  END
>  <smiles>  (13) 
O=C(NCC(=O)N1CCCCC1C1CCCCC1)c1ccc2cc(F)ccc2n1

>  <score_type>  (13) 
oracle

>  <origin>  (13) 
autodockgpu

>  <m_score__min__energy>  (13) 
-8.8000000000000007

>  <m_primary>  (13) 
energy

>  <rmsd>  (13) 
1.8235641842070325

>  <m_score__min__rmsd>  (13) 
1.8235641842070325

>  <meeko>  (13) 
{"free_energy": -8.72, "intermolecular_energy": -10.22, "internal_energy": -1.49, "cluster_size": 45, "cluster_id": 1, "rank_in_cluster": 3}

>  <energy>  (13) 
-8.49

>  <cluster_rmsd>  (13) 
1.6

>  <cluster>  (13) 
1

$$$$

     RDKit          3D

 57 60  0  0  0  0  0  0  0  0999 V2000
  137.1440   75.1120  221.6700 O   0  0  0  0  0  0  0  0  0  0  0  0
  138.3240   75.2930  222.0890 C   0  0  0  0  0  0  0  0  0  0  0  0
  139.1930   74.1930  222.3460 N   0  0  0  0  0  0  0  0  0  0  0  0
  138.7100   72.8320  222.1230 C   0  0  0  0  0  0  0  0  0  0  0  0
  139.5920   71.8510  222.8290 C   0  0  0  0  0  0  0  0  0  0  0  0
  140.7070   72.2930  223.2010 O   0  0  0  0  0  0  0  0  0  0  0  0
  139.1440   70.5200  223.0340 N   0  0  0  0  0  0  0  0  0  0  0  0
  138.2020   69.9470  222.0680 C   0  0  0  0  0  0  0  0  0  0  0  0
  138.5100   68.5030  221.7560 C   0  0  0  0  0  0  0  0  0  0  0  0
  138.8140   67.7020  222.9970 C   0  0  0  0  0  0  0  0  0  0  0  0
  138.6040   68.5580  224.2560 C   0  0  0  0  0  0  0  0  0  0  0  0
  139.5690   69.6910  224.1510 C   0  0  2  0  0  0  0  0  0  0  0  0
  139.9150   70.4020  225.3930 C   0  0  0  0  0  0  0  0  0  0  0  0
  141.4100   70.7710  225.3410 C   0  0  0  0  0  0  0  0  0  0  0  0
  141.7940   71.6670  226.4660 C   0  0  0  0  0  0  0  0  0  0  0  0
  140.6310   71.9240  227.3710 C   0  0  0  0  0  0  0  0  0  0  0  0
  139.9820   70.6460  227.8110 C   0  0  0  0  0  0  0  0  0  0  0  0
  139.7240   69.6810  226.6780 C   0  0  0  0  0  0  0  0  0  0  0  0
  138.7990   76.6570  222.3130 C   0  0  0  0  0  0  0  0  0  0  0  0
  137.9470   77.7250  222.1210 C   0  0  0  0  0  0  0  0  0  0  0  0
  138.3610   79.0230  222.3220 C   0  0  0  0  0  0  0  0  0  0  0  0
  139.6760   79.2230  222.7290 C   0  0  0  0  0  0  0  0  0  0  0  0
  140.0900   80.5230  222.9300 C   0  0  0  0  0  0  0  0  0  0  0  0
  141.3970   80.7260  223.3350 C   0  0  0  0  0  0  0  0  0  0  0  0
  141.8840   81.9760  223.5560 F   0  0  0  0  0  0  0  0  0  0  0  0
  142.2230   79.6390  223.5170 C   0  0  0  0  0  0  0  0  0  0  0  0
  141.8080   78.3390  223.3150 C   0  0  0  0  0  0  0  0  0  0  0  0
  140.5140   78.1450  222.9150 C   0  0  0  0  0  0  0  0  0  0  0  0
  140.0860   76.8670  222.7100 N   0  0  0  0  0  0  0  0  0  0  0  0
  140.1540   74.4100  222.6870 H   0  0  0  0  0  0  0  0  0  0  0  0
  137.6839   72.7423  222.5092 H   0  0  0  0  0  0  0  0  0  0  0  0
  138.7241   72.6173  221.0442 H   0  0  0  0  0  0  0  0  0  0  0  0
  137.1859   70.0101  222.4845 H   0  0  0  0  0  0  0  0  0  0  0  0
  138.2887   70.5195  221.1327 H   0  0  0  0  0  0  0  0  0  0  0  0
  137.6405   68.0569  221.2511 H   0  0  0  0  0  0  0  0  0  0  0  0
  139.4026   68.4803  221.1136 H   0  0  0  0  0  0  0  0  0  0  0  0
  138.1456   66.8293  223.0372 H   0  0  0  0  0  0  0  0  0  0  0  0
  139.8636   67.3749  222.9606 H   0  0  0  0  0  0  0  0  0  0  0  0
  137.5721   68.9374  224.2921 H   0  0  0  0  0  0  0  0  0  0  0  0
  138.7694   67.9726  225.1725 H   0  0  0  0  0  0  0  0  0  0  0  0
  140.5662   69.2753  223.9442 H   0  0  0  0  0  0  0  0  0  0  0  0
  139.2112   71.2472  225.4074 H   0  0  0  0  0  0  0  0  0  0  0  0
  142.0072   69.8491  225.3994 H   0  0  0  0  0  0  0  0  0  0  0  0
  141.5997   71.3037  224.3975 H   0  0  0  0  0  0  0  0  0  0  0  0
  142.6009   71.1925  227.0438 H   0  0  0  0  0  0  0  0  0  0  0  0
  142.1306   72.6274  226.0484 H   0  0  0  0  0  0  0  0  0  0  0  0
  140.9831   72.4698  228.2588 H   0  0  0  0  0  0  0  0  0  0  0  0
  139.8871   72.5149  226.8165 H   0  0  0  0  0  0  0  0  0  0  0  0
  140.6399   70.1554  228.5434 H   0  0  0  0  0  0  0  0  0  0  0  0
  139.0043   70.9103  228.2403 H   0  0  0  0  0  0  0  0  0  0  0  0
  140.4292   68.8391  226.7396 H   0  0  0  0  0  0  0  0  0  0  0  0
  138.6980   69.2896  226.7421 H   0  0  0  0  0  0  0  0  0  0  0  0
  136.9122   77.5352  221.7997 H   0  0  0  0  0  0  0  0  0  0  0  0
  137.6770   79.8703  222.1664 H   0  0  0  0  0  0  0  0  0  0  0  0
  139.4047   81.3691  222.7737 H   0  0  0  0  0  0  0  0  0  0  0  0
  143.2603   79.8154  223.8378 H   0  0  0  0  0  0  0  0  0  0  0  0
  142.4912   77.4909  223.4696 H   0  0  0  0  0  0  0  0  0  0  0  0
  1  2  2  0
  2  3  1  0
  3  4  1  0
  4  5  1  0
  5  6  2  0
  5  7  1  0
  7  8  1  0
  8  9  1  0
  9 10  1  0
 10 11  1  0
 11 12  1  0
 12 13  1  0
 13 14  1  0
 14 15  1  0
 15 16  1  0
 16 17  1  0
 17 18  1  0
  2 19  1  0
 19 20  2  0
 20 21  1  0
 21 22  2  0
 22 23  1  0
 23 24  2  0
 24 25  1  0
 24 26  1  0
 26 27  2  0
 27 28  1  0
 28 29  2  0
 12  7  1  0
 18 13  1  0
 29 19  1  0
 28 22  1  0
  3 30  1  0
  4 31  1  0
  4 32  1  0
  8 33  1  0
  8 34  1  0
  9 35  1  0
  9 36  1  0
 10 37  1  0
 10 38  1  0
 11 39  1  0
 11 40  1  0
 12 41  1  6
 13 42  1  0
 14 43  1  0
 14 44  1  0
 15 45  1  0
 15 46  1  0
 16 47  1  0
 16 48  1  0
 17 49  1  0
 17 50  1  0
 18 51  1  0
 18 52  1  0
 20 53  1  0
 21 54  1  0
 23 55  1  0
 26 56  1  0
 27 57  1  0
M  END
>  <smiles>  (14) 
O=C(NCC(=O)N1CCCCC1C1CCCCC1)c1ccc2cc(F)ccc2n1

>  <score_type>  (14) 
oracle

>  <origin>  (14) 
autodockgpu

>  <m_score__min__energy>  (14) 
-8.8000000000000007

>  <m_primary>  (14) 
energy

>  <rmsd>  (14) 
8.551765330792346

>  <m_score__min__rmsd>  (14) 
8.551765330792346

>  <meeko>  (14) 
{"free_energy": -7.74, "intermolecular_energy": -9.23, "internal_energy": -2.08, "cluster_size": 2, "cluster_id": 3, "rank_in_cluster": 1}

>  <energy>  (14) 
-8.48

>  <cluster_rmsd>  (14) 
0.71

>  <cluster>  (14) 
1

$$$$

     RDKit          3D

 57 60  0  0  0  0  0  0  0  0999 V2000
  140.9530   72.5500  221.1080 O   0  0  0  0  0  0  0  0  0  0  0  0
  140.2540   72.8490  222.1200 C   0  0  0  0  0  0  0  0  0  0  0  0
  139.5830   74.1030  222.2100 N   0  0  0  0  0  0  0  0  0  0  0  0
  139.7090   75.0620  221.1140 C   0  0  0  0  0  0  0  0  0  0  0  0
  140.8700   75.9740  221.3580 C   0  0  0  0  0  0  0  0  0  0  0  0
  141.3110   75.9880  222.5340 O   0  0  0  0  0  0  0  0  0  0  0  0
  141.3950   76.7480  220.2910 N   0  0  0  0  0  0  0  0  0  0  0  0
  142.2030   76.0700  219.2720 C   0  0  0  0  0  0  0  0  0  0  0  0
  141.9080   76.5730  217.8800 C   0  0  0  0  0  0  0  0  0  0  0  0
  141.8260   78.0780  217.8220 C   0  0  0  0  0  0  0  0  0  0  0  0
  142.1900   78.6910  219.1840 C   0  0  0  0  0  0  0  0  0  0  0  0
  141.1770   78.1790  220.1510 C   0  0  2  0  0  0  0  0  0  0  0  0
  140.9950   78.9340  221.4030 C   0  0  0  0  0  0  0  0  0  0  0  0
  140.6760   80.3980  221.0450 C   0  0  0  0  0  0  0  0  0  0  0  0
  140.2800   81.1820  222.2470 C   0  0  0  0  0  0  0  0  0  0  0  0
  140.3490   80.3450  223.4850 C   0  0  0  0  0  0  0  0  0  0  0  0
  141.6800   79.6660  223.6170 C   0  0  0  0  0  0  0  0  0  0  0  0
  142.1410   78.9900  222.3470 C   0  0  0  0  0  0  0  0  0  0  0  0
  140.1370   71.8860  223.2140 C   0  0  0  0  0  0  0  0  0  0  0  0
  139.5110   70.6760  223.0050 C   0  0  0  0  0  0  0  0  0  0  0  0
  139.3820   69.7460  224.0120 C   0  0  0  0  0  0  0  0  0  0  0  0
  139.9100   70.0710  225.2570 C   0  0  0  0  0  0  0  0  0  0  0  0
  139.7820   69.1390  226.2660 C   0  0  0  0  0  0  0  0  0  0  0  0
  140.3050   69.4580  227.5060 C   0  0  0  0  0  0  0  0  0  0  0  0
  140.2220   68.5960  228.5540 F   0  0  0  0  0  0  0  0  0  0  0  0
  140.9250   70.6750  227.6840 C   0  0  0  0  0  0  0  0  0  0  0  0
  141.0530   71.6070  226.6730 C   0  0  0  0  0  0  0  0  0  0  0  0
  140.5320   71.2840  225.4500 C   0  0  0  0  0  0  0  0  0  0  0  0
  140.6490   72.1930  224.4390 N   0  0  0  0  0  0  0  0  0  0  0  0
  139.0220   74.2870  223.0690 H   0  0  0  0  0  0  0  0  0  0  0  0
  139.8660   74.5179  220.1710 H   0  0  0  0  0  0  0  0  0  0  0  0
  138.7883   75.6607  221.0525 H   0  0  0  0  0  0  0  0  0  0  0  0
  143.2670   76.2416  219.4922 H   0  0  0  0  0  0  0  0  0  0  0  0
  141.9544   74.9989  219.3028 H   0  0  0  0  0  0  0  0  0  0  0  0
  142.7082   76.2358  217.2048 H   0  0  0  0  0  0  0  0  0  0  0  0
  140.9306   76.1702  217.5761 H   0  0  0  0  0  0  0  0  0  0  0  0
  142.5263   78.4494  217.0593 H   0  0  0  0  0  0  0  0  0  0  0  0
  140.7964   78.3681  217.5656 H   0  0  0  0  0  0  0  0  0  0  0  0
  143.1998   78.3768  219.4866 H   0  0  0  0  0  0  0  0  0  0  0  0
  142.1880   79.7903  219.1438 H   0  0  0  0  0  0  0  0  0  0  0  0
  140.1773   78.3606  219.7295 H   0  0  0  0  0  0  0  0  0  0  0  0
  140.1970   78.3822  221.9214 H   0  0  0  0  0  0  0  0  0  0  0  0
  141.5686   80.8585  220.5965 H   0  0  0  0  0  0  0  0  0  0  0  0
  139.8337   80.4036  220.3375 H   0  0  0  0  0  0  0  0  0  0  0  0
  140.9595   82.0402  222.3556 H   0  0  0  0  0  0  0  0  0  0  0  0
  139.2427   81.5233  222.1144 H   0  0  0  0  0  0  0  0  0  0  0  0
  140.1883   80.9898  224.3616 H   0  0  0  0  0  0  0  0  0  0  0  0
  139.5713   79.5697  223.4208 H   0  0  0  0  0  0  0  0  0  0  0  0
  142.4287   80.4200  223.9014 H   0  0  0  0  0  0  0  0  0  0  0  0
  141.5680   78.8806  224.3790 H   0  0  0  0  0  0  0  0  0  0  0  0
  142.9644   79.5648  221.8980 H   0  0  0  0  0  0  0  0  0  0  0  0
  142.4985   77.9735  222.5682 H   0  0  0  0  0  0  0  0  0  0  0  0
  139.1043   70.4476  222.0088 H   0  0  0  0  0  0  0  0  0  0  0  0
  138.8804   68.7825  223.8385 H   0  0  0  0  0  0  0  0  0  0  0  0
  139.2813   68.1754  226.0904 H   0  0  0  0  0  0  0  0  0  0  0  0
  141.3365   70.9152  228.6755 H   0  0  0  0  0  0  0  0  0  0  0  0
  141.5541   72.5711  226.8443 H   0  0  0  0  0  0  0  0  0  0  0  0
  1  2  2  0
  2  3  1  0
  3  4  1  0
  4  5  1  0
  5  6  2  0
  5  7  1  0
  7  8  1  0
  8  9  1  0
  9 10  1  0
 10 11  1  0
 11 12  1  0
 12 13  1  0
 13 14  1  0
 14 15  1  0
 15 16  1  0
 16 17  1  0
 17 18  1  0
  2 19  1  0
 19 20  2  0
 20 21  1  0
 21 22  2  0
 22 23  1  0
 23 24  2  0
 24 25  1  0
 24 26  1  0
 26 27  2  0
 27 28  1  0
 28 29  2  0
 12  7  1  0
 18 13  1  0
 29 19  1  0
 28 22  1  0
  3 30  1  0
  4 31  1  0
  4 32  1  0
  8 33  1  0
  8 34  1  0
  9 35  1  0
  9 36  1  0
 10 37  1  0
 10 38  1  0
 11 39  1  0
 11 40  1  0
 12 41  1  6
 13 42  1  0
 14 43  1  0
 14 44  1  0
 15 45  1  0
 15 46  1  0
 16 47  1  0
 16 48  1  0
 17 49  1  0
 17 50  1  0
 18 51  1  0
 18 52  1  0
 20 53  1  0
 21 54  1  0
 23 55  1  0
 26 56  1  0
 27 57  1  0
M  END
>  <smiles>  (15) 
O=C(NCC(=O)N1CCCCC1C1CCCCC1)c1ccc2cc(F)ccc2n1

>  <score_type>  (15) 
oracle

>  <origin>  (15) 
autodockgpu

>  <m_score__min__energy>  (15) 
-8.8000000000000007

>  <m_primary>  (15) 
energy

>  <rmsd>  (15) 
2.0416836300020895

>  <m_score__min__rmsd>  (15) 
2.0416836300020895

>  <meeko>  (15) 
{"free_energy": -8.19, "intermolecular_energy": -9.68, "internal_energy": -1.55, "cluster_size": 45, "cluster_id": 1, "rank_in_cluster": 33}

>  <energy>  (15) 
-8.48

>  <cluster_rmsd>  (15) 
1.64

>  <cluster>  (15) 
1

$$$$

     RDKit          3D

 57 60  0  0  0  0  0  0  0  0999 V2000
  141.0750   71.3680  221.4410 O   0  0  0  0  0  0  0  0  0  0  0  0
  140.4940   71.9560  222.3990 C   0  0  0  0  0  0  0  0  0  0  0  0
  140.1060   73.3240  222.3000 N   0  0  0  0  0  0  0  0  0  0  0  0
  140.3880   74.0600  221.0690 C   0  0  0  0  0  0  0  0  0  0  0  0
  140.5380   75.5190  221.3650 C   0  0  0  0  0  0  0  0  0  0  0  0
  140.0350   75.9080  222.4490 O   0  0  0  0  0  0  0  0  0  0  0  0
  141.2120   76.3600  220.4430 N   0  0  0  0  0  0  0  0  0  0  0  0
  142.1190   75.7400  219.4710 C   0  0  0  0  0  0  0  0  0  0  0  0
  142.0130   76.3710  218.1050 C   0  0  0  0  0  0  0  0  0  0  0  0
  141.9820   77.8780  218.1730 C   0  0  0  0  0  0  0  0  0  0  0  0
  142.1940   78.3580  219.6180 C   0  0  0  0  0  0  0  0  0  0  0  0
  141.0550   77.8060  220.4070 C   0  0  2  0  0  0  0  0  0  0  0  0
  140.7420   78.4570  221.6900 C   0  0  0  0  0  0  0  0  0  0  0  0
  139.8420   79.6750  221.4090 C   0  0  0  0  0  0  0  0  0  0  0  0
  139.3160   80.2700  222.6680 C   0  0  0  0  0  0  0  0  0  0  0  0
  139.8470   79.5520  223.8680 C   0  0  0  0  0  0  0  0  0  0  0  0
  141.3430   79.4450  223.8280 C   0  0  0  0  0  0  0  0  0  0  0  0
  141.8780   78.9740  222.4970 C   0  0  0  0  0  0  0  0  0  0  0  0
  140.2190   71.2140  223.6280 C   0  0  0  0  0  0  0  0  0  0  0  0
  139.5600   70.0040  223.5720 C   0  0  0  0  0  0  0  0  0  0  0  0
  139.2840   69.2790  224.7100 C   0  0  0  0  0  0  0  0  0  0  0  0
  139.6970   69.8110  225.9270 C   0  0  0  0  0  0  0  0  0  0  0  0
  139.4210   69.0840  227.0670 C   0  0  0  0  0  0  0  0  0  0  0  0
  139.8300   69.6100  228.2790 C   0  0  0  0  0  0  0  0  0  0  0  0
  139.5980   68.9570  229.4480 F   0  0  0  0  0  0  0  0  0  0  0  0
  140.4850   70.8210  228.3020 C   0  0  0  0  0  0  0  0  0  0  0  0
  140.7610   71.5470  227.1610 C   0  0  0  0  0  0  0  0  0  0  0  0
  140.3540   71.0210  225.9660 C   0  0  0  0  0  0  0  0  0  0  0  0
  140.6170   71.7250  224.8280 N   0  0  0  0  0  0  0  0  0  0  0  0
  139.6290   73.7480  223.1240 H   0  0  0  0  0  0  0  0  0  0  0  0
  141.3200   73.6813  220.6241 H   0  0  0  0  0  0  0  0  0  0  0  0
  139.5536   73.9192  220.3662 H   0  0  0  0  0  0  0  0  0  0  0  0
  143.1524   75.8493  219.8318 H   0  0  0  0  0  0  0  0  0  0  0  0
  141.8365   74.6812  219.3752 H   0  0  0  0  0  0  0  0  0  0  0  0
  142.8806   76.0615  217.5037 H   0  0  0  0  0  0  0  0  0  0  0  0
  141.0696   76.0345  217.6504 H   0  0  0  0  0  0  0  0  0  0  0  0
  142.7807   78.2853  217.5357 H   0  0  0  0  0  0  0  0  0  0  0  0
  141.0001   78.2290  217.8228 H   0  0  0  0  0  0  0  0  0  0  0  0
  143.1494   77.9792  220.0101 H   0  0  0  0  0  0  0  0  0  0  0  0
  142.2293   79.4559  219.6763 H   0  0  0  0  0  0  0  0  0  0  0  0
  140.1207   78.0635  219.8865 H   0  0  0  0  0  0  0  0  0  0  0  0
  140.2868   77.6495  222.2823 H   0  0  0  0  0  0  0  0  0  0  0  0
  140.4281   80.4356  220.8724 H   0  0  0  0  0  0  0  0  0  0  0  0
  138.9870   79.3387  220.8041 H   0  0  0  0  0  0  0  0  0  0  0  0
  139.6179   81.3265  222.7192 H   0  0  0  0  0  0  0  0  0  0  0  0
  138.2197   80.1799  222.6647 H   0  0  0  0  0  0  0  0  0  0  0  0
  139.5522   80.1028  224.7734 H   0  0  0  0  0  0  0  0  0  0  0  0
  139.4285   78.5347  223.8745 H   0  0  0  0  0  0  0  0  0  0  0  0
  141.7688   80.4361  224.0433 H   0  0  0  0  0  0  0  0  0  0  0  0
  141.6337   78.6941  224.5775 H   0  0  0  0  0  0  0  0  0  0  0  0
  142.3556   79.8136  221.9707 H   0  0  0  0  0  0  0  0  0  0  0  0
  142.6246   78.1807  222.6496 H   0  0  0  0  0  0  0  0  0  0  0  0
  139.2471   69.6082  222.5946 H   0  0  0  0  0  0  0  0  0  0  0  0
  138.7566   68.3151  224.6584 H   0  0  0  0  0  0  0  0  0  0  0  0
  138.8941   68.1199  227.0136 H   0  0  0  0  0  0  0  0  0  0  0  0
  140.8025   71.2281  229.2733 H   0  0  0  0  0  0  0  0  0  0  0  0
  141.2879   72.5113  227.2109 H   0  0  0  0  0  0  0  0  0  0  0  0
  1  2  2  0
  2  3  1  0
  3  4  1  0
  4  5  1  0
  5  6  2  0
  5  7  1  0
  7  8  1  0
  8  9  1  0
  9 10  1  0
 10 11  1  0
 11 12  1  0
 12 13  1  0
 13 14  1  0
 14 15  1  0
 15 16  1  0
 16 17  1  0
 17 18  1  0
  2 19  1  0
 19 20  2  0
 20 21  1  0
 21 22  2  0
 22 23  1  0
 23 24  2  0
 24 25  1  0
 24 26  1  0
 26 27  2  0
 27 28  1  0
 28 29  2  0
 12  7  1  0
 18 13  1  0
 29 19  1  0
 28 22  1  0
  3 30  1  0
  4 31  1  0
  4 32  1  0
  8 33  1  0
  8 34  1  0
  9 35  1  0
  9 36  1  0
 10 37  1  0
 10 38  1  0
 11 39  1  0
 11 40  1  0
 12 41  1  6
 13 42  1  0
 14 43  1  0
 14 44  1  0
 15 45  1  0
 15 46  1  0
 16 47  1  0
 16 48  1  0
 17 49  1  0
 17 50  1  0
 18 51  1  0
 18 52  1  0
 20 53  1  0
 21 54  1  0
 23 55  1  0
 26 56  1  0
 27 57  1  0
M  END
>  <smiles>  (16) 
O=C(NCC(=O)N1CCCCC1C1CCCCC1)c1ccc2cc(F)ccc2n1

>  <score_type>  (16) 
oracle

>  <origin>  (16) 
autodockgpu

>  <m_score__min__energy>  (16) 
-8.8000000000000007

>  <m_primary>  (16) 
energy

>  <rmsd>  (16) 
1.9913419730626554

>  <m_score__min__rmsd>  (16) 
1.9913419730626554

>  <meeko>  (16) 
{"free_energy": -8.44, "intermolecular_energy": -9.93, "internal_energy": -1.83, "cluster_size": 45, "cluster_id": 1, "rank_in_cluster": 18}

>  <energy>  (16) 
-8.46

>  <cluster_rmsd>  (16) 
0.67

>  <cluster>  (16) 
1

$$$$

     RDKit          3D

 57 60  0  0  0  0  0  0  0  0999 V2000
  140.4510   71.5910  221.0350 O   0  0  0  0  0  0  0  0  0  0  0  0
  140.1230   72.1530  222.1200 C   0  0  0  0  0  0  0  0  0  0  0  0
  139.8450   73.5490  222.1750 N   0  0  0  0  0  0  0  0  0  0  0  0
  139.9430   74.3460  220.9530 C   0  0  0  0  0  0  0  0  0  0  0  0
  140.8000   75.5500  221.1920 C   0  0  0  0  0  0  0  0  0  0  0  0
  140.8750   75.9350  222.3850 O   0  0  0  0  0  0  0  0  0  0  0  0
  141.4590   76.1740  220.1010 N   0  0  0  0  0  0  0  0  0  0  0  0
  140.7220   77.1740  219.3230 C   0  0  0  0  0  0  0  0  0  0  0  0
  141.5840   78.3520  218.9420 C   0  0  0  0  0  0  0  0  0  0  0  0
  142.9390   77.9270  218.4330 C   0  0  0  0  0  0  0  0  0  0  0  0
  143.0200   76.3960  218.3270 C   0  0  0  0  0  0  0  0  0  0  0  0
  142.8290   75.8760  219.7110 C   0  0  2  0  0  0  0  0  0  0  0  0
  143.3020   74.5100  219.9920 C   0  0  0  0  0  0  0  0  0  0  0  0
  144.7720   74.5890  220.4430 C   0  0  0  0  0  0  0  0  0  0  0  0
  145.2650   73.2740  220.9390 C   0  0  0  0  0  0  0  0  0  0  0  0
  144.2100   72.2210  220.8150 C   0  0  0  0  0  0  0  0  0  0  0  0
  143.6410   72.1700  219.4280 C   0  0  0  0  0  0  0  0  0  0  0  0
  143.2740   73.5270  218.8770 C   0  0  0  0  0  0  0  0  0  0  0  0
  140.0310   71.3490  223.3380 C   0  0  0  0  0  0  0  0  0  0  0  0
  139.5010   70.0770  223.2880 C   0  0  0  0  0  0  0  0  0  0  0  0
  139.3980   69.2930  224.4150 C   0  0  0  0  0  0  0  0  0  0  0  0
  139.8520   69.8310  225.6150 C   0  0  0  0  0  0  0  0  0  0  0  0
  139.7490   69.0450  226.7440 C   0  0  0  0  0  0  0  0  0  0  0  0
  140.1990   69.5760  227.9400 C   0  0  0  0  0  0  0  0  0  0  0  0
  140.1350   68.8670  229.0980 F   0  0  0  0  0  0  0  0  0  0  0  0
  140.7230   70.8490  227.9580 C   0  0  0  0  0  0  0  0  0  0  0  0
  140.8250   71.6350  226.8270 C   0  0  0  0  0  0  0  0  0  0  0  0
  140.3780   71.1030  225.6480 C   0  0  0  0  0  0  0  0  0  0  0  0
  140.4710   71.8650  224.5210 N   0  0  0  0  0  0  0  0  0  0  0  0
  139.5780   73.9500  223.0990 H   0  0  0  0  0  0  0  0  0  0  0  0
  140.3888   73.7347  220.1546 H   0  0  0  0  0  0  0  0  0  0  0  0
  138.9362   74.6739  220.6551 H   0  0  0  0  0  0  0  0  0  0  0  0
  140.3447   76.7001  218.4048 H   0  0  0  0  0  0  0  0  0  0  0  0
  139.8988   77.5480  219.9495 H   0  0  0  0  0  0  0  0  0  0  0  0
  141.0731   78.9242  218.1536 H   0  0  0  0  0  0  0  0  0  0  0  0
  141.7388   78.9623  219.8440 H   0  0  0  0  0  0  0  0  0  0  0  0
  143.1066   78.3677  217.4392 H   0  0  0  0  0  0  0  0  0  0  0  0
  143.7083   78.2753  219.1378 H   0  0  0  0  0  0  0  0  0  0  0  0
  142.2286   76.0167  217.6639 H   0  0  0  0  0  0  0  0  0  0  0  0
  143.9829   76.0724  217.9050 H   0  0  0  0  0  0  0  0  0  0  0  0
  143.5263   76.4060  220.3765 H   0  0  0  0  0  0  0  0  0  0  0  0
  142.5887   74.1413  220.7438 H   0  0  0  0  0  0  0  0  0  0  0  0
  145.3908   74.9033  219.5896 H   0  0  0  0  0  0  0  0  0  0  0  0
  144.8406   75.3149  221.2666 H   0  0  0  0  0  0  0  0  0  0  0  0
  146.1432   72.9738  220.3485 H   0  0  0  0  0  0  0  0  0  0  0  0
  145.5304   73.3788  222.0013 H   0  0  0  0  0  0  0  0  0  0  0  0
  144.6519   71.2429  221.0557 H   0  0  0  0  0  0  0  0  0  0  0  0
  143.3954   72.4664  221.5123 H   0  0  0  0  0  0  0  0  0  0  0  0
  144.3882   71.7142  218.7617 H   0  0  0  0  0  0  0  0  0  0  0  0
  142.7137   71.5806  219.4803 H   0  0  0  0  0  0  0  0  0  0  0  0
  143.9983   73.8221  218.1035 H   0  0  0  0  0  0  0  0  0  0  0  0
  142.2704   73.4936  218.4280 H   0  0  0  0  0  0  0  0  0  0  0  0
  139.1519   69.6789  222.3238 H   0  0  0  0  0  0  0  0  0  0  0  0
  138.9728   68.2796  224.3684 H   0  0  0  0  0  0  0  0  0  0  0  0
  139.3240   68.0316  226.6952 H   0  0  0  0  0  0  0  0  0  0  0  0
  141.0762   71.2583  228.9160 H   0  0  0  0  0  0  0  0  0  0  0  0
  141.2489   72.6490  226.8721 H   0  0  0  0  0  0  0  0  0  0  0  0
  1  2  2  0
  2  3  1  0
  3  4  1  0
  4  5  1  0
  5  6  2  0
  5  7  1  0
  7  8  1  0
  8  9  1  0
  9 10  1  0
 10 11  1  0
 11 12  1  0
 12 13  1  0
 13 14  1  0
 14 15  1  0
 15 16  1  0
 16 17  1  0
 17 18  1  0
  2 19  1  0
 19 20  2  0
 20 21  1  0
 21 22  2  0
 22 23  1  0
 23 24  2  0
 24 25  1  0
 24 26  1  0
 26 27  2  0
 27 28  1  0
 28 29  2  0
 12  7  1  0
 18 13  1  0
 29 19  1  0
 28 22  1  0
  3 30  1  0
  4 31  1  0
  4 32  1  0
  8 33  1  0
  8 34  1  0
  9 35  1  0
  9 36  1  0
 10 37  1  0
 10 38  1  0
 11 39  1  0
 11 40  1  0
 12 41  1  1
 13 42  1  0
 14 43  1  0
 14 44  1  0
 15 45  1  0
 15 46  1  0
 16 47  1  0
 16 48  1  0
 17 49  1  0
 17 50  1  0
 18 51  1  0
 18 52  1  0
 20 53  1  0
 21 54  1  0
 23 55  1  0
 26 56  1  0
 27 57  1  0
M  END
>  <smiles>  (17) 
O=C(NCC(=O)N1CCCCC1C1CCCCC1)c1ccc2cc(F)ccc2n1

>  <score_type>  (17) 
oracle

>  <origin>  (17) 
autodockgpu

>  <m_score__min__energy>  (17) 
-8.8000000000000007

>  <m_primary>  (17) 
energy

>  <rmsd>  (17) 
1.9289408573582083

>  <m_score__min__rmsd>  (17) 
1.9289408573582083

>  <meeko>  (17) 
{"free_energy": -8.33, "intermolecular_energy": -9.82, "internal_energy": -2.21, "cluster_size": 45, "cluster_id": 1, "rank_in_cluster": 26}

>  <energy>  (17) 
-8.45

>  <cluster_rmsd>  (17) 
1.61

>  <cluster>  (17) 
1

$$$$

     RDKit          3D

 57 60  0  0  0  0  0  0  0  0999 V2000
  134.8600   68.4850  225.2960 O   0  0  0  0  0  0  0  0  0  0  0  0
  135.1730   69.6720  224.9870 C   0  0  0  0  0  0  0  0  0  0  0  0
  136.1970   69.9430  224.0350 N   0  0  0  0  0  0  0  0  0  0  0  0
  136.9020   68.8270  223.4050 C   0  0  0  0  0  0  0  0  0  0  0  0
  138.3510   68.8600  223.7750 C   0  0  0  0  0  0  0  0  0  0  0  0
  138.7870   67.8330  224.3530 O   0  0  0  0  0  0  0  0  0  0  0  0
  139.1320   70.0030  223.4670 N   0  0  0  0  0  0  0  0  0  0  0  0
  139.4780   70.2520  222.0630 C   0  0  0  0  0  0  0  0  0  0  0  0
  139.3940   71.7150  221.7040 C   0  0  0  0  0  0  0  0  0  0  0  0
  140.0310   72.5980  222.7490 C   0  0  0  0  0  0  0  0  0  0  0  0
  140.7010   71.7460  223.8390 C   0  0  0  0  0  0  0  0  0  0  0  0
  139.6100   70.9460  224.4670 C   0  0  2  0  0  0  0  0  0  0  0  0
  139.8620   70.3950  225.8090 C   0  0  0  0  0  0  0  0  0  0  0  0
  140.5290   71.4890  226.6650 C   0  0  0  0  0  0  0  0  0  0  0  0
  140.6330   71.0800  228.0930 C   0  0  0  0  0  0  0  0  0  0  0  0
  140.1070   69.6950  228.2980 C   0  0  0  0  0  0  0  0  0  0  0  0
  140.7320   68.7210  227.3430 C   0  0  0  0  0  0  0  0  0  0  0  0
  140.7490   69.2070  225.9130 C   0  0  0  0  0  0  0  0  0  0  0  0
  134.4660   70.7820  225.6250 C   0  0  0  0  0  0  0  0  0  0  0  0
  133.4880   70.5310  226.5630 C   0  0  0  0  0  0  0  0  0  0  0  0
  132.8020   71.5510  227.1820 C   0  0  0  0  0  0  0  0  0  0  0  0
  133.1320   72.8550  226.8270 C   0  0  0  0  0  0  0  0  0  0  0  0
  132.4460   73.8780  227.4480 C   0  0  0  0  0  0  0  0  0  0  0  0
  132.7710   75.1760  227.0980 C   0  0  0  0  0  0  0  0  0  0  0  0
  132.1430   76.2410  227.6630 F   0  0  0  0  0  0  0  0  0  0  0  0
  133.7530   75.3950  226.1570 C   0  0  0  0  0  0  0  0  0  0  0  0
  134.4400   74.3710  225.5370 C   0  0  0  0  0  0  0  0  0  0  0  0
  134.1120   73.0890  225.8880 C   0  0  0  0  0  0  0  0  0  0  0  0
  134.7800   72.0640  225.2850 N   0  0  0  0  0  0  0  0  0  0  0  0
  136.4050   70.9420  223.8240 H   0  0  0  0  0  0  0  0  0  0  0  0
  136.4608   67.8789  223.7462 H   0  0  0  0  0  0  0  0  0  0  0  0
  136.8073   68.9120  222.3124 H   0  0  0  0  0  0  0  0  0  0  0  0
  140.5055   69.9022  221.8844 H   0  0  0  0  0  0  0  0  0  0  0  0
  138.7547   69.7094  221.4366 H   0  0  0  0  0  0  0  0  0  0  0  0
  139.9085   71.8741  220.7449 H   0  0  0  0  0  0  0  0  0  0  0  0
  138.3297   71.9851  221.6382 H   0  0  0  0  0  0  0  0  0  0  0  0
  140.7893   73.2354  222.2708 H   0  0  0  0  0  0  0  0  0  0  0  0
  139.2508   73.2193  223.2129 H   0  0  0  0  0  0  0  0  0  0  0  0
  141.4549   71.0802  223.3937 H   0  0  0  0  0  0  0  0  0  0  0  0
  141.2166   72.3743  224.5802 H   0  0  0  0  0  0  0  0  0  0  0  0
  138.7976   71.6334  224.7454 H   0  0  0  0  0  0  0  0  0  0  0  0
  138.8665   70.0647  226.1406 H   0  0  0  0  0  0  0  0  0  0  0  0
  141.5391   71.6817  226.2743 H   0  0  0  0  0  0  0  0  0  0  0  0
  139.9075   72.3950  226.6109 H   0  0  0  0  0  0  0  0  0  0  0  0
  141.6889   71.1119  228.3995 H   0  0  0  0  0  0  0  0  0  0  0  0
  140.0324   71.7742  228.6991 H   0  0  0  0  0  0  0  0  0  0  0  0
  140.3283   69.3776  229.3277 H   0  0  0  0  0  0  0  0  0  0  0  0
  139.0222   69.7080  228.1161 H   0  0  0  0  0  0  0  0  0  0  0  0
  141.7690   68.5380  227.6610 H   0  0  0  0  0  0  0  0  0  0  0  0
  140.1211   67.8065  227.3670 H   0  0  0  0  0  0  0  0  0  0  0  0
  141.7746   69.4833  225.6270 H   0  0  0  0  0  0  0  0  0  0  0  0
  140.3952   68.4120  225.2401 H   0  0  0  0  0  0  0  0  0  0  0  0
  133.2497   69.4892  226.8235 H   0  0  0  0  0  0  0  0  0  0  0  0
  132.0221   71.3430  227.9293 H   0  0  0  0  0  0  0  0  0  0  0  0
  131.6671   73.6686  228.1960 H   0  0  0  0  0  0  0  0  0  0  0  0
  134.0007   76.4324  225.8877 H   0  0  0  0  0  0  0  0  0  0  0  0
  135.2207   74.5769  224.7899 H   0  0  0  0  0  0  0  0  0  0  0  0
  1  2  2  0
  2  3  1  0
  3  4  1  0
  4  5  1  0
  5  6  2  0
  5  7  1  0
  7  8  1  0
  8  9  1  0
  9 10  1  0
 10 11  1  0
 11 12  1  0
 12 13  1  0
 13 14  1  0
 14 15  1  0
 15 16  1  0
 16 17  1  0
 17 18  1  0
  2 19  1  0
 19 20  2  0
 20 21  1  0
 21 22  2  0
 22 23  1  0
 23 24  2  0
 24 25  1  0
 24 26  1  0
 26 27  2  0
 27 28  1  0
 28 29  2  0
 12  7  1  0
 18 13  1  0
 29 19  1  0
 28 22  1  0
  3 30  1  0
  4 31  1  0
  4 32  1  0
  8 33  1  0
  8 34  1  0
  9 35  1  0
  9 36  1  0
 10 37  1  0
 10 38  1  0
 11 39  1  0
 11 40  1  0
 12 41  1  1
 13 42  1  0
 14 43  1  0
 14 44  1  0
 15 45  1  0
 15 46  1  0
 16 47  1  0
 16 48  1  0
 17 49  1  0
 17 50  1  0
 18 51  1  0
 18 52  1  0
 20 53  1  0
 21 54  1  0
 23 55  1  0
 26 56  1  0
 27 57  1  0
M  END
>  <smiles>  (18) 
O=C(NCC(=O)N1CCCCC1C1CCCCC1)c1ccc2cc(F)ccc2n1

>  <score_type>  (18) 
oracle

>  <origin>  (18) 
autodockgpu

>  <m_score__min__energy>  (18) 
-8.8000000000000007

>  <m_primary>  (18) 
energy

>  <rmsd>  (18) 
7.252413910335859

>  <m_score__min__rmsd>  (18) 
7.252413910335859

>  <meeko>  (18) 
{"free_energy": -8.4, "intermolecular_energy": -9.89, "internal_energy": -1.95, "cluster_size": 3, "cluster_id": 2, "rank_in_cluster": 1}

>  <energy>  (18) 
-8.44

>  <cluster_rmsd>  (18) 
0.67

>  <cluster>  (18) 
1

$$$$

     RDKit          3D

 57 60  0  0  0  0  0  0  0  0999 V2000
  140.5620   71.4360  221.0780 O   0  0  0  0  0  0  0  0  0  0  0  0
  140.2380   72.0360  222.1440 C   0  0  0  0  0  0  0  0  0  0  0  0
  140.0340   73.4460  222.1650 N   0  0  0  0  0  0  0  0  0  0  0  0
  140.2040   74.2130  220.9320 C   0  0  0  0  0  0  0  0  0  0  0  0
  140.5520   75.6320  221.2530 C   0  0  0  0  0  0  0  0  0  0  0  0
  140.3130   75.9970  222.4310 O   0  0  0  0  0  0  0  0  0  0  0  0
  141.1110   76.4660  220.2500 N   0  0  0  0  0  0  0  0  0  0  0  0
  141.6590   75.8330  219.0460 C   0  0  0  0  0  0  0  0  0  0  0  0
  141.3310   76.6060  217.7930 C   0  0  0  0  0  0  0  0  0  0  0  0
  141.5470   78.0900  217.9640 C   0  0  0  0  0  0  0  0  0  0  0  0
  142.1620   78.3900  219.3400 C   0  0  0  0  0  0  0  0  0  0  0  0
  141.1700   77.9160  220.3480 C   0  0  2  0  0  0  0  0  0  0  0  0
  141.2700   78.4700  221.7090 C   0  0  0  0  0  0  0  0  0  0  0  0
  139.8830   78.9990  222.1200 C   0  0  0  0  0  0  0  0  0  0  0  0
  139.8500   79.3930  223.5550 C   0  0  0  0  0  0  0  0  0  0  0  0
  141.1900   79.2150  224.1950 C   0  0  0  0  0  0  0  0  0  0  0  0
  142.2710   79.8930  223.4070 C   0  0  0  0  0  0  0  0  0  0  0  0
  142.2120   79.5990  221.9260 C   0  0  0  0  0  0  0  0  0  0  0  0
  140.0730   71.2630  223.3730 C   0  0  0  0  0  0  0  0  0  0  0  0
  139.4560   70.0300  223.3370 C   0  0  0  0  0  0  0  0  0  0  0  0
  139.2840   69.2750  224.4750 C   0  0  0  0  0  0  0  0  0  0  0  0
  139.7560   69.8010  225.6730 C   0  0  0  0  0  0  0  0  0  0  0  0
  139.5840   69.0450  226.8130 C   0  0  0  0  0  0  0  0  0  0  0  0
  140.0520   69.5640  228.0060 C   0  0  0  0  0  0  0  0  0  0  0  0
  139.9230   68.8830  229.1760 F   0  0  0  0  0  0  0  0  0  0  0  0
  140.6640   70.7990  228.0110 C   0  0  0  0  0  0  0  0  0  0  0  0
  140.8360   71.5550  226.8690 C   0  0  0  0  0  0  0  0  0  0  0  0
  140.3700   71.0340  225.6920 C   0  0  0  0  0  0  0  0  0  0  0  0
  140.5310   71.7680  224.5540 N   0  0  0  0  0  0  0  0  0  0  0  0
  139.7660   73.8790  223.0750 H   0  0  0  0  0  0  0  0  0  0  0  0
  141.0123   73.7665  220.3343 H   0  0  0  0  0  0  0  0  0  0  0  0
  139.2628   74.1931  220.3630 H   0  0  0  0  0  0  0  0  0  0  0  0
  142.7526   75.7694  219.1463 H   0  0  0  0  0  0  0  0  0  0  0  0
  141.2053   74.8351  218.9543 H   0  0  0  0  0  0  0  0  0  0  0  0
  141.9745   76.2464  216.9766 H   0  0  0  0  0  0  0  0  0  0  0  0
  140.2669   76.4442  217.5659 H   0  0  0  0  0  0  0  0  0  0  0  0
  142.2268   78.4497  217.1776 H   0  0  0  0  0  0  0  0  0  0  0  0
  140.5760   78.6015  217.8895 H   0  0  0  0  0  0  0  0  0  0  0  0
  143.1138   77.8515  219.4585 H   0  0  0  0  0  0  0  0  0  0  0  0
  142.3759   79.4623  219.4597 H   0  0  0  0  0  0  0  0  0  0  0  0
  140.1899   78.3448  220.0920 H   0  0  0  0  0  0  0  0  0  0  0  0
  141.6576   77.6280  222.3012 H   0  0  0  0  0  0  0  0  0  0  0  0
  139.6384   79.8764  221.5032 H   0  0  0  0  0  0  0  0  0  0  0  0
  139.1487   78.1943  221.9672 H   0  0  0  0  0  0  0  0  0  0  0  0
  139.5538   80.4497  223.6304 H   0  0  0  0  0  0  0  0  0  0  0  0
  139.1263   78.7495  224.0766 H   0  0  0  0  0  0  0  0  0  0  0  0
  141.1625   79.6450  225.2071 H   0  0  0  0  0  0  0  0  0  0  0  0
  141.4140   78.1387  224.2322 H   0  0  0  0  0  0  0  0  0  0  0  0
  142.1770   80.9796  223.5503 H   0  0  0  0  0  0  0  0  0  0  0  0
  143.2320   79.5052  223.7758 H   0  0  0  0  0  0  0  0  0  0  0  0
  141.8571   80.4883  221.3846 H   0  0  0  0  0  0  0  0  0  0  0  0
  143.2123   79.3336  221.5532 H   0  0  0  0  0  0  0  0  0  0  0  0
  139.0923   69.6402  222.3748 H   0  0  0  0  0  0  0  0  0  0  0  0
  138.7915   68.2921  224.4384 H   0  0  0  0  0  0  0  0  0  0  0  0
  139.0912   68.0623  226.7747 H   0  0  0  0  0  0  0  0  0  0  0  0
  141.0315   71.1998  228.9672 H   0  0  0  0  0  0  0  0  0  0  0  0
  141.3284   72.5380  226.9034 H   0  0  0  0  0  0  0  0  0  0  0  0
  1  2  2  0
  2  3  1  0
  3  4  1  0
  4  5  1  0
  5  6  2  0
  5  7  1  0
  7  8  1  0
  8  9  1  0
  9 10  1  0
 10 11  1  0
 11 12  1  0
 12 13  1  0
 13 14  1  0
 14 15  1  0
 15 16  1  0
 16 17  1  0
 17 18  1  0
  2 19  1  0
 19 20  2  0
 20 21  1  0
 21 22  2  0
 22 23  1  0
 23 24  2  0
 24 25  1  0
 24 26  1  0
 26 27  2  0
 27 28  1  0
 28 29  2  0
 12  7  1  0
 18 13  1  0
 29 19  1  0
 28 22  1  0
  3 30  1  0
  4 31  1  0
  4 32  1  0
  8 33  1  0
  8 34  1  0
  9 35  1  0
  9 36  1  0
 10 37  1  0
 10 38  1  0
 11 39  1  0
 11 40  1  0
 12 41  1  6
 13 42  1  0
 14 43  1  0
 14 44  1  0
 15 45  1  0
 15 46  1  0
 16 47  1  0
 16 48  1  0
 17 49  1  0
 17 50  1  0
 18 51  1  0
 18 52  1  0
 20 53  1  0
 21 54  1  0
 23 55  1  0
 26 56  1  0
 27 57  1  0
M  END
>  <smiles>  (19) 
O=C(NCC(=O)N1CCCCC1C1CCCCC1)c1ccc2cc(F)ccc2n1

>  <score_type>  (19) 
oracle

>  <origin>  (19) 
autodockgpu

>  <m_score__min__energy>  (19) 
-8.8000000000000007

>  <m_primary>  (19) 
energy

>  <rmsd>  (19) 
1.7764952880500513

>  <m_score__min__rmsd>  (19) 
1.7764952880500513

>  <meeko>  (19) 
{"free_energy": -8.48, "intermolecular_energy": -9.97, "internal_energy": -1.9, "cluster_size": 45, "cluster_id": 1, "rank_in_cluster": 14}

>  <energy>  (19) 
-8.43

>  <cluster_rmsd>  (19) 
1.61

>  <cluster>  (19) 
1

$$$$

     RDKit          3D

 57 60  0  0  0  0  0  0  0  0999 V2000
  140.4070   71.6160  221.0470 O   0  0  0  0  0  0  0  0  0  0  0  0
  140.1050   72.1690  222.1450 C   0  0  0  0  0  0  0  0  0  0  0  0
  139.8160   73.5620  222.2160 N   0  0  0  0  0  0  0  0  0  0  0  0
  139.8730   74.3670  220.9970 C   0  0  0  0  0  0  0  0  0  0  0  0
  140.7220   75.5790  221.2190 C   0  0  0  0  0  0  0  0  0  0  0  0
  140.7790   75.9920  222.4040 O   0  0  0  0  0  0  0  0  0  0  0  0
  141.3960   76.1780  220.1240 N   0  0  0  0  0  0  0  0  0  0  0  0
  140.6820   77.1880  219.3370 C   0  0  0  0  0  0  0  0  0  0  0  0
  141.5710   78.3440  218.9470 C   0  0  0  0  0  0  0  0  0  0  0  0
  142.9160   77.8840  218.4420 C   0  0  0  0  0  0  0  0  0  0  0  0
  142.9630   76.3510  218.3490 C   0  0  0  0  0  0  0  0  0  0  0  0
  142.7590   75.8470  219.7380 C   0  0  2  0  0  0  0  0  0  0  0  0
  143.2010   74.4730  220.0310 C   0  0  0  0  0  0  0  0  0  0  0  0
  144.6930   74.5140  220.4110 C   0  0  0  0  0  0  0  0  0  0  0  0
  145.1670   73.1960  220.9160 C   0  0  0  0  0  0  0  0  0  0  0  0
  144.0750   72.1760  220.8680 C   0  0  0  0  0  0  0  0  0  0  0  0
  143.4410   72.1110  219.5110 C   0  0  0  0  0  0  0  0  0  0  0  0
  143.0910   73.4660  218.9440 C   0  0  0  0  0  0  0  0  0  0  0  0
  140.0550   71.3570  223.3590 C   0  0  0  0  0  0  0  0  0  0  0  0
  139.5440   70.0770  223.3150 C   0  0  0  0  0  0  0  0  0  0  0  0
  139.4810   69.2850  224.4390 C   0  0  0  0  0  0  0  0  0  0  0  0
  139.9540   69.8230  225.6310 C   0  0  0  0  0  0  0  0  0  0  0  0
  139.8910   69.0300  226.7580 C   0  0  0  0  0  0  0  0  0  0  0  0
  140.3610   69.5610  227.9450 C   0  0  0  0  0  0  0  0  0  0  0  0
  140.3360   68.8460  229.1010 F   0  0  0  0  0  0  0  0  0  0  0  0
  140.8650   70.8430  227.9580 C   0  0  0  0  0  0  0  0  0  0  0  0
  140.9280   71.6360  226.8300 C   0  0  0  0  0  0  0  0  0  0  0  0
  140.4610   71.1040  225.6590 C   0  0  0  0  0  0  0  0  0  0  0  0
  140.5150   71.8730  224.5340 N   0  0  0  0  0  0  0  0  0  0  0  0
  139.5720   73.9550  223.1500 H   0  0  0  0  0  0  0  0  0  0  0  0
  140.3042   73.7650  220.1836 H   0  0  0  0  0  0  0  0  0  0  0  0
  138.8549   74.6855  220.7285 H   0  0  0  0  0  0  0  0  0  0  0  0
  140.2949   76.7152  218.4224 H   0  0  0  0  0  0  0  0  0  0  0  0
  139.8669   77.5854  219.9596 H   0  0  0  0  0  0  0  0  0  0  0  0
  141.0735   78.9215  218.1539 H   0  0  0  0  0  0  0  0  0  0  0  0
  141.7393   78.9579  219.8441 H   0  0  0  0  0  0  0  0  0  0  0  0
  143.0935   78.3124  217.4445 H   0  0  0  0  0  0  0  0  0  0  0  0
  143.6928   78.2208  219.1443 H   0  0  0  0  0  0  0  0  0  0  0  0
  142.1639   75.9837  217.6882 H   0  0  0  0  0  0  0  0  0  0  0  0
  143.9188   76.0024  217.9308 H   0  0  0  0  0  0  0  0  0  0  0  0
  143.4673   76.3675  220.3994 H   0  0  0  0  0  0  0  0  0  0  0  0
  142.5118   74.1463  220.8236 H   0  0  0  0  0  0  0  0  0  0  0  0
  145.2803   74.7877  219.5221 H   0  0  0  0  0  0  0  0  0  0  0  0
  144.8234   75.2563  221.2123 H   0  0  0  0  0  0  0  0  0  0  0  0
  146.0062   72.8533  220.2928 H   0  0  0  0  0  0  0  0  0  0  0  0
  145.4858   73.3171  221.9618 H   0  0  0  0  0  0  0  0  0  0  0  0
  144.4964   71.1899  221.1129 H   0  0  0  0  0  0  0  0  0  0  0  0
  143.3022   72.4643  221.5958 H   0  0  0  0  0  0  0  0  0  0  0  0
  144.1418   71.6160  218.8226 H   0  0  0  0  0  0  0  0  0  0  0  0
  142.4993   71.5530  219.6203 H   0  0  0  0  0  0  0  0  0  0  0  0
  143.7874   73.7195  218.1311 H   0  0  0  0  0  0  0  0  0  0  0  0
  142.0670   73.4542  218.5425 H   0  0  0  0  0  0  0  0  0  0  0  0
  139.1774   69.6788  222.3574 H   0  0  0  0  0  0  0  0  0  0  0  0
  139.0719   68.2648  224.3960 H   0  0  0  0  0  0  0  0  0  0  0  0
  139.4810   68.0102  226.7139 H   0  0  0  0  0  0  0  0  0  0  0  0
  141.2337   71.2530  228.9098 H   0  0  0  0  0  0  0  0  0  0  0  0
  141.3377   72.6560  226.8708 H   0  0  0  0  0  0  0  0  0  0  0  0
  1  2  2  0
  2  3  1  0
  3  4  1  0
  4  5  1  0
  5  6  2  0
  5  7  1  0
  7  8  1  0
  8  9  1  0
  9 10  1  0
 10 11  1  0
 11 12  1  0
 12 13  1  0
 13 14  1  0
 14 15  1  0
 15 16  1  0
 16 17  1  0
 17 18  1  0
  2 19  1  0
 19 20  2  0
 20 21  1  0
 21 22  2  0
 22 23  1  0
 23 24  2  0
 24 25  1  0
 24 26  1  0
 26 27  2  0
 27 28  1  0
 28 29  2  0
 12  7  1  0
 18 13  1  0
 29 19  1  0
 28 22  1  0
  3 30  1  0
  4 31  1  0
  4 32  1  0
  8 33  1  0
  8 34  1  0
  9 35  1  0
  9 36  1  0
 10 37  1  0
 10 38  1  0
 11 39  1  0
 11 40  1  0
 12 41  1  1
 13 42  1  0
 14 43  1  0
 14 44  1  0
 15 45  1  0
 15 46  1  0
 16 47  1  0
 16 48  1  0
 17 49  1  0
 17 50  1  0
 18 51  1  0
 18 52  1  0
 20 53  1  0
 21 54  1  0
 23 55  1  0
 26 56  1  0
 27 57  1  0
M  END
>  <smiles>  (20) 
O=C(NCC(=O)N1CCCCC1C1CCCCC1)c1ccc2cc(F)ccc2n1

>  <score_type>  (20) 
oracle

>  <origin>  (20) 
autodockgpu

>  <m_score__min__energy>  (20) 
-8.8000000000000007

>  <m_primary>  (20) 
energy

>  <rmsd>  (20) 
1.9090757406457335

>  <m_score__min__rmsd>  (20) 
1.9090757406457335

>  <meeko>  (20) 
{"free_energy": -8.28, "intermolecular_energy": -9.77, "internal_energy": -2.26, "cluster_size": 45, "cluster_id": 1, "rank_in_cluster": 29}

>  <energy>  (20) 
-8.42

>  <cluster_rmsd>  (20) 
1.6

>  <cluster>  (20) 
1

$$$$

     RDKit          3D

 57 60  0  0  0  0  0  0  0  0999 V2000
  141.2720   72.3630  221.7630 O   0  0  0  0  0  0  0  0  0  0  0  0
  140.2730   72.4430  222.5360 C   0  0  0  0  0  0  0  0  0  0  0  0
  139.2480   73.4090  222.3210 N   0  0  0  0  0  0  0  0  0  0  0  0
  139.3550   74.3250  221.1870 C   0  0  0  0  0  0  0  0  0  0  0  0
  140.3030   75.4360  221.5110 C   0  0  0  0  0  0  0  0  0  0  0  0
  140.3020   75.8190  222.7080 O   0  0  0  0  0  0  0  0  0  0  0  0
  141.1250   75.9830  220.4920 N   0  0  0  0  0  0  0  0  0  0  0  0
  141.7650   75.0620  219.5470 C   0  0  0  0  0  0  0  0  0  0  0  0
  141.7520   75.5920  218.1340 C   0  0  0  0  0  0  0  0  0  0  0  0
  142.1400   77.0480  218.0660 C   0  0  0  0  0  0  0  0  0  0  0  0
  142.5640   77.5590  219.4520 C   0  0  0  0  0  0  0  0  0  0  0  0
  141.3680   77.4080  220.3310 C   0  0  2  0  0  0  0  0  0  0  0  0
  141.3250   78.2170  221.5610 C   0  0  0  0  0  0  0  0  0  0  0  0
  139.8800   78.7070  221.7690 C   0  0  0  0  0  0  0  0  0  0  0  0
  139.7090   79.3630  223.0940 C   0  0  0  0  0  0  0  0  0  0  0  0
  141.0030   79.4120  223.8430 C   0  0  0  0  0  0  0  0  0  0  0  0
  142.0990   80.0080  223.0100 C   0  0  0  0  0  0  0  0  0  0  0  0
  142.1750   79.4350  221.6150 C   0  0  0  0  0  0  0  0  0  0  0  0
  140.1760   71.5250  223.6700 C   0  0  0  0  0  0  0  0  0  0  0  0
  139.5820   70.2910  223.5100 C   0  0  0  0  0  0  0  0  0  0  0  0
  139.4730   69.4020  224.5560 C   0  0  0  0  0  0  0  0  0  0  0  0
  139.9850   69.7940  225.7890 C   0  0  0  0  0  0  0  0  0  0  0  0
  139.8760   68.9030  226.8370 C   0  0  0  0  0  0  0  0  0  0  0  0
  140.3850   69.2890  228.0630 C   0  0  0  0  0  0  0  0  0  0  0  0
  140.3180   68.4710  229.1470 F   0  0  0  0  0  0  0  0  0  0  0  0
  140.9710   70.5280  228.1910 C   0  0  0  0  0  0  0  0  0  0  0  0
  141.0800   71.4190  227.1420 C   0  0  0  0  0  0  0  0  0  0  0  0
  140.5750   71.0310  225.9310 C   0  0  0  0  0  0  0  0  0  0  0  0
  140.6740   71.8970  224.8830 N   0  0  0  0  0  0  0  0  0  0  0  0
  138.4510   73.4200  222.9920 H   0  0  0  0  0  0  0  0  0  0  0  0
  139.7252   73.7753  220.3090 H   0  0  0  0  0  0  0  0  0  0  0  0
  138.3631   74.7493  220.9722 H   0  0  0  0  0  0  0  0  0  0  0  0
  142.8089   74.9059  219.8568 H   0  0  0  0  0  0  0  0  0  0  0  0
  141.1978   74.1196  219.5585 H   0  0  0  0  0  0  0  0  0  0  0  0
  142.4623   75.0079  217.5304 H   0  0  0  0  0  0  0  0  0  0  0  0
  140.7260   75.4984  217.7486 H   0  0  0  0  0  0  0  0  0  0  0  0
  142.9791   77.1663  217.3646 H   0  0  0  0  0  0  0  0  0  0  0  0
  141.2726   77.6309  217.7227 H   0  0  0  0  0  0  0  0  0  0  0  0
  143.4013   76.9604  219.8401 H   0  0  0  0  0  0  0  0  0  0  0  0
  142.9023   78.6048  219.4091 H   0  0  0  0  0  0  0  0  0  0  0  0
  140.5098   77.8747  219.8254 H   0  0  0  0  0  0  0  0  0  0  0  0
  141.7159   77.5349  222.3304 H   0  0  0  0  0  0  0  0  0  0  0  0
  139.6309   79.4298  220.9781 H   0  0  0  0  0  0  0  0  0  0  0  0
  139.2117   77.8342  221.7285 H   0  0  0  0  0  0  0  0  0  0  0  0
  139.3430   80.3891  222.9420 H   0  0  0  0  0  0  0  0  0  0  0  0
  138.9872   78.7776  223.6825 H   0  0  0  0  0  0  0  0  0  0  0  0
  140.8692   80.0232  224.7477 H   0  0  0  0  0  0  0  0  0  0  0  0
  141.2894   78.3826  224.1042 H   0  0  0  0  0  0  0  0  0  0  0  0
  141.9271   81.0917  222.9323 H   0  0  0  0  0  0  0  0  0  0  0  0
  143.0501   79.7710  223.5093 H   0  0  0  0  0  0  0  0  0  0  0  0
  141.8092   80.1757  220.8887 H   0  0  0  0  0  0  0  0  0  0  0  0
  143.2161   79.1805  221.3672 H   0  0  0  0  0  0  0  0  0  0  0  0
  139.1857   70.0099  222.5231 H   0  0  0  0  0  0  0  0  0  0  0  0
  138.9988   68.4186  224.4218 H   0  0  0  0  0  0  0  0  0  0  0  0
  139.4009   67.9202  226.7017 H   0  0  0  0  0  0  0  0  0  0  0  0
  141.3703   70.8213  229.1731 H   0  0  0  0  0  0  0  0  0  0  0  0
  141.5544   72.4025  227.2746 H   0  0  0  0  0  0  0  0  0  0  0  0
  1  2  2  0
  2  3  1  0
  3  4  1  0
  4  5  1  0
  5  6  2  0
  5  7  1  0
  7  8  1  0
  8  9  1  0
  9 10  1  0
 10 11  1  0
 11 12  1  0
 12 13  1  0
 13 14  1  0
 14 15  1  0
 15 16  1  0
 16 17  1  0
 17 18  1  0
  2 19  1  0
 19 20  2  0
 20 21  1  0
 21 22  2  0
 22 23  1  0
 23 24  2  0
 24 25  1  0
 24 26  1  0
 26 27  2  0
 27 28  1  0
 28 29  2  0
 12  7  1  0
 18 13  1  0
 29 19  1  0
 28 22  1  0
  3 30  1  0
  4 31  1  0
  4 32  1  0
  8 33  1  0
  8 34  1  0
  9 35  1  0
  9 36  1  0
 10 37  1  0
 10 38  1  0
 11 39  1  0
 11 40  1  0
 12 41  1  6
 13 42  1  0
 14 43  1  0
 14 44  1  0
 15 45  1  0
 15 46  1  0
 16 47  1  0
 16 48  1  0
 17 49  1  0
 17 50  1  0
 18 51  1  0
 18 52  1  0
 20 53  1  0
 21 54  1  0
 23 55  1  0
 26 56  1  0
 27 57  1  0
M  END
>  <smiles>  (21) 
O=C(NCC(=O)N1CCCCC1C1CCCCC1)c1ccc2cc(F)ccc2n1

>  <score_type>  (21) 
oracle

>  <origin>  (21) 
autodockgpu

>  <m_score__min__energy>  (21) 
-8.8000000000000007

>  <m_primary>  (21) 
energy

>  <rmsd>  (21) 
1.735034651025266

>  <m_score__min__rmsd>  (21) 
1.735034651025266

>  <meeko>  (21) 
{"free_energy": -8.79, "intermolecular_energy": -10.28, "internal_energy": -1.49, "cluster_size": 45, "cluster_id": 1, "rank_in_cluster": 2}

>  <energy>  (21) 
-8.41

>  <cluster_rmsd>  (21) 
1.59

>  <cluster>  (21) 
1

$$$$

     RDKit          3D

 57 60  0  0  0  0  0  0  0  0999 V2000
  140.4350   71.3750  221.0540 O   0  0  0  0  0  0  0  0  0  0  0  0
  140.1130   71.9620  222.1270 C   0  0  0  0  0  0  0  0  0  0  0  0
  139.8660   73.3650  222.1580 N   0  0  0  0  0  0  0  0  0  0  0  0
  139.9910   74.1390  220.9240 C   0  0  0  0  0  0  0  0  0  0  0  0
  140.7090   75.4240  221.1940 C   0  0  0  0  0  0  0  0  0  0  0  0
  140.6500   75.8410  222.3770 O   0  0  0  0  0  0  0  0  0  0  0  0
  141.3940   76.0830  220.1410 N   0  0  0  0  0  0  0  0  0  0  0  0
  140.6680   77.0930  219.3630 C   0  0  0  0  0  0  0  0  0  0  0  0
  141.5260   78.2910  219.0400 C   0  0  0  0  0  0  0  0  0  0  0  0
  142.9020   77.8980  218.5640 C   0  0  0  0  0  0  0  0  0  0  0  0
  143.0080   76.3710  218.4240 C   0  0  0  0  0  0  0  0  0  0  0  0
  142.7800   75.8140  219.7880 C   0  0  2  0  0  0  0  0  0  0  0  0
  143.2630   74.4480  220.0510 C   0  0  0  0  0  0  0  0  0  0  0  0
  144.7610   74.5220  220.4020 C   0  0  0  0  0  0  0  0  0  0  0  0
  145.2780   73.2090  220.8770 C   0  0  0  0  0  0  0  0  0  0  0  0
  144.2110   72.1620  220.8360 C   0  0  0  0  0  0  0  0  0  0  0  0
  143.5510   72.1000  219.4910 C   0  0  0  0  0  0  0  0  0  0  0  0
  143.1550   73.4540  218.9510 C   0  0  0  0  0  0  0  0  0  0  0  0
  139.9950   71.1800  223.3570 C   0  0  0  0  0  0  0  0  0  0  0  0
  139.4130   69.9310  223.3290 C   0  0  0  0  0  0  0  0  0  0  0  0
  139.2840   69.1680  224.4670 C   0  0  0  0  0  0  0  0  0  0  0  0
  139.7660   69.7030  225.6570 C   0  0  0  0  0  0  0  0  0  0  0  0
  139.6370   68.9390  226.7990 C   0  0  0  0  0  0  0  0  0  0  0  0
  140.1150   69.4680  227.9840 C   0  0  0  0  0  0  0  0  0  0  0  0
  140.0280   68.7800  229.1530 F   0  0  0  0  0  0  0  0  0  0  0  0
  140.6910   70.7190  227.9800 C   0  0  0  0  0  0  0  0  0  0  0  0
  140.8190   71.4830  226.8380 C   0  0  0  0  0  0  0  0  0  0  0  0
  140.3440   70.9530  225.6690 C   0  0  0  0  0  0  0  0  0  0  0  0
  140.4620   71.6940  224.5300 N   0  0  0  0  0  0  0  0  0  0  0  0
  139.6030   73.7860  223.0740 H   0  0  0  0  0  0  0  0  0  0  0  0
  140.5569   73.5546  220.1836 H   0  0  0  0  0  0  0  0  0  0  0  0
  138.9864   74.3624  220.5356 H   0  0  0  0  0  0  0  0  0  0  0  0
  140.3276   76.6372  218.4215 H   0  0  0  0  0  0  0  0  0  0  0  0
  139.8192   77.4403  219.9704 H   0  0  0  0  0  0  0  0  0  0  0  0
  141.0326   78.8769  218.2506 H   0  0  0  0  0  0  0  0  0  0  0  0
  141.6441   78.8788  219.9623 H   0  0  0  0  0  0  0  0  0  0  0  0
  143.0941   78.3652  217.5868 H   0  0  0  0  0  0  0  0  0  0  0  0
  143.6441   78.2399  219.3005 H   0  0  0  0  0  0  0  0  0  0  0  0
  142.2438   75.9976  217.7265 H   0  0  0  0  0  0  0  0  0  0  0  0
  143.9887   76.0710  218.0261 H   0  0  0  0  0  0  0  0  0  0  0  0
  143.4482   76.3373  220.4878 H   0  0  0  0  0  0  0  0  0  0  0  0
  142.5993   74.0917  220.8526 H   0  0  0  0  0  0  0  0  0  0  0  0
  145.3231   74.8240  219.5060 H   0  0  0  0  0  0  0  0  0  0  0  0
  144.8889   75.2555  221.2117 H   0  0  0  0  0  0  0  0  0  0  0  0
  146.1122   72.8969  220.2315 H   0  0  0  0  0  0  0  0  0  0  0  0
  145.6152   73.3228  221.9178 H   0  0  0  0  0  0  0  0  0  0  0  0
  144.6620   71.1836  221.0579 H   0  0  0  0  0  0  0  0  0  0  0  0
  143.4462   72.4202  221.5833 H   0  0  0  0  0  0  0  0  0  0  0  0
  144.2499   71.6330  218.7814 H   0  0  0  0  0  0  0  0  0  0  0  0
  142.6263   71.5165  219.6110 H   0  0  0  0  0  0  0  0  0  0  0  0
  143.8274   73.7367  218.1276 H   0  0  0  0  0  0  0  0  0  0  0  0
  142.1234   73.4221  218.5705 H   0  0  0  0  0  0  0  0  0  0  0  0
  139.0421   69.5339  222.3726 H   0  0  0  0  0  0  0  0  0  0  0  0
  138.8172   68.1724  224.4367 H   0  0  0  0  0  0  0  0  0  0  0  0
  139.1700   67.9435  226.7678 H   0  0  0  0  0  0  0  0  0  0  0  0
  141.0659   71.1276  228.9300 H   0  0  0  0  0  0  0  0  0  0  0  0
  141.2847   72.4792  226.8661 H   0  0  0  0  0  0  0  0  0  0  0  0
  1  2  2  0
  2  3  1  0
  3  4  1  0
  4  5  1  0
  5  6  2  0
  5  7  1  0
  7  8  1  0
  8  9  1  0
  9 10  1  0
 10 11  1  0
 11 12  1  0
 12 13  1  0
 13 14  1  0
 14 15  1  0
 15 16  1  0
 16 17  1  0
 17 18  1  0
  2 19  1  0
 19 20  2  0
 20 21  1  0
 21 22  2  0
 22 23  1  0
 23 24  2  0
 24 25  1  0
 24 26  1  0
 26 27  2  0
 27 28  1  0
 28 29  2  0
 12  7  1  0
 18 13  1  0
 29 19  1  0
 28 22  1  0
  3 30  1  0
  4 31  1  0
  4 32  1  0
  8 33  1  0
  8 34  1  0
  9 35  1  0
  9 36  1  0
 10 37  1  0
 10 38  1  0
 11 39  1  0
 11 40  1  0
 12 41  1  1
 13 42  1  0
 14 43  1  0
 14 44  1  0
 15 45  1  0
 15 46  1  0
 16 47  1  0
 16 48  1  0
 17 49  1  0
 17 50  1  0
 18 51  1  0
 18 52  1  0
 20 53  1  0
 21 54  1  0
 23 55  1  0
 26 56  1  0
 27 57  1  0
M  END
>  <smiles>  (22) 
O=C(NCC(=O)N1CCCCC1C1CCCCC1)c1ccc2cc(F)ccc2n1

>  <score_type>  (22) 
oracle

>  <origin>  (22) 
autodockgpu

>  <m_score__min__energy>  (22) 
-8.8000000000000007

>  <m_primary>  (22) 
energy

>  <rmsd>  (22) 
1.8911520492988971

>  <m_score__min__rmsd>  (22) 
1.8911520492988971

>  <meeko>  (22) 
{"free_energy": -8.28, "intermolecular_energy": -9.77, "internal_energy": -2.25, "cluster_size": 45, "cluster_id": 1, "rank_in_cluster": 30}

>  <energy>  (22) 
-8.37

>  <cluster_rmsd>  (22) 
1.59

>  <cluster>  (22) 
1

$$$$

     RDKit          3D

 57 60  0  0  0  0  0  0  0  0999 V2000
  140.6410   71.7090  221.0920 O   0  0  0  0  0  0  0  0  0  0  0  0
  140.2160   72.2340  222.1620 C   0  0  0  0  0  0  0  0  0  0  0  0
  139.8170   73.6010  222.2070 N   0  0  0  0  0  0  0  0  0  0  0  0
  139.9040   74.4120  220.9940 C   0  0  0  0  0  0  0  0  0  0  0  0
  140.8390   75.5600  221.2080 C   0  0  0  0  0  0  0  0  0  0  0  0
  140.9910   75.9220  222.4020 O   0  0  0  0  0  0  0  0  0  0  0  0
  141.4830   76.1620  220.0970 N   0  0  0  0  0  0  0  0  0  0  0  0
  140.7370   77.1520  219.3130 C   0  0  0  0  0  0  0  0  0  0  0  0
  141.5970   78.3200  218.8980 C   0  0  0  0  0  0  0  0  0  0  0  0
  142.9420   77.8810  218.3740 C   0  0  0  0  0  0  0  0  0  0  0  0
  143.0160   76.3480  218.2930 C   0  0  0  0  0  0  0  0  0  0  0  0
  142.8450   75.8530  219.6900 C   0  0  2  0  0  0  0  0  0  0  0  0
  143.3180   74.4900  219.9870 C   0  0  0  0  0  0  0  0  0  0  0  0
  144.7860   74.5750  220.4440 C   0  0  0  0  0  0  0  0  0  0  0  0
  145.2780   73.2650  220.9550 C   0  0  0  0  0  0  0  0  0  0  0  0
  144.2240   72.2100  220.8380 C   0  0  0  0  0  0  0  0  0  0  0  0
  143.6620   72.1450  219.4490 C   0  0  0  0  0  0  0  0  0  0  0  0
  143.2960   73.4960  218.8820 C   0  0  0  0  0  0  0  0  0  0  0  0
  140.1360   71.4170  223.3720 C   0  0  0  0  0  0  0  0  0  0  0  0
  139.5660   70.1630  223.3230 C   0  0  0  0  0  0  0  0  0  0  0  0
  139.4730   69.3670  224.4430 C   0  0  0  0  0  0  0  0  0  0  0  0
  139.9790   69.8750  225.6350 C   0  0  0  0  0  0  0  0  0  0  0  0
  139.8870   69.0770  226.7570 C   0  0  0  0  0  0  0  0  0  0  0  0
  140.3890   69.5780  227.9440 C   0  0  0  0  0  0  0  0  0  0  0  0
  140.3390   68.8570  229.0960 F   0  0  0  0  0  0  0  0  0  0  0  0
  140.9530   70.8350  227.9620 C   0  0  0  0  0  0  0  0  0  0  0  0
  141.0450   71.6320  226.8390 C   0  0  0  0  0  0  0  0  0  0  0  0
  140.5460   71.1300  225.6680 C   0  0  0  0  0  0  0  0  0  0  0  0
  140.6280   71.9030  224.5470 N   0  0  0  0  0  0  0  0  0  0  0  0
  139.4750   73.9710  223.1190 H   0  0  0  0  0  0  0  0  0  0  0  0
  140.2755   73.7898  220.1664 H   0  0  0  0  0  0  0  0  0  0  0  0
  138.9050   74.8025  220.7501 H   0  0  0  0  0  0  0  0  0  0  0  0
  140.3435   76.6638  218.4092 H   0  0  0  0  0  0  0  0  0  0  0  0
  139.9253   77.5400  219.9459 H   0  0  0  0  0  0  0  0  0  0  0  0
  141.0753   78.8809  218.1085 H   0  0  0  0  0  0  0  0  0  0  0  0
  141.7689   78.9448  219.7868 H   0  0  0  0  0  0  0  0  0  0  0  0
  143.0946   78.3040  217.3701 H   0  0  0  0  0  0  0  0  0  0  0  0
  143.7241   78.2384  219.0600 H   0  0  0  0  0  0  0  0  0  0  0  0
  142.2128   75.9602  217.6492 H   0  0  0  0  0  0  0  0  0  0  0  0
  143.9707   76.0132  217.8613 H   0  0  0  0  0  0  0  0  0  0  0  0
  143.5542   76.3930  220.3346 H   0  0  0  0  0  0  0  0  0  0  0  0
  142.6015   74.1282  220.7392 H   0  0  0  0  0  0  0  0  0  0  0  0
  145.4084   74.8818  219.5905 H   0  0  0  0  0  0  0  0  0  0  0  0
  144.8501   75.3090  221.2608 H   0  0  0  0  0  0  0  0  0  0  0  0
  146.1584   72.9594  220.3706 H   0  0  0  0  0  0  0  0  0  0  0  0
  145.5395   73.3807  222.0172 H   0  0  0  0  0  0  0  0  0  0  0  0
  144.6652   71.2346  221.0909 H   0  0  0  0  0  0  0  0  0  0  0  0
  143.4062   72.4615  221.5294 H   0  0  0  0  0  0  0  0  0  0  0  0
  144.4130   71.6834  218.7911 H   0  0  0  0  0  0  0  0  0  0  0  0
  142.7349   71.5555  219.5030 H   0  0  0  0  0  0  0  0  0  0  0  0
  144.0235   73.7839  218.1088 H   0  0  0  0  0  0  0  0  0  0  0  0
  142.2946   73.4570  218.4286 H   0  0  0  0  0  0  0  0  0  0  0  0
  139.1755   69.7886  222.3652 H   0  0  0  0  0  0  0  0  0  0  0  0
  139.0160   68.3675  224.3967 H   0  0  0  0  0  0  0  0  0  0  0  0
  139.4303   68.0774  226.7088 H   0  0  0  0  0  0  0  0  0  0  0  0
  141.3475   71.2204  228.9138 H   0  0  0  0  0  0  0  0  0  0  0  0
  141.5016   72.6318  226.8836 H   0  0  0  0  0  0  0  0  0  0  0  0
  1  2  2  0
  2  3  1  0
  3  4  1  0
  4  5  1  0
  5  6  2  0
  5  7  1  0
  7  8  1  0
  8  9  1  0
  9 10  1  0
 10 11  1  0
 11 12  1  0
 12 13  1  0
 13 14  1  0
 14 15  1  0
 15 16  1  0
 16 17  1  0
 17 18  1  0
  2 19  1  0
 19 20  2  0
 20 21  1  0
 21 22  2  0
 22 23  1  0
 23 24  2  0
 24 25  1  0
 24 26  1  0
 26 27  2  0
 27 28  1  0
 28 29  2  0
 12  7  1  0
 18 13  1  0
 29 19  1  0
 28 22  1  0
  3 30  1  0
  4 31  1  0
  4 32  1  0
  8 33  1  0
  8 34  1  0
  9 35  1  0
  9 36  1  0
 10 37  1  0
 10 38  1  0
 11 39  1  0
 11 40  1  0
 12 41  1  1
 13 42  1  0
 14 43  1  0
 14 44  1  0
 15 45  1  0
 15 46  1  0
 16 47  1  0
 16 48  1  0
 17 49  1  0
 17 50  1  0
 18 51  1  0
 18 52  1  0
 20 53  1  0
 21 54  1  0
 23 55  1  0
 26 56  1  0
 27 57  1  0
M  END
>  <smiles>  (23) 
O=C(NCC(=O)N1CCCCC1C1CCCCC1)c1ccc2cc(F)ccc2n1

>  <score_type>  (23) 
oracle

>  <origin>  (23) 
autodockgpu

>  <m_score__min__energy>  (23) 
-8.8000000000000007

>  <m_primary>  (23) 
energy

>  <rmsd>  (23) 
1.942054254534412

>  <m_score__min__rmsd>  (23) 
1.942054254534412

>  <meeko>  (23) 
{"free_energy": -8.37, "intermolecular_energy": -9.86, "internal_energy": -2.13, "cluster_size": 45, "cluster_id": 1, "rank_in_cluster": 22}

>  <energy>  (23) 
-8.34

>  <cluster_rmsd>  (23) 
1.59

>  <cluster>  (23) 
1

$$$$

     RDKit          3D

 57 60  0  0  0  0  0  0  0  0999 V2000
  140.4720   71.5940  221.0110 O   0  0  0  0  0  0  0  0  0  0  0  0
  140.1540   72.1600  222.0970 C   0  0  0  0  0  0  0  0  0  0  0  0
  139.9040   73.5610  222.1550 N   0  0  0  0  0  0  0  0  0  0  0  0
  140.0210   74.3590  220.9360 C   0  0  0  0  0  0  0  0  0  0  0  0
  141.0050   75.4680  221.1380 C   0  0  0  0  0  0  0  0  0  0  0  0
  141.3650   75.6640  222.3250 O   0  0  0  0  0  0  0  0  0  0  0  0
  141.4650   76.2140  220.0230 N   0  0  0  0  0  0  0  0  0  0  0  0
  140.5760   77.2310  219.4520 C   0  0  0  0  0  0  0  0  0  0  0  0
  141.3180   78.4830  219.0560 C   0  0  0  0  0  0  0  0  0  0  0  0
  142.5990   78.1800  218.3190 C   0  0  0  0  0  0  0  0  0  0  0  0
  142.7320   76.6690  218.0670 C   0  0  0  0  0  0  0  0  0  0  0  0
  142.7730   76.0290  219.4130 C   0  0  2  0  0  0  0  0  0  0  0  0
  143.3440   74.6740  219.5010 C   0  0  0  0  0  0  0  0  0  0  0  0
  142.3120   73.6760  218.9420 C   0  0  0  0  0  0  0  0  0  0  0  0
  142.8870   72.3100  218.8080 C   0  0  0  0  0  0  0  0  0  0  0  0
  144.2980   72.2670  219.3020 C   0  0  0  0  0  0  0  0  0  0  0  0
  144.4160   72.8400  220.6830 C   0  0  0  0  0  0  0  0  0  0  0  0
  143.7070   74.1640  220.8490 C   0  0  0  0  0  0  0  0  0  0  0  0
  140.0440   71.3550  223.3130 C   0  0  0  0  0  0  0  0  0  0  0  0
  139.5310   70.0770  223.2520 C   0  0  0  0  0  0  0  0  0  0  0  0
  139.4120   69.2920  224.3760 C   0  0  0  0  0  0  0  0  0  0  0  0
  139.8310   69.8350  225.5860 C   0  0  0  0  0  0  0  0  0  0  0  0
  139.7130   69.0480  226.7130 C   0  0  0  0  0  0  0  0  0  0  0  0
  140.1290   69.5840  227.9180 C   0  0  0  0  0  0  0  0  0  0  0  0
  140.0470   68.8750  229.0750 F   0  0  0  0  0  0  0  0  0  0  0  0
  140.6370   70.8640  227.9480 C   0  0  0  0  0  0  0  0  0  0  0  0
  140.7560   71.6500  226.8190 C   0  0  0  0  0  0  0  0  0  0  0  0
  140.3420   71.1130  225.6310 C   0  0  0  0  0  0  0  0  0  0  0  0
  140.4510   71.8760  224.5050 N   0  0  0  0  0  0  0  0  0  0  0  0
  139.6450   73.9650  223.0800 H   0  0  0  0  0  0  0  0  0  0  0  0
  140.3625   73.7156  220.1117 H   0  0  0  0  0  0  0  0  0  0  0  0
  139.0386   74.7901  220.6930 H   0  0  0  0  0  0  0  0  0  0  0  0
  140.0869   76.8126  218.5600 H   0  0  0  0  0  0  0  0  0  0  0  0
  139.8402   77.5054  220.2223 H   0  0  0  0  0  0  0  0  0  0  0  0
  140.6696   79.0875  218.4047 H   0  0  0  0  0  0  0  0  0  0  0  0
  141.5795   79.0249  219.9769 H   0  0  0  0  0  0  0  0  0  0  0  0
  142.5952   78.7087  217.3544 H   0  0  0  0  0  0  0  0  0  0  0  0
  143.4491   78.5142  218.9319 H   0  0  0  0  0  0  0  0  0  0  0  0
  141.8684   76.2997  217.4945 H   0  0  0  0  0  0  0  0  0  0  0  0
  143.6346   76.4362  217.4829 H   0  0  0  0  0  0  0  0  0  0  0  0
  143.5369   76.5443  220.0138 H   0  0  0  0  0  0  0  0  0  0  0  0
  144.2864   74.7564  218.9397 H   0  0  0  0  0  0  0  0  0  0  0  0
  141.4497   73.6349  219.6237 H   0  0  0  0  0  0  0  0  0  0  0  0
  142.0071   74.0202  217.9427 H   0  0  0  0  0  0  0  0  0  0  0  0
  142.2795   71.6057  219.3952 H   0  0  0  0  0  0  0  0  0  0  0  0
  142.8817   72.0324  217.7436 H   0  0  0  0  0  0  0  0  0  0  0  0
  144.6388   71.2213  219.3189 H   0  0  0  0  0  0  0  0  0  0  0  0
  144.9189   72.8711  218.6241 H   0  0  0  0  0  0  0  0  0  0  0  0
  143.9842   72.1221  221.3959 H   0  0  0  0  0  0  0  0  0  0  0  0
  145.4852   73.0202  220.8682 H   0  0  0  0  0  0  0  0  0  0  0  0
  142.7970   74.0252  221.4511 H   0  0  0  0  0  0  0  0  0  0  0  0
  144.3637   74.8828  221.3608 H   0  0  0  0  0  0  0  0  0  0  0  0
  139.2086   69.6745  222.2804 H   0  0  0  0  0  0  0  0  0  0  0  0
  139.0009   68.2733  224.3196 H   0  0  0  0  0  0  0  0  0  0  0  0
  139.3022   68.0292  226.6551 H   0  0  0  0  0  0  0  0  0  0  0  0
  140.9621   71.2782  228.9138 H   0  0  0  0  0  0  0  0  0  0  0  0
  141.1678   72.6686  226.8729 H   0  0  0  0  0  0  0  0  0  0  0  0
  1  2  2  0
  2  3  1  0
  3  4  1  0
  4  5  1  0
  5  6  2  0
  5  7  1  0
  7  8  1  0
  8  9  1  0
  9 10  1  0
 10 11  1  0
 11 12  1  0
 12 13  1  0
 13 14  1  0
 14 15  1  0
 15 16  1  0
 16 17  1  0
 17 18  1  0
  2 19  1  0
 19 20  2  0
 20 21  1  0
 21 22  2  0
 22 23  1  0
 23 24  2  0
 24 25  1  0
 24 26  1  0
 26 27  2  0
 27 28  1  0
 28 29  2  0
 12  7  1  0
 18 13  1  0
 29 19  1  0
 28 22  1  0
  3 30  1  0
  4 31  1  0
  4 32  1  0
  8 33  1  0
  8 34  1  0
  9 35  1  0
  9 36  1  0
 10 37  1  0
 10 38  1  0
 11 39  1  0
 11 40  1  0
 12 41  1  1
 13 42  1  0
 14 43  1  0
 14 44  1  0
 15 45  1  0
 15 46  1  0
 16 47  1  0
 16 48  1  0
 17 49  1  0
 17 50  1  0
 18 51  1  0
 18 52  1  0
 20 53  1  0
 21 54  1  0
 23 55  1  0
 26 56  1  0
 27 57  1  0
M  END
>  <smiles>  (24) 
O=C(NCC(=O)N1CCCCC1C1CCCCC1)c1ccc2cc(F)ccc2n1

>  <score_type>  (24) 
oracle

>  <origin>  (24) 
autodockgpu

>  <m_score__min__energy>  (24) 
-8.8000000000000007

>  <m_primary>  (24) 
energy

>  <rmsd>  (24) 
1.9236191646030263

>  <m_score__min__rmsd>  (24) 
1.9236191646030263

>  <meeko>  (24) 
{"free_energy": -7.53, "intermolecular_energy": -9.02, "internal_energy": -2.03, "cluster_size": 45, "cluster_id": 1, "rank_in_cluster": 44}

>  <energy>  (24) 
-8.33

>  <cluster_rmsd>  (24) 
1.61

>  <cluster>  (24) 
1

$$$$

     RDKit          3D

 57 60  0  0  0  0  0  0  0  0999 V2000
  141.2720   72.0260  221.3480 O   0  0  0  0  0  0  0  0  0  0  0  0
  140.3970   72.3490  222.2030 C   0  0  0  0  0  0  0  0  0  0  0  0
  139.5940   73.5140  222.0370 N   0  0  0  0  0  0  0  0  0  0  0  0
  139.7880   74.3520  220.8550 C   0  0  0  0  0  0  0  0  0  0  0  0
  140.8580   75.3660  221.1130 C   0  0  0  0  0  0  0  0  0  0  0  0
  141.1100   75.5940  222.3220 O   0  0  0  0  0  0  0  0  0  0  0  0
  141.5090   75.9970  220.0220 N   0  0  0  0  0  0  0  0  0  0  0  0
  140.7450   76.9540  219.2150 C   0  0  0  0  0  0  0  0  0  0  0  0
  141.5660   78.1590  218.8270 C   0  0  0  0  0  0  0  0  0  0  0  0
  142.9450   77.7800  218.3460 C   0  0  0  0  0  0  0  0  0  0  0  0
  143.0890   76.2520  218.2680 C   0  0  0  0  0  0  0  0  0  0  0  0
  142.8960   75.7480  219.6590 C   0  0  2  0  0  0  0  0  0  0  0  0
  143.4180   74.4070  219.9710 C   0  0  0  0  0  0  0  0  0  0  0  0
  144.8680   74.5550  220.4690 C   0  0  0  0  0  0  0  0  0  0  0  0
  145.4000   73.2680  220.9960 C   0  0  0  0  0  0  0  0  0  0  0  0
  144.3970   72.1680  220.8500 C   0  0  0  0  0  0  0  0  0  0  0  0
  143.8780   72.0790  219.4460 C   0  0  0  0  0  0  0  0  0  0  0  0
  143.4710   73.4130  218.8670 C   0  0  0  0  0  0  0  0  0  0  0  0
  140.2130   71.5070  223.3840 C   0  0  0  0  0  0  0  0  0  0  0  0
  139.5470   70.3040  223.2780 C   0  0  0  0  0  0  0  0  0  0  0  0
  139.3550   69.4870  224.3690 C   0  0  0  0  0  0  0  0  0  0  0  0
  139.8600   69.9170  225.5920 C   0  0  0  0  0  0  0  0  0  0  0  0
  139.6680   69.0980  226.6850 C   0  0  0  0  0  0  0  0  0  0  0  0
  140.1680   69.5230  227.9020 C   0  0  0  0  0  0  0  0  0  0  0  0
  140.0220   68.7750  229.0280 F   0  0  0  0  0  0  0  0  0  0  0  0
  140.8280   70.7290  227.9760 C   0  0  0  0  0  0  0  0  0  0  0  0
  141.0200   71.5480  226.8820 C   0  0  0  0  0  0  0  0  0  0  0  0
  140.5220   71.1220  225.6810 C   0  0  0  0  0  0  0  0  0  0  0  0
  140.7020   71.9180  224.5880 N   0  0  0  0  0  0  0  0  0  0  0  0
  138.8900   73.7220  222.7770 H   0  0  0  0  0  0  0  0  0  0  0  0
  140.0837   73.7193  220.0051 H   0  0  0  0  0  0  0  0  0  0  0  0
  138.8468   74.8727  220.6246 H   0  0  0  0  0  0  0  0  0  0  0  0
  140.4016   76.4501  218.2995 H   0  0  0  0  0  0  0  0  0  0  0  0
  139.8975   77.3052  219.8219 H   0  0  0  0  0  0  0  0  0  0  0  0
  141.0456   78.6973  218.0212 H   0  0  0  0  0  0  0  0  0  0  0  0
  141.6822   78.7896  219.7207 H   0  0  0  0  0  0  0  0  0  0  0  0
  143.1106   78.2103  217.3473 H   0  0  0  0  0  0  0  0  0  0  0  0
  143.6885   78.1707  219.0563 H   0  0  0  0  0  0  0  0  0  0  0  0
  142.3244   75.8299  217.5992 H   0  0  0  0  0  0  0  0  0  0  0  0
  144.0709   75.9603  217.8669 H   0  0  0  0  0  0  0  0  0  0  0  0
  143.5605   76.3170  220.3259 H   0  0  0  0  0  0  0  0  0  0  0  0
  142.6963   74.0150  220.7028 H   0  0  0  0  0  0  0  0  0  0  0  0
  145.5006   74.8872  219.6327 H   0  0  0  0  0  0  0  0  0  0  0  0
  144.8781   75.2919  221.2856 H   0  0  0  0  0  0  0  0  0  0  0  0
  146.3097   73.0005  220.4384 H   0  0  0  0  0  0  0  0  0  0  0  0
  145.6241   73.3955  222.0654 H   0  0  0  0  0  0  0  0  0  0  0  0
  144.8731   71.2128  221.1161 H   0  0  0  0  0  0  0  0  0  0  0  0
  143.5497   72.3832  221.5177 H   0  0  0  0  0  0  0  0  0  0  0  0
  144.6664   71.6498  218.8102 H   0  0  0  0  0  0  0  0  0  0  0  0
  142.9757   71.4505  219.4745 H   0  0  0  0  0  0  0  0  0  0  0  0
  144.2077   73.7319  218.1150 H   0  0  0  0  0  0  0  0  0  0  0  0
  142.4858   73.3310  218.3846 H   0  0  0  0  0  0  0  0  0  0  0  0
  139.1597   69.9897  222.2976 H   0  0  0  0  0  0  0  0  0  0  0  0
  138.8218   68.5292  224.2773 H   0  0  0  0  0  0  0  0  0  0  0  0
  139.1356   68.1400  226.5917 H   0  0  0  0  0  0  0  0  0  0  0  0
  141.2199   71.0544  228.9510 H   0  0  0  0  0  0  0  0  0  0  0  0
  141.5528   72.5061  226.9721 H   0  0  0  0  0  0  0  0  0  0  0  0
  1  2  2  0
  2  3  1  0
  3  4  1  0
  4  5  1  0
  5  6  2  0
  5  7  1  0
  7  8  1  0
  8  9  1  0
  9 10  1  0
 10 11  1  0
 11 12  1  0
 12 13  1  0
 13 14  1  0
 14 15  1  0
 15 16  1  0
 16 17  1  0
 17 18  1  0
  2 19  1  0
 19 20  2  0
 20 21  1  0
 21 22  2  0
 22 23  1  0
 23 24  2  0
 24 25  1  0
 24 26  1  0
 26 27  2  0
 27 28  1  0
 28 29  2  0
 12  7  1  0
 18 13  1  0
 29 19  1  0
 28 22  1  0
  3 30  1  0
  4 31  1  0
  4 32  1  0
  8 33  1  0
  8 34  1  0
  9 35  1  0
  9 36  1  0
 10 37  1  0
 10 38  1  0
 11 39  1  0
 11 40  1  0
 12 41  1  1
 13 42  1  0
 14 43  1  0
 14 44  1  0
 15 45  1  0
 15 46  1  0
 16 47  1  0
 16 48  1  0
 17 49  1  0
 17 50  1  0
 18 51  1  0
 18 52  1  0
 20 53  1  0
 21 54  1  0
 23 55  1  0
 26 56  1  0
 27 57  1  0
M  END
>  <smiles>  (25) 
O=C(NCC(=O)N1CCCCC1C1CCCCC1)c1ccc2cc(F)ccc2n1

>  <score_type>  (25) 
oracle

>  <origin>  (25) 
autodockgpu

>  <m_score__min__energy>  (25) 
-8.8000000000000007

>  <m_primary>  (25) 
energy

>  <rmsd>  (25) 
1.941241947066489

>  <m_score__min__rmsd>  (25) 
1.941241947066489

>  <meeko>  (25) 
{"free_energy": -8.48, "intermolecular_energy": -9.97, "internal_energy": -1.94, "cluster_size": 45, "cluster_id": 1, "rank_in_cluster": 15}

>  <energy>  (25) 
-8.33

>  <cluster_rmsd>  (25) 
1.62

>  <cluster>  (25) 
1

$$$$

     RDKit          3D

 57 60  0  0  0  0  0  0  0  0999 V2000
  140.9300   71.8170  221.1580 O   0  0  0  0  0  0  0  0  0  0  0  0
  140.2950   72.2650  222.1570 C   0  0  0  0  0  0  0  0  0  0  0  0
  139.6960   73.5580  222.1330 N   0  0  0  0  0  0  0  0  0  0  0  0
  139.8220   74.3820  220.9310 C   0  0  0  0  0  0  0  0  0  0  0  0
  140.8440   75.4530  221.1470 C   0  0  0  0  0  0  0  0  0  0  0  0
  141.0670   75.7580  222.3450 O   0  0  0  0  0  0  0  0  0  0  0  0
  141.4850   76.0510  220.0310 N   0  0  0  0  0  0  0  0  0  0  0  0
  140.7240   77.0110  219.2240 C   0  0  0  0  0  0  0  0  0  0  0  0
  141.5630   78.1910  218.7980 C   0  0  0  0  0  0  0  0  0  0  0  0
  142.9220   77.7730  218.2940 C   0  0  0  0  0  0  0  0  0  0  0  0
  143.0300   76.2410  218.2390 C   0  0  0  0  0  0  0  0  0  0  0  0
  142.8570   75.7650  219.6420 C   0  0  2  0  0  0  0  0  0  0  0  0
  143.3560   74.4180  219.9660 C   0  0  0  0  0  0  0  0  0  0  0  0
  144.8170   74.5420  220.4380 C   0  0  0  0  0  0  0  0  0  0  0  0
  145.3310   73.2520  220.9750 C   0  0  0  0  0  0  0  0  0  0  0  0
  144.3020   72.1720  220.8630 C   0  0  0  0  0  0  0  0  0  0  0  0
  143.7580   72.0730  219.4690 C   0  0  0  0  0  0  0  0  0  0  0  0
  143.3690   73.4060  218.8770 C   0  0  0  0  0  0  0  0  0  0  0  0
  140.1780   71.4360  223.3550 C   0  0  0  0  0  0  0  0  0  0  0  0
  139.5690   70.2010  223.2840 C   0  0  0  0  0  0  0  0  0  0  0  0
  139.4410   69.3950  224.3930 C   0  0  0  0  0  0  0  0  0  0  0  0
  139.9500   69.8710  225.5970 C   0  0  0  0  0  0  0  0  0  0  0  0
  139.8220   69.0630  226.7070 C   0  0  0  0  0  0  0  0  0  0  0  0
  140.3280   69.5340  227.9060 C   0  0  0  0  0  0  0  0  0  0  0  0
  140.2430   68.8000  229.0470 F   0  0  0  0  0  0  0  0  0  0  0  0
  140.9300   70.7720  227.9450 C   0  0  0  0  0  0  0  0  0  0  0  0
  141.0570   71.5790  226.8330 C   0  0  0  0  0  0  0  0  0  0  0  0
  140.5550   71.1080  225.6510 C   0  0  0  0  0  0  0  0  0  0  0  0
  140.6720   71.8920  224.5410 N   0  0  0  0  0  0  0  0  0  0  0  0
  139.1850   73.8660  222.9870 H   0  0  0  0  0  0  0  0  0  0  0  0
  140.1315   73.7487  220.0865 H   0  0  0  0  0  0  0  0  0  0  0  0
  138.8509   74.8498  220.7117 H   0  0  0  0  0  0  0  0  0  0  0  0
  140.3499   76.4996  218.3248 H   0  0  0  0  0  0  0  0  0  0  0  0
  139.8974   77.3908  219.8424 H   0  0  0  0  0  0  0  0  0  0  0  0
  141.0371   78.7277  217.9946 H   0  0  0  0  0  0  0  0  0  0  0  0
  141.7128   78.8336  219.6782 H   0  0  0  0  0  0  0  0  0  0  0  0
  143.0752   78.1828  217.2848 H   0  0  0  0  0  0  0  0  0  0  0  0
  143.6894   78.1585  218.9814 H   0  0  0  0  0  0  0  0  0  0  0  0
  142.2414   75.8253  217.5946 H   0  0  0  0  0  0  0  0  0  0  0  0
  143.9958   75.9203  217.8214 H   0  0  0  0  0  0  0  0  0  0  0  0
  143.5489   76.3302  220.2838 H   0  0  0  0  0  0  0  0  0  0  0  0
  142.6385   74.0530  220.7157 H   0  0  0  0  0  0  0  0  0  0  0  0
  145.4424   74.8487  219.5866 H   0  0  0  0  0  0  0  0  0  0  0  0
  144.8559   75.2899  221.2437 H   0  0  0  0  0  0  0  0  0  0  0  0
  146.2247   72.9568  220.4056 H   0  0  0  0  0  0  0  0  0  0  0  0
  145.5771   73.3902  222.0382 H   0  0  0  0  0  0  0  0  0  0  0  0
  144.7617   71.2107  221.1363 H   0  0  0  0  0  0  0  0  0  0  0  0
  143.4709   72.4158  221.5411 H   0  0  0  0  0  0  0  0  0  0  0  0
  144.5268   71.6182  218.8270 H   0  0  0  0  0  0  0  0  0  0  0  0
  142.8436   71.4638  219.5216 H   0  0  0  0  0  0  0  0  0  0  0  0
  144.0989   73.6978  218.1075 H   0  0  0  0  0  0  0  0  0  0  0  0
  142.3739   73.3374  218.4133 H   0  0  0  0  0  0  0  0  0  0  0  0
  139.1759   69.8512  222.3180 H   0  0  0  0  0  0  0  0  0  0  0  0
  138.9541   68.4107  224.3293 H   0  0  0  0  0  0  0  0  0  0  0  0
  139.3350   68.0789  226.6418 H   0  0  0  0  0  0  0  0  0  0  0  0
  141.3271   71.1335  228.9050 H   0  0  0  0  0  0  0  0  0  0  0  0
  141.5435   72.5637  226.8947 H   0  0  0  0  0  0  0  0  0  0  0  0
  1  2  2  0
  2  3  1  0
  3  4  1  0
  4  5  1  0
  5  6  2  0
  5  7  1  0
  7  8  1  0
  8  9  1  0
  9 10  1  0
 10 11  1  0
 11 12  1  0
 12 13  1  0
 13 14  1  0
 14 15  1  0
 15 16  1  0
 16 17  1  0
 17 18  1  0
  2 19  1  0
 19 20  2  0
 20 21  1  0
 21 22  2  0
 22 23  1  0
 23 24  2  0
 24 25  1  0
 24 26  1  0
 26 27  2  0
 27 28  1  0
 28 29  2  0
 12  7  1  0
 18 13  1  0
 29 19  1  0
 28 22  1  0
  3 30  1  0
  4 31  1  0
  4 32  1  0
  8 33  1  0
  8 34  1  0
  9 35  1  0
  9 36  1  0
 10 37  1  0
 10 38  1  0
 11 39  1  0
 11 40  1  0
 12 41  1  1
 13 42  1  0
 14 43  1  0
 14 44  1  0
 15 45  1  0
 15 46  1  0
 16 47  1  0
 16 48  1  0
 17 49  1  0
 17 50  1  0
 18 51  1  0
 18 52  1  0
 20 53  1  0
 21 54  1  0
 23 55  1  0
 26 56  1  0
 27 57  1  0
M  END
>  <smiles>  (26) 
O=C(NCC(=O)N1CCCCC1C1CCCCC1)c1ccc2cc(F)ccc2n1

>  <score_type>  (26) 
oracle

>  <origin>  (26) 
autodockgpu

>  <m_score__min__energy>  (26) 
-8.8000000000000007

>  <m_primary>  (26) 
energy

>  <rmsd>  (26) 
1.9137181426287486

>  <m_score__min__rmsd>  (26) 
1.9137181426287486

>  <meeko>  (26) 
{"free_energy": -8.43, "intermolecular_energy": -9.92, "internal_energy": -2.02, "cluster_size": 45, "cluster_id": 1, "rank_in_cluster": 19}

>  <energy>  (26) 
-8.33

>  <cluster_rmsd>  (26) 
1.6

>  <cluster>  (26) 
1

$$$$

     RDKit          3D

 57 60  0  0  0  0  0  0  0  0999 V2000
  140.4420   71.6060  221.0420 O   0  0  0  0  0  0  0  0  0  0  0  0
  140.1270   72.1570  222.1370 C   0  0  0  0  0  0  0  0  0  0  0  0
  139.8290   73.5480  222.2060 N   0  0  0  0  0  0  0  0  0  0  0  0
  139.8900   74.3540  220.9870 C   0  0  0  0  0  0  0  0  0  0  0  0
  140.7570   75.5540  221.2070 C   0  0  0  0  0  0  0  0  0  0  0  0
  140.8310   75.9600  222.3940 O   0  0  0  0  0  0  0  0  0  0  0  0
  141.4250   76.1530  220.1090 N   0  0  0  0  0  0  0  0  0  0  0  0
  140.7070   77.1620  219.3240 C   0  0  0  0  0  0  0  0  0  0  0  0
  141.5940   78.3170  218.9290 C   0  0  0  0  0  0  0  0  0  0  0  0
  142.9370   77.8570  218.4170 C   0  0  0  0  0  0  0  0  0  0  0  0
  142.9830   76.3230  218.3250 C   0  0  0  0  0  0  0  0  0  0  0  0
  142.7860   75.8210  219.7150 C   0  0  2  0  0  0  0  0  0  0  0  0
  143.2290   74.4470  220.0070 C   0  0  0  0  0  0  0  0  0  0  0  0
  144.7210   74.4890  220.3900 C   0  0  0  0  0  0  0  0  0  0  0  0
  145.1950   73.1710  220.8940 C   0  0  0  0  0  0  0  0  0  0  0  0
  144.1040   72.1490  220.8430 C   0  0  0  0  0  0  0  0  0  0  0  0
  143.4710   72.0850  219.4840 C   0  0  0  0  0  0  0  0  0  0  0  0
  143.1210   73.4410  218.9180 C   0  0  0  0  0  0  0  0  0  0  0  0
  140.0720   71.3450  223.3520 C   0  0  0  0  0  0  0  0  0  0  0  0
  139.5960   70.0510  223.2970 C   0  0  0  0  0  0  0  0  0  0  0  0
  139.5290   69.2590  224.4210 C   0  0  0  0  0  0  0  0  0  0  0  0
  139.9610   69.8100  225.6230 C   0  0  0  0  0  0  0  0  0  0  0  0
  139.8950   69.0160  226.7490 C   0  0  0  0  0  0  0  0  0  0  0  0
  140.3230   69.5610  227.9460 C   0  0  0  0  0  0  0  0  0  0  0  0
  140.2910   68.8450  229.1010 F   0  0  0  0  0  0  0  0  0  0  0  0
  140.7920   70.8550  227.9680 C   0  0  0  0  0  0  0  0  0  0  0  0
  140.8590   71.6490  226.8410 C   0  0  0  0  0  0  0  0  0  0  0  0
  140.4330   71.1040  225.6600 C   0  0  0  0  0  0  0  0  0  0  0  0
  140.4910   71.8740  224.5360 N   0  0  0  0  0  0  0  0  0  0  0  0
  139.5740   73.9400  223.1380 H   0  0  0  0  0  0  0  0  0  0  0  0
  140.3086   73.7475  220.1703 H   0  0  0  0  0  0  0  0  0  0  0  0
  138.8750   74.6864  220.7239 H   0  0  0  0  0  0  0  0  0  0  0  0
  140.3158   76.6881  218.4117 H   0  0  0  0  0  0  0  0  0  0  0  0
  139.8944   77.5599  219.9496 H   0  0  0  0  0  0  0  0  0  0  0  0
  141.0925   78.8942  218.1382 H   0  0  0  0  0  0  0  0  0  0  0  0
  141.7671   78.9309  219.8252 H   0  0  0  0  0  0  0  0  0  0  0  0
  143.1092   78.2846  217.4183 H   0  0  0  0  0  0  0  0  0  0  0  0
  143.7177   78.1946  219.1145 H   0  0  0  0  0  0  0  0  0  0  0  0
  142.1804   75.9554  217.6687 H   0  0  0  0  0  0  0  0  0  0  0  0
  143.9364   75.9735  217.9021 H   0  0  0  0  0  0  0  0  0  0  0  0
  143.4979   76.3426  220.3716 H   0  0  0  0  0  0  0  0  0  0  0  0
  142.5392   74.1184  220.7983 H   0  0  0  0  0  0  0  0  0  0  0  0
  145.3097   74.7645  219.5025 H   0  0  0  0  0  0  0  0  0  0  0  0
  144.8493   75.2304  221.1924 H   0  0  0  0  0  0  0  0  0  0  0  0
  146.0356   72.8300  220.2718 H   0  0  0  0  0  0  0  0  0  0  0  0
  145.5114   73.2913  221.9406 H   0  0  0  0  0  0  0  0  0  0  0  0
  144.5266   71.1631  221.0869 H   0  0  0  0  0  0  0  0  0  0  0  0
  143.3299   72.4351  221.5703 H   0  0  0  0  0  0  0  0  0  0  0  0
  144.1728   71.5911  218.7959 H   0  0  0  0  0  0  0  0  0  0  0  0
  142.5295   71.5264  219.5915 H   0  0  0  0  0  0  0  0  0  0  0  0
  143.8184   73.6959  218.1064 H   0  0  0  0  0  0  0  0  0  0  0  0
  142.0976   73.4292  218.5150 H   0  0  0  0  0  0  0  0  0  0  0  0
  139.2620   69.6425  222.3318 H   0  0  0  0  0  0  0  0  0  0  0  0
  139.1479   68.2284  224.3705 H   0  0  0  0  0  0  0  0  0  0  0  0
  139.5151   67.9850  226.6968 H   0  0  0  0  0  0  0  0  0  0  0  0
  141.1286   71.2753  228.9272 H   0  0  0  0  0  0  0  0  0  0  0  0
  141.2399   72.6798  226.8901 H   0  0  0  0  0  0  0  0  0  0  0  0
  1  2  2  0
  2  3  1  0
  3  4  1  0
  4  5  1  0
  5  6  2  0
  5  7  1  0
  7  8  1  0
  8  9  1  0
  9 10  1  0
 10 11  1  0
 11 12  1  0
 12 13  1  0
 13 14  1  0
 14 15  1  0
 15 16  1  0
 16 17  1  0
 17 18  1  0
  2 19  1  0
 19 20  2  0
 20 21  1  0
 21 22  2  0
 22 23  1  0
 23 24  2  0
 24 25  1  0
 24 26  1  0
 26 27  2  0
 27 28  1  0
 28 29  2  0
 12  7  1  0
 18 13  1  0
 29 19  1  0
 28 22  1  0
  3 30  1  0
  4 31  1  0
  4 32  1  0
  8 33  1  0
  8 34  1  0
  9 35  1  0
  9 36  1  0
 10 37  1  0
 10 38  1  0
 11 39  1  0
 11 40  1  0
 12 41  1  1
 13 42  1  0
 14 43  1  0
 14 44  1  0
 15 45  1  0
 15 46  1  0
 16 47  1  0
 16 48  1  0
 17 49  1  0
 17 50  1  0
 18 51  1  0
 18 52  1  0
 20 53  1  0
 21 54  1  0
 23 55  1  0
 26 56  1  0
 27 57  1  0
M  END
>  <smiles>  (27) 
O=C(NCC(=O)N1CCCCC1C1CCCCC1)c1ccc2cc(F)ccc2n1

>  <score_type>  (27) 
oracle

>  <origin>  (27) 
autodockgpu

>  <m_score__min__energy>  (27) 
-8.8000000000000007

>  <m_primary>  (27) 
energy

>  <rmsd>  (27) 
1.913396874656293

>  <m_score__min__rmsd>  (27) 
1.913396874656293

>  <meeko>  (27) 
{"free_energy": -8.29, "intermolecular_energy": -9.78, "internal_energy": -2.25, "cluster_size": 45, "cluster_id": 1, "rank_in_cluster": 27}

>  <energy>  (27) 
-8.29

>  <cluster_rmsd>  (27) 
1.57

>  <cluster>  (27) 
1

$$$$

     RDKit          3D

 57 60  0  0  0  0  0  0  0  0999 V2000
  140.6750   71.7820  221.1700 O   0  0  0  0  0  0  0  0  0  0  0  0
  140.2480   72.3030  222.2410 C   0  0  0  0  0  0  0  0  0  0  0  0
  139.9210   73.6880  222.3100 N   0  0  0  0  0  0  0  0  0  0  0  0
  140.0860   74.5220  221.1200 C   0  0  0  0  0  0  0  0  0  0  0  0
  140.7450   75.8150  221.4850 C   0  0  0  0  0  0  0  0  0  0  0  0
  140.7410   76.1000  222.7080 O   0  0  0  0  0  0  0  0  0  0  0  0
  141.3170   76.6260  220.4710 N   0  0  0  0  0  0  0  0  0  0  0  0
  142.1320   75.9770  219.4390 C   0  0  0  0  0  0  0  0  0  0  0  0
  141.8860   76.5560  218.0680 C   0  0  0  0  0  0  0  0  0  0  0  0
  141.8460   78.0640  218.0830 C   0  0  0  0  0  0  0  0  0  0  0  0
  142.1920   78.5990  219.4820 C   0  0  0  0  0  0  0  0  0  0  0  0
  141.1410   78.0680  220.3980 C   0  0  2  0  0  0  0  0  0  0  0  0
  140.9480   78.7650  221.6810 C   0  0  0  0  0  0  0  0  0  0  0  0
  140.3030   80.1340  221.3970 C   0  0  0  0  0  0  0  0  0  0  0  0
  139.8900   80.8170  222.6540 C   0  0  0  0  0  0  0  0  0  0  0  0
  140.2610   80.0070  223.8550 C   0  0  0  0  0  0  0  0  0  0  0  0
  141.7080   79.6130  223.8280 C   0  0  0  0  0  0  0  0  0  0  0  0
  142.1550   79.0500  222.5000 C   0  0  0  0  0  0  0  0  0  0  0  0
  140.0900   71.4630  223.4270 C   0  0  0  0  0  0  0  0  0  0  0  0
  139.4580   70.2420  223.3290 C   0  0  0  0  0  0  0  0  0  0  0  0
  139.2910   69.4260  224.4260 C   0  0  0  0  0  0  0  0  0  0  0  0
  139.7860   69.8780  225.6440 C   0  0  0  0  0  0  0  0  0  0  0  0
  139.6200   69.0600  226.7430 C   0  0  0  0  0  0  0  0  0  0  0  0
  140.1110   69.5060  227.9560 C   0  0  0  0  0  0  0  0  0  0  0  0
  139.9880   68.7610  229.0870 F   0  0  0  0  0  0  0  0  0  0  0  0
  140.7370   70.7300  228.0220 C   0  0  0  0  0  0  0  0  0  0  0  0
  140.9040   71.5480  226.9220 C   0  0  0  0  0  0  0  0  0  0  0  0
  140.4150   71.1010  225.7250 C   0  0  0  0  0  0  0  0  0  0  0  0
  140.5700   71.8950  224.6270 N   0  0  0  0  0  0  0  0  0  0  0  0
  139.5730   74.0550  223.2210 H   0  0  0  0  0  0  0  0  0  0  0  0
  140.7099   73.9901  220.3867 H   0  0  0  0  0  0  0  0  0  0  0  0
  139.0965   74.7319  220.6877 H   0  0  0  0  0  0  0  0  0  0  0  0
  143.1943   76.1077  219.6929 H   0  0  0  0  0  0  0  0  0  0  0  0
  141.8541   74.9131  219.4101 H   0  0  0  0  0  0  0  0  0  0  0  0
  142.6936   76.2301  217.3961 H   0  0  0  0  0  0  0  0  0  0  0  0
  140.9059   76.1964  217.7214 H   0  0  0  0  0  0  0  0  0  0  0  0
  142.5750   78.4525  217.3566 H   0  0  0  0  0  0  0  0  0  0  0  0
  140.8313   78.3952  217.8169 H   0  0  0  0  0  0  0  0  0  0  0  0
  143.1851   78.2423  219.7925 H   0  0  0  0  0  0  0  0  0  0  0  0
  142.2206   79.6985  219.4967 H   0  0  0  0  0  0  0  0  0  0  0  0
  140.1573   78.2978  219.9627 H   0  0  0  0  0  0  0  0  0  0  0  0
  140.3396   78.0599  222.2664 H   0  0  0  0  0  0  0  0  0  0  0  0
  141.0299   80.7682  220.8684 H   0  0  0  0  0  0  0  0  0  0  0  0
  139.4048   79.9704  220.7834 H   0  0  0  0  0  0  0  0  0  0  0  0
  140.3900   81.7951  222.7122 H   0  0  0  0  0  0  0  0  0  0  0  0
  138.7971   80.9410  222.6408 H   0  0  0  0  0  0  0  0  0  0  0  0
  140.0696   80.6020  224.7602 H   0  0  0  0  0  0  0  0  0  0  0  0
  139.6539   79.0897  223.8530 H   0  0  0  0  0  0  0  0  0  0  0  0
  142.3152   80.5027  224.0510 H   0  0  0  0  0  0  0  0  0  0  0  0
  141.8407   78.8185  224.5771 H   0  0  0  0  0  0  0  0  0  0  0  0
  142.7914   79.7821  221.9814 H   0  0  0  0  0  0  0  0  0  0  0  0
  142.7324   78.1268  222.6560 H   0  0  0  0  0  0  0  0  0  0  0  0
  139.0778   69.9113  222.3512 H   0  0  0  0  0  0  0  0  0  0  0  0
  138.7849   68.4530  224.3415 H   0  0  0  0  0  0  0  0  0  0  0  0
  139.1145   68.0868  226.6569 H   0  0  0  0  0  0  0  0  0  0  0  0
  141.1214   71.0719  228.9943 H   0  0  0  0  0  0  0  0  0  0  0  0
  141.4104   72.5210  227.0050 H   0  0  0  0  0  0  0  0  0  0  0  0
  1  2  2  0
  2  3  1  0
  3  4  1  0
  4  5  1  0
  5  6  2  0
  5  7  1  0
  7  8  1  0
  8  9  1  0
  9 10  1  0
 10 11  1  0
 11 12  1  0
 12 13  1  0
 13 14  1  0
 14 15  1  0
 15 16  1  0
 16 17  1  0
 17 18  1  0
  2 19  1  0
 19 20  2  0
 20 21  1  0
 21 22  2  0
 22 23  1  0
 23 24  2  0
 24 25  1  0
 24 26  1  0
 26 27  2  0
 27 28  1  0
 28 29  2  0
 12  7  1  0
 18 13  1  0
 29 19  1  0
 28 22  1  0
  3 30  1  0
  4 31  1  0
  4 32  1  0
  8 33  1  0
  8 34  1  0
  9 35  1  0
  9 36  1  0
 10 37  1  0
 10 38  1  0
 11 39  1  0
 11 40  1  0
 12 41  1  6
 13 42  1  0
 14 43  1  0
 14 44  1  0
 15 45  1  0
 15 46  1  0
 16 47  1  0
 16 48  1  0
 17 49  1  0
 17 50  1  0
 18 51  1  0
 18 52  1  0
 20 53  1  0
 21 54  1  0
 23 55  1  0
 26 56  1  0
 27 57  1  0
M  END
>  <smiles>  (28) 
O=C(NCC(=O)N1CCCCC1C1CCCCC1)c1ccc2cc(F)ccc2n1

>  <score_type>  (28) 
oracle

>  <origin>  (28) 
autodockgpu

>  <m_score__min__energy>  (28) 
-8.8000000000000007

>  <m_primary>  (28) 
energy

>  <rmsd>  (28) 
1.9701829597803258

>  <m_score__min__rmsd>  (28) 
1.9701829597803258

>  <meeko>  (28) 
{"free_energy": -8.53, "intermolecular_energy": -10.02, "internal_energy": -1.79, "cluster_size": 45, "cluster_id": 1, "rank_in_cluster": 11}

>  <energy>  (28) 
-8.29

>  <cluster_rmsd>  (28) 
1.57

>  <cluster>  (28) 
1

$$$$

     RDKit          3D

 57 60  0  0  0  0  0  0  0  0999 V2000
  141.2340   72.1730  221.7540 O   0  0  0  0  0  0  0  0  0  0  0  0
  140.2550   72.2860  222.5490 C   0  0  0  0  0  0  0  0  0  0  0  0
  139.2450   73.2690  222.3420 N   0  0  0  0  0  0  0  0  0  0  0  0
  139.3440   74.1660  221.1920 C   0  0  0  0  0  0  0  0  0  0  0  0
  140.1470   75.3770  221.5510 C   0  0  0  0  0  0  0  0  0  0  0  0
  139.9480   75.8380  222.7020 O   0  0  0  0  0  0  0  0  0  0  0  0
  141.0560   75.9250  220.6100 N   0  0  0  0  0  0  0  0  0  0  0  0
  141.7870   75.0050  219.7320 C   0  0  0  0  0  0  0  0  0  0  0  0
  141.9010   75.5300  218.3220 C   0  0  0  0  0  0  0  0  0  0  0  0
  142.2860   76.9880  218.2850 C   0  0  0  0  0  0  0  0  0  0  0  0
  142.5760   77.5060  219.7020 C   0  0  0  0  0  0  0  0  0  0  0  0
  141.3050   77.3510  220.4660 C   0  0  2  0  0  0  0  0  0  0  0  0
  141.1440   78.1640  221.6840 C   0  0  0  0  0  0  0  0  0  0  0  0
  139.8110   78.9280  221.5840 C   0  0  0  0  0  0  0  0  0  0  0  0
  139.4760   79.6170  222.8610 C   0  0  0  0  0  0  0  0  0  0  0  0
  140.5540   79.4190  223.8790 C   0  0  0  0  0  0  0  0  0  0  0  0
  141.9020   79.7820  223.3310 C   0  0  0  0  0  0  0  0  0  0  0  0
  142.1780   79.1930  221.9690 C   0  0  0  0  0  0  0  0  0  0  0  0
  140.1660   71.3880  223.6990 C   0  0  0  0  0  0  0  0  0  0  0  0
  139.5780   70.1480  223.5630 C   0  0  0  0  0  0  0  0  0  0  0  0
  139.4760   69.2770  224.6250 C   0  0  0  0  0  0  0  0  0  0  0  0
  139.9900   69.6930  225.8480 C   0  0  0  0  0  0  0  0  0  0  0  0
  139.8890   68.8210  226.9120 C   0  0  0  0  0  0  0  0  0  0  0  0
  140.3990   69.2300  228.1300 C   0  0  0  0  0  0  0  0  0  0  0  0
  140.3400   68.4310  229.2280 F   0  0  0  0  0  0  0  0  0  0  0  0
  140.9800   70.4750  228.2350 C   0  0  0  0  0  0  0  0  0  0  0  0
  141.0820   71.3470  227.1690 C   0  0  0  0  0  0  0  0  0  0  0  0
  140.5740   70.9350  225.9670 C   0  0  0  0  0  0  0  0  0  0  0  0
  140.6650   71.7840  224.9040 N   0  0  0  0  0  0  0  0  0  0  0  0
  138.4640   73.3080  223.0320 H   0  0  0  0  0  0  0  0  0  0  0  0
  139.8337   73.6383  220.3603 H   0  0  0  0  0  0  0  0  0  0  0  0
  138.3332   74.4803  220.8929 H   0  0  0  0  0  0  0  0  0  0  0  0
  142.7988   74.8574  220.1376 H   0  0  0  0  0  0  0  0  0  0  0  0
  141.2277   74.0585  219.6950 H   0  0  0  0  0  0  0  0  0  0  0  0
  142.6668   74.9480  217.7884 H   0  0  0  0  0  0  0  0  0  0  0  0
  140.9154   75.4293  217.8440 H   0  0  0  0  0  0  0  0  0  0  0  0
  143.1862   77.1087  217.6645 H   0  0  0  0  0  0  0  0  0  0  0  0
  141.4513   77.5649  217.8601 H   0  0  0  0  0  0  0  0  0  0  0  0
  143.3768   76.9137  220.1687 H   0  0  0  0  0  0  0  0  0  0  0  0
  142.9109   78.5537  219.6866 H   0  0  0  0  0  0  0  0  0  0  0  0
  140.4949   77.8105  219.8806 H   0  0  0  0  0  0  0  0  0  0  0  0
  141.2146   77.4254  222.4961 H   0  0  0  0  0  0  0  0  0  0  0  0
  139.8890   79.6784  220.7835 H   0  0  0  0  0  0  0  0  0  0  0  0
  139.0141   78.2018  221.3660 H   0  0  0  0  0  0  0  0  0  0  0  0
  139.3575   80.6934  222.6680 H   0  0  0  0  0  0  0  0  0  0  0  0
  138.5418   79.1894  223.2539 H   0  0  0  0  0  0  0  0  0  0  0  0
  140.3411   80.0525  224.7527 H   0  0  0  0  0  0  0  0  0  0  0  0
  140.5712   78.3558  224.1606 H   0  0  0  0  0  0  0  0  0  0  0  0
  141.9632   80.8777  223.2552 H   0  0  0  0  0  0  0  0  0  0  0  0
  142.6530   79.3682  224.0201 H   0  0  0  0  0  0  0  0  0  0  0  0
  142.1345   79.9845  221.2063 H   0  0  0  0  0  0  0  0  0  0  0  0
  143.1792   78.7378  221.9501 H   0  0  0  0  0  0  0  0  0  0  0  0
  139.1807   69.8472  222.5823 H   0  0  0  0  0  0  0  0  0  0  0  0
  139.0055   68.2894  224.5099 H   0  0  0  0  0  0  0  0  0  0  0  0
  139.4186   67.8336  226.7952 H   0  0  0  0  0  0  0  0  0  0  0  0
  141.3801   70.7880  229.2107 H   0  0  0  0  0  0  0  0  0  0  0  0
  141.5533   72.3345  227.2818 H   0  0  0  0  0  0  0  0  0  0  0  0
  1  2  2  0
  2  3  1  0
  3  4  1  0
  4  5  1  0
  5  6  2  0
  5  7  1  0
  7  8  1  0
  8  9  1  0
  9 10  1  0
 10 11  1  0
 11 12  1  0
 12 13  1  0
 13 14  1  0
 14 15  1  0
 15 16  1  0
 16 17  1  0
 17 18  1  0
  2 19  1  0
 19 20  2  0
 20 21  1  0
 21 22  2  0
 22 23  1  0
 23 24  2  0
 24 25  1  0
 24 26  1  0
 26 27  2  0
 27 28  1  0
 28 29  2  0
 12  7  1  0
 18 13  1  0
 29 19  1  0
 28 22  1  0
  3 30  1  0
  4 31  1  0
  4 32  1  0
  8 33  1  0
  8 34  1  0
  9 35  1  0
  9 36  1  0
 10 37  1  0
 10 38  1  0
 11 39  1  0
 11 40  1  0
 12 41  1  6
 13 42  1  0
 14 43  1  0
 14 44  1  0
 15 45  1  0
 15 46  1  0
 16 47  1  0
 16 48  1  0
 17 49  1  0
 17 50  1  0
 18 51  1  0
 18 52  1  0
 20 53  1  0
 21 54  1  0
 23 55  1  0
 26 56  1  0
 27 57  1  0
M  END
>  <smiles>  (29) 
O=C(NCC(=O)N1CCCCC1C1CCCCC1)c1ccc2cc(F)ccc2n1

>  <score_type>  (29) 
oracle

>  <origin>  (29) 
autodockgpu

>  <m_score__min__energy>  (29) 
-8.8000000000000007

>  <m_primary>  (29) 
energy

>  <rmsd>  (29) 
1.7619407274723713

>  <m_score__min__rmsd>  (29) 
1.7619407274723713

>  <meeko>  (29) 
{"free_energy": -8.8, "intermolecular_energy": -10.29, "internal_energy": -1.5, "cluster_size": 45, "cluster_id": 1, "rank_in_cluster": 1}

>  <energy>  (29) 
-8.28

>  <cluster_rmsd>  (29) 
1.56

>  <cluster>  (29) 
1

$$$$

     RDKit          3D

 57 60  0  0  0  0  0  0  0  0999 V2000
  139.9090   71.4040  221.0880 O   0  0  0  0  0  0  0  0  0  0  0  0
  139.8140   71.9560  222.2230 C   0  0  0  0  0  0  0  0  0  0  0  0
  139.6910   73.3700  222.3490 N   0  0  0  0  0  0  0  0  0  0  0  0
  139.6770   74.1970  221.1440 C   0  0  0  0  0  0  0  0  0  0  0  0
  140.2790   75.5370  221.4320 C   0  0  0  0  0  0  0  0  0  0  0  0
  140.1540   75.9450  222.6130 O   0  0  0  0  0  0  0  0  0  0  0  0
  140.9340   76.2530  220.3970 N   0  0  0  0  0  0  0  0  0  0  0  0
  141.4720   75.4970  219.2610 C   0  0  0  0  0  0  0  0  0  0  0  0
  141.2470   76.2030  217.9470 C   0  0  0  0  0  0  0  0  0  0  0  0
  141.5710   77.6750  218.0260 C   0  0  0  0  0  0  0  0  0  0  0  0
  142.1610   78.0240  219.4010 C   0  0  0  0  0  0  0  0  0  0  0  0
  141.1030   77.6980  220.4000 C   0  0  2  0  0  0  0  0  0  0  0  0
  141.1990   78.3380  221.7230 C   0  0  0  0  0  0  0  0  0  0  0  0
  139.8230   78.9320  222.0760 C   0  0  0  0  0  0  0  0  0  0  0  0
  139.7810   79.4210  223.4810 C   0  0  0  0  0  0  0  0  0  0  0  0
  141.1060   79.2470  224.1530 C   0  0  0  0  0  0  0  0  0  0  0  0
  142.2180   79.8400  223.3400 C   0  0  0  0  0  0  0  0  0  0  0  0
  142.1710   79.4510  221.8810 C   0  0  0  0  0  0  0  0  0  0  0  0
  139.8320   71.1220  223.4230 C   0  0  0  0  0  0  0  0  0  0  0  0
  139.3370   69.8360  223.3790 C   0  0  0  0  0  0  0  0  0  0  0  0
  139.3380   69.0230  224.4900 C   0  0  0  0  0  0  0  0  0  0  0  0
  139.8590   69.5470  225.6690 C   0  0  0  0  0  0  0  0  0  0  0  0
  139.8610   68.7320  226.7820 C   0  0  0  0  0  0  0  0  0  0  0  0
  140.3790   69.2490  227.9560 C   0  0  0  0  0  0  0  0  0  0  0  0
  140.4180   68.5120  229.0980 F   0  0  0  0  0  0  0  0  0  0  0  0
  140.8660   70.5370  227.9690 C   0  0  0  0  0  0  0  0  0  0  0  0
  140.8640   71.3510  226.8540 C   0  0  0  0  0  0  0  0  0  0  0  0
  140.3500   70.8340  225.6970 C   0  0  0  0  0  0  0  0  0  0  0  0
  140.3400   71.6240  224.5850 N   0  0  0  0  0  0  0  0  0  0  0  0
  139.6140   73.7610  223.3120 H   0  0  0  0  0  0  0  0  0  0  0  0
  140.2588   73.6990  220.3543 H   0  0  0  0  0  0  0  0  0  0  0  0
  138.6368   74.3335  220.8134 H   0  0  0  0  0  0  0  0  0  0  0  0
  142.5533   75.3589  219.4080 H   0  0  0  0  0  0  0  0  0  0  0  0
  140.9463   74.5316  219.2193 H   0  0  0  0  0  0  0  0  0  0  0  0
  141.8879   75.7401  217.1822 H   0  0  0  0  0  0  0  0  0  0  0  0
  140.1818   76.1057  217.6903 H   0  0  0  0  0  0  0  0  0  0  0  0
  142.3023   77.9270  217.2439 H   0  0  0  0  0  0  0  0  0  0  0  0
  140.6453   78.2510  217.8799 H   0  0  0  0  0  0  0  0  0  0  0  0
  143.0639   77.4254  219.5921 H   0  0  0  0  0  0  0  0  0  0  0  0
  142.4528   79.0832  219.4559 H   0  0  0  0  0  0  0  0  0  0  0  0
  140.1682   78.1807  220.0788 H   0  0  0  0  0  0  0  0  0  0  0  0
  141.5524   77.5261  222.3756 H   0  0  0  0  0  0  0  0  0  0  0  0
  139.6130   79.7731  221.3989 H   0  0  0  0  0  0  0  0  0  0  0  0
  139.0678   78.1400  221.9648 H   0  0  0  0  0  0  0  0  0  0  0  0
  139.5155   80.4885  223.4818 H   0  0  0  0  0  0  0  0  0  0  0  0
  139.0308   78.8349  224.0320 H   0  0  0  0  0  0  0  0  0  0  0  0
  141.0768   79.7434  225.1342 H   0  0  0  0  0  0  0  0  0  0  0  0
  141.2971   78.1695  224.2642 H   0  0  0  0  0  0  0  0  0  0  0  0
  142.1547   80.9359  223.4104 H   0  0  0  0  0  0  0  0  0  0  0  0
  143.1616   79.4496  223.7488 H   0  0  0  0  0  0  0  0  0  0  0  0
  141.8505   80.3126  221.2770 H   0  0  0  0  0  0  0  0  0  0  0  0
  143.1681   79.1327  221.5426 H   0  0  0  0  0  0  0  0  0  0  0  0
  138.9311   69.4498  222.4324 H   0  0  0  0  0  0  0  0  0  0  0  0
  138.9418   67.9977  224.4473 H   0  0  0  0  0  0  0  0  0  0  0  0
  139.4646   67.7069  226.7376 H   0  0  0  0  0  0  0  0  0  0  0  0
  141.2747   70.9349  228.9095 H   0  0  0  0  0  0  0  0  0  0  0  0
  141.2607   72.3762  226.8947 H   0  0  0  0  0  0  0  0  0  0  0  0
  1  2  2  0
  2  3  1  0
  3  4  1  0
  4  5  1  0
  5  6  2  0
  5  7  1  0
  7  8  1  0
  8  9  1  0
  9 10  1  0
 10 11  1  0
 11 12  1  0
 12 13  1  0
 13 14  1  0
 14 15  1  0
 15 16  1  0
 16 17  1  0
 17 18  1  0
  2 19  1  0
 19 20  2  0
 20 21  1  0
 21 22  2  0
 22 23  1  0
 23 24  2  0
 24 25  1  0
 24 26  1  0
 26 27  2  0
 27 28  1  0
 28 29  2  0
 12  7  1  0
 18 13  1  0
 29 19  1  0
 28 22  1  0
  3 30  1  0
  4 31  1  0
  4 32  1  0
  8 33  1  0
  8 34  1  0
  9 35  1  0
  9 36  1  0
 10 37  1  0
 10 38  1  0
 11 39  1  0
 11 40  1  0
 12 41  1  6
 13 42  1  0
 14 43  1  0
 14 44  1  0
 15 45  1  0
 15 46  1  0
 16 47  1  0
 16 48  1  0
 17 49  1  0
 17 50  1  0
 18 51  1  0
 18 52  1  0
 20 53  1  0
 21 54  1  0
 23 55  1  0
 26 56  1  0
 27 57  1  0
M  END
>  <smiles>  (30) 
O=C(NCC(=O)N1CCCCC1C1CCCCC1)c1ccc2cc(F)ccc2n1

>  <score_type>  (30) 
oracle

>  <origin>  (30) 
autodockgpu

>  <m_score__min__energy>  (30) 
-8.8000000000000007

>  <m_primary>  (30) 
energy

>  <rmsd>  (30) 
1.5530015906101862

>  <m_score__min__rmsd>  (30) 
1.5530015906101862

>  <meeko>  (30) 
{"free_energy": -8.49, "intermolecular_energy": -9.98, "internal_energy": -1.88, "cluster_size": 45, "cluster_id": 1, "rank_in_cluster": 12}

>  <energy>  (30) 
-8.28

>  <cluster_rmsd>  (30) 
1.59

>  <cluster>  (30) 
1

$$$$

     RDKit          3D

 57 60  0  0  0  0  0  0  0  0999 V2000
  140.3430   71.6130  221.0420 O   0  0  0  0  0  0  0  0  0  0  0  0
  140.0520   72.1770  222.1370 C   0  0  0  0  0  0  0  0  0  0  0  0
  139.8290   73.5830  222.2070 N   0  0  0  0  0  0  0  0  0  0  0  0
  139.9410   74.3860  220.9910 C   0  0  0  0  0  0  0  0  0  0  0  0
  140.6330   75.6790  221.2910 C   0  0  0  0  0  0  0  0  0  0  0  0
  140.6950   75.9930  222.5050 O   0  0  0  0  0  0  0  0  0  0  0  0
  141.1650   76.4560  220.2300 N   0  0  0  0  0  0  0  0  0  0  0  0
  141.6720   75.7590  219.0430 C   0  0  0  0  0  0  0  0  0  0  0  0
  141.3100   76.4720  217.7630 C   0  0  0  0  0  0  0  0  0  0  0  0
  141.5390   77.9600  217.8530 C   0  0  0  0  0  0  0  0  0  0  0  0
  142.1990   78.3250  219.1920 C   0  0  0  0  0  0  0  0  0  0  0  0
  141.2360   77.9090  220.2530 C   0  0  2  0  0  0  0  0  0  0  0  0
  141.3820   78.5310  221.5800 C   0  0  0  0  0  0  0  0  0  0  0  0
  139.9810   78.9150  222.0920 C   0  0  0  0  0  0  0  0  0  0  0  0
  140.0200   79.3650  223.5110 C   0  0  0  0  0  0  0  0  0  0  0  0
  141.4200   79.3700  224.0370 C   0  0  0  0  0  0  0  0  0  0  0  0
  142.3450   80.1320  223.1350 C   0  0  0  0  0  0  0  0  0  0  0  0
  142.1990   79.7690  221.6760 C   0  0  0  0  0  0  0  0  0  0  0  0
  139.9460   71.3670  223.3490 C   0  0  0  0  0  0  0  0  0  0  0  0
  139.3750   70.1120  223.2930 C   0  0  0  0  0  0  0  0  0  0  0  0
  139.2580   69.3230  224.4150 C   0  0  0  0  0  0  0  0  0  0  0  0
  139.7390   69.8360  225.6150 C   0  0  0  0  0  0  0  0  0  0  0  0
  139.6220   69.0440  226.7390 C   0  0  0  0  0  0  0  0  0  0  0  0
  140.0990   69.5500  227.9340 C   0  0  0  0  0  0  0  0  0  0  0  0
  140.0230   68.8350  229.0880 F   0  0  0  0  0  0  0  0  0  0  0  0
  140.6630   70.8070  227.9580 C   0  0  0  0  0  0  0  0  0  0  0  0
  140.7800   71.5980  226.8330 C   0  0  0  0  0  0  0  0  0  0  0  0
  140.3060   71.0900  225.6540 C   0  0  0  0  0  0  0  0  0  0  0  0
  140.4120   71.8580  224.5310 N   0  0  0  0  0  0  0  0  0  0  0  0
  139.5900   73.9850  223.1390 H   0  0  0  0  0  0  0  0  0  0  0  0
  140.5198   73.8293  220.2393 H   0  0  0  0  0  0  0  0  0  0  0  0
  138.9329   74.5980  220.6051 H   0  0  0  0  0  0  0  0  0  0  0  0
  142.7677   75.6919  219.1130 H   0  0  0  0  0  0  0  0  0  0  0  0
  141.2098   74.7612  219.0151 H   0  0  0  0  0  0  0  0  0  0  0  0
  141.9263   76.0679  216.9464 H   0  0  0  0  0  0  0  0  0  0  0  0
  140.2385   76.3068  217.5769 H   0  0  0  0  0  0  0  0  0  0  0  0
  142.1953   78.2754  217.0285 H   0  0  0  0  0  0  0  0  0  0  0  0
  140.5685   78.4733  217.7841 H   0  0  0  0  0  0  0  0  0  0  0  0
  143.1512   77.7866  219.3079 H   0  0  0  0  0  0  0  0  0  0  0  0
  142.4227   79.4004  219.2506 H   0  0  0  0  0  0  0  0  0  0  0  0
  140.2503   78.3305  220.0064 H   0  0  0  0  0  0  0  0  0  0  0  0
  141.9142   77.7660  222.1643 H   0  0  0  0  0  0  0  0  0  0  0  0
  139.5847   79.7308  221.4696 H   0  0  0  0  0  0  0  0  0  0  0  0
  139.3367   78.0255  222.0308 H   0  0  0  0  0  0  0  0  0  0  0  0
  139.6082   80.3829  223.5763 H   0  0  0  0  0  0  0  0  0  0  0  0
  139.4227   78.6663  224.1152 H   0  0  0  0  0  0  0  0  0  0  0  0
  141.4259   79.8381  225.0324 H   0  0  0  0  0  0  0  0  0  0  0  0
  141.7715   78.3291  224.0909 H   0  0  0  0  0  0  0  0  0  0  0  0
  142.1361   81.2059  223.2491 H   0  0  0  0  0  0  0  0  0  0  0  0
  143.3721   79.8728  223.4315 H   0  0  0  0  0  0  0  0  0  0  0  0
  141.6982   80.5873  221.1379 H   0  0  0  0  0  0  0  0  0  0  0  0
  143.1894   79.6040  221.2267 H   0  0  0  0  0  0  0  0  0  0  0  0
  139.0046   69.7331  222.3290 H   0  0  0  0  0  0  0  0  0  0  0  0
  138.8010   68.3237  224.3644 H   0  0  0  0  0  0  0  0  0  0  0  0
  139.1651   68.0448  226.6861 H   0  0  0  0  0  0  0  0  0  0  0  0
  141.0365   71.1973  228.9162 H   0  0  0  0  0  0  0  0  0  0  0  0
  141.2364   72.5976  226.8822 H   0  0  0  0  0  0  0  0  0  0  0  0
  1  2  2  0
  2  3  1  0
  3  4  1  0
  4  5  1  0
  5  6  2  0
  5  7  1  0
  7  8  1  0
  8  9  1  0
  9 10  1  0
 10 11  1  0
 11 12  1  0
 12 13  1  0
 13 14  1  0
 14 15  1  0
 15 16  1  0
 16 17  1  0
 17 18  1  0
  2 19  1  0
 19 20  2  0
 20 21  1  0
 21 22  2  0
 22 23  1  0
 23 24  2  0
 24 25  1  0
 24 26  1  0
 26 27  2  0
 27 28  1  0
 28 29  2  0
 12  7  1  0
 18 13  1  0
 29 19  1  0
 28 22  1  0
  3 30  1  0
  4 31  1  0
  4 32  1  0
  8 33  1  0
  8 34  1  0
  9 35  1  0
  9 36  1  0
 10 37  1  0
 10 38  1  0
 11 39  1  0
 11 40  1  0
 12 41  1  6
 13 42  1  0
 14 43  1  0
 14 44  1  0
 15 45  1  0
 15 46  1  0
 16 47  1  0
 16 48  1  0
 17 49  1  0
 17 50  1  0
 18 51  1  0
 18 52  1  0
 20 53  1  0
 21 54  1  0
 23 55  1  0
 26 56  1  0
 27 57  1  0
M  END
>  <smiles>  (31) 
O=C(NCC(=O)N1CCCCC1C1CCCCC1)c1ccc2cc(F)ccc2n1

>  <score_type>  (31) 
oracle

>  <origin>  (31) 
autodockgpu

>  <m_score__min__energy>  (31) 
-8.8000000000000007

>  <m_primary>  (31) 
energy

>  <rmsd>  (31) 
1.7150000186604832

>  <m_score__min__rmsd>  (31) 
1.7150000186604832

>  <meeko>  (31) 
{"free_energy": -8.62, "intermolecular_energy": -10.11, "internal_energy": -1.83, "cluster_size": 45, "cluster_id": 1, "rank_in_cluster": 6}

>  <energy>  (31) 
-8.25

>  <cluster_rmsd>  (31) 
1.57

>  <cluster>  (31) 
1

$$$$

     RDKit          3D

 57 60  0  0  0  0  0  0  0  0999 V2000
  140.4290   71.6390  221.0890 O   0  0  0  0  0  0  0  0  0  0  0  0
  140.1010   72.2020  222.1740 C   0  0  0  0  0  0  0  0  0  0  0  0
  139.8490   73.6030  222.2330 N   0  0  0  0  0  0  0  0  0  0  0  0
  139.9760   74.4050  221.0170 C   0  0  0  0  0  0  0  0  0  0  0  0
  140.6910   75.6840  221.3160 C   0  0  0  0  0  0  0  0  0  0  0  0
  140.7880   75.9800  222.5330 O   0  0  0  0  0  0  0  0  0  0  0  0
  141.2040   76.4710  220.2530 N   0  0  0  0  0  0  0  0  0  0  0  0
  141.7140   75.7840  219.0620 C   0  0  0  0  0  0  0  0  0  0  0  0
  141.3320   76.4920  217.7850 C   0  0  0  0  0  0  0  0  0  0  0  0
  141.5380   77.9830  217.8750 C   0  0  0  0  0  0  0  0  0  0  0  0
  142.2020   78.3570  219.2110 C   0  0  0  0  0  0  0  0  0  0  0  0
  141.2530   77.9250  220.2770 C   0  0  2  0  0  0  0  0  0  0  0  0
  141.3980   78.5470  221.6040 C   0  0  0  0  0  0  0  0  0  0  0  0
  139.9960   78.9210  222.1210 C   0  0  0  0  0  0  0  0  0  0  0  0
  140.0360   79.3710  223.5400 C   0  0  0  0  0  0  0  0  0  0  0  0
  141.4380   79.3860  224.0610 C   0  0  0  0  0  0  0  0  0  0  0  0
  142.3540   80.1550  223.1570 C   0  0  0  0  0  0  0  0  0  0  0  0
  142.2060   79.7910  221.6980 C   0  0  0  0  0  0  0  0  0  0  0  0
  139.9800   71.3940  223.3860 C   0  0  0  0  0  0  0  0  0  0  0  0
  139.3760   70.1560  223.3340 C   0  0  0  0  0  0  0  0  0  0  0  0
  139.2450   69.3690  224.4560 C   0  0  0  0  0  0  0  0  0  0  0  0
  139.7460   69.8680  225.6530 C   0  0  0  0  0  0  0  0  0  0  0  0
  139.6150   69.0790  226.7780 C   0  0  0  0  0  0  0  0  0  0  0  0
  140.1130   69.5720  227.9700 C   0  0  0  0  0  0  0  0  0  0  0  0
  140.0250   68.8580  229.1240 F   0  0  0  0  0  0  0  0  0  0  0  0
  140.7110   70.8120  227.9910 C   0  0  0  0  0  0  0  0  0  0  0  0
  140.8420   71.6010  226.8650 C   0  0  0  0  0  0  0  0  0  0  0  0
  140.3470   71.1070  225.6890 C   0  0  0  0  0  0  0  0  0  0  0  0
  140.4670   71.8720  224.5660 N   0  0  0  0  0  0  0  0  0  0  0  0
  139.5810   74.0040  223.1570 H   0  0  0  0  0  0  0  0  0  0  0  0
  140.5443   73.8379  220.2651 H   0  0  0  0  0  0  0  0  0  0  0  0
  138.9718   74.6360  220.6321 H   0  0  0  0  0  0  0  0  0  0  0  0
  142.8111   75.7347  219.1246 H   0  0  0  0  0  0  0  0  0  0  0  0
  141.2677   74.7790  219.0361 H   0  0  0  0  0  0  0  0  0  0  0  0
  141.9491   76.0984  216.9638 H   0  0  0  0  0  0  0  0  0  0  0  0
  140.2621   76.3098  217.6058 H   0  0  0  0  0  0  0  0  0  0  0  0
  142.1835   78.3096  217.0463 H   0  0  0  0  0  0  0  0  0  0  0  0
  140.5592   78.4811  217.8133 H   0  0  0  0  0  0  0  0  0  0  0  0
  143.1632   77.8333  219.3199 H   0  0  0  0  0  0  0  0  0  0  0  0
  142.4097   79.4356  219.2696 H   0  0  0  0  0  0  0  0  0  0  0  0
  140.2597   78.3319  220.0366 H   0  0  0  0  0  0  0  0  0  0  0  0
  141.9370   77.7850  222.1861 H   0  0  0  0  0  0  0  0  0  0  0  0
  139.5919   79.7341  221.5001 H   0  0  0  0  0  0  0  0  0  0  0  0
  139.3581   78.0268  222.0619 H   0  0  0  0  0  0  0  0  0  0  0  0
  139.6170   80.3859  223.6070 H   0  0  0  0  0  0  0  0  0  0  0  0
  139.4456   78.6681  224.1461 H   0  0  0  0  0  0  0  0  0  0  0  0
  141.4439   79.8534  225.0567 H   0  0  0  0  0  0  0  0  0  0  0  0
  141.7972   78.3476  224.1126 H   0  0  0  0  0  0  0  0  0  0  0  0
  142.1373   81.2273  223.2721 H   0  0  0  0  0  0  0  0  0  0  0  0
  143.3840   79.9038  223.4503 H   0  0  0  0  0  0  0  0  0  0  0  0
  141.6974   80.6057  221.1617 H   0  0  0  0  0  0  0  0  0  0  0  0
  143.1962   79.6334  221.2457 H   0  0  0  0  0  0  0  0  0  0  0  0
  138.9892   69.7878  222.3723 H   0  0  0  0  0  0  0  0  0  0  0  0
  138.7618   68.3820  224.4072 H   0  0  0  0  0  0  0  0  0  0  0  0
  139.1313   68.0923  226.7280 H   0  0  0  0  0  0  0  0  0  0  0  0
  141.1017   71.1911  228.9468 H   0  0  0  0  0  0  0  0  0  0  0  0
  141.3254   72.5880  226.9118 H   0  0  0  0  0  0  0  0  0  0  0  0
  1  2  2  0
  2  3  1  0
  3  4  1  0
  4  5  1  0
  5  6  2  0
  5  7  1  0
  7  8  1  0
  8  9  1  0
  9 10  1  0
 10 11  1  0
 11 12  1  0
 12 13  1  0
 13 14  1  0
 14 15  1  0
 15 16  1  0
 16 17  1  0
 17 18  1  0
  2 19  1  0
 19 20  2  0
 20 21  1  0
 21 22  2  0
 22 23  1  0
 23 24  2  0
 24 25  1  0
 24 26  1  0
 26 27  2  0
 27 28  1  0
 28 29  2  0
 12  7  1  0
 18 13  1  0
 29 19  1  0
 28 22  1  0
  3 30  1  0
  4 31  1  0
  4 32  1  0
  8 33  1  0
  8 34  1  0
  9 35  1  0
  9 36  1  0
 10 37  1  0
 10 38  1  0
 11 39  1  0
 11 40  1  0
 12 41  1  6
 13 42  1  0
 14 43  1  0
 14 44  1  0
 15 45  1  0
 15 46  1  0
 16 47  1  0
 16 48  1  0
 17 49  1  0
 17 50  1  0
 18 51  1  0
 18 52  1  0
 20 53  1  0
 21 54  1  0
 23 55  1  0
 26 56  1  0
 27 57  1  0
M  END
>  <smiles>  (32) 
O=C(NCC(=O)N1CCCCC1C1CCCCC1)c1ccc2cc(F)ccc2n1

>  <score_type>  (32) 
oracle

>  <origin>  (32) 
autodockgpu

>  <m_score__min__energy>  (32) 
-8.8000000000000007

>  <m_primary>  (32) 
energy

>  <rmsd>  (32) 
1.7472450869748142

>  <m_score__min__rmsd>  (32) 
1.7472450869748142

>  <meeko>  (32) 
{"free_energy": -8.63, "intermolecular_energy": -10.12, "internal_energy": -1.8, "cluster_size": 45, "cluster_id": 1, "rank_in_cluster": 4}

>  <energy>  (32) 
-8.23

>  <cluster_rmsd>  (32) 
1.57

>  <cluster>  (32) 
1

$$$$

     RDKit          3D

 57 60  0  0  0  0  0  0  0  0999 V2000
  140.5950   71.6830  221.0720 O   0  0  0  0  0  0  0  0  0  0  0  0
  140.1930   72.2100  222.1500 C   0  0  0  0  0  0  0  0  0  0  0  0
  139.8150   73.5830  222.2050 N   0  0  0  0  0  0  0  0  0  0  0  0
  139.8980   74.3970  220.9930 C   0  0  0  0  0  0  0  0  0  0  0  0
  140.8600   75.5250  221.1960 C   0  0  0  0  0  0  0  0  0  0  0  0
  141.0390   75.8780  222.3880 O   0  0  0  0  0  0  0  0  0  0  0  0
  141.4970   76.1190  220.0760 N   0  0  0  0  0  0  0  0  0  0  0  0
  140.7410   77.0930  219.2820 C   0  0  0  0  0  0  0  0  0  0  0  0
  141.5910   78.2630  218.8510 C   0  0  0  0  0  0  0  0  0  0  0  0
  142.9390   77.8290  218.3300 C   0  0  0  0  0  0  0  0  0  0  0  0
  143.0260   76.2950  218.2680 C   0  0  0  0  0  0  0  0  0  0  0  0
  142.8610   75.8160  219.6710 C   0  0  2  0  0  0  0  0  0  0  0  0
  143.3450   74.4610  219.9840 C   0  0  0  0  0  0  0  0  0  0  0  0
  144.7960   74.5690  220.4910 C   0  0  0  0  0  0  0  0  0  0  0  0
  145.2910   73.2680  221.0190 C   0  0  0  0  0  0  0  0  0  0  0  0
  144.2590   72.1960  220.8650 C   0  0  0  0  0  0  0  0  0  0  0  0
  143.7470   72.1220  219.4580 C   0  0  0  0  0  0  0  0  0  0  0  0
  143.3790   73.4670  218.8790 C   0  0  0  0  0  0  0  0  0  0  0  0
  140.1160   71.3900  223.3580 C   0  0  0  0  0  0  0  0  0  0  0  0
  139.5590   70.1300  223.3040 C   0  0  0  0  0  0  0  0  0  0  0  0
  139.4700   69.3320  224.4220 C   0  0  0  0  0  0  0  0  0  0  0  0
  139.9660   69.8420  225.6170 C   0  0  0  0  0  0  0  0  0  0  0  0
  139.8770   69.0410  226.7370 C   0  0  0  0  0  0  0  0  0  0  0  0
  140.3690   69.5450  227.9270 C   0  0  0  0  0  0  0  0  0  0  0  0
  140.3210   68.8210  229.0770 F   0  0  0  0  0  0  0  0  0  0  0  0
  140.9200   70.8070  227.9500 C   0  0  0  0  0  0  0  0  0  0  0  0
  141.0080   71.6070  226.8280 C   0  0  0  0  0  0  0  0  0  0  0  0
  140.5190   71.1030  225.6540 C   0  0  0  0  0  0  0  0  0  0  0  0
  140.5980   71.8790  224.5360 N   0  0  0  0  0  0  0  0  0  0  0  0
  139.4900   73.9550  223.1220 H   0  0  0  0  0  0  0  0  0  0  0  0
  140.2429   73.7707  220.1570 H   0  0  0  0  0  0  0  0  0  0  0  0
  138.9032   74.8085  220.7669 H   0  0  0  0  0  0  0  0  0  0  0  0
  140.3495   76.5907  218.3851 H   0  0  0  0  0  0  0  0  0  0  0  0
  139.9273   77.4819  219.9118 H   0  0  0  0  0  0  0  0  0  0  0  0
  141.0634   78.8098  218.0556 H   0  0  0  0  0  0  0  0  0  0  0  0
  141.7593   78.8999  219.7320 H   0  0  0  0  0  0  0  0  0  0  0  0
  143.0863   78.2407  217.3206 H   0  0  0  0  0  0  0  0  0  0  0  0
  143.7192   78.2016  219.0100 H   0  0  0  0  0  0  0  0  0  0  0  0
  142.2253   75.8924  217.6302 H   0  0  0  0  0  0  0  0  0  0  0  0
  143.9831   75.9631  217.8392 H   0  0  0  0  0  0  0  0  0  0  0  0
  143.5668   76.3695  220.3078 H   0  0  0  0  0  0  0  0  0  0  0  0
  142.6080   74.0881  220.7105 H   0  0  0  0  0  0  0  0  0  0  0  0
  145.4421   74.8855  219.6589 H   0  0  0  0  0  0  0  0  0  0  0  0
  144.8205   75.3038  221.3092 H   0  0  0  0  0  0  0  0  0  0  0  0
  146.1963   72.9771  220.4661 H   0  0  0  0  0  0  0  0  0  0  0  0
  145.5132   73.3875  222.0897 H   0  0  0  0  0  0  0  0  0  0  0  0
  144.7069   71.2279  221.1334 H   0  0  0  0  0  0  0  0  0  0  0  0
  143.4135   72.4343  221.5271 H   0  0  0  0  0  0  0  0  0  0  0  0
  144.5279   71.6731  218.8266 H   0  0  0  0  0  0  0  0  0  0  0  0
  142.8286   71.5170  219.4795 H   0  0  0  0  0  0  0  0  0  0  0  0
  144.1286   73.7675  218.1321 H   0  0  0  0  0  0  0  0  0  0  0  0
  142.3949   73.4114  218.3906 H   0  0  0  0  0  0  0  0  0  0  0  0
  139.1764   69.7532  222.3440 H   0  0  0  0  0  0  0  0  0  0  0  0
  139.0231   68.3281  224.3721 H   0  0  0  0  0  0  0  0  0  0  0  0
  139.4305   68.0371  226.6851 H   0  0  0  0  0  0  0  0  0  0  0  0
  141.3069   71.1946  228.9040 H   0  0  0  0  0  0  0  0  0  0  0  0
  141.4543   72.6112  226.8763 H   0  0  0  0  0  0  0  0  0  0  0  0
  1  2  2  0
  2  3  1  0
  3  4  1  0
  4  5  1  0
  5  6  2  0
  5  7  1  0
  7  8  1  0
  8  9  1  0
  9 10  1  0
 10 11  1  0
 11 12  1  0
 12 13  1  0
 13 14  1  0
 14 15  1  0
 15 16  1  0
 16 17  1  0
 17 18  1  0
  2 19  1  0
 19 20  2  0
 20 21  1  0
 21 22  2  0
 22 23  1  0
 23 24  2  0
 24 25  1  0
 24 26  1  0
 26 27  2  0
 27 28  1  0
 28 29  2  0
 12  7  1  0
 18 13  1  0
 29 19  1  0
 28 22  1  0
  3 30  1  0
  4 31  1  0
  4 32  1  0
  8 33  1  0
  8 34  1  0
  9 35  1  0
  9 36  1  0
 10 37  1  0
 10 38  1  0
 11 39  1  0
 11 40  1  0
 12 41  1  1
 13 42  1  0
 14 43  1  0
 14 44  1  0
 15 45  1  0
 15 46  1  0
 16 47  1  0
 16 48  1  0
 17 49  1  0
 17 50  1  0
 18 51  1  0
 18 52  1  0
 20 53  1  0
 21 54  1  0
 23 55  1  0
 26 56  1  0
 27 57  1  0
M  END
>  <smiles>  (33) 
O=C(NCC(=O)N1CCCCC1C1CCCCC1)c1ccc2cc(F)ccc2n1

>  <score_type>  (33) 
oracle

>  <origin>  (33) 
autodockgpu

>  <m_score__min__energy>  (33) 
-8.8000000000000007

>  <m_primary>  (33) 
energy

>  <rmsd>  (33) 
1.923412914020434

>  <m_score__min__rmsd>  (33) 
1.923412914020434

>  <meeko>  (33) 
{"free_energy": -8.33, "intermolecular_energy": -9.83, "internal_energy": -2.13, "cluster_size": 45, "cluster_id": 1, "rank_in_cluster": 24}

>  <energy>  (33) 
-8.19

>  <cluster_rmsd>  (33) 
0.95

>  <cluster>  (33) 
1

$$$$

     RDKit          3D

 57 60  0  0  0  0  0  0  0  0999 V2000
  139.3480   71.7390  221.0320 O   0  0  0  0  0  0  0  0  0  0  0  0
  139.9510   72.1480  222.0670 C   0  0  0  0  0  0  0  0  0  0  0  0
  140.6960   73.3630  222.0570 N   0  0  0  0  0  0  0  0  0  0  0  0
  140.7650   74.1490  220.8270 C   0  0  0  0  0  0  0  0  0  0  0  0
  141.2520   75.5320  221.1260 C   0  0  0  0  0  0  0  0  0  0  0  0
  141.3400   75.8250  222.3450 O   0  0  0  0  0  0  0  0  0  0  0  0
  141.5770   76.4110  220.0610 N   0  0  0  0  0  0  0  0  0  0  0  0
  142.1440   75.8400  218.8360 C   0  0  0  0  0  0  0  0  0  0  0  0
  141.5930   76.4920  217.5920 C   0  0  0  0  0  0  0  0  0  0  0  0
  141.5460   77.9950  217.7070 C   0  0  0  0  0  0  0  0  0  0  0  0
  142.1930   78.4560  219.0240 C   0  0  0  0  0  0  0  0  0  0  0  0
  141.3790   77.8520  220.1170 C   0  0  2  0  0  0  0  0  0  0  0  0
  141.4730   78.4690  221.4510 C   0  0  0  0  0  0  0  0  0  0  0  0
  140.0450   78.6950  221.9830 C   0  0  0  0  0  0  0  0  0  0  0  0
  140.0530   79.1290  223.4070 C   0  0  0  0  0  0  0  0  0  0  0  0
  141.4510   79.2770  223.9180 C   0  0  0  0  0  0  0  0  0  0  0  0
  142.2790   80.1440  223.0170 C   0  0  0  0  0  0  0  0  0  0  0  0
  142.1550   79.7850  221.5560 C   0  0  0  0  0  0  0  0  0  0  0  0
  139.8800   71.3540  223.2920 C   0  0  0  0  0  0  0  0  0  0  0  0
  139.2590   70.1230  223.2830 C   0  0  0  0  0  0  0  0  0  0  0  0
  139.1730   69.3490  224.4180 C   0  0  0  0  0  0  0  0  0  0  0  0
  139.7390   69.8530  225.5840 C   0  0  0  0  0  0  0  0  0  0  0  0
  139.6540   69.0770  226.7220 C   0  0  0  0  0  0  0  0  0  0  0  0
  140.2150   69.5760  227.8830 C   0  0  0  0  0  0  0  0  0  0  0  0
  140.1750   68.8740  229.0470 F   0  0  0  0  0  0  0  0  0  0  0  0
  140.8290   70.8080  227.8610 C   0  0  0  0  0  0  0  0  0  0  0  0
  140.9140   71.5840  226.7220 C   0  0  0  0  0  0  0  0  0  0  0  0
  140.3560   71.0850  225.5770 C   0  0  0  0  0  0  0  0  0  0  0  0
  140.4310   71.8370  224.4420 N   0  0  0  0  0  0  0  0  0  0  0  0
  141.1670   73.6440  222.9430 H   0  0  0  0  0  0  0  0  0  0  0  0
  141.4577   73.6637  220.1237 H   0  0  0  0  0  0  0  0  0  0  0  0
  139.7608   74.2097  220.3822 H   0  0  0  0  0  0  0  0  0  0  0  0
  143.2352   75.9775  218.8538 H   0  0  0  0  0  0  0  0  0  0  0  0
  141.8738   74.7741  218.8052 H   0  0  0  0  0  0  0  0  0  0  0  0
  142.2322   76.2223  216.7384 H   0  0  0  0  0  0  0  0  0  0  0  0
  140.5629   76.1327  217.4515 H   0  0  0  0  0  0  0  0  0  0  0  0
  142.0907   78.4398  216.8612 H   0  0  0  0  0  0  0  0  0  0  0  0
  140.4951   78.3196  217.6947 H   0  0  0  0  0  0  0  0  0  0  0  0
  143.2331   78.1029  219.0826 H   0  0  0  0  0  0  0  0  0  0  0  0
  142.2156   79.5532  219.0986 H   0  0  0  0  0  0  0  0  0  0  0  0
  140.3214   78.0871  219.9269 H   0  0  0  0  0  0  0  0  0  0  0  0
  142.0900   77.7574  222.0192 H   0  0  0  0  0  0  0  0  0  0  0  0
  139.5566   79.4715  221.3759 H   0  0  0  0  0  0  0  0  0  0  0  0
  139.4984   77.7427  221.9166 H   0  0  0  0  0  0  0  0  0  0  0  0
  139.5359   80.0963  223.4905 H   0  0  0  0  0  0  0  0  0  0  0  0
  139.5410   78.3632  224.0081 H   0  0  0  0  0  0  0  0  0  0  0  0
  141.4189   79.7309  224.9195 H   0  0  0  0  0  0  0  0  0  0  0  0
  141.9118   78.2788  223.9538 H   0  0  0  0  0  0  0  0  0  0  0  0
  141.9584   81.1881  223.1475 H   0  0  0  0  0  0  0  0  0  0  0  0
  143.3313   79.9925  223.2994 H   0  0  0  0  0  0  0  0  0  0  0  0
  141.5640   80.5521  221.0341 H   0  0  0  0  0  0  0  0  0  0  0  0
  143.1522   79.7310  221.0948 H   0  0  0  0  0  0  0  0  0  0  0  0
  138.8213   69.7501  222.3453 H   0  0  0  0  0  0  0  0  0  0  0  0
  138.6751   68.3683  224.4033 H   0  0  0  0  0  0  0  0  0  0  0  0
  139.1573   68.0957  226.7060 H   0  0  0  0  0  0  0  0  0  0  0  0
  141.2716   71.1913  228.7922 H   0  0  0  0  0  0  0  0  0  0  0  0
  141.4110   72.5652  226.7349 H   0  0  0  0  0  0  0  0  0  0  0  0
  1  2  2  0
  2  3  1  0
  3  4  1  0
  4  5  1  0
  5  6  2  0
  5  7  1  0
  7  8  1  0
  8  9  1  0
  9 10  1  0
 10 11  1  0
 11 12  1  0
 12 13  1  0
 13 14  1  0
 14 15  1  0
 15 16  1  0
 16 17  1  0
 17 18  1  0
  2 19  1  0
 19 20  2  0
 20 21  1  0
 21 22  2  0
 22 23  1  0
 23 24  2  0
 24 25  1  0
 24 26  1  0
 26 27  2  0
 27 28  1  0
 28 29  2  0
 12  7  1  0
 18 13  1  0
 29 19  1  0
 28 22  1  0
  3 30  1  0
  4 31  1  0
  4 32  1  0
  8 33  1  0
  8 34  1  0
  9 35  1  0
  9 36  1  0
 10 37  1  0
 10 38  1  0
 11 39  1  0
 11 40  1  0
 12 41  1  6
 13 42  1  0
 14 43  1  0
 14 44  1  0
 15 45  1  0
 15 46  1  0
 16 47  1  0
 16 48  1  0
 17 49  1  0
 17 50  1  0
 18 51  1  0
 18 52  1  0
 20 53  1  0
 21 54  1  0
 23 55  1  0
 26 56  1  0
 27 57  1  0
M  END
>  <smiles>  (34) 
O=C(NCC(=O)N1CCCCC1C1CCCCC1)c1ccc2cc(F)ccc2n1

>  <score_type>  (34) 
oracle

>  <origin>  (34) 
autodockgpu

>  <m_score__min__energy>  (34) 
-8.8000000000000007

>  <m_primary>  (34) 
energy

>  <rmsd>  (34) 
1.9360239645003152

>  <m_score__min__rmsd>  (34) 
1.9360239645003152

>  <meeko>  (34) 
{"free_energy": -7.84, "intermolecular_energy": -9.33, "internal_energy": -2.12, "cluster_size": 45, "cluster_id": 1, "rank_in_cluster": 42}

>  <energy>  (34) 
-8.18

>  <cluster_rmsd>  (34) 
1.53

>  <cluster>  (34) 
1

$$$$

     RDKit          3D

 57 60  0  0  0  0  0  0  0  0999 V2000
  140.3830   71.3940  221.0530 O   0  0  0  0  0  0  0  0  0  0  0  0
  140.0970   71.9860  222.1340 C   0  0  0  0  0  0  0  0  0  0  0  0
  139.8750   73.3930  222.1710 N   0  0  0  0  0  0  0  0  0  0  0  0
  139.9820   74.1660  220.9350 C   0  0  0  0  0  0  0  0  0  0  0  0
  140.6720   75.4670  221.2000 C   0  0  0  0  0  0  0  0  0  0  0  0
  140.5760   75.9030  222.3750 O   0  0  0  0  0  0  0  0  0  0  0  0
  141.3720   76.1210  220.1540 N   0  0  0  0  0  0  0  0  0  0  0  0
  140.6650   77.1450  219.3770 C   0  0  0  0  0  0  0  0  0  0  0  0
  141.5420   78.3310  219.0630 C   0  0  0  0  0  0  0  0  0  0  0  0
  142.9150   77.9190  218.5920 C   0  0  0  0  0  0  0  0  0  0  0  0
  142.9980   76.3910  218.4460 C   0  0  0  0  0  0  0  0  0  0  0  0
  142.7550   75.8320  219.8070 C   0  0  2  0  0  0  0  0  0  0  0  0
  143.2160   74.4570  220.0660 C   0  0  0  0  0  0  0  0  0  0  0  0
  144.7060   74.5100  220.4540 C   0  0  0  0  0  0  0  0  0  0  0  0
  145.1960   73.1870  220.9260 C   0  0  0  0  0  0  0  0  0  0  0  0
  144.1190   72.1520  220.8470 C   0  0  0  0  0  0  0  0  0  0  0  0
  143.4910   72.1130  219.4860 C   0  0  0  0  0  0  0  0  0  0  0  0
  143.1240   73.4770  218.9520 C   0  0  0  0  0  0  0  0  0  0  0  0
  139.9960   71.2050  223.3660 C   0  0  0  0  0  0  0  0  0  0  0  0
  139.4480   69.9400  223.3400 C   0  0  0  0  0  0  0  0  0  0  0  0
  139.3370   69.1780  224.4810 C   0  0  0  0  0  0  0  0  0  0  0  0
  139.8000   69.7310  225.6710 C   0  0  0  0  0  0  0  0  0  0  0  0
  139.6890   68.9670  226.8140 C   0  0  0  0  0  0  0  0  0  0  0  0
  140.1480   69.5130  227.9990 C   0  0  0  0  0  0  0  0  0  0  0  0
  140.0760   68.8260  229.1700 F   0  0  0  0  0  0  0  0  0  0  0  0
  140.6900   70.7780  227.9930 C   0  0  0  0  0  0  0  0  0  0  0  0
  140.8010   71.5420  226.8480 C   0  0  0  0  0  0  0  0  0  0  0  0
  140.3440   70.9960  225.6800 C   0  0  0  0  0  0  0  0  0  0  0  0
  140.4460   71.7360  224.5390 N   0  0  0  0  0  0  0  0  0  0  0  0
  139.6410   73.8180  223.0930 H   0  0  0  0  0  0  0  0  0  0  0  0
  140.5597   73.5918  220.1957 H   0  0  0  0  0  0  0  0  0  0  0  0
  138.9723   74.3665  220.5473 H   0  0  0  0  0  0  0  0  0  0  0  0
  140.3222   76.6983  218.4320 H   0  0  0  0  0  0  0  0  0  0  0  0
  139.8188   77.5025  219.9821 H   0  0  0  0  0  0  0  0  0  0  0  0
  141.0613   78.9273  218.2735 H   0  0  0  0  0  0  0  0  0  0  0  0
  141.6643   78.9135  219.9881 H   0  0  0  0  0  0  0  0  0  0  0  0
  143.1192   78.3873  217.6178 H   0  0  0  0  0  0  0  0  0  0  0  0
  143.6586   78.2465  219.3335 H   0  0  0  0  0  0  0  0  0  0  0  0
  142.2313   76.0324  217.7435 H   0  0  0  0  0  0  0  0  0  0  0  0
  143.9757   76.0774  218.0513 H   0  0  0  0  0  0  0  0  0  0  0  0
  143.4274   76.3417  220.5128 H   0  0  0  0  0  0  0  0  0  0  0  0
  142.5290   74.0991  220.8470 H   0  0  0  0  0  0  0  0  0  0  0  0
  145.2931   74.8155  219.5754 H   0  0  0  0  0  0  0  0  0  0  0  0
  144.8225   75.2330  221.2748 H   0  0  0  0  0  0  0  0  0  0  0  0
  146.0424   72.8728  220.2976 H   0  0  0  0  0  0  0  0  0  0  0  0
  145.5083   73.2855  221.9761 H   0  0  0  0  0  0  0  0  0  0  0  0
  144.5541   71.1662  221.0679 H   0  0  0  0  0  0  0  0  0  0  0  0
  143.3393   72.4097  221.5789 H   0  0  0  0  0  0  0  0  0  0  0  0
  144.2013   71.6456  218.7882 H   0  0  0  0  0  0  0  0  0  0  0  0
  142.5568   71.5395  219.5773 H   0  0  0  0  0  0  0  0  0  0  0  0
  143.8198   73.7611  218.1488 H   0  0  0  0  0  0  0  0  0  0  0  0
  142.1020   73.4615  218.5456 H   0  0  0  0  0  0  0  0  0  0  0  0
  139.0907   69.5297  222.3840 H   0  0  0  0  0  0  0  0  0  0  0  0
  138.8986   68.1695  224.4531 H   0  0  0  0  0  0  0  0  0  0  0  0
  139.2507   67.9585  226.7841 H   0  0  0  0  0  0  0  0  0  0  0  0
  141.0510   71.1994  228.9428 H   0  0  0  0  0  0  0  0  0  0  0  0
  141.2398   72.5503  226.8742 H   0  0  0  0  0  0  0  0  0  0  0  0
  1  2  2  0
  2  3  1  0
  3  4  1  0
  4  5  1  0
  5  6  2  0
  5  7  1  0
  7  8  1  0
  8  9  1  0
  9 10  1  0
 10 11  1  0
 11 12  1  0
 12 13  1  0
 13 14  1  0
 14 15  1  0
 15 16  1  0
 16 17  1  0
 17 18  1  0
  2 19  1  0
 19 20  2  0
 20 21  1  0
 21 22  2  0
 22 23  1  0
 23 24  2  0
 24 25  1  0
 24 26  1  0
 26 27  2  0
 27 28  1  0
 28 29  2  0
 12  7  1  0
 18 13  1  0
 29 19  1  0
 28 22  1  0
  3 30  1  0
  4 31  1  0
  4 32  1  0
  8 33  1  0
  8 34  1  0
  9 35  1  0
  9 36  1  0
 10 37  1  0
 10 38  1  0
 11 39  1  0
 11 40  1  0
 12 41  1  1
 13 42  1  0
 14 43  1  0
 14 44  1  0
 15 45  1  0
 15 46  1  0
 16 47  1  0
 16 48  1  0
 17 49  1  0
 17 50  1  0
 18 51  1  0
 18 52  1  0
 20 53  1  0
 21 54  1  0
 23 55  1  0
 26 56  1  0
 27 57  1  0
M  END
>  <smiles>  (35) 
O=C(NCC(=O)N1CCCCC1C1CCCCC1)c1ccc2cc(F)ccc2n1

>  <score_type>  (35) 
oracle

>  <origin>  (35) 
autodockgpu

>  <m_score__min__energy>  (35) 
-8.8000000000000007

>  <m_primary>  (35) 
energy

>  <rmsd>  (35) 
1.9008419982580023

>  <m_score__min__rmsd>  (35) 
1.9008419982580023

>  <meeko>  (35) 
{"free_energy": -8.25, "intermolecular_energy": -9.74, "internal_energy": -2.29, "cluster_size": 45, "cluster_id": 1, "rank_in_cluster": 31}

>  <energy>  (35) 
-8.17

>  <cluster_rmsd>  (35) 
1.53

>  <cluster>  (35) 
1

$$$$

     RDKit          3D

 57 60  0  0  0  0  0  0  0  0999 V2000
  140.7030   71.8270  221.1360 O   0  0  0  0  0  0  0  0  0  0  0  0
  140.2700   72.3310  222.2130 C   0  0  0  0  0  0  0  0  0  0  0  0
  139.9320   73.7120  222.3000 N   0  0  0  0  0  0  0  0  0  0  0  0
  140.0920   74.5630  221.1220 C   0  0  0  0  0  0  0  0  0  0  0  0
  140.8740   75.7890  221.4760 C   0  0  0  0  0  0  0  0  0  0  0  0
  140.9680   76.0380  222.7040 O   0  0  0  0  0  0  0  0  0  0  0  0
  141.4460   76.5820  220.4480 N   0  0  0  0  0  0  0  0  0  0  0  0
  142.4420   75.9630  219.5660 C   0  0  0  0  0  0  0  0  0  0  0  0
  142.2750   76.3870  218.1280 C   0  0  0  0  0  0  0  0  0  0  0  0
  142.0450   77.8720  217.9930 C   0  0  0  0  0  0  0  0  0  0  0  0
  142.1690   78.5640  219.3600 C   0  0  0  0  0  0  0  0  0  0  0  0
  141.1010   77.9760  220.2180 C   0  0  2  0  0  0  0  0  0  0  0  0
  140.6840   78.7450  221.4030 C   0  0  0  0  0  0  0  0  0  0  0  0
  141.8150   78.6760  222.4470 C   0  0  0  0  0  0  0  0  0  0  0  0
  141.5590   79.5930  223.5920 C   0  0  0  0  0  0  0  0  0  0  0  0
  140.2470   80.2940  223.4400 C   0  0  0  0  0  0  0  0  0  0  0  0
  139.1310   79.3260  223.1800 C   0  0  0  0  0  0  0  0  0  0  0  0
  139.4540   78.3080  222.1120 C   0  0  0  0  0  0  0  0  0  0  0  0
  140.1160   71.4730  223.3870 C   0  0  0  0  0  0  0  0  0  0  0  0
  139.5000   70.2450  223.2700 C   0  0  0  0  0  0  0  0  0  0  0  0
  139.3370   69.4130  224.3550 C   0  0  0  0  0  0  0  0  0  0  0  0
  139.8210   69.8550  225.5820 C   0  0  0  0  0  0  0  0  0  0  0  0
  139.6590   69.0210  226.6690 C   0  0  0  0  0  0  0  0  0  0  0  0
  140.1380   69.4570  227.8910 C   0  0  0  0  0  0  0  0  0  0  0  0
  140.0190   68.6960  229.0110 F   0  0  0  0  0  0  0  0  0  0  0  0
  140.7490   70.6880  227.9760 C   0  0  0  0  0  0  0  0  0  0  0  0
  140.9110   71.5220  226.8870 C   0  0  0  0  0  0  0  0  0  0  0  0
  140.4340   71.0850  225.6820 C   0  0  0  0  0  0  0  0  0  0  0  0
  140.5850   71.8950  224.5960 N   0  0  0  0  0  0  0  0  0  0  0  0
  139.5780   74.0630  223.2150 H   0  0  0  0  0  0  0  0  0  0  0  0
  140.6259   74.0042  220.3392 H   0  0  0  0  0  0  0  0  0  0  0  0
  139.0987   74.8625  220.7564 H   0  0  0  0  0  0  0  0  0  0  0  0
  143.4463   76.2550  219.9066 H   0  0  0  0  0  0  0  0  0  0  0  0
  142.3029   74.8729  219.6139 H   0  0  0  0  0  0  0  0  0  0  0  0
  143.1849   76.1178  217.5717 H   0  0  0  0  0  0  0  0  0  0  0  0
  141.3910   75.8711  217.7251 H   0  0  0  0  0  0  0  0  0  0  0  0
  142.7933   78.2929  217.3053 H   0  0  0  0  0  0  0  0  0  0  0  0
  141.0312   78.0401  217.6005 H   0  0  0  0  0  0  0  0  0  0  0  0
  143.1597   78.3711  219.7973 H   0  0  0  0  0  0  0  0  0  0  0  0
  142.0582   79.6547  219.2704 H   0  0  0  0  0  0  0  0  0  0  0  0
  140.1498   78.0356  219.6688 H   0  0  0  0  0  0  0  0  0  0  0  0
  140.4647   79.7434  220.9967 H   0  0  0  0  0  0  0  0  0  0  0  0
  141.8903   77.6456  222.8245 H   0  0  0  0  0  0  0  0  0  0  0  0
  142.7521   78.9850  221.9608 H   0  0  0  0  0  0  0  0  0  0  0  0
  141.5480   79.0089  224.5240 H   0  0  0  0  0  0  0  0  0  0  0  0
  142.3573   80.3494  223.6179 H   0  0  0  0  0  0  0  0  0  0  0  0
  140.0298   80.8494  224.3643 H   0  0  0  0  0  0  0  0  0  0  0  0
  140.3187   80.9758  222.5798 H   0  0  0  0  0  0  0  0  0  0  0  0
  138.9088   78.7912  224.1152 H   0  0  0  0  0  0  0  0  0  0  0  0
  138.2718   79.9112  222.8203 H   0  0  0  0  0  0  0  0  0  0  0  0
  139.6219   77.3245  222.5751 H   0  0  0  0  0  0  0  0  0  0  0  0
  138.6176   78.2272  221.4021 H   0  0  0  0  0  0  0  0  0  0  0  0
  139.1297   69.9221  222.2858 H   0  0  0  0  0  0  0  0  0  0  0  0
  138.8426   68.4354  224.2552 H   0  0  0  0  0  0  0  0  0  0  0  0
  139.1659   68.0430  226.5673 H   0  0  0  0  0  0  0  0  0  0  0  0
  141.1247   71.0220  228.9544 H   0  0  0  0  0  0  0  0  0  0  0  0
  141.4047   72.5001  226.9851 H   0  0  0  0  0  0  0  0  0  0  0  0
  1  2  2  0
  2  3  1  0
  3  4  1  0
  4  5  1  0
  5  6  2  0
  5  7  1  0
  7  8  1  0
  8  9  1  0
  9 10  1  0
 10 11  1  0
 11 12  1  0
 12 13  1  0
 13 14  1  0
 14 15  1  0
 15 16  1  0
 16 17  1  0
 17 18  1  0
  2 19  1  0
 19 20  2  0
 20 21  1  0
 21 22  2  0
 22 23  1  0
 23 24  2  0
 24 25  1  0
 24 26  1  0
 26 27  2  0
 27 28  1  0
 28 29  2  0
 12  7  1  0
 18 13  1  0
 29 19  1  0
 28 22  1  0
  3 30  1  0
  4 31  1  0
  4 32  1  0
  8 33  1  0
  8 34  1  0
  9 35  1  0
  9 36  1  0
 10 37  1  0
 10 38  1  0
 11 39  1  0
 11 40  1  0
 12 41  1  6
 13 42  1  0
 14 43  1  0
 14 44  1  0
 15 45  1  0
 15 46  1  0
 16 47  1  0
 16 48  1  0
 17 49  1  0
 17 50  1  0
 18 51  1  0
 18 52  1  0
 20 53  1  0
 21 54  1  0
 23 55  1  0
 26 56  1  0
 27 57  1  0
M  END
>  <smiles>  (36) 
O=C(NCC(=O)N1CCCCC1C1CCCCC1)c1ccc2cc(F)ccc2n1

>  <score_type>  (36) 
oracle

>  <origin>  (36) 
autodockgpu

>  <m_score__min__energy>  (36) 
-8.8000000000000007

>  <m_primary>  (36) 
energy

>  <rmsd>  (36) 
2.0324455868552245

>  <m_score__min__rmsd>  (36) 
2.0324455868552245

>  <meeko>  (36) 
{"free_energy": -8.57, "intermolecular_energy": -10.06, "internal_energy": -1.46, "cluster_size": 45, "cluster_id": 1, "rank_in_cluster": 8}

>  <energy>  (36) 
-8.15

>  <cluster_rmsd>  (36) 
1.5

>  <cluster>  (36) 
1

$$$$

     RDKit          3D

 57 60  0  0  0  0  0  0  0  0999 V2000
  139.9880   71.4760  221.0910 O   0  0  0  0  0  0  0  0  0  0  0  0
  139.8510   72.0230  222.2240 C   0  0  0  0  0  0  0  0  0  0  0  0
  139.7000   73.4340  222.3500 N   0  0  0  0  0  0  0  0  0  0  0  0
  139.7050   74.2650  221.1470 C   0  0  0  0  0  0  0  0  0  0  0  0
  140.3170   75.5970  221.4440 C   0  0  0  0  0  0  0  0  0  0  0  0
  140.2150   75.9890  222.6330 O   0  0  0  0  0  0  0  0  0  0  0  0
  140.9570   76.3260  220.4080 N   0  0  0  0  0  0  0  0  0  0  0  0
  141.4720   75.5850  219.2520 C   0  0  0  0  0  0  0  0  0  0  0  0
  141.2280   76.3110  217.9520 C   0  0  0  0  0  0  0  0  0  0  0  0
  141.5580   77.7800  218.0470 C   0  0  0  0  0  0  0  0  0  0  0  0
  142.1740   78.1080  219.4170 C   0  0  0  0  0  0  0  0  0  0  0  0
  141.1310   77.7710  220.4290 C   0  0  2  0  0  0  0  0  0  0  0  0
  141.2530   78.3910  221.7590 C   0  0  0  0  0  0  0  0  0  0  0  0
  139.8800   78.9650  222.1550 C   0  0  0  0  0  0  0  0  0  0  0  0
  139.8670   79.4310  223.5680 C   0  0  0  0  0  0  0  0  0  0  0  0
  141.2100   79.2610  224.2050 C   0  0  0  0  0  0  0  0  0  0  0  0
  142.2950   79.8780  223.3750 C   0  0  0  0  0  0  0  0  0  0  0  0
  142.2170   79.5120  221.9120 C   0  0  0  0  0  0  0  0  0  0  0  0
  139.8510   71.1860  223.4220 C   0  0  0  0  0  0  0  0  0  0  0  0
  139.3400   69.9060  223.3710 C   0  0  0  0  0  0  0  0  0  0  0  0
  139.3230   69.0910  224.4800 C   0  0  0  0  0  0  0  0  0  0  0  0
  139.8430   69.6050  225.6640 C   0  0  0  0  0  0  0  0  0  0  0  0
  139.8270   68.7880  226.7750 C   0  0  0  0  0  0  0  0  0  0  0  0
  140.3430   69.2950  227.9530 C   0  0  0  0  0  0  0  0  0  0  0  0
  140.3650   68.5550  229.0940 F   0  0  0  0  0  0  0  0  0  0  0  0
  140.8460   70.5770  227.9730 C   0  0  0  0  0  0  0  0  0  0  0  0
  140.8620   71.3940  226.8600 C   0  0  0  0  0  0  0  0  0  0  0  0
  140.3490   70.8850  225.6980 C   0  0  0  0  0  0  0  0  0  0  0  0
  140.3570   71.6780  224.5880 N   0  0  0  0  0  0  0  0  0  0  0  0
  139.5890   73.8210  223.3110 H   0  0  0  0  0  0  0  0  0  0  0  0
  140.2889   73.7636  220.3611 H   0  0  0  0  0  0  0  0  0  0  0  0
  138.6692   74.4127  220.8076 H   0  0  0  0  0  0  0  0  0  0  0  0
  142.5551   75.4402  219.3785 H   0  0  0  0  0  0  0  0  0  0  0  0
  140.9410   74.6228  219.2051 H   0  0  0  0  0  0  0  0  0  0  0  0
  141.8548   75.8573  217.1702 H   0  0  0  0  0  0  0  0  0  0  0  0
  140.1584   76.2208  217.7113 H   0  0  0  0  0  0  0  0  0  0  0  0
  142.2761   78.0413  217.2557 H   0  0  0  0  0  0  0  0  0  0  0  0
  140.6314   78.3605  217.9263 H   0  0  0  0  0  0  0  0  0  0  0  0
  143.0778   77.5037  219.5841 H   0  0  0  0  0  0  0  0  0  0  0  0
  142.4714   79.1650  219.4820 H   0  0  0  0  0  0  0  0  0  0  0  0
  140.1924   78.2609  220.1308 H   0  0  0  0  0  0  0  0  0  0  0  0
  141.6310   77.5723  222.3890 H   0  0  0  0  0  0  0  0  0  0  0  0
  139.6452   79.8146  221.4969 H   0  0  0  0  0  0  0  0  0  0  0  0
  139.1305   78.1668  222.0495 H   0  0  0  0  0  0  0  0  0  0  0  0
  139.5902   80.4953  223.5925 H   0  0  0  0  0  0  0  0  0  0  0  0
  139.1368   78.8279  224.1275 H   0  0  0  0  0  0  0  0  0  0  0  0
  141.1997   79.7420  225.1942 H   0  0  0  0  0  0  0  0  0  0  0  0
  141.4150   78.1840  224.2948 H   0  0  0  0  0  0  0  0  0  0  0  0
  142.2222   80.9719  223.4645 H   0  0  0  0  0  0  0  0  0  0  0  0
  143.2521   79.4908  223.7545 H   0  0  0  0  0  0  0  0  0  0  0  0
  141.8730   80.3797  221.3299 H   0  0  0  0  0  0  0  0  0  0  0  0
  143.2089   79.2099  221.5448 H   0  0  0  0  0  0  0  0  0  0  0  0
  138.9361   69.5271  222.4206 H   0  0  0  0  0  0  0  0  0  0  0  0
  138.9135   68.0712  224.4322 H   0  0  0  0  0  0  0  0  0  0  0  0
  139.4178   67.7682  226.7255 H   0  0  0  0  0  0  0  0  0  0  0  0
  141.2530   70.9673  228.9175 H   0  0  0  0  0  0  0  0  0  0  0  0
  141.2711   72.4141  226.9056 H   0  0  0  0  0  0  0  0  0  0  0  0
  1  2  2  0
  2  3  1  0
  3  4  1  0
  4  5  1  0
  5  6  2  0
  5  7  1  0
  7  8  1  0
  8  9  1  0
  9 10  1  0
 10 11  1  0
 11 12  1  0
 12 13  1  0
 13 14  1  0
 14 15  1  0
 15 16  1  0
 16 17  1  0
 17 18  1  0
  2 19  1  0
 19 20  2  0
 20 21  1  0
 21 22  2  0
 22 23  1  0
 23 24  2  0
 24 25  1  0
 24 26  1  0
 26 27  2  0
 27 28  1  0
 28 29  2  0
 12  7  1  0
 18 13  1  0
 29 19  1  0
 28 22  1  0
  3 30  1  0
  4 31  1  0
  4 32  1  0
  8 33  1  0
  8 34  1  0
  9 35  1  0
  9 36  1  0
 10 37  1  0
 10 38  1  0
 11 39  1  0
 11 40  1  0
 12 41  1  6
 13 42  1  0
 14 43  1  0
 14 44  1  0
 15 45  1  0
 15 46  1  0
 16 47  1  0
 16 48  1  0
 17 49  1  0
 17 50  1  0
 18 51  1  0
 18 52  1  0
 20 53  1  0
 21 54  1  0
 23 55  1  0
 26 56  1  0
 27 57  1  0
M  END
>  <smiles>  (37) 
O=C(NCC(=O)N1CCCCC1C1CCCCC1)c1ccc2cc(F)ccc2n1

>  <score_type>  (37) 
oracle

>  <origin>  (37) 
autodockgpu

>  <m_score__min__energy>  (37) 
-8.8000000000000007

>  <m_primary>  (37) 
energy

>  <rmsd>  (37) 
1.5876086857932332

>  <m_score__min__rmsd>  (37) 
1.5876086857932332

>  <meeko>  (37) 
{"free_energy": -8.53, "intermolecular_energy": -10.02, "internal_energy": -1.87, "cluster_size": 45, "cluster_id": 1, "rank_in_cluster": 10}

>  <energy>  (37) 
-8.13

>  <cluster_rmsd>  (37) 
1.57

>  <cluster>  (37) 
1

$$$$

     RDKit          3D

 57 60  0  0  0  0  0  0  0  0999 V2000
  141.2500   72.1920  221.4730 O   0  0  0  0  0  0  0  0  0  0  0  0
  140.3340   72.4630  222.3030 C   0  0  0  0  0  0  0  0  0  0  0  0
  139.4860   73.5940  222.1250 N   0  0  0  0  0  0  0  0  0  0  0  0
  139.6800   74.4570  220.9610 C   0  0  0  0  0  0  0  0  0  0  0  0
  140.8350   75.3800  221.1920 C   0  0  0  0  0  0  0  0  0  0  0  0
  141.3240   75.3590  222.3490 O   0  0  0  0  0  0  0  0  0  0  0  0
  141.3030   76.2020  220.1350 N   0  0  0  0  0  0  0  0  0  0  0  0
  141.8320   75.5530  218.9300 C   0  0  0  0  0  0  0  0  0  0  0  0
  141.4080   76.2600  217.6670 C   0  0  0  0  0  0  0  0  0  0  0  0
  141.5500   77.7580  217.7740 C   0  0  0  0  0  0  0  0  0  0  0  0
  142.2080   78.1430  219.1090 C   0  0  0  0  0  0  0  0  0  0  0  0
  141.2880   77.6560  220.1780 C   0  0  2  0  0  0  0  0  0  0  0  0
  141.4180   78.2670  221.5120 C   0  0  0  0  0  0  0  0  0  0  0  0
  140.0050   78.5680  222.0470 C   0  0  0  0  0  0  0  0  0  0  0  0
  140.0390   79.0010  223.4710 C   0  0  0  0  0  0  0  0  0  0  0  0
  141.4440   79.0750  223.9790 C   0  0  0  0  0  0  0  0  0  0  0  0
  142.3140   79.8980  223.0760 C   0  0  0  0  0  0  0  0  0  0  0  0
  142.1680   79.5460  221.6150 C   0  0  0  0  0  0  0  0  0  0  0  0
  140.1490   71.5970  223.4660 C   0  0  0  0  0  0  0  0  0  0  0  0
  139.4200   70.4330  223.3510 C   0  0  0  0  0  0  0  0  0  0  0  0
  139.2250   69.5940  224.4260 C   0  0  0  0  0  0  0  0  0  0  0  0
  139.7940   69.9630  225.6400 C   0  0  0  0  0  0  0  0  0  0  0  0
  139.6000   69.1220  226.7170 C   0  0  0  0  0  0  0  0  0  0  0  0
  140.1640   69.4860  227.9260 C   0  0  0  0  0  0  0  0  0  0  0  0
  140.0200   68.7130  229.0360 F   0  0  0  0  0  0  0  0  0  0  0  0
  140.8870   70.6550  228.0090 C   0  0  0  0  0  0  0  0  0  0  0  0
  141.0810   71.4950  226.9310 C   0  0  0  0  0  0  0  0  0  0  0  0
  140.5200   71.1300  225.7380 C   0  0  0  0  0  0  0  0  0  0  0  0
  140.7010   71.9480  224.6620 N   0  0  0  0  0  0  0  0  0  0  0  0
  138.7500   73.7600  222.8440 H   0  0  0  0  0  0  0  0  0  0  0  0
  139.8825   73.8350  220.0766 H   0  0  0  0  0  0  0  0  0  0  0  0
  138.7697   75.0529  220.7989 H   0  0  0  0  0  0  0  0  0  0  0  0
  142.9307   75.5509  218.9826 H   0  0  0  0  0  0  0  0  0  0  0  0
  141.4299   74.5297  218.8944 H   0  0  0  0  0  0  0  0  0  0  0  0
  142.0336   75.9039  216.8353 H   0  0  0  0  0  0  0  0  0  0  0  0
  140.3452   76.0342  217.4957 H   0  0  0  0  0  0  0  0  0  0  0  0
  142.1739   78.1225  216.9446 H   0  0  0  0  0  0  0  0  0  0  0  0
  140.5502   78.2142  217.7258 H   0  0  0  0  0  0  0  0  0  0  0  0
  143.1921   77.6605  219.2030 H   0  0  0  0  0  0  0  0  0  0  0  0
  142.3684   79.2289  219.1801 H   0  0  0  0  0  0  0  0  0  0  0  0
  140.2755   78.0217  219.9520 H   0  0  0  0  0  0  0  0  0  0  0  0
  141.9984   77.5240  222.0787 H   0  0  0  0  0  0  0  0  0  0  0  0
  139.5569   79.3691  221.4409 H   0  0  0  0  0  0  0  0  0  0  0  0
  139.4087   77.6459  221.9819 H   0  0  0  0  0  0  0  0  0  0  0  0
  139.5739   79.9942  223.5555 H   0  0  0  0  0  0  0  0  0  0  0  0
  139.4886   78.2632  224.0733 H   0  0  0  0  0  0  0  0  0  0  0  0
  141.4381   79.5294  224.9807 H   0  0  0  0  0  0  0  0  0  0  0  0
  141.8520   78.0540  224.0137 H   0  0  0  0  0  0  0  0  0  0  0  0
  142.0485   80.9574  223.2072 H   0  0  0  0  0  0  0  0  0  0  0  0
  143.3576   79.6920  223.3560 H   0  0  0  0  0  0  0  0  0  0  0  0
  141.6165   80.3428  221.0945 H   0  0  0  0  0  0  0  0  0  0  0  0
  143.1599   79.4403  221.1513 H   0  0  0  0  0  0  0  0  0  0  0  0
  138.9832   70.1675  222.3770 H   0  0  0  0  0  0  0  0  0  0  0  0
  138.6411   68.6669  224.3278 H   0  0  0  0  0  0  0  0  0  0  0  0
  139.0171   68.1945  226.6171 H   0  0  0  0  0  0  0  0  0  0  0  0
  141.3296   70.9317  228.9773 H   0  0  0  0  0  0  0  0  0  0  0  0
  141.6644   72.4225  227.0276 H   0  0  0  0  0  0  0  0  0  0  0  0
  1  2  2  0
  2  3  1  0
  3  4  1  0
  4  5  1  0
  5  6  2  0
  5  7  1  0
  7  8  1  0
  8  9  1  0
  9 10  1  0
 10 11  1  0
 11 12  1  0
 12 13  1  0
 13 14  1  0
 14 15  1  0
 15 16  1  0
 16 17  1  0
 17 18  1  0
  2 19  1  0
 19 20  2  0
 20 21  1  0
 21 22  2  0
 22 23  1  0
 23 24  2  0
 24 25  1  0
 24 26  1  0
 26 27  2  0
 27 28  1  0
 28 29  2  0
 12  7  1  0
 18 13  1  0
 29 19  1  0
 28 22  1  0
  3 30  1  0
  4 31  1  0
  4 32  1  0
  8 33  1  0
  8 34  1  0
  9 35  1  0
  9 36  1  0
 10 37  1  0
 10 38  1  0
 11 39  1  0
 11 40  1  0
 12 41  1  6
 13 42  1  0
 14 43  1  0
 14 44  1  0
 15 45  1  0
 15 46  1  0
 16 47  1  0
 16 48  1  0
 17 49  1  0
 17 50  1  0
 18 51  1  0
 18 52  1  0
 20 53  1  0
 21 54  1  0
 23 55  1  0
 26 56  1  0
 27 57  1  0
M  END
>  <smiles>  (38) 
O=C(NCC(=O)N1CCCCC1C1CCCCC1)c1ccc2cc(F)ccc2n1

>  <score_type>  (38) 
oracle

>  <origin>  (38) 
autodockgpu

>  <m_score__min__energy>  (38) 
-8.8000000000000007

>  <m_primary>  (38) 
energy

>  <rmsd>  (38) 
1.744108595851701

>  <m_score__min__rmsd>  (38) 
1.744108595851701

>  <meeko>  (38) 
{"free_energy": -8.63, "intermolecular_energy": -10.12, "internal_energy": -1.51, "cluster_size": 45, "cluster_id": 1, "rank_in_cluster": 5}

>  <energy>  (38) 
-8.09

>  <cluster_rmsd>  (38) 
1.62

>  <cluster>  (38) 
1

$$$$

     RDKit          3D

 57 60  0  0  0  0  0  0  0  0999 V2000
  140.3910   71.5950  221.0230 O   0  0  0  0  0  0  0  0  0  0  0  0
  140.0900   72.1500  222.1190 C   0  0  0  0  0  0  0  0  0  0  0  0
  139.8090   73.5450  222.1890 N   0  0  0  0  0  0  0  0  0  0  0  0
  139.8740   74.3500  220.9700 C   0  0  0  0  0  0  0  0  0  0  0  0
  140.7270   75.5580  221.1960 C   0  0  0  0  0  0  0  0  0  0  0  0
  140.7910   75.9640  222.3830 O   0  0  0  0  0  0  0  0  0  0  0  0
  141.3960   76.1640  220.1010 N   0  0  0  0  0  0  0  0  0  0  0  0
  140.6740   77.1690  219.3140 C   0  0  0  0  0  0  0  0  0  0  0  0
  141.5530   78.3310  218.9250 C   0  0  0  0  0  0  0  0  0  0  0  0
  142.9020   77.8830  218.4200 C   0  0  0  0  0  0  0  0  0  0  0  0
  142.9610   76.3500  218.3260 C   0  0  0  0  0  0  0  0  0  0  0  0
  142.7620   75.8430  219.7140 C   0  0  2  0  0  0  0  0  0  0  0  0
  143.2150   74.4730  220.0060 C   0  0  0  0  0  0  0  0  0  0  0  0
  144.7050   74.5260  220.3930 C   0  0  0  0  0  0  0  0  0  0  0  0
  145.1880   73.2110  220.8970 C   0  0  0  0  0  0  0  0  0  0  0  0
  144.1040   72.1810  220.8430 C   0  0  0  0  0  0  0  0  0  0  0  0
  143.4770   72.1140  219.4820 C   0  0  0  0  0  0  0  0  0  0  0  0
  143.1170   73.4670  218.9160 C   0  0  0  0  0  0  0  0  0  0  0  0
  140.0310   71.3390  223.3340 C   0  0  0  0  0  0  0  0  0  0  0  0
  139.5450   70.0500  223.2820 C   0  0  0  0  0  0  0  0  0  0  0  0
  139.4750   69.2580  224.4060 C   0  0  0  0  0  0  0  0  0  0  0  0
  139.9150   69.8060  225.6060 C   0  0  0  0  0  0  0  0  0  0  0  0
  139.8450   69.0130  226.7330 C   0  0  0  0  0  0  0  0  0  0  0  0
  140.2810   69.5550  227.9280 C   0  0  0  0  0  0  0  0  0  0  0  0
  140.2470   68.8400  229.0840 F   0  0  0  0  0  0  0  0  0  0  0  0
  140.7610   70.8460  227.9490 C   0  0  0  0  0  0  0  0  0  0  0  0
  140.8310   71.6390  226.8210 C   0  0  0  0  0  0  0  0  0  0  0  0
  140.3970   71.0960  225.6420 C   0  0  0  0  0  0  0  0  0  0  0  0
  140.4580   71.8650  224.5170 N   0  0  0  0  0  0  0  0  0  0  0  0
  139.5650   73.9400  223.1230 H   0  0  0  0  0  0  0  0  0  0  0  0
  140.3059   73.7464  220.1581 H   0  0  0  0  0  0  0  0  0  0  0  0
  138.8583   74.6726  220.6973 H   0  0  0  0  0  0  0  0  0  0  0  0
  140.2908   76.6935  218.3991 H   0  0  0  0  0  0  0  0  0  0  0  0
  139.8557   77.5597  219.9366 H   0  0  0  0  0  0  0  0  0  0  0  0
  141.0509   78.9047  218.1321 H   0  0  0  0  0  0  0  0  0  0  0  0
  141.7162   78.9454  219.8227 H   0  0  0  0  0  0  0  0  0  0  0  0
  143.0762   78.3136  217.4229 H   0  0  0  0  0  0  0  0  0  0  0  0
  143.6760   78.2259  219.1223 H   0  0  0  0  0  0  0  0  0  0  0  0
  142.1645   75.9770  217.6654 H   0  0  0  0  0  0  0  0  0  0  0  0
  143.9195   76.0095  217.9072 H   0  0  0  0  0  0  0  0  0  0  0  0
  143.4670   76.3676  220.3756 H   0  0  0  0  0  0  0  0  0  0  0  0
  142.5260   74.1385  220.7956 H   0  0  0  0  0  0  0  0  0  0  0  0
  145.2939   74.8070  219.5075 H   0  0  0  0  0  0  0  0  0  0  0  0
  144.8253   75.2674  221.1966 H   0  0  0  0  0  0  0  0  0  0  0  0
  146.0322   72.8766  220.2761 H   0  0  0  0  0  0  0  0  0  0  0  0
  145.5018   73.3326  221.9442 H   0  0  0  0  0  0  0  0  0  0  0  0
  144.5324   71.1979  221.0880 H   0  0  0  0  0  0  0  0  0  0  0  0
  143.3257   72.4606  221.5683 H   0  0  0  0  0  0  0  0  0  0  0  0
  144.1858   71.6273  218.7959 H   0  0  0  0  0  0  0  0  0  0  0  0
  142.5398   71.5475  219.5856 H   0  0  0  0  0  0  0  0  0  0  0  0
  143.8137   73.7281  218.1058 H   0  0  0  0  0  0  0  0  0  0  0  0
  142.0945   73.4472  218.5109 H   0  0  0  0  0  0  0  0  0  0  0  0
  139.2045   69.6440  222.3181 H   0  0  0  0  0  0  0  0  0  0  0  0
  139.0857   68.2304  224.3567 H   0  0  0  0  0  0  0  0  0  0  0  0
  139.4559   67.9854  226.6825 H   0  0  0  0  0  0  0  0  0  0  0  0
  141.1038   71.2637  228.9071 H   0  0  0  0  0  0  0  0  0  0  0  0
  141.2202   72.6668  226.8680 H   0  0  0  0  0  0  0  0  0  0  0  0
  1  2  2  0
  2  3  1  0
  3  4  1  0
  4  5  1  0
  5  6  2  0
  5  7  1  0
  7  8  1  0
  8  9  1  0
  9 10  1  0
 10 11  1  0
 11 12  1  0
 12 13  1  0
 13 14  1  0
 14 15  1  0
 15 16  1  0
 16 17  1  0
 17 18  1  0
  2 19  1  0
 19 20  2  0
 20 21  1  0
 21 22  2  0
 22 23  1  0
 23 24  2  0
 24 25  1  0
 24 26  1  0
 26 27  2  0
 27 28  1  0
 28 29  2  0
 12  7  1  0
 18 13  1  0
 29 19  1  0
 28 22  1  0
  3 30  1  0
  4 31  1  0
  4 32  1  0
  8 33  1  0
  8 34  1  0
  9 35  1  0
  9 36  1  0
 10 37  1  0
 10 38  1  0
 11 39  1  0
 11 40  1  0
 12 41  1  1
 13 42  1  0
 14 43  1  0
 14 44  1  0
 15 45  1  0
 15 46  1  0
 16 47  1  0
 16 48  1  0
 17 49  1  0
 17 50  1  0
 18 51  1  0
 18 52  1  0
 20 53  1  0
 21 54  1  0
 23 55  1  0
 26 56  1  0
 27 57  1  0
M  END
>  <smiles>  (39) 
O=C(NCC(=O)N1CCCCC1C1CCCCC1)c1ccc2cc(F)ccc2n1

>  <score_type>  (39) 
oracle

>  <origin>  (39) 
autodockgpu

>  <m_score__min__energy>  (39) 
-8.8000000000000007

>  <m_primary>  (39) 
energy

>  <rmsd>  (39) 
1.8977672906162664

>  <m_score__min__rmsd>  (39) 
1.8977672906162664

>  <meeko>  (39) 
{"free_energy": -8.29, "intermolecular_energy": -9.78, "internal_energy": -2.26, "cluster_size": 45, "cluster_id": 1, "rank_in_cluster": 28}

>  <energy>  (39) 
-8.07

>  <cluster_rmsd>  (39) 
1.03

>  <cluster>  (39) 
1

$$$$

     RDKit          3D

 57 60  0  0  0  0  0  0  0  0999 V2000
  140.5320   71.6510  221.0630 O   0  0  0  0  0  0  0  0  0  0  0  0
  140.1840   72.1940  222.1510 C   0  0  0  0  0  0  0  0  0  0  0  0
  139.8530   73.5790  222.2140 N   0  0  0  0  0  0  0  0  0  0  0  0
  139.9200   74.3860  220.9970 C   0  0  0  0  0  0  0  0  0  0  0  0
  140.8050   75.5730  221.2140 C   0  0  0  0  0  0  0  0  0  0  0  0
  140.9040   75.9660  222.4030 O   0  0  0  0  0  0  0  0  0  0  0  0
  141.4640   76.1730  220.1100 N   0  0  0  0  0  0  0  0  0  0  0  0
  140.7330   77.1730  219.3250 C   0  0  0  0  0  0  0  0  0  0  0  0
  141.6080   78.3340  218.9210 C   0  0  0  0  0  0  0  0  0  0  0  0
  142.9530   77.8840  218.4060 C   0  0  0  0  0  0  0  0  0  0  0  0
  143.0130   76.3510  218.3200 C   0  0  0  0  0  0  0  0  0  0  0  0
  142.8260   75.8520  219.7130 C   0  0  2  0  0  0  0  0  0  0  0  0
  143.2830   74.4830  220.0090 C   0  0  0  0  0  0  0  0  0  0  0  0
  144.7560   74.5490  220.4530 C   0  0  0  0  0  0  0  0  0  0  0  0
  145.2340   73.2340  220.9620 C   0  0  0  0  0  0  0  0  0  0  0  0
  144.1660   72.1930  220.8550 C   0  0  0  0  0  0  0  0  0  0  0  0
  143.5910   72.1330  219.4710 C   0  0  0  0  0  0  0  0  0  0  0  0
  143.2390   73.4880  218.9060 C   0  0  0  0  0  0  0  0  0  0  0  0
  140.1240   71.3810  223.3650 C   0  0  0  0  0  0  0  0  0  0  0  0
  139.5760   70.1160  223.3220 C   0  0  0  0  0  0  0  0  0  0  0  0
  139.5020   69.3240  224.4450 C   0  0  0  0  0  0  0  0  0  0  0  0
  140.0040   69.8440  225.6340 C   0  0  0  0  0  0  0  0  0  0  0  0
  139.9310   69.0500  226.7590 C   0  0  0  0  0  0  0  0  0  0  0  0
  140.4290   69.5640  227.9420 C   0  0  0  0  0  0  0  0  0  0  0  0
  140.3960   68.8460  229.0960 F   0  0  0  0  0  0  0  0  0  0  0  0
  140.9710   70.8300  227.9530 C   0  0  0  0  0  0  0  0  0  0  0  0
  141.0430   71.6240  226.8260 C   0  0  0  0  0  0  0  0  0  0  0  0
  140.5480   71.1090  225.6590 C   0  0  0  0  0  0  0  0  0  0  0  0
  140.6120   71.8800  224.5360 N   0  0  0  0  0  0  0  0  0  0  0  0
  139.5730   73.9640  223.1410 H   0  0  0  0  0  0  0  0  0  0  0  0
  140.3258   73.7749  220.1773 H   0  0  0  0  0  0  0  0  0  0  0  0
  138.9086   74.7337  220.7399 H   0  0  0  0  0  0  0  0  0  0  0  0
  140.3411   76.6923  218.4165 H   0  0  0  0  0  0  0  0  0  0  0  0
  139.9203   77.5663  219.9534 H   0  0  0  0  0  0  0  0  0  0  0  0
  141.0982   78.9028  218.1295 H   0  0  0  0  0  0  0  0  0  0  0  0
  141.7791   78.9536  219.8136 H   0  0  0  0  0  0  0  0  0  0  0  0
  143.1176   78.3091  217.4049 H   0  0  0  0  0  0  0  0  0  0  0  0
  143.7330   78.2314  219.0995 H   0  0  0  0  0  0  0  0  0  0  0  0
  142.2114   75.9734  217.6682 H   0  0  0  0  0  0  0  0  0  0  0  0
  143.9682   76.0090  217.8950 H   0  0  0  0  0  0  0  0  0  0  0  0
  143.5358   76.3820  220.3652 H   0  0  0  0  0  0  0  0  0  0  0  0
  142.5681   74.1323  220.7679 H   0  0  0  0  0  0  0  0  0  0  0  0
  145.3751   74.8456  219.5935 H   0  0  0  0  0  0  0  0  0  0  0  0
  144.8374   75.2837  221.2676 H   0  0  0  0  0  0  0  0  0  0  0  0
  146.1058   72.9159  220.3714 H   0  0  0  0  0  0  0  0  0  0  0  0
  145.5048   73.3480  222.0220 H   0  0  0  0  0  0  0  0  0  0  0  0
  144.5968   71.2124  221.1055 H   0  0  0  0  0  0  0  0  0  0  0  0
  143.3574   72.4563  221.5527 H   0  0  0  0  0  0  0  0  0  0  0  0
  144.3298   71.6602  218.8072 H   0  0  0  0  0  0  0  0  0  0  0  0
  142.6567   71.5558  219.5335 H   0  0  0  0  0  0  0  0  0  0  0  0
  143.9642   73.7652  218.1267 H   0  0  0  0  0  0  0  0  0  0  0  0
  142.2334   73.4619  218.4610 H   0  0  0  0  0  0  0  0  0  0  0  0
  139.1888   69.7309  222.3671 H   0  0  0  0  0  0  0  0  0  0  0  0
  139.0621   68.3166  224.4042 H   0  0  0  0  0  0  0  0  0  0  0  0
  139.4917   68.0424  226.7167 H   0  0  0  0  0  0  0  0  0  0  0  0
  141.3637   71.2258  228.9012 H   0  0  0  0  0  0  0  0  0  0  0  0
  141.4815   72.6321  226.8647 H   0  0  0  0  0  0  0  0  0  0  0  0
  1  2  2  0
  2  3  1  0
  3  4  1  0
  4  5  1  0
  5  6  2  0
  5  7  1  0
  7  8  1  0
  8  9  1  0
  9 10  1  0
 10 11  1  0
 11 12  1  0
 12 13  1  0
 13 14  1  0
 14 15  1  0
 15 16  1  0
 16 17  1  0
 17 18  1  0
  2 19  1  0
 19 20  2  0
 20 21  1  0
 21 22  2  0
 22 23  1  0
 23 24  2  0
 24 25  1  0
 24 26  1  0
 26 27  2  0
 27 28  1  0
 28 29  2  0
 12  7  1  0
 18 13  1  0
 29 19  1  0
 28 22  1  0
  3 30  1  0
  4 31  1  0
  4 32  1  0
  8 33  1  0
  8 34  1  0
  9 35  1  0
  9 36  1  0
 10 37  1  0
 10 38  1  0
 11 39  1  0
 11 40  1  0
 12 41  1  1
 13 42  1  0
 14 43  1  0
 14 44  1  0
 15 45  1  0
 15 46  1  0
 16 47  1  0
 16 48  1  0
 17 49  1  0
 17 50  1  0
 18 51  1  0
 18 52  1  0
 20 53  1  0
 21 54  1  0
 23 55  1  0
 26 56  1  0
 27 57  1  0
M  END
>  <smiles>  (40) 
O=C(NCC(=O)N1CCCCC1C1CCCCC1)c1ccc2cc(F)ccc2n1

>  <score_type>  (40) 
oracle

>  <origin>  (40) 
autodockgpu

>  <m_score__min__energy>  (40) 
-8.8000000000000007

>  <m_primary>  (40) 
energy

>  <rmsd>  (40) 
1.937825335301152

>  <m_score__min__rmsd>  (40) 
1.937825335301152

>  <meeko>  (40) 
{"free_energy": -8.34, "intermolecular_energy": -9.83, "internal_energy": -2.2, "cluster_size": 45, "cluster_id": 1, "rank_in_cluster": 23}

>  <energy>  (40) 
-8.06

>  <cluster_rmsd>  (40) 
1.6

>  <cluster>  (40) 
1

$$$$

     RDKit          3D

 57 60  0  0  0  0  0  0  0  0999 V2000
  140.4000   71.2720  221.0870 O   0  0  0  0  0  0  0  0  0  0  0  0
  140.1500   71.8970  222.1590 C   0  0  0  0  0  0  0  0  0  0  0  0
  139.9990   73.3140  222.1710 N   0  0  0  0  0  0  0  0  0  0  0  0
  140.1380   74.0580  220.9210 C   0  0  0  0  0  0  0  0  0  0  0  0
  140.7460   75.3990  221.1850 C   0  0  0  0  0  0  0  0  0  0  0  0
  140.6210   75.8310  222.3580 O   0  0  0  0  0  0  0  0  0  0  0  0
  141.4080   76.0930  220.1390 N   0  0  0  0  0  0  0  0  0  0  0  0
  140.6730   77.1450  219.4290 C   0  0  0  0  0  0  0  0  0  0  0  0
  141.5390   78.3430  219.1280 C   0  0  0  0  0  0  0  0  0  0  0  0
  142.8930   77.9500  218.5910 C   0  0  0  0  0  0  0  0  0  0  0  0
  142.9700   76.4290  218.3840 C   0  0  0  0  0  0  0  0  0  0  0  0
  142.7770   75.8180  219.7300 C   0  0  2  0  0  0  0  0  0  0  0  0
  143.2460   74.4350  219.9200 C   0  0  0  0  0  0  0  0  0  0  0  0
  144.6450   74.4810  220.5620 C   0  0  0  0  0  0  0  0  0  0  0  0
  145.1060   73.1260  220.9710 C   0  0  0  0  0  0  0  0  0  0  0  0
  144.1030   72.0800  220.6000 C   0  0  0  0  0  0  0  0  0  0  0  0
  143.7160   72.1770  219.1540 C   0  0  0  0  0  0  0  0  0  0  0  0
  143.3860   73.5820  218.7110 C   0  0  0  0  0  0  0  0  0  0  0  0
  140.0170   71.1450  223.4060 C   0  0  0  0  0  0  0  0  0  0  0  0
  139.4590   69.8840  223.3960 C   0  0  0  0  0  0  0  0  0  0  0  0
  139.3170   69.1490  224.5520 C   0  0  0  0  0  0  0  0  0  0  0  0
  139.7600   69.7240  225.7380 C   0  0  0  0  0  0  0  0  0  0  0  0
  139.6180   68.9870  226.8960 C   0  0  0  0  0  0  0  0  0  0  0  0
  140.0570   69.5560  228.0770 C   0  0  0  0  0  0  0  0  0  0  0  0
  139.9550   68.8960  229.2620 F   0  0  0  0  0  0  0  0  0  0  0  0
  140.6100   70.8170  228.0550 C   0  0  0  0  0  0  0  0  0  0  0  0
  140.7510   71.5540  226.8960 C   0  0  0  0  0  0  0  0  0  0  0  0
  140.3140   70.9850  225.7310 C   0  0  0  0  0  0  0  0  0  0  0  0
  140.4460   71.6980  224.5760 N   0  0  0  0  0  0  0  0  0  0  0  0
  139.7920   73.7670  223.0860 H   0  0  0  0  0  0  0  0  0  0  0  0
  140.7849   73.4946  220.2324 H   0  0  0  0  0  0  0  0  0  0  0  0
  139.1433   74.1961  220.4721 H   0  0  0  0  0  0  0  0  0  0  0  0
  140.2947   76.7345  218.4812 H   0  0  0  0  0  0  0  0  0  0  0  0
  139.8501   77.4784  220.0784 H   0  0  0  0  0  0  0  0  0  0  0  0
  141.0298   78.9687  218.3802 H   0  0  0  0  0  0  0  0  0  0  0  0
  141.6960   78.8899  220.0694 H   0  0  0  0  0  0  0  0  0  0  0  0
  143.0611   78.4552  217.6284 H   0  0  0  0  0  0  0  0  0  0  0  0
  143.6637   78.2495  219.3165 H   0  0  0  0  0  0  0  0  0  0  0  0
  142.1779   76.0967  217.6968 H   0  0  0  0  0  0  0  0  0  0  0  0
  143.9326   76.1319  217.9422 H   0  0  0  0  0  0  0  0  0  0  0  0
  143.4761   76.3005  220.4289 H   0  0  0  0  0  0  0  0  0  0  0  0
  142.4529   73.9770  220.5293 H   0  0  0  0  0  0  0  0  0  0  0  0
  145.3580   74.8959  219.8344 H   0  0  0  0  0  0  0  0  0  0  0  0
  144.5897   75.1113  221.4618 H   0  0  0  0  0  0  0  0  0  0  0  0
  146.0589   72.9040  220.4683 H   0  0  0  0  0  0  0  0  0  0  0  0
  145.2330   73.1157  222.0636 H   0  0  0  0  0  0  0  0  0  0  0  0
  144.5364   71.0866  220.7881 H   0  0  0  0  0  0  0  0  0  0  0  0
  143.2008   72.2357  221.2097 H   0  0  0  0  0  0  0  0  0  0  0  0
  144.5535   71.8074  218.5441 H   0  0  0  0  0  0  0  0  0  0  0  0
  142.8054   71.5742  219.0220 H   0  0  0  0  0  0  0  0  0  0  0  0
  144.1946   73.9702  218.0742 H   0  0  0  0  0  0  0  0  0  0  0  0
  142.4487   73.5862  218.1352 H   0  0  0  0  0  0  0  0  0  0  0  0
  139.1192   69.4549  222.4419 H   0  0  0  0  0  0  0  0  0  0  0  0
  138.8697   68.1442  224.5376 H   0  0  0  0  0  0  0  0  0  0  0  0
  139.1711   67.9820  226.8799 H   0  0  0  0  0  0  0  0  0  0  0  0
  140.9546   71.2565  229.0027 H   0  0  0  0  0  0  0  0  0  0  0  0
  141.1973   72.5593  226.9088 H   0  0  0  0  0  0  0  0  0  0  0  0
  1  2  2  0
  2  3  1  0
  3  4  1  0
  4  5  1  0
  5  6  2  0
  5  7  1  0
  7  8  1  0
  8  9  1  0
  9 10  1  0
 10 11  1  0
 11 12  1  0
 12 13  1  0
 13 14  1  0
 14 15  1  0
 15 16  1  0
 16 17  1  0
 17 18  1  0
  2 19  1  0
 19 20  2  0
 20 21  1  0
 21 22  2  0
 22 23  1  0
 23 24  2  0
 24 25  1  0
 24 26  1  0
 26 27  2  0
 27 28  1  0
 28 29  2  0
 12  7  1  0
 18 13  1  0
 29 19  1  0
 28 22  1  0
  3 30  1  0
  4 31  1  0
  4 32  1  0
  8 33  1  0
  8 34  1  0
  9 35  1  0
  9 36  1  0
 10 37  1  0
 10 38  1  0
 11 39  1  0
 11 40  1  0
 12 41  1  1
 13 42  1  0
 14 43  1  0
 14 44  1  0
 15 45  1  0
 15 46  1  0
 16 47  1  0
 16 48  1  0
 17 49  1  0
 17 50  1  0
 18 51  1  0
 18 52  1  0
 20 53  1  0
 21 54  1  0
 23 55  1  0
 26 56  1  0
 27 57  1  0
M  END
>  <smiles>  (41) 
O=C(NCC(=O)N1CCCCC1C1CCCCC1)c1ccc2cc(F)ccc2n1

>  <score_type>  (41) 
oracle

>  <origin>  (41) 
autodockgpu

>  <m_score__min__energy>  (41) 
-8.8000000000000007

>  <m_primary>  (41) 
energy

>  <rmsd>  (41) 
1.9317720971945596

>  <m_score__min__rmsd>  (41) 
1.9317720971945596

>  <meeko>  (41) 
{"free_energy": -8.06, "intermolecular_energy": -9.55, "internal_energy": -2.32, "cluster_size": 45, "cluster_id": 1, "rank_in_cluster": 40}

>  <energy>  (41) 
-7.91

>  <cluster_rmsd>  (41) 
1.27

>  <cluster>  (41) 
1

$$$$

     RDKit          3D

 57 60  0  0  0  0  0  0  0  0999 V2000
  138.2920   71.8660  221.9550 O   0  0  0  0  0  0  0  0  0  0  0  0
  139.3110   71.9890  222.6960 C   0  0  0  0  0  0  0  0  0  0  0  0
  140.2830   73.0020  222.4530 N   0  0  0  0  0  0  0  0  0  0  0  0
  140.1010   73.9130  221.3240 C   0  0  0  0  0  0  0  0  0  0  0  0
  140.2110   75.3320  221.7850 C   0  0  0  0  0  0  0  0  0  0  0  0
  141.3800   75.7580  221.9580 O   0  0  0  0  0  0  0  0  0  0  0  0
  139.0350   76.0970  221.9990 N   0  0  0  0  0  0  0  0  0  0  0  0
  137.7610   75.5660  221.5050 C   0  0  0  0  0  0  0  0  0  0  0  0
  136.6280   75.8030  222.4740 C   0  0  0  0  0  0  0  0  0  0  0  0
  136.6350   77.2060  223.0290 C   0  0  0  0  0  0  0  0  0  0  0  0
  137.7300   78.0480  222.3550 C   0  0  0  0  0  0  0  0  0  0  0  0
  139.0230   77.3820  222.6820 C   0  0  2  0  0  0  0  0  0  0  0  0
  140.2490   78.1900  222.5660 C   0  0  0  0  0  0  0  0  0  0  0  0
  140.2540   79.2300  223.7030 C   0  0  0  0  0  0  0  0  0  0  0  0
  141.5520   79.9530  223.7780 C   0  0  0  0  0  0  0  0  0  0  0  0
  142.4830   79.5080  222.6950 C   0  0  0  0  0  0  0  0  0  0  0  0
  141.8300   79.5760  221.3460 C   0  0  0  0  0  0  0  0  0  0  0  0
  140.4500   78.9630  221.3130 C   0  0  0  0  0  0  0  0  0  0  0  0
  139.4870   71.0720  223.8200 C   0  0  0  0  0  0  0  0  0  0  0  0
  139.0110   69.7800  223.7400 C   0  0  0  0  0  0  0  0  0  0  0  0
  139.1590   68.8900  224.7790 C   0  0  0  0  0  0  0  0  0  0  0  0
  139.8120   69.3390  225.9220 C   0  0  0  0  0  0  0  0  0  0  0  0
  139.9610   68.4470  226.9640 C   0  0  0  0  0  0  0  0  0  0  0  0
  140.6100   68.8910  228.1020 C   0  0  0  0  0  0  0  0  0  0  0  0
  140.7990   68.0750  229.1730 F   0  0  0  0  0  0  0  0  0  0  0  0
  141.0750   70.1860  228.1520 C   0  0  0  0  0  0  0  0  0  0  0  0
  140.9250   71.0780  227.1090 C   0  0  0  0  0  0  0  0  0  0  0  0
  140.2820   70.6330  225.9870 C   0  0  0  0  0  0  0  0  0  0  0  0
  140.1250   71.5000  224.9460 N   0  0  0  0  0  0  0  0  0  0  0  0
  141.0980   73.0510  223.1020 H   0  0  0  0  0  0  0  0  0  0  0  0
  140.8754   73.7150  220.5683 H   0  0  0  0  0  0  0  0  0  0  0  0
  139.1035   73.7522  220.8891 H   0  0  0  0  0  0  0  0  0  0  0  0
  137.5191   76.0570  220.5508 H   0  0  0  0  0  0  0  0  0  0  0  0
  137.8751   74.4792  221.3796 H   0  0  0  0  0  0  0  0  0  0  0  0
  135.6746   75.6335  221.9522 H   0  0  0  0  0  0  0  0  0  0  0  0
  136.7535   75.1067  223.3162 H   0  0  0  0  0  0  0  0  0  0  0  0
  135.6558   77.6724  222.8455 H   0  0  0  0  0  0  0  0  0  0  0  0
  136.8374   77.1594  224.1092 H   0  0  0  0  0  0  0  0  0  0  0  0
  137.5774   78.0717  221.2659 H   0  0  0  0  0  0  0  0  0  0  0  0
  137.7127   79.0889  222.7103 H   0  0  0  0  0  0  0  0  0  0  0  0
  139.0609   77.2228  223.7698 H   0  0  0  0  0  0  0  0  0  0  0  0
  141.0534   77.4404  222.5968 H   0  0  0  0  0  0  0  0  0  0  0  0
  139.4494   79.9585  223.5241 H   0  0  0  0  0  0  0  0  0  0  0  0
  140.0997   78.7002  224.6546 H   0  0  0  0  0  0  0  0  0  0  0  0
  141.3681   81.0323  223.6719 H   0  0  0  0  0  0  0  0  0  0  0  0
  142.0177   79.7324  224.7498 H   0  0  0  0  0  0  0  0  0  0  0  0
  143.3697   80.1590  222.6961 H   0  0  0  0  0  0  0  0  0  0  0  0
  142.7644   78.4626  222.8899 H   0  0  0  0  0  0  0  0  0  0  0  0
  141.7487   80.6327  221.0514 H   0  0  0  0  0  0  0  0  0  0  0  0
  142.4579   78.9968  220.6530 H   0  0  0  0  0  0  0  0  0  0  0  0
  139.6925   79.7573  221.2412 H   0  0  0  0  0  0  0  0  0  0  0  0
  140.3521   78.3001  220.4407 H   0  0  0  0  0  0  0  0  0  0  0  0
  138.5001   69.4527  222.8224 H   0  0  0  0  0  0  0  0  0  0  0  0
  138.7751   67.8616  224.7082 H   0  0  0  0  0  0  0  0  0  0  0  0
  139.5771   67.4187  226.8923 H   0  0  0  0  0  0  0  0  0  0  0  0
  141.5889   70.5250  229.0636 H   0  0  0  0  0  0  0  0  0  0  0  0
  141.3079   72.1069  227.1778 H   0  0  0  0  0  0  0  0  0  0  0  0
  1  2  2  0
  2  3  1  0
  3  4  1  0
  4  5  1  0
  5  6  2  0
  5  7  1  0
  7  8  1  0
  8  9  1  0
  9 10  1  0
 10 11  1  0
 11 12  1  0
 12 13  1  0
 13 14  1  0
 14 15  1  0
 15 16  1  0
 16 17  1  0
 17 18  1  0
  2 19  1  0
 19 20  2  0
 20 21  1  0
 21 22  2  0
 22 23  1  0
 23 24  2  0
 24 25  1  0
 24 26  1  0
 26 27  2  0
 27 28  1  0
 28 29  2  0
 12  7  1  0
 18 13  1  0
 29 19  1  0
 28 22  1  0
  3 30  1  0
  4 31  1  0
  4 32  1  0
  8 33  1  0
  8 34  1  0
  9 35  1  0
  9 36  1  0
 10 37  1  0
 10 38  1  0
 11 39  1  0
 11 40  1  0
 12 41  1  1
 13 42  1  0
 14 43  1  0
 14 44  1  0
 15 45  1  0
 15 46  1  0
 16 47  1  0
 16 48  1  0
 17 49  1  0
 17 50  1  0
 18 51  1  0
 18 52  1  0
 20 53  1  0
 21 54  1  0
 23 55  1  0
 26 56  1  0
 27 57  1  0
M  END
>  <smiles>  (42) 
O=C(NCC(=O)N1CCCCC1C1CCCCC1)c1ccc2cc(F)ccc2n1

>  <score_type>  (42) 
oracle

>  <origin>  (42) 
autodockgpu

>  <m_score__min__energy>  (42) 
-8.8000000000000007

>  <m_primary>  (42) 
energy

>  <rmsd>  (42) 
2.9858436639058663

>  <m_score__min__rmsd>  (42) 
2.9858436639058663

>  <meeko>  (42) 
{"free_energy": -8.13, "intermolecular_energy": -9.62, "internal_energy": -1.67, "cluster_size": 45, "cluster_id": 1, "rank_in_cluster": 37}

>  <energy>  (42) 
-7.84

>  <cluster_rmsd>  (42) 
1.02

>  <cluster>  (42) 
1

$$$$

     RDKit          3D

 57 60  0  0  0  0  0  0  0  0999 V2000
  140.9710   71.7630  221.1860 O   0  0  0  0  0  0  0  0  0  0  0  0
  140.3230   72.2220  222.1710 C   0  0  0  0  0  0  0  0  0  0  0  0
  139.7270   73.5160  222.1260 N   0  0  0  0  0  0  0  0  0  0  0  0
  139.8700   74.3270  220.9190 C   0  0  0  0  0  0  0  0  0  0  0  0
  140.8340   75.4460  221.1620 C   0  0  0  0  0  0  0  0  0  0  0  0
  140.9990   75.7690  222.3650 O   0  0  0  0  0  0  0  0  0  0  0  0
  141.4900   76.0630  220.0660 N   0  0  0  0  0  0  0  0  0  0  0  0
  140.7440   77.0470  219.2740 C   0  0  0  0  0  0  0  0  0  0  0  0
  141.5960   78.2290  218.8810 C   0  0  0  0  0  0  0  0  0  0  0  0
  142.9560   77.8120  218.3790 C   0  0  0  0  0  0  0  0  0  0  0  0
  143.0520   76.2800  218.2920 C   0  0  0  0  0  0  0  0  0  0  0  0
  142.8630   75.7750  219.6820 C   0  0  2  0  0  0  0  0  0  0  0  0
  143.3490   74.4170  219.9800 C   0  0  0  0  0  0  0  0  0  0  0  0
  144.8140   74.5170  220.4440 C   0  0  0  0  0  0  0  0  0  0  0  0
  145.3170   73.2130  220.9560 C   0  0  0  0  0  0  0  0  0  0  0  0
  144.2760   72.1460  220.8330 C   0  0  0  0  0  0  0  0  0  0  0  0
  143.7220   72.0760  219.4410 C   0  0  0  0  0  0  0  0  0  0  0  0
  143.3440   73.4240  218.8740 C   0  0  0  0  0  0  0  0  0  0  0  0
  140.1870   71.4060  223.3760 C   0  0  0  0  0  0  0  0  0  0  0  0
  139.5670   70.1760  223.3110 C   0  0  0  0  0  0  0  0  0  0  0  0
  139.4210   69.3810  224.4260 C   0  0  0  0  0  0  0  0  0  0  0  0
  139.9250   69.8630  225.6290 C   0  0  0  0  0  0  0  0  0  0  0  0
  139.7800   69.0670  226.7460 C   0  0  0  0  0  0  0  0  0  0  0  0
  140.2810   69.5430  227.9450 C   0  0  0  0  0  0  0  0  0  0  0  0
  140.1790   68.8200  229.0920 F   0  0  0  0  0  0  0  0  0  0  0  0
  140.8950   70.7750  227.9780 C   0  0  0  0  0  0  0  0  0  0  0  0
  141.0400   71.5710  226.8590 C   0  0  0  0  0  0  0  0  0  0  0  0
  140.5420   71.0940  225.6770 C   0  0  0  0  0  0  0  0  0  0  0  0
  140.6770   71.8670  224.5620 N   0  0  0  0  0  0  0  0  0  0  0  0
  139.2050   73.8340  222.9700 H   0  0  0  0  0  0  0  0  0  0  0  0
  140.2440   73.6962  220.0991 H   0  0  0  0  0  0  0  0  0  0  0  0
  138.8900   74.7482  220.6502 H   0  0  0  0  0  0  0  0  0  0  0  0
  140.3734   76.5586  218.3607 H   0  0  0  0  0  0  0  0  0  0  0  0
  139.9155   77.4201  219.8939 H   0  0  0  0  0  0  0  0  0  0  0  0
  141.0811   78.7874  218.0854 H   0  0  0  0  0  0  0  0  0  0  0  0
  141.7436   78.8504  219.7766 H   0  0  0  0  0  0  0  0  0  0  0  0
  143.1206   78.2422  217.3801 H   0  0  0  0  0  0  0  0  0  0  0  0
  143.7210   78.1769  219.0801 H   0  0  0  0  0  0  0  0  0  0  0  0
  142.2657   75.8850  217.6320 H   0  0  0  0  0  0  0  0  0  0  0  0
  144.0190   75.9606  217.8761 H   0  0  0  0  0  0  0  0  0  0  0  0
  143.5532   76.3208  220.3421 H   0  0  0  0  0  0  0  0  0  0  0  0
  142.6324   74.0472  220.7281 H   0  0  0  0  0  0  0  0  0  0  0  0
  145.4371   74.8309  219.5936 H   0  0  0  0  0  0  0  0  0  0  0  0
  144.8665   75.2509  221.2617 H   0  0  0  0  0  0  0  0  0  0  0  0
  146.2038   72.9177  220.3760 H   0  0  0  0  0  0  0  0  0  0  0  0
  145.5711   73.3309  222.0197 H   0  0  0  0  0  0  0  0  0  0  0  0
  144.7271   71.1755  221.0873 H   0  0  0  0  0  0  0  0  0  0  0  0
  143.4519   72.3871  221.5206 H   0  0  0  0  0  0  0  0  0  0  0  0
  144.4815   71.6236  218.7864 H   0  0  0  0  0  0  0  0  0  0  0  0
  142.8014   71.4758  219.4891 H   0  0  0  0  0  0  0  0  0  0  0  0
  144.0723   73.7209  218.1050 H   0  0  0  0  0  0  0  0  0  0  0  0
  142.3453   73.3743  218.4155 H   0  0  0  0  0  0  0  0  0  0  0  0
  139.1795   69.8211  222.3447 H   0  0  0  0  0  0  0  0  0  0  0  0
  138.9243   68.4013  224.3671 H   0  0  0  0  0  0  0  0  0  0  0  0
  139.2832   68.0874  226.6859 H   0  0  0  0  0  0  0  0  0  0  0  0
  141.2873   71.1413  228.9381 H   0  0  0  0  0  0  0  0  0  0  0  0
  141.5367   72.5508  226.9155 H   0  0  0  0  0  0  0  0  0  0  0  0
  1  2  2  0
  2  3  1  0
  3  4  1  0
  4  5  1  0
  5  6  2  0
  5  7  1  0
  7  8  1  0
  8  9  1  0
  9 10  1  0
 10 11  1  0
 11 12  1  0
 12 13  1  0
 13 14  1  0
 14 15  1  0
 15 16  1  0
 16 17  1  0
 17 18  1  0
  2 19  1  0
 19 20  2  0
 20 21  1  0
 21 22  2  0
 22 23  1  0
 23 24  2  0
 24 25  1  0
 24 26  1  0
 26 27  2  0
 27 28  1  0
 28 29  2  0
 12  7  1  0
 18 13  1  0
 29 19  1  0
 28 22  1  0
  3 30  1  0
  4 31  1  0
  4 32  1  0
  8 33  1  0
  8 34  1  0
  9 35  1  0
  9 36  1  0
 10 37  1  0
 10 38  1  0
 11 39  1  0
 11 40  1  0
 12 41  1  1
 13 42  1  0
 14 43  1  0
 14 44  1  0
 15 45  1  0
 15 46  1  0
 16 47  1  0
 16 48  1  0
 17 49  1  0
 17 50  1  0
 18 51  1  0
 18 52  1  0
 20 53  1  0
 21 54  1  0
 23 55  1  0
 26 56  1  0
 27 57  1  0
M  END
>  <smiles>  (43) 
O=C(NCC(=O)N1CCCCC1C1CCCCC1)c1ccc2cc(F)ccc2n1

>  <score_type>  (43) 
oracle

>  <origin>  (43) 
autodockgpu

>  <m_score__min__energy>  (43) 
-8.8000000000000007

>  <m_primary>  (43) 
energy

>  <rmsd>  (43) 
1.9333148800470514

>  <m_score__min__rmsd>  (43) 
1.9333148800470514

>  <meeko>  (43) 
{"free_energy": -8.45, "intermolecular_energy": -9.94, "internal_energy": -2.02, "cluster_size": 45, "cluster_id": 1, "rank_in_cluster": 17}

>  <energy>  (43) 
-7.78

>  <cluster_rmsd>  (43) 
0.91

>  <cluster>  (43) 
1

$$$$

     RDKit          3D

 57 60  0  0  0  0  0  0  0  0999 V2000
  140.4300   71.5900  221.0350 O   0  0  0  0  0  0  0  0  0  0  0  0
  140.1190   72.1540  222.1240 C   0  0  0  0  0  0  0  0  0  0  0  0
  139.8550   73.5540  222.1820 N   0  0  0  0  0  0  0  0  0  0  0  0
  139.9500   74.3510  220.9600 C   0  0  0  0  0  0  0  0  0  0  0  0
  140.8420   75.5310  221.1830 C   0  0  0  0  0  0  0  0  0  0  0  0
  140.9590   75.9050  222.3770 O   0  0  0  0  0  0  0  0  0  0  0  0
  141.4860   76.1470  220.0790 N   0  0  0  0  0  0  0  0  0  0  0  0
  140.7280   77.1210  219.2870 C   0  0  0  0  0  0  0  0  0  0  0  0
  141.5680   78.3070  218.8820 C   0  0  0  0  0  0  0  0  0  0  0  0
  142.9280   77.8970  218.3740 C   0  0  0  0  0  0  0  0  0  0  0  0
  143.0360   76.3660  218.2950 C   0  0  0  0  0  0  0  0  0  0  0  0
  142.8590   75.8670  219.6890 C   0  0  2  0  0  0  0  0  0  0  0  0
  143.3570   74.5140  219.9920 C   0  0  0  0  0  0  0  0  0  0  0  0
  144.8220   74.6280  220.4520 C   0  0  0  0  0  0  0  0  0  0  0  0
  145.3370   73.3310  220.9690 C   0  0  0  0  0  0  0  0  0  0  0  0
  144.3040   72.2550  220.8520 C   0  0  0  0  0  0  0  0  0  0  0  0
  143.7480   72.1740  219.4620 C   0  0  0  0  0  0  0  0  0  0  0  0
  143.3580   73.5170  218.8900 C   0  0  0  0  0  0  0  0  0  0  0  0
  140.0310   71.3510  223.3420 C   0  0  0  0  0  0  0  0  0  0  0  0
  139.5230   70.0700  223.2900 C   0  0  0  0  0  0  0  0  0  0  0  0
  139.4250   69.2860  224.4170 C   0  0  0  0  0  0  0  0  0  0  0  0
  139.8590   69.8330  225.6200 C   0  0  0  0  0  0  0  0  0  0  0  0
  139.7610   69.0470  226.7500 C   0  0  0  0  0  0  0  0  0  0  0  0
  140.1910   69.5870  227.9480 C   0  0  0  0  0  0  0  0  0  0  0  0
  140.1300   68.8790  229.1070 F   0  0  0  0  0  0  0  0  0  0  0  0
  140.6930   70.8690  227.9680 C   0  0  0  0  0  0  0  0  0  0  0  0
  140.7910   71.6550  226.8370 C   0  0  0  0  0  0  0  0  0  0  0  0
  140.3630   71.1140  225.6560 C   0  0  0  0  0  0  0  0  0  0  0  0
  140.4520   71.8760  224.5280 N   0  0  0  0  0  0  0  0  0  0  0  0
  139.6020   73.9570  223.1100 H   0  0  0  0  0  0  0  0  0  0  0  0
  140.3638   73.7299  220.1520 H   0  0  0  0  0  0  0  0  0  0  0  0
  138.9463   74.7060  220.6832 H   0  0  0  0  0  0  0  0  0  0  0  0
  140.3550   76.6249  218.3788 H   0  0  0  0  0  0  0  0  0  0  0  0
  139.9010   77.4914  219.9107 H   0  0  0  0  0  0  0  0  0  0  0  0
  141.0439   78.8568  218.0864 H   0  0  0  0  0  0  0  0  0  0  0  0
  141.7162   78.9350  219.7729 H   0  0  0  0  0  0  0  0  0  0  0  0
  143.0831   78.3227  217.3716 H   0  0  0  0  0  0  0  0  0  0  0  0
  143.6942   78.2715  219.0687 H   0  0  0  0  0  0  0  0  0  0  0  0
  142.2492   75.9609  217.6416 H   0  0  0  0  0  0  0  0  0  0  0  0
  144.0032   76.0523  217.8754 H   0  0  0  0  0  0  0  0  0  0  0  0
  143.5492   76.4212  220.3421 H   0  0  0  0  0  0  0  0  0  0  0  0
  142.6454   74.1414  220.7435 H   0  0  0  0  0  0  0  0  0  0  0  0
  145.4405   74.9429  219.5986 H   0  0  0  0  0  0  0  0  0  0  0  0
  144.8703   75.3662  221.2661 H   0  0  0  0  0  0  0  0  0  0  0  0
  146.2253   73.0405  220.3889 H   0  0  0  0  0  0  0  0  0  0  0  0
  145.5923   73.4556  222.0317 H   0  0  0  0  0  0  0  0  0  0  0  0
  144.7634   71.2893  221.1098 H   0  0  0  0  0  0  0  0  0  0  0  0
  143.4791   72.4931  221.5397 H   0  0  0  0  0  0  0  0  0  0  0  0
  144.5098   71.7248  218.8079 H   0  0  0  0  0  0  0  0  0  0  0  0
  142.8326   71.5663  219.5145 H   0  0  0  0  0  0  0  0  0  0  0  0
  144.0826   73.8167  218.1185 H   0  0  0  0  0  0  0  0  0  0  0  0
  142.3590   73.4575  218.4333 H   0  0  0  0  0  0  0  0  0  0  0  0
  139.1878   69.6647  222.3239 H   0  0  0  0  0  0  0  0  0  0  0  0
  139.0186   68.2650  224.3682 H   0  0  0  0  0  0  0  0  0  0  0  0
  139.3548   68.0260  226.6994 H   0  0  0  0  0  0  0  0  0  0  0  0
  141.0312   71.2858  228.9282 H   0  0  0  0  0  0  0  0  0  0  0  0
  141.1973   72.6761  226.8840 H   0  0  0  0  0  0  0  0  0  0  0  0
  1  2  2  0
  2  3  1  0
  3  4  1  0
  4  5  1  0
  5  6  2  0
  5  7  1  0
  7  8  1  0
  8  9  1  0
  9 10  1  0
 10 11  1  0
 11 12  1  0
 12 13  1  0
 13 14  1  0
 14 15  1  0
 15 16  1  0
 16 17  1  0
 17 18  1  0
  2 19  1  0
 19 20  2  0
 20 21  1  0
 21 22  2  0
 22 23  1  0
 23 24  2  0
 24 25  1  0
 24 26  1  0
 26 27  2  0
 27 28  1  0
 28 29  2  0
 12  7  1  0
 18 13  1  0
 29 19  1  0
 28 22  1  0
  3 30  1  0
  4 31  1  0
  4 32  1  0
  8 33  1  0
  8 34  1  0
  9 35  1  0
  9 36  1  0
 10 37  1  0
 10 38  1  0
 11 39  1  0
 11 40  1  0
 12 41  1  1
 13 42  1  0
 14 43  1  0
 14 44  1  0
 15 45  1  0
 15 46  1  0
 16 47  1  0
 16 48  1  0
 17 49  1  0
 17 50  1  0
 18 51  1  0
 18 52  1  0
 20 53  1  0
 21 54  1  0
 23 55  1  0
 26 56  1  0
 27 57  1  0
M  END
>  <smiles>  (44) 
O=C(NCC(=O)N1CCCCC1C1CCCCC1)c1ccc2cc(F)ccc2n1

>  <score_type>  (44) 
oracle

>  <origin>  (44) 
autodockgpu

>  <m_score__min__energy>  (44) 
-8.8000000000000007

>  <m_primary>  (44) 
energy

>  <rmsd>  (44) 
1.9214337017128034

>  <m_score__min__rmsd>  (44) 
1.9214337017128034

>  <meeko>  (44) 
{"free_energy": -8.33, "intermolecular_energy": -9.82, "internal_energy": -2.19, "cluster_size": 45, "cluster_id": 1, "rank_in_cluster": 25}

>  <energy>  (44) 
-7.53

>  <cluster_rmsd>  (44) 
1.48

>  <cluster>  (44) 
1

$$$$

     RDKit          3D

 57 60  0  0  0  0  0  0  0  0999 V2000
  140.3790   71.5660  221.0500 O   0  0  0  0  0  0  0  0  0  0  0  0
  140.0910   72.1230  222.1490 C   0  0  0  0  0  0  0  0  0  0  0  0
  139.8270   73.5210  222.2230 N   0  0  0  0  0  0  0  0  0  0  0  0
  139.8920   74.3270  221.0050 C   0  0  0  0  0  0  0  0  0  0  0  0
  140.7240   75.5480  221.2400 C   0  0  0  0  0  0  0  0  0  0  0  0
  140.7570   75.9630  222.4260 O   0  0  0  0  0  0  0  0  0  0  0  0
  141.4070   76.1560  220.1550 N   0  0  0  0  0  0  0  0  0  0  0  0
  140.7030   77.1810  219.3770 C   0  0  0  0  0  0  0  0  0  0  0  0
  141.6010   78.3340  219.0050 C   0  0  0  0  0  0  0  0  0  0  0  0
  142.9450   77.8720  218.5000 C   0  0  0  0  0  0  0  0  0  0  0  0
  142.9820   76.3390  218.3890 C   0  0  0  0  0  0  0  0  0  0  0  0
  142.7690   75.8200  219.7710 C   0  0  2  0  0  0  0  0  0  0  0  0
  143.2000   74.4400  220.0500 C   0  0  0  0  0  0  0  0  0  0  0  0
  144.6940   74.4650  220.4250 C   0  0  0  0  0  0  0  0  0  0  0  0
  145.1580   73.1390  220.9160 C   0  0  0  0  0  0  0  0  0  0  0  0
  144.0570   72.1280  220.8620 C   0  0  0  0  0  0  0  0  0  0  0  0
  143.4180   72.0810  219.5060 C   0  0  0  0  0  0  0  0  0  0  0  0
  143.0780   73.4440  218.9530 C   0  0  0  0  0  0  0  0  0  0  0  0
  140.0320   71.3110  223.3630 C   0  0  0  0  0  0  0  0  0  0  0  0
  139.5750   70.0110  223.3040 C   0  0  0  0  0  0  0  0  0  0  0  0
  139.5050   69.2180  224.4270 C   0  0  0  0  0  0  0  0  0  0  0  0
  139.9150   69.7750  225.6340 C   0  0  0  0  0  0  0  0  0  0  0  0
  139.8450   68.9810  226.7590 C   0  0  0  0  0  0  0  0  0  0  0  0
  140.2520   69.5310  227.9610 C   0  0  0  0  0  0  0  0  0  0  0  0
  140.2160   68.8160  229.1160 F   0  0  0  0  0  0  0  0  0  0  0  0
  140.7040   70.8320  227.9880 C   0  0  0  0  0  0  0  0  0  0  0  0
  140.7730   71.6260  226.8610 C   0  0  0  0  0  0  0  0  0  0  0  0
  140.3690   71.0750  225.6760 C   0  0  0  0  0  0  0  0  0  0  0  0
  140.4300   71.8450  224.5520 N   0  0  0  0  0  0  0  0  0  0  0  0
  139.5940   73.9170  223.1590 H   0  0  0  0  0  0  0  0  0  0  0  0
  140.3415   73.7304  220.1975 H   0  0  0  0  0  0  0  0  0  0  0  0
  138.8744   74.6339  220.7218 H   0  0  0  0  0  0  0  0  0  0  0  0
  140.3163   76.7220  218.4552 H   0  0  0  0  0  0  0  0  0  0  0  0
  139.8881   77.5767  220.0010 H   0  0  0  0  0  0  0  0  0  0  0  0
  141.1107   78.9244  218.2170 H   0  0  0  0  0  0  0  0  0  0  0  0
  141.7699   78.9352  219.9106 H   0  0  0  0  0  0  0  0  0  0  0  0
  143.1293   78.3111  217.5084 H   0  0  0  0  0  0  0  0  0  0  0  0
  143.7213   78.1957  219.2090 H   0  0  0  0  0  0  0  0  0  0  0  0
  142.1831   75.9851  217.7208 H   0  0  0  0  0  0  0  0  0  0  0  0
  143.9372   75.9889  217.9706 H   0  0  0  0  0  0  0  0  0  0  0  0
  143.4786   76.3275  220.4411 H   0  0  0  0  0  0  0  0  0  0  0  0
  142.5109   74.1117  220.8421 H   0  0  0  0  0  0  0  0  0  0  0  0
  145.2805   74.7418  219.5365 H   0  0  0  0  0  0  0  0  0  0  0  0
  144.8338   75.1989  221.2324 H   0  0  0  0  0  0  0  0  0  0  0  0
  145.9924   72.7951  220.2870 H   0  0  0  0  0  0  0  0  0  0  0  0
  145.4807   73.2477  221.9620 H   0  0  0  0  0  0  0  0  0  0  0  0
  144.4710   71.1362  221.0963 H   0  0  0  0  0  0  0  0  0  0  0  0
  143.2889   72.4156  221.5950 H   0  0  0  0  0  0  0  0  0  0  0  0
  144.1124   71.5865  218.8108 H   0  0  0  0  0  0  0  0  0  0  0  0
  142.4720   71.5300  219.6130 H   0  0  0  0  0  0  0  0  0  0  0  0
  143.7741   73.6993  218.1405 H   0  0  0  0  0  0  0  0  0  0  0  0
  142.0528   73.4449  218.5544 H   0  0  0  0  0  0  0  0  0  0  0  0
  139.2585   69.5975  222.3351 H   0  0  0  0  0  0  0  0  0  0  0  0
  139.1385   68.1823  224.3720 H   0  0  0  0  0  0  0  0  0  0  0  0
  139.4780   67.9456  226.7025 H   0  0  0  0  0  0  0  0  0  0  0  0
  141.0242   71.2571  228.9507 H   0  0  0  0  0  0  0  0  0  0  0  0
  141.1388   72.6620  226.9138 H   0  0  0  0  0  0  0  0  0  0  0  0
  1  2  2  0
  2  3  1  0
  3  4  1  0
  4  5  1  0
  5  6  2  0
  5  7  1  0
  7  8  1  0
  8  9  1  0
  9 10  1  0
 10 11  1  0
 11 12  1  0
 12 13  1  0
 13 14  1  0
 14 15  1  0
 15 16  1  0
 16 17  1  0
 17 18  1  0
  2 19  1  0
 19 20  2  0
 20 21  1  0
 21 22  2  0
 22 23  1  0
 23 24  2  0
 24 25  1  0
 24 26  1  0
 26 27  2  0
 27 28  1  0
 28 29  2  0
 12  7  1  0
 18 13  1  0
 29 19  1  0
 28 22  1  0
  3 30  1  0
  4 31  1  0
  4 32  1  0
  8 33  1  0
  8 34  1  0
  9 35  1  0
  9 36  1  0
 10 37  1  0
 10 38  1  0
 11 39  1  0
 11 40  1  0
 12 41  1  1
 13 42  1  0
 14 43  1  0
 14 44  1  0
 15 45  1  0
 15 46  1  0
 16 47  1  0
 16 48  1  0
 17 49  1  0
 17 50  1  0
 18 51  1  0
 18 52  1  0
 20 53  1  0
 21 54  1  0
 23 55  1  0
 26 56  1  0
 27 57  1  0
M  END
>  <smiles>  (45) 
O=C(NCC(=O)N1CCCCC1C1CCCCC1)c1ccc2cc(F)ccc2n1

>  <score_type>  (45) 
oracle

>  <origin>  (45) 
autodockgpu

>  <m_score__min__energy>  (45) 
-8.8000000000000007

>  <m_primary>  (45) 
energy

>  <rmsd>  (45) 
1.9130257447250232

>  <m_score__min__rmsd>  (45) 
1.9130257447250232

>  <meeko>  (45) 
{"free_energy": -8.23, "intermolecular_energy": -9.72, "internal_energy": -2.28, "cluster_size": 45, "cluster_id": 1, "rank_in_cluster": 32}

>  <energy>  (45) 
-7.25

>  <cluster_rmsd>  (45) 
1.68

>  <cluster>  (45) 
1

$$$$

     RDKit          3D

 57 60  0  0  0  0  0  0  0  0999 V2000
  133.2680   70.0160  226.6440 O   0  0  0  0  0  0  0  0  0  0  0  0
  133.7550   71.1110  226.2390 C   0  0  0  0  0  0  0  0  0  0  0  0
  134.8890   71.1420  225.3770 N   0  0  0  0  0  0  0  0  0  0  0  0
  135.5010   69.8830  224.9560 C   0  0  0  0  0  0  0  0  0  0  0  0
  136.6450   70.1510  224.0290 C   0  0  0  0  0  0  0  0  0  0  0  0
  136.9460   71.3610  223.8740 O   0  0  0  0  0  0  0  0  0  0  0  0
  137.3090   69.0690  223.3960 N   0  0  0  0  0  0  0  0  0  0  0  0
  136.5960   68.3360  222.3450 C   0  0  0  0  0  0  0  0  0  0  0  0
  137.4950   67.9760  221.1870 C   0  0  0  0  0  0  0  0  0  0  0  0
  138.8240   67.4300  221.6450 C   0  0  0  0  0  0  0  0  0  0  0  0
  138.8470   67.2750  223.1740 C   0  0  0  0  0  0  0  0  0  0  0  0
  138.6600   68.6460  223.7300 C   0  0  2  0  0  0  0  0  0  0  0  0
  139.0870   68.8760  225.1210 C   0  0  0  0  0  0  0  0  0  0  0  0
  140.0820   70.0510  225.1340 C   0  0  0  0  0  0  0  0  0  0  0  0
  140.4070   70.4780  226.5230 C   0  0  0  0  0  0  0  0  0  0  0  0
  139.7160   69.6130  227.5290 C   0  0  0  0  0  0  0  0  0  0  0  0
  139.9670   68.1580  227.2700 C   0  0  0  0  0  0  0  0  0  0  0  0
  139.7710   67.7610  225.8260 C   0  0  0  0  0  0  0  0  0  0  0  0
  133.1400   72.3660  226.6680 C   0  0  0  0  0  0  0  0  0  0  0  0
  131.9090   72.3550  227.2910 C   0  0  0  0  0  0  0  0  0  0  0  0
  131.3000   73.5170  227.7070 C   0  0  0  0  0  0  0  0  0  0  0  0
  131.9730   74.7130  227.4780 C   0  0  0  0  0  0  0  0  0  0  0  0
  131.3630   75.8770  227.8960 C   0  0  0  0  0  0  0  0  0  0  0  0
  132.0290   77.0680  227.6700 C   0  0  0  0  0  0  0  0  0  0  0  0
  131.4980   78.2600  228.0510 F   0  0  0  0  0  0  0  0  0  0  0  0
  133.2560   77.0470  227.0460 C   0  0  0  0  0  0  0  0  0  0  0  0
  133.8660   75.8810  226.6280 C   0  0  0  0  0  0  0  0  0  0  0  0
  133.2010   74.7070  226.8550 C   0  0  0  0  0  0  0  0  0  0  0  0
  133.7880   73.5450  226.4490 N   0  0  0  0  0  0  0  0  0  0  0  0
  135.2400   72.0770  225.0780 H   0  0  0  0  0  0  0  0  0  0  0  0
  135.8689   69.3436  225.8412 H   0  0  0  0  0  0  0  0  0  0  0  0
  134.7487   69.2748  224.4324 H   0  0  0  0  0  0  0  0  0  0  0  0
  136.1856   67.4105  222.7753 H   0  0  0  0  0  0  0  0  0  0  0  0
  135.7981   68.9889  221.9614 H   0  0  0  0  0  0  0  0  0  0  0  0
  136.9925   67.2150  220.5719 H   0  0  0  0  0  0  0  0  0  0  0  0
  137.6874   68.8934  220.6114 H   0  0  0  0  0  0  0  0  0  0  0  0
  138.9910   66.4475  221.1795 H   0  0  0  0  0  0  0  0  0  0  0  0
  139.6172   68.1317  221.3476 H   0  0  0  0  0  0  0  0  0  0  0  0
  138.0312   66.6146  223.5033 H   0  0  0  0  0  0  0  0  0  0  0  0
  139.7901   66.8260  223.5189 H   0  0  0  0  0  0  0  0  0  0  0  0
  139.3870   69.3148  223.2462 H   0  0  0  0  0  0  0  0  0  0  0  0
  138.1403   69.0422  225.6559 H   0  0  0  0  0  0  0  0  0  0  0  0
  141.0089   69.7396  224.6301 H   0  0  0  0  0  0  0  0  0  0  0  0
  139.6179   70.9009  224.6122 H   0  0  0  0  0  0  0  0  0  0  0  0
  141.4941   70.4075  226.6752 H   0  0  0  0  0  0  0  0  0  0  0  0
  140.0634   71.5141  226.6590 H   0  0  0  0  0  0  0  0  0  0  0  0
  140.0875   69.8663  228.5329 H   0  0  0  0  0  0  0  0  0  0  0  0
  138.6337   69.7945  227.4536 H   0  0  0  0  0  0  0  0  0  0  0  0
  141.0034   67.9269  227.5571 H   0  0  0  0  0  0  0  0  0  0  0  0
  139.2338   67.5923  227.8637 H   0  0  0  0  0  0  0  0  0  0  0  0
  140.7477   67.5691  225.3577 H   0  0  0  0  0  0  0  0  0  0  0  0
  139.1631   66.8462  225.7650 H   0  0  0  0  0  0  0  0  0  0  0  0
  131.4017   71.3936  227.4594 H   0  0  0  0  0  0  0  0  0  0  0  0
  130.3178   73.5008  228.2021 H   0  0  0  0  0  0  0  0  0  0  0  0
  130.3812   75.8589  228.3918 H   0  0  0  0  0  0  0  0  0  0  0  0
  133.7736   78.0020  226.8727 H   0  0  0  0  0  0  0  0  0  0  0  0
  134.8478   75.8953  226.1321 H   0  0  0  0  0  0  0  0  0  0  0  0
  1  2  2  0
  2  3  1  0
  3  4  1  0
  4  5  1  0
  5  6  2  0
  5  7  1  0
  7  8  1  0
  8  9  1  0
  9 10  1  0
 10 11  1  0
 11 12  1  0
 12 13  1  0
 13 14  1  0
 14 15  1  0
 15 16  1  0
 16 17  1  0
 17 18  1  0
  2 19  1  0
 19 20  2  0
 20 21  1  0
 21 22  2  0
 22 23  1  0
 23 24  2  0
 24 25  1  0
 24 26  1  0
 26 27  2  0
 27 28  1  0
 28 29  2  0
 12  7  1  0
 18 13  1  0
 29 19  1  0
 28 22  1  0
  3 30  1  0
  4 31  1  0
  4 32  1  0
  8 33  1  0
  8 34  1  0
  9 35  1  0
  9 36  1  0
 10 37  1  0
 10 38  1  0
 11 39  1  0
 11 40  1  0
 12 41  1  6
 13 42  1  0
 14 43  1  0
 14 44  1  0
 15 45  1  0
 15 46  1  0
 16 47  1  0
 16 48  1  0
 17 49  1  0
 17 50  1  0
 18 51  1  0
 18 52  1  0
 20 53  1  0
 21 54  1  0
 23 55  1  0
 26 56  1  0
 27 57  1  0
M  END
>  <smiles>  (46) 
O=C(NCC(=O)N1CCCCC1C1CCCCC1)c1ccc2cc(F)ccc2n1

>  <score_type>  (46) 
oracle

>  <origin>  (46) 
autodockgpu

>  <m_score__min__energy>  (46) 
-8.8000000000000007

>  <m_primary>  (46) 
energy

>  <rmsd>  (46) 
9.065143683052158

>  <m_score__min__rmsd>  (46) 
9.065143683052158

>  <meeko>  (46) 
{"free_energy": -7.88, "intermolecular_energy": -9.37, "internal_energy": -2.26, "cluster_size": 3, "cluster_id": 2, "rank_in_cluster": 3}

>  <energy>  (46) 
-8.4

>  <cluster_rmsd>  (46) 
0.0

>  <cluster>  (46) 
2

$$$$

     RDKit          3D

 57 60  0  0  0  0  0  0  0  0999 V2000
  138.5410   70.7080  221.7150 O   0  0  0  0  0  0  0  0  0  0  0  0
  139.0850   71.2520  222.7190 C   0  0  0  0  0  0  0  0  0  0  0  0
  139.4210   72.6360  222.7180 N   0  0  0  0  0  0  0  0  0  0  0  0
  139.1340   73.4410  221.5330 C   0  0  0  0  0  0  0  0  0  0  0  0
  140.0000   73.0060  220.3920 C   0  0  0  0  0  0  0  0  0  0  0  0
  139.3910   72.5740  219.3820 O   0  0  0  0  0  0  0  0  0  0  0  0
  141.4110   73.0960  220.5040 N   0  0  0  0  0  0  0  0  0  0  0  0
  142.1530   71.9030  220.9250 C   0  0  0  0  0  0  0  0  0  0  0  0
  143.4420   71.7310  220.1590 C   0  0  0  0  0  0  0  0  0  0  0  0
  144.2080   73.0250  220.0330 C   0  0  0  0  0  0  0  0  0  0  0  0
  143.5170   74.1410  220.8320 C   0  0  0  0  0  0  0  0  0  0  0  0
  142.1660   74.3080  220.2230 C   0  0  2  0  0  0  0  0  0  0  0  0
  141.4650   75.5800  220.4680 C   0  0  0  0  0  0  0  0  0  0  0  0
  142.3820   76.7330  220.0200 C   0  0  0  0  0  0  0  0  0  0  0  0
  141.6710   78.0410  220.0460 C   0  0  0  0  0  0  0  0  0  0  0  0
  140.2720   77.8840  220.5520 C   0  0  0  0  0  0  0  0  0  0  0  0
  140.2380   77.1510  221.8590 C   0  0  0  0  0  0  0  0  0  0  0  0
  141.0770   75.8950  221.8680 C   0  0  0  0  0  0  0  0  0  0  0  0
  139.3730   70.4390  223.8990 C   0  0  0  0  0  0  0  0  0  0  0  0
  139.0630   69.0950  223.9050 C   0  0  0  0  0  0  0  0  0  0  0  0
  139.3190   68.3000  225.0000 C   0  0  0  0  0  0  0  0  0  0  0  0
  139.9070   68.9010  226.1080 C   0  0  0  0  0  0  0  0  0  0  0  0
  140.1640   68.1040  227.2040 C   0  0  0  0  0  0  0  0  0  0  0  0
  140.7480   68.6990  228.3080 C   0  0  0  0  0  0  0  0  0  0  0  0
  141.0350   67.9850  229.4280 F   0  0  0  0  0  0  0  0  0  0  0  0
  141.0450   70.0430  228.2720 C   0  0  0  0  0  0  0  0  0  0  0  0
  140.7870   70.8400  227.1740 C   0  0  0  0  0  0  0  0  0  0  0  0
  140.2090   70.2450  226.0860 C   0  0  0  0  0  0  0  0  0  0  0  0
  139.9470   71.0160  224.9920 N   0  0  0  0  0  0  0  0  0  0  0  0
  139.8650   73.0230  223.5780 H   0  0  0  0  0  0  0  0  0  0  0  0
  138.0770   73.3157  221.2556 H   0  0  0  0  0  0  0  0  0  0  0  0
  139.3398   74.4979  221.7579 H   0  0  0  0  0  0  0  0  0  0  0  0
  142.3870   71.9915  221.9962 H   0  0  0  0  0  0  0  0  0  0  0  0
  141.5217   71.0251  220.7233 H   0  0  0  0  0  0  0  0  0  0  0  0
  144.0708   70.9970  220.6842 H   0  0  0  0  0  0  0  0  0  0  0  0
  143.1887   71.3888  219.1448 H   0  0  0  0  0  0  0  0  0  0  0  0
  145.2275   72.8810  220.4201 H   0  0  0  0  0  0  0  0  0  0  0  0
  144.2418   73.3160  218.9727 H   0  0  0  0  0  0  0  0  0  0  0  0
  143.4263   73.8535  221.8899 H   0  0  0  0  0  0  0  0  0  0  0  0
  144.0931   75.0774  220.7963 H   0  0  0  0  0  0  0  0  0  0  0  0
  142.2917   74.4229  219.1363 H   0  0  0  0  0  0  0  0  0  0  0  0
  140.5258   75.4675  219.9065 H   0  0  0  0  0  0  0  0  0  0  0  0
  143.2478   76.7839  220.6966 H   0  0  0  0  0  0  0  0  0  0  0  0
  142.7021   76.5360  218.9862 H   0  0  0  0  0  0  0  0  0  0  0  0
  142.2158   78.7329  220.7051 H   0  0  0  0  0  0  0  0  0  0  0  0
  141.6291   78.4361  219.0203 H   0  0  0  0  0  0  0  0  0  0  0  0
  139.8281   78.8810  220.6900 H   0  0  0  0  0  0  0  0  0  0  0  0
  139.7024   77.2996  219.8144 H   0  0  0  0  0  0  0  0  0  0  0  0
  140.6105   77.8240  222.6453 H   0  0  0  0  0  0  0  0  0  0  0  0
  139.1956   76.8447  222.0309 H   0  0  0  0  0  0  0  0  0  0  0  0
  141.9793   76.0553  222.4765 H   0  0  0  0  0  0  0  0  0  0  0  0
  140.5037   75.0606  222.2982 H   0  0  0  0  0  0  0  0  0  0  0  0
  138.6000   68.6472  223.0133 H   0  0  0  0  0  0  0  0  0  0  0  0
  139.0677   67.2291  224.9984 H   0  0  0  0  0  0  0  0  0  0  0  0
  139.9134   67.0329  227.2004 H   0  0  0  0  0  0  0  0  0  0  0  0
  141.5085   70.5025  229.1574 H   0  0  0  0  0  0  0  0  0  0  0  0
  141.0365   71.9113  227.1742 H   0  0  0  0  0  0  0  0  0  0  0  0
  1  2  2  0
  2  3  1  0
  3  4  1  0
  4  5  1  0
  5  6  2  0
  5  7  1  0
  7  8  1  0
  8  9  1  0
  9 10  1  0
 10 11  1  0
 11 12  1  0
 12 13  1  0
 13 14  1  0
 14 15  1  0
 15 16  1  0
 16 17  1  0
 17 18  1  0
  2 19  1  0
 19 20  2  0
 20 21  1  0
 21 22  2  0
 22 23  1  0
 23 24  2  0
 24 25  1  0
 24 26  1  0
 26 27  2  0
 27 28  1  0
 28 29  2  0
 12  7  1  0
 18 13  1  0
 29 19  1  0
 28 22  1  0
  3 30  1  0
  4 31  1  0
  4 32  1  0
  8 33  1  0
  8 34  1  0
  9 35  1  0
  9 36  1  0
 10 37  1  0
 10 38  1  0
 11 39  1  0
 11 40  1  0
 12 41  1  6
 13 42  1  0
 14 43  1  0
 14 44  1  0
 15 45  1  0
 15 46  1  0
 16 47  1  0
 16 48  1  0
 17 49  1  0
 17 50  1  0
 18 51  1  0
 18 52  1  0
 20 53  1  0
 21 54  1  0
 23 55  1  0
 26 56  1  0
 27 57  1  0
M  END
>  <smiles>  (47) 
O=C(NCC(=O)N1CCCCC1C1CCCCC1)c1ccc2cc(F)ccc2n1

>  <score_type>  (47) 
oracle

>  <origin>  (47) 
autodockgpu

>  <m_score__min__energy>  (47) 
-8.8000000000000007

>  <m_primary>  (47) 
energy

>  <rmsd>  (47) 
2.966998143118154

>  <m_score__min__rmsd>  (47) 
2.966998143118154

>  <meeko>  (47) 
{"free_energy": -7.25, "intermolecular_energy": -8.74, "internal_energy": -1.94, "cluster_size": 45, "cluster_id": 1, "rank_in_cluster": 45}

>  <energy>  (47) 
-8.38

>  <cluster_rmsd>  (47) 
0.17

>  <cluster>  (47) 
2

$$$$

     RDKit          3D

 57 60  0  0  0  0  0  0  0  0999 V2000
  134.7190   68.5130  225.1390 O   0  0  0  0  0  0  0  0  0  0  0  0
  135.1580   69.6780  224.9100 C   0  0  0  0  0  0  0  0  0  0  0  0
  136.2920   69.8890  224.0740 N   0  0  0  0  0  0  0  0  0  0  0  0
  136.9620   68.7370  223.4720 C   0  0  0  0  0  0  0  0  0  0  0  0
  138.4270   68.7770  223.7740 C   0  0  0  0  0  0  0  0  0  0  0  0
  138.9010   67.7420  224.3050 O   0  0  0  0  0  0  0  0  0  0  0  0
  139.1800   69.9370  223.4590 N   0  0  0  0  0  0  0  0  0  0  0  0
  139.5520   70.1660  222.0590 C   0  0  0  0  0  0  0  0  0  0  0  0
  139.4330   71.6170  221.6650 C   0  0  0  0  0  0  0  0  0  0  0  0
  140.0170   72.5420  222.7050 C   0  0  0  0  0  0  0  0  0  0  0  0
  140.6860   71.7350  223.8290 C   0  0  0  0  0  0  0  0  0  0  0  0
  139.6040   70.9160  224.4480 C   0  0  2  0  0  0  0  0  0  0  0  0
  139.8390   70.4030  225.8090 C   0  0  0  0  0  0  0  0  0  0  0  0
  140.4780   71.5260  226.6470 C   0  0  0  0  0  0  0  0  0  0  0  0
  140.5620   71.1550  228.0870 C   0  0  0  0  0  0  0  0  0  0  0  0
  140.0490   69.7690  228.3180 C   0  0  0  0  0  0  0  0  0  0  0  0
  140.7020   68.7800  227.4000 C   0  0  0  0  0  0  0  0  0  0  0  0
  140.7380   69.2280  225.9580 C   0  0  0  0  0  0  0  0  0  0  0  0
  134.4860   70.8240  225.5190 C   0  0  0  0  0  0  0  0  0  0  0  0
  133.4680   70.6250  226.4280 C   0  0  0  0  0  0  0  0  0  0  0  0
  132.8130   71.6810  227.0200 C   0  0  0  0  0  0  0  0  0  0  0  0
  133.2150   72.9660  226.6690 C   0  0  0  0  0  0  0  0  0  0  0  0
  132.5580   74.0240  227.2620 C   0  0  0  0  0  0  0  0  0  0  0  0
  132.9550   75.3030  226.9150 C   0  0  0  0  0  0  0  0  0  0  0  0
  132.3610   76.4000  227.4550 F   0  0  0  0  0  0  0  0  0  0  0  0
  133.9750   75.4690  226.0040 C   0  0  0  0  0  0  0  0  0  0  0  0
  134.6310   74.4090  225.4110 C   0  0  0  0  0  0  0  0  0  0  0  0
  134.2330   73.1470  225.7590 C   0  0  0  0  0  0  0  0  0  0  0  0
  134.8700   72.0880  225.1820 N   0  0  0  0  0  0  0  0  0  0  0  0
  136.6020   70.8730  223.9240 H   0  0  0  0  0  0  0  0  0  0  0  0
  136.5315   67.8112  223.8813 H   0  0  0  0  0  0  0  0  0  0  0  0
  136.8187   68.7670  222.3818 H   0  0  0  0  0  0  0  0  0  0  0  0
  140.5936   69.8440  221.9126 H   0  0  0  0  0  0  0  0  0  0  0  0
  138.8604   69.5883  221.4283 H   0  0  0  0  0  0  0  0  0  0  0  0
  139.9663   71.7707  220.7153 H   0  0  0  0  0  0  0  0  0  0  0  0
  138.3630   71.8528  221.5672 H   0  0  0  0  0  0  0  0  0  0  0  0
  140.7668   73.1923  222.2308 H   0  0  0  0  0  0  0  0  0  0  0  0
  139.2070   73.1485  223.1364 H   0  0  0  0  0  0  0  0  0  0  0  0
  141.4702   71.0831  223.4167 H   0  0  0  0  0  0  0  0  0  0  0  0
  141.1648   72.3943  224.5680 H   0  0  0  0  0  0  0  0  0  0  0  0
  138.7642   71.5840  224.6901 H   0  0  0  0  0  0  0  0  0  0  0  0
  138.8419   70.0700  226.1330 H   0  0  0  0  0  0  0  0  0  0  0  0
  141.4924   71.7207  226.2687 H   0  0  0  0  0  0  0  0  0  0  0  0
  139.8472   72.4228  226.5588 H   0  0  0  0  0  0  0  0  0  0  0  0
  141.6120   71.2078  228.4107 H   0  0  0  0  0  0  0  0  0  0  0  0
  139.9429   71.8570  228.6648 H   0  0  0  0  0  0  0  0  0  0  0  0
  140.2557   69.4805  229.3592 H   0  0  0  0  0  0  0  0  0  0  0  0
  138.9675   69.7639  228.1169 H   0  0  0  0  0  0  0  0  0  0  0  0
  141.7356   68.6190  227.7403 H   0  0  0  0  0  0  0  0  0  0  0  0
  140.1018   67.8590  227.4374 H   0  0  0  0  0  0  0  0  0  0  0  0
  141.7651   69.5087  225.6817 H   0  0  0  0  0  0  0  0  0  0  0  0
  140.4052   68.4116  225.3002 H   0  0  0  0  0  0  0  0  0  0  0  0
  133.1723   69.5974  226.6861 H   0  0  0  0  0  0  0  0  0  0  0  0
  132.0016   71.5151  227.7440 H   0  0  0  0  0  0  0  0  0  0  0  0
  131.7466   73.8566  227.9856 H   0  0  0  0  0  0  0  0  0  0  0  0
  134.2803   76.4916  225.7373 H   0  0  0  0  0  0  0  0  0  0  0  0
  135.4424   74.5726  224.6866 H   0  0  0  0  0  0  0  0  0  0  0  0
  1  2  2  0
  2  3  1  0
  3  4  1  0
  4  5  1  0
  5  6  2  0
  5  7  1  0
  7  8  1  0
  8  9  1  0
  9 10  1  0
 10 11  1  0
 11 12  1  0
 12 13  1  0
 13 14  1  0
 14 15  1  0
 15 16  1  0
 16 17  1  0
 17 18  1  0
  2 19  1  0
 19 20  2  0
 20 21  1  0
 21 22  2  0
 22 23  1  0
 23 24  2  0
 24 25  1  0
 24 26  1  0
 26 27  2  0
 27 28  1  0
 28 29  2  0
 12  7  1  0
 18 13  1  0
 29 19  1  0
 28 22  1  0
  3 30  1  0
  4 31  1  0
  4 32  1  0
  8 33  1  0
  8 34  1  0
  9 35  1  0
  9 36  1  0
 10 37  1  0
 10 38  1  0
 11 39  1  0
 11 40  1  0
 12 41  1  1
 13 42  1  0
 14 43  1  0
 14 44  1  0
 15 45  1  0
 15 46  1  0
 16 47  1  0
 16 48  1  0
 17 49  1  0
 17 50  1  0
 18 51  1  0
 18 52  1  0
 20 53  1  0
 21 54  1  0
 23 55  1  0
 26 56  1  0
 27 57  1  0
M  END
>  <smiles>  (48) 
O=C(NCC(=O)N1CCCCC1C1CCCCC1)c1ccc2cc(F)ccc2n1

>  <score_type>  (48) 
oracle

>  <origin>  (48) 
autodockgpu

>  <m_score__min__energy>  (48) 
-8.8000000000000007

>  <m_primary>  (48) 
energy

>  <rmsd>  (48) 
7.244370579650256

>  <m_score__min__rmsd>  (48) 
7.244370579650256

>  <meeko>  (48) 
{"free_energy": -8.38, "intermolecular_energy": -9.87, "internal_energy": -1.97, "cluster_size": 3, "cluster_id": 2, "rank_in_cluster": 2}

>  <energy>  (48) 
-7.88

>  <cluster_rmsd>  (48) 
1.76

>  <cluster>  (48) 
2

$$$$

     RDKit          3D

 57 60  0  0  0  0  0  0  0  0999 V2000
  140.2200   71.3820  220.9910 O   0  0  0  0  0  0  0  0  0  0  0  0
  139.9830   71.9530  222.0950 C   0  0  0  0  0  0  0  0  0  0  0  0
  139.7640   73.3590  222.1680 N   0  0  0  0  0  0  0  0  0  0  0  0
  139.8160   74.1560  220.9430 C   0  0  0  0  0  0  0  0  0  0  0  0
  140.5110   75.4550  221.2040 C   0  0  0  0  0  0  0  0  0  0  0  0
  140.4270   75.8890  222.3800 O   0  0  0  0  0  0  0  0  0  0  0  0
  141.2020   76.1090  220.1520 N   0  0  0  0  0  0  0  0  0  0  0  0
  140.4840   77.1230  219.3720 C   0  0  0  0  0  0  0  0  0  0  0  0
  141.3500   78.3150  219.0490 C   0  0  0  0  0  0  0  0  0  0  0  0
  142.7250   77.9130  218.5770 C   0  0  0  0  0  0  0  0  0  0  0  0
  142.8210   76.3850  218.4380 C   0  0  0  0  0  0  0  0  0  0  0  0
  142.5870   75.8310  219.8020 C   0  0  2  0  0  0  0  0  0  0  0  0
  143.0600   74.4620  220.0670 C   0  0  0  0  0  0  0  0  0  0  0  0
  144.5810   74.5130  220.3110 C   0  0  0  0  0  0  0  0  0  0  0  0
  145.1050   73.2020  220.7830 C   0  0  0  0  0  0  0  0  0  0  0  0
  144.0170   72.1770  220.8440 C   0  0  0  0  0  0  0  0  0  0  0  0
  143.2630   72.0950  219.5510 C   0  0  0  0  0  0  0  0  0  0  0  0
  142.8570   73.4430  219.0040 C   0  0  0  0  0  0  0  0  0  0  0  0
  139.9370   71.1500  223.3150 C   0  0  0  0  0  0  0  0  0  0  0  0
  139.4710   69.8520  223.2710 C   0  0  0  0  0  0  0  0  0  0  0  0
  139.4130   69.0680  224.4010 C   0  0  0  0  0  0  0  0  0  0  0  0
  139.8430   69.6310  225.5980 C   0  0  0  0  0  0  0  0  0  0  0  0
  139.7840   68.8450  226.7300 C   0  0  0  0  0  0  0  0  0  0  0  0
  140.2110   69.4010  227.9210 C   0  0  0  0  0  0  0  0  0  0  0  0
  140.1870   68.6940  229.0820 F   0  0  0  0  0  0  0  0  0  0  0  0
  140.6700   70.7000  227.9340 C   0  0  0  0  0  0  0  0  0  0  0  0
  140.7280   71.4860  226.8000 C   0  0  0  0  0  0  0  0  0  0  0  0
  140.3040   70.9290  225.6250 C   0  0  0  0  0  0  0  0  0  0  0  0
  140.3540   71.6900  224.4950 N   0  0  0  0  0  0  0  0  0  0  0  0
  139.5720   73.7670  223.1080 H   0  0  0  0  0  0  0  0  0  0  0  0
  140.3647   73.5988  220.1694 H   0  0  0  0  0  0  0  0  0  0  0  0
  138.7902   74.3587  220.6015 H   0  0  0  0  0  0  0  0  0  0  0  0
  140.1420   76.6685  218.4304 H   0  0  0  0  0  0  0  0  0  0  0  0
  139.6368   77.4765  219.9780 H   0  0  0  0  0  0  0  0  0  0  0  0
  140.8621   78.9025  218.2573 H   0  0  0  0  0  0  0  0  0  0  0  0
  141.4695   78.9035  219.9706 H   0  0  0  0  0  0  0  0  0  0  0  0
  142.9229   78.3785  217.6002 H   0  0  0  0  0  0  0  0  0  0  0  0
  143.4674   78.2505  219.3152 H   0  0  0  0  0  0  0  0  0  0  0  0
  142.0554   76.0162  217.7395 H   0  0  0  0  0  0  0  0  0  0  0  0
  143.8001   76.0780  218.0418 H   0  0  0  0  0  0  0  0  0  0  0  0
  143.2574   76.3508  220.5023 H   0  0  0  0  0  0  0  0  0  0  0  0
  142.4465   74.1404  220.9215 H   0  0  0  0  0  0  0  0  0  0  0  0
  145.0846   74.7809  219.3704 H   0  0  0  0  0  0  0  0  0  0  0  0
  144.7792   75.2633  221.0906 H   0  0  0  0  0  0  0  0  0  0  0  0
  145.8856   72.8564  220.0893 H   0  0  0  0  0  0  0  0  0  0  0  0
  145.5171   73.3343  221.7943 H   0  0  0  0  0  0  0  0  0  0  0  0
  144.4633   71.1951  221.0598 H   0  0  0  0  0  0  0  0  0  0  0  0
  143.3118   72.4705  221.6355 H   0  0  0  0  0  0  0  0  0  0  0  0
  143.9008   71.5951  218.8071 H   0  0  0  0  0  0  0  0  0  0  0  0
  142.3377   71.5348  219.7509 H   0  0  0  0  0  0  0  0  0  0  0  0
  143.4761   73.6906  218.1291 H   0  0  0  0  0  0  0  0  0  0  0  0
  141.8010   73.4233  218.6965 H   0  0  0  0  0  0  0  0  0  0  0  0
  139.1378   69.4336  222.3098 H   0  0  0  0  0  0  0  0  0  0  0  0
  139.0402   68.0340  224.3589 H   0  0  0  0  0  0  0  0  0  0  0  0
  139.4100   67.8114  226.6863 H   0  0  0  0  0  0  0  0  0  0  0  0
  141.0049   71.1299  228.8895 H   0  0  0  0  0  0  0  0  0  0  0  0
  141.1008   72.5201  226.8402 H   0  0  0  0  0  0  0  0  0  0  0  0
  1  2  2  0
  2  3  1  0
  3  4  1  0
  4  5  1  0
  5  6  2  0
  5  7  1  0
  7  8  1  0
  8  9  1  0
  9 10  1  0
 10 11  1  0
 11 12  1  0
 12 13  1  0
 13 14  1  0
 14 15  1  0
 15 16  1  0
 16 17  1  0
 17 18  1  0
  2 19  1  0
 19 20  2  0
 20 21  1  0
 21 22  2  0
 22 23  1  0
 23 24  2  0
 24 25  1  0
 24 26  1  0
 26 27  2  0
 27 28  1  0
 28 29  2  0
 12  7  1  0
 18 13  1  0
 29 19  1  0
 28 22  1  0
  3 30  1  0
  4 31  1  0
  4 32  1  0
  8 33  1  0
  8 34  1  0
  9 35  1  0
  9 36  1  0
 10 37  1  0
 10 38  1  0
 11 39  1  0
 11 40  1  0
 12 41  1  1
 13 42  1  0
 14 43  1  0
 14 44  1  0
 15 45  1  0
 15 46  1  0
 16 47  1  0
 16 48  1  0
 17 49  1  0
 17 50  1  0
 18 51  1  0
 18 52  1  0
 20 53  1  0
 21 54  1  0
 23 55  1  0
 26 56  1  0
 27 57  1  0
M  END
>  <smiles>  (49) 
O=C(NCC(=O)N1CCCCC1C1CCCCC1)c1ccc2cc(F)ccc2n1

>  <score_type>  (49) 
oracle

>  <origin>  (49) 
autodockgpu

>  <m_score__min__energy>  (49) 
-8.8000000000000007

>  <m_primary>  (49) 
energy

>  <rmsd>  (49) 
1.8028019903127313

>  <m_score__min__rmsd>  (49) 
1.8028019903127313

>  <meeko>  (49) 
{"free_energy": -8.18, "intermolecular_energy": -9.67, "internal_energy": -2.34, "cluster_size": 45, "cluster_id": 1, "rank_in_cluster": 34}

>  <energy>  (49) 
-7.74

>  <cluster_rmsd>  (49) 
0.0

>  <cluster>  (49) 
3

$$$$

     RDKit          3D

 57 60  0  0  0  0  0  0  0  0999 V2000
  140.2310   71.3550  220.9990 O   0  0  0  0  0  0  0  0  0  0  0  0
  139.9990   71.9330  222.1010 C   0  0  0  0  0  0  0  0  0  0  0  0
  139.7860   73.3400  222.1670 N   0  0  0  0  0  0  0  0  0  0  0  0
  139.8390   74.1300  220.9380 C   0  0  0  0  0  0  0  0  0  0  0  0
  140.5040   75.4450  221.2000 C   0  0  0  0  0  0  0  0  0  0  0  0
  140.3910   75.8870  222.3700 O   0  0  0  0  0  0  0  0  0  0  0  0
  141.2020   76.1030  220.1550 N   0  0  0  0  0  0  0  0  0  0  0  0
  140.4830   77.1090  219.3650 C   0  0  0  0  0  0  0  0  0  0  0  0
  141.3410   78.3090  219.0500 C   0  0  0  0  0  0  0  0  0  0  0  0
  142.7250   77.9180  218.5940 C   0  0  0  0  0  0  0  0  0  0  0  0
  142.8380   76.3910  218.4590 C   0  0  0  0  0  0  0  0  0  0  0  0
  142.5920   75.8370  219.8220 C   0  0  2  0  0  0  0  0  0  0  0  0
  143.0760   74.4730  220.0950 C   0  0  0  0  0  0  0  0  0  0  0  0
  144.6040   74.5270  220.2770 C   0  0  0  0  0  0  0  0  0  0  0  0
  145.1460   73.2250  220.7540 C   0  0  0  0  0  0  0  0  0  0  0  0
  144.0610   72.2020  220.8790 C   0  0  0  0  0  0  0  0  0  0  0  0
  143.2570   72.0970  219.6170 C   0  0  0  0  0  0  0  0  0  0  0  0
  142.8300   73.4340  219.0610 C   0  0  0  0  0  0  0  0  0  0  0  0
  139.9510   71.1360  223.3260 C   0  0  0  0  0  0  0  0  0  0  0  0
  139.4750   69.8420  223.2900 C   0  0  0  0  0  0  0  0  0  0  0  0
  139.4150   69.0640  224.4240 C   0  0  0  0  0  0  0  0  0  0  0  0
  139.8560   69.6300  225.6160 C   0  0  0  0  0  0  0  0  0  0  0  0
  139.7960   68.8500  226.7530 C   0  0  0  0  0  0  0  0  0  0  0  0
  140.2340   69.4090  227.9390 C   0  0  0  0  0  0  0  0  0  0  0  0
  140.2090   68.7080  229.1040 F   0  0  0  0  0  0  0  0  0  0  0  0
  140.7040   70.7030  227.9430 C   0  0  0  0  0  0  0  0  0  0  0  0
  140.7630   71.4830  226.8050 C   0  0  0  0  0  0  0  0  0  0  0  0
  140.3290   70.9240  225.6350 C   0  0  0  0  0  0  0  0  0  0  0  0
  140.3800   71.6790  224.5000 N   0  0  0  0  0  0  0  0  0  0  0  0
  139.5980   73.7540  223.1050 H   0  0  0  0  0  0  0  0  0  0  0  0
  140.4097   73.5792  220.1758 H   0  0  0  0  0  0  0  0  0  0  0  0
  138.8142   74.3097  220.5811 H   0  0  0  0  0  0  0  0  0  0  0  0
  140.1563   76.6498  218.4203 H   0  0  0  0  0  0  0  0  0  0  0  0
  139.6255   77.4552  219.9607 H   0  0  0  0  0  0  0  0  0  0  0  0
  140.8566   78.8908  218.2520 H   0  0  0  0  0  0  0  0  0  0  0  0
  141.4444   78.9007  219.9716 H   0  0  0  0  0  0  0  0  0  0  0  0
  142.9293   78.3834  217.6185 H   0  0  0  0  0  0  0  0  0  0  0  0
  143.4555   78.2634  219.3404 H   0  0  0  0  0  0  0  0  0  0  0  0
  142.0851   76.0133  217.7516 H   0  0  0  0  0  0  0  0  0  0  0  0
  143.8250   76.0929  218.0757 H   0  0  0  0  0  0  0  0  0  0  0  0
  143.2480   76.3643  220.5302 H   0  0  0  0  0  0  0  0  0  0  0  0
  142.4979   74.1689  220.9801 H   0  0  0  0  0  0  0  0  0  0  0  0
  145.0698   74.7754  219.3119 H   0  0  0  0  0  0  0  0  0  0  0  0
  144.8334   75.2926  221.0328 H   0  0  0  0  0  0  0  0  0  0  0  0
  145.8982   72.8648  220.0368 H   0  0  0  0  0  0  0  0  0  0  0  0
  145.5979   73.3773  221.7453 H   0  0  0  0  0  0  0  0  0  0  0  0
  144.5151   71.2239  221.0960 H   0  0  0  0  0  0  0  0  0  0  0  0
  143.3879   72.5102  221.6926 H   0  0  0  0  0  0  0  0  0  0  0  0
  143.8655   71.5830  218.8584 H   0  0  0  0  0  0  0  0  0  0  0  0
  142.3400   71.5417  219.8633 H   0  0  0  0  0  0  0  0  0  0  0  0
  143.4135   73.6639  218.1573 H   0  0  0  0  0  0  0  0  0  0  0  0
  141.7625   73.4096  218.7966 H   0  0  0  0  0  0  0  0  0  0  0  0
  139.1352   69.4216  222.3320 H   0  0  0  0  0  0  0  0  0  0  0  0
  139.0326   68.0332  224.3891 H   0  0  0  0  0  0  0  0  0  0  0  0
  139.4130   67.8195  226.7167 H   0  0  0  0  0  0  0  0  0  0  0  0
  141.0477   71.1346  228.8946 H   0  0  0  0  0  0  0  0  0  0  0  0
  141.1444   72.5142  226.8384 H   0  0  0  0  0  0  0  0  0  0  0  0
  1  2  2  0
  2  3  1  0
  3  4  1  0
  4  5  1  0
  5  6  2  0
  5  7  1  0
  7  8  1  0
  8  9  1  0
  9 10  1  0
 10 11  1  0
 11 12  1  0
 12 13  1  0
 13 14  1  0
 14 15  1  0
 15 16  1  0
 16 17  1  0
 17 18  1  0
  2 19  1  0
 19 20  2  0
 20 21  1  0
 21 22  2  0
 22 23  1  0
 23 24  2  0
 24 25  1  0
 24 26  1  0
 26 27  2  0
 27 28  1  0
 28 29  2  0
 12  7  1  0
 18 13  1  0
 29 19  1  0
 28 22  1  0
  3 30  1  0
  4 31  1  0
  4 32  1  0
  8 33  1  0
  8 34  1  0
  9 35  1  0
  9 36  1  0
 10 37  1  0
 10 38  1  0
 11 39  1  0
 11 40  1  0
 12 41  1  1
 13 42  1  0
 14 43  1  0
 14 44  1  0
 15 45  1  0
 15 46  1  0
 16 47  1  0
 16 48  1  0
 17 49  1  0
 17 50  1  0
 18 51  1  0
 18 52  1  0
 20 53  1  0
 21 54  1  0
 23 55  1  0
 26 56  1  0
 27 57  1  0
M  END
>  <smiles>  (50) 
O=C(NCC(=O)N1CCCCC1C1CCCCC1)c1ccc2cc(F)ccc2n1

>  <score_type>  (50) 
oracle

>  <origin>  (50) 
autodockgpu

>  <m_score__min__energy>  (50) 
-8.8000000000000007

>  <m_primary>  (50) 
energy

>  <rmsd>  (50) 
1.80374324557859

>  <m_score__min__rmsd>  (50) 
1.80374324557859

>  <meeko>  (50) 
{"free_energy": -8.17, "intermolecular_energy": -9.66, "internal_energy": -2.35, "cluster_size": 45, "cluster_id": 1, "rank_in_cluster": 35}

>  <energy>  (50) 
-7.58

>  <cluster_rmsd>  (50) 
1.23

>  <cluster>  (50) 
3

$$$$

     RDKit          3D

 57 60  0  0  0  0  0  0  0  0999 V2000
  140.8060   71.8490  221.1680 O   0  0  0  0  0  0  0  0  0  0  0  0
  140.3410   72.3180  222.2480 C   0  0  0  0  0  0  0  0  0  0  0  0
  139.9400   73.6910  222.2960 N   0  0  0  0  0  0  0  0  0  0  0  0
  140.0970   74.4680  221.0820 C   0  0  0  0  0  0  0  0  0  0  0  0
  140.0040   75.9330  221.4220 C   0  0  0  0  0  0  0  0  0  0  0  0
  139.6520   76.1950  222.5960 O   0  0  0  0  0  0  0  0  0  0  0  0
  140.3040   76.9260  220.4470 N   0  0  0  0  0  0  0  0  0  0  0  0
  139.5400   76.9570  219.2340 C   0  0  0  0  0  0  0  0  0  0  0  0
  140.2460   77.5130  218.0490 C   0  0  0  0  0  0  0  0  0  0  0  0
  141.6770   77.8760  218.2700 C   0  0  0  0  0  0  0  0  0  0  0  0
  141.9410   78.5700  219.5840 C   0  0  0  0  0  0  0  0  0  0  0  0
  141.3790   77.8460  220.7630 C   0  0  1  0  0  0  0  0  0  0  0  0
  140.9640   78.7970  221.8950 C   0  0  0  0  0  0  0  0  0  0  0  0
  141.6470   78.3490  223.1390 C   0  0  0  0  0  0  0  0  0  0  0  0
  141.7830   79.3810  224.2180 C   0  0  0  0  0  0  0  0  0  0  0  0
  142.5460   80.5200  223.5730 C   0  0  0  0  0  0  0  0  0  0  0  0
  141.5340   81.1420  222.6450 C   0  0  0  0  0  0  0  0  0  0  0  0
  141.0950   80.2230  221.5360 C   0  0  0  0  0  0  0  0  0  0  0  0
  140.1970   71.4990  223.4540 C   0  0  0  0  0  0  0  0  0  0  0  0
  139.5730   70.2700  223.3190 C   0  0  0  0  0  0  0  0  0  0  0  0
  139.3980   69.4330  224.4200 C   0  0  0  0  0  0  0  0  0  0  0  0
  139.8730   69.8780  225.6460 C   0  0  0  0  0  0  0  0  0  0  0  0
  139.7190   69.0790  226.7510 C   0  0  0  0  0  0  0  0  0  0  0  0
  140.1740   69.4790  227.9870 C   0  0  0  0  0  0  0  0  0  0  0  0
  140.0410   68.7210  229.1000 F   0  0  0  0  0  0  0  0  0  0  0  0
  140.7950   70.7160  228.0870 C   0  0  0  0  0  0  0  0  0  0  0  0
  140.9490   71.5180  226.9740 C   0  0  0  0  0  0  0  0  0  0  0  0
  140.4910   71.1090  225.7450 C   0  0  0  0  0  0  0  0  0  0  0  0
  140.6440   71.8980  224.6540 N   0  0  0  0  0  0  0  0  0  0  0  0
  139.5550   74.0790  223.1850 H   0  0  0  0  0  0  0  0  0  0  0  0
  141.0781   74.2553  220.6322 H   0  0  0  0  0  0  0  0  0  0  0  0
  139.3061   74.2018  220.3654 H   0  0  0  0  0  0  0  0  0  0  0  0
  139.2385   75.9261  218.9965 H   0  0  0  0  0  0  0  0  0  0  0  0
  138.6933   77.6323  219.4265 H   0  0  0  0  0  0  0  0  0  0  0  0
  140.2062   76.7617  217.2465 H   0  0  0  0  0  0  0  0  0  0  0  0
  139.7294   78.4518  217.8006 H   0  0  0  0  0  0  0  0  0  0  0  0
  142.2759   76.9538  218.2400 H   0  0  0  0  0  0  0  0  0  0  0  0
  141.9503   78.5862  217.4757 H   0  0  0  0  0  0  0  0  0  0  0  0
  143.0291   78.6609  219.7174 H   0  0  0  0  0  0  0  0  0  0  0  0
  141.4432   79.5499  219.5384 H   0  0  0  0  0  0  0  0  0  0  0  0
  142.2160   77.2275  221.1191 H   0  0  0  0  0  0  0  0  0  0  0  0
  139.8824   78.7367  222.0860 H   0  0  0  0  0  0  0  0  0  0  0  0
  141.0767   77.5034  223.5510 H   0  0  0  0  0  0  0  0  0  0  0  0
  142.6742   78.0934  222.8397 H   0  0  0  0  0  0  0  0  0  0  0  0
  140.7928   79.7207  224.5559 H   0  0  0  0  0  0  0  0  0  0  0  0
  142.2991   78.9868  225.1058 H   0  0  0  0  0  0  0  0  0  0  0  0
  142.8837   81.2445  224.3287 H   0  0  0  0  0  0  0  0  0  0  0  0
  143.4553   80.1853  223.0523 H   0  0  0  0  0  0  0  0  0  0  0  0
  140.6491   81.4255  223.2337 H   0  0  0  0  0  0  0  0  0  0  0  0
  142.0164   82.0114  222.1744 H   0  0  0  0  0  0  0  0  0  0  0  0
  140.1154   80.5717  221.1770 H   0  0  0  0  0  0  0  0  0  0  0  0
  141.8918   80.2677  220.7790 H   0  0  0  0  0  0  0  0  0  0  0  0
  139.2110   69.9503  222.3307 H   0  0  0  0  0  0  0  0  0  0  0  0
  138.9019   68.4562  224.3209 H   0  0  0  0  0  0  0  0  0  0  0  0
  139.2236   68.1024  226.6473 H   0  0  0  0  0  0  0  0  0  0  0  0
  141.1681   71.0608  229.0626 H   0  0  0  0  0  0  0  0  0  0  0  0
  141.4440   72.4954  227.0722 H   0  0  0  0  0  0  0  0  0  0  0  0
  1  2  2  0
  2  3  1  0
  3  4  1  0
  4  5  1  0
  5  6  2  0
  5  7  1  0
  7  8  1  0
  8  9  1  0
  9 10  1  0
 10 11  1  0
 11 12  1  0
 12 13  1  0
 13 14  1  0
 14 15  1  0
 15 16  1  0
 16 17  1  0
 17 18  1  0
  2 19  1  0
 19 20  2  0
 20 21  1  0
 21 22  2  0
 22 23  1  0
 23 24  2  0
 24 25  1  0
 24 26  1  0
 26 27  2  0
 27 28  1  0
 28 29  2  0
 12  7  1  0
 18 13  1  0
 29 19  1  0
 28 22  1  0
  3 30  1  0
  4 31  1  0
  4 32  1  0
  8 33  1  0
  8 34  1  0
  9 35  1  0
  9 36  1  0
 10 37  1  0
 10 38  1  0
 11 39  1  0
 11 40  1  0
 12 41  1  1
 13 42  1  0
 14 43  1  0
 14 44  1  0
 15 45  1  0
 15 46  1  0
 16 47  1  0
 16 48  1  0
 17 49  1  0
 17 50  1  0
 18 51  1  0
 18 52  1  0
 20 53  1  0
 21 54  1  0
 23 55  1  0
 26 56  1  0
 27 57  1  0
M  END
>  <smiles>  (51) 
O=C(NCC(=O)N1CCCCC1C1CCCCC1)c1ccc2cc(F)ccc2n1

>  <score_type>  (51) 
oracle

>  <origin>  (51) 
autodockgpu

>  <m_score__min__energy>  (51) 
-9.0199999999999996

>  <m_primary>  (51) 
energy

>  <rmsd>  (51) 
1.696153612557828

>  <m_score__min__rmsd>  (51) 
1.696153612557828

>  <meeko>  (51) 
{"free_energy": -8.72, "intermolecular_energy": -10.21, "internal_energy": -1.95, "cluster_size": 24, "cluster_id": 1, "rank_in_cluster": 9}

>  <energy>  (51) 
-9.02

>  <cluster_rmsd>  (51) 
0.0

>  <cluster>  (51) 
1

$$$$

     RDKit          3D

 57 60  0  0  0  0  0  0  0  0999 V2000
  139.9470   72.1170  220.9560 O   0  0  0  0  0  0  0  0  0  0  0  0
  139.7200   72.5140  222.1360 C   0  0  0  0  0  0  0  0  0  0  0  0
  139.3870   73.8880  222.3580 N   0  0  0  0  0  0  0  0  0  0  0  0
  139.3320   74.7500  221.1950 C   0  0  0  0  0  0  0  0  0  0  0  0
  140.6250   75.5140  221.0870 C   0  0  0  0  0  0  0  0  0  0  0  0
  141.4890   75.2410  221.9550 O   0  0  0  0  0  0  0  0  0  0  0  0
  140.8200   76.4770  220.0560 N   0  0  0  0  0  0  0  0  0  0  0  0
  140.1660   76.2800  218.7960 C   0  0  0  0  0  0  0  0  0  0  0  0
  140.8550   76.8760  217.6200 C   0  0  0  0  0  0  0  0  0  0  0  0
  142.1740   77.5140  217.9070 C   0  0  0  0  0  0  0  0  0  0  0  0
  142.1990   78.3330  219.1740 C   0  0  0  0  0  0  0  0  0  0  0  0
  141.6820   77.6000  220.3680 C   0  0  1  0  0  0  0  0  0  0  0  0
  141.0100   78.5330  221.3870 C   0  0  0  0  0  0  0  0  0  0  0  0
  141.3780   78.0600  222.7480 C   0  0  0  0  0  0  0  0  0  0  0  0
  141.2530   79.0710  223.8480 C   0  0  0  0  0  0  0  0  0  0  0  0
  142.1480   80.2180  223.4240 C   0  0  0  0  0  0  0  0  0  0  0  0
  141.3860   80.8610  222.2940 C   0  0  0  0  0  0  0  0  0  0  0  0
  141.2230   79.9640  221.0950 C   0  0  0  0  0  0  0  0  0  0  0  0
  139.7860   71.6090  223.2870 C   0  0  0  0  0  0  0  0  0  0  0  0
  139.2750   70.3320  223.1230 C   0  0  0  0  0  0  0  0  0  0  0  0
  139.3000   69.4130  224.1710 C   0  0  0  0  0  0  0  0  0  0  0  0
  139.8550   69.8280  225.3740 C   0  0  0  0  0  0  0  0  0  0  0  0
  139.8980   68.9490  226.4270 C   0  0  0  0  0  0  0  0  0  0  0  0
  140.4380   69.3150  227.6390 C   0  0  0  0  0  0  0  0  0  0  0  0
  140.4990   68.4780  228.7000 F   0  0  0  0  0  0  0  0  0  0  0  0
  140.9410   70.6020  227.7680 C   0  0  0  0  0  0  0  0  0  0  0  0
  140.8980   71.4850  226.7080 C   0  0  0  0  0  0  0  0  0  0  0  0
  140.3560   71.1080  225.5030 C   0  0  0  0  0  0  0  0  0  0  0  0
  140.3140   71.9760  224.4630 N   0  0  0  0  0  0  0  0  0  0  0  0
  139.1990   74.2160  223.3300 H   0  0  0  0  0  0  0  0  0  0  0  0
  139.1877   74.1402  220.2909 H   0  0  0  0  0  0  0  0  0  0  0  0
  138.4926   75.4539  221.2946 H   0  0  0  0  0  0  0  0  0  0  0  0
  140.0779   75.1970  218.6249 H   0  0  0  0  0  0  0  0  0  0  0  0
  139.1972   76.7953  218.8733 H   0  0  0  0  0  0  0  0  0  0  0  0
  141.0177   76.0775  216.8812 H   0  0  0  0  0  0  0  0  0  0  0  0
  140.1993   77.6830  217.2610 H   0  0  0  0  0  0  0  0  0  0  0  0
  142.9303   76.7200  217.9939 H   0  0  0  0  0  0  0  0  0  0  0  0
  142.3788   78.2066  217.0773 H   0  0  0  0  0  0  0  0  0  0  0  0
  143.2380   78.6341  219.3734 H   0  0  0  0  0  0  0  0  0  0  0  0
  141.5374   79.1971  219.0136 H   0  0  0  0  0  0  0  0  0  0  0  0
  142.5847   77.1743  220.8306 H   0  0  0  0  0  0  0  0  0  0  0  0
  139.9139   78.4746  221.3155 H   0  0  0  0  0  0  0  0  0  0  0  0
  140.7269   77.2090  222.9967 H   0  0  0  0  0  0  0  0  0  0  0  0
  142.4472   77.8065  222.6964 H   0  0  0  0  0  0  0  0  0  0  0  0
  140.2109   79.4089  223.9470 H   0  0  0  0  0  0  0  0  0  0  0  0
  141.5425   78.6583  224.8257 H   0  0  0  0  0  0  0  0  0  0  0  0
  142.2965   80.9273  224.2516 H   0  0  0  0  0  0  0  0  0  0  0  0
  143.1549   79.8885  223.1283 H   0  0  0  0  0  0  0  0  0  0  0  0
  140.3865   81.1378  222.6607 H   0  0  0  0  0  0  0  0  0  0  0  0
  141.9667   81.7364  221.9678 H   0  0  0  0  0  0  0  0  0  0  0  0
  140.3570   80.3235  220.5199 H   0  0  0  0  0  0  0  0  0  0  0  0
  142.1766   80.0186  220.5495 H   0  0  0  0  0  0  0  0  0  0  0  0
  138.8442   70.0395  222.1540 H   0  0  0  0  0  0  0  0  0  0  0  0
  138.8953   68.3974  224.0494 H   0  0  0  0  0  0  0  0  0  0  0  0
  139.4937   67.9339  226.3002 H   0  0  0  0  0  0  0  0  0  0  0  0
  141.3786   70.9218  228.7252 H   0  0  0  0  0  0  0  0  0  0  0  0
  141.3018   72.5010  226.8292 H   0  0  0  0  0  0  0  0  0  0  0  0
  1  2  2  0
  2  3  1  0
  3  4  1  0
  4  5  1  0
  5  6  2  0
  5  7  1  0
  7  8  1  0
  8  9  1  0
  9 10  1  0
 10 11  1  0
 11 12  1  0
 12 13  1  0
 13 14  1  0
 14 15  1  0
 15 16  1  0
 16 17  1  0
 17 18  1  0
  2 19  1  0
 19 20  2  0
 20 21  1  0
 21 22  2  0
 22 23  1  0
 23 24  2  0
 24 25  1  0
 24 26  1  0
 26 27  2  0
 27 28  1  0
 28 29  2  0
 12  7  1  0
 18 13  1  0
 29 19  1  0
 28 22  1  0
  3 30  1  0
  4 31  1  0
  4 32  1  0
  8 33  1  0
  8 34  1  0
  9 35  1  0
  9 36  1  0
 10 37  1  0
 10 38  1  0
 11 39  1  0
 11 40  1  0
 12 41  1  1
 13 42  1  0
 14 43  1  0
 14 44  1  0
 15 45  1  0
 15 46  1  0
 16 47  1  0
 16 48  1  0
 17 49  1  0
 17 50  1  0
 18 51  1  0
 18 52  1  0
 20 53  1  0
 21 54  1  0
 23 55  1  0
 26 56  1  0
 27 57  1  0
M  END
>  <smiles>  (52) 
O=C(NCC(=O)N1CCCCC1C1CCCCC1)c1ccc2cc(F)ccc2n1

>  <score_type>  (52) 
oracle

>  <origin>  (52) 
autodockgpu

>  <m_score__min__energy>  (52) 
-9.0199999999999996

>  <m_primary>  (52) 
energy

>  <rmsd>  (52) 
1.3961015952465932

>  <m_score__min__rmsd>  (52) 
1.3961015952465932

>  <meeko>  (52) 
{"free_energy": -8.39, "intermolecular_energy": -9.88, "internal_energy": -1.51, "cluster_size": 24, "cluster_id": 1, "rank_in_cluster": 23}

>  <energy>  (52) 
-9.01

>  <cluster_rmsd>  (52) 
0.04

>  <cluster>  (52) 
1

$$$$

     RDKit          3D

 57 60  0  0  0  0  0  0  0  0999 V2000
  140.3650   71.6850  221.0690 O   0  0  0  0  0  0  0  0  0  0  0  0
  140.0660   72.1910  222.1900 C   0  0  0  0  0  0  0  0  0  0  0  0
  139.8030   73.5960  222.2730 N   0  0  0  0  0  0  0  0  0  0  0  0
  139.9010   74.3600  221.0450 C   0  0  0  0  0  0  0  0  0  0  0  0
  140.6630   75.6300  221.3160 C   0  0  0  0  0  0  0  0  0  0  0  0
  140.3610   76.2270  222.3760 O   0  0  0  0  0  0  0  0  0  0  0  0
  141.6550   76.0930  220.4050 N   0  0  0  0  0  0  0  0  0  0  0  0
  141.8750   77.5050  220.2820 C   0  0  0  0  0  0  0  0  0  0  0  0
  142.3830   77.9580  218.9600 C   0  0  0  0  0  0  0  0  0  0  0  0
  142.5070   76.8920  217.9230 C   0  0  0  0  0  0  0  0  0  0  0  0
  143.0720   75.5920  218.4390 C   0  0  0  0  0  0  0  0  0  0  0  0
  142.3760   75.0820  219.6570 C   0  0  1  0  0  0  0  0  0  0  0  0
  143.3110   74.2880  220.5820 C   0  0  0  0  0  0  0  0  0  0  0  0
  143.0090   72.8430  220.4030 C   0  0  0  0  0  0  0  0  0  0  0  0
  144.0940   71.8920  220.8130 C   0  0  0  0  0  0  0  0  0  0  0  0
  145.2950   72.2910  219.9800 C   0  0  0  0  0  0  0  0  0  0  0  0
  145.7400   73.5910  220.6010 C   0  0  0  0  0  0  0  0  0  0  0  0
  144.7260   74.6960  220.4690 C   0  0  0  0  0  0  0  0  0  0  0  0
  139.9770   71.3840  223.4090 C   0  0  0  0  0  0  0  0  0  0  0  0
  139.4090   70.1250  223.3000 C   0  0  0  0  0  0  0  0  0  0  0  0
  139.2890   69.2970  224.4150 C   0  0  0  0  0  0  0  0  0  0  0  0
  139.7590   69.7820  225.6280 C   0  0  0  0  0  0  0  0  0  0  0  0
  139.6580   68.9930  226.7460 C   0  0  0  0  0  0  0  0  0  0  0  0
  140.1100   69.4310  227.9690 C   0  0  0  0  0  0  0  0  0  0  0  0
  140.0280   68.6840  229.0940 F   0  0  0  0  0  0  0  0  0  0  0  0
  140.6740   70.6970  228.0430 C   0  0  0  0  0  0  0  0  0  0  0  0
  140.7760   71.4900  226.9170 C   0  0  0  0  0  0  0  0  0  0  0  0
  140.3200   71.0420  225.7010 C   0  0  0  0  0  0  0  0  0  0  0  0
  140.4210   71.8210  224.5970 N   0  0  0  0  0  0  0  0  0  0  0  0
  139.5560   74.0140  223.1960 H   0  0  0  0  0  0  0  0  0  0  0  0
  140.4302   73.7679  220.2838 H   0  0  0  0  0  0  0  0  0  0  0  0
  138.8931   74.6031  220.6777 H   0  0  0  0  0  0  0  0  0  0  0  0
  140.9191   78.0153  220.4713 H   0  0  0  0  0  0  0  0  0  0  0  0
  142.6607   77.7542  221.0105 H   0  0  0  0  0  0  0  0  0  0  0  0
  141.6948   78.7259  218.5769 H   0  0  0  0  0  0  0  0  0  0  0  0
  143.4034   78.3283  219.1378 H   0  0  0  0  0  0  0  0  0  0  0  0
  141.5068   76.6940  217.5101 H   0  0  0  0  0  0  0  0  0  0  0  0
  143.2130   77.2662  217.1670 H   0  0  0  0  0  0  0  0  0  0  0  0
  142.9847   74.8351  217.6455 H   0  0  0  0  0  0  0  0  0  0  0  0
  144.1182   75.7829  218.7203 H   0  0  0  0  0  0  0  0  0  0  0  0
  141.6154   74.3941  219.2591 H   0  0  0  0  0  0  0  0  0  0  0  0
  143.1174   74.5243  221.6387 H   0  0  0  0  0  0  0  0  0  0  0  0
  142.1135   72.6095  220.9977 H   0  0  0  0  0  0  0  0  0  0  0  0
  142.8788   72.6977  219.3204 H   0  0  0  0  0  0  0  0  0  0  0  0
  144.3149   71.9956  221.8856 H   0  0  0  0  0  0  0  0  0  0  0  0
  143.8079   70.8421  220.6521 H   0  0  0  0  0  0  0  0  0  0  0  0
  146.0885   71.5321  220.0460 H   0  0  0  0  0  0  0  0  0  0  0  0
  145.0605   72.3865  218.9095 H   0  0  0  0  0  0  0  0  0  0  0  0
  145.9307   73.4190  221.6706 H   0  0  0  0  0  0  0  0  0  0  0  0
  146.6437   73.9144  220.0637 H   0  0  0  0  0  0  0  0  0  0  0  0
  144.9280   75.4352  221.2582 H   0  0  0  0  0  0  0  0  0  0  0  0
  144.8429   75.0877  219.4478 H   0  0  0  0  0  0  0  0  0  0  0  0
  139.0483   69.7745  222.3217 H   0  0  0  0  0  0  0  0  0  0  0  0
  138.8386   68.2965  224.3367 H   0  0  0  0  0  0  0  0  0  0  0  0
  139.2077   67.9928  226.6628 H   0  0  0  0  0  0  0  0  0  0  0  0
  141.0436   71.0726  229.0086 H   0  0  0  0  0  0  0  0  0  0  0  0
  141.2269   72.4904  226.9945 H   0  0  0  0  0  0  0  0  0  0  0  0
  1  2  2  0
  2  3  1  0
  3  4  1  0
  4  5  1  0
  5  6  2  0
  5  7  1  0
  7  8  1  0
  8  9  1  0
  9 10  1  0
 10 11  1  0
 11 12  1  0
 12 13  1  0
 13 14  1  0
 14 15  1  0
 15 16  1  0
 16 17  1  0
 17 18  1  0
  2 19  1  0
 19 20  2  0
 20 21  1  0
 21 22  2  0
 22 23  1  0
 23 24  2  0
 24 25  1  0
 24 26  1  0
 26 27  2  0
 27 28  1  0
 28 29  2  0
 12  7  1  0
 18 13  1  0
 29 19  1  0
 28 22  1  0
  3 30  1  0
  4 31  1  0
  4 32  1  0
  8 33  1  0
  8 34  1  0
  9 35  1  0
  9 36  1  0
 10 37  1  0
 10 38  1  0
 11 39  1  0
 11 40  1  0
 12 41  1  6
 13 42  1  0
 14 43  1  0
 14 44  1  0
 15 45  1  0
 15 46  1  0
 16 47  1  0
 16 48  1  0
 17 49  1  0
 17 50  1  0
 18 51  1  0
 18 52  1  0
 20 53  1  0
 21 54  1  0
 23 55  1  0
 26 56  1  0
 27 57  1  0
M  END
>  <smiles>  (53) 
O=C(NCC(=O)N1CCCCC1C1CCCCC1)c1ccc2cc(F)ccc2n1

>  <score_type>  (53) 
oracle

>  <origin>  (53) 
autodockgpu

>  <m_score__min__energy>  (53) 
-9.0199999999999996

>  <m_primary>  (53) 
energy

>  <rmsd>  (53) 
2.27900072863817

>  <m_score__min__rmsd>  (53) 
2.27900072863817

>  <meeko>  (53) 
{"free_energy": -8.63, "intermolecular_energy": -10.12, "internal_energy": -2.14, "cluster_size": 24, "cluster_id": 2, "rank_in_cluster": 12}

>  <energy>  (53) 
-8.98

>  <cluster_rmsd>  (53) 
0.66

>  <cluster>  (53) 
1

$$$$

     RDKit          3D

 57 60  0  0  0  0  0  0  0  0999 V2000
  140.1130   70.9250  221.6700 O   0  0  0  0  0  0  0  0  0  0  0  0
  139.9720   71.6180  222.7200 C   0  0  0  0  0  0  0  0  0  0  0  0
  139.6100   72.9980  222.6010 N   0  0  0  0  0  0  0  0  0  0  0  0
  139.4270   73.5200  221.2620 C   0  0  0  0  0  0  0  0  0  0  0  0
  139.6940   75.0020  221.2720 C   0  0  0  0  0  0  0  0  0  0  0  0
  139.1470   75.6450  222.2000 O   0  0  0  0  0  0  0  0  0  0  0  0
  140.5170   75.6010  220.2760 N   0  0  0  0  0  0  0  0  0  0  0  0
  140.2630   75.3010  218.8970 C   0  0  0  0  0  0  0  0  0  0  0  0
  141.4440   75.3870  217.9980 C   0  0  0  0  0  0  0  0  0  0  0  0
  142.7420   75.6840  218.6730 C   0  0  0  0  0  0  0  0  0  0  0  0
  142.6490   76.7400  219.7470 C   0  0  0  0  0  0  0  0  0  0  0  0
  141.5690   76.4830  220.7440 C   0  0  1  0  0  0  0  0  0  0  0  0
  140.9750   77.7790  221.3170 C   0  0  0  0  0  0  0  0  0  0  0  0
  141.0800   77.7110  222.7990 C   0  0  0  0  0  0  0  0  0  0  0  0
  141.0250   79.0250  223.5200 C   0  0  0  0  0  0  0  0  0  0  0  0
  142.1700   79.8320  222.9430 C   0  0  0  0  0  0  0  0  0  0  0  0
  141.6860   80.1920  221.5600 C   0  0  0  0  0  0  0  0  0  0  0  0
  141.4960   78.9970  220.6640 C   0  0  0  0  0  0  0  0  0  0  0  0
  140.1650   71.0520  224.0570 C   0  0  0  0  0  0  0  0  0  0  0  0
  140.6710   71.8900  225.0370 C   0  0  0  0  0  0  0  0  0  0  0  0
  140.8840   71.4260  226.3340 C   0  0  0  0  0  0  0  0  0  0  0  0
  140.5690   70.1000  226.6000 C   0  0  0  0  0  0  0  0  0  0  0  0
  140.7640   69.6100  227.8670 C   0  0  0  0  0  0  0  0  0  0  0  0
  140.4660   68.3030  228.1780 C   0  0  0  0  0  0  0  0  0  0  0  0
  140.6450   67.7820  229.4130 F   0  0  0  0  0  0  0  0  0  0  0  0
  139.9600   67.4900  227.1730 C   0  0  0  0  0  0  0  0  0  0  0  0
  139.7640   67.9850  225.8990 C   0  0  0  0  0  0  0  0  0  0  0  0
  140.0650   69.2920  225.6000 C   0  0  0  0  0  0  0  0  0  0  0  0
  139.8720   69.7760  224.3490 N   0  0  0  0  0  0  0  0  0  0  0  0
  139.4930   73.5700  223.4660 H   0  0  0  0  0  0  0  0  0  0  0  0
  140.1274   73.0239  220.5740 H   0  0  0  0  0  0  0  0  0  0  0  0
  138.3964   73.3306  220.9272 H   0  0  0  0  0  0  0  0  0  0  0  0
  139.8669   74.2764  218.8399 H   0  0  0  0  0  0  0  0  0  0  0  0
  139.5574   76.0679  218.5448 H   0  0  0  0  0  0  0  0  0  0  0  0
  141.5450   74.4234  217.4772 H   0  0  0  0  0  0  0  0  0  0  0  0
  141.2514   76.2353  217.3247 H   0  0  0  0  0  0  0  0  0  0  0  0
  143.1133   74.7558  219.1320 H   0  0  0  0  0  0  0  0  0  0  0  0
  143.4198   76.0756  217.9002 H   0  0  0  0  0  0  0  0  0  0  0  0
  143.6110   76.7810  220.2789 H   0  0  0  0  0  0  0  0  0  0  0  0
  142.4075   77.6893  219.2466 H   0  0  0  0  0  0  0  0  0  0  0  0
  142.0798   75.9466  221.5572 H   0  0  0  0  0  0  0  0  0  0  0  0
  139.9048   77.8643  221.0773 H   0  0  0  0  0  0  0  0  0  0  0  0
  140.2508   77.0892  223.1676 H   0  0  0  0  0  0  0  0  0  0  0  0
  142.0777   77.2978  223.0083 H   0  0  0  0  0  0  0  0  0  0  0  0
  140.0645   79.5284  223.3352 H   0  0  0  0  0  0  0  0  0  0  0  0
  141.1104   78.9041  224.6100 H   0  0  0  0  0  0  0  0  0  0  0  0
  142.3552   80.7356  223.5423 H   0  0  0  0  0  0  0  0  0  0  0  0
  143.1212   79.2796  222.9335 H   0  0  0  0  0  0  0  0  0  0  0  0
  140.7228   80.7152  221.6527 H   0  0  0  0  0  0  0  0  0  0  0  0
  142.4594   80.8241  221.0992 H   0  0  0  0  0  0  0  0  0  0  0  0
  140.7915   79.2807  219.8683 H   0  0  0  0  0  0  0  0  0  0  0  0
  142.5004   78.7341  220.3005 H   0  0  0  0  0  0  0  0  0  0  0  0
  140.9078   72.9351  224.7885 H   0  0  0  0  0  0  0  0  0  0  0  0
  141.2864   72.0853  227.1172 H   0  0  0  0  0  0  0  0  0  0  0  0
  141.1654   70.2733  228.6473 H   0  0  0  0  0  0  0  0  0  0  0  0
  139.7128   66.4411  227.3937 H   0  0  0  0  0  0  0  0  0  0  0  0
  139.3626   67.3260  225.1150 H   0  0  0  0  0  0  0  0  0  0  0  0
  1  2  2  0
  2  3  1  0
  3  4  1  0
  4  5  1  0
  5  6  2  0
  5  7  1  0
  7  8  1  0
  8  9  1  0
  9 10  1  0
 10 11  1  0
 11 12  1  0
 12 13  1  0
 13 14  1  0
 14 15  1  0
 15 16  1  0
 16 17  1  0
 17 18  1  0
  2 19  1  0
 19 20  2  0
 20 21  1  0
 21 22  2  0
 22 23  1  0
 23 24  2  0
 24 25  1  0
 24 26  1  0
 26 27  2  0
 27 28  1  0
 28 29  2  0
 12  7  1  0
 18 13  1  0
 29 19  1  0
 28 22  1  0
  3 30  1  0
  4 31  1  0
  4 32  1  0
  8 33  1  0
  8 34  1  0
  9 35  1  0
  9 36  1  0
 10 37  1  0
 10 38  1  0
 11 39  1  0
 11 40  1  0
 12 41  1  1
 13 42  1  0
 14 43  1  0
 14 44  1  0
 15 45  1  0
 15 46  1  0
 16 47  1  0
 16 48  1  0
 17 49  1  0
 17 50  1  0
 18 51  1  0
 18 52  1  0
 20 53  1  0
 21 54  1  0
 23 55  1  0
 26 56  1  0
 27 57  1  0
M  END
>  <smiles>  (54) 
O=C(NCC(=O)N1CCCCC1C1CCCCC1)c1ccc2cc(F)ccc2n1

>  <score_type>  (54) 
oracle

>  <origin>  (54) 
autodockgpu

>  <m_score__min__energy>  (54) 
-9.0199999999999996

>  <m_primary>  (54) 
energy

>  <rmsd>  (54) 
2.5843283055203594

>  <m_score__min__rmsd>  (54) 
2.5843283055203594

>  <meeko>  (54) 
{"free_energy": -8.46, "intermolecular_energy": -9.96, "internal_energy": -1.58, "cluster_size": 24, "cluster_id": 1, "rank_in_cluster": 22}

>  <energy>  (54) 
-8.92

>  <cluster_rmsd>  (54) 
1.16

>  <cluster>  (54) 
1

$$$$

     RDKit          3D

 57 60  0  0  0  0  0  0  0  0999 V2000
  139.8740   71.7790  221.0310 O   0  0  0  0  0  0  0  0  0  0  0  0
  139.7810   72.2760  222.1910 C   0  0  0  0  0  0  0  0  0  0  0  0
  139.6490   73.6940  222.3340 N   0  0  0  0  0  0  0  0  0  0  0  0
  139.6310   74.4820  221.1180 C   0  0  0  0  0  0  0  0  0  0  0  0
  140.6090   75.6180  221.2550 C   0  0  0  0  0  0  0  0  0  0  0  0
  141.2080   75.6880  222.3540 O   0  0  0  0  0  0  0  0  0  0  0  0
  140.8130   76.5360  220.1850 N   0  0  0  0  0  0  0  0  0  0  0  0
  140.1730   76.2850  218.9270 C   0  0  0  0  0  0  0  0  0  0  0  0
  140.8750   76.8300  217.7350 C   0  0  0  0  0  0  0  0  0  0  0  0
  142.1890   77.4820  218.0080 C   0  0  0  0  0  0  0  0  0  0  0  0
  142.1990   78.3550  219.2390 C   0  0  0  0  0  0  0  0  0  0  0  0
  141.6710   77.6740  220.4570 C   0  0  1  0  0  0  0  0  0  0  0  0
  140.9860   78.6480  221.4280 C   0  0  0  0  0  0  0  0  0  0  0  0
  141.5000   78.3640  222.7950 C   0  0  0  0  0  0  0  0  0  0  0  0
  141.3570   79.4750  223.7910 C   0  0  0  0  0  0  0  0  0  0  0  0
  142.0990   80.6450  223.1770 C   0  0  0  0  0  0  0  0  0  0  0  0
  141.1950   81.0870  222.0550 C   0  0  0  0  0  0  0  0  0  0  0  0
  141.0340   80.0520  220.9730 C   0  0  0  0  0  0  0  0  0  0  0  0
  139.8030   71.4440  223.3980 C   0  0  0  0  0  0  0  0  0  0  0  0
  139.2620   70.1730  223.3050 C   0  0  0  0  0  0  0  0  0  0  0  0
  139.2450   69.3210  224.4080 C   0  0  0  0  0  0  0  0  0  0  0  0
  139.7890   69.7970  225.5940 C   0  0  0  0  0  0  0  0  0  0  0  0
  139.7910   68.9860  226.7000 C   0  0  0  0  0  0  0  0  0  0  0  0
  140.3180   69.4140  227.8960 C   0  0  0  0  0  0  0  0  0  0  0  0
  140.3390   68.6450  229.0090 F   0  0  0  0  0  0  0  0  0  0  0  0
  140.8530   70.6940  227.9550 C   0  0  0  0  0  0  0  0  0  0  0  0
  140.8510   71.5090  226.8410 C   0  0  0  0  0  0  0  0  0  0  0  0
  140.3200   71.0710  225.6510 C   0  0  0  0  0  0  0  0  0  0  0  0
  140.3200   71.8720  224.5590 N   0  0  0  0  0  0  0  0  0  0  0  0
  139.5710   74.1050  223.2900 H   0  0  0  0  0  0  0  0  0  0  0  0
  139.9175   73.8497  220.2647 H   0  0  0  0  0  0  0  0  0  0  0  0
  138.6199   74.8808  220.9488 H   0  0  0  0  0  0  0  0  0  0  0  0
  140.0866   75.1956  218.8015 H   0  0  0  0  0  0  0  0  0  0  0  0
  139.2035   76.8029  218.9712 H   0  0  0  0  0  0  0  0  0  0  0  0
  141.0472   76.0001  217.0338 H   0  0  0  0  0  0  0  0  0  0  0  0
  140.2226   77.6197  217.3341 H   0  0  0  0  0  0  0  0  0  0  0  0
  142.9456   76.6940  218.1370 H   0  0  0  0  0  0  0  0  0  0  0  0
  142.4017   78.1386  217.1514 H   0  0  0  0  0  0  0  0  0  0  0  0
  143.2353   78.6666  219.4362 H   0  0  0  0  0  0  0  0  0  0  0  0
  141.5376   79.2098  219.0343 H   0  0  0  0  0  0  0  0  0  0  0  0
  142.5701   77.2713  220.9463 H   0  0  0  0  0  0  0  0  0  0  0  0
  139.8990   78.4818  221.4561 H   0  0  0  0  0  0  0  0  0  0  0  0
  140.9574   77.4900  223.1845 H   0  0  0  0  0  0  0  0  0  0  0  0
  142.5822   78.2047  222.6794 H   0  0  0  0  0  0  0  0  0  0  0  0
  140.2966   79.7253  223.9423 H   0  0  0  0  0  0  0  0  0  0  0  0
  141.7583   79.2013  224.7780 H   0  0  0  0  0  0  0  0  0  0  0  0
  142.2369   81.4520  223.9116 H   0  0  0  0  0  0  0  0  0  0  0  0
  143.1091   80.3780  222.8328 H   0  0  0  0  0  0  0  0  0  0  0  0
  140.2028   81.3104  222.4741 H   0  0  0  0  0  0  0  0  0  0  0  0
  141.6598   81.9703  221.5926 H   0  0  0  0  0  0  0  0  0  0  0  0
  140.0966   80.2657  220.4385 H   0  0  0  0  0  0  0  0  0  0  0  0
  141.9348   80.1322  220.3468 H   0  0  0  0  0  0  0  0  0  0  0  0
  138.8402   69.8311  222.3483 H   0  0  0  0  0  0  0  0  0  0  0  0
  138.8169   68.3099  224.3417 H   0  0  0  0  0  0  0  0  0  0  0  0
  139.3634   67.9750  226.6292 H   0  0  0  0  0  0  0  0  0  0  0  0
  141.2825   71.0620  228.8985 H   0  0  0  0  0  0  0  0  0  0  0  0
  141.2790   72.5202  226.9061 H   0  0  0  0  0  0  0  0  0  0  0  0
  1  2  2  0
  2  3  1  0
  3  4  1  0
  4  5  1  0
  5  6  2  0
  5  7  1  0
  7  8  1  0
  8  9  1  0
  9 10  1  0
 10 11  1  0
 11 12  1  0
 12 13  1  0
 13 14  1  0
 14 15  1  0
 15 16  1  0
 16 17  1  0
 17 18  1  0
  2 19  1  0
 19 20  2  0
 20 21  1  0
 21 22  2  0
 22 23  1  0
 23 24  2  0
 24 25  1  0
 24 26  1  0
 26 27  2  0
 27 28  1  0
 28 29  2  0
 12  7  1  0
 18 13  1  0
 29 19  1  0
 28 22  1  0
  3 30  1  0
  4 31  1  0
  4 32  1  0
  8 33  1  0
  8 34  1  0
  9 35  1  0
  9 36  1  0
 10 37  1  0
 10 38  1  0
 11 39  1  0
 11 40  1  0
 12 41  1  1
 13 42  1  0
 14 43  1  0
 14 44  1  0
 15 45  1  0
 15 46  1  0
 16 47  1  0
 16 48  1  0
 17 49  1  0
 17 50  1  0
 18 51  1  0
 18 52  1  0
 20 53  1  0
 21 54  1  0
 23 55  1  0
 26 56  1  0
 27 57  1  0
M  END
>  <smiles>  (55) 
O=C(NCC(=O)N1CCCCC1C1CCCCC1)c1ccc2cc(F)ccc2n1

>  <score_type>  (55) 
oracle

>  <origin>  (55) 
autodockgpu

>  <m_score__min__energy>  (55) 
-9.0199999999999996

>  <m_primary>  (55) 
energy

>  <rmsd>  (55) 
1.400602474958273

>  <m_score__min__rmsd>  (55) 
1.400602474958273

>  <meeko>  (55) 
{"free_energy": -8.57, "intermolecular_energy": -10.06, "internal_energy": -1.66, "cluster_size": 24, "cluster_id": 1, "rank_in_cluster": 21}

>  <energy>  (55) 
-8.89

>  <cluster_rmsd>  (55) 
1.13

>  <cluster>  (55) 
1

$$$$

     RDKit          3D

 57 60  0  0  0  0  0  0  0  0999 V2000
  140.5890   71.7000  220.9860 O   0  0  0  0  0  0  0  0  0  0  0  0
  140.2460   72.2310  222.0830 C   0  0  0  0  0  0  0  0  0  0  0  0
  139.9890   73.6380  222.1260 N   0  0  0  0  0  0  0  0  0  0  0  0
  140.1420   74.3760  220.8870 C   0  0  0  0  0  0  0  0  0  0  0  0
  140.9990   75.5880  221.1400 C   0  0  0  0  0  0  0  0  0  0  0  0
  141.2780   75.8130  222.3420 O   0  0  0  0  0  0  0  0  0  0  0  0
  141.4450   76.4020  220.0600 N   0  0  0  0  0  0  0  0  0  0  0  0
  141.7470   77.7810  220.3140 C   0  0  0  0  0  0  0  0  0  0  0  0
  141.5730   78.6950  219.1540 C   0  0  0  0  0  0  0  0  0  0  0  0
  141.0230   78.0640  217.9180 C   0  0  0  0  0  0  0  0  0  0  0  0
  141.6050   76.7060  217.6100 C   0  0  0  0  0  0  0  0  0  0  0  0
  141.5600   75.7620  218.7640 C   0  0  1  0  0  0  0  0  0  0  0  0
  142.7270   74.7630  218.7550 C   0  0  0  0  0  0  0  0  0  0  0  0
  143.7020   75.1930  219.7930 C   0  0  0  0  0  0  0  0  0  0  0  0
  144.6390   74.1320  220.2900 C   0  0  0  0  0  0  0  0  0  0  0  0
  143.7380   73.0390  220.8270 C   0  0  0  0  0  0  0  0  0  0  0  0
  143.1590   72.4140  219.5830 C   0  0  0  0  0  0  0  0  0  0  0  0
  142.2880   73.3530  218.7920 C   0  0  0  0  0  0  0  0  0  0  0  0
  140.1020   71.4500  223.3140 C   0  0  0  0  0  0  0  0  0  0  0  0
  139.4860   70.2130  223.2160 C   0  0  0  0  0  0  0  0  0  0  0  0
  139.3110   69.4110  224.3420 C   0  0  0  0  0  0  0  0  0  0  0  0
  139.7780   69.8980  225.5550 C   0  0  0  0  0  0  0  0  0  0  0  0
  139.6240   69.1350  226.6850 C   0  0  0  0  0  0  0  0  0  0  0  0
  140.0710   69.5760  227.9090 C   0  0  0  0  0  0  0  0  0  0  0  0
  139.9380   68.8530  229.0450 F   0  0  0  0  0  0  0  0  0  0  0  0
  140.6840   70.8200  227.9720 C   0  0  0  0  0  0  0  0  0  0  0  0
  140.8380   71.5870  226.8350 C   0  0  0  0  0  0  0  0  0  0  0  0
  140.3880   71.1360  225.6170 C   0  0  0  0  0  0  0  0  0  0  0  0
  140.5410   71.8900  224.5020 N   0  0  0  0  0  0  0  0  0  0  0  0
  139.7060   74.0770  223.0290 H   0  0  0  0  0  0  0  0  0  0  0  0
  140.6229   73.7353  220.1332 H   0  0  0  0  0  0  0  0  0  0  0  0
  139.1546   74.6900  220.5175 H   0  0  0  0  0  0  0  0  0  0  0  0
  141.0880   78.1296  221.1228 H   0  0  0  0  0  0  0  0  0  0  0  0
  142.8162   77.8155  220.5700 H   0  0  0  0  0  0  0  0  0  0  0  0
  140.8885   79.5011  219.4569 H   0  0  0  0  0  0  0  0  0  0  0  0
  142.5817   79.0466  218.8915 H   0  0  0  0  0  0  0  0  0  0  0  0
  139.9353   77.9544  218.0404 H   0  0  0  0  0  0  0  0  0  0  0  0
  141.2910   78.7225  217.0786 H   0  0  0  0  0  0  0  0  0  0  0  0
  141.0373   76.2649  216.7774 H   0  0  0  0  0  0  0  0  0  0  0  0
  142.6650   76.8585  217.3588 H   0  0  0  0  0  0  0  0  0  0  0  0
  140.6243   75.2037  218.6135 H   0  0  0  0  0  0  0  0  0  0  0  0
  143.2577   74.7830  217.7917 H   0  0  0  0  0  0  0  0  0  0  0  0
  144.3085   76.0070  219.3694 H   0  0  0  0  0  0  0  0  0  0  0  0
  143.0989   75.4899  220.6637 H   0  0  0  0  0  0  0  0  0  0  0  0
  145.2631   73.7507  219.4684 H   0  0  0  0  0  0  0  0  0  0  0  0
  145.3294   74.5142  221.0563 H   0  0  0  0  0  0  0  0  0  0  0  0
  144.3156   72.3022  221.4044 H   0  0  0  0  0  0  0  0  0  0  0  0
  142.9668   73.4193  221.5130 H   0  0  0  0  0  0  0  0  0  0  0  0
  143.9884   72.0832  218.9406 H   0  0  0  0  0  0  0  0  0  0  0  0
  142.5236   71.5762  219.9061 H   0  0  0  0  0  0  0  0  0  0  0  0
  142.2491   72.9848  217.7562 H   0  0  0  0  0  0  0  0  0  0  0  0
  141.3141   73.3577  219.3033 H   0  0  0  0  0  0  0  0  0  0  0  0
  139.1305   69.8594  222.2369 H   0  0  0  0  0  0  0  0  0  0  0  0
  138.8211   68.4286  224.2722 H   0  0  0  0  0  0  0  0  0  0  0  0
  139.1342   68.1529  226.6108 H   0  0  0  0  0  0  0  0  0  0  0  0
  141.0506   71.1981  228.9377 H   0  0  0  0  0  0  0  0  0  0  0  0
  141.3263   72.5702  226.9043 H   0  0  0  0  0  0  0  0  0  0  0  0
  1  2  2  0
  2  3  1  0
  3  4  1  0
  4  5  1  0
  5  6  2  0
  5  7  1  0
  7  8  1  0
  8  9  1  0
  9 10  1  0
 10 11  1  0
 11 12  1  0
 12 13  1  0
 13 14  1  0
 14 15  1  0
 15 16  1  0
 16 17  1  0
 17 18  1  0
  2 19  1  0
 19 20  2  0
 20 21  1  0
 21 22  2  0
 22 23  1  0
 23 24  2  0
 24 25  1  0
 24 26  1  0
 26 27  2  0
 27 28  1  0
 28 29  2  0
 12  7  1  0
 18 13  1  0
 29 19  1  0
 28 22  1  0
  3 30  1  0
  4 31  1  0
  4 32  1  0
  8 33  1  0
  8 34  1  0
  9 35  1  0
  9 36  1  0
 10 37  1  0
 10 38  1  0
 11 39  1  0
 11 40  1  0
 12 41  1  6
 13 42  1  0
 14 43  1  0
 14 44  1  0
 15 45  1  0
 15 46  1  0
 16 47  1  0
 16 48  1  0
 17 49  1  0
 17 50  1  0
 18 51  1  0
 18 52  1  0
 20 53  1  0
 21 54  1  0
 23 55  1  0
 26 56  1  0
 27 57  1  0
M  END
>  <smiles>  (56) 
O=C(NCC(=O)N1CCCCC1C1CCCCC1)c1ccc2cc(F)ccc2n1

>  <score_type>  (56) 
oracle

>  <origin>  (56) 
autodockgpu

>  <m_score__min__energy>  (56) 
-9.0199999999999996

>  <m_primary>  (56) 
energy

>  <rmsd>  (56) 
2.260100399045032

>  <m_score__min__rmsd>  (56) 
2.260100399045032

>  <meeko>  (56) 
{"free_energy": -7.4, "intermolecular_energy": -8.89, "internal_energy": -2.2, "cluster_size": 24, "cluster_id": 2, "rank_in_cluster": 24}

>  <energy>  (56) 
-8.89

>  <cluster_rmsd>  (56) 
1.18

>  <cluster>  (56) 
1

$$$$

     RDKit          3D

 57 60  0  0  0  0  0  0  0  0999 V2000
  139.7050   71.5900  221.0860 O   0  0  0  0  0  0  0  0  0  0  0  0
  139.7050   72.1130  222.2390 C   0  0  0  0  0  0  0  0  0  0  0  0
  139.5710   73.5330  222.3600 N   0  0  0  0  0  0  0  0  0  0  0  0
  139.4420   74.2910  221.1310 C   0  0  0  0  0  0  0  0  0  0  0  0
  139.6800   75.7490  221.4260 C   0  0  0  0  0  0  0  0  0  0  0  0
  139.3560   76.1280  222.5770 O   0  0  0  0  0  0  0  0  0  0  0  0
  140.2360   76.6110  220.4390 N   0  0  0  0  0  0  0  0  0  0  0  0
  139.6390   76.6450  219.1360 C   0  0  0  0  0  0  0  0  0  0  0  0
  140.5580   77.0030  218.0230 C   0  0  0  0  0  0  0  0  0  0  0  0
  141.9880   77.1880  218.4080 C   0  0  0  0  0  0  0  0  0  0  0  0
  142.1850   77.9440  219.6990 C   0  0  0  0  0  0  0  0  0  0  0  0
  141.3860   77.4000  220.8360 C   0  0  1  0  0  0  0  0  0  0  0  0
  140.9750   78.4870  221.8410 C   0  0  0  0  0  0  0  0  0  0  0  0
  141.5260   78.1090  223.1700 C   0  0  0  0  0  0  0  0  0  0  0  0
  141.6740   79.2260  224.1590 C   0  0  0  0  0  0  0  0  0  0  0  0
  142.5790   80.2320  223.4760 C   0  0  0  0  0  0  0  0  0  0  0  0
  141.6940   80.8400  222.4180 C   0  0  0  0  0  0  0  0  0  0  0  0
  141.2570   79.8570  221.3650 C   0  0  0  0  0  0  0  0  0  0  0  0
  139.8370   71.3110  223.4580 C   0  0  0  0  0  0  0  0  0  0  0  0
  139.4290   69.9890  223.3970 C   0  0  0  0  0  0  0  0  0  0  0  0
  139.5230   69.1610  224.5150 C   0  0  0  0  0  0  0  0  0  0  0  0
  140.0380   69.7120  225.6800 C   0  0  0  0  0  0  0  0  0  0  0  0
  140.1460   68.9260  226.7990 C   0  0  0  0  0  0  0  0  0  0  0  0
  140.6500   69.4290  227.9770 C   0  0  0  0  0  0  0  0  0  0  0  0
  140.7730   68.6870  229.1010 F   0  0  0  0  0  0  0  0  0  0  0  0
  141.0500   70.7580  228.0020 C   0  0  0  0  0  0  0  0  0  0  0  0
  140.9420   71.5480  226.8750 C   0  0  0  0  0  0  0  0  0  0  0  0
  140.4360   71.0350  225.7050 C   0  0  0  0  0  0  0  0  0  0  0  0
  140.3300   71.8110  224.6000 N   0  0  0  0  0  0  0  0  0  0  0  0
  139.5700   73.9660  223.3090 H   0  0  0  0  0  0  0  0  0  0  0  0
  140.1837   73.9369  220.3999 H   0  0  0  0  0  0  0  0  0  0  0  0
  138.4324   74.1561  220.7157 H   0  0  0  0  0  0  0  0  0  0  0  0
  139.2244   75.6479  218.9265 H   0  0  0  0  0  0  0  0  0  0  0  0
  138.8803   77.4407  219.1707 H   0  0  0  0  0  0  0  0  0  0  0  0
  140.5098   76.2009  217.2718 H   0  0  0  0  0  0  0  0  0  0  0  0
  140.2159   77.9795  217.6496 H   0  0  0  0  0  0  0  0  0  0  0  0
  142.4482   76.1947  218.5156 H   0  0  0  0  0  0  0  0  0  0  0  0
  142.4554   77.7887  217.6139 H   0  0  0  0  0  0  0  0  0  0  0  0
  143.2503   77.8993  219.9694 H   0  0  0  0  0  0  0  0  0  0  0  0
  141.8410   78.9744  219.5260 H   0  0  0  0  0  0  0  0  0  0  0  0
  142.0765   76.7060  221.3376 H   0  0  0  0  0  0  0  0  0  0  0  0
  139.8814   78.5323  221.9503 H   0  0  0  0  0  0  0  0  0  0  0  0
  140.8567   77.3553  223.6104 H   0  0  0  0  0  0  0  0  0  0  0  0
  142.5460   77.7451  222.9769 H   0  0  0  0  0  0  0  0  0  0  0  0
  140.6958   79.6756  224.3847 H   0  0  0  0  0  0  0  0  0  0  0  0
  142.0879   78.8793  225.1174 H   0  0  0  0  0  0  0  0  0  0  0  0
  142.9240   80.9970  224.1872 H   0  0  0  0  0  0  0  0  0  0  0  0
  143.4906   79.7764  223.0621 H   0  0  0  0  0  0  0  0  0  0  0  0
  140.7973   81.2488  222.9066 H   0  0  0  0  0  0  0  0  0  0  0  0
  142.2831   81.6181  221.9105 H   0  0  0  0  0  0  0  0  0  0  0  0
  140.3405   80.2474  220.8985 H   0  0  0  0  0  0  0  0  0  0  0  0
  142.1068   79.7635  220.6729 H   0  0  0  0  0  0  0  0  0  0  0  0
  139.0260   69.5874  222.4555 H   0  0  0  0  0  0  0  0  0  0  0  0
  139.2009   68.1100  224.4750 H   0  0  0  0  0  0  0  0  0  0  0  0
  139.8241   67.8751  226.7542 H   0  0  0  0  0  0  0  0  0  0  0  0
  141.4574   71.1863  228.9297 H   0  0  0  0  0  0  0  0  0  0  0  0
  141.2643   72.5990  226.9140 H   0  0  0  0  0  0  0  0  0  0  0  0
  1  2  2  0
  2  3  1  0
  3  4  1  0
  4  5  1  0
  5  6  2  0
  5  7  1  0
  7  8  1  0
  8  9  1  0
  9 10  1  0
 10 11  1  0
 11 12  1  0
 12 13  1  0
 13 14  1  0
 14 15  1  0
 15 16  1  0
 16 17  1  0
 17 18  1  0
  2 19  1  0
 19 20  2  0
 20 21  1  0
 21 22  2  0
 22 23  1  0
 23 24  2  0
 24 25  1  0
 24 26  1  0
 26 27  2  0
 27 28  1  0
 28 29  2  0
 12  7  1  0
 18 13  1  0
 29 19  1  0
 28 22  1  0
  3 30  1  0
  4 31  1  0
  4 32  1  0
  8 33  1  0
  8 34  1  0
  9 35  1  0
  9 36  1  0
 10 37  1  0
 10 38  1  0
 11 39  1  0
 11 40  1  0
 12 41  1  1
 13 42  1  0
 14 43  1  0
 14 44  1  0
 15 45  1  0
 15 46  1  0
 16 47  1  0
 16 48  1  0
 17 49  1  0
 17 50  1  0
 18 51  1  0
 18 52  1  0
 20 53  1  0
 21 54  1  0
 23 55  1  0
 26 56  1  0
 27 57  1  0
M  END
>  <smiles>  (57) 
O=C(NCC(=O)N1CCCCC1C1CCCCC1)c1ccc2cc(F)ccc2n1

>  <score_type>  (57) 
oracle

>  <origin>  (57) 
autodockgpu

>  <m_score__min__energy>  (57) 
-9.0199999999999996

>  <m_primary>  (57) 
energy

>  <rmsd>  (57) 
1.4070763023723574

>  <m_score__min__rmsd>  (57) 
1.4070763023723574

>  <meeko>  (57) 
{"free_energy": -8.57, "intermolecular_energy": -10.06, "internal_energy": -1.97, "cluster_size": 24, "cluster_id": 1, "rank_in_cluster": 20}

>  <energy>  (57) 
-8.84

>  <cluster_rmsd>  (57) 
1.2

>  <cluster>  (57) 
1

$$$$

     RDKit          3D

 57 60  0  0  0  0  0  0  0  0999 V2000
  138.6890   71.0900  221.5510 O   0  0  0  0  0  0  0  0  0  0  0  0
  139.2040   71.5670  222.6040 C   0  0  0  0  0  0  0  0  0  0  0  0
  139.5200   72.9620  222.6550 N   0  0  0  0  0  0  0  0  0  0  0  0
  139.2240   73.7510  221.4750 C   0  0  0  0  0  0  0  0  0  0  0  0
  140.4300   73.7560  220.5740 C   0  0  0  0  0  0  0  0  0  0  0  0
  140.5560   72.7530  219.8320 O   0  0  0  0  0  0  0  0  0  0  0  0
  141.3460   74.8470  220.5890 N   0  0  0  0  0  0  0  0  0  0  0  0
  140.9900   76.0370  221.3040 C   0  0  0  0  0  0  0  0  0  0  0  0
  141.5990   77.2940  220.7920 C   0  0  0  0  0  0  0  0  0  0  0  0
  142.4200   77.1490  219.5540 C   0  0  0  0  0  0  0  0  0  0  0  0
  143.3100   75.9300  219.5440 C   0  0  0  0  0  0  0  0  0  0  0  0
  142.5890   74.6630  219.8660 C   0  0  1  0  0  0  0  0  0  0  0  0
  143.4850   73.6400  220.5790 C   0  0  0  0  0  0  0  0  0  0  0  0
  143.3550   72.3430  219.8610 C   0  0  0  0  0  0  0  0  0  0  0  0
  144.4750   71.3670  220.0650 C   0  0  0  0  0  0  0  0  0  0  0  0
  145.7180   72.1040  219.6090 C   0  0  0  0  0  0  0  0  0  0  0  0
  145.9530   73.1120  220.7050 C   0  0  0  0  0  0  0  0  0  0  0  0
  144.8550   74.1350  220.8230 C   0  0  0  0  0  0  0  0  0  0  0  0
  139.4880   70.7360  223.7770 C   0  0  0  0  0  0  0  0  0  0  0  0
  139.1710   69.3900  223.6960 C   0  0  0  0  0  0  0  0  0  0  0  0
  139.4110   68.5340  224.7690 C   0  0  0  0  0  0  0  0  0  0  0  0
  139.9760   69.0830  225.9130 C   0  0  0  0  0  0  0  0  0  0  0  0
  140.2270   68.2690  226.9890 C   0  0  0  0  0  0  0  0  0  0  0  0
  140.7850   68.7680  228.1440 C   0  0  0  0  0  0  0  0  0  0  0  0
  141.0470   67.9990  229.2260 F   0  0  0  0  0  0  0  0  0  0  0  0
  141.0910   70.1210  228.1910 C   0  0  0  0  0  0  0  0  0  0  0  0
  140.8380   70.9380  227.1070 C   0  0  0  0  0  0  0  0  0  0  0  0
  140.2790   70.4290  225.9600 C   0  0  0  0  0  0  0  0  0  0  0  0
  140.0330   71.2330  224.8970 N   0  0  0  0  0  0  0  0  0  0  0  0
  139.9440   73.3570  223.5230 H   0  0  0  0  0  0  0  0  0  0  0  0
  138.3676   73.3114  220.9426 H   0  0  0  0  0  0  0  0  0  0  0  0
  138.9756   74.7813  221.7694 H   0  0  0  0  0  0  0  0  0  0  0  0
  139.8964   76.1463  221.2583 H   0  0  0  0  0  0  0  0  0  0  0  0
  141.3782   75.9054  222.3248 H   0  0  0  0  0  0  0  0  0  0  0  0
  140.7855   78.0030  220.5787 H   0  0  0  0  0  0  0  0  0  0  0  0
  142.2902   77.6374  221.5758 H   0  0  0  0  0  0  0  0  0  0  0  0
  141.7384   77.0862  218.6929 H   0  0  0  0  0  0  0  0  0  0  0  0
  143.0826   78.0259  219.5083 H   0  0  0  0  0  0  0  0  0  0  0  0
  143.7553   75.8323  218.5429 H   0  0  0  0  0  0  0  0  0  0  0  0
  144.0693   76.0776  220.3261 H   0  0  0  0  0  0  0  0  0  0  0  0
  142.3138   74.2557  218.8820 H   0  0  0  0  0  0  0  0  0  0  0  0
  143.1460   73.4685  221.6113 H   0  0  0  0  0  0  0  0  0  0  0  0
  142.4241   71.8632  220.1976 H   0  0  0  0  0  0  0  0  0  0  0  0
  143.3689   72.5928  218.7898 H   0  0  0  0  0  0  0  0  0  0  0  0
  144.5573   71.0877  221.1258 H   0  0  0  0  0  0  0  0  0  0  0  0
  144.3182   70.4322  219.5069 H   0  0  0  0  0  0  0  0  0  0  0  0
  146.5716   71.4161  219.5181 H   0  0  0  0  0  0  0  0  0  0  0  0
  145.6011   72.5681  218.6186 H   0  0  0  0  0  0  0  0  0  0  0  0
  146.0329   72.5746  221.6615 H   0  0  0  0  0  0  0  0  0  0  0  0
  146.8763   73.6547  220.4541 H   0  0  0  0  0  0  0  0  0  0  0  0
  144.8877   74.5489  221.8416 H   0  0  0  0  0  0  0  0  0  0  0  0
  145.0502   74.8746  220.0325 H   0  0  0  0  0  0  0  0  0  0  0  0
  138.7242   68.9919  222.7730 H   0  0  0  0  0  0  0  0  0  0  0  0
  139.1624   67.4640  224.7122 H   0  0  0  0  0  0  0  0  0  0  0  0
  139.9780   67.1993  226.9273 H   0  0  0  0  0  0  0  0  0  0  0  0
  141.5395   70.5466  229.1008 H   0  0  0  0  0  0  0  0  0  0  0  0
  141.0867   72.0081  227.1625 H   0  0  0  0  0  0  0  0  0  0  0  0
  1  2  2  0
  2  3  1  0
  3  4  1  0
  4  5  1  0
  5  6  2  0
  5  7  1  0
  7  8  1  0
  8  9  1  0
  9 10  1  0
 10 11  1  0
 11 12  1  0
 12 13  1  0
 13 14  1  0
 14 15  1  0
 15 16  1  0
 16 17  1  0
 17 18  1  0
  2 19  1  0
 19 20  2  0
 20 21  1  0
 21 22  2  0
 22 23  1  0
 23 24  2  0
 24 25  1  0
 24 26  1  0
 26 27  2  0
 27 28  1  0
 28 29  2  0
 12  7  1  0
 18 13  1  0
 29 19  1  0
 28 22  1  0
  3 30  1  0
  4 31  1  0
  4 32  1  0
  8 33  1  0
  8 34  1  0
  9 35  1  0
  9 36  1  0
 10 37  1  0
 10 38  1  0
 11 39  1  0
 11 40  1  0
 12 41  1  6
 13 42  1  0
 14 43  1  0
 14 44  1  0
 15 45  1  0
 15 46  1  0
 16 47  1  0
 16 48  1  0
 17 49  1  0
 17 50  1  0
 18 51  1  0
 18 52  1  0
 20 53  1  0
 21 54  1  0
 23 55  1  0
 26 56  1  0
 27 57  1  0
M  END
>  <smiles>  (58) 
O=C(NCC(=O)N1CCCCC1C1CCCCC1)c1ccc2cc(F)ccc2n1

>  <score_type>  (58) 
oracle

>  <origin>  (58) 
autodockgpu

>  <m_score__min__energy>  (58) 
-9.0199999999999996

>  <m_primary>  (58) 
energy

>  <rmsd>  (58) 
2.287242019610422

>  <m_score__min__rmsd>  (58) 
2.287242019610422

>  <meeko>  (58) 
{"free_energy": -8.09, "intermolecular_energy": -9.58, "internal_energy": -1.69, "cluster_size": 24, "cluster_id": 2, "rank_in_cluster": 23}

>  <energy>  (58) 
-8.74

>  <cluster_rmsd>  (58) 
1.25

>  <cluster>  (58) 
1

$$$$

     RDKit          3D

 57 60  0  0  0  0  0  0  0  0999 V2000
  140.1830   71.4540  221.0890 O   0  0  0  0  0  0  0  0  0  0  0  0
  139.9740   71.9690  222.2260 C   0  0  0  0  0  0  0  0  0  0  0  0
  139.7480   73.3790  222.3220 N   0  0  0  0  0  0  0  0  0  0  0  0
  139.7760   74.1380  221.0870 C   0  0  0  0  0  0  0  0  0  0  0  0
  139.9450   75.5980  221.4130 C   0  0  0  0  0  0  0  0  0  0  0  0
  139.6640   75.9270  222.5900 O   0  0  0  0  0  0  0  0  0  0  0  0
  140.3950   76.5180  220.4230 N   0  0  0  0  0  0  0  0  0  0  0  0
  139.7950   76.4800  219.1210 C   0  0  0  0  0  0  0  0  0  0  0  0
  140.6640   76.9410  218.0060 C   0  0  0  0  0  0  0  0  0  0  0  0
  142.0640   77.2920  218.3880 C   0  0  0  0  0  0  0  0  0  0  0  0
  142.1740   78.0680  219.6770 C   0  0  0  0  0  0  0  0  0  0  0  0
  141.4450   77.4370  220.8170 C   0  0  1  0  0  0  0  0  0  0  0  0
  140.9130   78.4700  221.8210 C   0  0  0  0  0  0  0  0  0  0  0  0
  141.4470   78.1170  223.1640 C   0  0  0  0  0  0  0  0  0  0  0  0
  141.4680   79.2260  224.1720 C   0  0  0  0  0  0  0  0  0  0  0  0
  142.3090   80.3140  223.5350 C   0  0  0  0  0  0  0  0  0  0  0  0
  141.4150   80.8650  222.4540 C   0  0  0  0  0  0  0  0  0  0  0  0
  141.0960   79.8660  221.3740 C   0  0  0  0  0  0  0  0  0  0  0  0
  139.9530   71.1660  223.4510 C   0  0  0  0  0  0  0  0  0  0  0  0
  139.3730   69.9100  223.3800 C   0  0  0  0  0  0  0  0  0  0  0  0
  139.3140   69.0860  224.5030 C   0  0  0  0  0  0  0  0  0  0  0  0
  139.8580   69.5730  225.6850 C   0  0  0  0  0  0  0  0  0  0  0  0
  139.8180   68.7880  226.8100 C   0  0  0  0  0  0  0  0  0  0  0  0
  140.3440   69.2280  228.0030 C   0  0  0  0  0  0  0  0  0  0  0  0
  140.3250   68.4850  229.1340 F   0  0  0  0  0  0  0  0  0  0  0  0
  140.9180   70.4910  228.0390 C   0  0  0  0  0  0  0  0  0  0  0  0
  140.9570   71.2790  226.9060 C   0  0  0  0  0  0  0  0  0  0  0  0
  140.4280   70.8300  225.7200 C   0  0  0  0  0  0  0  0  0  0  0  0
  140.4680   71.6050  224.6090 N   0  0  0  0  0  0  0  0  0  0  0  0
  139.5740   73.8040  223.2580 H   0  0  0  0  0  0  0  0  0  0  0  0
  140.6175   73.7992  220.4648 H   0  0  0  0  0  0  0  0  0  0  0  0
  138.8360   73.9865  220.5362 H   0  0  0  0  0  0  0  0  0  0  0  0
  139.4990   75.4411  218.9137 H   0  0  0  0  0  0  0  0  0  0  0  0
  138.9484   77.1815  219.1562 H   0  0  0  0  0  0  0  0  0  0  0  0
  140.7082   76.1377  217.2558 H   0  0  0  0  0  0  0  0  0  0  0  0
  140.2098   77.8705  217.6323 H   0  0  0  0  0  0  0  0  0  0  0  0
  142.6368   76.3592  218.4963 H   0  0  0  0  0  0  0  0  0  0  0  0
  142.4569   77.9415  217.5919 H   0  0  0  0  0  0  0  0  0  0  0  0
  143.2377   78.1477  219.9455 H   0  0  0  0  0  0  0  0  0  0  0  0
  141.7125   79.0512  219.5028 H   0  0  0  0  0  0  0  0  0  0  0  0
  142.2120   76.8292  221.3194 H   0  0  0  0  0  0  0  0  0  0  0  0
  139.8163   78.4236  221.8920 H   0  0  0  0  0  0  0  0  0  0  0  0
  140.8273   77.3040  223.5702 H   0  0  0  0  0  0  0  0  0  0  0  0
  142.4996   77.8411  223.0029 H   0  0  0  0  0  0  0  0  0  0  0  0
  140.4487   79.5897  224.3689 H   0  0  0  0  0  0  0  0  0  0  0  0
  141.8764   78.8992  225.1397 H   0  0  0  0  0  0  0  0  0  0  0  0
  142.5646   81.0930  224.2684 H   0  0  0  0  0  0  0  0  0  0  0  0
  143.2686   79.9411  223.1476 H   0  0  0  0  0  0  0  0  0  0  0  0
  140.4717   81.1927  222.9153 H   0  0  0  0  0  0  0  0  0  0  0  0
  141.9561   81.6959  221.9777 H   0  0  0  0  0  0  0  0  0  0  0  0
  140.1662   80.1870  220.8817 H   0  0  0  0  0  0  0  0  0  0  0  0
  141.9734   79.8539  220.7107 H   0  0  0  0  0  0  0  0  0  0  0  0
  138.9538   69.5585  222.4257 H   0  0  0  0  0  0  0  0  0  0  0  0
  138.8541   68.0879  224.4550 H   0  0  0  0  0  0  0  0  0  0  0  0
  139.3577   67.7903  226.7572 H   0  0  0  0  0  0  0  0  0  0  0  0
  141.3461   70.8680  228.9795 H   0  0  0  0  0  0  0  0  0  0  0  0
  141.4166   72.2773  226.9533 H   0  0  0  0  0  0  0  0  0  0  0  0
  1  2  2  0
  2  3  1  0
  3  4  1  0
  4  5  1  0
  5  6  2  0
  5  7  1  0
  7  8  1  0
  8  9  1  0
  9 10  1  0
 10 11  1  0
 11 12  1  0
 12 13  1  0
 13 14  1  0
 14 15  1  0
 15 16  1  0
 16 17  1  0
 17 18  1  0
  2 19  1  0
 19 20  2  0
 20 21  1  0
 21 22  2  0
 22 23  1  0
 23 24  2  0
 24 25  1  0
 24 26  1  0
 26 27  2  0
 27 28  1  0
 28 29  2  0
 12  7  1  0
 18 13  1  0
 29 19  1  0
 28 22  1  0
  3 30  1  0
  4 31  1  0
  4 32  1  0
  8 33  1  0
  8 34  1  0
  9 35  1  0
  9 36  1  0
 10 37  1  0
 10 38  1  0
 11 39  1  0
 11 40  1  0
 12 41  1  1
 13 42  1  0
 14 43  1  0
 14 44  1  0
 15 45  1  0
 15 46  1  0
 16 47  1  0
 16 48  1  0
 17 49  1  0
 17 50  1  0
 18 51  1  0
 18 52  1  0
 20 53  1  0
 21 54  1  0
 23 55  1  0
 26 56  1  0
 27 57  1  0
M  END
>  <smiles>  (59) 
O=C(NCC(=O)N1CCCCC1C1CCCCC1)c1ccc2cc(F)ccc2n1

>  <score_type>  (59) 
oracle

>  <origin>  (59) 
autodockgpu

>  <m_score__min__energy>  (59) 
-9.0199999999999996

>  <m_primary>  (59) 
energy

>  <rmsd>  (59) 
1.4143473247157028

>  <m_score__min__rmsd>  (59) 
1.4143473247157028

>  <meeko>  (59) 
{"free_energy": -8.7, "intermolecular_energy": -10.19, "internal_energy": -1.93, "cluster_size": 24, "cluster_id": 1, "rank_in_cluster": 11}

>  <energy>  (59) 
-8.72

>  <cluster_rmsd>  (59) 
1.26

>  <cluster>  (59) 
1

$$$$

     RDKit          3D

 57 60  0  0  0  0  0  0  0  0999 V2000
  141.4200   72.7410  222.0190 O   0  0  0  0  0  0  0  0  0  0  0  0
  140.3460   72.6320  222.6800 C   0  0  0  0  0  0  0  0  0  0  0  0
  139.2350   73.4710  222.3490 N   0  0  0  0  0  0  0  0  0  0  0  0
  139.4180   74.4090  221.2580 C   0  0  0  0  0  0  0  0  0  0  0  0
  139.5040   75.8040  221.8200 C   0  0  0  0  0  0  0  0  0  0  0  0
  139.1590   75.9270  223.0190 O   0  0  0  0  0  0  0  0  0  0  0  0
  139.9490   76.8880  221.0120 N   0  0  0  0  0  0  0  0  0  0  0  0
  139.1480   77.2920  219.8940 C   0  0  0  0  0  0  0  0  0  0  0  0
  139.8920   77.9170  218.7680 C   0  0  0  0  0  0  0  0  0  0  0  0
  141.3760   77.9530  218.9240 C   0  0  0  0  0  0  0  0  0  0  0  0
  141.8410   78.3220  220.3110 C   0  0  0  0  0  0  0  0  0  0  0  0
  141.2040   77.5100  221.3890 C   0  0  1  0  0  0  0  0  0  0  0  0
  141.0480   78.2910  222.7030 C   0  0  0  0  0  0  0  0  0  0  0  0
  142.2970   79.0700  222.9190 C   0  0  0  0  0  0  0  0  0  0  0  0
  142.1820   80.2480  223.8400 C   0  0  0  0  0  0  0  0  0  0  0  0
  141.1110   81.1220  223.2200 C   0  0  0  0  0  0  0  0  0  0  0  0
  139.8360   80.3640  223.4900 C   0  0  0  0  0  0  0  0  0  0  0  0
  139.7730   79.0310  222.7920 C   0  0  0  0  0  0  0  0  0  0  0  0
  140.2010   71.6700  223.7750 C   0  0  0  0  0  0  0  0  0  0  0  0
  139.4980   70.5060  223.5120 C   0  0  0  0  0  0  0  0  0  0  0  0
  139.3160   69.5420  224.5030 C   0  0  0  0  0  0  0  0  0  0  0  0
  139.8660   69.7950  225.7520 C   0  0  0  0  0  0  0  0  0  0  0  0
  139.7080   68.8670  226.7510 C   0  0  0  0  0  0  0  0  0  0  0  0
  140.2350   69.0740  228.0050 C   0  0  0  0  0  0  0  0  0  0  0  0
  140.1020   68.1850  229.0150 F   0  0  0  0  0  0  0  0  0  0  0  0
  140.9350   70.2510  228.2340 C   0  0  0  0  0  0  0  0  0  0  0  0
  141.0930   71.1830  227.2290 C   0  0  0  0  0  0  0  0  0  0  0  0
  140.5620   70.9660  225.9800 C   0  0  0  0  0  0  0  0  0  0  0  0
  140.7190   71.8820  224.9940 N   0  0  0  0  0  0  0  0  0  0  0  0
  138.3490   73.3820  222.8920 H   0  0  0  0  0  0  0  0  0  0  0  0
  140.3466   74.1708  220.7186 H   0  0  0  0  0  0  0  0  0  0  0  0
  138.5687   74.3402  220.5623 H   0  0  0  0  0  0  0  0  0  0  0  0
  138.6322   76.4010  219.5067 H   0  0  0  0  0  0  0  0  0  0  0  0
  138.4667   78.0674  220.2742 H   0  0  0  0  0  0  0  0  0  0  0  0
  139.6604   77.3521  217.8530 H   0  0  0  0  0  0  0  0  0  0  0  0
  139.5649   78.9667  218.7337 H   0  0  0  0  0  0  0  0  0  0  0  0
  141.7732   76.9566  218.6802 H   0  0  0  0  0  0  0  0  0  0  0  0
  141.7472   78.7359  218.2463 H   0  0  0  0  0  0  0  0  0  0  0  0
  142.9301   78.1765  220.3632 H   0  0  0  0  0  0  0  0  0  0  0  0
  141.5510   79.3694  220.4811 H   0  0  0  0  0  0  0  0  0  0  0  0
  141.9156   76.6881  221.5565 H   0  0  0  0  0  0  0  0  0  0  0  0
  140.9455   77.6096  223.5604 H   0  0  0  0  0  0  0  0  0  0  0  0
  143.0520   78.3877  223.3368 H   0  0  0  0  0  0  0  0  0  0  0  0
  142.5633   79.4851  221.9358 H   0  0  0  0  0  0  0  0  0  0  0  0
  141.8823   79.9241  224.8476 H   0  0  0  0  0  0  0  0  0  0  0  0
  143.1377   80.7806  223.9536 H   0  0  0  0  0  0  0  0  0  0  0  0
  141.0876   82.1129  223.6971 H   0  0  0  0  0  0  0  0  0  0  0  0
  141.2787   81.3094  222.1491 H   0  0  0  0  0  0  0  0  0  0  0  0
  139.7542   80.1942  224.5737 H   0  0  0  0  0  0  0  0  0  0  0  0
  139.0073   80.9737  223.1007 H   0  0  0  0  0  0  0  0  0  0  0  0
  139.0536   78.3998  223.3343 H   0  0  0  0  0  0  0  0  0  0  0  0
  139.4821   79.2508  221.7542 H   0  0  0  0  0  0  0  0  0  0  0  0
  139.0780   70.3399  222.5090 H   0  0  0  0  0  0  0  0  0  0  0  0
  138.7575   68.6158  224.3024 H   0  0  0  0  0  0  0  0  0  0  0  0
  139.1502   67.9415  226.5454 H   0  0  0  0  0  0  0  0  0  0  0  0
  141.3681   70.4424  229.2269 H   0  0  0  0  0  0  0  0  0  0  0  0
  141.6501   72.1100  227.4296 H   0  0  0  0  0  0  0  0  0  0  0  0
  1  2  2  0
  2  3  1  0
  3  4  1  0
  4  5  1  0
  5  6  2  0
  5  7  1  0
  7  8  1  0
  8  9  1  0
  9 10  1  0
 10 11  1  0
 11 12  1  0
 12 13  1  0
 13 14  1  0
 14 15  1  0
 15 16  1  0
 16 17  1  0
 17 18  1  0
  2 19  1  0
 19 20  2  0
 20 21  1  0
 21 22  2  0
 22 23  1  0
 23 24  2  0
 24 25  1  0
 24 26  1  0
 26 27  2  0
 27 28  1  0
 28 29  2  0
 12  7  1  0
 18 13  1  0
 29 19  1  0
 28 22  1  0
  3 30  1  0
  4 31  1  0
  4 32  1  0
  8 33  1  0
  8 34  1  0
  9 35  1  0
  9 36  1  0
 10 37  1  0
 10 38  1  0
 11 39  1  0
 11 40  1  0
 12 41  1  1
 13 42  1  0
 14 43  1  0
 14 44  1  0
 15 45  1  0
 15 46  1  0
 16 47  1  0
 16 48  1  0
 17 49  1  0
 17 50  1  0
 18 51  1  0
 18 52  1  0
 20 53  1  0
 21 54  1  0
 23 55  1  0
 26 56  1  0
 27 57  1  0
M  END
>  <smiles>  (60) 
O=C(NCC(=O)N1CCCCC1C1CCCCC1)c1ccc2cc(F)ccc2n1

>  <score_type>  (60) 
oracle

>  <origin>  (60) 
autodockgpu

>  <m_score__min__energy>  (60) 
-9.0199999999999996

>  <m_primary>  (60) 
energy

>  <rmsd>  (60) 
1.896259884919218

>  <m_score__min__rmsd>  (60) 
1.896259884919218

>  <meeko>  (60) 
{"free_energy": -8.89, "intermolecular_energy": -10.38, "internal_energy": -1.57, "cluster_size": 24, "cluster_id": 1, "rank_in_cluster": 5}

>  <energy>  (60) 
-8.72

>  <cluster_rmsd>  (60) 
1.28

>  <cluster>  (60) 
1

$$$$

     RDKit          3D

 57 60  0  0  0  0  0  0  0  0999 V2000
  140.3860   71.6880  221.0730 O   0  0  0  0  0  0  0  0  0  0  0  0
  140.0770   72.1930  222.1910 C   0  0  0  0  0  0  0  0  0  0  0  0
  139.7930   73.5930  222.2700 N   0  0  0  0  0  0  0  0  0  0  0  0
  139.8800   74.3550  221.0390 C   0  0  0  0  0  0  0  0  0  0  0  0
  140.6940   75.5970  221.2870 C   0  0  0  0  0  0  0  0  0  0  0  0
  140.4250   76.2190  222.3430 O   0  0  0  0  0  0  0  0  0  0  0  0
  141.6940   76.0100  220.3610 N   0  0  0  0  0  0  0  0  0  0  0  0
  142.0060   77.4050  220.2570 C   0  0  0  0  0  0  0  0  0  0  0  0
  142.5150   77.8470  218.9310 C   0  0  0  0  0  0  0  0  0  0  0  0
  142.5440   76.7940  217.8740 C   0  0  0  0  0  0  0  0  0  0  0  0
  143.0320   75.4500  218.3560 C   0  0  0  0  0  0  0  0  0  0  0  0
  142.3290   74.9660  219.5800 C   0  0  1  0  0  0  0  0  0  0  0  0
  143.2290   74.0950  220.4700 C   0  0  0  0  0  0  0  0  0  0  0  0
  142.9860   72.6720  220.1100 C   0  0  0  0  0  0  0  0  0  0  0  0
  144.0720   71.7080  220.4810 C   0  0  0  0  0  0  0  0  0  0  0  0
  145.3100   72.2300  219.7800 C   0  0  0  0  0  0  0  0  0  0  0  0
  145.6730   73.4600  220.5720 C   0  0  0  0  0  0  0  0  0  0  0  0
  144.6350   74.5480  220.4980 C   0  0  0  0  0  0  0  0  0  0  0  0
  139.9990   71.3880  223.4130 C   0  0  0  0  0  0  0  0  0  0  0  0
  139.4680   70.1140  223.3040 C   0  0  0  0  0  0  0  0  0  0  0  0
  139.3610   69.2870  224.4210 C   0  0  0  0  0  0  0  0  0  0  0  0
  139.8050   69.7900  225.6370 C   0  0  0  0  0  0  0  0  0  0  0  0
  139.7150   69.0030  226.7570 C   0  0  0  0  0  0  0  0  0  0  0  0
  140.1420   69.4580  227.9830 C   0  0  0  0  0  0  0  0  0  0  0  0
  140.0710   68.7140  229.1100 F   0  0  0  0  0  0  0  0  0  0  0  0
  140.6700   70.7400  228.0570 C   0  0  0  0  0  0  0  0  0  0  0  0
  140.7600   71.5310  226.9290 C   0  0  0  0  0  0  0  0  0  0  0  0
  140.3290   71.0650  225.7100 C   0  0  0  0  0  0  0  0  0  0  0  0
  140.4190   71.8420  224.6040 N   0  0  0  0  0  0  0  0  0  0  0  0
  139.5370   74.0110  223.1910 H   0  0  0  0  0  0  0  0  0  0  0  0
  140.3645   73.7458  220.2618 H   0  0  0  0  0  0  0  0  0  0  0  0
  138.8705   74.6337  220.7026 H   0  0  0  0  0  0  0  0  0  0  0  0
  141.0911   77.9748  220.4766 H   0  0  0  0  0  0  0  0  0  0  0  0
  142.8222   77.5875  220.9716 H   0  0  0  0  0  0  0  0  0  0  0  0
  141.8723   78.6663  218.5765 H   0  0  0  0  0  0  0  0  0  0  0  0
  143.5617   78.1447  219.0916 H   0  0  0  0  0  0  0  0  0  0  0  0
  141.5239   76.6706  217.4814 H   0  0  0  0  0  0  0  0  0  0  0  0
  143.2562   77.1337  217.1076 H   0  0  0  0  0  0  0  0  0  0  0  0
  142.8781   74.7149  217.5523 H   0  0  0  0  0  0  0  0  0  0  0  0
  144.0942   75.5659  218.6172 H   0  0  0  0  0  0  0  0  0  0  0  0
  141.5149   74.3382  219.1887 H   0  0  0  0  0  0  0  0  0  0  0  0
  142.9611   74.2047  221.5312 H   0  0  0  0  0  0  0  0  0  0  0  0
  142.0628   72.3498  220.6139 H   0  0  0  0  0  0  0  0  0  0  0  0
  142.9296   72.6484  219.0117 H   0  0  0  0  0  0  0  0  0  0  0  0
  144.2211   71.6931  221.5707 H   0  0  0  0  0  0  0  0  0  0  0  0
  143.8307   70.6767  220.1840 H   0  0  0  0  0  0  0  0  0  0  0  0
  146.1218   71.4884  219.8121 H   0  0  0  0  0  0  0  0  0  0  0  0
  145.1404   72.4424  218.7141 H   0  0  0  0  0  0  0  0  0  0  0  0
  145.8004   73.1710  221.6257 H   0  0  0  0  0  0  0  0  0  0  0  0
  146.5985   73.8647  220.1365 H   0  0  0  0  0  0  0  0  0  0  0  0
  144.7630   75.1968  221.3770 H   0  0  0  0  0  0  0  0  0  0  0  0
  144.8039   75.0569  219.5375 H   0  0  0  0  0  0  0  0  0  0  0  0
  139.1264   69.7499  222.3238 H   0  0  0  0  0  0  0  0  0  0  0  0
  138.9405   68.2736  224.3423 H   0  0  0  0  0  0  0  0  0  0  0  0
  139.2940   67.9902  226.6733 H   0  0  0  0  0  0  0  0  0  0  0  0
  141.0202   71.1295  229.0243 H   0  0  0  0  0  0  0  0  0  0  0  0
  141.1809   72.5443  227.0067 H   0  0  0  0  0  0  0  0  0  0  0  0
  1  2  2  0
  2  3  1  0
  3  4  1  0
  4  5  1  0
  5  6  2  0
  5  7  1  0
  7  8  1  0
  8  9  1  0
  9 10  1  0
 10 11  1  0
 11 12  1  0
 12 13  1  0
 13 14  1  0
 14 15  1  0
 15 16  1  0
 16 17  1  0
 17 18  1  0
  2 19  1  0
 19 20  2  0
 20 21  1  0
 21 22  2  0
 22 23  1  0
 23 24  2  0
 24 25  1  0
 24 26  1  0
 26 27  2  0
 27 28  1  0
 28 29  2  0
 12  7  1  0
 18 13  1  0
 29 19  1  0
 28 22  1  0
  3 30  1  0
  4 31  1  0
  4 32  1  0
  8 33  1  0
  8 34  1  0
  9 35  1  0
  9 36  1  0
 10 37  1  0
 10 38  1  0
 11 39  1  0
 11 40  1  0
 12 41  1  6
 13 42  1  0
 14 43  1  0
 14 44  1  0
 15 45  1  0
 15 46  1  0
 16 47  1  0
 16 48  1  0
 17 49  1  0
 17 50  1  0
 18 51  1  0
 18 52  1  0
 20 53  1  0
 21 54  1  0
 23 55  1  0
 26 56  1  0
 27 57  1  0
M  END
>  <smiles>  (61) 
O=C(NCC(=O)N1CCCCC1C1CCCCC1)c1ccc2cc(F)ccc2n1

>  <score_type>  (61) 
oracle

>  <origin>  (61) 
autodockgpu

>  <m_score__min__energy>  (61) 
-9.0199999999999996

>  <m_primary>  (61) 
energy

>  <rmsd>  (61) 
2.2961558087893383

>  <m_score__min__rmsd>  (61) 
2.2961558087893383

>  <meeko>  (61) 
{"free_energy": -8.61, "intermolecular_energy": -10.11, "internal_energy": -2.12, "cluster_size": 24, "cluster_id": 2, "rank_in_cluster": 14}

>  <energy>  (61) 
-8.7

>  <cluster_rmsd>  (61) 
1.35

>  <cluster>  (61) 
1

$$$$

     RDKit          3D

 57 60  0  0  0  0  0  0  0  0999 V2000
  140.7320   71.7920  221.0970 O   0  0  0  0  0  0  0  0  0  0  0  0
  140.2820   72.2560  222.1850 C   0  0  0  0  0  0  0  0  0  0  0  0
  139.8400   73.6160  222.2330 N   0  0  0  0  0  0  0  0  0  0  0  0
  139.9380   74.3860  221.0090 C   0  0  0  0  0  0  0  0  0  0  0  0
  140.9040   75.5230  221.2200 C   0  0  0  0  0  0  0  0  0  0  0  0
  140.8090   76.1160  222.3210 O   0  0  0  0  0  0  0  0  0  0  0  0
  141.8470   75.8740  220.2130 N   0  0  0  0  0  0  0  0  0  0  0  0
  142.1810   77.2570  220.0320 C   0  0  0  0  0  0  0  0  0  0  0  0
  142.6080   77.6340  218.6590 C   0  0  0  0  0  0  0  0  0  0  0  0
  142.5420   76.5410  217.6440 C   0  0  0  0  0  0  0  0  0  0  0  0
  143.0320   75.2050  218.1460 C   0  0  0  0  0  0  0  0  0  0  0  0
  142.4040   74.7860  219.4340 C   0  0  1  0  0  0  0  0  0  0  0  0
  143.3440   73.9280  220.2960 C   0  0  0  0  0  0  0  0  0  0  0  0
  143.2880   72.5340  219.7790 C   0  0  0  0  0  0  0  0  0  0  0  0
  144.4550   71.6600  220.1300 C   0  0  0  0  0  0  0  0  0  0  0  0
  145.6640   72.3850  219.5750 C   0  0  0  0  0  0  0  0  0  0  0  0
  145.8340   73.5560  220.5090 C   0  0  0  0  0  0  0  0  0  0  0  0
  144.6830   74.5250  220.4680 C   0  0  0  0  0  0  0  0  0  0  0  0
  140.1980   71.4440  223.4020 C   0  0  0  0  0  0  0  0  0  0  0  0
  139.5980   70.2000  223.2980 C   0  0  0  0  0  0  0  0  0  0  0  0
  139.4790   69.3690  224.4100 C   0  0  0  0  0  0  0  0  0  0  0  0
  139.9850   69.8350  225.6160 C   0  0  0  0  0  0  0  0  0  0  0  0
  139.8870   69.0430  226.7320 C   0  0  0  0  0  0  0  0  0  0  0  0
  140.3740   69.4630  227.9490 C   0  0  0  0  0  0  0  0  0  0  0  0
  140.2960   68.7110  229.0710 F   0  0  0  0  0  0  0  0  0  0  0  0
  140.9700   70.7140  228.0180 C   0  0  0  0  0  0  0  0  0  0  0  0
  141.0680   71.5100  226.8940 C   0  0  0  0  0  0  0  0  0  0  0  0
  140.5780   71.0810  225.6850 C   0  0  0  0  0  0  0  0  0  0  0  0
  140.6760   71.8630  224.5830 N   0  0  0  0  0  0  0  0  0  0  0  0
  139.4680   74.0000  223.1290 H   0  0  0  0  0  0  0  0  0  0  0  0
  140.3004   73.7405  220.1954 H   0  0  0  0  0  0  0  0  0  0  0  0
  138.9484   74.7844  220.7406 H   0  0  0  0  0  0  0  0  0  0  0  0
  141.2954   77.8567  220.2889 H   0  0  0  0  0  0  0  0  0  0  0  0
  143.0472   77.4479  220.6826 H   0  0  0  0  0  0  0  0  0  0  0  0
  141.9611   78.4549  218.3160 H   0  0  0  0  0  0  0  0  0  0  0  0
  143.6698   77.9104  218.7375 H   0  0  0  0  0  0  0  0  0  0  0  0
  141.4952   76.4278  217.3255 H   0  0  0  0  0  0  0  0  0  0  0  0
  143.2074   76.8336  216.8184 H   0  0  0  0  0  0  0  0  0  0  0  0
  142.8070   74.4433  217.3850 H   0  0  0  0  0  0  0  0  0  0  0  0
  144.1119   75.3048  218.3300 H   0  0  0  0  0  0  0  0  0  0  0  0
  141.5516   74.1635  219.1242 H   0  0  0  0  0  0  0  0  0  0  0  0
  143.0034   73.8941  221.3414 H   0  0  0  0  0  0  0  0  0  0  0  0
  142.3796   72.0614  220.1807 H   0  0  0  0  0  0  0  0  0  0  0  0
  143.2996   72.6215  218.6826 H   0  0  0  0  0  0  0  0  0  0  0  0
  144.5390   71.5457  221.2208 H   0  0  0  0  0  0  0  0  0  0  0  0
  144.3532   70.6461  219.7157 H   0  0  0  0  0  0  0  0  0  0  0  0
  146.5526   71.7369  219.5918 H   0  0  0  0  0  0  0  0  0  0  0  0
  145.5355   72.6899  218.5259 H   0  0  0  0  0  0  0  0  0  0  0  0
  145.9304   73.1723  221.5354 H   0  0  0  0  0  0  0  0  0  0  0  0
  146.7311   74.1033  220.1839 H   0  0  0  0  0  0  0  0  0  0  0  0
  144.6823   75.0878  221.4131 H   0  0  0  0  0  0  0  0  0  0  0  0
  144.8487   75.1468  219.5759 H   0  0  0  0  0  0  0  0  0  0  0  0
  139.2105   69.8638  222.3250 H   0  0  0  0  0  0  0  0  0  0  0  0
  139.0020   68.3806  224.3352 H   0  0  0  0  0  0  0  0  0  0  0  0
  139.4107   68.0546  226.6528 H   0  0  0  0  0  0  0  0  0  0  0  0
  141.3684   71.0753  228.9776 H   0  0  0  0  0  0  0  0  0  0  0  0
  141.5439   72.4990  226.9678 H   0  0  0  0  0  0  0  0  0  0  0  0
  1  2  2  0
  2  3  1  0
  3  4  1  0
  4  5  1  0
  5  6  2  0
  5  7  1  0
  7  8  1  0
  8  9  1  0
  9 10  1  0
 10 11  1  0
 11 12  1  0
 12 13  1  0
 13 14  1  0
 14 15  1  0
 15 16  1  0
 16 17  1  0
 17 18  1  0
  2 19  1  0
 19 20  2  0
 20 21  1  0
 21 22  2  0
 22 23  1  0
 23 24  2  0
 24 25  1  0
 24 26  1  0
 26 27  2  0
 27 28  1  0
 28 29  2  0
 12  7  1  0
 18 13  1  0
 29 19  1  0
 28 22  1  0
  3 30  1  0
  4 31  1  0
  4 32  1  0
  8 33  1  0
  8 34  1  0
  9 35  1  0
  9 36  1  0
 10 37  1  0
 10 38  1  0
 11 39  1  0
 11 40  1  0
 12 41  1  6
 13 42  1  0
 14 43  1  0
 14 44  1  0
 15 45  1  0
 15 46  1  0
 16 47  1  0
 16 48  1  0
 17 49  1  0
 17 50  1  0
 18 51  1  0
 18 52  1  0
 20 53  1  0
 21 54  1  0
 23 55  1  0
 26 56  1  0
 27 57  1  0
M  END
>  <smiles>  (62) 
O=C(NCC(=O)N1CCCCC1C1CCCCC1)c1ccc2cc(F)ccc2n1

>  <score_type>  (62) 
oracle

>  <origin>  (62) 
autodockgpu

>  <m_score__min__energy>  (62) 
-9.0199999999999996

>  <m_primary>  (62) 
energy

>  <rmsd>  (62) 
2.333885576404069

>  <m_score__min__rmsd>  (62) 
2.333885576404069

>  <meeko>  (62) 
{"free_energy": -8.65, "intermolecular_energy": -10.14, "internal_energy": -2.03, "cluster_size": 24, "cluster_id": 2, "rank_in_cluster": 6}

>  <energy>  (62) 
-8.7

>  <cluster_rmsd>  (62) 
1.28

>  <cluster>  (62) 
1

$$$$

     RDKit          3D

 57 60  0  0  0  0  0  0  0  0999 V2000
  140.9280   72.0600  221.2020 O   0  0  0  0  0  0  0  0  0  0  0  0
  140.3260   72.4030  222.2620 C   0  0  0  0  0  0  0  0  0  0  0  0
  139.7250   73.7000  222.3340 N   0  0  0  0  0  0  0  0  0  0  0  0
  139.8480   74.5500  221.1660 C   0  0  0  0  0  0  0  0  0  0  0  0
  139.4630   75.9570  221.5410 C   0  0  0  0  0  0  0  0  0  0  0  0
  138.7310   76.0660  222.5540 O   0  0  0  0  0  0  0  0  0  0  0  0
  139.9170   77.0660  220.7720 N   0  0  0  0  0  0  0  0  0  0  0  0
  139.1060   77.5320  219.6860 C   0  0  0  0  0  0  0  0  0  0  0  0
  139.8450   78.1900  218.5760 C   0  0  0  0  0  0  0  0  0  0  0  0
  141.3310   78.1910  218.7090 C   0  0  0  0  0  0  0  0  0  0  0  0
  141.8250   78.4920  220.1020 C   0  0  0  0  0  0  0  0  0  0  0  0
  141.1890   77.6470  221.1550 C   0  0  1  0  0  0  0  0  0  0  0  0
  141.0690   78.3750  222.5030 C   0  0  0  0  0  0  0  0  0  0  0  0
  142.3340   79.1250  222.7280 C   0  0  0  0  0  0  0  0  0  0  0  0
  142.2540   80.2650  223.7000 C   0  0  0  0  0  0  0  0  0  0  0  0
  141.1850   81.1800  223.1370 C   0  0  0  0  0  0  0  0  0  0  0  0
  139.9040   80.4300  223.3990 C   0  0  0  0  0  0  0  0  0  0  0  0
  139.8080   79.1290  222.6470 C   0  0  0  0  0  0  0  0  0  0  0  0
  140.2230   71.5120  223.4210 C   0  0  0  0  0  0  0  0  0  0  0  0
  139.6270   70.2780  223.2250 C   0  0  0  0  0  0  0  0  0  0  0  0
  139.4910   69.3750  224.2780 C   0  0  0  0  0  0  0  0  0  0  0  0
  139.9760   69.7610  225.5210 C   0  0  0  0  0  0  0  0  0  0  0  0
  139.8610   68.8970  226.5800 C   0  0  0  0  0  0  0  0  0  0  0  0
  140.3270   69.2370  227.8300 C   0  0  0  0  0  0  0  0  0  0  0  0
  140.2320   68.4130  228.8990 F   0  0  0  0  0  0  0  0  0  0  0  0
  140.9200   70.4810  227.9910 C   0  0  0  0  0  0  0  0  0  0  0  0
  141.0350   71.3500  226.9240 C   0  0  0  0  0  0  0  0  0  0  0  0
  140.5660   71.0000  225.6810 C   0  0  0  0  0  0  0  0  0  0  0  0
  140.6810   71.8540  224.6350 N   0  0  0  0  0  0  0  0  0  0  0  0
  139.2280   73.9830  223.2060 H   0  0  0  0  0  0  0  0  0  0  0  0
  140.8877   74.5353  220.8070 H   0  0  0  0  0  0  0  0  0  0  0  0
  139.1855   74.1835  220.3681 H   0  0  0  0  0  0  0  0  0  0  0  0
  138.5668   76.6682  219.2699 H   0  0  0  0  0  0  0  0  0  0  0  0
  138.4452   78.3027  220.1096 H   0  0  0  0  0  0  0  0  0  0  0  0
  139.5882   77.6693  217.6417 H   0  0  0  0  0  0  0  0  0  0  0  0
  139.5385   79.2463  218.5919 H   0  0  0  0  0  0  0  0  0  0  0  0
  141.7045   77.1984  218.4171 H   0  0  0  0  0  0  0  0  0  0  0  0
  141.7068   78.9948  218.0589 H   0  0  0  0  0  0  0  0  0  0  0  0
  142.9117   78.3237  220.1299 H   0  0  0  0  0  0  0  0  0  0  0  0
  141.5587   79.5366  220.3210 H   0  0  0  0  0  0  0  0  0  0  0  0
  141.8862   76.8049  221.2769 H   0  0  0  0  0  0  0  0  0  0  0  0
  140.9710   77.6601  223.3332 H   0  0  0  0  0  0  0  0  0  0  0  0
  143.0854   78.4144  223.1026 H   0  0  0  0  0  0  0  0  0  0  0  0
  142.5894   79.5771  221.7582 H   0  0  0  0  0  0  0  0  0  0  0  0
  141.9678   79.9033  224.6986 H   0  0  0  0  0  0  0  0  0  0  0  0
  143.2197   80.7783  223.8181 H   0  0  0  0  0  0  0  0  0  0  0  0
  141.1853   82.1502  223.6554 H   0  0  0  0  0  0  0  0  0  0  0  0
  141.3361   81.4098  222.0719 H   0  0  0  0  0  0  0  0  0  0  0  0
  139.8395   80.2157  224.4760 H   0  0  0  0  0  0  0  0  0  0  0  0
  139.0777   81.0675  223.0516 H   0  0  0  0  0  0  0  0  0  0  0  0
  139.0889   78.4860  223.1757 H   0  0  0  0  0  0  0  0  0  0  0  0
  139.5020   79.3969  221.6249 H   0  0  0  0  0  0  0  0  0  0  0  0
  139.2561   70.0067  222.2256 H   0  0  0  0  0  0  0  0  0  0  0  0
  139.0173   68.3933  224.1302 H   0  0  0  0  0  0  0  0  0  0  0  0
  139.3883   67.9155  226.4279 H   0  0  0  0  0  0  0  0  0  0  0  0
  141.3024   70.7781  228.9787 H   0  0  0  0  0  0  0  0  0  0  0  0
  141.5070   72.3327  227.0708 H   0  0  0  0  0  0  0  0  0  0  0  0
  1  2  2  0
  2  3  1  0
  3  4  1  0
  4  5  1  0
  5  6  2  0
  5  7  1  0
  7  8  1  0
  8  9  1  0
  9 10  1  0
 10 11  1  0
 11 12  1  0
 12 13  1  0
 13 14  1  0
 14 15  1  0
 15 16  1  0
 16 17  1  0
 17 18  1  0
  2 19  1  0
 19 20  2  0
 20 21  1  0
 21 22  2  0
 22 23  1  0
 23 24  2  0
 24 25  1  0
 24 26  1  0
 26 27  2  0
 27 28  1  0
 28 29  2  0
 12  7  1  0
 18 13  1  0
 29 19  1  0
 28 22  1  0
  3 30  1  0
  4 31  1  0
  4 32  1  0
  8 33  1  0
  8 34  1  0
  9 35  1  0
  9 36  1  0
 10 37  1  0
 10 38  1  0
 11 39  1  0
 11 40  1  0
 12 41  1  1
 13 42  1  0
 14 43  1  0
 14 44  1  0
 15 45  1  0
 15 46  1  0
 16 47  1  0
 16 48  1  0
 17 49  1  0
 17 50  1  0
 18 51  1  0
 18 52  1  0
 20 53  1  0
 21 54  1  0
 23 55  1  0
 26 56  1  0
 27 57  1  0
M  END
>  <smiles>  (63) 
O=C(NCC(=O)N1CCCCC1C1CCCCC1)c1ccc2cc(F)ccc2n1

>  <score_type>  (63) 
oracle

>  <origin>  (63) 
autodockgpu

>  <m_score__min__energy>  (63) 
-9.0199999999999996

>  <m_primary>  (63) 
energy

>  <rmsd>  (63) 
1.8953223778134056

>  <m_score__min__rmsd>  (63) 
1.8953223778134056

>  <meeko>  (63) 
{"free_energy": -8.69, "intermolecular_energy": -10.19, "internal_energy": -1.98, "cluster_size": 24, "cluster_id": 1, "rank_in_cluster": 13}

>  <energy>  (63) 
-8.69

>  <cluster_rmsd>  (63) 
1.24

>  <cluster>  (63) 
1

$$$$

     RDKit          3D

 57 60  0  0  0  0  0  0  0  0999 V2000
  140.6340   71.6270  221.1240 O   0  0  0  0  0  0  0  0  0  0  0  0
  140.2370   72.1320  222.2140 C   0  0  0  0  0  0  0  0  0  0  0  0
  139.9030   73.5230  222.2570 N   0  0  0  0  0  0  0  0  0  0  0  0
  140.0460   74.2760  221.0270 C   0  0  0  0  0  0  0  0  0  0  0  0
  140.8190   75.5370  221.3090 C   0  0  0  0  0  0  0  0  0  0  0  0
  140.5530   76.1030  222.3960 O   0  0  0  0  0  0  0  0  0  0  0  0
  141.7810   76.0250  220.3790 N   0  0  0  0  0  0  0  0  0  0  0  0
  141.9960   77.4400  220.2870 C   0  0  0  0  0  0  0  0  0  0  0  0
  142.4620   77.9280  218.9620 C   0  0  0  0  0  0  0  0  0  0  0  0
  142.5530   76.8900  217.8930 C   0  0  0  0  0  0  0  0  0  0  0  0
  143.1350   75.5780  218.3570 C   0  0  0  0  0  0  0  0  0  0  0  0
  142.4780   75.0350  219.5820 C   0  0  1  0  0  0  0  0  0  0  0  0
  143.4430   74.2180  220.4560 C   0  0  0  0  0  0  0  0  0  0  0  0
  143.2740   72.7830  220.1010 C   0  0  0  0  0  0  0  0  0  0  0  0
  144.4200   71.8830  220.4520 C   0  0  0  0  0  0  0  0  0  0  0  0
  145.6130   72.4730  219.7270 C   0  0  0  0  0  0  0  0  0  0  0  0
  145.9210   73.7230  220.5110 C   0  0  0  0  0  0  0  0  0  0  0  0
  144.8210   74.7500  220.4550 C   0  0  0  0  0  0  0  0  0  0  0  0
  140.1050   71.3370  223.4370 C   0  0  0  0  0  0  0  0  0  0  0  0
  139.5200   70.0870  223.3240 C   0  0  0  0  0  0  0  0  0  0  0  0
  139.3590   69.2700  224.4420 C   0  0  0  0  0  0  0  0  0  0  0  0
  139.8060   69.7580  225.6630 C   0  0  0  0  0  0  0  0  0  0  0  0
  139.6640   68.9800  226.7840 C   0  0  0  0  0  0  0  0  0  0  0  0
  140.0920   69.4220  228.0150 C   0  0  0  0  0  0  0  0  0  0  0  0
  139.9710   68.6860  229.1440 F   0  0  0  0  0  0  0  0  0  0  0  0
  140.6750   70.6800  228.0930 C   0  0  0  0  0  0  0  0  0  0  0  0
  140.8160   71.4610  226.9640 C   0  0  0  0  0  0  0  0  0  0  0  0
  140.3850   71.0090  225.7400 C   0  0  0  0  0  0  0  0  0  0  0  0
  140.5250   71.7770  224.6320 N   0  0  0  0  0  0  0  0  0  0  0  0
  139.5740   73.9410  223.1550 H   0  0  0  0  0  0  0  0  0  0  0  0
  140.5870   73.6704  220.2850 H   0  0  0  0  0  0  0  0  0  0  0  0
  139.0521   74.5311  220.6307 H   0  0  0  0  0  0  0  0  0  0  0  0
  141.0462   77.9437  220.5196 H   0  0  0  0  0  0  0  0  0  0  0  0
  142.8036   77.6713  220.9971 H   0  0  0  0  0  0  0  0  0  0  0  0
  141.7623   78.7054  218.6214 H   0  0  0  0  0  0  0  0  0  0  0  0
  143.4877   78.2937  219.1174 H   0  0  0  0  0  0  0  0  0  0  0  0
  141.5402   76.7016  217.5073 H   0  0  0  0  0  0  0  0  0  0  0  0
  143.2335   77.2849  217.1243 H   0  0  0  0  0  0  0  0  0  0  0  0
  143.0238   74.8420  217.5471 H   0  0  0  0  0  0  0  0  0  0  0  0
  144.1892   75.7635  218.6106 H   0  0  0  0  0  0  0  0  0  0  0  0
  141.7054   74.3570  219.1904 H   0  0  0  0  0  0  0  0  0  0  0  0
  143.1902   74.3140  221.5222 H   0  0  0  0  0  0  0  0  0  0  0  0
  142.3802   72.4097  220.6224 H   0  0  0  0  0  0  0  0  0  0  0  0
  143.1979   72.7544  219.0040 H   0  0  0  0  0  0  0  0  0  0  0  0
  144.5904   71.8788  221.5387 H   0  0  0  0  0  0  0  0  0  0  0  0
  144.2321   70.8391  220.1604 H   0  0  0  0  0  0  0  0  0  0  0  0
  146.4659   71.7785  219.7441 H   0  0  0  0  0  0  0  0  0  0  0  0
  145.4113   72.6735  218.6644 H   0  0  0  0  0  0  0  0  0  0  0  0
  146.0843   73.4439  221.5624 H   0  0  0  0  0  0  0  0  0  0  0  0
  146.8141   74.1785  220.0584 H   0  0  0  0  0  0  0  0  0  0  0  0
  144.9291   75.4081  221.3297 H   0  0  0  0  0  0  0  0  0  0  0  0
  144.9416   75.2641  219.4900 H   0  0  0  0  0  0  0  0  0  0  0  0
  139.1781   69.7343  222.3398 H   0  0  0  0  0  0  0  0  0  0  0  0
  138.8952   68.2759  224.3602 H   0  0  0  0  0  0  0  0  0  0  0  0
  139.2003   67.9863  226.6974 H   0  0  0  0  0  0  0  0  0  0  0  0
  141.0278   71.0576  229.0641 H   0  0  0  0  0  0  0  0  0  0  0  0
  141.2783   72.4559  227.0448 H   0  0  0  0  0  0  0  0  0  0  0  0
  1  2  2  0
  2  3  1  0
  3  4  1  0
  4  5  1  0
  5  6  2  0
  5  7  1  0
  7  8  1  0
  8  9  1  0
  9 10  1  0
 10 11  1  0
 11 12  1  0
 12 13  1  0
 13 14  1  0
 14 15  1  0
 15 16  1  0
 16 17  1  0
 17 18  1  0
  2 19  1  0
 19 20  2  0
 20 21  1  0
 21 22  2  0
 22 23  1  0
 23 24  2  0
 24 25  1  0
 24 26  1  0
 26 27  2  0
 27 28  1  0
 28 29  2  0
 12  7  1  0
 18 13  1  0
 29 19  1  0
 28 22  1  0
  3 30  1  0
  4 31  1  0
  4 32  1  0
  8 33  1  0
  8 34  1  0
  9 35  1  0
  9 36  1  0
 10 37  1  0
 10 38  1  0
 11 39  1  0
 11 40  1  0
 12 41  1  6
 13 42  1  0
 14 43  1  0
 14 44  1  0
 15 45  1  0
 15 46  1  0
 16 47  1  0
 16 48  1  0
 17 49  1  0
 17 50  1  0
 18 51  1  0
 18 52  1  0
 20 53  1  0
 21 54  1  0
 23 55  1  0
 26 56  1  0
 27 57  1  0
M  END
>  <smiles>  (64) 
O=C(NCC(=O)N1CCCCC1C1CCCCC1)c1ccc2cc(F)ccc2n1

>  <score_type>  (64) 
oracle

>  <origin>  (64) 
autodockgpu

>  <m_score__min__energy>  (64) 
-9.0199999999999996

>  <m_primary>  (64) 
energy

>  <rmsd>  (64) 
2.324839150438654

>  <m_score__min__rmsd>  (64) 
2.324839150438654

>  <meeko>  (64) 
{"free_energy": -8.68, "intermolecular_energy": -10.17, "internal_energy": -2.1, "cluster_size": 24, "cluster_id": 2, "rank_in_cluster": 2}

>  <energy>  (64) 
-8.69

>  <cluster_rmsd>  (64) 
1.19

>  <cluster>  (64) 
1

$$$$

     RDKit          3D

 57 60  0  0  0  0  0  0  0  0999 V2000
  140.9640   71.9810  221.2430 O   0  0  0  0  0  0  0  0  0  0  0  0
  140.3830   72.3750  222.2960 C   0  0  0  0  0  0  0  0  0  0  0  0
  139.8430   73.7000  222.3400 N   0  0  0  0  0  0  0  0  0  0  0  0
  140.0020   74.5180  221.1540 C   0  0  0  0  0  0  0  0  0  0  0  0
  139.8800   75.9690  221.5380 C   0  0  0  0  0  0  0  0  0  0  0  0
  139.4820   76.1880  222.7070 O   0  0  0  0  0  0  0  0  0  0  0  0
  140.2040   76.9980  220.6090 N   0  0  0  0  0  0  0  0  0  0  0  0
  139.4290   77.1140  219.4080 C   0  0  0  0  0  0  0  0  0  0  0  0
  140.1420   77.7020  218.2440 C   0  0  0  0  0  0  0  0  0  0  0  0
  141.5860   78.0050  218.4640 C   0  0  0  0  0  0  0  0  0  0  0  0
  141.8880   78.6240  219.8060 C   0  0  0  0  0  0  0  0  0  0  0  0
  141.3150   77.8630  220.9550 C   0  0  1  0  0  0  0  0  0  0  0  0
  140.9450   78.7720  222.1380 C   0  0  0  0  0  0  0  0  0  0  0  0
  142.1920   79.0610  222.8960 C   0  0  0  0  0  0  0  0  0  0  0  0
  142.1610   80.2840  223.7630 C   0  0  0  0  0  0  0  0  0  0  0  0
  141.8380   81.4230  222.8180 C   0  0  0  0  0  0  0  0  0  0  0  0
  140.3820   81.2100  222.4930 C   0  0  0  0  0  0  0  0  0  0  0  0
  140.1160   79.9290  221.7460 C   0  0  0  0  0  0  0  0  0  0  0  0
  140.2420   71.5170  223.4750 C   0  0  0  0  0  0  0  0  0  0  0  0
  139.6230   70.2900  223.3000 C   0  0  0  0  0  0  0  0  0  0  0  0
  139.4520   69.4170  224.3730 C   0  0  0  0  0  0  0  0  0  0  0  0
  139.9230   69.8250  225.6130 C   0  0  0  0  0  0  0  0  0  0  0  0
  139.7720   68.9900  226.6920 C   0  0  0  0  0  0  0  0  0  0  0  0
  140.2240   69.3510  227.9400 C   0  0  0  0  0  0  0  0  0  0  0  0
  140.0940   68.5570  229.0280 F   0  0  0  0  0  0  0  0  0  0  0  0
  140.8390   70.5870  228.0810 C   0  0  0  0  0  0  0  0  0  0  0  0
  140.9910   71.4260  226.9950 C   0  0  0  0  0  0  0  0  0  0  0  0
  140.5350   71.0550  225.7530 C   0  0  0  0  0  0  0  0  0  0  0  0
  140.6860   71.8790  224.6880 N   0  0  0  0  0  0  0  0  0  0  0  0
  139.3630   74.0260  223.2070 H   0  0  0  0  0  0  0  0  0  0  0  0
  140.9921   74.3360  220.7107 H   0  0  0  0  0  0  0  0  0  0  0  0
  139.2244   74.2618  220.4194 H   0  0  0  0  0  0  0  0  0  0  0  0
  139.0893   76.1069  219.1246 H   0  0  0  0  0  0  0  0  0  0  0  0
  138.6080   77.8075  219.6427 H   0  0  0  0  0  0  0  0  0  0  0  0
  140.0680   76.9922  217.4069 H   0  0  0  0  0  0  0  0  0  0  0  0
  139.6560   78.6692  218.0482 H   0  0  0  0  0  0  0  0  0  0  0  0
  142.1525   77.0657  218.3815 H   0  0  0  0  0  0  0  0  0  0  0  0
  141.8748   78.7437  217.7018 H   0  0  0  0  0  0  0  0  0  0  0  0
  142.9800   78.6715  219.9297 H   0  0  0  0  0  0  0  0  0  0  0  0
  141.4235   79.6211  219.8144 H   0  0  0  0  0  0  0  0  0  0  0  0
  142.1342   77.1995  221.2690 H   0  0  0  0  0  0  0  0  0  0  0  0
  140.2615   78.2613  222.8323 H   0  0  0  0  0  0  0  0  0  0  0  0
  142.4029   78.1954  223.5412 H   0  0  0  0  0  0  0  0  0  0  0  0
  142.9648   79.2528  222.1371 H   0  0  0  0  0  0  0  0  0  0  0  0
  141.3844   80.1906  224.5364 H   0  0  0  0  0  0  0  0  0  0  0  0
  143.1128   80.4414  224.2915 H   0  0  0  0  0  0  0  0  0  0  0  0
  141.9931   82.3958  223.3075 H   0  0  0  0  0  0  0  0  0  0  0  0
  142.4791   81.4323  221.9242 H   0  0  0  0  0  0  0  0  0  0  0  0
  139.8142   81.1886  223.4349 H   0  0  0  0  0  0  0  0  0  0  0  0
  140.0713   82.0377  221.8384 H   0  0  0  0  0  0  0  0  0  0  0  0
  139.0618   79.6582  221.9054 H   0  0  0  0  0  0  0  0  0  0  0  0
  140.3711   80.1370  220.6964 H   0  0  0  0  0  0  0  0  0  0  0  0
  139.2620   70.0012  222.3019 H   0  0  0  0  0  0  0  0  0  0  0  0
  138.9619   68.4410  224.2418 H   0  0  0  0  0  0  0  0  0  0  0  0
  139.2809   68.0151  226.5563 H   0  0  0  0  0  0  0  0  0  0  0  0
  141.2092   70.9015  229.0679 H   0  0  0  0  0  0  0  0  0  0  0  0
  141.4822   72.4015  227.1254 H   0  0  0  0  0  0  0  0  0  0  0  0
  1  2  2  0
  2  3  1  0
  3  4  1  0
  4  5  1  0
  5  6  2  0
  5  7  1  0
  7  8  1  0
  8  9  1  0
  9 10  1  0
 10 11  1  0
 11 12  1  0
 12 13  1  0
 13 14  1  0
 14 15  1  0
 15 16  1  0
 16 17  1  0
 17 18  1  0
  2 19  1  0
 19 20  2  0
 20 21  1  0
 21 22  2  0
 22 23  1  0
 23 24  2  0
 24 25  1  0
 24 26  1  0
 26 27  2  0
 27 28  1  0
 28 29  2  0
 12  7  1  0
 18 13  1  0
 29 19  1  0
 28 22  1  0
  3 30  1  0
  4 31  1  0
  4 32  1  0
  8 33  1  0
  8 34  1  0
  9 35  1  0
  9 36  1  0
 10 37  1  0
 10 38  1  0
 11 39  1  0
 11 40  1  0
 12 41  1  1
 13 42  1  0
 14 43  1  0
 14 44  1  0
 15 45  1  0
 15 46  1  0
 16 47  1  0
 16 48  1  0
 17 49  1  0
 17 50  1  0
 18 51  1  0
 18 52  1  0
 20 53  1  0
 21 54  1  0
 23 55  1  0
 26 56  1  0
 27 57  1  0
M  END
>  <smiles>  (65) 
O=C(NCC(=O)N1CCCCC1C1CCCCC1)c1ccc2cc(F)ccc2n1

>  <score_type>  (65) 
oracle

>  <origin>  (65) 
autodockgpu

>  <m_score__min__energy>  (65) 
-9.0199999999999996

>  <m_primary>  (65) 
energy

>  <rmsd>  (65) 
1.767999902611985

>  <m_score__min__rmsd>  (65) 
1.767999902611985

>  <meeko>  (65) 
{"free_energy": -8.63, "intermolecular_energy": -10.12, "internal_energy": -1.95, "cluster_size": 24, "cluster_id": 1, "rank_in_cluster": 18}

>  <energy>  (65) 
-8.69

>  <cluster_rmsd>  (65) 
1.25

>  <cluster>  (65) 
1

$$$$

     RDKit          3D

 57 60  0  0  0  0  0  0  0  0999 V2000
  139.6540   71.2980  221.0950 O   0  0  0  0  0  0  0  0  0  0  0  0
  139.6530   71.8240  222.2470 C   0  0  0  0  0  0  0  0  0  0  0  0
  139.5590   73.2470  222.3640 N   0  0  0  0  0  0  0  0  0  0  0  0
  139.4700   74.0070  221.1330 C   0  0  0  0  0  0  0  0  0  0  0  0
  139.9360   75.4150  221.3910 C   0  0  0  0  0  0  0  0  0  0  0  0
  139.7300   75.8500  222.5490 O   0  0  0  0  0  0  0  0  0  0  0  0
  140.5650   76.1750  220.3630 N   0  0  0  0  0  0  0  0  0  0  0  0
  140.1200   76.0070  219.0100 C   0  0  0  0  0  0  0  0  0  0  0  0
  141.1440   76.2720  217.9650 C   0  0  0  0  0  0  0  0  0  0  0  0
  142.5110   76.5860  218.4740 C   0  0  0  0  0  0  0  0  0  0  0  0
  142.5270   77.5110  219.6660 C   0  0  0  0  0  0  0  0  0  0  0  0
  141.6270   77.0730  220.7730 C   0  0  1  0  0  0  0  0  0  0  0  0
  141.0580   78.2540  221.5740 C   0  0  0  0  0  0  0  0  0  0  0  0
  141.4520   78.0700  222.9970 C   0  0  0  0  0  0  0  0  0  0  0  0
  141.4380   79.3070  223.8440 C   0  0  0  0  0  0  0  0  0  0  0  0
  142.3860   80.2640  223.1500 C   0  0  0  0  0  0  0  0  0  0  0  0
  141.6200   80.6930  221.9240 C   0  0  0  0  0  0  0  0  0  0  0  0
  141.3500   79.5660  220.9630 C   0  0  0  0  0  0  0  0  0  0  0  0
  139.7430   71.0200  223.4690 C   0  0  0  0  0  0  0  0  0  0  0  0
  139.2350   69.7320  223.4230 C   0  0  0  0  0  0  0  0  0  0  0  0
  139.2840   68.9050  224.5440 C   0  0  0  0  0  0  0  0  0  0  0  0
  139.8590   69.4210  225.6970 C   0  0  0  0  0  0  0  0  0  0  0  0
  139.9250   68.6350  226.8200 C   0  0  0  0  0  0  0  0  0  0  0  0
  140.4860   69.1030  227.9850 C   0  0  0  0  0  0  0  0  0  0  0  0
  140.5690   68.3590  229.1120 F   0  0  0  0  0  0  0  0  0  0  0  0
  140.9860   70.3980  227.9960 C   0  0  0  0  0  0  0  0  0  0  0  0
  140.9190   71.1880  226.8660 C   0  0  0  0  0  0  0  0  0  0  0  0
  140.3560   70.7090  225.7080 C   0  0  0  0  0  0  0  0  0  0  0  0
  140.2920   71.4860  224.6000 N   0  0  0  0  0  0  0  0  0  0  0  0
  139.5570   73.6810  223.3130 H   0  0  0  0  0  0  0  0  0  0  0  0
  140.1071   73.5425  220.3660 H   0  0  0  0  0  0  0  0  0  0  0  0
  138.4287   74.0194  220.7786 H   0  0  0  0  0  0  0  0  0  0  0  0
  139.7756   74.9690  218.8923 H   0  0  0  0  0  0  0  0  0  0  0  0
  139.3285   76.7552  218.8558 H   0  0  0  0  0  0  0  0  0  0  0  0
  141.2163   75.3792  217.3265 H   0  0  0  0  0  0  0  0  0  0  0  0
  140.8056   77.1716  217.4300 H   0  0  0  0  0  0  0  0  0  0  0  0
  142.9974   75.6425  218.7623 H   0  0  0  0  0  0  0  0  0  0  0  0
  143.0403   77.1059  217.6619 H   0  0  0  0  0  0  0  0  0  0  0  0
  143.5554   77.5619  220.0531 H   0  0  0  0  0  0  0  0  0  0  0  0
  142.1616   78.4894  219.3206 H   0  0  0  0  0  0  0  0  0  0  0  0
  142.2845   76.4903  221.4349 H   0  0  0  0  0  0  0  0  0  0  0  0
  139.9584   78.2590  221.5461 H   0  0  0  0  0  0  0  0  0  0  0  0
  140.7588   77.3446  223.4479 H   0  0  0  0  0  0  0  0  0  0  0  0
  142.4995   77.7349  222.9756 H   0  0  0  0  0  0  0  0  0  0  0  0
  140.4246   79.7322  223.8916 H   0  0  0  0  0  0  0  0  0  0  0  0
  141.7412   79.1025  224.8814 H   0  0  0  0  0  0  0  0  0  0  0  0
  142.6137   81.1269  223.7930 H   0  0  0  0  0  0  0  0  0  0  0  0
  143.3567   79.8057  222.9095 H   0  0  0  0  0  0  0  0  0  0  0  0
  140.6566   81.1159  222.2450 H   0  0  0  0  0  0  0  0  0  0  0  0
  142.2415   81.4298  221.3941 H   0  0  0  0  0  0  0  0  0  0  0  0
  140.4855   79.8499  220.3448 H   0  0  0  0  0  0  0  0  0  0  0  0
  142.2820   79.4292  220.3950 H   0  0  0  0  0  0  0  0  0  0  0  0
  138.7876   69.3574  222.4906 H   0  0  0  0  0  0  0  0  0  0  0  0
  138.8819   67.8815  224.5159 H   0  0  0  0  0  0  0  0  0  0  0  0
  139.5218   67.6121  226.7877 H   0  0  0  0  0  0  0  0  0  0  0  0
  141.4401   70.7986  228.9143 H   0  0  0  0  0  0  0  0  0  0  0  0
  141.3206   72.2117  226.8930 H   0  0  0  0  0  0  0  0  0  0  0  0
  1  2  2  0
  2  3  1  0
  3  4  1  0
  4  5  1  0
  5  6  2  0
  5  7  1  0
  7  8  1  0
  8  9  1  0
  9 10  1  0
 10 11  1  0
 11 12  1  0
 12 13  1  0
 13 14  1  0
 14 15  1  0
 15 16  1  0
 16 17  1  0
 17 18  1  0
  2 19  1  0
 19 20  2  0
 20 21  1  0
 21 22  2  0
 22 23  1  0
 23 24  2  0
 24 25  1  0
 24 26  1  0
 26 27  2  0
 27 28  1  0
 28 29  2  0
 12  7  1  0
 18 13  1  0
 29 19  1  0
 28 22  1  0
  3 30  1  0
  4 31  1  0
  4 32  1  0
  8 33  1  0
  8 34  1  0
  9 35  1  0
  9 36  1  0
 10 37  1  0
 10 38  1  0
 11 39  1  0
 11 40  1  0
 12 41  1  1
 13 42  1  0
 14 43  1  0
 14 44  1  0
 15 45  1  0
 15 46  1  0
 16 47  1  0
 16 48  1  0
 17 49  1  0
 17 50  1  0
 18 51  1  0
 18 52  1  0
 20 53  1  0
 21 54  1  0
 23 55  1  0
 26 56  1  0
 27 57  1  0
M  END
>  <smiles>  (66) 
O=C(NCC(=O)N1CCCCC1C1CCCCC1)c1ccc2cc(F)ccc2n1

>  <score_type>  (66) 
oracle

>  <origin>  (66) 
autodockgpu

>  <m_score__min__energy>  (66) 
-9.0199999999999996

>  <m_primary>  (66) 
energy

>  <rmsd>  (66) 
1.274208538202138

>  <m_score__min__rmsd>  (66) 
1.274208538202138

>  <meeko>  (66) 
{"free_energy": -8.68, "intermolecular_energy": -10.17, "internal_energy": -1.87, "cluster_size": 24, "cluster_id": 1, "rank_in_cluster": 16}

>  <energy>  (66) 
-8.68

>  <cluster_rmsd>  (66) 
1.5

>  <cluster>  (66) 
1

$$$$

     RDKit          3D

 57 60  0  0  0  0  0  0  0  0999 V2000
  140.6990   71.4180  221.1560 O   0  0  0  0  0  0  0  0  0  0  0  0
  140.2740   71.9450  222.2250 C   0  0  0  0  0  0  0  0  0  0  0  0
  139.9210   73.3330  222.2260 N   0  0  0  0  0  0  0  0  0  0  0  0
  140.0780   74.0540  220.9790 C   0  0  0  0  0  0  0  0  0  0  0  0
  140.7850   75.3560  221.2500 C   0  0  0  0  0  0  0  0  0  0  0  0
  140.4470   75.9460  222.3040 O   0  0  0  0  0  0  0  0  0  0  0  0
  141.7660   75.8550  220.3460 N   0  0  0  0  0  0  0  0  0  0  0  0
  142.0230   77.2650  220.3140 C   0  0  0  0  0  0  0  0  0  0  0  0
  142.5110   77.7940  219.0130 C   0  0  0  0  0  0  0  0  0  0  0  0
  142.5790   76.7990  217.9030 C   0  0  0  0  0  0  0  0  0  0  0  0
  143.1200   75.4520  218.3140 C   0  0  0  0  0  0  0  0  0  0  0  0
  142.4400   74.8780  219.5130 C   0  0  1  0  0  0  0  0  0  0  0  0
  143.3750   73.9990  220.3560 C   0  0  0  0  0  0  0  0  0  0  0  0
  143.2500   72.6000  219.8650 C   0  0  0  0  0  0  0  0  0  0  0  0
  144.3940   71.6870  220.1910 C   0  0  0  0  0  0  0  0  0  0  0  0
  145.6100   72.3570  219.5840 C   0  0  0  0  0  0  0  0  0  0  0  0
  145.8550   73.5340  220.4920 C   0  0  0  0  0  0  0  0  0  0  0  0
  144.7410   74.5470  220.4740 C   0  0  0  0  0  0  0  0  0  0  0  0
  140.1290   71.1800  223.4670 C   0  0  0  0  0  0  0  0  0  0  0  0
  139.4330   69.9850  223.4010 C   0  0  0  0  0  0  0  0  0  0  0  0
  139.2520   69.2000  224.5390 C   0  0  0  0  0  0  0  0  0  0  0  0
  139.7960   69.6620  225.7290 C   0  0  0  0  0  0  0  0  0  0  0  0
  139.6390   68.9150  226.8690 C   0  0  0  0  0  0  0  0  0  0  0  0
  140.1600   69.3320  228.0720 C   0  0  0  0  0  0  0  0  0  0  0  0
  140.0270   68.6240  229.2170 F   0  0  0  0  0  0  0  0  0  0  0  0
  140.8530   70.5350  228.1030 C   0  0  0  0  0  0  0  0  0  0  0  0
  141.0110   71.2860  226.9550 C   0  0  0  0  0  0  0  0  0  0  0  0
  140.4850   70.8590  225.7590 C   0  0  0  0  0  0  0  0  0  0  0  0
  140.6420   71.5970  224.6340 N   0  0  0  0  0  0  0  0  0  0  0  0
  139.5710   73.7690  223.1060 H   0  0  0  0  0  0  0  0  0  0  0  0
  140.6724   73.4510  220.2768 H   0  0  0  0  0  0  0  0  0  0  0  0
  139.0900   74.2528  220.5382 H   0  0  0  0  0  0  0  0  0  0  0  0
  141.0870   77.7865  220.5630 H   0  0  0  0  0  0  0  0  0  0  0  0
  142.8330   77.4423  221.0368 H   0  0  0  0  0  0  0  0  0  0  0  0
  141.8358   78.6046  218.7014 H   0  0  0  0  0  0  0  0  0  0  0  0
  143.5456   78.1237  219.1885 H   0  0  0  0  0  0  0  0  0  0  0  0
  141.5636   76.6563  217.5046 H   0  0  0  0  0  0  0  0  0  0  0  0
  143.2761   77.2056  217.1555 H   0  0  0  0  0  0  0  0  0  0  0  0
  142.9918   74.7540  217.4735 H   0  0  0  0  0  0  0  0  0  0  0  0
  144.1778   75.5953  218.5794 H   0  0  0  0  0  0  0  0  0  0  0  0
  141.6507   74.2385  219.0911 H   0  0  0  0  0  0  0  0  0  0  0  0
  143.0681   73.9945  221.4123 H   0  0  0  0  0  0  0  0  0  0  0  0
  142.3386   72.1686  220.3047 H   0  0  0  0  0  0  0  0  0  0  0  0
  143.2287   72.6704  218.7675 H   0  0  0  0  0  0  0  0  0  0  0  0
  144.5107   71.5858  221.2801 H   0  0  0  0  0  0  0  0  0  0  0  0
  144.2398   70.6716  219.7970 H   0  0  0  0  0  0  0  0  0  0  0  0
  146.4738   71.6759  219.5818 H   0  0  0  0  0  0  0  0  0  0  0  0
  145.4577   72.6505  218.5349 H   0  0  0  0  0  0  0  0  0  0  0  0
  145.9712   73.1622  221.5207 H   0  0  0  0  0  0  0  0  0  0  0  0
  146.7604   74.0414  220.1277 H   0  0  0  0  0  0  0  0  0  0  0  0
  144.7937   75.1231  221.4096 H   0  0  0  0  0  0  0  0  0  0  0  0
  144.9002   75.1495  219.5675 H   0  0  0  0  0  0  0  0  0  0  0  0
  139.0177   69.6507  222.4388 H   0  0  0  0  0  0  0  0  0  0  0  0
  138.6988   68.2502  224.4951 H   0  0  0  0  0  0  0  0  0  0  0  0
  139.0864   67.9652  226.8202 H   0  0  0  0  0  0  0  0  0  0  0  0
  141.2802   70.8932  229.0513 H   0  0  0  0  0  0  0  0  0  0  0  0
  141.5637   72.2361  226.9981 H   0  0  0  0  0  0  0  0  0  0  0  0
  1  2  2  0
  2  3  1  0
  3  4  1  0
  4  5  1  0
  5  6  2  0
  5  7  1  0
  7  8  1  0
  8  9  1  0
  9 10  1  0
 10 11  1  0
 11 12  1  0
 12 13  1  0
 13 14  1  0
 14 15  1  0
 15 16  1  0
 16 17  1  0
 17 18  1  0
  2 19  1  0
 19 20  2  0
 20 21  1  0
 21 22  2  0
 22 23  1  0
 23 24  2  0
 24 25  1  0
 24 26  1  0
 26 27  2  0
 27 28  1  0
 28 29  2  0
 12  7  1  0
 18 13  1  0
 29 19  1  0
 28 22  1  0
  3 30  1  0
  4 31  1  0
  4 32  1  0
  8 33  1  0
  8 34  1  0
  9 35  1  0
  9 36  1  0
 10 37  1  0
 10 38  1  0
 11 39  1  0
 11 40  1  0
 12 41  1  6
 13 42  1  0
 14 43  1  0
 14 44  1  0
 15 45  1  0
 15 46  1  0
 16 47  1  0
 16 48  1  0
 17 49  1  0
 17 50  1  0
 18 51  1  0
 18 52  1  0
 20 53  1  0
 21 54  1  0
 23 55  1  0
 26 56  1  0
 27 57  1  0
M  END
>  <smiles>  (67) 
O=C(NCC(=O)N1CCCCC1C1CCCCC1)c1ccc2cc(F)ccc2n1

>  <score_type>  (67) 
oracle

>  <origin>  (67) 
autodockgpu

>  <m_score__min__energy>  (67) 
-9.0199999999999996

>  <m_primary>  (67) 
energy

>  <rmsd>  (67) 
2.316725275044526

>  <m_score__min__rmsd>  (67) 
2.316725275044526

>  <meeko>  (67) 
{"free_energy": -8.64, "intermolecular_energy": -10.14, "internal_energy": -2.07, "cluster_size": 24, "cluster_id": 2, "rank_in_cluster": 8}

>  <energy>  (67) 
-8.68

>  <cluster_rmsd>  (67) 
1.23

>  <cluster>  (67) 
1

$$$$

     RDKit          3D

 57 60  0  0  0  0  0  0  0  0999 V2000
  140.9210   71.8330  221.2290 O   0  0  0  0  0  0  0  0  0  0  0  0
  140.4000   72.3040  222.2820 C   0  0  0  0  0  0  0  0  0  0  0  0
  139.9680   73.6690  222.2950 N   0  0  0  0  0  0  0  0  0  0  0  0
  140.1590   74.4340  221.0800 C   0  0  0  0  0  0  0  0  0  0  0  0
  140.0290   75.9000  221.3970 C   0  0  0  0  0  0  0  0  0  0  0  0
  139.6080   76.1700  222.5470 O   0  0  0  0  0  0  0  0  0  0  0  0
  140.3710   76.8880  220.4300 N   0  0  0  0  0  0  0  0  0  0  0  0
  139.6420   76.9280  219.1960 C   0  0  0  0  0  0  0  0  0  0  0  0
  140.3900   77.4720  218.0320 C   0  0  0  0  0  0  0  0  0  0  0  0
  141.8190   77.8150  218.2920 C   0  0  0  0  0  0  0  0  0  0  0  0
  142.0560   78.5060  219.6130 C   0  0  0  0  0  0  0  0  0  0  0  0
  141.4510   77.7930  220.7760 C   0  0  1  0  0  0  0  0  0  0  0  0
  141.0170   78.7510  221.8950 C   0  0  0  0  0  0  0  0  0  0  0  0
  141.6960   78.3240  223.1480 C   0  0  0  0  0  0  0  0  0  0  0  0
  141.8130   79.3680  224.2180 C   0  0  0  0  0  0  0  0  0  0  0  0
  142.5700   80.5080  223.5660 C   0  0  0  0  0  0  0  0  0  0  0  0
  141.5580   81.1100  222.6240 C   0  0  0  0  0  0  0  0  0  0  0  0
  141.1370   80.1750  221.5220 C   0  0  0  0  0  0  0  0  0  0  0  0
  140.2230   71.4960  223.4920 C   0  0  0  0  0  0  0  0  0  0  0  0
  139.5560   70.2900  223.3600 C   0  0  0  0  0  0  0  0  0  0  0  0
  139.3470   69.4650  224.4640 C   0  0  0  0  0  0  0  0  0  0  0  0
  139.8340   69.8990  225.6900 C   0  0  0  0  0  0  0  0  0  0  0  0
  139.6480   69.1120  226.7980 C   0  0  0  0  0  0  0  0  0  0  0  0
  140.1130   69.5000  228.0330 C   0  0  0  0  0  0  0  0  0  0  0  0
  139.9500   68.7530  229.1490 F   0  0  0  0  0  0  0  0  0  0  0  0
  140.7780   70.7140  228.1300 C   0  0  0  0  0  0  0  0  0  0  0  0
  140.9650   71.5060  227.0140 C   0  0  0  0  0  0  0  0  0  0  0  0
  140.4960   71.1070  225.7850 C   0  0  0  0  0  0  0  0  0  0  0  0
  140.6800   71.8850  224.6910 N   0  0  0  0  0  0  0  0  0  0  0  0
  139.5370   74.0580  223.1620 H   0  0  0  0  0  0  0  0  0  0  0  0
  141.1602   74.2326  220.6712 H   0  0  0  0  0  0  0  0  0  0  0  0
  139.4005   74.1462  220.3371 H   0  0  0  0  0  0  0  0  0  0  0  0
  139.3325   75.9013  218.9510 H   0  0  0  0  0  0  0  0  0  0  0  0
  138.7994   77.6150  219.3633 H   0  0  0  0  0  0  0  0  0  0  0  0
  140.3622   76.7202  217.2295 H   0  0  0  0  0  0  0  0  0  0  0  0
  139.8945   78.4183  217.7692 H   0  0  0  0  0  0  0  0  0  0  0  0
  142.4056   76.8846  218.2786 H   0  0  0  0  0  0  0  0  0  0  0  0
  142.1242   78.5208  217.5054 H   0  0  0  0  0  0  0  0  0  0  0  0
  143.1412   78.5807  219.7768 H   0  0  0  0  0  0  0  0  0  0  0  0
  141.5737   79.4928  219.5525 H   0  0  0  0  0  0  0  0  0  0  0  0
  142.2692   77.1640  221.1566 H   0  0  0  0  0  0  0  0  0  0  0  0
  139.9347   78.6806  222.0784 H   0  0  0  0  0  0  0  0  0  0  0  0
  141.1325   77.4761  223.5646 H   0  0  0  0  0  0  0  0  0  0  0  0
  142.7282   78.0778  222.8582 H   0  0  0  0  0  0  0  0  0  0  0  0
  140.8169   79.7012  224.5448 H   0  0  0  0  0  0  0  0  0  0  0  0
  142.3255   78.9883  225.1142 H   0  0  0  0  0  0  0  0  0  0  0  0
  142.8952   81.2439  224.3162 H   0  0  0  0  0  0  0  0  0  0  0  0
  143.4864   80.1769  223.0555 H   0  0  0  0  0  0  0  0  0  0  0  0
  140.6659   81.3903  223.2033 H   0  0  0  0  0  0  0  0  0  0  0  0
  142.0346   81.9795  222.1478 H   0  0  0  0  0  0  0  0  0  0  0  0
  140.1569   80.5102  221.1517 H   0  0  0  0  0  0  0  0  0  0  0  0
  141.9396   80.2194  220.7711 H   0  0  0  0  0  0  0  0  0  0  0  0
  139.1864   69.9790  222.3717 H   0  0  0  0  0  0  0  0  0  0  0  0
  138.8163   68.5063  224.3677 H   0  0  0  0  0  0  0  0  0  0  0  0
  139.1176   68.1536  226.6971 H   0  0  0  0  0  0  0  0  0  0  0  0
  141.1601   71.0490  229.1056 H   0  0  0  0  0  0  0  0  0  0  0  0
  141.4944   72.4655  227.1096 H   0  0  0  0  0  0  0  0  0  0  0  0
  1  2  2  0
  2  3  1  0
  3  4  1  0
  4  5  1  0
  5  6  2  0
  5  7  1  0
  7  8  1  0
  8  9  1  0
  9 10  1  0
 10 11  1  0
 11 12  1  0
 12 13  1  0
 13 14  1  0
 14 15  1  0
 15 16  1  0
 16 17  1  0
 17 18  1  0
  2 19  1  0
 19 20  2  0
 20 21  1  0
 21 22  2  0
 22 23  1  0
 23 24  2  0
 24 25  1  0
 24 26  1  0
 26 27  2  0
 27 28  1  0
 28 29  2  0
 12  7  1  0
 18 13  1  0
 29 19  1  0
 28 22  1  0
  3 30  1  0
  4 31  1  0
  4 32  1  0
  8 33  1  0
  8 34  1  0
  9 35  1  0
  9 36  1  0
 10 37  1  0
 10 38  1  0
 11 39  1  0
 11 40  1  0
 12 41  1  1
 13 42  1  0
 14 43  1  0
 14 44  1  0
 15 45  1  0
 15 46  1  0
 16 47  1  0
 16 48  1  0
 17 49  1  0
 17 50  1  0
 18 51  1  0
 18 52  1  0
 20 53  1  0
 21 54  1  0
 23 55  1  0
 26 56  1  0
 27 57  1  0
M  END
>  <smiles>  (68) 
O=C(NCC(=O)N1CCCCC1C1CCCCC1)c1ccc2cc(F)ccc2n1

>  <score_type>  (68) 
oracle

>  <origin>  (68) 
autodockgpu

>  <m_score__min__energy>  (68) 
-9.0199999999999996

>  <m_primary>  (68) 
energy

>  <rmsd>  (68) 
1.7142517912022468

>  <m_score__min__rmsd>  (68) 
1.7142517912022468

>  <meeko>  (68) 
{"free_energy": -8.72, "intermolecular_energy": -10.21, "internal_energy": -1.95, "cluster_size": 24, "cluster_id": 1, "rank_in_cluster": 10}

>  <energy>  (68) 
-8.63

>  <cluster_rmsd>  (68) 
1.26

>  <cluster>  (68) 
1

$$$$

     RDKit          3D

 57 60  0  0  0  0  0  0  0  0999 V2000
  140.3820   71.6840  221.0730 O   0  0  0  0  0  0  0  0  0  0  0  0
  140.0890   72.1900  222.1950 C   0  0  0  0  0  0  0  0  0  0  0  0
  139.8180   73.5930  222.2790 N   0  0  0  0  0  0  0  0  0  0  0  0
  139.8990   74.3560  221.0490 C   0  0  0  0  0  0  0  0  0  0  0  0
  140.7120   75.6000  221.2950 C   0  0  0  0  0  0  0  0  0  0  0  0
  140.4500   76.2160  222.3560 O   0  0  0  0  0  0  0  0  0  0  0  0
  141.7030   76.0190  220.3630 N   0  0  0  0  0  0  0  0  0  0  0  0
  141.9790   77.4200  220.2320 C   0  0  0  0  0  0  0  0  0  0  0  0
  142.4800   77.8480  218.8990 C   0  0  0  0  0  0  0  0  0  0  0  0
  142.5380   76.7760  217.8620 C   0  0  0  0  0  0  0  0  0  0  0  0
  143.0590   75.4550  218.3710 C   0  0  0  0  0  0  0  0  0  0  0  0
  142.3670   74.9770  219.6040 C   0  0  1  0  0  0  0  0  0  0  0  0
  143.2860   74.1470  220.5130 C   0  0  0  0  0  0  0  0  0  0  0  0
  143.0110   72.7100  220.2480 C   0  0  0  0  0  0  0  0  0  0  0  0
  144.0980   71.7530  220.6380 C   0  0  0  0  0  0  0  0  0  0  0  0
  145.3160   72.2120  219.8630 C   0  0  0  0  0  0  0  0  0  0  0  0
  145.7240   73.4820  220.5660 C   0  0  0  0  0  0  0  0  0  0  0  0
  144.6980   74.5790  220.4630 C   0  0  0  0  0  0  0  0  0  0  0  0
  140.0160   71.3840  223.4170 C   0  0  0  0  0  0  0  0  0  0  0  0
  139.4920   70.1060  223.3060 C   0  0  0  0  0  0  0  0  0  0  0  0
  139.3890   69.2780  224.4220 C   0  0  0  0  0  0  0  0  0  0  0  0
  139.8310   69.7830  225.6380 C   0  0  0  0  0  0  0  0  0  0  0  0
  139.7460   68.9940  226.7580 C   0  0  0  0  0  0  0  0  0  0  0  0
  140.1700   69.4510  227.9840 C   0  0  0  0  0  0  0  0  0  0  0  0
  140.1030   68.7050  229.1110 F   0  0  0  0  0  0  0  0  0  0  0  0
  140.6900   70.7360  228.0600 C   0  0  0  0  0  0  0  0  0  0  0  0
  140.7750   71.5280  226.9320 C   0  0  0  0  0  0  0  0  0  0  0  0
  140.3480   71.0610  225.7130 C   0  0  0  0  0  0  0  0  0  0  0  0
  140.4330   71.8400  224.6070 N   0  0  0  0  0  0  0  0  0  0  0  0
  139.5750   74.0110  223.2030 H   0  0  0  0  0  0  0  0  0  0  0  0
  140.3817   73.7484  220.2694 H   0  0  0  0  0  0  0  0  0  0  0  0
  138.8876   74.6332  220.7168 H   0  0  0  0  0  0  0  0  0  0  0  0
  141.0490   77.9701  220.4380 H   0  0  0  0  0  0  0  0  0  0  0  0
  142.7878   77.6382  220.9449 H   0  0  0  0  0  0  0  0  0  0  0  0
  141.8181   78.6441  218.5274 H   0  0  0  0  0  0  0  0  0  0  0  0
  143.5188   78.1739  219.0562 H   0  0  0  0  0  0  0  0  0  0  0  0
  141.5222   76.6190  217.4701 H   0  0  0  0  0  0  0  0  0  0  0  0
  143.2426   77.1189  217.0900 H   0  0  0  0  0  0  0  0  0  0  0  0
  142.9249   74.7005  217.5819 H   0  0  0  0  0  0  0  0  0  0  0  0
  144.1175   75.6033  218.6311 H   0  0  0  0  0  0  0  0  0  0  0  0
  141.5711   74.3201  219.2231 H   0  0  0  0  0  0  0  0  0  0  0  0
  143.0582   74.3236  221.5746 H   0  0  0  0  0  0  0  0  0  0  0  0
  142.1026   72.4327  220.8028 H   0  0  0  0  0  0  0  0  0  0  0  0
  142.9139   72.6216  219.1559 H   0  0  0  0  0  0  0  0  0  0  0  0
  144.2868   71.8017  221.7206 H   0  0  0  0  0  0  0  0  0  0  0  0
  143.8323   70.7096  220.4129 H   0  0  0  0  0  0  0  0  0  0  0  0
  146.1183   71.4611  219.9111 H   0  0  0  0  0  0  0  0  0  0  0  0
  145.1107   72.3622  218.7928 H   0  0  0  0  0  0  0  0  0  0  0  0
  145.8859   73.2549  221.6300 H   0  0  0  0  0  0  0  0  0  0  0  0
  146.6384   73.8457  220.0744 H   0  0  0  0  0  0  0  0  0  0  0  0
  144.8666   75.2778  221.2956 H   0  0  0  0  0  0  0  0  0  0  0  0
  144.8381   75.0259  219.4677 H   0  0  0  0  0  0  0  0  0  0  0  0
  139.1533   69.7408  222.3252 H   0  0  0  0  0  0  0  0  0  0  0  0
  138.9733   68.2626  224.3429 H   0  0  0  0  0  0  0  0  0  0  0  0
  139.3316   67.9786  226.6735 H   0  0  0  0  0  0  0  0  0  0  0  0
  141.0375   71.1269  229.0277 H   0  0  0  0  0  0  0  0  0  0  0  0
  141.1892   72.5440  227.0106 H   0  0  0  0  0  0  0  0  0  0  0  0
  1  2  2  0
  2  3  1  0
  3  4  1  0
  4  5  1  0
  5  6  2  0
  5  7  1  0
  7  8  1  0
  8  9  1  0
  9 10  1  0
 10 11  1  0
 11 12  1  0
 12 13  1  0
 13 14  1  0
 14 15  1  0
 15 16  1  0
 16 17  1  0
 17 18  1  0
  2 19  1  0
 19 20  2  0
 20 21  1  0
 21 22  2  0
 22 23  1  0
 23 24  2  0
 24 25  1  0
 24 26  1  0
 26 27  2  0
 27 28  1  0
 28 29  2  0
 12  7  1  0
 18 13  1  0
 29 19  1  0
 28 22  1  0
  3 30  1  0
  4 31  1  0
  4 32  1  0
  8 33  1  0
  8 34  1  0
  9 35  1  0
  9 36  1  0
 10 37  1  0
 10 38  1  0
 11 39  1  0
 11 40  1  0
 12 41  1  6
 13 42  1  0
 14 43  1  0
 14 44  1  0
 15 45  1  0
 15 46  1  0
 16 47  1  0
 16 48  1  0
 17 49  1  0
 17 50  1  0
 18 51  1  0
 18 52  1  0
 20 53  1  0
 21 54  1  0
 23 55  1  0
 26 56  1  0
 27 57  1  0
M  END
>  <smiles>  (69) 
O=C(NCC(=O)N1CCCCC1C1CCCCC1)c1ccc2cc(F)ccc2n1

>  <score_type>  (69) 
oracle

>  <origin>  (69) 
autodockgpu

>  <m_score__min__energy>  (69) 
-9.0199999999999996

>  <m_primary>  (69) 
energy

>  <rmsd>  (69) 
2.291526248390061

>  <m_score__min__rmsd>  (69) 
2.291526248390061

>  <meeko>  (69) 
{"free_energy": -8.61, "intermolecular_energy": -10.1, "internal_energy": -2.13, "cluster_size": 24, "cluster_id": 2, "rank_in_cluster": 16}

>  <energy>  (69) 
-8.6

>  <cluster_rmsd>  (69) 
1.39

>  <cluster>  (69) 
1

$$$$

     RDKit          3D

 57 60  0  0  0  0  0  0  0  0999 V2000
  141.3430   72.5240  221.8110 O   0  0  0  0  0  0  0  0  0  0  0  0
  140.3370   72.4880  222.5780 C   0  0  0  0  0  0  0  0  0  0  0  0
  139.2530   73.3940  222.3500 N   0  0  0  0  0  0  0  0  0  0  0  0
  139.3820   74.3100  221.2340 C   0  0  0  0  0  0  0  0  0  0  0  0
  140.0930   75.5540  221.7000 C   0  0  0  0  0  0  0  0  0  0  0  0
  141.3210   75.4260  221.9170 O   0  0  0  0  0  0  0  0  0  0  0  0
  139.3840   76.7770  221.8730 N   0  0  0  0  0  0  0  0  0  0  0  0
  138.2020   76.7810  222.6850 C   0  0  0  0  0  0  0  0  0  0  0  0
  137.1920   77.8140  222.3340 C   0  0  0  0  0  0  0  0  0  0  0  0
  137.5110   78.6390  221.1320 C   0  0  0  0  0  0  0  0  0  0  0  0
  138.9550   79.0690  221.0460 C   0  0  0  0  0  0  0  0  0  0  0  0
  139.9220   77.9430  221.2000 C   0  0  1  0  0  0  0  0  0  0  0  0
  141.2410   78.3840  221.8520 C   0  0  0  0  0  0  0  0  0  0  0  0
  141.6220   79.6970  221.2650 C   0  0  0  0  0  0  0  0  0  0  0  0
  142.5710   80.5260  222.0770 C   0  0  0  0  0  0  0  0  0  0  0  0
  141.8750   80.7200  223.4090 C   0  0  0  0  0  0  0  0  0  0  0  0
  141.9760   79.3650  224.0620 C   0  0  0  0  0  0  0  0  0  0  0  0
  141.2230   78.2890  223.3250 C   0  0  0  0  0  0  0  0  0  0  0  0
  140.2450   71.5450  223.6960 C   0  0  0  0  0  0  0  0  0  0  0  0
  139.6510   70.3180  223.4470 C   0  0  0  0  0  0  0  0  0  0  0  0
  139.5260   69.3670  224.4590 C   0  0  0  0  0  0  0  0  0  0  0  0
  140.0180   69.6980  225.7140 C   0  0  0  0  0  0  0  0  0  0  0  0
  139.9120   68.7860  226.7340 C   0  0  0  0  0  0  0  0  0  0  0  0
  140.3850   69.0690  227.9940 C   0  0  0  0  0  0  0  0  0  0  0  0
  140.3000   68.1970  229.0250 F   0  0  0  0  0  0  0  0  0  0  0  0
  140.9750   70.3070  228.2090 C   0  0  0  0  0  0  0  0  0  0  0  0
  141.0800   71.2240  227.1820 C   0  0  0  0  0  0  0  0  0  0  0  0
  140.6040   70.9300  225.9270 C   0  0  0  0  0  0  0  0  0  0  0  0
  140.7090   71.8310  224.9210 N   0  0  0  0  0  0  0  0  0  0  0  0
  138.4230   73.3650  222.9810 H   0  0  0  0  0  0  0  0  0  0  0  0
  139.9621   73.8328  220.4304 H   0  0  0  0  0  0  0  0  0  0  0  0
  138.3846   74.5731  220.8520 H   0  0  0  0  0  0  0  0  0  0  0  0
  137.7243   75.7943  222.5942 H   0  0  0  0  0  0  0  0  0  0  0  0
  138.5359   77.0175  223.7061 H   0  0  0  0  0  0  0  0  0  0  0  0
  136.2346   77.3042  222.1513 H   0  0  0  0  0  0  0  0  0  0  0  0
  137.1658   78.5130  223.1830 H   0  0  0  0  0  0  0  0  0  0  0  0
  137.2721   78.0492  220.2348 H   0  0  0  0  0  0  0  0  0  0  0  0
  136.9104   79.5573  221.2088 H   0  0  0  0  0  0  0  0  0  0  0  0
  139.1206   79.5384  220.0650 H   0  0  0  0  0  0  0  0  0  0  0  0
  139.1350   79.7658  221.8779 H   0  0  0  0  0  0  0  0  0  0  0  0
  140.1330   77.6306  220.1666 H   0  0  0  0  0  0  0  0  0  0  0  0
  142.0540   77.6818  221.6155 H   0  0  0  0  0  0  0  0  0  0  0  0
  142.0914   79.5063  220.2887 H   0  0  0  0  0  0  0  0  0  0  0  0
  140.6907   80.2796  221.2087 H   0  0  0  0  0  0  0  0  0  0  0  0
  143.5270   79.9991  222.2127 H   0  0  0  0  0  0  0  0  0  0  0  0
  142.8074   81.4832  221.5892 H   0  0  0  0  0  0  0  0  0  0  0  0
  142.3861   81.4854  224.0114 H   0  0  0  0  0  0  0  0  0  0  0  0
  140.8366   81.0669  223.3023 H   0  0  0  0  0  0  0  0  0  0  0  0
  143.0370   79.0786  224.1088 H   0  0  0  0  0  0  0  0  0  0  0  0
  141.5245   79.4514  225.0613 H   0  0  0  0  0  0  0  0  0  0  0  0
  141.6597   77.3192  223.6057 H   0  0  0  0  0  0  0  0  0  0  0  0
  140.1696   78.4081  223.6185 H   0  0  0  0  0  0  0  0  0  0  0  0
  139.2736   70.0916  222.4389 H   0  0  0  0  0  0  0  0  0  0  0  0
  139.0551   68.3910  224.2699 H   0  0  0  0  0  0  0  0  0  0  0  0
  139.4403   67.8113  226.5403 H   0  0  0  0  0  0  0  0  0  0  0  0
  141.3626   70.5599  229.2069 H   0  0  0  0  0  0  0  0  0  0  0  0
  141.5498   72.2006  227.3706 H   0  0  0  0  0  0  0  0  0  0  0  0
  1  2  2  0
  2  3  1  0
  3  4  1  0
  4  5  1  0
  5  6  2  0
  5  7  1  0
  7  8  1  0
  8  9  1  0
  9 10  1  0
 10 11  1  0
 11 12  1  0
 12 13  1  0
 13 14  1  0
 14 15  1  0
 15 16  1  0
 16 17  1  0
 17 18  1  0
  2 19  1  0
 19 20  2  0
 20 21  1  0
 21 22  2  0
 22 23  1  0
 23 24  2  0
 24 25  1  0
 24 26  1  0
 26 27  2  0
 27 28  1  0
 28 29  2  0
 12  7  1  0
 18 13  1  0
 29 19  1  0
 28 22  1  0
  3 30  1  0
  4 31  1  0
  4 32  1  0
  8 33  1  0
  8 34  1  0
  9 35  1  0
  9 36  1  0
 10 37  1  0
 10 38  1  0
 11 39  1  0
 11 40  1  0
 12 41  1  6
 13 42  1  0
 14 43  1  0
 14 44  1  0
 15 45  1  0
 15 46  1  0
 16 47  1  0
 16 48  1  0
 17 49  1  0
 17 50  1  0
 18 51  1  0
 18 52  1  0
 20 53  1  0
 21 54  1  0
 23 55  1  0
 26 56  1  0
 27 57  1  0
M  END
>  <smiles>  (70) 
O=C(NCC(=O)N1CCCCC1C1CCCCC1)c1ccc2cc(F)ccc2n1

>  <score_type>  (70) 
oracle

>  <origin>  (70) 
autodockgpu

>  <m_score__min__energy>  (70) 
-9.0199999999999996

>  <m_primary>  (70) 
energy

>  <rmsd>  (70) 
2.82212455494254

>  <m_score__min__rmsd>  (70) 
2.82212455494254

>  <meeko>  (70) 
{"free_energy": -9.02, "intermolecular_energy": -10.51, "internal_energy": -1.41, "cluster_size": 24, "cluster_id": 1, "rank_in_cluster": 1}

>  <energy>  (70) 
-8.57

>  <cluster_rmsd>  (70) 
1.37

>  <cluster>  (70) 
1

$$$$

     RDKit          3D

 57 60  0  0  0  0  0  0  0  0999 V2000
  140.3800   71.6990  221.1000 O   0  0  0  0  0  0  0  0  0  0  0  0
  140.0950   72.1860  222.2330 C   0  0  0  0  0  0  0  0  0  0  0  0
  139.8030   73.5830  222.3380 N   0  0  0  0  0  0  0  0  0  0  0  0
  139.8560   74.3620  221.1170 C   0  0  0  0  0  0  0  0  0  0  0  0
  140.0290   75.8160  221.4700 C   0  0  0  0  0  0  0  0  0  0  0  0
  139.8020   76.1140  222.6660 O   0  0  0  0  0  0  0  0  0  0  0  0
  140.4240   76.7630  220.4820 N   0  0  0  0  0  0  0  0  0  0  0  0
  139.7380   76.7760  219.2230 C   0  0  0  0  0  0  0  0  0  0  0  0
  140.5360   77.2640  218.0680 C   0  0  0  0  0  0  0  0  0  0  0  0
  141.9630   77.5850  218.3650 C   0  0  0  0  0  0  0  0  0  0  0  0
  142.1710   78.3150  219.6680 C   0  0  0  0  0  0  0  0  0  0  0  0
  141.5120   77.6550  220.8330 C   0  0  1  0  0  0  0  0  0  0  0  0
  141.0640   78.6600  221.9050 C   0  0  0  0  0  0  0  0  0  0  0  0
  141.7080   78.2730  223.1890 C   0  0  0  0  0  0  0  0  0  0  0  0
  141.8120   79.3560  224.2210 C   0  0  0  0  0  0  0  0  0  0  0  0
  142.5970   80.4620  223.5460 C   0  0  0  0  0  0  0  0  0  0  0  0
  141.6160   81.0390  222.5570 C   0  0  0  0  0  0  0  0  0  0  0  0
  141.2100   80.0670  221.4810 C   0  0  0  0  0  0  0  0  0  0  0  0
  140.0520   71.3630  223.4450 C   0  0  0  0  0  0  0  0  0  0  0  0
  139.5450   70.0800  223.3260 C   0  0  0  0  0  0  0  0  0  0  0  0
  139.4710   69.2360  224.4330 C   0  0  0  0  0  0  0  0  0  0  0  0
  139.9230   69.7310  225.6480 C   0  0  0  0  0  0  0  0  0  0  0  0
  139.8660   68.9280  226.7590 C   0  0  0  0  0  0  0  0  0  0  0  0
  140.3030   69.3750  227.9850 C   0  0  0  0  0  0  0  0  0  0  0  0
  140.2630   68.6140  229.1030 F   0  0  0  0  0  0  0  0  0  0  0  0
  140.8050   70.6670  228.0690 C   0  0  0  0  0  0  0  0  0  0  0  0
  140.8620   71.4740  226.9500 C   0  0  0  0  0  0  0  0  0  0  0  0
  140.4230   71.0160  225.7310 C   0  0  0  0  0  0  0  0  0  0  0  0
  140.4800   71.8100  224.6350 N   0  0  0  0  0  0  0  0  0  0  0  0
  139.5670   73.9850  223.2710 H   0  0  0  0  0  0  0  0  0  0  0  0
  140.7054   74.0280  220.5030 H   0  0  0  0  0  0  0  0  0  0  0  0
  138.9241   74.2259  220.5487 H   0  0  0  0  0  0  0  0  0  0  0  0
  139.4144   75.7481  219.0021 H   0  0  0  0  0  0  0  0  0  0  0  0
  138.9057   77.4859  219.3383 H   0  0  0  0  0  0  0  0  0  0  0  0
  140.5180   76.4862  217.2904 H   0  0  0  0  0  0  0  0  0  0  0  0
  140.0709   78.2112  217.7572 H   0  0  0  0  0  0  0  0  0  0  0  0
  142.5286   76.6423  218.4030 H   0  0  0  0  0  0  0  0  0  0  0  0
  142.3102   78.2566  217.5660 H   0  0  0  0  0  0  0  0  0  0  0  0
  143.2515   78.3725  219.8660 H   0  0  0  0  0  0  0  0  0  0  0  0
  141.7130   79.3091  219.5581 H   0  0  0  0  0  0  0  0  0  0  0  0
  142.3027   77.0211  221.2608 H   0  0  0  0  0  0  0  0  0  0  0  0
  139.9770   78.6093  222.0659 H   0  0  0  0  0  0  0  0  0  0  0  0
  141.1246   77.4479  223.6236 H   0  0  0  0  0  0  0  0  0  0  0  0
  142.7436   78.0039  222.9339 H   0  0  0  0  0  0  0  0  0  0  0  0
  140.8124   79.7120  224.5108 H   0  0  0  0  0  0  0  0  0  0  0  0
  142.2991   79.0049  225.1427 H   0  0  0  0  0  0  0  0  0  0  0  0
  142.9120   81.2221  224.2760 H   0  0  0  0  0  0  0  0  0  0  0  0
  143.5215   80.1019  223.0711 H   0  0  0  0  0  0  0  0  0  0  0  0
  140.7137   81.3518  223.1029 H   0  0  0  0  0  0  0  0  0  0  0  0
  142.1150   81.8839  222.0599 H   0  0  0  0  0  0  0  0  0  0  0  0
  140.2432   80.3986  221.0745 H   0  0  0  0  0  0  0  0  0  0  0  0
  142.0306   80.0737  220.7485 H   0  0  0  0  0  0  0  0  0  0  0  0
  139.1963   69.7224  222.3459 H   0  0  0  0  0  0  0  0  0  0  0  0
  139.0693   68.2156  224.3466 H   0  0  0  0  0  0  0  0  0  0  0  0
  139.4636   67.9083  226.6681 H   0  0  0  0  0  0  0  0  0  0  0  0
  141.1607   71.0513  229.0364 H   0  0  0  0  0  0  0  0  0  0  0  0
  141.2632   72.4947  227.0353 H   0  0  0  0  0  0  0  0  0  0  0  0
  1  2  2  0
  2  3  1  0
  3  4  1  0
  4  5  1  0
  5  6  2  0
  5  7  1  0
  7  8  1  0
  8  9  1  0
  9 10  1  0
 10 11  1  0
 11 12  1  0
 12 13  1  0
 13 14  1  0
 14 15  1  0
 15 16  1  0
 16 17  1  0
 17 18  1  0
  2 19  1  0
 19 20  2  0
 20 21  1  0
 21 22  2  0
 22 23  1  0
 23 24  2  0
 24 25  1  0
 24 26  1  0
 26 27  2  0
 27 28  1  0
 28 29  2  0
 12  7  1  0
 18 13  1  0
 29 19  1  0
 28 22  1  0
  3 30  1  0
  4 31  1  0
  4 32  1  0
  8 33  1  0
  8 34  1  0
  9 35  1  0
  9 36  1  0
 10 37  1  0
 10 38  1  0
 11 39  1  0
 11 40  1  0
 12 41  1  1
 13 42  1  0
 14 43  1  0
 14 44  1  0
 15 45  1  0
 15 46  1  0
 16 47  1  0
 16 48  1  0
 17 49  1  0
 17 50  1  0
 18 51  1  0
 18 52  1  0
 20 53  1  0
 21 54  1  0
 23 55  1  0
 26 56  1  0
 27 57  1  0
M  END
>  <smiles>  (71) 
O=C(NCC(=O)N1CCCCC1C1CCCCC1)c1ccc2cc(F)ccc2n1

>  <score_type>  (71) 
oracle

>  <origin>  (71) 
autodockgpu

>  <m_score__min__energy>  (71) 
-9.0199999999999996

>  <m_primary>  (71) 
energy

>  <rmsd>  (71) 
1.5625216825649928

>  <m_score__min__rmsd>  (71) 
1.5625216825649928

>  <meeko>  (71) 
{"free_energy": -8.7, "intermolecular_energy": -10.19, "internal_energy": -1.96, "cluster_size": 24, "cluster_id": 1, "rank_in_cluster": 12}

>  <energy>  (71) 
-8.57

>  <cluster_rmsd>  (71) 
1.46

>  <cluster>  (71) 
1

$$$$

     RDKit          3D

 57 60  0  0  0  0  0  0  0  0999 V2000
  141.1610   72.9570  222.1460 O   0  0  0  0  0  0  0  0  0  0  0  0
  140.0820   72.6660  222.7410 C   0  0  0  0  0  0  0  0  0  0  0  0
  138.8720   73.3230  222.3510 N   0  0  0  0  0  0  0  0  0  0  0  0
  138.9640   74.2970  221.2820 C   0  0  0  0  0  0  0  0  0  0  0  0
  138.1420   75.5050  221.6460 C   0  0  0  0  0  0  0  0  0  0  0  0
  137.2830   75.3260  222.5410 O   0  0  0  0  0  0  0  0  0  0  0  0
  138.3530   76.7530  220.9930 N   0  0  0  0  0  0  0  0  0  0  0  0
  137.2480   77.3820  220.3310 C   0  0  0  0  0  0  0  0  0  0  0  0
  137.6080   78.2600  219.1860 C   0  0  0  0  0  0  0  0  0  0  0  0
  139.0580   78.2920  218.8340 C   0  0  0  0  0  0  0  0  0  0  0  0
  139.9800   78.3480  220.0270 C   0  0  0  0  0  0  0  0  0  0  0  0
  139.6950   77.3000  221.0510 C   0  0  1  0  0  0  0  0  0  0  0  0
  140.0320   77.7610  222.4770 C   0  0  0  0  0  0  0  0  0  0  0  0
  141.4430   78.2320  222.4810 C   0  0  0  0  0  0  0  0  0  0  0  0
  141.8200   79.1580  223.5980 C   0  0  0  0  0  0  0  0  0  0  0  0
  140.8680   80.3300  223.4690 C   0  0  0  0  0  0  0  0  0  0  0  0
  139.5500   79.7670  223.9350 C   0  0  0  0  0  0  0  0  0  0  0  0
  139.0200   78.6720  223.0490 C   0  0  0  0  0  0  0  0  0  0  0  0
  140.0310   71.6740  223.8180 C   0  0  0  0  0  0  0  0  0  0  0  0
  139.3850   70.4780  223.5530 C   0  0  0  0  0  0  0  0  0  0  0  0
  139.2940   69.4840  224.5260 C   0  0  0  0  0  0  0  0  0  0  0  0
  139.8740   69.7410  225.7610 C   0  0  0  0  0  0  0  0  0  0  0  0
  139.8040   68.7850  226.7420 C   0  0  0  0  0  0  0  0  0  0  0  0
  140.3640   68.9940  227.9810 C   0  0  0  0  0  0  0  0  0  0  0  0
  140.3170   68.0770  228.9750 F   0  0  0  0  0  0  0  0  0  0  0  0
  141.0050   70.2030  228.2140 C   0  0  0  0  0  0  0  0  0  0  0  0
  141.0740   71.1650  227.2250 C   0  0  0  0  0  0  0  0  0  0  0  0
  140.5110   70.9440  225.9910 C   0  0  0  0  0  0  0  0  0  0  0  0
  140.5800   71.8890  225.0230 N   0  0  0  0  0  0  0  0  0  0  0  0
  137.9820   73.0840  222.8400 H   0  0  0  0  0  0  0  0  0  0  0  0
  140.0141   74.5939  221.1432 H   0  0  0  0  0  0  0  0  0  0  0  0
  138.5856   73.8586  220.3468 H   0  0  0  0  0  0  0  0  0  0  0  0
  136.5818   76.5911  219.9561 H   0  0  0  0  0  0  0  0  0  0  0  0
  136.7781   78.0367  221.0797 H   0  0  0  0  0  0  0  0  0  0  0  0
  137.0522   77.9111  218.3032 H   0  0  0  0  0  0  0  0  0  0  0  0
  137.3491   79.2832  219.4960 H   0  0  0  0  0  0  0  0  0  0  0  0
  139.2937   77.3853  218.2574 H   0  0  0  0  0  0  0  0  0  0  0  0
  139.2250   79.2155  218.2602 H   0  0  0  0  0  0  0  0  0  0  0  0
  141.0137   78.2178  219.6742 H   0  0  0  0  0  0  0  0  0  0  0  0
  139.8233   79.3234  220.5108 H   0  0  0  0  0  0  0  0  0  0  0  0
  140.3736   76.4764  220.7844 H   0  0  0  0  0  0  0  0  0  0  0  0
  139.9739   76.9240  223.1884 H   0  0  0  0  0  0  0  0  0  0  0  0
  142.0937   77.3472  222.5423 H   0  0  0  0  0  0  0  0  0  0  0  0
  141.5652   78.8151  221.5563 H   0  0  0  0  0  0  0  0  0  0  0  0
  141.6938   78.6619  224.5716 H   0  0  0  0  0  0  0  0  0  0  0  0
  142.8730   79.4707  223.5399 H   0  0  0  0  0  0  0  0  0  0  0  0
  141.1859   81.1668  224.1083 H   0  0  0  0  0  0  0  0  0  0  0  0
  140.8233   80.7346  222.4471 H   0  0  0  0  0  0  0  0  0  0  0  0
  139.6832   79.3613  224.9487 H   0  0  0  0  0  0  0  0  0  0  0  0
  138.8188   80.5884  223.9082 H   0  0  0  0  0  0  0  0  0  0  0  0
  138.3188   78.0672  223.6428 H   0  0  0  0  0  0  0  0  0  0  0  0
  138.5568   79.1805  222.1905 H   0  0  0  0  0  0  0  0  0  0  0  0
  138.9380   70.3103  222.5620 H   0  0  0  0  0  0  0  0  0  0  0  0
  138.7820   68.5318  224.3230 H   0  0  0  0  0  0  0  0  0  0  0  0
  139.2910   67.8344  226.5344 H   0  0  0  0  0  0  0  0  0  0  0  0
  141.4624   70.3969  229.1955 H   0  0  0  0  0  0  0  0  0  0  0  0
  141.5849   72.1179  227.4273 H   0  0  0  0  0  0  0  0  0  0  0  0
  1  2  2  0
  2  3  1  0
  3  4  1  0
  4  5  1  0
  5  6  2  0
  5  7  1  0
  7  8  1  0
  8  9  1  0
  9 10  1  0
 10 11  1  0
 11 12  1  0
 12 13  1  0
 13 14  1  0
 14 15  1  0
 15 16  1  0
 16 17  1  0
 17 18  1  0
  2 19  1  0
 19 20  2  0
 20 21  1  0
 21 22  2  0
 22 23  1  0
 23 24  2  0
 24 25  1  0
 24 26  1  0
 26 27  2  0
 27 28  1  0
 28 29  2  0
 12  7  1  0
 18 13  1  0
 29 19  1  0
 28 22  1  0
  3 30  1  0
  4 31  1  0
  4 32  1  0
  8 33  1  0
  8 34  1  0
  9 35  1  0
  9 36  1  0
 10 37  1  0
 10 38  1  0
 11 39  1  0
 11 40  1  0
 12 41  1  6
 13 42  1  0
 14 43  1  0
 14 44  1  0
 15 45  1  0
 15 46  1  0
 16 47  1  0
 16 48  1  0
 17 49  1  0
 17 50  1  0
 18 51  1  0
 18 52  1  0
 20 53  1  0
 21 54  1  0
 23 55  1  0
 26 56  1  0
 27 57  1  0
M  END
>  <smiles>  (72) 
O=C(NCC(=O)N1CCCCC1C1CCCCC1)c1ccc2cc(F)ccc2n1

>  <score_type>  (72) 
oracle

>  <origin>  (72) 
autodockgpu

>  <m_score__min__energy>  (72) 
-9.0199999999999996

>  <m_primary>  (72) 
energy

>  <rmsd>  (72) 
2.20117326535591

>  <m_score__min__rmsd>  (72) 
2.20117326535591

>  <meeko>  (72) 
{"free_energy": -7.81, "intermolecular_energy": -9.3, "internal_energy": -1.85, "cluster_size": 24, "cluster_id": 1, "rank_in_cluster": 24}

>  <energy>  (72) 
-8.46

>  <cluster_rmsd>  (72) 
1.72

>  <cluster>  (72) 
1

$$$$

     RDKit          3D

 57 60  0  0  0  0  0  0  0  0999 V2000
  140.4780   71.4310  221.1070 O   0  0  0  0  0  0  0  0  0  0  0  0
  140.1390   71.9490  222.2110 C   0  0  0  0  0  0  0  0  0  0  0  0
  139.8530   73.3500  222.2660 N   0  0  0  0  0  0  0  0  0  0  0  0
  139.9740   74.0980  221.0300 C   0  0  0  0  0  0  0  0  0  0  0  0
  140.6470   75.4140  221.3170 C   0  0  0  0  0  0  0  0  0  0  0  0
  140.2790   75.9940  222.3660 O   0  0  0  0  0  0  0  0  0  0  0  0
  141.6330   75.9360  220.4310 N   0  0  0  0  0  0  0  0  0  0  0  0
  141.8540   77.3520  220.4010 C   0  0  0  0  0  0  0  0  0  0  0  0
  142.3540   77.8910  219.1080 C   0  0  0  0  0  0  0  0  0  0  0  0
  142.4690   76.8960  218.0010 C   0  0  0  0  0  0  0  0  0  0  0  0
  143.0360   75.5640  218.4270 C   0  0  0  0  0  0  0  0  0  0  0  0
  142.3480   74.9750  219.6130 C   0  0  1  0  0  0  0  0  0  0  0  0
  143.2880   74.1210  220.4770 C   0  0  0  0  0  0  0  0  0  0  0  0
  143.0480   72.6930  220.1360 C   0  0  0  0  0  0  0  0  0  0  0  0
  144.1580   71.7440  220.4750 C   0  0  0  0  0  0  0  0  0  0  0  0
  145.3640   72.2730  219.7260 C   0  0  0  0  0  0  0  0  0  0  0  0
  145.7410   73.5140  220.4960 C   0  0  0  0  0  0  0  0  0  0  0  0
  144.6890   74.5890  220.4500 C   0  0  0  0  0  0  0  0  0  0  0  0
  140.0280   71.1570  223.4390 C   0  0  0  0  0  0  0  0  0  0  0  0
  139.4160   69.9180  223.3460 C   0  0  0  0  0  0  0  0  0  0  0  0
  139.2720   69.1060  224.4690 C   0  0  0  0  0  0  0  0  0  0  0  0
  139.7650   69.5870  225.6750 C   0  0  0  0  0  0  0  0  0  0  0  0
  139.6410   68.8130  226.8020 C   0  0  0  0  0  0  0  0  0  0  0  0
  140.1140   69.2480  228.0190 C   0  0  0  0  0  0  0  0  0  0  0  0
  140.0120   68.5160  229.1520 F   0  0  0  0  0  0  0  0  0  0  0  0
  140.7220   70.4940  228.0770 C   0  0  0  0  0  0  0  0  0  0  0  0
  140.8460   71.2710  226.9430 C   0  0  0  0  0  0  0  0  0  0  0  0
  140.3700   70.8270  225.7330 C   0  0  0  0  0  0  0  0  0  0  0  0
  140.4930   71.5910  224.6200 N   0  0  0  0  0  0  0  0  0  0  0  0
  139.5730   73.7770  223.1760 H   0  0  0  0  0  0  0  0  0  0  0  0
  140.5765   73.5251  220.3097 H   0  0  0  0  0  0  0  0  0  0  0  0
  138.9755   74.2764  220.6044 H   0  0  0  0  0  0  0  0  0  0  0  0
  140.9001   77.8496  220.6303 H   0  0  0  0  0  0  0  0  0  0  0  0
  142.6445   77.5517  221.1394 H   0  0  0  0  0  0  0  0  0  0  0  0
  141.6648   78.6837  218.7815 H   0  0  0  0  0  0  0  0  0  0  0  0
  143.3764   78.2468  219.3031 H   0  0  0  0  0  0  0  0  0  0  0  0
  141.4657   76.7267  217.5830 H   0  0  0  0  0  0  0  0  0  0  0  0
  143.1695   77.3187  217.2658 H   0  0  0  0  0  0  0  0  0  0  0  0
  142.9428   74.8611  217.5860 H   0  0  0  0  0  0  0  0  0  0  0  0
  144.0840   75.7357  218.7137 H   0  0  0  0  0  0  0  0  0  0  0  0
  141.5842   74.3149  219.1762 H   0  0  0  0  0  0  0  0  0  0  0  0
  143.0569   74.2361  221.5463 H   0  0  0  0  0  0  0  0  0  0  0  0
  142.1471   72.3645  220.6750 H   0  0  0  0  0  0  0  0  0  0  0  0
  142.9521   72.6603  219.0407 H   0  0  0  0  0  0  0  0  0  0  0  0
  144.3465   71.7399  221.5587 H   0  0  0  0  0  0  0  0  0  0  0  0
  143.9176   70.7078  220.1947 H   0  0  0  0  0  0  0  0  0  0  0  0
  146.1846   71.5405  219.7348 H   0  0  0  0  0  0  0  0  0  0  0  0
  145.1546   72.4745  218.6651 H   0  0  0  0  0  0  0  0  0  0  0  0
  145.9085   73.2349  221.5467 H   0  0  0  0  0  0  0  0  0  0  0  0
  146.6462   73.9254  220.0255 H   0  0  0  0  0  0  0  0  0  0  0  0
  144.8414   75.2473  221.3180 H   0  0  0  0  0  0  0  0  0  0  0  0
  144.8172   75.0902  219.4793 H   0  0  0  0  0  0  0  0  0  0  0  0
  139.0387   69.5705  222.3729 H   0  0  0  0  0  0  0  0  0  0  0  0
  138.7863   68.1213  224.4029 H   0  0  0  0  0  0  0  0  0  0  0  0
  139.1554   67.8285  226.7311 H   0  0  0  0  0  0  0  0  0  0  0  0
  141.1092   70.8664  229.0369 H   0  0  0  0  0  0  0  0  0  0  0  0
  141.3310   72.2561  227.0086 H   0  0  0  0  0  0  0  0  0  0  0  0
  1  2  2  0
  2  3  1  0
  3  4  1  0
  4  5  1  0
  5  6  2  0
  5  7  1  0
  7  8  1  0
  8  9  1  0
  9 10  1  0
 10 11  1  0
 11 12  1  0
 12 13  1  0
 13 14  1  0
 14 15  1  0
 15 16  1  0
 16 17  1  0
 17 18  1  0
  2 19  1  0
 19 20  2  0
 20 21  1  0
 21 22  2  0
 22 23  1  0
 23 24  2  0
 24 25  1  0
 24 26  1  0
 26 27  2  0
 27 28  1  0
 28 29  2  0
 12  7  1  0
 18 13  1  0
 29 19  1  0
 28 22  1  0
  3 30  1  0
  4 31  1  0
  4 32  1  0
  8 33  1  0
  8 34  1  0
  9 35  1  0
  9 36  1  0
 10 37  1  0
 10 38  1  0
 11 39  1  0
 11 40  1  0
 12 41  1  6
 13 42  1  0
 14 43  1  0
 14 44  1  0
 15 45  1  0
 15 46  1  0
 16 47  1  0
 16 48  1  0
 17 49  1  0
 17 50  1  0
 18 51  1  0
 18 52  1  0
 20 53  1  0
 21 54  1  0
 23 55  1  0
 26 56  1  0
 27 57  1  0
M  END
>  <smiles>  (73) 
O=C(NCC(=O)N1CCCCC1C1CCCCC1)c1ccc2cc(F)ccc2n1

>  <score_type>  (73) 
oracle

>  <origin>  (73) 
autodockgpu

>  <m_score__min__energy>  (73) 
-9.0199999999999996

>  <m_primary>  (73) 
energy

>  <rmsd>  (73) 
2.259404641306733

>  <m_score__min__rmsd>  (73) 
2.259404641306733

>  <meeko>  (73) 
{"free_energy": -8.66, "intermolecular_energy": -10.15, "internal_energy": -2.12, "cluster_size": 24, "cluster_id": 2, "rank_in_cluster": 5}

>  <energy>  (73) 
-8.39

>  <cluster_rmsd>  (73) 
1.49

>  <cluster>  (73) 
1

$$$$

     RDKit          3D

 57 60  0  0  0  0  0  0  0  0999 V2000
  140.3980   71.5980  221.0780 O   0  0  0  0  0  0  0  0  0  0  0  0
  140.0850   72.1130  222.1910 C   0  0  0  0  0  0  0  0  0  0  0  0
  139.8250   73.5190  222.2600 N   0  0  0  0  0  0  0  0  0  0  0  0
  139.9410   74.2740  221.0280 C   0  0  0  0  0  0  0  0  0  0  0  0
  140.6590   75.5670  221.3110 C   0  0  0  0  0  0  0  0  0  0  0  0
  140.3190   76.1570  222.3640 O   0  0  0  0  0  0  0  0  0  0  0  0
  141.6530   76.0590  220.4170 N   0  0  0  0  0  0  0  0  0  0  0  0
  141.8510   77.4760  220.3160 C   0  0  0  0  0  0  0  0  0  0  0  0
  142.3670   77.9550  219.0070 C   0  0  0  0  0  0  0  0  0  0  0  0
  142.5210   76.9050  217.9560 C   0  0  0  0  0  0  0  0  0  0  0  0
  143.1010   75.6080  218.4620 C   0  0  0  0  0  0  0  0  0  0  0  0
  142.4000   75.0700  219.6650 C   0  0  1  0  0  0  0  0  0  0  0  0
  143.3370   74.2790  220.5900 C   0  0  0  0  0  0  0  0  0  0  0  0
  143.0320   72.8330  220.4190 C   0  0  0  0  0  0  0  0  0  0  0  0
  144.1160   71.8830  220.8290 C   0  0  0  0  0  0  0  0  0  0  0  0
  145.3150   72.2750  219.9890 C   0  0  0  0  0  0  0  0  0  0  0  0
  145.7650   73.5770  220.6020 C   0  0  0  0  0  0  0  0  0  0  0  0
  144.7520   74.6830  220.4680 C   0  0  0  0  0  0  0  0  0  0  0  0
  139.9770   71.3150  223.4150 C   0  0  0  0  0  0  0  0  0  0  0  0
  139.3640   70.0770  223.3160 C   0  0  0  0  0  0  0  0  0  0  0  0
  139.2230   69.2580  224.4360 C   0  0  0  0  0  0  0  0  0  0  0  0
  139.7190   69.7320  225.6430 C   0  0  0  0  0  0  0  0  0  0  0  0
  139.5990   68.9520  226.7650 C   0  0  0  0  0  0  0  0  0  0  0  0
  140.0750   69.3800  227.9830 C   0  0  0  0  0  0  0  0  0  0  0  0
  139.9760   68.6410  229.1130 F   0  0  0  0  0  0  0  0  0  0  0  0
  140.6840   70.6250  228.0470 C   0  0  0  0  0  0  0  0  0  0  0  0
  140.8050   71.4090  226.9170 C   0  0  0  0  0  0  0  0  0  0  0  0
  140.3250   70.9710  225.7060 C   0  0  0  0  0  0  0  0  0  0  0  0
  140.4450   71.7420  224.5970 N   0  0  0  0  0  0  0  0  0  0  0  0
  139.5660   73.9450  223.1770 H   0  0  0  0  0  0  0  0  0  0  0  0
  140.5102   73.6900  220.2898 H   0  0  0  0  0  0  0  0  0  0  0  0
  138.9391   74.4856  220.6261 H   0  0  0  0  0  0  0  0  0  0  0  0
  140.8846   77.9679  220.5006 H   0  0  0  0  0  0  0  0  0  0  0  0
  142.6235   77.7281  221.0574 H   0  0  0  0  0  0  0  0  0  0  0  0
  141.6710   78.7169  218.6261 H   0  0  0  0  0  0  0  0  0  0  0  0
  143.3791   78.3390  219.2024 H   0  0  0  0  0  0  0  0  0  0  0  0
  141.5293   76.6964  217.5282 H   0  0  0  0  0  0  0  0  0  0  0  0
  143.2292   77.3009  217.2133 H   0  0  0  0  0  0  0  0  0  0  0  0
  143.0355   74.8604  217.6578 H   0  0  0  0  0  0  0  0  0  0  0  0
  144.1403   75.8129  218.7585 H   0  0  0  0  0  0  0  0  0  0  0  0
  141.6559   74.3744  219.2497 H   0  0  0  0  0  0  0  0  0  0  0  0
  143.1479   74.5212  221.6462 H   0  0  0  0  0  0  0  0  0  0  0  0
  142.1384   72.6038  221.0182 H   0  0  0  0  0  0  0  0  0  0  0  0
  142.8975   72.6828  219.3376 H   0  0  0  0  0  0  0  0  0  0  0  0
  144.3415   71.9918  221.9001 H   0  0  0  0  0  0  0  0  0  0  0  0
  143.8271   70.8329  220.6745 H   0  0  0  0  0  0  0  0  0  0  0  0
  146.1071   71.5147  220.0558 H   0  0  0  0  0  0  0  0  0  0  0  0
  145.0768   72.3655  218.9189 H   0  0  0  0  0  0  0  0  0  0  0  0
  145.9593   73.4099  221.6717 H   0  0  0  0  0  0  0  0  0  0  0  0
  146.6676   73.8961  220.0602 H   0  0  0  0  0  0  0  0  0  0  0  0
  144.9591   75.4266  221.2517 H   0  0  0  0  0  0  0  0  0  0  0  0
  144.8647   75.0678  219.4437 H   0  0  0  0  0  0  0  0  0  0  0  0
  138.9836   69.7355  222.3420 H   0  0  0  0  0  0  0  0  0  0  0  0
  138.7372   68.2736  224.3657 H   0  0  0  0  0  0  0  0  0  0  0  0
  139.1140   67.9676  226.6897 H   0  0  0  0  0  0  0  0  0  0  0  0
  141.0745   70.9912  229.0079 H   0  0  0  0  0  0  0  0  0  0  0  0
  141.2903   72.3937  226.9867 H   0  0  0  0  0  0  0  0  0  0  0  0
  1  2  2  0
  2  3  1  0
  3  4  1  0
  4  5  1  0
  5  6  2  0
  5  7  1  0
  7  8  1  0
  8  9  1  0
  9 10  1  0
 10 11  1  0
 11 12  1  0
 12 13  1  0
 13 14  1  0
 14 15  1  0
 15 16  1  0
 16 17  1  0
 17 18  1  0
  2 19  1  0
 19 20  2  0
 20 21  1  0
 21 22  2  0
 22 23  1  0
 23 24  2  0
 24 25  1  0
 24 26  1  0
 26 27  2  0
 27 28  1  0
 28 29  2  0
 12  7  1  0
 18 13  1  0
 29 19  1  0
 28 22  1  0
  3 30  1  0
  4 31  1  0
  4 32  1  0
  8 33  1  0
  8 34  1  0
  9 35  1  0
  9 36  1  0
 10 37  1  0
 10 38  1  0
 11 39  1  0
 11 40  1  0
 12 41  1  6
 13 42  1  0
 14 43  1  0
 14 44  1  0
 15 45  1  0
 15 46  1  0
 16 47  1  0
 16 48  1  0
 17 49  1  0
 17 50  1  0
 18 51  1  0
 18 52  1  0
 20 53  1  0
 21 54  1  0
 23 55  1  0
 26 56  1  0
 27 57  1  0
M  END
>  <smiles>  (74) 
O=C(NCC(=O)N1CCCCC1C1CCCCC1)c1ccc2cc(F)ccc2n1

>  <score_type>  (74) 
oracle

>  <origin>  (74) 
autodockgpu

>  <m_score__min__energy>  (74) 
-9.0199999999999996

>  <m_primary>  (74) 
energy

>  <rmsd>  (74) 
2.2750931865054667

>  <m_score__min__rmsd>  (74) 
2.2750931865054667

>  <meeko>  (74) 
{"free_energy": -8.64, "intermolecular_energy": -10.13, "internal_energy": -2.14, "cluster_size": 24, "cluster_id": 2, "rank_in_cluster": 9}

>  <energy>  (74) 
-7.81

>  <cluster_rmsd>  (74) 
1.29

>  <cluster>  (74) 
1

$$$$

     RDKit          3D

 57 60  0  0  0  0  0  0  0  0999 V2000
  140.7310   71.3610  221.2680 O   0  0  0  0  0  0  0  0  0  0  0  0
  140.2870   71.8840  222.3300 C   0  0  0  0  0  0  0  0  0  0  0  0
  139.9210   73.2680  222.3260 N   0  0  0  0  0  0  0  0  0  0  0  0
  140.0880   73.9910  221.0810 C   0  0  0  0  0  0  0  0  0  0  0  0
  140.6100   75.3710  221.3810 C   0  0  0  0  0  0  0  0  0  0  0  0
  140.1390   75.9180  222.4070 O   0  0  0  0  0  0  0  0  0  0  0  0
  141.5750   75.9860  220.5330 N   0  0  0  0  0  0  0  0  0  0  0  0
  141.7130   77.4120  220.5630 C   0  0  0  0  0  0  0  0  0  0  0  0
  142.1980   78.0320  219.3020 C   0  0  0  0  0  0  0  0  0  0  0  0
  142.3860   77.0930  218.1570 C   0  0  0  0  0  0  0  0  0  0  0  0
  143.0240   75.7790  218.5380 C   0  0  0  0  0  0  0  0  0  0  0  0
  142.3560   75.1030  219.6880 C   0  0  1  0  0  0  0  0  0  0  0  0
  143.3330   74.2700  220.5310 C   0  0  0  0  0  0  0  0  0  0  0  0
  143.1090   72.8360  220.2040 C   0  0  0  0  0  0  0  0  0  0  0  0
  144.2430   71.9080  220.5190 C   0  0  0  0  0  0  0  0  0  0  0  0
  145.4200   72.4540  219.7360 C   0  0  0  0  0  0  0  0  0  0  0  0
  145.7960   73.7050  220.4890 C   0  0  0  0  0  0  0  0  0  0  0  0
  144.7240   74.7620  220.4660 C   0  0  0  0  0  0  0  0  0  0  0  0
  140.1320   71.1180  223.5700 C   0  0  0  0  0  0  0  0  0  0  0  0
  139.4680   69.9050  223.4900 C   0  0  0  0  0  0  0  0  0  0  0  0
  139.2810   69.1180  224.6250 C   0  0  0  0  0  0  0  0  0  0  0  0
  139.7850   69.5960  225.8270 C   0  0  0  0  0  0  0  0  0  0  0  0
  139.6190   68.8460  226.9650 C   0  0  0  0  0  0  0  0  0  0  0  0
  140.1010   69.2790  228.1790 C   0  0  0  0  0  0  0  0  0  0  0  0
  139.9590   68.5700  229.3220 F   0  0  0  0  0  0  0  0  0  0  0  0
  140.7620   70.4990  228.2230 C   0  0  0  0  0  0  0  0  0  0  0  0
  140.9280   71.2520  227.0780 C   0  0  0  0  0  0  0  0  0  0  0  0
  140.4420   70.8090  225.8710 C   0  0  0  0  0  0  0  0  0  0  0  0
  140.6060   71.5500  224.7480 N   0  0  0  0  0  0  0  0  0  0  0  0
  139.5530   73.7010  223.2010 H   0  0  0  0  0  0  0  0  0  0  0  0
  140.8038   73.4577  220.4381 H   0  0  0  0  0  0  0  0  0  0  0  0
  139.1211   74.0645  220.5617 H   0  0  0  0  0  0  0  0  0  0  0  0
  140.7285   77.8435  220.7966 H   0  0  0  0  0  0  0  0  0  0  0  0
  142.4806   77.6265  221.3211 H   0  0  0  0  0  0  0  0  0  0  0  0
  141.4682   78.7966  218.9974 H   0  0  0  0  0  0  0  0  0  0  0  0
  143.1953   78.4373  219.5280 H   0  0  0  0  0  0  0  0  0  0  0  0
  141.4002   76.8837  217.7160 H   0  0  0  0  0  0  0  0  0  0  0  0
  143.0704   77.5858  217.4508 H   0  0  0  0  0  0  0  0  0  0  0  0
  142.9831   75.1072  217.6680 H   0  0  0  0  0  0  0  0  0  0  0  0
  144.0563   75.9990  218.8479 H   0  0  0  0  0  0  0  0  0  0  0  0
  141.6376   74.4186  219.2130 H   0  0  0  0  0  0  0  0  0  0  0  0
  143.1278   74.3868  221.6054 H   0  0  0  0  0  0  0  0  0  0  0  0
  142.2281   72.4953  220.7679 H   0  0  0  0  0  0  0  0  0  0  0  0
  142.9857   72.7955  219.1117 H   0  0  0  0  0  0  0  0  0  0  0  0
  144.4594   71.9129  221.5975 H   0  0  0  0  0  0  0  0  0  0  0  0
  144.0134   70.8663  220.2505 H   0  0  0  0  0  0  0  0  0  0  0  0
  146.2530   71.7356  219.7268 H   0  0  0  0  0  0  0  0  0  0  0  0
  145.1790   72.6464  218.6801 H   0  0  0  0  0  0  0  0  0  0  0  0
  145.9966   73.4346  221.5362 H   0  0  0  0  0  0  0  0  0  0  0  0
  146.6810   74.1293  219.9922 H   0  0  0  0  0  0  0  0  0  0  0  0
  144.8872   75.4267  221.3272 H   0  0  0  0  0  0  0  0  0  0  0  0
  144.8184   75.2612  219.4904 H   0  0  0  0  0  0  0  0  0  0  0  0
  139.0837   69.5587  222.5192 H   0  0  0  0  0  0  0  0  0  0  0  0
  138.7538   68.1541  224.5704 H   0  0  0  0  0  0  0  0  0  0  0  0
  139.0917   67.8825  226.9053 H   0  0  0  0  0  0  0  0  0  0  0  0
  141.1576   70.8695  229.1802 H   0  0  0  0  0  0  0  0  0  0  0  0
  141.4545   72.2163  227.1321 H   0  0  0  0  0  0  0  0  0  0  0  0
  1  2  2  0
  2  3  1  0
  3  4  1  0
  4  5  1  0
  5  6  2  0
  5  7  1  0
  7  8  1  0
  8  9  1  0
  9 10  1  0
 10 11  1  0
 11 12  1  0
 12 13  1  0
 13 14  1  0
 14 15  1  0
 15 16  1  0
 16 17  1  0
 17 18  1  0
  2 19  1  0
 19 20  2  0
 20 21  1  0
 21 22  2  0
 22 23  1  0
 23 24  2  0
 24 25  1  0
 24 26  1  0
 26 27  2  0
 27 28  1  0
 28 29  2  0
 12  7  1  0
 18 13  1  0
 29 19  1  0
 28 22  1  0
  3 30  1  0
  4 31  1  0
  4 32  1  0
  8 33  1  0
  8 34  1  0
  9 35  1  0
  9 36  1  0
 10 37  1  0
 10 38  1  0
 11 39  1  0
 11 40  1  0
 12 41  1  6
 13 42  1  0
 14 43  1  0
 14 44  1  0
 15 45  1  0
 15 46  1  0
 16 47  1  0
 16 48  1  0
 17 49  1  0
 17 50  1  0
 18 51  1  0
 18 52  1  0
 20 53  1  0
 21 54  1  0
 23 55  1  0
 26 56  1  0
 27 57  1  0
M  END
>  <smiles>  (75) 
O=C(NCC(=O)N1CCCCC1C1CCCCC1)c1ccc2cc(F)ccc2n1

>  <score_type>  (75) 
oracle

>  <origin>  (75) 
autodockgpu

>  <m_score__min__energy>  (75) 
-9.0199999999999996

>  <m_primary>  (75) 
energy

>  <rmsd>  (75) 
2.2801279821598617

>  <m_score__min__rmsd>  (75) 
2.2801279821598617

>  <meeko>  (75) 
{"free_energy": -8.69, "intermolecular_energy": -10.18, "internal_energy": -2.07, "cluster_size": 24, "cluster_id": 2, "rank_in_cluster": 1}

>  <energy>  (75) 
-8.69

>  <cluster_rmsd>  (75) 
0.0

>  <cluster>  (75) 
2

$$$$

     RDKit          3D

 57 60  0  0  0  0  0  0  0  0999 V2000
  140.4460   71.4780  221.0680 O   0  0  0  0  0  0  0  0  0  0  0  0
  140.1230   71.9920  222.1790 C   0  0  0  0  0  0  0  0  0  0  0  0
  139.8510   73.3950  222.2460 N   0  0  0  0  0  0  0  0  0  0  0  0
  139.9660   74.1500  221.0130 C   0  0  0  0  0  0  0  0  0  0  0  0
  140.6600   75.4550  221.3000 C   0  0  0  0  0  0  0  0  0  0  0  0
  140.3020   76.0400  222.3500 O   0  0  0  0  0  0  0  0  0  0  0  0
  141.6520   75.9630  220.4130 N   0  0  0  0  0  0  0  0  0  0  0  0
  141.8840   77.3770  220.3730 C   0  0  0  0  0  0  0  0  0  0  0  0
  142.3920   77.9030  219.0780 C   0  0  0  0  0  0  0  0  0  0  0  0
  142.5020   76.8990  217.9790 C   0  0  0  0  0  0  0  0  0  0  0  0
  143.0570   75.5660  218.4150 C   0  0  0  0  0  0  0  0  0  0  0  0
  142.3610   74.9910  219.6040 C   0  0  1  0  0  0  0  0  0  0  0  0
  143.2930   74.1360  220.4760 C   0  0  0  0  0  0  0  0  0  0  0  0
  143.0460   72.7070  220.1400 C   0  0  0  0  0  0  0  0  0  0  0  0
  144.1490   71.7540  220.4890 C   0  0  0  0  0  0  0  0  0  0  0  0
  145.3620   72.2730  219.7440 C   0  0  0  0  0  0  0  0  0  0  0  0
  145.7420   73.5150  220.5110 C   0  0  0  0  0  0  0  0  0  0  0  0
  144.6950   74.5960  220.4550 C   0  0  0  0  0  0  0  0  0  0  0  0
  140.0170   71.1940  223.4030 C   0  0  0  0  0  0  0  0  0  0  0  0
  139.4170   69.9490  223.3030 C   0  0  0  0  0  0  0  0  0  0  0  0
  139.2790   69.1310  224.4220 C   0  0  0  0  0  0  0  0  0  0  0  0
  139.7650   69.6100  225.6310 C   0  0  0  0  0  0  0  0  0  0  0  0
  139.6470   68.8310  226.7540 C   0  0  0  0  0  0  0  0  0  0  0  0
  140.1130   69.2640  227.9740 C   0  0  0  0  0  0  0  0  0  0  0  0
  140.0160   68.5250  229.1040 F   0  0  0  0  0  0  0  0  0  0  0  0
  140.7100   70.5150  228.0390 C   0  0  0  0  0  0  0  0  0  0  0  0
  140.8280   71.2990  226.9090 C   0  0  0  0  0  0  0  0  0  0  0  0
  140.3580   70.8560  225.6960 C   0  0  0  0  0  0  0  0  0  0  0  0
  140.4760   71.6260  224.5870 N   0  0  0  0  0  0  0  0  0  0  0  0
  139.5840   73.8200  223.1610 H   0  0  0  0  0  0  0  0  0  0  0  0
  140.5515   73.5741  220.2812 H   0  0  0  0  0  0  0  0  0  0  0  0
  138.9645   74.3444  220.6016 H   0  0  0  0  0  0  0  0  0  0  0  0
  140.9333   77.8835  220.5957 H   0  0  0  0  0  0  0  0  0  0  0  0
  142.6740   77.5758  221.1121 H   0  0  0  0  0  0  0  0  0  0  0  0
  141.7101   78.6988  218.7438 H   0  0  0  0  0  0  0  0  0  0  0  0
  143.4165   78.2525  219.2734 H   0  0  0  0  0  0  0  0  0  0  0  0
  141.4984   76.7347  217.5597 H   0  0  0  0  0  0  0  0  0  0  0  0
  143.2082   77.3109  217.2430 H   0  0  0  0  0  0  0  0  0  0  0  0
  142.9598   74.8581  217.5787 H   0  0  0  0  0  0  0  0  0  0  0  0
  144.1059   75.7308  218.7026 H   0  0  0  0  0  0  0  0  0  0  0  0
  141.5924   74.3341  219.1707 H   0  0  0  0  0  0  0  0  0  0  0  0
  143.0583   74.2572  221.5438 H   0  0  0  0  0  0  0  0  0  0  0  0
  142.1407   72.3860  220.6760 H   0  0  0  0  0  0  0  0  0  0  0  0
  142.9548   72.6695  219.0444 H   0  0  0  0  0  0  0  0  0  0  0  0
  144.3317   71.7538  221.5737 H   0  0  0  0  0  0  0  0  0  0  0  0
  143.9046   70.7179  220.2119 H   0  0  0  0  0  0  0  0  0  0  0  0
  146.1783   71.5359  219.7601 H   0  0  0  0  0  0  0  0  0  0  0  0
  145.1594   72.4712  218.6812 H   0  0  0  0  0  0  0  0  0  0  0  0
  145.9026   73.2393  221.5637 H   0  0  0  0  0  0  0  0  0  0  0  0
  146.6520   73.9196  220.0438 H   0  0  0  0  0  0  0  0  0  0  0  0
  144.8460   75.2569  221.3213 H   0  0  0  0  0  0  0  0  0  0  0  0
  144.8312   75.0927  219.4830 H   0  0  0  0  0  0  0  0  0  0  0  0
  139.0450   69.6022  222.3276 H   0  0  0  0  0  0  0  0  0  0  0  0
  138.8026   68.1421  224.3504 H   0  0  0  0  0  0  0  0  0  0  0  0
  139.1712   67.8422  226.6777 H   0  0  0  0  0  0  0  0  0  0  0  0
  141.0932   70.8858  229.0011 H   0  0  0  0  0  0  0  0  0  0  0  0
  141.3031   72.2885  226.9802 H   0  0  0  0  0  0  0  0  0  0  0  0
  1  2  2  0
  2  3  1  0
  3  4  1  0
  4  5  1  0
  5  6  2  0
  5  7  1  0
  7  8  1  0
  8  9  1  0
  9 10  1  0
 10 11  1  0
 11 12  1  0
 12 13  1  0
 13 14  1  0
 14 15  1  0
 15 16  1  0
 16 17  1  0
 17 18  1  0
  2 19  1  0
 19 20  2  0
 20 21  1  0
 21 22  2  0
 22 23  1  0
 23 24  2  0
 24 25  1  0
 24 26  1  0
 26 27  2  0
 27 28  1  0
 28 29  2  0
 12  7  1  0
 18 13  1  0
 29 19  1  0
 28 22  1  0
  3 30  1  0
  4 31  1  0
  4 32  1  0
  8 33  1  0
  8 34  1  0
  9 35  1  0
  9 36  1  0
 10 37  1  0
 10 38  1  0
 11 39  1  0
 11 40  1  0
 12 41  1  6
 13 42  1  0
 14 43  1  0
 14 44  1  0
 15 45  1  0
 15 46  1  0
 16 47  1  0
 16 48  1  0
 17 49  1  0
 17 50  1  0
 18 51  1  0
 18 52  1  0
 20 53  1  0
 21 54  1  0
 23 55  1  0
 26 56  1  0
 27 57  1  0
M  END
>  <smiles>  (76) 
O=C(NCC(=O)N1CCCCC1C1CCCCC1)c1ccc2cc(F)ccc2n1

>  <score_type>  (76) 
oracle

>  <origin>  (76) 
autodockgpu

>  <m_score__min__energy>  (76) 
-9.0199999999999996

>  <m_primary>  (76) 
energy

>  <rmsd>  (76) 
2.2666776618186786

>  <m_score__min__rmsd>  (76) 
2.2666776618186786

>  <meeko>  (76) 
{"free_energy": -8.65, "intermolecular_energy": -10.14, "internal_energy": -2.13, "cluster_size": 24, "cluster_id": 2, "rank_in_cluster": 7}

>  <energy>  (76) 
-8.68

>  <cluster_rmsd>  (76) 
0.27

>  <cluster>  (76) 
2

$$$$

     RDKit          3D

 57 60  0  0  0  0  0  0  0  0999 V2000
  141.2840   72.3830  221.5060 O   0  0  0  0  0  0  0  0  0  0  0  0
  140.4140   72.5680  222.4080 C   0  0  0  0  0  0  0  0  0  0  0  0
  139.5720   73.7230  222.3390 N   0  0  0  0  0  0  0  0  0  0  0  0
  139.7750   74.6220  221.2200 C   0  0  0  0  0  0  0  0  0  0  0  0
  139.4720   76.0300  221.6610 C   0  0  0  0  0  0  0  0  0  0  0  0
  138.8340   76.1350  222.7350 O   0  0  0  0  0  0  0  0  0  0  0  0
  139.8970   77.1440  220.8830 N   0  0  0  0  0  0  0  0  0  0  0  0
  139.0560   77.6010  219.8150 C   0  0  0  0  0  0  0  0  0  0  0  0
  139.7630   78.2670  218.6880 C   0  0  0  0  0  0  0  0  0  0  0  0
  141.2520   78.2850  218.7880 C   0  0  0  0  0  0  0  0  0  0  0  0
  141.7730   78.5920  220.1700 C   0  0  0  0  0  0  0  0  0  0  0  0
  141.1710   77.7390  221.2370 C   0  0  1  0  0  0  0  0  0  0  0  0
  141.0720   78.4650  222.5870 C   0  0  0  0  0  0  0  0  0  0  0  0
  142.3480   79.2000  222.8020 C   0  0  0  0  0  0  0  0  0  0  0  0
  142.2910   80.3380  223.7760 C   0  0  0  0  0  0  0  0  0  0  0  0
  141.2280   81.2680  223.2260 C   0  0  0  0  0  0  0  0  0  0  0  0
  139.9400   80.5330  223.4990 C   0  0  0  0  0  0  0  0  0  0  0  0
  139.8220   79.2340  222.7460 C   0  0  0  0  0  0  0  0  0  0  0  0
  140.2400   71.6330  223.5230 C   0  0  0  0  0  0  0  0  0  0  0  0
  139.5740   70.4470  223.2630 C   0  0  0  0  0  0  0  0  0  0  0  0
  139.3690   69.5070  224.2710 C   0  0  0  0  0  0  0  0  0  0  0  0
  139.8560   69.8070  225.5360 C   0  0  0  0  0  0  0  0  0  0  0  0
  139.6730   68.9040  226.5530 C   0  0  0  0  0  0  0  0  0  0  0  0
  140.1380   69.1580  227.8230 C   0  0  0  0  0  0  0  0  0  0  0  0
  139.9780   68.2940  228.8510 F   0  0  0  0  0  0  0  0  0  0  0  0
  140.8020   70.3560  228.0490 C   0  0  0  0  0  0  0  0  0  0  0  0
  140.9860   71.2630  227.0250 C   0  0  0  0  0  0  0  0  0  0  0  0
  140.5160   70.9990  225.7610 C   0  0  0  0  0  0  0  0  0  0  0  0
  140.6980   71.8910  224.7570 N   0  0  0  0  0  0  0  0  0  0  0  0
  138.8550   73.8750  223.0800 H   0  0  0  0  0  0  0  0  0  0  0  0
  140.8194   74.5585  220.8807 H   0  0  0  0  0  0  0  0  0  0  0  0
  139.1085   74.3405  220.3914 H   0  0  0  0  0  0  0  0  0  0  0  0
  138.5170   76.7313  219.4112 H   0  0  0  0  0  0  0  0  0  0  0  0
  138.3965   78.3645  220.2533 H   0  0  0  0  0  0  0  0  0  0  0  0
  139.4915   77.7428  217.7598 H   0  0  0  0  0  0  0  0  0  0  0  0
  139.4449   79.3198  218.7103 H   0  0  0  0  0  0  0  0  0  0  0  0
  141.6303   77.2967  218.4879 H   0  0  0  0  0  0  0  0  0  0  0  0
  141.6043   79.0927  218.1296 H   0  0  0  0  0  0  0  0  0  0  0  0
  142.8620   78.4373  220.1737 H   0  0  0  0  0  0  0  0  0  0  0  0
  141.4985   79.6331  220.3951 H   0  0  0  0  0  0  0  0  0  0  0  0
  141.8811   76.9055  221.3422 H   0  0  0  0  0  0  0  0  0  0  0  0
  140.9727   77.7482  223.4155 H   0  0  0  0  0  0  0  0  0  0  0  0
  143.0944   78.4798  223.1683 H   0  0  0  0  0  0  0  0  0  0  0  0
  142.5993   79.6512  221.8308 H   0  0  0  0  0  0  0  0  0  0  0  0
  142.0100   79.9775  224.7766 H   0  0  0  0  0  0  0  0  0  0  0  0
  143.2640   80.8393  223.8851 H   0  0  0  0  0  0  0  0  0  0  0  0
  141.2457   82.2367  223.7469 H   0  0  0  0  0  0  0  0  0  0  0  0
  141.3713   81.4989  222.1601 H   0  0  0  0  0  0  0  0  0  0  0  0
  139.8826   80.3181  224.5763 H   0  0  0  0  0  0  0  0  0  0  0  0
  139.1181   81.1808  223.1602 H   0  0  0  0  0  0  0  0  0  0  0  0
  139.1011   78.5985  223.2812 H   0  0  0  0  0  0  0  0  0  0  0  0
  139.5094   79.5077  221.7275 H   0  0  0  0  0  0  0  0  0  0  0  0
  139.2021   70.2444  222.2478 H   0  0  0  0  0  0  0  0  0  0  0  0
  138.8411   68.5627  224.0719 H   0  0  0  0  0  0  0  0  0  0  0  0
  139.1453   67.9605  226.3494 H   0  0  0  0  0  0  0  0  0  0  0  0
  141.1854   70.5847  229.0543 H   0  0  0  0  0  0  0  0  0  0  0  0
  141.5145   72.2072  227.2228 H   0  0  0  0  0  0  0  0  0  0  0  0
  1  2  2  0
  2  3  1  0
  3  4  1  0
  4  5  1  0
  5  6  2  0
  5  7  1  0
  7  8  1  0
  8  9  1  0
  9 10  1  0
 10 11  1  0
 11 12  1  0
 12 13  1  0
 13 14  1  0
 14 15  1  0
 15 16  1  0
 16 17  1  0
 17 18  1  0
  2 19  1  0
 19 20  2  0
 20 21  1  0
 21 22  2  0
 22 23  1  0
 23 24  2  0
 24 25  1  0
 24 26  1  0
 26 27  2  0
 27 28  1  0
 28 29  2  0
 12  7  1  0
 18 13  1  0
 29 19  1  0
 28 22  1  0
  3 30  1  0
  4 31  1  0
  4 32  1  0
  8 33  1  0
  8 34  1  0
  9 35  1  0
  9 36  1  0
 10 37  1  0
 10 38  1  0
 11 39  1  0
 11 40  1  0
 12 41  1  1
 13 42  1  0
 14 43  1  0
 14 44  1  0
 15 45  1  0
 15 46  1  0
 16 47  1  0
 16 48  1  0
 17 49  1  0
 17 50  1  0
 18 51  1  0
 18 52  1  0
 20 53  1  0
 21 54  1  0
 23 55  1  0
 26 56  1  0
 27 57  1  0
M  END
>  <smiles>  (77) 
O=C(NCC(=O)N1CCCCC1C1CCCCC1)c1ccc2cc(F)ccc2n1

>  <score_type>  (77) 
oracle

>  <origin>  (77) 
autodockgpu

>  <m_score__min__energy>  (77) 
-9.0199999999999996

>  <m_primary>  (77) 
energy

>  <rmsd>  (77) 
1.982929033045934

>  <m_score__min__rmsd>  (77) 
1.982929033045934

>  <meeko>  (77) 
{"free_energy": -8.89, "intermolecular_energy": -10.38, "internal_energy": -1.89, "cluster_size": 24, "cluster_id": 1, "rank_in_cluster": 6}

>  <energy>  (77) 
-8.68

>  <cluster_rmsd>  (77) 
0.03

>  <cluster>  (77) 
2

$$$$

     RDKit          3D

 57 60  0  0  0  0  0  0  0  0999 V2000
  140.6750   71.3710  221.2540 O   0  0  0  0  0  0  0  0  0  0  0  0
  140.2610   71.8990  222.3270 C   0  0  0  0  0  0  0  0  0  0  0  0
  139.9190   73.2880  222.3340 N   0  0  0  0  0  0  0  0  0  0  0  0
  140.0730   74.0130  221.0880 C   0  0  0  0  0  0  0  0  0  0  0  0
  140.5900   75.3950  221.3840 C   0  0  0  0  0  0  0  0  0  0  0  0
  140.1080   75.9470  222.4020 O   0  0  0  0  0  0  0  0  0  0  0  0
  141.5630   76.0060  220.5420 N   0  0  0  0  0  0  0  0  0  0  0  0
  141.7120   77.4310  220.5790 C   0  0  0  0  0  0  0  0  0  0  0  0
  142.2060   78.0530  219.3220 C   0  0  0  0  0  0  0  0  0  0  0  0
  142.3900   77.1170  218.1740 C   0  0  0  0  0  0  0  0  0  0  0  0
  143.0160   75.7970  218.5500 C   0  0  0  0  0  0  0  0  0  0  0  0
  142.3390   75.1210  219.6950 C   0  0  1  0  0  0  0  0  0  0  0  0
  143.3070   74.2770  220.5380 C   0  0  0  0  0  0  0  0  0  0  0  0
  143.0600   72.8450  220.2170 C   0  0  0  0  0  0  0  0  0  0  0  0
  144.1820   71.9010  220.5310 C   0  0  0  0  0  0  0  0  0  0  0  0
  145.3640   72.4270  219.7410 C   0  0  0  0  0  0  0  0  0  0  0  0
  145.7610   73.6750  220.4890 C   0  0  0  0  0  0  0  0  0  0  0  0
  144.7050   74.7470  220.4650 C   0  0  0  0  0  0  0  0  0  0  0  0
  140.1180   71.1310  223.5670 C   0  0  0  0  0  0  0  0  0  0  0  0
  139.4520   69.9190  223.4930 C   0  0  0  0  0  0  0  0  0  0  0  0
  139.2750   69.1310  224.6290 C   0  0  0  0  0  0  0  0  0  0  0  0
  139.7910   69.6070  225.8270 C   0  0  0  0  0  0  0  0  0  0  0  0
  139.6360   68.8570  226.9650 C   0  0  0  0  0  0  0  0  0  0  0  0
  140.1300   69.2880  228.1750 C   0  0  0  0  0  0  0  0  0  0  0  0
  139.9980   68.5780  229.3190 F   0  0  0  0  0  0  0  0  0  0  0  0
  140.7920   70.5080  228.2140 C   0  0  0  0  0  0  0  0  0  0  0  0
  140.9470   71.2610  227.0680 C   0  0  0  0  0  0  0  0  0  0  0  0
  140.4490   70.8200  225.8650 C   0  0  0  0  0  0  0  0  0  0  0  0
  140.6030   71.5620  224.7410 N   0  0  0  0  0  0  0  0  0  0  0  0
  139.5760   73.7250  223.2170 H   0  0  0  0  0  0  0  0  0  0  0  0
  140.7866   73.4837  220.4394 H   0  0  0  0  0  0  0  0  0  0  0  0
  139.1016   74.0820  220.5765 H   0  0  0  0  0  0  0  0  0  0  0  0
  140.7301   77.8690  220.8114 H   0  0  0  0  0  0  0  0  0  0  0  0
  142.4788   77.6361  221.3406 H   0  0  0  0  0  0  0  0  0  0  0  0
  141.4832   78.8246  219.0183 H   0  0  0  0  0  0  0  0  0  0  0  0
  143.2056   78.4500  219.5527 H   0  0  0  0  0  0  0  0  0  0  0  0
  141.4038   76.9175  217.7294 H   0  0  0  0  0  0  0  0  0  0  0  0
  143.0809   77.6074  217.4724 H   0  0  0  0  0  0  0  0  0  0  0  0
  142.9722   75.1297  217.6766 H   0  0  0  0  0  0  0  0  0  0  0  0
  144.0492   76.0070  218.8637 H   0  0  0  0  0  0  0  0  0  0  0  0
  141.6170   74.4447  219.2141 H   0  0  0  0  0  0  0  0  0  0  0  0
  143.1081   74.4019  221.6126 H   0  0  0  0  0  0  0  0  0  0  0  0
  142.1765   72.5196  220.7857 H   0  0  0  0  0  0  0  0  0  0  0  0
  142.9314   72.8023  219.1254 H   0  0  0  0  0  0  0  0  0  0  0  0
  144.4029   71.9066  221.6086 H   0  0  0  0  0  0  0  0  0  0  0  0
  143.9361   70.8618  220.2673 H   0  0  0  0  0  0  0  0  0  0  0  0
  146.1864   71.6965  219.7308 H   0  0  0  0  0  0  0  0  0  0  0  0
  145.1219   72.6193  218.6853 H   0  0  0  0  0  0  0  0  0  0  0  0
  145.9603   73.4052  221.5366 H   0  0  0  0  0  0  0  0  0  0  0  0
  146.6510   74.0844  219.9888 H   0  0  0  0  0  0  0  0  0  0  0  0
  144.8817   75.4134  221.3221 H   0  0  0  0  0  0  0  0  0  0  0  0
  144.8028   75.2393  219.4862 H   0  0  0  0  0  0  0  0  0  0  0  0
  139.0578   69.5740  222.5257 H   0  0  0  0  0  0  0  0  0  0  0  0
  138.7462   68.1678  224.5783 H   0  0  0  0  0  0  0  0  0  0  0  0
  139.1074   67.8939  226.9094 H   0  0  0  0  0  0  0  0  0  0  0  0
  141.1968   70.8778  229.1676 H   0  0  0  0  0  0  0  0  0  0  0  0
  141.4749   72.2248  227.1177 H   0  0  0  0  0  0  0  0  0  0  0  0
  1  2  2  0
  2  3  1  0
  3  4  1  0
  4  5  1  0
  5  6  2  0
  5  7  1  0
  7  8  1  0
  8  9  1  0
  9 10  1  0
 10 11  1  0
 11 12  1  0
 12 13  1  0
 13 14  1  0
 14 15  1  0
 15 16  1  0
 16 17  1  0
 17 18  1  0
  2 19  1  0
 19 20  2  0
 20 21  1  0
 21 22  2  0
 22 23  1  0
 23 24  2  0
 24 25  1  0
 24 26  1  0
 26 27  2  0
 27 28  1  0
 28 29  2  0
 12  7  1  0
 18 13  1  0
 29 19  1  0
 28 22  1  0
  3 30  1  0
  4 31  1  0
  4 32  1  0
  8 33  1  0
  8 34  1  0
  9 35  1  0
  9 36  1  0
 10 37  1  0
 10 38  1  0
 11 39  1  0
 11 40  1  0
 12 41  1  6
 13 42  1  0
 14 43  1  0
 14 44  1  0
 15 45  1  0
 15 46  1  0
 16 47  1  0
 16 48  1  0
 17 49  1  0
 17 50  1  0
 18 51  1  0
 18 52  1  0
 20 53  1  0
 21 54  1  0
 23 55  1  0
 26 56  1  0
 27 57  1  0
M  END
>  <smiles>  (78) 
O=C(NCC(=O)N1CCCCC1C1CCCCC1)c1ccc2cc(F)ccc2n1

>  <score_type>  (78) 
oracle

>  <origin>  (78) 
autodockgpu

>  <m_score__min__energy>  (78) 
-9.0199999999999996

>  <m_primary>  (78) 
energy

>  <rmsd>  (78) 
2.2809693049758066

>  <m_score__min__rmsd>  (78) 
2.2809693049758066

>  <meeko>  (78) 
{"free_energy": -8.68, "intermolecular_energy": -10.17, "internal_energy": -2.08, "cluster_size": 24, "cluster_id": 2, "rank_in_cluster": 3}

>  <energy>  (78) 
-8.67

>  <cluster_rmsd>  (78) 
0.49

>  <cluster>  (78) 
2

$$$$

     RDKit          3D

 57 60  0  0  0  0  0  0  0  0999 V2000
  141.5550   72.0630  221.7430 O   0  0  0  0  0  0  0  0  0  0  0  0
  140.5430   72.2370  222.4830 C   0  0  0  0  0  0  0  0  0  0  0  0
  139.5920   73.2480  222.1380 N   0  0  0  0  0  0  0  0  0  0  0  0
  139.8550   74.0220  220.9400 C   0  0  0  0  0  0  0  0  0  0  0  0
  140.5100   75.3210  221.3290 C   0  0  0  0  0  0  0  0  0  0  0  0
  140.1410   75.8070  222.4240 O   0  0  0  0  0  0  0  0  0  0  0  0
  141.4800   75.9300  220.4820 N   0  0  0  0  0  0  0  0  0  0  0  0
  141.7230   77.3370  220.6110 C   0  0  0  0  0  0  0  0  0  0  0  0
  142.1970   78.0170  219.3760 C   0  0  0  0  0  0  0  0  0  0  0  0
  142.2660   77.1570  218.1580 C   0  0  0  0  0  0  0  0  0  0  0  0
  142.8230   75.7770  218.4090 C   0  0  0  0  0  0  0  0  0  0  0  0
  142.1570   75.0620  219.5380 C   0  0  1  0  0  0  0  0  0  0  0  0
  143.1060   74.1010  220.2690 C   0  0  0  0  0  0  0  0  0  0  0  0
  143.0700   72.7960  219.5560 C   0  0  0  0  0  0  0  0  0  0  0  0
  144.2480   71.8960  219.7800 C   0  0  0  0  0  0  0  0  0  0  0  0
  145.4480   72.7090  219.3400 C   0  0  0  0  0  0  0  0  0  0  0  0
  145.6010   73.7340  220.4350 C   0  0  0  0  0  0  0  0  0  0  0  0
  144.4370   74.6840  220.5310 C   0  0  0  0  0  0  0  0  0  0  0  0
  140.3120   71.4330  223.6870 C   0  0  0  0  0  0  0  0  0  0  0  0
  139.5570   70.2800  223.5470 C   0  0  0  0  0  0  0  0  0  0  0  0
  139.2940   69.4620  224.6450 C   0  0  0  0  0  0  0  0  0  0  0  0
  139.8160   69.8480  225.8720 C   0  0  0  0  0  0  0  0  0  0  0  0
  139.5770   69.0660  226.9740 C   0  0  0  0  0  0  0  0  0  0  0  0
  140.0730   69.4090  228.2110 C   0  0  0  0  0  0  0  0  0  0  0  0
  139.8600   68.6650  229.3210 F   0  0  0  0  0  0  0  0  0  0  0  0
  140.8260   70.5700  228.3150 C   0  0  0  0  0  0  0  0  0  0  0  0
  141.0660   71.3560  227.2060 C   0  0  0  0  0  0  0  0  0  0  0  0
  140.5640   71.0040  225.9750 C   0  0  0  0  0  0  0  0  0  0  0  0
  140.8010   71.7760  224.8880 N   0  0  0  0  0  0  0  0  0  0  0  0
  138.7570   73.3930  222.7470 H   0  0  0  0  0  0  0  0  0  0  0  0
  140.5241   73.4563  220.2750 H   0  0  0  0  0  0  0  0  0  0  0  0
  138.9104   74.2251  220.4142 H   0  0  0  0  0  0  0  0  0  0  0  0
  140.7837   77.8166  220.9236 H   0  0  0  0  0  0  0  0  0  0  0  0
  142.5361   77.4388  221.3449 H   0  0  0  0  0  0  0  0  0  0  0  0
  141.5124   78.8514  219.1639 H   0  0  0  0  0  0  0  0  0  0  0  0
  143.2299   78.3342  219.5820 H   0  0  0  0  0  0  0  0  0  0  0  0
  141.2492   77.0506  217.7522 H   0  0  0  0  0  0  0  0  0  0  0  0
  142.9532   77.6539  217.4573 H   0  0  0  0  0  0  0  0  0  0  0  0
  142.6959   75.1787  217.4947 H   0  0  0  0  0  0  0  0  0  0  0  0
  143.8811   75.9002  218.6834 H   0  0  0  0  0  0  0  0  0  0  0  0
  141.3708   74.4674  219.0498 H   0  0  0  0  0  0  0  0  0  0  0  0
  142.7633   73.9116  221.2970 H   0  0  0  0  0  0  0  0  0  0  0  0
  142.1677   72.2581  219.8825 H   0  0  0  0  0  0  0  0  0  0  0  0
  143.0820   73.0416  218.4838 H   0  0  0  0  0  0  0  0  0  0  0  0
  144.3321   71.6258  220.8430 H   0  0  0  0  0  0  0  0  0  0  0  0
  144.1601   70.9519  219.2224 H   0  0  0  0  0  0  0  0  0  0  0  0
  146.3450   72.0767  219.2654 H   0  0  0  0  0  0  0  0  0  0  0  0
  145.3173   73.1612  218.3458 H   0  0  0  0  0  0  0  0  0  0  0  0
  145.7007   73.2065  221.3951 H   0  0  0  0  0  0  0  0  0  0  0  0
  146.4914   74.3342  220.1962 H   0  0  0  0  0  0  0  0  0  0  0  0
  144.4271   75.1033  221.5479 H   0  0  0  0  0  0  0  0  0  0  0  0
  144.5961   75.4310  219.7393 H   0  0  0  0  0  0  0  0  0  0  0  0
  139.1604   70.0066  222.5581 H   0  0  0  0  0  0  0  0  0  0  0  0
  138.6952   68.5449  224.5428 H   0  0  0  0  0  0  0  0  0  0  0  0
  138.9787   68.1492  226.8668 H   0  0  0  0  0  0  0  0  0  0  0  0
  141.2360   70.8671  229.2916 H   0  0  0  0  0  0  0  0  0  0  0  0
  141.6648   72.2731  227.3079 H   0  0  0  0  0  0  0  0  0  0  0  0
  1  2  2  0
  2  3  1  0
  3  4  1  0
  4  5  1  0
  5  6  2  0
  5  7  1  0
  7  8  1  0
  8  9  1  0
  9 10  1  0
 10 11  1  0
 11 12  1  0
 12 13  1  0
 13 14  1  0
 14 15  1  0
 15 16  1  0
 16 17  1  0
 17 18  1  0
  2 19  1  0
 19 20  2  0
 20 21  1  0
 21 22  2  0
 22 23  1  0
 23 24  2  0
 24 25  1  0
 24 26  1  0
 26 27  2  0
 27 28  1  0
 28 29  2  0
 12  7  1  0
 18 13  1  0
 29 19  1  0
 28 22  1  0
  3 30  1  0
  4 31  1  0
  4 32  1  0
  8 33  1  0
  8 34  1  0
  9 35  1  0
  9 36  1  0
 10 37  1  0
 10 38  1  0
 11 39  1  0
 11 40  1  0
 12 41  1  6
 13 42  1  0
 14 43  1  0
 14 44  1  0
 15 45  1  0
 15 46  1  0
 16 47  1  0
 16 48  1  0
 17 49  1  0
 17 50  1  0
 18 51  1  0
 18 52  1  0
 20 53  1  0
 21 54  1  0
 23 55  1  0
 26 56  1  0
 27 57  1  0
M  END
>  <smiles>  (79) 
O=C(NCC(=O)N1CCCCC1C1CCCCC1)c1ccc2cc(F)ccc2n1

>  <score_type>  (79) 
oracle

>  <origin>  (79) 
autodockgpu

>  <m_score__min__energy>  (79) 
-9.0199999999999996

>  <m_primary>  (79) 
energy

>  <rmsd>  (79) 
2.3187610368903755

>  <m_score__min__rmsd>  (79) 
2.3187610368903755

>  <meeko>  (79) 
{"free_energy": -8.48, "intermolecular_energy": -9.97, "internal_energy": -1.76, "cluster_size": 24, "cluster_id": 2, "rank_in_cluster": 22}

>  <energy>  (79) 
-8.66

>  <cluster_rmsd>  (79) 
0.18

>  <cluster>  (79) 
2

$$$$

     RDKit          3D

 57 60  0  0  0  0  0  0  0  0999 V2000
  140.3870   71.4400  221.1320 O   0  0  0  0  0  0  0  0  0  0  0  0
  140.0850   71.9550  222.2480 C   0  0  0  0  0  0  0  0  0  0  0  0
  139.8230   73.3600  222.3200 N   0  0  0  0  0  0  0  0  0  0  0  0
  139.9240   74.1150  221.0870 C   0  0  0  0  0  0  0  0  0  0  0  0
  140.5500   75.4530  221.3800 C   0  0  0  0  0  0  0  0  0  0  0  0
  140.1490   76.0210  222.4240 O   0  0  0  0  0  0  0  0  0  0  0  0
  141.5280   76.0070  220.5070 N   0  0  0  0  0  0  0  0  0  0  0  0
  141.6890   77.4310  220.4630 C   0  0  0  0  0  0  0  0  0  0  0  0
  142.1890   77.9770  219.1740 C   0  0  0  0  0  0  0  0  0  0  0  0
  142.3680   76.9760  218.0810 C   0  0  0  0  0  0  0  0  0  0  0  0
  142.9830   75.6740  218.5330 C   0  0  0  0  0  0  0  0  0  0  0  0
  142.2990   75.0690  219.7130 C   0  0  1  0  0  0  0  0  0  0  0  0
  143.2590   74.2670  220.6040 C   0  0  0  0  0  0  0  0  0  0  0  0
  142.9560   72.8230  220.4140 C   0  0  0  0  0  0  0  0  0  0  0  0
  144.0540   71.8700  220.7840 C   0  0  0  0  0  0  0  0  0  0  0  0
  145.2320   72.2830  219.9260 C   0  0  0  0  0  0  0  0  0  0  0  0
  145.6890   73.5760  220.5530 C   0  0  0  0  0  0  0  0  0  0  0  0
  144.6690   74.6800  220.4600 C   0  0  0  0  0  0  0  0  0  0  0  0
  139.9920   71.1560  223.4730 C   0  0  0  0  0  0  0  0  0  0  0  0
  139.4330   69.8930  223.3700 C   0  0  0  0  0  0  0  0  0  0  0  0
  139.3100   69.0730  224.4900 C   0  0  0  0  0  0  0  0  0  0  0  0
  139.7680   69.5700  225.7030 C   0  0  0  0  0  0  0  0  0  0  0  0
  139.6640   68.7900  226.8260 C   0  0  0  0  0  0  0  0  0  0  0  0
  140.1040   69.2400  228.0490 C   0  0  0  0  0  0  0  0  0  0  0  0
  140.0190   68.5010  229.1800 F   0  0  0  0  0  0  0  0  0  0  0  0
  140.6600   70.5100  228.1170 C   0  0  0  0  0  0  0  0  0  0  0  0
  140.7650   71.2940  226.9860 C   0  0  0  0  0  0  0  0  0  0  0  0
  140.3210   70.8340  225.7700 C   0  0  0  0  0  0  0  0  0  0  0  0
  140.4250   71.6050  224.6610 N   0  0  0  0  0  0  0  0  0  0  0  0
  139.5740   73.7850  223.2400 H   0  0  0  0  0  0  0  0  0  0  0  0
  140.5492   73.5650  220.3682 H   0  0  0  0  0  0  0  0  0  0  0  0
  138.9218   74.2602  220.6575 H   0  0  0  0  0  0  0  0  0  0  0  0
  140.7106   77.8896  220.6690 H   0  0  0  0  0  0  0  0  0  0  0  0
  142.4572   77.6723  221.2125 H   0  0  0  0  0  0  0  0  0  0  0  0
  141.4722   78.7352  218.8257 H   0  0  0  0  0  0  0  0  0  0  0  0
  143.1911   78.3793  219.3836 H   0  0  0  0  0  0  0  0  0  0  0  0
  141.3812   76.7593  217.6459 H   0  0  0  0  0  0  0  0  0  0  0  0
  143.0641   77.4205  217.3545 H   0  0  0  0  0  0  0  0  0  0  0  0
  142.9354   74.9586  217.6987 H   0  0  0  0  0  0  0  0  0  0  0  0
  144.0171   75.8937  218.8368 H   0  0  0  0  0  0  0  0  0  0  0  0
  141.5725   74.3718  219.2701 H   0  0  0  0  0  0  0  0  0  0  0  0
  143.0921   74.4899  221.6682 H   0  0  0  0  0  0  0  0  0  0  0  0
  142.0767   72.5793  221.0283 H   0  0  0  0  0  0  0  0  0  0  0  0
  142.7982   72.6911  219.3334 H   0  0  0  0  0  0  0  0  0  0  0  0
  144.3020   71.9607  221.8518 H   0  0  0  0  0  0  0  0  0  0  0  0
  143.7668   70.8214  220.6170 H   0  0  0  0  0  0  0  0  0  0  0  0
  146.0289   71.5256  219.9617 H   0  0  0  0  0  0  0  0  0  0  0  0
  144.9703   72.3916  218.8631 H   0  0  0  0  0  0  0  0  0  0  0  0
  145.9061   73.3906  221.6153 H   0  0  0  0  0  0  0  0  0  0  0  0
  146.5787   73.9088  219.9983 H   0  0  0  0  0  0  0  0  0  0  0  0
  144.8892   75.4103  221.2526 H   0  0  0  0  0  0  0  0  0  0  0  0
  144.7589   75.0842  219.4409 H   0  0  0  0  0  0  0  0  0  0  0  0
  139.0817   69.5327  222.3919 H   0  0  0  0  0  0  0  0  0  0  0  0
  138.8665   68.0691  224.4159 H   0  0  0  0  0  0  0  0  0  0  0  0
  139.2207   67.7864  226.7474 H   0  0  0  0  0  0  0  0  0  0  0  0
  141.0206   70.8955  229.0821 H   0  0  0  0  0  0  0  0  0  0  0  0
  141.2089   72.2978  227.0590 H   0  0  0  0  0  0  0  0  0  0  0  0
  1  2  2  0
  2  3  1  0
  3  4  1  0
  4  5  1  0
  5  6  2  0
  5  7  1  0
  7  8  1  0
  8  9  1  0
  9 10  1  0
 10 11  1  0
 11 12  1  0
 12 13  1  0
 13 14  1  0
 14 15  1  0
 15 16  1  0
 16 17  1  0
 17 18  1  0
  2 19  1  0
 19 20  2  0
 20 21  1  0
 21 22  2  0
 22 23  1  0
 23 24  2  0
 24 25  1  0
 24 26  1  0
 26 27  2  0
 27 28  1  0
 28 29  2  0
 12  7  1  0
 18 13  1  0
 29 19  1  0
 28 22  1  0
  3 30  1  0
  4 31  1  0
  4 32  1  0
  8 33  1  0
  8 34  1  0
  9 35  1  0
  9 36  1  0
 10 37  1  0
 10 38  1  0
 11 39  1  0
 11 40  1  0
 12 41  1  6
 13 42  1  0
 14 43  1  0
 14 44  1  0
 15 45  1  0
 15 46  1  0
 16 47  1  0
 16 48  1  0
 17 49  1  0
 17 50  1  0
 18 51  1  0
 18 52  1  0
 20 53  1  0
 21 54  1  0
 23 55  1  0
 26 56  1  0
 27 57  1  0
M  END
>  <smiles>  (80) 
O=C(NCC(=O)N1CCCCC1C1CCCCC1)c1ccc2cc(F)ccc2n1

>  <score_type>  (80) 
oracle

>  <origin>  (80) 
autodockgpu

>  <m_score__min__energy>  (80) 
-9.0199999999999996

>  <m_primary>  (80) 
energy

>  <rmsd>  (80) 
2.224503596664384

>  <m_score__min__rmsd>  (80) 
2.224503596664384

>  <meeko>  (80) 
{"free_energy": -8.62, "intermolecular_energy": -10.11, "internal_energy": -2.14, "cluster_size": 24, "cluster_id": 2, "rank_in_cluster": 13}

>  <energy>  (80) 
-8.65

>  <cluster_rmsd>  (80) 
0.46

>  <cluster>  (80) 
2

$$$$

     RDKit          3D

 57 60  0  0  0  0  0  0  0  0999 V2000
  140.3320   71.6970  221.0710 O   0  0  0  0  0  0  0  0  0  0  0  0
  140.0470   72.1990  222.1970 C   0  0  0  0  0  0  0  0  0  0  0  0
  139.7870   73.6030  222.2900 N   0  0  0  0  0  0  0  0  0  0  0  0
  139.8700   74.3720  221.0640 C   0  0  0  0  0  0  0  0  0  0  0  0
  140.6500   75.6330  221.3280 C   0  0  0  0  0  0  0  0  0  0  0  0
  140.3680   76.2320  222.3930 O   0  0  0  0  0  0  0  0  0  0  0  0
  141.6360   76.0860  220.4050 N   0  0  0  0  0  0  0  0  0  0  0  0
  141.8640   77.4950  220.2740 C   0  0  0  0  0  0  0  0  0  0  0  0
  142.3630   77.9400  218.9460 C   0  0  0  0  0  0  0  0  0  0  0  0
  142.4690   76.8690  217.9110 C   0  0  0  0  0  0  0  0  0  0  0  0
  143.0310   75.5670  218.4280 C   0  0  0  0  0  0  0  0  0  0  0  0
  142.3430   75.0670  219.6540 C   0  0  1  0  0  0  0  0  0  0  0  0
  143.2820   74.2710  220.5730 C   0  0  0  0  0  0  0  0  0  0  0  0
  142.9800   72.8260  220.3900 C   0  0  0  0  0  0  0  0  0  0  0  0
  144.0670   71.8740  220.7930 C   0  0  0  0  0  0  0  0  0  0  0  0
  145.2650   72.2770  219.9570 C   0  0  0  0  0  0  0  0  0  0  0  0
  145.7110   73.5750  220.5810 C   0  0  0  0  0  0  0  0  0  0  0  0
  144.6960   74.6790  220.4560 C   0  0  0  0  0  0  0  0  0  0  0  0
  139.9730   71.3860  223.4140 C   0  0  0  0  0  0  0  0  0  0  0  0
  139.4220   70.1200  223.3030 C   0  0  0  0  0  0  0  0  0  0  0  0
  139.3160   69.2870  224.4150 C   0  0  0  0  0  0  0  0  0  0  0  0
  139.7830   69.7740  225.6280 C   0  0  0  0  0  0  0  0  0  0  0  0
  139.6960   68.9800  226.7440 C   0  0  0  0  0  0  0  0  0  0  0  0
  140.1460   69.4190  227.9670 C   0  0  0  0  0  0  0  0  0  0  0  0
  140.0780   68.6670  229.0900 F   0  0  0  0  0  0  0  0  0  0  0  0
  140.6940   70.6920  228.0440 C   0  0  0  0  0  0  0  0  0  0  0  0
  140.7810   71.4900  226.9210 C   0  0  0  0  0  0  0  0  0  0  0  0
  140.3280   71.0400  225.7040 C   0  0  0  0  0  0  0  0  0  0  0  0
  140.4150   71.8240  224.6020 N   0  0  0  0  0  0  0  0  0  0  0  0
  139.5520   74.0170  223.2180 H   0  0  0  0  0  0  0  0  0  0  0  0
  140.3791   73.7786  220.2902 H   0  0  0  0  0  0  0  0  0  0  0  0
  138.8581   74.6269  220.7160 H   0  0  0  0  0  0  0  0  0  0  0  0
  140.9131   78.0122  220.4699 H   0  0  0  0  0  0  0  0  0  0  0  0
  142.6581   77.7415  220.9941 H   0  0  0  0  0  0  0  0  0  0  0  0
  141.6772   78.7120  218.5668 H   0  0  0  0  0  0  0  0  0  0  0  0
  143.3878   78.3032  219.1130 H   0  0  0  0  0  0  0  0  0  0  0  0
  141.4634   76.6760  217.5091 H   0  0  0  0  0  0  0  0  0  0  0  0
  143.1689   77.2353  217.1455 H   0  0  0  0  0  0  0  0  0  0  0  0
  142.9320   74.8072  217.6388 H   0  0  0  0  0  0  0  0  0  0  0  0
  144.0808   75.7526  218.6990 H   0  0  0  0  0  0  0  0  0  0  0  0
  141.5736   74.3831  219.2664 H   0  0  0  0  0  0  0  0  0  0  0  0
  143.0923   74.5048  221.6310 H   0  0  0  0  0  0  0  0  0  0  0  0
  142.0867   72.5900  220.9870 H   0  0  0  0  0  0  0  0  0  0  0  0
  142.8461   72.6843  219.3074 H   0  0  0  0  0  0  0  0  0  0  0  0
  144.2916   71.9739  221.8652 H   0  0  0  0  0  0  0  0  0  0  0  0
  143.7811   70.8245  220.6295 H   0  0  0  0  0  0  0  0  0  0  0  0
  146.0594   71.5185  220.0175 H   0  0  0  0  0  0  0  0  0  0  0  0
  145.0267   72.3760  218.8877 H   0  0  0  0  0  0  0  0  0  0  0  0
  145.9052   73.3995  221.6494 H   0  0  0  0  0  0  0  0  0  0  0  0
  146.6128   73.9010  220.0421 H   0  0  0  0  0  0  0  0  0  0  0  0
  144.9006   75.4161  221.2465 H   0  0  0  0  0  0  0  0  0  0  0  0
  144.8087   75.0729  219.4351 H   0  0  0  0  0  0  0  0  0  0  0  0
  139.0635   69.7677  222.3245 H   0  0  0  0  0  0  0  0  0  0  0  0
  138.8785   68.2810  224.3345 H   0  0  0  0  0  0  0  0  0  0  0  0
  139.2584   67.9744  226.6587 H   0  0  0  0  0  0  0  0  0  0  0  0
  141.0626   71.0687  229.0095 H   0  0  0  0  0  0  0  0  0  0  0  0
  141.2175   72.4965  227.0010 H   0  0  0  0  0  0  0  0  0  0  0  0
  1  2  2  0
  2  3  1  0
  3  4  1  0
  4  5  1  0
  5  6  2  0
  5  7  1  0
  7  8  1  0
  8  9  1  0
  9 10  1  0
 10 11  1  0
 11 12  1  0
 12 13  1  0
 13 14  1  0
 14 15  1  0
 15 16  1  0
 16 17  1  0
 17 18  1  0
  2 19  1  0
 19 20  2  0
 20 21  1  0
 21 22  2  0
 22 23  1  0
 23 24  2  0
 24 25  1  0
 24 26  1  0
 26 27  2  0
 27 28  1  0
 28 29  2  0
 12  7  1  0
 18 13  1  0
 29 19  1  0
 28 22  1  0
  3 30  1  0
  4 31  1  0
  4 32  1  0
  8 33  1  0
  8 34  1  0
  9 35  1  0
  9 36  1  0
 10 37  1  0
 10 38  1  0
 11 39  1  0
 11 40  1  0
 12 41  1  6
 13 42  1  0
 14 43  1  0
 14 44  1  0
 15 45  1  0
 15 46  1  0
 16 47  1  0
 16 48  1  0
 17 49  1  0
 17 50  1  0
 18 51  1  0
 18 52  1  0
 20 53  1  0
 21 54  1  0
 23 55  1  0
 26 56  1  0
 27 57  1  0
M  END
>  <smiles>  (81) 
O=C(NCC(=O)N1CCCCC1C1CCCCC1)c1ccc2cc(F)ccc2n1

>  <score_type>  (81) 
oracle

>  <origin>  (81) 
autodockgpu

>  <m_score__min__energy>  (81) 
-9.0199999999999996

>  <m_primary>  (81) 
energy

>  <rmsd>  (81) 
2.266606997939964

>  <m_score__min__rmsd>  (81) 
2.266606997939964

>  <meeko>  (81) 
{"free_energy": -8.61, "intermolecular_energy": -10.1, "internal_energy": -2.14, "cluster_size": 24, "cluster_id": 2, "rank_in_cluster": 15}

>  <energy>  (81) 
-8.65

>  <cluster_rmsd>  (81) 
0.21

>  <cluster>  (81) 
2

$$$$

     RDKit          3D

 57 60  0  0  0  0  0  0  0  0999 V2000
  141.0320   72.0340  221.2910 O   0  0  0  0  0  0  0  0  0  0  0  0
  140.3810   72.3840  222.3180 C   0  0  0  0  0  0  0  0  0  0  0  0
  139.7620   73.6730  222.3460 N   0  0  0  0  0  0  0  0  0  0  0  0
  139.9260   74.5110  221.1750 C   0  0  0  0  0  0  0  0  0  0  0  0
  139.3710   75.8800  221.4680 C   0  0  0  0  0  0  0  0  0  0  0  0
  138.4750   75.9250  222.3440 O   0  0  0  0  0  0  0  0  0  0  0  0
  139.8560   77.0260  220.7750 N   0  0  0  0  0  0  0  0  0  0  0  0
  139.0540   77.5910  219.7290 C   0  0  0  0  0  0  0  0  0  0  0  0
  139.8080   78.3020  218.6620 C   0  0  0  0  0  0  0  0  0  0  0  0
  141.2950   78.2490  218.7850 C   0  0  0  0  0  0  0  0  0  0  0  0
  141.8030   78.4370  220.1930 C   0  0  0  0  0  0  0  0  0  0  0  0
  141.1470   77.5400  221.1890 C   0  0  1  0  0  0  0  0  0  0  0  0
  141.0550   78.1750  222.5850 C   0  0  0  0  0  0  0  0  0  0  0  0
  142.2420   79.0540  222.7630 C   0  0  0  0  0  0  0  0  0  0  0  0
  142.1130   80.1230  223.8070 C   0  0  0  0  0  0  0  0  0  0  0  0
  140.9070   80.9370  223.3830 C   0  0  0  0  0  0  0  0  0  0  0  0
  139.7430   80.0300  223.6910 C   0  0  0  0  0  0  0  0  0  0  0  0
  139.7330   78.7680  222.8690 C   0  0  0  0  0  0  0  0  0  0  0  0
  140.2380   71.5070  223.4840 C   0  0  0  0  0  0  0  0  0  0  0  0
  139.6130   70.2860  223.2900 C   0  0  0  0  0  0  0  0  0  0  0  0
  139.4390   69.3970  224.3490 C   0  0  0  0  0  0  0  0  0  0  0  0
  139.9150   69.7820  225.5950 C   0  0  0  0  0  0  0  0  0  0  0  0
  139.7610   68.9310  226.6600 C   0  0  0  0  0  0  0  0  0  0  0  0
  140.2160   69.2700  227.9140 C   0  0  0  0  0  0  0  0  0  0  0  0
  140.0840   68.4590  228.9890 F   0  0  0  0  0  0  0  0  0  0  0  0
  140.8380   70.5010  228.0730 C   0  0  0  0  0  0  0  0  0  0  0  0
  140.9920   71.3560  227.0000 C   0  0  0  0  0  0  0  0  0  0  0  0
  140.5330   71.0070  225.7530 C   0  0  0  0  0  0  0  0  0  0  0  0
  140.6850   71.8480  224.7010 N   0  0  0  0  0  0  0  0  0  0  0  0
  139.2240   73.9620  223.1920 H   0  0  0  0  0  0  0  0  0  0  0  0
  140.9945   74.5920  220.9266 H   0  0  0  0  0  0  0  0  0  0  0  0
  139.3891   74.0676  220.3235 H   0  0  0  0  0  0  0  0  0  0  0  0
  138.4865   76.7750  219.2577 H   0  0  0  0  0  0  0  0  0  0  0  0
  138.4191   78.3500  220.2094 H   0  0  0  0  0  0  0  0  0  0  0  0
  139.5312   77.8553  217.6956 H   0  0  0  0  0  0  0  0  0  0  0  0
  139.5339   79.3634  218.7530 H   0  0  0  0  0  0  0  0  0  0  0  0
  141.6370   77.2685  218.4223 H   0  0  0  0  0  0  0  0  0  0  0  0
  141.6928   79.0842  218.1898 H   0  0  0  0  0  0  0  0  0  0  0  0
  142.8843   78.2354  220.2025 H   0  0  0  0  0  0  0  0  0  0  0  0
  141.5679   79.4710  220.4856 H   0  0  0  0  0  0  0  0  0  0  0  0
  141.8193   76.6713  221.2474 H   0  0  0  0  0  0  0  0  0  0  0  0
  141.1047   77.4096  223.3735 H   0  0  0  0  0  0  0  0  0  0  0  0
  143.0958   78.4166  223.0366 H   0  0  0  0  0  0  0  0  0  0  0  0
  142.3668   79.5840  221.8072 H   0  0  0  0  0  0  0  0  0  0  0  0
  141.9499   79.6774  224.7994 H   0  0  0  0  0  0  0  0  0  0  0  0
  143.0216   80.7380  223.8851 H   0  0  0  0  0  0  0  0  0  0  0  0
  140.8408   81.8711  223.9600 H   0  0  0  0  0  0  0  0  0  0  0  0
  140.9454   81.2403  222.3263 H   0  0  0  0  0  0  0  0  0  0  0  0
  139.7890   79.7528  224.7545 H   0  0  0  0  0  0  0  0  0  0  0  0
  138.8256   80.5847  223.4447 H   0  0  0  0  0  0  0  0  0  0  0  0
  139.1359   78.0184  223.4090 H   0  0  0  0  0  0  0  0  0  0  0  0
  139.3169   79.0520  221.8911 H   0  0  0  0  0  0  0  0  0  0  0  0
  139.2496   70.0149  222.2878 H   0  0  0  0  0  0  0  0  0  0  0  0
  138.9428   68.4262  224.2030 H   0  0  0  0  0  0  0  0  0  0  0  0
  139.2652   67.9607  226.5091 H   0  0  0  0  0  0  0  0  0  0  0  0
  141.2119   70.7981  229.0639 H   0  0  0  0  0  0  0  0  0  0  0  0
  141.4876   72.3272  227.1451 H   0  0  0  0  0  0  0  0  0  0  0  0
  1  2  2  0
  2  3  1  0
  3  4  1  0
  4  5  1  0
  5  6  2  0
  5  7  1  0
  7  8  1  0
  8  9  1  0
  9 10  1  0
 10 11  1  0
 11 12  1  0
 12 13  1  0
 13 14  1  0
 14 15  1  0
 15 16  1  0
 16 17  1  0
 17 18  1  0
  2 19  1  0
 19 20  2  0
 20 21  1  0
 21 22  2  0
 22 23  1  0
 23 24  2  0
 24 25  1  0
 24 26  1  0
 26 27  2  0
 27 28  1  0
 28 29  2  0
 12  7  1  0
 18 13  1  0
 29 19  1  0
 28 22  1  0
  3 30  1  0
  4 31  1  0
  4 32  1  0
  8 33  1  0
  8 34  1  0
  9 35  1  0
  9 36  1  0
 10 37  1  0
 10 38  1  0
 11 39  1  0
 11 40  1  0
 12 41  1  1
 13 42  1  0
 14 43  1  0
 14 44  1  0
 15 45  1  0
 15 46  1  0
 16 47  1  0
 16 48  1  0
 17 49  1  0
 17 50  1  0
 18 51  1  0
 18 52  1  0
 20 53  1  0
 21 54  1  0
 23 55  1  0
 26 56  1  0
 27 57  1  0
M  END
>  <smiles>  (82) 
O=C(NCC(=O)N1CCCCC1C1CCCCC1)c1ccc2cc(F)ccc2n1

>  <score_type>  (82) 
oracle

>  <origin>  (82) 
autodockgpu

>  <m_score__min__energy>  (82) 
-9.0199999999999996

>  <m_primary>  (82) 
energy

>  <rmsd>  (82) 
1.9460644311335957

>  <m_score__min__rmsd>  (82) 
1.9460644311335957

>  <meeko>  (82) 
{"free_energy": -8.69, "intermolecular_energy": -10.18, "internal_energy": -1.94, "cluster_size": 24, "cluster_id": 1, "rank_in_cluster": 15}

>  <energy>  (82) 
-8.64

>  <cluster_rmsd>  (82) 
0.26

>  <cluster>  (82) 
2

$$$$

     RDKit          3D

 57 60  0  0  0  0  0  0  0  0999 V2000
  140.8550   71.9230  221.1980 O   0  0  0  0  0  0  0  0  0  0  0  0
  140.2670   72.3470  222.2360 C   0  0  0  0  0  0  0  0  0  0  0  0
  139.7130   73.6670  222.2330 N   0  0  0  0  0  0  0  0  0  0  0  0
  139.8650   74.4440  221.0190 C   0  0  0  0  0  0  0  0  0  0  0  0
  140.9150   75.5010  221.2410 C   0  0  0  0  0  0  0  0  0  0  0  0
  140.9040   76.0470  222.3700 O   0  0  0  0  0  0  0  0  0  0  0  0
  141.8420   75.8330  220.2130 N   0  0  0  0  0  0  0  0  0  0  0  0
  142.1790   77.2110  220.0050 C   0  0  0  0  0  0  0  0  0  0  0  0
  142.5840   77.5660  218.6190 C   0  0  0  0  0  0  0  0  0  0  0  0
  142.4970   76.4580  217.6230 C   0  0  0  0  0  0  0  0  0  0  0  0
  142.9900   75.1280  218.1370 C   0  0  0  0  0  0  0  0  0  0  0  0
  142.3830   74.7300  219.4420 C   0  0  1  0  0  0  0  0  0  0  0  0
  143.3330   73.8820  220.3010 C   0  0  0  0  0  0  0  0  0  0  0  0
  143.3120   72.4940  219.7660 C   0  0  0  0  0  0  0  0  0  0  0  0
  144.4940   71.6410  220.1160 C   0  0  0  0  0  0  0  0  0  0  0  0
  145.6920   72.3990  219.5810 C   0  0  0  0  0  0  0  0  0  0  0  0
  145.8290   73.5610  220.5320 C   0  0  0  0  0  0  0  0  0  0  0  0
  144.6570   74.5060  220.4930 C   0  0  0  0  0  0  0  0  0  0  0  0
  140.1340   71.5290  223.4440 C   0  0  0  0  0  0  0  0  0  0  0  0
  139.4510   70.3300  223.3280 C   0  0  0  0  0  0  0  0  0  0  0  0
  139.2820   69.4950  224.4320 C   0  0  0  0  0  0  0  0  0  0  0  0
  139.8230   69.9120  225.6410 C   0  0  0  0  0  0  0  0  0  0  0  0
  139.6770   69.1150  226.7480 C   0  0  0  0  0  0  0  0  0  0  0  0
  140.1970   69.4870  227.9660 C   0  0  0  0  0  0  0  0  0  0  0  0
  140.0740   68.7300  229.0810 F   0  0  0  0  0  0  0  0  0  0  0  0
  140.8760   70.6950  228.0470 C   0  0  0  0  0  0  0  0  0  0  0  0
  141.0230   71.4960  226.9320 C   0  0  0  0  0  0  0  0  0  0  0  0
  140.4990   71.1140  225.7200 C   0  0  0  0  0  0  0  0  0  0  0  0
  140.6450   71.9010  224.6270 N   0  0  0  0  0  0  0  0  0  0  0  0
  139.2280   74.0170  223.0870 H   0  0  0  0  0  0  0  0  0  0  0  0
  140.1746   73.7841  220.1952 H   0  0  0  0  0  0  0  0  0  0  0  0
  138.9077   74.9200  220.7603 H   0  0  0  0  0  0  0  0  0  0  0  0
  141.3007   77.8187  220.2682 H   0  0  0  0  0  0  0  0  0  0  0  0
  143.0575   77.4071  220.6373 H   0  0  0  0  0  0  0  0  0  0  0  0
  141.9340   78.3838  218.2745 H   0  0  0  0  0  0  0  0  0  0  0  0
  143.6478   77.8404  218.6750 H   0  0  0  0  0  0  0  0  0  0  0  0
  141.4446   76.3442  217.3238 H   0  0  0  0  0  0  0  0  0  0  0  0
  143.1499   76.7351  216.7822 H   0  0  0  0  0  0  0  0  0  0  0  0
  142.7491   74.3559  217.3914 H   0  0  0  0  0  0  0  0  0  0  0  0
  144.0731   75.2268  218.3014 H   0  0  0  0  0  0  0  0  0  0  0  0
  141.5244   74.1045  219.1564 H   0  0  0  0  0  0  0  0  0  0  0  0
  142.9839   73.8268  221.3427 H   0  0  0  0  0  0  0  0  0  0  0  0
  142.4106   71.9967  220.1535 H   0  0  0  0  0  0  0  0  0  0  0  0
  143.3315   72.5960  218.6709 H   0  0  0  0  0  0  0  0  0  0  0  0
  144.5710   71.5144  221.2060 H   0  0  0  0  0  0  0  0  0  0  0  0
  144.4176   70.6306  219.6878 H   0  0  0  0  0  0  0  0  0  0  0  0
  146.5941   71.7698  219.5970 H   0  0  0  0  0  0  0  0  0  0  0  0
  145.5659   72.7150  218.5349 H   0  0  0  0  0  0  0  0  0  0  0  0
  145.9247   73.1659  221.5541 H   0  0  0  0  0  0  0  0  0  0  0  0
  146.7171   74.1315  220.2225 H   0  0  0  0  0  0  0  0  0  0  0  0
  144.6356   75.0562  221.4453 H   0  0  0  0  0  0  0  0  0  0  0  0
  144.8170   75.1432  219.6107 H   0  0  0  0  0  0  0  0  0  0  0  0
  139.0368   70.0327  222.3533 H   0  0  0  0  0  0  0  0  0  0  0  0
  138.7402   68.5414  224.3483 H   0  0  0  0  0  0  0  0  0  0  0  0
  139.1347   68.1620  226.6601 H   0  0  0  0  0  0  0  0  0  0  0  0
  141.3012   71.0173  229.0090 H   0  0  0  0  0  0  0  0  0  0  0  0
  141.5650   72.4496  227.0145 H   0  0  0  0  0  0  0  0  0  0  0  0
  1  2  2  0
  2  3  1  0
  3  4  1  0
  4  5  1  0
  5  6  2  0
  5  7  1  0
  7  8  1  0
  8  9  1  0
  9 10  1  0
 10 11  1  0
 11 12  1  0
 12 13  1  0
 13 14  1  0
 14 15  1  0
 15 16  1  0
 16 17  1  0
 17 18  1  0
  2 19  1  0
 19 20  2  0
 20 21  1  0
 21 22  2  0
 22 23  1  0
 23 24  2  0
 24 25  1  0
 24 26  1  0
 26 27  2  0
 27 28  1  0
 28 29  2  0
 12  7  1  0
 18 13  1  0
 29 19  1  0
 28 22  1  0
  3 30  1  0
  4 31  1  0
  4 32  1  0
  8 33  1  0
  8 34  1  0
  9 35  1  0
  9 36  1  0
 10 37  1  0
 10 38  1  0
 11 39  1  0
 11 40  1  0
 12 41  1  6
 13 42  1  0
 14 43  1  0
 14 44  1  0
 15 45  1  0
 15 46  1  0
 16 47  1  0
 16 48  1  0
 17 49  1  0
 17 50  1  0
 18 51  1  0
 18 52  1  0
 20 53  1  0
 21 54  1  0
 23 55  1  0
 26 56  1  0
 27 57  1  0
M  END
>  <smiles>  (83) 
O=C(NCC(=O)N1CCCCC1C1CCCCC1)c1ccc2cc(F)ccc2n1

>  <score_type>  (83) 
oracle

>  <origin>  (83) 
autodockgpu

>  <m_score__min__energy>  (83) 
-9.0199999999999996

>  <m_primary>  (83) 
energy

>  <rmsd>  (83) 
2.336171935658564

>  <m_score__min__rmsd>  (83) 
2.336171935658564

>  <meeko>  (83) 
{"free_energy": -8.67, "intermolecular_energy": -10.17, "internal_energy": -1.94, "cluster_size": 24, "cluster_id": 2, "rank_in_cluster": 4}

>  <energy>  (83) 
-8.64

>  <cluster_rmsd>  (83) 
0.26

>  <cluster>  (83) 
2

$$$$

     RDKit          3D

 57 60  0  0  0  0  0  0  0  0999 V2000
  140.2900   71.8610  221.0300 O   0  0  0  0  0  0  0  0  0  0  0  0
  140.0270   72.3240  222.1780 C   0  0  0  0  0  0  0  0  0  0  0  0
  139.7640   73.7240  222.3220 N   0  0  0  0  0  0  0  0  0  0  0  0
  139.8170   74.5330  221.1210 C   0  0  0  0  0  0  0  0  0  0  0  0
  140.8040   75.6510  221.3260 C   0  0  0  0  0  0  0  0  0  0  0  0
  140.7180   76.2560  222.4210 O   0  0  0  0  0  0  0  0  0  0  0  0
  141.7590   75.9750  220.3190 N   0  0  0  0  0  0  0  0  0  0  0  0
  142.1030   77.3500  220.1100 C   0  0  0  0  0  0  0  0  0  0  0  0
  142.5440   77.6950  218.7330 C   0  0  0  0  0  0  0  0  0  0  0  0
  142.4800   76.5800  217.7430 C   0  0  0  0  0  0  0  0  0  0  0  0
  142.9570   75.2520  218.2780 C   0  0  0  0  0  0  0  0  0  0  0  0
  142.3160   74.8650  219.5700 C   0  0  1  0  0  0  0  0  0  0  0  0
  143.2420   74.0220  220.4580 C   0  0  0  0  0  0  0  0  0  0  0  0
  143.0190   72.5910  220.1170 C   0  0  0  0  0  0  0  0  0  0  0  0
  144.1280   71.6500  220.4860 C   0  0  0  0  0  0  0  0  0  0  0  0
  145.3470   72.1850  219.7630 C   0  0  0  0  0  0  0  0  0  0  0  0
  145.6980   73.4310  220.5370 C   0  0  0  0  0  0  0  0  0  0  0  0
  144.6390   74.4990  220.4620 C   0  0  0  0  0  0  0  0  0  0  0  0
  139.9820   71.4720  223.3690 C   0  0  0  0  0  0  0  0  0  0  0  0
  139.4710   70.1930  223.2180 C   0  0  0  0  0  0  0  0  0  0  0  0
  139.3950   69.3220  224.3040 C   0  0  0  0  0  0  0  0  0  0  0  0
  139.8490   69.7860  225.5310 C   0  0  0  0  0  0  0  0  0  0  0  0
  139.7900   68.9550  226.6220 C   0  0  0  0  0  0  0  0  0  0  0  0
  140.2280   69.3710  227.8580 C   0  0  0  0  0  0  0  0  0  0  0  0
  140.1870   68.5820  228.9570 F   0  0  0  0  0  0  0  0  0  0  0  0
  140.7350   70.6580  227.9740 C   0  0  0  0  0  0  0  0  0  0  0  0
  140.7940   71.4930  226.8760 C   0  0  0  0  0  0  0  0  0  0  0  0
  140.3530   71.0670  225.6460 C   0  0  0  0  0  0  0  0  0  0  0  0
  140.4120   71.8870  224.5700 N   0  0  0  0  0  0  0  0  0  0  0  0
  139.5460   74.1070  223.2680 H   0  0  0  0  0  0  0  0  0  0  0  0
  140.1354   73.9112  220.2713 H   0  0  0  0  0  0  0  0  0  0  0  0
  138.8214   74.9504  220.9100 H   0  0  0  0  0  0  0  0  0  0  0  0
  141.2190   77.9606  220.3462 H   0  0  0  0  0  0  0  0  0  0  0  0
  142.9654   77.5492  220.7631 H   0  0  0  0  0  0  0  0  0  0  0  0
  141.9048   78.5117  218.3664 H   0  0  0  0  0  0  0  0  0  0  0  0
  143.6065   77.9682  218.8141 H   0  0  0  0  0  0  0  0  0  0  0  0
  141.4352   76.4662  217.4181 H   0  0  0  0  0  0  0  0  0  0  0  0
  143.1550   76.8500  216.9175 H   0  0  0  0  0  0  0  0  0  0  0  0
  142.7330   74.4754  217.5319 H   0  0  0  0  0  0  0  0  0  0  0  0
  144.0360   75.3488  218.4686 H   0  0  0  0  0  0  0  0  0  0  0  0
  141.4630   74.2396  219.2679 H   0  0  0  0  0  0  0  0  0  0  0  0
  142.9867   74.1403  221.5214 H   0  0  0  0  0  0  0  0  0  0  0  0
  142.1079   72.2586  220.6361 H   0  0  0  0  0  0  0  0  0  0  0  0
  142.9486   72.5534  219.0199 H   0  0  0  0  0  0  0  0  0  0  0  0
  144.2912   71.6512  221.5738 H   0  0  0  0  0  0  0  0  0  0  0  0
  143.9015   70.6110  220.2046 H   0  0  0  0  0  0  0  0  0  0  0  0
  146.1722   71.4582  219.7930 H   0  0  0  0  0  0  0  0  0  0  0  0
  145.1603   72.3817  218.6969 H   0  0  0  0  0  0  0  0  0  0  0  0
  145.8428   73.1568  221.5924 H   0  0  0  0  0  0  0  0  0  0  0  0
  146.6114   73.8468  220.0868 H   0  0  0  0  0  0  0  0  0  0  0  0
  144.7665   75.1617  221.3307 H   0  0  0  0  0  0  0  0  0  0  0  0
  144.7865   74.9971  219.4924 H   0  0  0  0  0  0  0  0  0  0  0  0
  139.1211   69.8608  222.2295 H   0  0  0  0  0  0  0  0  0  0  0  0
  138.9904   68.3052  224.1927 H   0  0  0  0  0  0  0  0  0  0  0  0
  139.3854   67.9387  226.5059 H   0  0  0  0  0  0  0  0  0  0  0  0
  141.0933   71.0162  228.9504 H   0  0  0  0  0  0  0  0  0  0  0  0
  141.1983   72.5100  226.9869 H   0  0  0  0  0  0  0  0  0  0  0  0
  1  2  2  0
  2  3  1  0
  3  4  1  0
  4  5  1  0
  5  6  2  0
  5  7  1  0
  7  8  1  0
  8  9  1  0
  9 10  1  0
 10 11  1  0
 11 12  1  0
 12 13  1  0
 13 14  1  0
 14 15  1  0
 15 16  1  0
 16 17  1  0
 17 18  1  0
  2 19  1  0
 19 20  2  0
 20 21  1  0
 21 22  2  0
 22 23  1  0
 23 24  2  0
 24 25  1  0
 24 26  1  0
 26 27  2  0
 27 28  1  0
 28 29  2  0
 12  7  1  0
 18 13  1  0
 29 19  1  0
 28 22  1  0
  3 30  1  0
  4 31  1  0
  4 32  1  0
  8 33  1  0
  8 34  1  0
  9 35  1  0
  9 36  1  0
 10 37  1  0
 10 38  1  0
 11 39  1  0
 11 40  1  0
 12 41  1  6
 13 42  1  0
 14 43  1  0
 14 44  1  0
 15 45  1  0
 15 46  1  0
 16 47  1  0
 16 48  1  0
 17 49  1  0
 17 50  1  0
 18 51  1  0
 18 52  1  0
 20 53  1  0
 21 54  1  0
 23 55  1  0
 26 56  1  0
 27 57  1  0
M  END
>  <smiles>  (84) 
O=C(NCC(=O)N1CCCCC1C1CCCCC1)c1ccc2cc(F)ccc2n1

>  <score_type>  (84) 
oracle

>  <origin>  (84) 
autodockgpu

>  <m_score__min__energy>  (84) 
-9.0199999999999996

>  <m_primary>  (84) 
energy

>  <rmsd>  (84) 
2.295326690226099

>  <m_score__min__rmsd>  (84) 
2.295326690226099

>  <meeko>  (84) 
{"free_energy": -8.53, "intermolecular_energy": -10.03, "internal_energy": -2.13, "cluster_size": 24, "cluster_id": 2, "rank_in_cluster": 21}

>  <energy>  (84) 
-8.64

>  <cluster_rmsd>  (84) 
0.36

>  <cluster>  (84) 
2

$$$$

     RDKit          3D

 57 60  0  0  0  0  0  0  0  0999 V2000
  140.3330   71.7700  221.0650 O   0  0  0  0  0  0  0  0  0  0  0  0
  140.0590   72.2640  222.1980 C   0  0  0  0  0  0  0  0  0  0  0  0
  139.8040   73.6680  222.3040 N   0  0  0  0  0  0  0  0  0  0  0  0
  139.8800   74.4470  221.0840 C   0  0  0  0  0  0  0  0  0  0  0  0
  140.7730   75.6370  221.3160 C   0  0  0  0  0  0  0  0  0  0  0  0
  140.5890   76.2510  222.3940 O   0  0  0  0  0  0  0  0  0  0  0  0
  141.7500   76.0130  220.3510 N   0  0  0  0  0  0  0  0  0  0  0  0
  142.0670   77.4020  220.1940 C   0  0  0  0  0  0  0  0  0  0  0  0
  142.5440   77.7980  218.8420 C   0  0  0  0  0  0  0  0  0  0  0  0
  142.5390   76.7110  217.8180 C   0  0  0  0  0  0  0  0  0  0  0  0
  143.0310   75.3800  218.3310 C   0  0  0  0  0  0  0  0  0  0  0  0
  142.3590   74.9400  219.5880 C   0  0  1  0  0  0  0  0  0  0  0  0
  143.2770   74.0930  220.4820 C   0  0  0  0  0  0  0  0  0  0  0  0
  143.0060   72.6610  220.1840 C   0  0  0  0  0  0  0  0  0  0  0  0
  144.0930   71.6980  220.5570 C   0  0  0  0  0  0  0  0  0  0  0  0
  145.3140   72.1770  219.7980 C   0  0  0  0  0  0  0  0  0  0  0  0
  145.7160   73.4320  220.5320 C   0  0  0  0  0  0  0  0  0  0  0  0
  144.6870   74.5290  220.4480 C   0  0  0  0  0  0  0  0  0  0  0  0
  139.9920   71.4410  223.4090 C   0  0  0  0  0  0  0  0  0  0  0  0
  139.4430   70.1750  223.2900 C   0  0  0  0  0  0  0  0  0  0  0  0
  139.3440   69.3330  224.3960 C   0  0  0  0  0  0  0  0  0  0  0  0
  139.8160   69.8110  225.6110 C   0  0  0  0  0  0  0  0  0  0  0  0
  139.7350   69.0090  226.7210 C   0  0  0  0  0  0  0  0  0  0  0  0
  140.1890   69.4400  227.9460 C   0  0  0  0  0  0  0  0  0  0  0  0
  140.1280   68.6790  229.0630 F   0  0  0  0  0  0  0  0  0  0  0  0
  140.7350   70.7130  228.0300 C   0  0  0  0  0  0  0  0  0  0  0  0
  140.8150   71.5200  226.9120 C   0  0  0  0  0  0  0  0  0  0  0  0
  140.3580   71.0790  225.6940 C   0  0  0  0  0  0  0  0  0  0  0  0
  140.4380   71.8720  224.5990 N   0  0  0  0  0  0  0  0  0  0  0  0
  139.5770   74.0760  223.2370 H   0  0  0  0  0  0  0  0  0  0  0  0
  140.2949   73.8268  220.2758 H   0  0  0  0  0  0  0  0  0  0  0  0
  138.8741   74.7879  220.7979 H   0  0  0  0  0  0  0  0  0  0  0  0
  141.1612   77.9844  220.4185 H   0  0  0  0  0  0  0  0  0  0  0  0
  142.9024   77.6021  220.8811 H   0  0  0  0  0  0  0  0  0  0  0  0
  141.8974   78.6101  218.4782 H   0  0  0  0  0  0  0  0  0  0  0  0
  143.5964   78.0932  218.9660 H   0  0  0  0  0  0  0  0  0  0  0  0
  141.5084   76.5822  217.4558 H   0  0  0  0  0  0  0  0  0  0  0  0
  143.2328   77.0209  217.0226 H   0  0  0  0  0  0  0  0  0  0  0  0
  142.8511   74.6204  217.5560 H   0  0  0  0  0  0  0  0  0  0  0  0
  144.1003   75.4976  218.5606 H   0  0  0  0  0  0  0  0  0  0  0  0
  141.5321   74.3041  219.2388 H   0  0  0  0  0  0  0  0  0  0  0  0
  143.0453   74.2462  221.5464 H   0  0  0  0  0  0  0  0  0  0  0  0
  142.0959   72.3696  220.7288 H   0  0  0  0  0  0  0  0  0  0  0  0
  142.9136   72.5967  219.0898 H   0  0  0  0  0  0  0  0  0  0  0  0
  144.2768   71.7225  221.6413 H   0  0  0  0  0  0  0  0  0  0  0  0
  143.8305   70.6594  220.3070 H   0  0  0  0  0  0  0  0  0  0  0  0
  146.1177   71.4268  219.8328 H   0  0  0  0  0  0  0  0  0  0  0  0
  145.1135   72.3510  218.7305 H   0  0  0  0  0  0  0  0  0  0  0  0
  145.8729   73.1813  221.5915 H   0  0  0  0  0  0  0  0  0  0  0  0
  146.6324   73.8086  220.0541 H   0  0  0  0  0  0  0  0  0  0  0  0
  144.8500   75.2099  221.2964 H   0  0  0  0  0  0  0  0  0  0  0  0
  144.8305   74.9976  219.4632 H   0  0  0  0  0  0  0  0  0  0  0  0
  139.0806   69.8299  222.3104 H   0  0  0  0  0  0  0  0  0  0  0  0
  138.9080   68.3268  224.3095 H   0  0  0  0  0  0  0  0  0  0  0  0
  139.2992   68.0031  226.6299 H   0  0  0  0  0  0  0  0  0  0  0  0
  141.1078   71.0830  228.9965 H   0  0  0  0  0  0  0  0  0  0  0  0
  141.2494   72.5269  226.9979 H   0  0  0  0  0  0  0  0  0  0  0  0
  1  2  2  0
  2  3  1  0
  3  4  1  0
  4  5  1  0
  5  6  2  0
  5  7  1  0
  7  8  1  0
  8  9  1  0
  9 10  1  0
 10 11  1  0
 11 12  1  0
 12 13  1  0
 13 14  1  0
 14 15  1  0
 15 16  1  0
 16 17  1  0
 17 18  1  0
  2 19  1  0
 19 20  2  0
 20 21  1  0
 21 22  2  0
 22 23  1  0
 23 24  2  0
 24 25  1  0
 24 26  1  0
 26 27  2  0
 27 28  1  0
 28 29  2  0
 12  7  1  0
 18 13  1  0
 29 19  1  0
 28 22  1  0
  3 30  1  0
  4 31  1  0
  4 32  1  0
  8 33  1  0
  8 34  1  0
  9 35  1  0
  9 36  1  0
 10 37  1  0
 10 38  1  0
 11 39  1  0
 11 40  1  0
 12 41  1  6
 13 42  1  0
 14 43  1  0
 14 44  1  0
 15 45  1  0
 15 46  1  0
 16 47  1  0
 16 48  1  0
 17 49  1  0
 17 50  1  0
 18 51  1  0
 18 52  1  0
 20 53  1  0
 21 54  1  0
 23 55  1  0
 26 56  1  0
 27 57  1  0
M  END
>  <smiles>  (85) 
O=C(NCC(=O)N1CCCCC1C1CCCCC1)c1ccc2cc(F)ccc2n1

>  <score_type>  (85) 
oracle

>  <origin>  (85) 
autodockgpu

>  <m_score__min__energy>  (85) 
-9.0199999999999996

>  <m_primary>  (85) 
energy

>  <rmsd>  (85) 
2.3082258090285386

>  <m_score__min__rmsd>  (85) 
2.3082258090285386

>  <meeko>  (85) 
{"free_energy": -8.6, "intermolecular_energy": -10.09, "internal_energy": -2.13, "cluster_size": 24, "cluster_id": 2, "rank_in_cluster": 18}

>  <energy>  (85) 
-8.63

>  <cluster_rmsd>  (85) 
0.36

>  <cluster>  (85) 
2

$$$$

     RDKit          3D

 57 60  0  0  0  0  0  0  0  0999 V2000
  139.7250   71.4540  221.1300 O   0  0  0  0  0  0  0  0  0  0  0  0
  139.7050   71.9630  222.2880 C   0  0  0  0  0  0  0  0  0  0  0  0
  139.5990   73.3830  222.4250 N   0  0  0  0  0  0  0  0  0  0  0  0
  139.5200   74.1600  221.2030 C   0  0  0  0  0  0  0  0  0  0  0  0
  139.9000   75.5860  221.5030 C   0  0  0  0  0  0  0  0  0  0  0  0
  139.7490   75.9480  222.6940 O   0  0  0  0  0  0  0  0  0  0  0  0
  140.3940   76.4400  220.4760 N   0  0  0  0  0  0  0  0  0  0  0  0
  139.8240   76.3430  219.1640 C   0  0  0  0  0  0  0  0  0  0  0  0
  140.7280   76.7220  218.0460 C   0  0  0  0  0  0  0  0  0  0  0  0
  142.1260   77.0640  218.4420 C   0  0  0  0  0  0  0  0  0  0  0  0
  142.2240   77.9070  219.6900 C   0  0  0  0  0  0  0  0  0  0  0  0
  141.4550   77.3560  220.8440 C   0  0  1  0  0  0  0  0  0  0  0  0
  140.9240   78.4540  221.7770 C   0  0  0  0  0  0  0  0  0  0  0  0
  141.5630   78.2700  223.1080 C   0  0  0  0  0  0  0  0  0  0  0  0
  141.5780   79.4750  223.9990 C   0  0  0  0  0  0  0  0  0  0  0  0
  142.3080   80.5380  223.2020 C   0  0  0  0  0  0  0  0  0  0  0  0
  141.3140   80.9250  222.1370 C   0  0  0  0  0  0  0  0  0  0  0  0
  140.9910   79.8050  221.1840 C   0  0  0  0  0  0  0  0  0  0  0  0
  139.7870   71.1420  223.5000 C   0  0  0  0  0  0  0  0  0  0  0  0
  139.3050   69.8460  223.4240 C   0  0  0  0  0  0  0  0  0  0  0  0
  139.3470   69.0030  224.5340 C   0  0  0  0  0  0  0  0  0  0  0  0
  139.8880   69.5120  225.7060 C   0  0  0  0  0  0  0  0  0  0  0  0
  139.9470   68.7100  226.8180 C   0  0  0  0  0  0  0  0  0  0  0  0
  140.4740   69.1720  228.0020 C   0  0  0  0  0  0  0  0  0  0  0  0
  140.5500   68.4130  229.1190 F   0  0  0  0  0  0  0  0  0  0  0  0
  140.9480   70.4760  228.0430 C   0  0  0  0  0  0  0  0  0  0  0  0
  140.8890   71.2820  226.9230 C   0  0  0  0  0  0  0  0  0  0  0  0
  140.3600   70.8100  225.7460 C   0  0  0  0  0  0  0  0  0  0  0  0
  140.3030   71.6020  224.6490 N   0  0  0  0  0  0  0  0  0  0  0  0
  139.5810   73.8040  223.3790 H   0  0  0  0  0  0  0  0  0  0  0  0
  140.2116   73.7435  220.4558 H   0  0  0  0  0  0  0  0  0  0  0  0
  138.4949   74.1244  220.8057 H   0  0  0  0  0  0  0  0  0  0  0  0
  139.5089   75.3008  219.0072 H   0  0  0  0  0  0  0  0  0  0  0  0
  138.9939   77.0644  219.1402 H   0  0  0  0  0  0  0  0  0  0  0  0
  140.7713   75.8771  217.3430 H   0  0  0  0  0  0  0  0  0  0  0  0
  140.3034   77.6382  217.6097 H   0  0  0  0  0  0  0  0  0  0  0  0
  142.6754   76.1267  218.6142 H   0  0  0  0  0  0  0  0  0  0  0  0
  142.5511   77.6610  217.6217 H   0  0  0  0  0  0  0  0  0  0  0  0
  143.2828   77.9780  219.9796 H   0  0  0  0  0  0  0  0  0  0  0  0
  141.7892   78.8889  219.4515 H   0  0  0  0  0  0  0  0  0  0  0  0
  142.1962   76.7602  221.3969 H   0  0  0  0  0  0  0  0  0  0  0  0
  139.8391   78.3535  221.9284 H   0  0  0  0  0  0  0  0  0  0  0  0
  141.0225   77.4689  223.6335 H   0  0  0  0  0  0  0  0  0  0  0  0
  142.6185   78.0388  222.9021 H   0  0  0  0  0  0  0  0  0  0  0  0
  140.5524   79.7994  224.2290 H   0  0  0  0  0  0  0  0  0  0  0  0
  142.0659   79.2716  224.9637 H   0  0  0  0  0  0  0  0  0  0  0  0
  142.5604   81.4006  223.8361 H   0  0  0  0  0  0  0  0  0  0  0  0
  143.2628   80.1821  222.7875 H   0  0  0  0  0  0  0  0  0  0  0  0
  140.3830   81.2438  222.6285 H   0  0  0  0  0  0  0  0  0  0  0  0
  141.7701   81.7326  221.5457 H   0  0  0  0  0  0  0  0  0  0  0  0
  140.0139   80.0218  220.7276 H   0  0  0  0  0  0  0  0  0  0  0  0
  141.8241   79.7746  220.4663 H   0  0  0  0  0  0  0  0  0  0  0  0
  138.8841   69.4772  222.4770 H   0  0  0  0  0  0  0  0  0  0  0  0
  138.9654   67.9726  224.4824 H   0  0  0  0  0  0  0  0  0  0  0  0
  139.5662   67.6795  226.7617 H   0  0  0  0  0  0  0  0  0  0  0  0
  141.3748   70.8713  228.9766 H   0  0  0  0  0  0  0  0  0  0  0  0
  141.2696   72.3128  226.9738 H   0  0  0  0  0  0  0  0  0  0  0  0
  1  2  2  0
  2  3  1  0
  3  4  1  0
  4  5  1  0
  5  6  2  0
  5  7  1  0
  7  8  1  0
  8  9  1  0
  9 10  1  0
 10 11  1  0
 11 12  1  0
 12 13  1  0
 13 14  1  0
 14 15  1  0
 15 16  1  0
 16 17  1  0
 17 18  1  0
  2 19  1  0
 19 20  2  0
 20 21  1  0
 21 22  2  0
 22 23  1  0
 23 24  2  0
 24 25  1  0
 24 26  1  0
 26 27  2  0
 27 28  1  0
 28 29  2  0
 12  7  1  0
 18 13  1  0
 29 19  1  0
 28 22  1  0
  3 30  1  0
  4 31  1  0
  4 32  1  0
  8 33  1  0
  8 34  1  0
  9 35  1  0
  9 36  1  0
 10 37  1  0
 10 38  1  0
 11 39  1  0
 11 40  1  0
 12 41  1  1
 13 42  1  0
 14 43  1  0
 14 44  1  0
 15 45  1  0
 15 46  1  0
 16 47  1  0
 16 48  1  0
 17 49  1  0
 17 50  1  0
 18 51  1  0
 18 52  1  0
 20 53  1  0
 21 54  1  0
 23 55  1  0
 26 56  1  0
 27 57  1  0
M  END
>  <smiles>  (86) 
O=C(NCC(=O)N1CCCCC1C1CCCCC1)c1ccc2cc(F)ccc2n1

>  <score_type>  (86) 
oracle

>  <origin>  (86) 
autodockgpu

>  <m_score__min__energy>  (86) 
-9.0199999999999996

>  <m_primary>  (86) 
energy

>  <rmsd>  (86) 
1.33026565013693

>  <m_score__min__rmsd>  (86) 
1.33026565013693

>  <meeko>  (86) 
{"free_energy": -8.6, "intermolecular_energy": -10.09, "internal_energy": -1.97, "cluster_size": 24, "cluster_id": 1, "rank_in_cluster": 19}

>  <energy>  (86) 
-8.63

>  <cluster_rmsd>  (86) 
0.31

>  <cluster>  (86) 
2

$$$$

     RDKit          3D

 57 60  0  0  0  0  0  0  0  0999 V2000
  140.4450   71.8460  221.0360 O   0  0  0  0  0  0  0  0  0  0  0  0
  140.1390   72.3080  222.1740 C   0  0  0  0  0  0  0  0  0  0  0  0
  139.8260   73.6990  222.3010 N   0  0  0  0  0  0  0  0  0  0  0  0
  139.8820   74.5020  221.0960 C   0  0  0  0  0  0  0  0  0  0  0  0
  140.8720   75.6190  221.2950 C   0  0  0  0  0  0  0  0  0  0  0  0
  140.7960   76.2190  222.3940 O   0  0  0  0  0  0  0  0  0  0  0  0
  141.8160   75.9460  220.2810 N   0  0  0  0  0  0  0  0  0  0  0  0
  142.1510   77.3240  220.0670 C   0  0  0  0  0  0  0  0  0  0  0  0
  142.5790   77.6680  218.6850 C   0  0  0  0  0  0  0  0  0  0  0  0
  142.5130   76.5520  217.6970 C   0  0  0  0  0  0  0  0  0  0  0  0
  143.0010   75.2280  218.2310 C   0  0  0  0  0  0  0  0  0  0  0  0
  142.3730   74.8390  219.5280 C   0  0  1  0  0  0  0  0  0  0  0  0
  143.3110   74.0020  220.4100 C   0  0  0  0  0  0  0  0  0  0  0  0
  143.1540   72.5760  220.0160 C   0  0  0  0  0  0  0  0  0  0  0  0
  144.2890   71.6670  220.3800 C   0  0  0  0  0  0  0  0  0  0  0  0
  145.5030   72.2740  219.7060 C   0  0  0  0  0  0  0  0  0  0  0  0
  145.7860   73.5050  220.5290 C   0  0  0  0  0  0  0  0  0  0  0  0
  144.6880   74.5330  220.4650 C   0  0  0  0  0  0  0  0  0  0  0  0
  140.0930   71.4630  223.3700 C   0  0  0  0  0  0  0  0  0  0  0  0
  139.5720   70.1870  223.2290 C   0  0  0  0  0  0  0  0  0  0  0  0
  139.4940   69.3230  224.3200 C   0  0  0  0  0  0  0  0  0  0  0  0
  139.9580   69.7900  225.5420 C   0  0  0  0  0  0  0  0  0  0  0  0
  139.8970   68.9660  226.6380 C   0  0  0  0  0  0  0  0  0  0  0  0
  140.3450   69.3850  227.8700 C   0  0  0  0  0  0  0  0  0  0  0  0
  140.3020   68.6030  228.9730 F   0  0  0  0  0  0  0  0  0  0  0  0
  140.8620   70.6680  227.9760 C   0  0  0  0  0  0  0  0  0  0  0  0
  140.9220   71.4970  226.8730 C   0  0  0  0  0  0  0  0  0  0  0  0
  140.4710   71.0670  225.6480 C   0  0  0  0  0  0  0  0  0  0  0  0
  140.5320   71.8820  224.5660 N   0  0  0  0  0  0  0  0  0  0  0  0
  139.5730   74.0810  223.2390 H   0  0  0  0  0  0  0  0  0  0  0  0
  140.1991   73.8749  220.2497 H   0  0  0  0  0  0  0  0  0  0  0  0
  138.8876   74.9212  220.8830 H   0  0  0  0  0  0  0  0  0  0  0  0
  141.2657   77.9303  220.3092 H   0  0  0  0  0  0  0  0  0  0  0  0
  143.0171   77.5298  220.7131 H   0  0  0  0  0  0  0  0  0  0  0  0
  141.9327   78.4808  218.3222 H   0  0  0  0  0  0  0  0  0  0  0  0
  143.6409   77.9456  218.7574 H   0  0  0  0  0  0  0  0  0  0  0  0
  141.4664   76.4323  217.3802 H   0  0  0  0  0  0  0  0  0  0  0  0
  143.1796   76.8242  216.8654 H   0  0  0  0  0  0  0  0  0  0  0  0
  142.7756   74.4489  217.4879 H   0  0  0  0  0  0  0  0  0  0  0  0
  144.0808   75.3319  218.4136 H   0  0  0  0  0  0  0  0  0  0  0  0
  141.5212   74.2088  219.2324 H   0  0  0  0  0  0  0  0  0  0  0  0
  143.0255   74.0733  221.4699 H   0  0  0  0  0  0  0  0  0  0  0  0
  142.2449   72.1906  220.5008 H   0  0  0  0  0  0  0  0  0  0  0  0
  143.1120   72.5740  218.9168 H   0  0  0  0  0  0  0  0  0  0  0  0
  144.4263   71.6364  221.4710 H   0  0  0  0  0  0  0  0  0  0  0  0
  144.1103   70.6305  220.0580 H   0  0  0  0  0  0  0  0  0  0  0  0
  146.3554   71.5793  219.7324 H   0  0  0  0  0  0  0  0  0  0  0  0
  145.3337   72.4999  218.6428 H   0  0  0  0  0  0  0  0  0  0  0  0
  145.9177   73.2005  221.5778 H   0  0  0  0  0  0  0  0  0  0  0  0
  146.6918   73.9714  220.1144 H   0  0  0  0  0  0  0  0  0  0  0  0
  144.7688   75.1688  221.3590 H   0  0  0  0  0  0  0  0  0  0  0  0
  144.8382   75.0710  219.5173 H   0  0  0  0  0  0  0  0  0  0  0  0
  139.2155   69.8516  222.2439 H   0  0  0  0  0  0  0  0  0  0  0  0
  139.0802   68.3091  224.2165 H   0  0  0  0  0  0  0  0  0  0  0  0
  139.4827   67.9528  226.5297 H   0  0  0  0  0  0  0  0  0  0  0  0
  141.2279   71.0288  228.9486 H   0  0  0  0  0  0  0  0  0  0  0  0
  141.3348   72.5114  226.9760 H   0  0  0  0  0  0  0  0  0  0  0  0
  1  2  2  0
  2  3  1  0
  3  4  1  0
  4  5  1  0
  5  6  2  0
  5  7  1  0
  7  8  1  0
  8  9  1  0
  9 10  1  0
 10 11  1  0
 11 12  1  0
 12 13  1  0
 13 14  1  0
 14 15  1  0
 15 16  1  0
 16 17  1  0
 17 18  1  0
  2 19  1  0
 19 20  2  0
 20 21  1  0
 21 22  2  0
 22 23  1  0
 23 24  2  0
 24 25  1  0
 24 26  1  0
 26 27  2  0
 27 28  1  0
 28 29  2  0
 12  7  1  0
 18 13  1  0
 29 19  1  0
 28 22  1  0
  3 30  1  0
  4 31  1  0
  4 32  1  0
  8 33  1  0
  8 34  1  0
  9 35  1  0
  9 36  1  0
 10 37  1  0
 10 38  1  0
 11 39  1  0
 11 40  1  0
 12 41  1  6
 13 42  1  0
 14 43  1  0
 14 44  1  0
 15 45  1  0
 15 46  1  0
 16 47  1  0
 16 48  1  0
 17 49  1  0
 17 50  1  0
 18 51  1  0
 18 52  1  0
 20 53  1  0
 21 54  1  0
 23 55  1  0
 26 56  1  0
 27 57  1  0
M  END
>  <smiles>  (87) 
O=C(NCC(=O)N1CCCCC1C1CCCCC1)c1ccc2cc(F)ccc2n1

>  <score_type>  (87) 
oracle

>  <origin>  (87) 
autodockgpu

>  <m_score__min__energy>  (87) 
-9.0199999999999996

>  <m_primary>  (87) 
energy

>  <rmsd>  (87) 
2.3156941359722945

>  <m_score__min__rmsd>  (87) 
2.3156941359722945

>  <meeko>  (87) 
{"free_energy": -8.57, "intermolecular_energy": -10.06, "internal_energy": -2.1, "cluster_size": 24, "cluster_id": 2, "rank_in_cluster": 20}

>  <energy>  (87) 
-8.62

>  <cluster_rmsd>  (87) 
0.18

>  <cluster>  (87) 
2

$$$$

     RDKit          3D

 57 60  0  0  0  0  0  0  0  0999 V2000
  140.3880   71.7230  221.0550 O   0  0  0  0  0  0  0  0  0  0  0  0
  140.0860   72.2310  222.1740 C   0  0  0  0  0  0  0  0  0  0  0  0
  139.8250   73.6350  222.2550 N   0  0  0  0  0  0  0  0  0  0  0  0
  139.9270   74.3980  221.0270 C   0  0  0  0  0  0  0  0  0  0  0  0
  140.7690   75.6210  221.2760 C   0  0  0  0  0  0  0  0  0  0  0  0
  140.5280   76.2360  222.3430 O   0  0  0  0  0  0  0  0  0  0  0  0
  141.7630   76.0250  220.3400 N   0  0  0  0  0  0  0  0  0  0  0  0
  142.0640   77.4210  220.2110 C   0  0  0  0  0  0  0  0  0  0  0  0
  142.5660   77.8440  218.8770 C   0  0  0  0  0  0  0  0  0  0  0  0
  142.5980   76.7750  217.8370 C   0  0  0  0  0  0  0  0  0  0  0  0
  143.0970   75.4420  218.3390 C   0  0  0  0  0  0  0  0  0  0  0  0
  142.4020   74.9730  219.5740 C   0  0  1  0  0  0  0  0  0  0  0  0
  143.3110   74.1230  220.4750 C   0  0  0  0  0  0  0  0  0  0  0  0
  143.0260   72.6920  220.1880 C   0  0  0  0  0  0  0  0  0  0  0  0
  144.1030   71.7210  220.5700 C   0  0  0  0  0  0  0  0  0  0  0  0
  145.3290   72.1820  219.8070 C   0  0  0  0  0  0  0  0  0  0  0  0
  145.7430   73.4380  220.5310 C   0  0  0  0  0  0  0  0  0  0  0  0
  144.7260   74.5440  220.4380 C   0  0  0  0  0  0  0  0  0  0  0  0
  139.9930   71.4240  223.3940 C   0  0  0  0  0  0  0  0  0  0  0  0
  139.4160   70.1700  223.2860 C   0  0  0  0  0  0  0  0  0  0  0  0
  139.2910   69.3430  224.4020 C   0  0  0  0  0  0  0  0  0  0  0  0
  139.7660   69.8250  225.6140 C   0  0  0  0  0  0  0  0  0  0  0  0
  139.6610   69.0380  226.7320 C   0  0  0  0  0  0  0  0  0  0  0  0
  140.1170   69.4740  227.9550 C   0  0  0  0  0  0  0  0  0  0  0  0
  140.0320   68.7280  229.0810 F   0  0  0  0  0  0  0  0  0  0  0  0
  140.6900   70.7360  228.0280 C   0  0  0  0  0  0  0  0  0  0  0  0
  140.7960   71.5270  226.9020 C   0  0  0  0  0  0  0  0  0  0  0  0
  140.3360   71.0810  225.6860 C   0  0  0  0  0  0  0  0  0  0  0  0
  140.4410   71.8590  224.5810 N   0  0  0  0  0  0  0  0  0  0  0  0
  139.5760   74.0550  223.1770 H   0  0  0  0  0  0  0  0  0  0  0  0
  140.3963   73.7801  220.2472 H   0  0  0  0  0  0  0  0  0  0  0  0
  138.9232   74.7004  220.6939 H   0  0  0  0  0  0  0  0  0  0  0  0
  141.1452   77.9874  220.4232 H   0  0  0  0  0  0  0  0  0  0  0  0
  142.8806   77.6220  220.9201 H   0  0  0  0  0  0  0  0  0  0  0  0
  141.9174   78.6538  218.5115 H   0  0  0  0  0  0  0  0  0  0  0  0
  143.6115   78.1498  219.0296 H   0  0  0  0  0  0  0  0  0  0  0  0
  141.5773   76.6385  217.4504 H   0  0  0  0  0  0  0  0  0  0  0  0
  143.3048   77.1071  217.0623 H   0  0  0  0  0  0  0  0  0  0  0  0
  142.9448   74.6929  217.5480 H   0  0  0  0  0  0  0  0  0  0  0  0
  144.1594   75.5693  218.5941 H   0  0  0  0  0  0  0  0  0  0  0  0
  141.5912   74.3330  219.1959 H   0  0  0  0  0  0  0  0  0  0  0  0
  143.0799   74.2868  221.5379 H   0  0  0  0  0  0  0  0  0  0  0  0
  142.1124   72.4141  220.7339 H   0  0  0  0  0  0  0  0  0  0  0  0
  142.9341   72.6200  219.0942 H   0  0  0  0  0  0  0  0  0  0  0  0
  144.2867   71.7529  221.6541 H   0  0  0  0  0  0  0  0  0  0  0  0
  143.8303   70.6829  220.3292 H   0  0  0  0  0  0  0  0  0  0  0  0
  146.1253   71.4242  219.8477 H   0  0  0  0  0  0  0  0  0  0  0  0
  145.1303   72.3495  218.7382 H   0  0  0  0  0  0  0  0  0  0  0  0
  145.8968   73.1940  221.5925 H   0  0  0  0  0  0  0  0  0  0  0  0
  146.6633   73.8016  220.0506 H   0  0  0  0  0  0  0  0  0  0  0  0
  144.8958   75.2300  221.2810 H   0  0  0  0  0  0  0  0  0  0  0  0
  144.8745   75.0030  219.4495 H   0  0  0  0  0  0  0  0  0  0  0  0
  139.0518   69.8218  222.3082 H   0  0  0  0  0  0  0  0  0  0  0  0
  138.8330   68.3459  224.3247 H   0  0  0  0  0  0  0  0  0  0  0  0
  139.2042   68.0407  226.6498 H   0  0  0  0  0  0  0  0  0  0  0  0
  141.0634   71.1095  228.9929 H   0  0  0  0  0  0  0  0  0  0  0  0
  141.2533   72.5245  226.9785 H   0  0  0  0  0  0  0  0  0  0  0  0
  1  2  2  0
  2  3  1  0
  3  4  1  0
  4  5  1  0
  5  6  2  0
  5  7  1  0
  7  8  1  0
  8  9  1  0
  9 10  1  0
 10 11  1  0
 11 12  1  0
 12 13  1  0
 13 14  1  0
 14 15  1  0
 15 16  1  0
 16 17  1  0
 17 18  1  0
  2 19  1  0
 19 20  2  0
 20 21  1  0
 21 22  2  0
 22 23  1  0
 23 24  2  0
 24 25  1  0
 24 26  1  0
 26 27  2  0
 27 28  1  0
 28 29  2  0
 12  7  1  0
 18 13  1  0
 29 19  1  0
 28 22  1  0
  3 30  1  0
  4 31  1  0
  4 32  1  0
  8 33  1  0
  8 34  1  0
  9 35  1  0
  9 36  1  0
 10 37  1  0
 10 38  1  0
 11 39  1  0
 11 40  1  0
 12 41  1  6
 13 42  1  0
 14 43  1  0
 14 44  1  0
 15 45  1  0
 15 46  1  0
 16 47  1  0
 16 48  1  0
 17 49  1  0
 17 50  1  0
 18 51  1  0
 18 52  1  0
 20 53  1  0
 21 54  1  0
 23 55  1  0
 26 56  1  0
 27 57  1  0
M  END
>  <smiles>  (88) 
O=C(NCC(=O)N1CCCCC1C1CCCCC1)c1ccc2cc(F)ccc2n1

>  <score_type>  (88) 
oracle

>  <origin>  (88) 
autodockgpu

>  <m_score__min__energy>  (88) 
-9.0199999999999996

>  <m_primary>  (88) 
energy

>  <rmsd>  (88) 
2.3214514208685513

>  <m_score__min__rmsd>  (88) 
2.3214514208685513

>  <meeko>  (88) 
{"free_energy": -8.63, "intermolecular_energy": -10.12, "internal_energy": -2.12, "cluster_size": 24, "cluster_id": 2, "rank_in_cluster": 11}

>  <energy>  (88) 
-8.61

>  <cluster_rmsd>  (88) 
0.33

>  <cluster>  (88) 
2

$$$$

     RDKit          3D

 57 60  0  0  0  0  0  0  0  0999 V2000
  141.2920   72.3140  221.3580 O   0  0  0  0  0  0  0  0  0  0  0  0
  140.4890   72.5660  222.3030 C   0  0  0  0  0  0  0  0  0  0  0  0
  139.7610   73.7980  222.2910 N   0  0  0  0  0  0  0  0  0  0  0  0
  139.9960   74.6930  221.1750 C   0  0  0  0  0  0  0  0  0  0  0  0
  139.4890   76.0650  221.5310 C   0  0  0  0  0  0  0  0  0  0  0  0
  138.6950   76.1140  222.5000 O   0  0  0  0  0  0  0  0  0  0  0  0
  139.9040   77.2100  220.7920 N   0  0  0  0  0  0  0  0  0  0  0  0
  139.0430   77.7180  219.7650 C   0  0  0  0  0  0  0  0  0  0  0  0
  139.7290   78.4280  218.6530 C   0  0  0  0  0  0  0  0  0  0  0  0
  141.2200   78.4320  218.7190 C   0  0  0  0  0  0  0  0  0  0  0  0
  141.7740   78.6750  220.1010 C   0  0  0  0  0  0  0  0  0  0  0  0
  141.1900   77.7810  221.1430 C   0  0  1  0  0  0  0  0  0  0  0  0
  141.1270   78.4480  222.5250 C   0  0  0  0  0  0  0  0  0  0  0  0
  142.3890   79.2130  222.7180 C   0  0  0  0  0  0  0  0  0  0  0  0
  142.3400   80.3080  223.7410 C   0  0  0  0  0  0  0  0  0  0  0  0
  141.2280   81.2260  223.2740 C   0  0  0  0  0  0  0  0  0  0  0  0
  139.9750   80.4410  223.5680 C   0  0  0  0  0  0  0  0  0  0  0  0
  139.8630   79.1710  222.7670 C   0  0  0  0  0  0  0  0  0  0  0  0
  140.2790   71.6340  223.4140 C   0  0  0  0  0  0  0  0  0  0  0  0
  139.6140   70.4510  223.1360 C   0  0  0  0  0  0  0  0  0  0  0  0
  139.3750   69.5130  224.1390 C   0  0  0  0  0  0  0  0  0  0  0  0
  139.8280   69.8110  225.4170 C   0  0  0  0  0  0  0  0  0  0  0  0
  139.6120   68.9100  226.4280 C   0  0  0  0  0  0  0  0  0  0  0  0
  140.0420   69.1620  227.7110 C   0  0  0  0  0  0  0  0  0  0  0  0
  139.8480   68.3000  228.7350 F   0  0  0  0  0  0  0  0  0  0  0  0
  140.7060   70.3560  227.9550 C   0  0  0  0  0  0  0  0  0  0  0  0
  140.9230   71.2620  226.9360 C   0  0  0  0  0  0  0  0  0  0  0  0
  140.4880   71.0000  225.6590 C   0  0  0  0  0  0  0  0  0  0  0  0
  140.7030   71.8890  224.6600 N   0  0  0  0  0  0  0  0  0  0  0  0
  139.0980   74.0060  223.0690 H   0  0  0  0  0  0  0  0  0  0  0  0
  141.0742   74.7421  220.9625 H   0  0  0  0  0  0  0  0  0  0  0  0
  139.4686   74.3219  220.2839 H   0  0  0  0  0  0  0  0  0  0  0  0
  138.4890   76.8700  219.3360 H   0  0  0  0  0  0  0  0  0  0  0  0
  138.3987   78.4655  220.2510 H   0  0  0  0  0  0  0  0  0  0  0  0
  139.4324   77.9471  217.7092 H   0  0  0  0  0  0  0  0  0  0  0  0
  139.4195   79.4808  218.7292 H   0  0  0  0  0  0  0  0  0  0  0  0
  141.5841   77.4553  218.3675 H   0  0  0  0  0  0  0  0  0  0  0  0
  141.5635   79.2651  218.0882 H   0  0  0  0  0  0  0  0  0  0  0  0
  142.8617   78.5130  220.0733 H   0  0  0  0  0  0  0  0  0  0  0  0
  141.5123   79.7071  220.3772 H   0  0  0  0  0  0  0  0  0  0  0  0
  141.8959   76.9391  221.1964 H   0  0  0  0  0  0  0  0  0  0  0  0
  141.0838   77.6954  223.3261 H   0  0  0  0  0  0  0  0  0  0  0  0
  143.1712   78.5019  223.0224 H   0  0  0  0  0  0  0  0  0  0  0  0
  142.5855   79.7113  221.7572 H   0  0  0  0  0  0  0  0  0  0  0  0
  142.1119   79.8985  224.7361 H   0  0  0  0  0  0  0  0  0  0  0  0
  143.3017   80.8342  223.8318 H   0  0  0  0  0  0  0  0  0  0  0  0
  141.2389   82.1728  223.8338 H   0  0  0  0  0  0  0  0  0  0  0  0
  141.3197   81.5043  222.2137 H   0  0  0  0  0  0  0  0  0  0  0  0
  139.9694   80.1808  224.6368 H   0  0  0  0  0  0  0  0  0  0  0  0
  139.1212   81.0764  223.2901 H   0  0  0  0  0  0  0  0  0  0  0  0
  139.1841   78.4924  223.3042 H   0  0  0  0  0  0  0  0  0  0  0  0
  139.4997   79.4760  221.7745 H   0  0  0  0  0  0  0  0  0  0  0  0
  139.2702   70.2493  222.1108 H   0  0  0  0  0  0  0  0  0  0  0  0
  138.8471   68.5718  223.9259 H   0  0  0  0  0  0  0  0  0  0  0  0
  139.0857   67.9691  226.2097 H   0  0  0  0  0  0  0  0  0  0  0  0
  141.0630   70.5828  228.9704 H   0  0  0  0  0  0  0  0  0  0  0  0
  141.4499   72.2039  227.1487 H   0  0  0  0  0  0  0  0  0  0  0  0
  1  2  2  0
  2  3  1  0
  3  4  1  0
  4  5  1  0
  5  6  2  0
  5  7  1  0
  7  8  1  0
  8  9  1  0
  9 10  1  0
 10 11  1  0
 11 12  1  0
 12 13  1  0
 13 14  1  0
 14 15  1  0
 15 16  1  0
 16 17  1  0
 17 18  1  0
  2 19  1  0
 19 20  2  0
 20 21  1  0
 21 22  2  0
 22 23  1  0
 23 24  2  0
 24 25  1  0
 24 26  1  0
 26 27  2  0
 27 28  1  0
 28 29  2  0
 12  7  1  0
 18 13  1  0
 29 19  1  0
 28 22  1  0
  3 30  1  0
  4 31  1  0
  4 32  1  0
  8 33  1  0
  8 34  1  0
  9 35  1  0
  9 36  1  0
 10 37  1  0
 10 38  1  0
 11 39  1  0
 11 40  1  0
 12 41  1  1
 13 42  1  0
 14 43  1  0
 14 44  1  0
 15 45  1  0
 15 46  1  0
 16 47  1  0
 16 48  1  0
 17 49  1  0
 17 50  1  0
 18 51  1  0
 18 52  1  0
 20 53  1  0
 21 54  1  0
 23 55  1  0
 26 56  1  0
 27 57  1  0
M  END
>  <smiles>  (89) 
O=C(NCC(=O)N1CCCCC1C1CCCCC1)c1ccc2cc(F)ccc2n1

>  <score_type>  (89) 
oracle

>  <origin>  (89) 
autodockgpu

>  <m_score__min__energy>  (89) 
-9.0199999999999996

>  <m_primary>  (89) 
energy

>  <rmsd>  (89) 
2.0431119324608837

>  <m_score__min__rmsd>  (89) 
2.0431119324608837

>  <meeko>  (89) 
{"free_energy": -8.68, "intermolecular_energy": -10.17, "internal_energy": -1.97, "cluster_size": 24, "cluster_id": 1, "rank_in_cluster": 17}

>  <energy>  (89) 
-8.61

>  <cluster_rmsd>  (89) 
0.31

>  <cluster>  (89) 
2

$$$$

     RDKit          3D

 57 60  0  0  0  0  0  0  0  0999 V2000
  140.2720   74.1640  220.1550 O   0  0  0  0  0  0  0  0  0  0  0  0
  140.0930   74.7920  221.2390 C   0  0  0  0  0  0  0  0  0  0  0  0
  139.3670   74.1610  222.2990 N   0  0  0  0  0  0  0  0  0  0  0  0
  138.8750   72.8200  222.0560 C   0  0  0  0  0  0  0  0  0  0  0  0
  139.8660   71.8270  222.6030 C   0  0  0  0  0  0  0  0  0  0  0  0
  141.0210   72.2710  222.8070 O   0  0  0  0  0  0  0  0  0  0  0  0
  139.4820   70.4790  222.8580 N   0  0  0  0  0  0  0  0  0  0  0  0
  139.5060   69.5380  221.7770 C   0  0  0  0  0  0  0  0  0  0  0  0
  138.5450   68.4100  221.8930 C   0  0  0  0  0  0  0  0  0  0  0  0
  137.6300   68.4670  223.0720 C   0  0  0  0  0  0  0  0  0  0  0  0
  138.3020   68.8990  224.3520 C   0  0  0  0  0  0  0  0  0  0  0  0
  139.0880   70.1600  224.2160 C   0  0  1  0  0  0  0  0  0  0  0  0
  140.3020   70.2030  225.1570 C   0  0  0  0  0  0  0  0  0  0  0  0
  140.3270   71.5410  225.8070 C   0  0  0  0  0  0  0  0  0  0  0  0
  141.1000   71.6310  227.0880 C   0  0  0  0  0  0  0  0  0  0  0  0
  140.4570   70.6080  228.0030 C   0  0  0  0  0  0  0  0  0  0  0  0
  140.9130   69.2890  227.4320 C   0  0  0  0  0  0  0  0  0  0  0  0
  140.3930   69.0260  226.0440 C   0  0  0  0  0  0  0  0  0  0  0  0
  140.6070   76.1480  221.4460 C   0  0  0  0  0  0  0  0  0  0  0  0
  141.5550   76.6140  220.5490 C   0  0  0  0  0  0  0  0  0  0  0  0
  142.0920   77.8940  220.6790 C   0  0  0  0  0  0  0  0  0  0  0  0
  141.6410   78.6750  221.7340 C   0  0  0  0  0  0  0  0  0  0  0  0
  142.1480   79.9400  221.8920 C   0  0  0  0  0  0  0  0  0  0  0  0
  141.7310   80.7510  222.9230 C   0  0  0  0  0  0  0  0  0  0  0  0
  142.2060   82.0030  223.1120 F   0  0  0  0  0  0  0  0  0  0  0  0
  140.7800   80.2530  223.8030 C   0  0  0  0  0  0  0  0  0  0  0  0
  140.2710   78.9800  223.6430 C   0  0  0  0  0  0  0  0  0  0  0  0
  140.6950   78.1790  222.6100 C   0  0  0  0  0  0  0  0  0  0  0  0
  140.1940   76.9300  222.4540 N   0  0  0  0  0  0  0  0  0  0  0  0
  139.2180   74.6780  223.1930 H   0  0  0  0  0  0  0  0  0  0  0  0
  137.9048   72.6868  222.5570 H   0  0  0  0  0  0  0  0  0  0  0  0
  138.7482   72.6611  220.9749 H   0  0  0  0  0  0  0  0  0  0  0  0
  139.2802   70.0822  220.8481 H   0  0  0  0  0  0  0  0  0  0  0  0
  140.5084   69.0852  221.7911 H   0  0  0  0  0  0  0  0  0  0  0  0
  137.9263   68.3963  220.9836 H   0  0  0  0  0  0  0  0  0  0  0  0
  139.1551   67.5044  222.0262 H   0  0  0  0  0  0  0  0  0  0  0  0
  136.8221   69.1793  222.8484 H   0  0  0  0  0  0  0  0  0  0  0  0
  137.2605   67.4441  223.2369 H   0  0  0  0  0  0  0  0  0  0  0  0
  137.5270   69.0528  225.1173 H   0  0  0  0  0  0  0  0  0  0  0  0
  139.0106   68.1046  224.6292 H   0  0  0  0  0  0  0  0  0  0  0  0
  138.3831   70.9465  224.5234 H   0  0  0  0  0  0  0  0  0  0  0  0
  141.2425   70.1048  224.5950 H   0  0  0  0  0  0  0  0  0  0  0  0
  140.7696   72.2535  225.0953 H   0  0  0  0  0  0  0  0  0  0  0  0
  139.2829   71.7630  226.0726 H   0  0  0  0  0  0  0  0  0  0  0  0
  142.1593   71.3876  226.9189 H   0  0  0  0  0  0  0  0  0  0  0  0
  141.0756   72.6438  227.5166 H   0  0  0  0  0  0  0  0  0  0  0  0
  140.8081   70.7307  229.0382 H   0  0  0  0  0  0  0  0  0  0  0  0
  139.3617   70.7004  228.0462 H   0  0  0  0  0  0  0  0  0  0  0  0
  142.0125   69.2849  227.3989 H   0  0  0  0  0  0  0  0  0  0  0  0
  140.5134   68.4979  228.0835 H   0  0  0  0  0  0  0  0  0  0  0  0
  141.0615   68.2946  225.5664 H   0  0  0  0  0  0  0  0  0  0  0  0
  139.3603   68.6705  226.1748 H   0  0  0  0  0  0  0  0  0  0  0  0
  141.8877   75.9662  219.7246 H   0  0  0  0  0  0  0  0  0  0  0  0
  142.8453   78.2710  219.9716 H   0  0  0  0  0  0  0  0  0  0  0  0
  142.9011   80.3127  221.1821 H   0  0  0  0  0  0  0  0  0  0  0  0
  140.4285   80.8792  224.6363 H   0  0  0  0  0  0  0  0  0  0  0  0
  139.5177   78.6025  224.3501 H   0  0  0  0  0  0  0  0  0  0  0  0
  1  2  2  0
  2  3  1  0
  3  4  1  0
  4  5  1  0
  5  6  2  0
  5  7  1  0
  7  8  1  0
  8  9  1  0
  9 10  1  0
 10 11  1  0
 11 12  1  0
 12 13  1  0
 13 14  1  0
 14 15  1  0
 15 16  1  0
 16 17  1  0
 17 18  1  0
  2 19  1  0
 19 20  2  0
 20 21  1  0
 21 22  2  0
 22 23  1  0
 23 24  2  0
 24 25  1  0
 24 26  1  0
 26 27  2  0
 27 28  1  0
 28 29  2  0
 12  7  1  0
 18 13  1  0
 29 19  1  0
 28 22  1  0
  3 30  1  0
  4 31  1  0
  4 32  1  0
  8 33  1  0
  8 34  1  0
  9 35  1  0
  9 36  1  0
 10 37  1  0
 10 38  1  0
 11 39  1  0
 11 40  1  0
 12 41  1  1
 13 42  1  0
 14 43  1  0
 14 44  1  0
 15 45  1  0
 15 46  1  0
 16 47  1  0
 16 48  1  0
 17 49  1  0
 17 50  1  0
 18 51  1  0
 18 52  1  0
 20 53  1  0
 21 54  1  0
 23 55  1  0
 26 56  1  0
 27 57  1  0
M  END
>  <smiles>  (90) 
O=C(NCC(=O)N1CCCCC1C1CCCCC1)c1ccc2cc(F)ccc2n1

>  <score_type>  (90) 
oracle

>  <origin>  (90) 
autodockgpu

>  <m_score__min__energy>  (90) 
-9.0199999999999996

>  <m_primary>  (90) 
energy

>  <rmsd>  (90) 
8.525610375791043

>  <m_score__min__rmsd>  (90) 
8.525610375791043

>  <meeko>  (90) 
{"free_energy": -8.63, "intermolecular_energy": -10.12, "internal_energy": -1.66, "cluster_size": 1, "cluster_id": 3, "rank_in_cluster": 1}

>  <energy>  (90) 
-8.61

>  <cluster_rmsd>  (90) 
0.33

>  <cluster>  (90) 
2

$$$$

     RDKit          3D

 57 60  0  0  0  0  0  0  0  0999 V2000
  141.4010   72.7080  221.9770 O   0  0  0  0  0  0  0  0  0  0  0  0
  140.3420   72.6020  222.6620 C   0  0  0  0  0  0  0  0  0  0  0  0
  139.2290   73.4500  222.3610 N   0  0  0  0  0  0  0  0  0  0  0  0
  139.3920   74.3920  221.2720 C   0  0  0  0  0  0  0  0  0  0  0  0
  139.8260   75.7210  221.8330 C   0  0  0  0  0  0  0  0  0  0  0  0
  141.0630   75.8720  221.9730 O   0  0  0  0  0  0  0  0  0  0  0  0
  138.8660   76.7160  222.1720 N   0  0  0  0  0  0  0  0  0  0  0  0
  137.6400   76.3100  222.7950 C   0  0  0  0  0  0  0  0  0  0  0  0
  136.4740   77.1980  222.5450 C   0  0  0  0  0  0  0  0  0  0  0  0
  136.7220   78.3340  221.6100 C   0  0  0  0  0  0  0  0  0  0  0  0
  138.0470   79.0250  221.8190 C   0  0  0  0  0  0  0  0  0  0  0  0
  139.2090   78.0880  221.8520 C   0  0  1  0  0  0  0  0  0  0  0  0
  140.3440   78.5880  222.7600 C   0  0  0  0  0  0  0  0  0  0  0  0
  141.5610   78.7490  221.9190 C   0  0  0  0  0  0  0  0  0  0  0  0
  142.6150   79.6660  222.4630 C   0  0  0  0  0  0  0  0  0  0  0  0
  141.9150   80.9980  222.6440 C   0  0  0  0  0  0  0  0  0  0  0  0
  141.0250   80.7690  223.8400 C   0  0  0  0  0  0  0  0  0  0  0  0
  139.9540   79.7380  223.6000 C   0  0  0  0  0  0  0  0  0  0  0  0
  140.2170   71.6350  223.7560 C   0  0  0  0  0  0  0  0  0  0  0  0
  139.5770   70.4380  223.4780 C   0  0  0  0  0  0  0  0  0  0  0  0
  139.4180   69.4670  224.4660 C   0  0  0  0  0  0  0  0  0  0  0  0
  139.9250   69.7480  225.7280 C   0  0  0  0  0  0  0  0  0  0  0  0
  139.7870   68.8150  226.7250 C   0  0  0  0  0  0  0  0  0  0  0  0
  140.2730   69.0490  227.9910 C   0  0  0  0  0  0  0  0  0  0  0  0
  140.1570   68.1550  229.0000 F   0  0  0  0  0  0  0  0  0  0  0  0
  140.9080   70.2580  228.2350 C   0  0  0  0  0  0  0  0  0  0  0  0
  141.0460   71.1960  227.2310 C   0  0  0  0  0  0  0  0  0  0  0  0
  140.5570   70.9520  225.9700 C   0  0  0  0  0  0  0  0  0  0  0  0
  140.6940   71.8730  224.9870 N   0  0  0  0  0  0  0  0  0  0  0  0
  138.3550   73.3630  222.9250 H   0  0  0  0  0  0  0  0  0  0  0  0
  140.1558   74.0195  220.5735 H   0  0  0  0  0  0  0  0  0  0  0  0
  138.4385   74.5087  220.7361 H   0  0  0  0  0  0  0  0  0  0  0  0
  137.3874   75.3055  222.4247 H   0  0  0  0  0  0  0  0  0  0  0  0
  137.8234   76.3478  223.8789 H   0  0  0  0  0  0  0  0  0  0  0  0
  135.6638   76.5838  222.1250 H   0  0  0  0  0  0  0  0  0  0  0  0
  136.2269   77.6533  223.5154 H   0  0  0  0  0  0  0  0  0  0  0  0
  136.6926   77.9471  220.5807 H   0  0  0  0  0  0  0  0  0  0  0  0
  135.9395   79.0822  221.8048 H   0  0  0  0  0  0  0  0  0  0  0  0
  138.1999   79.7404  220.9975 H   0  0  0  0  0  0  0  0  0  0  0  0
  138.0025   79.5197  222.8005 H   0  0  0  0  0  0  0  0  0  0  0  0
  139.5726   78.0793  220.8139 H   0  0  0  0  0  0  0  0  0  0  0  0
  140.5878   77.8464  223.5349 H   0  0  0  0  0  0  0  0  0  0  0  0
  142.0139   77.7552  221.7874 H   0  0  0  0  0  0  0  0  0  0  0  0
  141.2171   79.2124  220.9825 H   0  0  0  0  0  0  0  0  0  0  0  0
  142.9931   79.2931  223.4263 H   0  0  0  0  0  0  0  0  0  0  0  0
  143.4845   79.7420  221.7935 H   0  0  0  0  0  0  0  0  0  0  0  0
  142.6413   81.8000  222.8423 H   0  0  0  0  0  0  0  0  0  0  0  0
  141.3577   81.3139  221.7498 H   0  0  0  0  0  0  0  0  0  0  0  0
  141.6501   80.4332  224.6805 H   0  0  0  0  0  0  0  0  0  0  0  0
  140.5171   81.7210  224.0538 H   0  0  0  0  0  0  0  0  0  0  0  0
  139.6356   79.3485  224.5782 H   0  0  0  0  0  0  0  0  0  0  0  0
  139.1594   80.2573  223.0442 H   0  0  0  0  0  0  0  0  0  0  0  0
  139.1896   70.2514  222.4655 H   0  0  0  0  0  0  0  0  0  0  0  0
  138.9102   68.5145  224.2539 H   0  0  0  0  0  0  0  0  0  0  0  0
  139.2791   67.8636  226.5084 H   0  0  0  0  0  0  0  0  0  0  0  0
  141.3055   70.4716  229.2382 H   0  0  0  0  0  0  0  0  0  0  0  0
  141.5529   72.1490  227.4429 H   0  0  0  0  0  0  0  0  0  0  0  0
  1  2  2  0
  2  3  1  0
  3  4  1  0
  4  5  1  0
  5  6  2  0
  5  7  1  0
  7  8  1  0
  8  9  1  0
  9 10  1  0
 10 11  1  0
 11 12  1  0
 12 13  1  0
 13 14  1  0
 14 15  1  0
 15 16  1  0
 16 17  1  0
 17 18  1  0
  2 19  1  0
 19 20  2  0
 20 21  1  0
 21 22  2  0
 22 23  1  0
 23 24  2  0
 24 25  1  0
 24 26  1  0
 26 27  2  0
 27 28  1  0
 28 29  2  0
 12  7  1  0
 18 13  1  0
 29 19  1  0
 28 22  1  0
  3 30  1  0
  4 31  1  0
  4 32  1  0
  8 33  1  0
  8 34  1  0
  9 35  1  0
  9 36  1  0
 10 37  1  0
 10 38  1  0
 11 39  1  0
 11 40  1  0
 12 41  1  6
 13 42  1  0
 14 43  1  0
 14 44  1  0
 15 45  1  0
 15 46  1  0
 16 47  1  0
 16 48  1  0
 17 49  1  0
 17 50  1  0
 18 51  1  0
 18 52  1  0
 20 53  1  0
 21 54  1  0
 23 55  1  0
 26 56  1  0
 27 57  1  0
M  END
>  <smiles>  (91) 
O=C(NCC(=O)N1CCCCC1C1CCCCC1)c1ccc2cc(F)ccc2n1

>  <score_type>  (91) 
oracle

>  <origin>  (91) 
autodockgpu

>  <m_score__min__energy>  (91) 
-9.0199999999999996

>  <m_primary>  (91) 
energy

>  <rmsd>  (91) 
3.1091255633778974

>  <m_score__min__rmsd>  (91) 
3.1091255633778974

>  <meeko>  (91) 
{"free_energy": -8.98, "intermolecular_energy": -10.47, "internal_energy": -1.31, "cluster_size": 24, "cluster_id": 1, "rank_in_cluster": 3}

>  <energy>  (91) 
-8.6

>  <cluster_rmsd>  (91) 
0.44

>  <cluster>  (91) 
2

$$$$

     RDKit          3D

 57 60  0  0  0  0  0  0  0  0999 V2000
  140.4350   71.7130  221.0800 O   0  0  0  0  0  0  0  0  0  0  0  0
  140.1200   72.2160  222.1980 C   0  0  0  0  0  0  0  0  0  0  0  0
  139.8400   73.6170  222.2790 N   0  0  0  0  0  0  0  0  0  0  0  0
  139.9380   74.3820  221.0520 C   0  0  0  0  0  0  0  0  0  0  0  0
  140.8050   75.5890  221.2930 C   0  0  0  0  0  0  0  0  0  0  0  0
  140.5940   76.2010  222.3670 O   0  0  0  0  0  0  0  0  0  0  0  0
  141.7880   75.9820  220.3410 N   0  0  0  0  0  0  0  0  0  0  0  0
  142.1010   77.3740  220.2050 C   0  0  0  0  0  0  0  0  0  0  0  0
  142.5870   77.7900  218.8630 C   0  0  0  0  0  0  0  0  0  0  0  0
  142.5940   76.7180  217.8240 C   0  0  0  0  0  0  0  0  0  0  0  0
  143.0870   75.3820  218.3220 C   0  0  0  0  0  0  0  0  0  0  0  0
  142.4070   74.9220  219.5690 C   0  0  1  0  0  0  0  0  0  0  0  0
  143.3210   74.0660  220.4580 C   0  0  0  0  0  0  0  0  0  0  0  0
  143.0830   72.6380  220.1140 C   0  0  0  0  0  0  0  0  0  0  0  0
  144.1790   71.6850  220.4830 C   0  0  0  0  0  0  0  0  0  0  0  0
  145.4070   72.2070  219.7640 C   0  0  0  0  0  0  0  0  0  0  0  0
  145.7700   73.4470  220.5410 C   0  0  0  0  0  0  0  0  0  0  0  0
  144.7240   74.5270  220.4660 C   0  0  0  0  0  0  0  0  0  0  0  0
  140.0310   71.4080  223.4180 C   0  0  0  0  0  0  0  0  0  0  0  0
  139.4720   70.1450  223.3060 C   0  0  0  0  0  0  0  0  0  0  0  0
  139.3530   69.3160  224.4200 C   0  0  0  0  0  0  0  0  0  0  0  0
  139.8140   69.8040  225.6350 C   0  0  0  0  0  0  0  0  0  0  0  0
  139.7130   69.0150  226.7530 C   0  0  0  0  0  0  0  0  0  0  0  0
  140.1570   69.4560  227.9780 C   0  0  0  0  0  0  0  0  0  0  0  0
  140.0750   68.7080  229.1030 F   0  0  0  0  0  0  0  0  0  0  0  0
  140.7120   70.7250  228.0550 C   0  0  0  0  0  0  0  0  0  0  0  0
  140.8130   71.5190  226.9290 C   0  0  0  0  0  0  0  0  0  0  0  0
  140.3660   71.0680  225.7110 C   0  0  0  0  0  0  0  0  0  0  0  0
  140.4670   71.8470  224.6070 N   0  0  0  0  0  0  0  0  0  0  0  0
  139.5800   74.0330  223.2000 H   0  0  0  0  0  0  0  0  0  0  0  0
  140.3852   73.7585  220.2637 H   0  0  0  0  0  0  0  0  0  0  0  0
  138.9352   74.7031  220.7339 H   0  0  0  0  0  0  0  0  0  0  0  0
  141.1913   77.9500  220.4301 H   0  0  0  0  0  0  0  0  0  0  0  0
  142.9303   77.5677  220.9012 H   0  0  0  0  0  0  0  0  0  0  0  0
  141.9404   78.6049  218.5055 H   0  0  0  0  0  0  0  0  0  0  0  0
  143.6374   78.0867  218.9996 H   0  0  0  0  0  0  0  0  0  0  0  0
  141.5667   76.5905  217.4520 H   0  0  0  0  0  0  0  0  0  0  0  0
  143.2927   77.0416  217.0384 H   0  0  0  0  0  0  0  0  0  0  0  0
  142.9153   74.6325  217.5354 H   0  0  0  0  0  0  0  0  0  0  0  0
  144.1542   75.5001  218.5609 H   0  0  0  0  0  0  0  0  0  0  0  0
  141.5853   74.2874  219.2054 H   0  0  0  0  0  0  0  0  0  0  0  0
  143.0636   74.1850  221.5208 H   0  0  0  0  0  0  0  0  0  0  0  0
  142.1672   72.3149  220.6306 H   0  0  0  0  0  0  0  0  0  0  0  0
  143.0149   72.6033  219.0167 H   0  0  0  0  0  0  0  0  0  0  0  0
  144.3395   71.6821  221.5712 H   0  0  0  0  0  0  0  0  0  0  0  0
  143.9410   70.6494  220.1984 H   0  0  0  0  0  0  0  0  0  0  0  0
  146.2235   71.4705  219.7952 H   0  0  0  0  0  0  0  0  0  0  0  0
  145.2259   72.4075  218.6977 H   0  0  0  0  0  0  0  0  0  0  0  0
  145.9092   73.1690  221.5962 H   0  0  0  0  0  0  0  0  0  0  0  0
  146.6890   73.8533  220.0934 H   0  0  0  0  0  0  0  0  0  0  0  0
  144.8572   75.1864  221.3363 H   0  0  0  0  0  0  0  0  0  0  0  0
  144.8793   75.0254  219.4978 H   0  0  0  0  0  0  0  0  0  0  0  0
  139.1179   69.7925  222.3260 H   0  0  0  0  0  0  0  0  0  0  0  0
  138.9102   68.3123  224.3394 H   0  0  0  0  0  0  0  0  0  0  0  0
  139.2691   68.0121  226.6682 H   0  0  0  0  0  0  0  0  0  0  0  0
  141.0753   71.1028  229.0221 H   0  0  0  0  0  0  0  0  0  0  0  0
  141.2560   72.5227  227.0087 H   0  0  0  0  0  0  0  0  0  0  0  0
  1  2  2  0
  2  3  1  0
  3  4  1  0
  4  5  1  0
  5  6  2  0
  5  7  1  0
  7  8  1  0
  8  9  1  0
  9 10  1  0
 10 11  1  0
 11 12  1  0
 12 13  1  0
 13 14  1  0
 14 15  1  0
 15 16  1  0
 16 17  1  0
 17 18  1  0
  2 19  1  0
 19 20  2  0
 20 21  1  0
 21 22  2  0
 22 23  1  0
 23 24  2  0
 24 25  1  0
 24 26  1  0
 26 27  2  0
 27 28  1  0
 28 29  2  0
 12  7  1  0
 18 13  1  0
 29 19  1  0
 28 22  1  0
  3 30  1  0
  4 31  1  0
  4 32  1  0
  8 33  1  0
  8 34  1  0
  9 35  1  0
  9 36  1  0
 10 37  1  0
 10 38  1  0
 11 39  1  0
 11 40  1  0
 12 41  1  6
 13 42  1  0
 14 43  1  0
 14 44  1  0
 15 45  1  0
 15 46  1  0
 16 47  1  0
 16 48  1  0
 17 49  1  0
 17 50  1  0
 18 51  1  0
 18 52  1  0
 20 53  1  0
 21 54  1  0
 23 55  1  0
 26 56  1  0
 27 57  1  0
M  END
>  <smiles>  (92) 
O=C(NCC(=O)N1CCCCC1C1CCCCC1)c1ccc2cc(F)ccc2n1

>  <score_type>  (92) 
oracle

>  <origin>  (92) 
autodockgpu

>  <m_score__min__energy>  (92) 
-9.0199999999999996

>  <m_primary>  (92) 
energy

>  <rmsd>  (92) 
2.325705723038994

>  <m_score__min__rmsd>  (92) 
2.325705723038994

>  <meeko>  (92) 
{"free_energy": -8.64, "intermolecular_energy": -10.13, "internal_energy": -2.12, "cluster_size": 24, "cluster_id": 2, "rank_in_cluster": 10}

>  <energy>  (92) 
-8.6

>  <cluster_rmsd>  (92) 
0.38

>  <cluster>  (92) 
2

$$$$

     RDKit          3D

 57 60  0  0  0  0  0  0  0  0999 V2000
  140.8130   72.2500  221.3720 O   0  0  0  0  0  0  0  0  0  0  0  0
  140.0120   72.4340  222.3340 C   0  0  0  0  0  0  0  0  0  0  0  0
  139.1110   73.5450  222.2890 N   0  0  0  0  0  0  0  0  0  0  0  0
  139.1770   74.4020  221.1220 C   0  0  0  0  0  0  0  0  0  0  0  0
  140.3600   75.3230  221.2560 C   0  0  0  0  0  0  0  0  0  0  0  0
  141.2970   74.9000  221.9740 O   0  0  0  0  0  0  0  0  0  0  0  0
  140.3790   76.5860  220.5970 N   0  0  0  0  0  0  0  0  0  0  0  0
  139.3920   76.8560  219.5920 C   0  0  0  0  0  0  0  0  0  0  0  0
  139.8040   77.8190  218.5370 C   0  0  0  0  0  0  0  0  0  0  0  0
  141.2150   78.2990  218.6240 C   0  0  0  0  0  0  0  0  0  0  0  0
  141.6720   78.6170  220.0260 C   0  0  0  0  0  0  0  0  0  0  0  0
  141.4150   77.5160  221.0010 C   0  0  1  0  0  0  0  0  0  0  0  0
  141.1510   78.0370  222.4220 C   0  0  0  0  0  0  0  0  0  0  0  0
  142.1900   79.0550  222.7330 C   0  0  0  0  0  0  0  0  0  0  0  0
  141.8510   80.0230  223.8270 C   0  0  0  0  0  0  0  0  0  0  0  0
  140.5710   80.6930  223.3700 C   0  0  0  0  0  0  0  0  0  0  0  0
  139.5280   79.6170  223.5430 C   0  0  0  0  0  0  0  0  0  0  0  0
  139.7450   78.4250  222.6490 C   0  0  0  0  0  0  0  0  0  0  0  0
  139.9760   71.5430  223.4970 C   0  0  0  0  0  0  0  0  0  0  0  0
  139.3400   70.3230  223.3450 C   0  0  0  0  0  0  0  0  0  0  0  0
  139.2630   69.4200  224.4050 C   0  0  0  0  0  0  0  0  0  0  0  0
  139.8480   69.7930  225.6080 C   0  0  0  0  0  0  0  0  0  0  0  0
  139.7930   68.9290  226.6720 C   0  0  0  0  0  0  0  0  0  0  0  0
  140.3580   69.2550  227.8840 C   0  0  0  0  0  0  0  0  0  0  0  0
  140.3250   68.4310  228.9560 F   0  0  0  0  0  0  0  0  0  0  0  0
  140.9890   70.4850  228.0010 C   0  0  0  0  0  0  0  0  0  0  0  0
  141.0430   71.3540  226.9300 C   0  0  0  0  0  0  0  0  0  0  0  0
  140.4750   71.0180  225.7240 C   0  0  0  0  0  0  0  0  0  0  0  0
  140.5300   71.8710  224.6740 N   0  0  0  0  0  0  0  0  0  0  0  0
  138.4500   73.6970  223.0820 H   0  0  0  0  0  0  0  0  0  0  0  0
  139.2901   73.7857  220.2179 H   0  0  0  0  0  0  0  0  0  0  0  0
  138.2529   74.9935  221.0428 H   0  0  0  0  0  0  0  0  0  0  0  0
  139.1370   75.9046  219.1023 H   0  0  0  0  0  0  0  0  0  0  0  0
  138.5455   77.3239  220.1160 H   0  0  0  0  0  0  0  0  0  0  0  0
  139.6714   77.3300  217.5606 H   0  0  0  0  0  0  0  0  0  0  0  0
  139.1721   78.7087  218.6752 H   0  0  0  0  0  0  0  0  0  0  0  0
  141.8718   77.5168  218.2156 H   0  0  0  0  0  0  0  0  0  0  0  0
  141.2665   79.2378  218.0530 H   0  0  0  0  0  0  0  0  0  0  0  0
  142.7536   78.8159  220.0028 H   0  0  0  0  0  0  0  0  0  0  0  0
  141.0941   79.4897  220.3642 H   0  0  0  0  0  0  0  0  0  0  0  0
  142.3545   76.9439  221.0100 H   0  0  0  0  0  0  0  0  0  0  0  0
  141.2596   77.2331  223.1650 H   0  0  0  0  0  0  0  0  0  0  0  0
  143.1067   78.5224  223.0262 H   0  0  0  0  0  0  0  0  0  0  0  0
  142.2957   79.6611  221.8211 H   0  0  0  0  0  0  0  0  0  0  0  0
  141.6925   79.4929  224.7777 H   0  0  0  0  0  0  0  0  0  0  0  0
  142.6586   80.7486  224.0036 H   0  0  0  0  0  0  0  0  0  0  0  0
  140.3405   81.5680  223.9954 H   0  0  0  0  0  0  0  0  0  0  0  0
  140.6300   81.0701  222.3383 H   0  0  0  0  0  0  0  0  0  0  0  0
  139.5481   79.2768  224.5889 H   0  0  0  0  0  0  0  0  0  0  0  0
  138.5583   80.0573  223.2677 H   0  0  0  0  0  0  0  0  0  0  0  0
  139.2271   77.5661  223.1008 H   0  0  0  0  0  0  0  0  0  0  0  0
  139.3538   78.7170  221.6632 H   0  0  0  0  0  0  0  0  0  0  0  0
  138.8896   70.0624  222.3759 H   0  0  0  0  0  0  0  0  0  0  0  0
  138.7581   68.4492  224.2925 H   0  0  0  0  0  0  0  0  0  0  0  0
  139.2885   67.9586  226.5545 H   0  0  0  0  0  0  0  0  0  0  0  0
  141.4512   70.7707  228.9574 H   0  0  0  0  0  0  0  0  0  0  0  0
  141.5459   72.3258  227.0426 H   0  0  0  0  0  0  0  0  0  0  0  0
  1  2  2  0
  2  3  1  0
  3  4  1  0
  4  5  1  0
  5  6  2  0
  5  7  1  0
  7  8  1  0
  8  9  1  0
  9 10  1  0
 10 11  1  0
 11 12  1  0
 12 13  1  0
 13 14  1  0
 14 15  1  0
 15 16  1  0
 16 17  1  0
 17 18  1  0
  2 19  1  0
 19 20  2  0
 20 21  1  0
 21 22  2  0
 22 23  1  0
 23 24  2  0
 24 25  1  0
 24 26  1  0
 26 27  2  0
 27 28  1  0
 28 29  2  0
 12  7  1  0
 18 13  1  0
 29 19  1  0
 28 22  1  0
  3 30  1  0
  4 31  1  0
  4 32  1  0
  8 33  1  0
  8 34  1  0
  9 35  1  0
  9 36  1  0
 10 37  1  0
 10 38  1  0
 11 39  1  0
 11 40  1  0
 12 41  1  1
 13 42  1  0
 14 43  1  0
 14 44  1  0
 15 45  1  0
 15 46  1  0
 16 47  1  0
 16 48  1  0
 17 49  1  0
 17 50  1  0
 18 51  1  0
 18 52  1  0
 20 53  1  0
 21 54  1  0
 23 55  1  0
 26 56  1  0
 27 57  1  0
M  END
>  <smiles>  (93) 
O=C(NCC(=O)N1CCCCC1C1CCCCC1)c1ccc2cc(F)ccc2n1

>  <score_type>  (93) 
oracle

>  <origin>  (93) 
autodockgpu

>  <m_score__min__energy>  (93) 
-9.0199999999999996

>  <m_primary>  (93) 
energy

>  <rmsd>  (93) 
1.617204198404418

>  <m_score__min__rmsd>  (93) 
1.617204198404418

>  <meeko>  (93) 
{"free_energy": -8.92, "intermolecular_energy": -10.41, "internal_energy": -1.4, "cluster_size": 24, "cluster_id": 1, "rank_in_cluster": 4}

>  <energy>  (93) 
-8.59

>  <cluster_rmsd>  (93) 
0.45

>  <cluster>  (93) 
2

$$$$

     RDKit          3D

 57 60  0  0  0  0  0  0  0  0999 V2000
  141.3300   72.5190  221.8130 O   0  0  0  0  0  0  0  0  0  0  0  0
  140.3280   72.4940  222.5870 C   0  0  0  0  0  0  0  0  0  0  0  0
  139.2460   73.4020  222.3580 N   0  0  0  0  0  0  0  0  0  0  0  0
  139.3720   74.3080  221.2330 C   0  0  0  0  0  0  0  0  0  0  0  0
  140.0800   75.5570  221.6870 C   0  0  0  0  0  0  0  0  0  0  0  0
  141.3100   75.4350  221.9000 O   0  0  0  0  0  0  0  0  0  0  0  0
  139.3680   76.7790  221.8520 N   0  0  0  0  0  0  0  0  0  0  0  0
  138.1880   76.7860  222.6670 C   0  0  0  0  0  0  0  0  0  0  0  0
  137.1740   77.8140  222.3110 C   0  0  0  0  0  0  0  0  0  0  0  0
  137.4880   78.6310  221.1020 C   0  0  0  0  0  0  0  0  0  0  0  0
  138.9310   79.0650  221.0100 C   0  0  0  0  0  0  0  0  0  0  0  0
  139.9010   77.9420  221.1700 C   0  0  1  0  0  0  0  0  0  0  0  0
  141.2210   78.3920  221.8160 C   0  0  0  0  0  0  0  0  0  0  0  0
  141.5950   79.7030  221.2210 C   0  0  0  0  0  0  0  0  0  0  0  0
  142.5440   80.5390  222.0260 C   0  0  0  0  0  0  0  0  0  0  0  0
  141.8510   80.7390  223.3590 C   0  0  0  0  0  0  0  0  0  0  0  0
  141.9580   79.3880  224.0180 C   0  0  0  0  0  0  0  0  0  0  0  0
  141.2070   78.3050  223.2900 C   0  0  0  0  0  0  0  0  0  0  0  0
  140.2390   71.5610  223.7140 C   0  0  0  0  0  0  0  0  0  0  0  0
  139.6480   70.3310  223.4770 C   0  0  0  0  0  0  0  0  0  0  0  0
  139.5260   69.3890  224.4970 C   0  0  0  0  0  0  0  0  0  0  0  0
  140.0180   69.7320  225.7490 C   0  0  0  0  0  0  0  0  0  0  0  0
  139.9160   68.8290  226.7760 C   0  0  0  0  0  0  0  0  0  0  0  0
  140.3900   69.1240  228.0340 C   0  0  0  0  0  0  0  0  0  0  0  0
  140.3080   68.2610  229.0730 F   0  0  0  0  0  0  0  0  0  0  0  0
  140.9770   70.3650  228.2370 C   0  0  0  0  0  0  0  0  0  0  0  0
  141.0800   71.2730  227.2020 C   0  0  0  0  0  0  0  0  0  0  0  0
  140.6020   70.9670  225.9500 C   0  0  0  0  0  0  0  0  0  0  0  0
  140.7040   71.8590  224.9350 N   0  0  0  0  0  0  0  0  0  0  0  0
  138.4200   73.3810  222.9940 H   0  0  0  0  0  0  0  0  0  0  0  0
  139.9526   73.8248  220.4334 H   0  0  0  0  0  0  0  0  0  0  0  0
  138.3738   74.5651  220.8490 H   0  0  0  0  0  0  0  0  0  0  0  0
  137.7127   75.7974  222.5847 H   0  0  0  0  0  0  0  0  0  0  0  0
  138.5240   77.0310  223.6854 H   0  0  0  0  0  0  0  0  0  0  0  0
  136.2175   77.3003  222.1344 H   0  0  0  0  0  0  0  0  0  0  0  0
  137.1479   78.5191  223.1549 H   0  0  0  0  0  0  0  0  0  0  0  0
  137.2492   78.0337  220.2097 H   0  0  0  0  0  0  0  0  0  0  0  0
  136.8846   79.5480  221.1729 H   0  0  0  0  0  0  0  0  0  0  0  0
  139.0934   79.5279  220.0255 H   0  0  0  0  0  0  0  0  0  0  0  0
  139.1109   79.7686  221.8362 H   0  0  0  0  0  0  0  0  0  0  0  0
  140.1099   77.6221  220.1385 H   0  0  0  0  0  0  0  0  0  0  0  0
  142.0363   77.6920  221.5809 H   0  0  0  0  0  0  0  0  0  0  0  0
  142.0617   79.5091  220.2440 H   0  0  0  0  0  0  0  0  0  0  0  0
  140.6615   80.2821  221.1645 H   0  0  0  0  0  0  0  0  0  0  0  0
  143.5017   80.0152  222.1622 H   0  0  0  0  0  0  0  0  0  0  0  0
  142.7766   81.4940  221.5322 H   0  0  0  0  0  0  0  0  0  0  0  0
  142.3616   81.5090  223.9559 H   0  0  0  0  0  0  0  0  0  0  0  0
  140.8115   81.0830  223.2538 H   0  0  0  0  0  0  0  0  0  0  0  0
  143.0201   79.1055  224.0632 H   0  0  0  0  0  0  0  0  0  0  0  0
  141.5082   79.4785  225.0178 H   0  0  0  0  0  0  0  0  0  0  0  0
  141.6480   77.3385  223.5751 H   0  0  0  0  0  0  0  0  0  0  0  0
  140.1540   78.4213  223.5859 H   0  0  0  0  0  0  0  0  0  0  0  0
  139.2702   70.0947  222.4713 H   0  0  0  0  0  0  0  0  0  0  0  0
  139.0574   68.4103  224.3167 H   0  0  0  0  0  0  0  0  0  0  0  0
  139.4469   67.8514  226.5911 H   0  0  0  0  0  0  0  0  0  0  0  0
  141.3641   70.6279  229.2325 H   0  0  0  0  0  0  0  0  0  0  0  0
  141.5495   72.2515  227.3811 H   0  0  0  0  0  0  0  0  0  0  0  0
  1  2  2  0
  2  3  1  0
  3  4  1  0
  4  5  1  0
  5  6  2  0
  5  7  1  0
  7  8  1  0
  8  9  1  0
  9 10  1  0
 10 11  1  0
 11 12  1  0
 12 13  1  0
 13 14  1  0
 14 15  1  0
 15 16  1  0
 16 17  1  0
 17 18  1  0
  2 19  1  0
 19 20  2  0
 20 21  1  0
 21 22  2  0
 22 23  1  0
 23 24  2  0
 24 25  1  0
 24 26  1  0
 26 27  2  0
 27 28  1  0
 28 29  2  0
 12  7  1  0
 18 13  1  0
 29 19  1  0
 28 22  1  0
  3 30  1  0
  4 31  1  0
  4 32  1  0
  8 33  1  0
  8 34  1  0
  9 35  1  0
  9 36  1  0
 10 37  1  0
 10 38  1  0
 11 39  1  0
 11 40  1  0
 12 41  1  6
 13 42  1  0
 14 43  1  0
 14 44  1  0
 15 45  1  0
 15 46  1  0
 16 47  1  0
 16 48  1  0
 17 49  1  0
 17 50  1  0
 18 51  1  0
 18 52  1  0
 20 53  1  0
 21 54  1  0
 23 55  1  0
 26 56  1  0
 27 57  1  0
M  END
>  <smiles>  (94) 
O=C(NCC(=O)N1CCCCC1C1CCCCC1)c1ccc2cc(F)ccc2n1

>  <score_type>  (94) 
oracle

>  <origin>  (94) 
autodockgpu

>  <m_score__min__energy>  (94) 
-9.0199999999999996

>  <m_primary>  (94) 
energy

>  <rmsd>  (94) 
2.817690685254856

>  <m_score__min__rmsd>  (94) 
2.817690685254856

>  <meeko>  (94) 
{"free_energy": -9.01, "intermolecular_energy": -10.5, "internal_energy": -1.41, "cluster_size": 24, "cluster_id": 1, "rank_in_cluster": 2}

>  <energy>  (94) 
-8.57

>  <cluster_rmsd>  (94) 
0.46

>  <cluster>  (94) 
2

$$$$

     RDKit          3D

 57 60  0  0  0  0  0  0  0  0999 V2000
  140.8830   77.0920  217.9300 O   0  0  0  0  0  0  0  0  0  0  0  0
  141.9760   77.0820  218.5680 C   0  0  0  0  0  0  0  0  0  0  0  0
  142.4160   78.2800  219.2160 N   0  0  0  0  0  0  0  0  0  0  0  0
  141.5640   79.4470  219.0960 C   0  0  0  0  0  0  0  0  0  0  0  0
  140.5520   79.4330  220.2110 C   0  0  0  0  0  0  0  0  0  0  0  0
  139.3880   79.1050  219.8810 O   0  0  0  0  0  0  0  0  0  0  0  0
  140.9280   79.7770  221.5410 N   0  0  0  0  0  0  0  0  0  0  0  0
  140.5340   81.0540  222.0610 C   0  0  0  0  0  0  0  0  0  0  0  0
  141.4300   81.6200  223.1040 C   0  0  0  0  0  0  0  0  0  0  0  0
  142.6570   80.8230  223.3960 C   0  0  0  0  0  0  0  0  0  0  0  0
  142.4220   79.3340  223.4620 C   0  0  0  0  0  0  0  0  0  0  0  0
  141.6950   78.7920  222.2770 C   0  0  1  0  0  0  0  0  0  0  0  0
  140.8230   77.5760  222.6250 C   0  0  0  0  0  0  0  0  0  0  0  0
  139.4160   78.0440  222.7390 C   0  0  0  0  0  0  0  0  0  0  0  0
  138.3610   76.9890  222.5840 C   0  0  0  0  0  0  0  0  0  0  0  0
  138.6120   76.3880  221.2160 C   0  0  0  0  0  0  0  0  0  0  0  0
  139.8670   75.5760  221.4120 C   0  0  0  0  0  0  0  0  0  0  0  0
  141.0730   76.4110  221.7520 C   0  0  0  0  0  0  0  0  0  0  0  0
  142.8080   75.8800  218.6660 C   0  0  0  0  0  0  0  0  0  0  0  0
  142.7380   74.9690  217.6250 C   0  0  0  0  0  0  0  0  0  0  0  0
  143.4990   73.8020  217.6450 C   0  0  0  0  0  0  0  0  0  0  0  0
  144.3230   73.5930  218.7420 C   0  0  0  0  0  0  0  0  0  0  0  0
  145.0870   72.4540  218.7950 C   0  0  0  0  0  0  0  0  0  0  0  0
  145.9190   72.2040  219.8620 C   0  0  0  0  0  0  0  0  0  0  0  0
  146.6880   71.0940  219.9520 F   0  0  0  0  0  0  0  0  0  0  0  0
  145.9660   73.1380  220.8880 C   0  0  0  0  0  0  0  0  0  0  0  0
  145.1970   74.2830  220.8340 C   0  0  0  0  0  0  0  0  0  0  0  0
  144.3690   74.5220  219.7630 C   0  0  0  0  0  0  0  0  0  0  0  0
  143.6150   75.6460  219.7110 N   0  0  0  0  0  0  0  0  0  0  0  0
  143.3160   78.2730  219.7430 H   0  0  0  0  0  0  0  0  0  0  0  0
  142.1757   80.3587  219.1648 H   0  0  0  0  0  0  0  0  0  0  0  0
  141.0470   79.4310  218.1252 H   0  0  0  0  0  0  0  0  0  0  0  0
  140.4967   81.7653  221.2228 H   0  0  0  0  0  0  0  0  0  0  0  0
  139.5610   80.8962  222.5493 H   0  0  0  0  0  0  0  0  0  0  0  0
  141.7460   82.6203  222.7732 H   0  0  0  0  0  0  0  0  0  0  0  0
  140.8444   81.6263  224.0352 H   0  0  0  0  0  0  0  0  0  0  0  0
  143.3947   81.0217  222.6046 H   0  0  0  0  0  0  0  0  0  0  0  0
  143.0082   81.1336  224.3911 H   0  0  0  0  0  0  0  0  0  0  0  0
  143.3975   78.8305  223.5320 H   0  0  0  0  0  0  0  0  0  0  0  0
  141.7904   79.1453  224.3426 H   0  0  0  0  0  0  0  0  0  0  0  0
  142.4978   78.4610  221.6017 H   0  0  0  0  0  0  0  0  0  0  0  0
  141.0994   77.1566  223.6036 H   0  0  0  0  0  0  0  0  0  0  0  0
  139.2922   78.5014  223.7317 H   0  0  0  0  0  0  0  0  0  0  0  0
  139.2652   78.7416  221.9020 H   0  0  0  0  0  0  0  0  0  0  0  0
  138.4605   76.2235  223.3676 H   0  0  0  0  0  0  0  0  0  0  0  0
  137.3453   77.4011  222.6763 H   0  0  0  0  0  0  0  0  0  0  0  0
  137.7729   75.7466  220.9086 H   0  0  0  0  0  0  0  0  0  0  0  0
  138.7126   77.1476  220.4267 H   0  0  0  0  0  0  0  0  0  0  0  0
  139.6956   74.8615  222.2306 H   0  0  0  0  0  0  0  0  0  0  0  0
  140.0798   75.0720  220.4577 H   0  0  0  0  0  0  0  0  0  0  0  0
  141.8021   75.7607  222.2576 H   0  0  0  0  0  0  0  0  0  0  0  0
  141.4290   76.8244  220.7968 H   0  0  0  0  0  0  0  0  0  0  0  0
  142.0733   75.1693  216.7718 H   0  0  0  0  0  0  0  0  0  0  0  0
  143.4486   73.0737  216.8222 H   0  0  0  0  0  0  0  0  0  0  0  0
  145.0332   71.7284  217.9700 H   0  0  0  0  0  0  0  0  0  0  0  0
  146.6229   72.9638  221.7530 H   0  0  0  0  0  0  0  0  0  0  0  0
  145.2473   75.0117  221.6564 H   0  0  0  0  0  0  0  0  0  0  0  0
  1  2  2  0
  2  3  1  0
  3  4  1  0
  4  5  1  0
  5  6  2  0
  5  7  1  0
  7  8  1  0
  8  9  1  0
  9 10  1  0
 10 11  1  0
 11 12  1  0
 12 13  1  0
 13 14  1  0
 14 15  1  0
 15 16  1  0
 16 17  1  0
 17 18  1  0
  2 19  1  0
 19 20  2  0
 20 21  1  0
 21 22  2  0
 22 23  1  0
 23 24  2  0
 24 25  1  0
 24 26  1  0
 26 27  2  0
 27 28  1  0
 28 29  2  0
 12  7  1  0
 18 13  1  0
 29 19  1  0
 28 22  1  0
  3 30  1  0
  4 31  1  0
  4 32  1  0
  8 33  1  0
  8 34  1  0
  9 35  1  0
  9 36  1  0
 10 37  1  0
 10 38  1  0
 11 39  1  0
 11 40  1  0
 12 41  1  6
 13 42  1  0
 14 43  1  0
 14 44  1  0
 15 45  1  0
 15 46  1  0
 16 47  1  0
 16 48  1  0
 17 49  1  0
 17 50  1  0
 18 51  1  0
 18 52  1  0
 20 53  1  0
 21 54  1  0
 23 55  1  0
 26 56  1  0
 27 57  1  0
M  END
>  <smiles>  (95) 
O=C(NCC(=O)N1CCCCC1C1CCCCC1)c1ccc2cc(F)ccc2n1

>  <score_type>  (95) 
oracle

>  <origin>  (95) 
autodockgpu

>  <m_score__min__energy>  (95) 
-9.0199999999999996

>  <m_primary>  (95) 
energy

>  <rmsd>  (95) 
7.849857543282997

>  <m_score__min__rmsd>  (95) 
7.849857543282997

>  <meeko>  (95) 
{"free_energy": -6.96, "intermolecular_energy": -8.46, "internal_energy": -2.5, "cluster_size": 1, "cluster_id": 4, "rank_in_cluster": 1}

>  <energy>  (95) 
-8.53

>  <cluster_rmsd>  (95) 
0.45

>  <cluster>  (95) 
2

$$$$

     RDKit          3D

 57 60  0  0  0  0  0  0  0  0999 V2000
  141.1710   72.2800  221.2810 O   0  0  0  0  0  0  0  0  0  0  0  0
  140.4580   72.5540  222.2910 C   0  0  0  0  0  0  0  0  0  0  0  0
  139.8000   73.8230  222.3560 N   0  0  0  0  0  0  0  0  0  0  0  0
  139.9980   74.7280  221.2410 C   0  0  0  0  0  0  0  0  0  0  0  0
  139.7150   76.1360  221.6950 C   0  0  0  0  0  0  0  0  0  0  0  0
  139.1570   76.2430  222.8130 O   0  0  0  0  0  0  0  0  0  0  0  0
  140.0690   77.2490  220.8800 N   0  0  0  0  0  0  0  0  0  0  0  0
  139.1860   77.6380  219.8190 C   0  0  0  0  0  0  0  0  0  0  0  0
  139.8370   78.3080  218.6620 C   0  0  0  0  0  0  0  0  0  0  0  0
  141.3250   78.4000  218.7300 C   0  0  0  0  0  0  0  0  0  0  0  0
  141.8580   78.7660  220.0930 C   0  0  0  0  0  0  0  0  0  0  0  0
  141.3190   77.9130  221.1930 C   0  0  1  0  0  0  0  0  0  0  0  0
  141.2130   78.6690  222.5270 C   0  0  0  0  0  0  0  0  0  0  0  0
  142.4910   79.4000  222.7380 C   0  0  0  0  0  0  0  0  0  0  0  0
  142.4320   80.5590  223.6880 C   0  0  0  0  0  0  0  0  0  0  0  0
  141.3810   81.4830  223.1080 C   0  0  0  0  0  0  0  0  0  0  0  0
  140.0850   80.7620  223.3830 C   0  0  0  0  0  0  0  0  0  0  0  0
  139.9660   79.4490  222.6560 C   0  0  0  0  0  0  0  0  0  0  0  0
  140.2830   71.6110  223.3990 C   0  0  0  0  0  0  0  0  0  0  0  0
  139.6650   70.4040  223.1160 C   0  0  0  0  0  0  0  0  0  0  0  0
  139.4610   69.4550  224.1160 C   0  0  0  0  0  0  0  0  0  0  0  0
  139.9020   69.7660  225.3950 C   0  0  0  0  0  0  0  0  0  0  0  0
  139.7190   68.8550  226.4040 C   0  0  0  0  0  0  0  0  0  0  0  0
  140.1390   69.1190  227.6870 C   0  0  0  0  0  0  0  0  0  0  0  0
  139.9770   68.2470  228.7090 F   0  0  0  0  0  0  0  0  0  0  0  0
  140.7560   70.3370  227.9360 C   0  0  0  0  0  0  0  0  0  0  0  0
  140.9390   71.2540  226.9200 C   0  0  0  0  0  0  0  0  0  0  0  0
  140.5150   70.9790  225.6420 C   0  0  0  0  0  0  0  0  0  0  0  0
  140.6960   71.8790  224.6460 N   0  0  0  0  0  0  0  0  0  0  0  0
  139.2130   74.0510  223.1880 H   0  0  0  0  0  0  0  0  0  0  0  0
  141.0374   74.6563  220.8881 H   0  0  0  0  0  0  0  0  0  0  0  0
  139.3180   74.4591  220.4192 H   0  0  0  0  0  0  0  0  0  0  0  0
  138.6819   76.7335  219.4480 H   0  0  0  0  0  0  0  0  0  0  0  0
  138.4992   78.3800  220.2523 H   0  0  0  0  0  0  0  0  0  0  0  0
  139.5728   77.7480  217.7528 H   0  0  0  0  0  0  0  0  0  0  0  0
  139.4687   79.3445  218.6654 H   0  0  0  0  0  0  0  0  0  0  0  0
  141.7448   77.4238  218.4457 H   0  0  0  0  0  0  0  0  0  0  0  0
  141.6244   79.2071  218.0452 H   0  0  0  0  0  0  0  0  0  0  0  0
  142.9531   78.6630  220.0776 H   0  0  0  0  0  0  0  0  0  0  0  0
  141.5383   79.7983  220.2984 H   0  0  0  0  0  0  0  0  0  0  0  0
  142.0694   77.1165  221.3047 H   0  0  0  0  0  0  0  0  0  0  0  0
  141.1025   77.9717  223.3706 H   0  0  0  0  0  0  0  0  0  0  0  0
  143.2295   78.6831  223.1260 H   0  0  0  0  0  0  0  0  0  0  0  0
  142.7542   79.8291  221.7599 H   0  0  0  0  0  0  0  0  0  0  0  0
  142.1389   80.2215  224.6931 H   0  0  0  0  0  0  0  0  0  0  0  0
  143.4071   81.0563  223.7967 H   0  0  0  0  0  0  0  0  0  0  0  0
  141.3996   82.4624  223.6085 H   0  0  0  0  0  0  0  0  0  0  0  0
  141.5367   81.6901  222.0389 H   0  0  0  0  0  0  0  0  0  0  0  0
  140.0153   80.5698  224.4638 H   0  0  0  0  0  0  0  0  0  0  0  0
  139.2709   81.4080  223.0225 H   0  0  0  0  0  0  0  0  0  0  0  0
  139.2351   78.8294  223.1963 H   0  0  0  0  0  0  0  0  0  0  0  0
  139.6658   79.7032  221.6288 H   0  0  0  0  0  0  0  0  0  0  0  0
  139.3312   70.1920  222.0895 H   0  0  0  0  0  0  0  0  0  0  0  0
  138.9689   68.4953  223.8999 H   0  0  0  0  0  0  0  0  0  0  0  0
  139.2275   67.8960  226.1832 H   0  0  0  0  0  0  0  0  0  0  0  0
  141.1026   70.5742  228.9527 H   0  0  0  0  0  0  0  0  0  0  0  0
  141.4293   72.2147  227.1358 H   0  0  0  0  0  0  0  0  0  0  0  0
  1  2  2  0
  2  3  1  0
  3  4  1  0
  4  5  1  0
  5  6  2  0
  5  7  1  0
  7  8  1  0
  8  9  1  0
  9 10  1  0
 10 11  1  0
 11 12  1  0
 12 13  1  0
 13 14  1  0
 14 15  1  0
 15 16  1  0
 16 17  1  0
 17 18  1  0
  2 19  1  0
 19 20  2  0
 20 21  1  0
 21 22  2  0
 22 23  1  0
 23 24  2  0
 24 25  1  0
 24 26  1  0
 26 27  2  0
 27 28  1  0
 28 29  2  0
 12  7  1  0
 18 13  1  0
 29 19  1  0
 28 22  1  0
  3 30  1  0
  4 31  1  0
  4 32  1  0
  8 33  1  0
  8 34  1  0
  9 35  1  0
  9 36  1  0
 10 37  1  0
 10 38  1  0
 11 39  1  0
 11 40  1  0
 12 41  1  1
 13 42  1  0
 14 43  1  0
 14 44  1  0
 15 45  1  0
 15 46  1  0
 16 47  1  0
 16 48  1  0
 17 49  1  0
 17 50  1  0
 18 51  1  0
 18 52  1  0
 20 53  1  0
 21 54  1  0
 23 55  1  0
 26 56  1  0
 27 57  1  0
M  END
>  <smiles>  (96) 
O=C(NCC(=O)N1CCCCC1C1CCCCC1)c1ccc2cc(F)ccc2n1

>  <score_type>  (96) 
oracle

>  <origin>  (96) 
autodockgpu

>  <m_score__min__energy>  (96) 
-9.0199999999999996

>  <m_primary>  (96) 
energy

>  <rmsd>  (96) 
2.0242735630304427

>  <m_score__min__rmsd>  (96) 
2.0242735630304427

>  <meeko>  (96) 
{"free_energy": -8.69, "intermolecular_energy": -10.18, "internal_energy": -1.98, "cluster_size": 24, "cluster_id": 1, "rank_in_cluster": 14}

>  <energy>  (96) 
-8.48

>  <cluster_rmsd>  (96) 
0.42

>  <cluster>  (96) 
2

$$$$

     RDKit          3D

 57 60  0  0  0  0  0  0  0  0999 V2000
  141.2860   72.3230  221.5480 O   0  0  0  0  0  0  0  0  0  0  0  0
  140.4150   72.5260  222.4430 C   0  0  0  0  0  0  0  0  0  0  0  0
  139.5750   73.6810  222.3500 N   0  0  0  0  0  0  0  0  0  0  0  0
  139.7830   74.5580  221.2150 C   0  0  0  0  0  0  0  0  0  0  0  0
  139.3570   75.9540  221.5900 C   0  0  0  0  0  0  0  0  0  0  0  0
  138.5770   76.0380  222.5680 O   0  0  0  0  0  0  0  0  0  0  0  0
  139.8290   77.0800  220.8570 N   0  0  0  0  0  0  0  0  0  0  0  0
  139.0230   77.5970  219.7900 C   0  0  0  0  0  0  0  0  0  0  0  0
  139.7700   78.2790  218.7000 C   0  0  0  0  0  0  0  0  0  0  0  0
  141.2560   78.2500  218.8270 C   0  0  0  0  0  0  0  0  0  0  0  0
  141.7590   78.4950  220.2290 C   0  0  0  0  0  0  0  0  0  0  0  0
  141.1120   77.6250  221.2550 C   0  0  1  0  0  0  0  0  0  0  0  0
  141.0090   78.3090  222.6270 C   0  0  0  0  0  0  0  0  0  0  0  0
  142.2490   79.1050  222.8320 C   0  0  0  0  0  0  0  0  0  0  0  0
  142.1550   80.2120  223.8390 C   0  0  0  0  0  0  0  0  0  0  0  0
  141.0320   81.0980  223.3390 C   0  0  0  0  0  0  0  0  0  0  0  0
  139.7920   80.2880  223.6210 C   0  0  0  0  0  0  0  0  0  0  0  0
  139.7240   79.0060  222.8350 C   0  0  0  0  0  0  0  0  0  0  0  0
  140.2360   71.6130  223.5760 C   0  0  0  0  0  0  0  0  0  0  0  0
  139.5660   70.4250  223.3370 C   0  0  0  0  0  0  0  0  0  0  0  0
  139.3560   69.5040  224.3620 C   0  0  0  0  0  0  0  0  0  0  0  0
  139.8430   69.8260  225.6220 C   0  0  0  0  0  0  0  0  0  0  0  0
  139.6550   68.9430  226.6550 C   0  0  0  0  0  0  0  0  0  0  0  0
  140.1200   69.2180  227.9210 C   0  0  0  0  0  0  0  0  0  0  0  0
  139.9550   68.3740  228.9650 F   0  0  0  0  0  0  0  0  0  0  0  0
  140.7870   70.4170  228.1250 C   0  0  0  0  0  0  0  0  0  0  0  0
  140.9760   71.3050  227.0850 C   0  0  0  0  0  0  0  0  0  0  0  0
  140.5070   71.0190  225.8250 C   0  0  0  0  0  0  0  0  0  0  0  0
  140.6930   71.8920  224.8050 N   0  0  0  0  0  0  0  0  0  0  0  0
  138.8560   73.8490  223.0870 H   0  0  0  0  0  0  0  0  0  0  0  0
  140.8480   74.5587  220.9396 H   0  0  0  0  0  0  0  0  0  0  0  0
  139.1893   74.2053  220.3588 H   0  0  0  0  0  0  0  0  0  0  0  0
  138.4672   76.7575  219.3469 H   0  0  0  0  0  0  0  0  0  0  0  0
  138.3776   78.3646  220.2419 H   0  0  0  0  0  0  0  0  0  0  0  0
  139.5012   77.7945  217.7497 H   0  0  0  0  0  0  0  0  0  0  0  0
  139.4821   79.3393  218.7528 H   0  0  0  0  0  0  0  0  0  0  0  0
  141.6115   77.2617  218.5001 H   0  0  0  0  0  0  0  0  0  0  0  0
  141.6440   79.0685  218.2029 H   0  0  0  0  0  0  0  0  0  0  0  0
  142.8428   78.3080  220.2476 H   0  0  0  0  0  0  0  0  0  0  0  0
  141.5104   79.5357  220.4844 H   0  0  0  0  0  0  0  0  0  0  0  0
  141.7944   76.7670  221.3457 H   0  0  0  0  0  0  0  0  0  0  0  0
  140.9690   77.5670  223.4381 H   0  0  0  0  0  0  0  0  0  0  0  0
  143.0416   78.4165  223.1604 H   0  0  0  0  0  0  0  0  0  0  0  0
  142.4524   79.5945  221.8682 H   0  0  0  0  0  0  0  0  0  0  0  0
  141.9171   79.8103  224.8350 H   0  0  0  0  0  0  0  0  0  0  0  0
  143.1025   80.7614  223.9408 H   0  0  0  0  0  0  0  0  0  0  0  0
  141.0110   82.0523  223.8858 H   0  0  0  0  0  0  0  0  0  0  0  0
  141.1372   81.3645  222.2770 H   0  0  0  0  0  0  0  0  0  0  0  0
  139.7729   80.0413  224.6928 H   0  0  0  0  0  0  0  0  0  0  0  0
  138.9289   80.8998  223.3198 H   0  0  0  0  0  0  0  0  0  0  0  0
  139.0502   78.3190  223.3680 H   0  0  0  0  0  0  0  0  0  0  0  0
  139.3731   79.2897  221.8318 H   0  0  0  0  0  0  0  0  0  0  0  0
  139.1947   70.2052  222.3252 H   0  0  0  0  0  0  0  0  0  0  0  0
  138.8248   68.5582  224.1798 H   0  0  0  0  0  0  0  0  0  0  0  0
  139.1232   67.9984  226.4682 H   0  0  0  0  0  0  0  0  0  0  0  0
  141.1696   70.6630  229.1266 H   0  0  0  0  0  0  0  0  0  0  0  0
  141.5073   72.2510  227.2665 H   0  0  0  0  0  0  0  0  0  0  0  0
  1  2  2  0
  2  3  1  0
  3  4  1  0
  4  5  1  0
  5  6  2  0
  5  7  1  0
  7  8  1  0
  8  9  1  0
  9 10  1  0
 10 11  1  0
 11 12  1  0
 12 13  1  0
 13 14  1  0
 14 15  1  0
 15 16  1  0
 16 17  1  0
 17 18  1  0
  2 19  1  0
 19 20  2  0
 20 21  1  0
 21 22  2  0
 22 23  1  0
 23 24  2  0
 24 25  1  0
 24 26  1  0
 26 27  2  0
 27 28  1  0
 28 29  2  0
 12  7  1  0
 18 13  1  0
 29 19  1  0
 28 22  1  0
  3 30  1  0
  4 31  1  0
  4 32  1  0
  8 33  1  0
  8 34  1  0
  9 35  1  0
  9 36  1  0
 10 37  1  0
 10 38  1  0
 11 39  1  0
 11 40  1  0
 12 41  1  1
 13 42  1  0
 14 43  1  0
 14 44  1  0
 15 45  1  0
 15 46  1  0
 16 47  1  0
 16 48  1  0
 17 49  1  0
 17 50  1  0
 18 51  1  0
 18 52  1  0
 20 53  1  0
 21 54  1  0
 23 55  1  0
 26 56  1  0
 27 57  1  0
M  END
>  <smiles>  (97) 
O=C(NCC(=O)N1CCCCC1C1CCCCC1)c1ccc2cc(F)ccc2n1

>  <score_type>  (97) 
oracle

>  <origin>  (97) 
autodockgpu

>  <m_score__min__energy>  (97) 
-9.0199999999999996

>  <m_primary>  (97) 
energy

>  <rmsd>  (97) 
1.9801990654718526

>  <m_score__min__rmsd>  (97) 
1.9801990654718526

>  <meeko>  (97) 
{"free_energy": -8.84, "intermolecular_energy": -10.33, "internal_energy": -1.92, "cluster_size": 24, "cluster_id": 1, "rank_in_cluster": 7}

>  <energy>  (97) 
-8.09

>  <cluster_rmsd>  (97) 
0.9

>  <cluster>  (97) 
2

$$$$

     RDKit          3D

 57 60  0  0  0  0  0  0  0  0999 V2000
  141.1670   72.0990  221.4140 O   0  0  0  0  0  0  0  0  0  0  0  0
  140.3930   72.4020  222.3680 C   0  0  0  0  0  0  0  0  0  0  0  0
  139.6450   73.6200  222.3000 N   0  0  0  0  0  0  0  0  0  0  0  0
  139.8280   74.4420  221.1210 C   0  0  0  0  0  0  0  0  0  0  0  0
  139.9330   75.8850  221.5400 C   0  0  0  0  0  0  0  0  0  0  0  0
  139.6470   76.1230  222.7370 O   0  0  0  0  0  0  0  0  0  0  0  0
  140.3330   76.8860  220.6100 N   0  0  0  0  0  0  0  0  0  0  0  0
  139.6490   76.9750  219.3530 C   0  0  0  0  0  0  0  0  0  0  0  0
  140.4500   77.5260  218.2280 C   0  0  0  0  0  0  0  0  0  0  0  0
  141.8770   77.8250  218.5460 C   0  0  0  0  0  0  0  0  0  0  0  0
  142.0860   78.4780  219.8900 C   0  0  0  0  0  0  0  0  0  0  0  0
  141.4230   77.7530  221.0140 C   0  0  1  0  0  0  0  0  0  0  0  0
  140.9760   78.6960  222.1410 C   0  0  0  0  0  0  0  0  0  0  0  0
  142.1700   79.0140  222.9690 C   0  0  0  0  0  0  0  0  0  0  0  0
  142.0810   80.2620  223.7940 C   0  0  0  0  0  0  0  0  0  0  0  0
  141.8170   81.3700  222.7950 C   0  0  0  0  0  0  0  0  0  0  0  0
  140.3850   81.1410  222.3840 C   0  0  0  0  0  0  0  0  0  0  0  0
  140.1710   79.8380  221.6610 C   0  0  0  0  0  0  0  0  0  0  0  0
  140.2360   71.5420  223.5440 C   0  0  0  0  0  0  0  0  0  0  0  0
  139.5820   70.3340  223.3670 C   0  0  0  0  0  0  0  0  0  0  0  0
  139.3920   69.4610  224.4380 C   0  0  0  0  0  0  0  0  0  0  0  0
  139.8840   69.8500  225.6770 C   0  0  0  0  0  0  0  0  0  0  0  0
  139.7160   69.0140  226.7520 C   0  0  0  0  0  0  0  0  0  0  0  0
  140.1850   69.3570  228.0000 C   0  0  0  0  0  0  0  0  0  0  0  0
  140.0400   68.5620  229.0840 F   0  0  0  0  0  0  0  0  0  0  0  0
  140.8370   70.5740  228.1420 C   0  0  0  0  0  0  0  0  0  0  0  0
  141.0050   71.4140  227.0580 C   0  0  0  0  0  0  0  0  0  0  0  0
  140.5310   71.0610  225.8180 C   0  0  0  0  0  0  0  0  0  0  0  0
  140.6980   71.8860  224.7560 N   0  0  0  0  0  0  0  0  0  0  0  0
  139.0060   73.8700  223.0860 H   0  0  0  0  0  0  0  0  0  0  0  0
  140.7495   74.1410  220.6011 H   0  0  0  0  0  0  0  0  0  0  0  0
  138.9719   74.3137  220.4423 H   0  0  0  0  0  0  0  0  0  0  0  0
  139.3216   75.9630  219.0726 H   0  0  0  0  0  0  0  0  0  0  0  0
  138.8200   77.6810  219.5087 H   0  0  0  0  0  0  0  0  0  0  0  0
  140.4312   76.7939  217.4072 H   0  0  0  0  0  0  0  0  0  0  0  0
  139.9879   78.4903  217.9700 H   0  0  0  0  0  0  0  0  0  0  0  0
  142.4396   76.8799  218.5302 H   0  0  0  0  0  0  0  0  0  0  0  0
  142.2270   78.5412  217.7880 H   0  0  0  0  0  0  0  0  0  0  0  0
  143.1664   78.5204  220.0922 H   0  0  0  0  0  0  0  0  0  0  0  0
  141.6317   79.4784  219.8377 H   0  0  0  0  0  0  0  0  0  0  0  0
  142.2107   77.0927  221.4059 H   0  0  0  0  0  0  0  0  0  0  0  0
  140.2503   78.2031  222.8047 H   0  0  0  0  0  0  0  0  0  0  0  0
  142.3406   78.1694  223.6528 H   0  0  0  0  0  0  0  0  0  0  0  0
  142.9894   79.1865  222.2557 H   0  0  0  0  0  0  0  0  0  0  0  0
  141.2565   80.1893  224.5185 H   0  0  0  0  0  0  0  0  0  0  0  0
  142.9963   80.4394  224.3777 H   0  0  0  0  0  0  0  0  0  0  0  0
  141.9383   82.3581  223.2629 H   0  0  0  0  0  0  0  0  0  0  0  0
  142.5142   81.3543  221.9443 H   0  0  0  0  0  0  0  0  0  0  0  0
  139.7580   81.1452  223.2878 H   0  0  0  0  0  0  0  0  0  0  0  0
  140.1147   81.9474  221.6864 H   0  0  0  0  0  0  0  0  0  0  0  0
  139.1093   79.5677  221.7599 H   0  0  0  0  0  0  0  0  0  0  0  0
  140.4931   80.0155  220.6243 H   0  0  0  0  0  0  0  0  0  0  0  0
  139.2079   70.0598  222.3696 H   0  0  0  0  0  0  0  0  0  0  0  0
  138.8721   68.5006  224.3062 H   0  0  0  0  0  0  0  0  0  0  0  0
  139.1978   68.0535  226.6143 H   0  0  0  0  0  0  0  0  0  0  0  0
  141.2239   70.8727  229.1274 H   0  0  0  0  0  0  0  0  0  0  0  0
  141.5236   72.3752  227.1893 H   0  0  0  0  0  0  0  0  0  0  0  0
  1  2  2  0
  2  3  1  0
  3  4  1  0
  4  5  1  0
  5  6  2  0
  5  7  1  0
  7  8  1  0
  8  9  1  0
  9 10  1  0
 10 11  1  0
 11 12  1  0
 12 13  1  0
 13 14  1  0
 14 15  1  0
 15 16  1  0
 16 17  1  0
 17 18  1  0
  2 19  1  0
 19 20  2  0
 20 21  1  0
 21 22  2  0
 22 23  1  0
 23 24  2  0
 24 25  1  0
 24 26  1  0
 26 27  2  0
 27 28  1  0
 28 29  2  0
 12  7  1  0
 18 13  1  0
 29 19  1  0
 28 22  1  0
  3 30  1  0
  4 31  1  0
  4 32  1  0
  8 33  1  0
  8 34  1  0
  9 35  1  0
  9 36  1  0
 10 37  1  0
 10 38  1  0
 11 39  1  0
 11 40  1  0
 12 41  1  1
 13 42  1  0
 14 43  1  0
 14 44  1  0
 15 45  1  0
 15 46  1  0
 16 47  1  0
 16 48  1  0
 17 49  1  0
 17 50  1  0
 18 51  1  0
 18 52  1  0
 20 53  1  0
 21 54  1  0
 23 55  1  0
 26 56  1  0
 27 57  1  0
M  END
>  <smiles>  (98) 
O=C(NCC(=O)N1CCCCC1C1CCCCC1)c1ccc2cc(F)ccc2n1

>  <score_type>  (98) 
oracle

>  <origin>  (98) 
autodockgpu

>  <m_score__min__energy>  (98) 
-9.0199999999999996

>  <m_primary>  (98) 
energy

>  <rmsd>  (98) 
1.728984203054256

>  <m_score__min__rmsd>  (98) 
1.728984203054256

>  <meeko>  (98) 
{"free_energy": -8.74, "intermolecular_energy": -10.23, "internal_energy": -1.75, "cluster_size": 24, "cluster_id": 1, "rank_in_cluster": 8}

>  <energy>  (98) 
-7.4

>  <cluster_rmsd>  (98) 
0.8

>  <cluster>  (98) 
2

$$$$

     RDKit          3D

 57 60  0  0  0  0  0  0  0  0999 V2000
  140.5190   71.7720  221.0830 O   0  0  0  0  0  0  0  0  0  0  0  0
  140.1660   72.2500  222.2000 C   0  0  0  0  0  0  0  0  0  0  0  0
  139.8160   73.6350  222.2880 N   0  0  0  0  0  0  0  0  0  0  0  0
  139.8930   74.4140  221.0680 C   0  0  0  0  0  0  0  0  0  0  0  0
  140.8640   75.5470  221.2690 C   0  0  0  0  0  0  0  0  0  0  0  0
  140.7780   76.1460  222.3670 O   0  0  0  0  0  0  0  0  0  0  0  0
  141.8040   75.8890  220.2550 N   0  0  0  0  0  0  0  0  0  0  0  0
  142.1400   77.2690  220.0620 C   0  0  0  0  0  0  0  0  0  0  0  0
  142.5620   77.6350  218.6840 C   0  0  0  0  0  0  0  0  0  0  0  0
  142.4910   76.5340  217.6790 C   0  0  0  0  0  0  0  0  0  0  0  0
  142.9800   75.2010  218.1890 C   0  0  0  0  0  0  0  0  0  0  0  0
  142.3570   74.7930  219.4830 C   0  0  1  0  0  0  0  0  0  0  0  0
  143.2980   73.9410  220.3480 C   0  0  0  0  0  0  0  0  0  0  0  0
  143.1970   72.5330  219.8790 C   0  0  0  0  0  0  0  0  0  0  0  0
  144.3510   71.6430  220.2280 C   0  0  0  0  0  0  0  0  0  0  0  0
  145.5620   72.3190  219.6190 C   0  0  0  0  0  0  0  0  0  0  0  0
  145.7840   73.5150  220.5100 C   0  0  0  0  0  0  0  0  0  0  0  0
  144.6550   74.5110  220.4670 C   0  0  0  0  0  0  0  0  0  0  0  0
  140.1010   71.4280  223.4120 C   0  0  0  0  0  0  0  0  0  0  0  0
  139.5370   70.1680  223.2980 C   0  0  0  0  0  0  0  0  0  0  0  0
  139.4380   69.3270  224.4050 C   0  0  0  0  0  0  0  0  0  0  0  0
  139.9260   69.8000  225.6150 C   0  0  0  0  0  0  0  0  0  0  0  0
  139.8470   68.9980  226.7260 C   0  0  0  0  0  0  0  0  0  0  0  0
  140.3170   69.4240  227.9470 C   0  0  0  0  0  0  0  0  0  0  0  0
  140.2570   68.6640  229.0640 F   0  0  0  0  0  0  0  0  0  0  0  0
  140.8770   70.6920  228.0260 C   0  0  0  0  0  0  0  0  0  0  0  0
  140.9560   71.4980  226.9080 C   0  0  0  0  0  0  0  0  0  0  0  0
  140.4830   71.0610  225.6940 C   0  0  0  0  0  0  0  0  0  0  0  0
  140.5620   71.8530  224.5970 N   0  0  0  0  0  0  0  0  0  0  0  0
  139.5240   74.0290  223.2080 H   0  0  0  0  0  0  0  0  0  0  0  0
  140.2392   73.7738  220.2431 H   0  0  0  0  0  0  0  0  0  0  0  0
  138.8994   74.8161  220.8210 H   0  0  0  0  0  0  0  0  0  0  0  0
  141.2568   77.8726  220.3182 H   0  0  0  0  0  0  0  0  0  0  0  0
  143.0095   77.4628  220.7073 H   0  0  0  0  0  0  0  0  0  0  0  0
  141.9143   78.4536  218.3369 H   0  0  0  0  0  0  0  0  0  0  0  0
  143.6242   77.9117  218.7558 H   0  0  0  0  0  0  0  0  0  0  0  0
  141.4429   76.4202  217.3650 H   0  0  0  0  0  0  0  0  0  0  0  0
  143.1549   76.8188  216.8495 H   0  0  0  0  0  0  0  0  0  0  0  0
  142.7499   74.4341  217.4348 H   0  0  0  0  0  0  0  0  0  0  0  0
  144.0609   75.2998  218.3675 H   0  0  0  0  0  0  0  0  0  0  0  0
  141.5031   74.1684  219.1818 H   0  0  0  0  0  0  0  0  0  0  0  0
  142.9830   73.9488  221.4019 H   0  0  0  0  0  0  0  0  0  0  0  0
  142.2887   72.0954  220.3190 H   0  0  0  0  0  0  0  0  0  0  0  0
  143.1828   72.5853  218.7803 H   0  0  0  0  0  0  0  0  0  0  0  0
  144.4610   71.5619  221.3195 H   0  0  0  0  0  0  0  0  0  0  0  0
  144.2139   70.6193  219.8495 H   0  0  0  0  0  0  0  0  0  0  0  0
  146.4349   71.6499  219.6346 H   0  0  0  0  0  0  0  0  0  0  0  0
  145.4140   72.5928  218.5640 H   0  0  0  0  0  0  0  0  0  0  0  0
  145.8982   73.1619  221.5455 H   0  0  0  0  0  0  0  0  0  0  0  0
  146.6849   74.0295  220.1443 H   0  0  0  0  0  0  0  0  0  0  0  0
  144.6921   75.1031  221.3933 H   0  0  0  0  0  0  0  0  0  0  0  0
  144.8121   75.1007  219.5518 H   0  0  0  0  0  0  0  0  0  0  0  0
  139.1626   69.8269  222.3216 H   0  0  0  0  0  0  0  0  0  0  0  0
  138.9898   68.3258  224.3227 H   0  0  0  0  0  0  0  0  0  0  0  0
  139.3999   67.9967  226.6387 H   0  0  0  0  0  0  0  0  0  0  0  0
  141.2617   71.0581  228.9893 H   0  0  0  0  0  0  0  0  0  0  0  0
  141.4021   72.5002  226.9898 H   0  0  0  0  0  0  0  0  0  0  0  0
  1  2  2  0
  2  3  1  0
  3  4  1  0
  4  5  1  0
  5  6  2  0
  5  7  1  0
  7  8  1  0
  8  9  1  0
  9 10  1  0
 10 11  1  0
 11 12  1  0
 12 13  1  0
 13 14  1  0
 14 15  1  0
 15 16  1  0
 16 17  1  0
 17 18  1  0
  2 19  1  0
 19 20  2  0
 20 21  1  0
 21 22  2  0
 22 23  1  0
 23 24  2  0
 24 25  1  0
 24 26  1  0
 26 27  2  0
 27 28  1  0
 28 29  2  0
 12  7  1  0
 18 13  1  0
 29 19  1  0
 28 22  1  0
  3 30  1  0
  4 31  1  0
  4 32  1  0
  8 33  1  0
  8 34  1  0
  9 35  1  0
  9 36  1  0
 10 37  1  0
 10 38  1  0
 11 39  1  0
 11 40  1  0
 12 41  1  6
 13 42  1  0
 14 43  1  0
 14 44  1  0
 15 45  1  0
 15 46  1  0
 16 47  1  0
 16 48  1  0
 17 49  1  0
 17 50  1  0
 18 51  1  0
 18 52  1  0
 20 53  1  0
 21 54  1  0
 23 55  1  0
 26 56  1  0
 27 57  1  0
M  END
>  <smiles>  (99) 
O=C(NCC(=O)N1CCCCC1C1CCCCC1)c1ccc2cc(F)ccc2n1

>  <score_type>  (99) 
oracle

>  <origin>  (99) 
autodockgpu

>  <m_score__min__energy>  (99) 
-9.0199999999999996

>  <m_primary>  (99) 
energy

>  <rmsd>  (99) 
2.3068399654922356

>  <m_score__min__rmsd>  (99) 
2.3068399654922356

>  <meeko>  (99) 
{"free_energy": -8.6, "intermolecular_energy": -10.09, "internal_energy": -2.07, "cluster_size": 24, "cluster_id": 2, "rank_in_cluster": 17}

>  <energy>  (99) 
-8.63

>  <cluster_rmsd>  (99) 
0.0

>  <cluster>  (99) 
3

$$$$

     RDKit          3D

 57 60  0  0  0  0  0  0  0  0999 V2000
  140.5180   71.8220  221.0890 O   0  0  0  0  0  0  0  0  0  0  0  0
  140.1810   72.2950  222.2130 C   0  0  0  0  0  0  0  0  0  0  0  0
  139.8490   73.6830  222.3150 N   0  0  0  0  0  0  0  0  0  0  0  0
  139.9240   74.4710  221.1010 C   0  0  0  0  0  0  0  0  0  0  0  0
  140.9100   75.5910  221.3030 C   0  0  0  0  0  0  0  0  0  0  0  0
  140.8270   76.1950  222.3990 O   0  0  0  0  0  0  0  0  0  0  0  0
  141.8590   75.9180  220.2930 N   0  0  0  0  0  0  0  0  0  0  0  0
  142.1920   77.2950  220.0770 C   0  0  0  0  0  0  0  0  0  0  0  0
  142.6270   77.6360  218.6960 C   0  0  0  0  0  0  0  0  0  0  0  0
  142.5700   76.5160  217.7120 C   0  0  0  0  0  0  0  0  0  0  0  0
  143.0590   75.1950  218.2530 C   0  0  0  0  0  0  0  0  0  0  0  0
  142.4240   74.8090  219.5470 C   0  0  1  0  0  0  0  0  0  0  0  0
  143.3590   73.9770  220.4380 C   0  0  0  0  0  0  0  0  0  0  0  0
  143.2150   72.5510  220.0400 C   0  0  0  0  0  0  0  0  0  0  0  0
  144.3540   71.6500  220.4140 C   0  0  0  0  0  0  0  0  0  0  0  0
  145.5700   72.2660  219.7530 C   0  0  0  0  0  0  0  0  0  0  0  0
  145.8360   73.4980  220.5810 C   0  0  0  0  0  0  0  0  0  0  0  0
  144.7310   74.5180  220.5070 C   0  0  0  0  0  0  0  0  0  0  0  0
  140.1160   71.4640  223.4190 C   0  0  0  0  0  0  0  0  0  0  0  0
  139.5510   70.2050  223.2950 C   0  0  0  0  0  0  0  0  0  0  0  0
  139.4530   69.3550  224.3960 C   0  0  0  0  0  0  0  0  0  0  0  0
  139.9420   69.8190  225.6100 C   0  0  0  0  0  0  0  0  0  0  0  0
  139.8630   69.0090  226.7140 C   0  0  0  0  0  0  0  0  0  0  0  0
  140.3350   69.4250  227.9380 C   0  0  0  0  0  0  0  0  0  0  0  0
  140.2760   68.6570  229.0500 F   0  0  0  0  0  0  0  0  0  0  0  0
  140.8960   70.6920  228.0260 C   0  0  0  0  0  0  0  0  0  0  0  0
  140.9750   71.5060  226.9140 C   0  0  0  0  0  0  0  0  0  0  0  0
  140.5000   71.0790  225.6970 C   0  0  0  0  0  0  0  0  0  0  0  0
  140.5790   71.8800  224.6070 N   0  0  0  0  0  0  0  0  0  0  0  0
  139.5690   74.0740  223.2410 H   0  0  0  0  0  0  0  0  0  0  0  0
  140.2553   73.8339  220.2678 H   0  0  0  0  0  0  0  0  0  0  0  0
  138.9329   74.8865  220.8661 H   0  0  0  0  0  0  0  0  0  0  0  0
  141.3041   77.9001  220.3125 H   0  0  0  0  0  0  0  0  0  0  0  0
  143.0541   77.5045  220.7273 H   0  0  0  0  0  0  0  0  0  0  0  0
  141.9802   78.4454  218.3266 H   0  0  0  0  0  0  0  0  0  0  0  0
  143.6875   77.9178  218.7733 H   0  0  0  0  0  0  0  0  0  0  0  0
  141.5256   76.3920  217.3899 H   0  0  0  0  0  0  0  0  0  0  0  0
  143.2408   76.7873  216.8835 H   0  0  0  0  0  0  0  0  0  0  0  0
  142.8405   74.4128  217.5111 H   0  0  0  0  0  0  0  0  0  0  0  0
  144.1374   75.3023  218.4416 H   0  0  0  0  0  0  0  0  0  0  0  0
  141.5756   74.1756  219.2485 H   0  0  0  0  0  0  0  0  0  0  0  0
  143.0634   74.0439  221.4954 H   0  0  0  0  0  0  0  0  0  0  0  0
  142.3041   72.1584  220.5155 H   0  0  0  0  0  0  0  0  0  0  0  0
  143.1823   72.5499  218.9405 H   0  0  0  0  0  0  0  0  0  0  0  0
  144.4809   71.6193  221.5062 H   0  0  0  0  0  0  0  0  0  0  0  0
  144.1861   70.6127  220.0886 H   0  0  0  0  0  0  0  0  0  0  0  0
  146.4270   71.5772  219.7869 H   0  0  0  0  0  0  0  0  0  0  0  0
  145.4100   72.4921  218.6885 H   0  0  0  0  0  0  0  0  0  0  0  0
  145.9592   73.1928  221.6306 H   0  0  0  0  0  0  0  0  0  0  0  0
  146.7428   73.9716  220.1766 H   0  0  0  0  0  0  0  0  0  0  0  0
  144.7983   75.1536  221.4023 H   0  0  0  0  0  0  0  0  0  0  0  0
  144.8865   75.0579  219.5613 H   0  0  0  0  0  0  0  0  0  0  0  0
  139.1752   69.8720  222.3163 H   0  0  0  0  0  0  0  0  0  0  0  0
  139.0051   68.3543  224.3062 H   0  0  0  0  0  0  0  0  0  0  0  0
  139.4144   68.0091  226.6194 H   0  0  0  0  0  0  0  0  0  0  0  0
  141.2814   71.0508  228.9918 H   0  0  0  0  0  0  0  0  0  0  0  0
  141.4228   72.5068  227.0028 H   0  0  0  0  0  0  0  0  0  0  0  0
  1  2  2  0
  2  3  1  0
  3  4  1  0
  4  5  1  0
  5  6  2  0
  5  7  1  0
  7  8  1  0
  8  9  1  0
  9 10  1  0
 10 11  1  0
 11 12  1  0
 12 13  1  0
 13 14  1  0
 14 15  1  0
 15 16  1  0
 16 17  1  0
 17 18  1  0
  2 19  1  0
 19 20  2  0
 20 21  1  0
 21 22  2  0
 22 23  1  0
 23 24  2  0
 24 25  1  0
 24 26  1  0
 26 27  2  0
 27 28  1  0
 28 29  2  0
 12  7  1  0
 18 13  1  0
 29 19  1  0
 28 22  1  0
  3 30  1  0
  4 31  1  0
  4 32  1  0
  8 33  1  0
  8 34  1  0
  9 35  1  0
  9 36  1  0
 10 37  1  0
 10 38  1  0
 11 39  1  0
 11 40  1  0
 12 41  1  6
 13 42  1  0
 14 43  1  0
 14 44  1  0
 15 45  1  0
 15 46  1  0
 16 47  1  0
 16 48  1  0
 17 49  1  0
 17 50  1  0
 18 51  1  0
 18 52  1  0
 20 53  1  0
 21 54  1  0
 23 55  1  0
 26 56  1  0
 27 57  1  0
M  END
>  <smiles>  (100) 
O=C(NCC(=O)N1CCCCC1C1CCCCC1)c1ccc2cc(F)ccc2n1

>  <score_type>  (100) 
oracle

>  <origin>  (100) 
autodockgpu

>  <m_score__min__energy>  (100) 
-9.0199999999999996

>  <m_primary>  (100) 
energy

>  <rmsd>  (100) 
2.3393877547244797

>  <m_score__min__rmsd>  (100) 
2.3393877547244797

>  <meeko>  (100) 
{"free_energy": -8.59, "intermolecular_energy": -10.08, "internal_energy": -2.08, "cluster_size": 24, "cluster_id": 2, "rank_in_cluster": 19}

>  <energy>  (100) 
-6.96

>  <cluster_rmsd>  (100) 
0.0

>  <cluster>  (100) 
4

$$$$
