
     RDKit          3D

 64 68  0  0  0  0  0  0  0  0999 V2000
  146.2080   72.7340  221.5820 N   0  0  0  0  0  0  0  0  0  0  0  0
  145.6770   73.6330  220.6290 C   0  0  0  0  0  0  0  0  0  0  0  0
  145.7540   74.8500  220.8440 O   0  0  0  0  0  0  0  0  0  0  0  0
  145.0520   73.0460  219.4120 C   0  0  0  0  0  0  0  0  0  0  0  0
  143.5710   73.2400  219.5320 C   0  0  0  0  0  0  0  0  0  0  0  0
  142.8880   72.0910  220.1370 N   0  0  0  0  0  0  0  0  0  0  0  0
  141.8150   72.4170  221.0270 C   0  0  0  0  0  0  0  0  0  0  0  0
  141.4200   73.6930  221.0980 N   0  0  0  0  0  0  0  0  0  0  0  0
  140.4000   74.0190  221.9390 C   0  0  0  0  0  0  0  0  0  0  0  0
  139.9860   75.3640  222.0120 N   0  0  0  0  0  0  0  0  0  0  0  0
  138.5950   75.6890  221.7630 C   0  0  0  0  0  0  0  0  0  0  0  0
  138.2020   76.6660  222.8700 C   0  0  0  0  0  0  0  0  0  0  0  0
  138.9120   77.9000  222.5960 N   0  0  0  0  0  0  0  0  0  0  0  0
  138.3440   79.1670  222.8400 C   0  0  0  0  0  0  0  0  0  0  0  0
  138.6660   79.9200  223.9570 C   0  0  0  0  0  0  0  0  0  0  0  0
  138.0990   81.1660  224.1940 C   0  0  0  0  0  0  0  0  0  0  0  0
  137.1810   81.7110  223.3150 C   0  0  0  0  0  0  0  0  0  0  0  0
  136.8520   80.9710  222.1980 C   0  0  0  0  0  0  0  0  0  0  0  0
  137.4270   79.7230  221.9730 C   0  0  0  0  0  0  0  0  0  0  0  0
  140.2480   77.7870  222.0590 C   0  0  0  0  0  0  0  0  0  0  0  0
  140.8830   76.4370  222.3230 C   0  0  0  0  0  0  0  0  0  0  0  0
  139.7940   73.0660  222.6930 N   0  0  0  0  0  0  0  0  0  0  0  0
  140.1990   71.7780  222.6150 C   0  0  0  0  0  0  0  0  0  0  0  0
  139.5330   70.8300  223.4200 N   0  0  0  0  0  0  0  0  0  0  0  0
  139.1940   69.5440  222.8400 C   0  0  0  0  0  0  0  0  0  0  0  0
  138.7070   68.6000  223.9240 C   0  0  0  0  0  0  0  0  0  0  0  0
  139.5400   68.7090  225.1490 C   0  0  0  0  0  0  0  0  0  0  0  0
  140.0540   67.6300  225.8230 C   0  0  0  0  0  0  0  0  0  0  0  0
  140.8300   67.8200  226.9680 C   0  0  0  0  0  0  0  0  0  0  0  0
  141.0470   69.1260  227.3790 C   0  0  0  0  0  0  0  0  0  0  0  0
  140.5500   70.2190  226.7310 C   0  0  0  0  0  0  0  0  0  0  0  0
  139.7870   70.0090  225.6020 C   0  0  0  0  0  0  0  0  0  0  0  0
  139.1930   71.1410  224.8150 C   0  0  0  0  0  0  0  0  0  0  0  0
  141.2080   71.4560  221.7830 N   0  0  0  0  0  0  0  0  0  0  0  0
  147.2070   72.8960  221.8820 H   0  0  0  0  0  0  0  0  0  0  0  0
  145.6370   71.9460  221.9690 H   0  0  0  0  0  0  0  0  0  0  0  0
  145.4267   73.5571  218.5129 H   0  0  0  0  0  0  0  0  0  0  0  0
  145.2984   71.9775  219.3253 H   0  0  0  0  0  0  0  0  0  0  0  0
  143.3833   74.1269  220.1550 H   0  0  0  0  0  0  0  0  0  0  0  0
  143.1721   73.3604  218.5140 H   0  0  0  0  0  0  0  0  0  0  0  0
  143.1710   71.1060  219.9280 H   0  0  0  0  0  0  0  0  0  0  0  0
  138.4807   76.1600  220.7756 H   0  0  0  0  0  0  0  0  0  0  0  0
  137.9587   74.7917  221.7645 H   0  0  0  0  0  0  0  0  0  0  0  0
  137.1160   76.8405  222.8559 H   0  0  0  0  0  0  0  0  0  0  0  0
  138.4596   76.2691  223.8630 H   0  0  0  0  0  0  0  0  0  0  0  0
  139.3930   79.5192  224.6787 H   0  0  0  0  0  0  0  0  0  0  0  0
  138.3849   81.7281  225.0953 H   0  0  0  0  0  0  0  0  0  0  0  0
  136.7301   82.6973  223.4994 H   0  0  0  0  0  0  0  0  0  0  0  0
  136.1259   81.3722  221.4757 H   0  0  0  0  0  0  0  0  0  0  0  0
  137.1397   79.1609  221.0722 H   0  0  0  0  0  0  0  0  0  0  0  0
  140.2027   77.9458  220.9715 H   0  0  0  0  0  0  0  0  0  0  0  0
  140.8680   78.5446  222.5606 H   0  0  0  0  0  0  0  0  0  0  0  0
  141.7858   76.3393  221.7021 H   0  0  0  0  0  0  0  0  0  0  0  0
  141.1342   76.3774  223.3923 H   0  0  0  0  0  0  0  0  0  0  0  0
  138.3999   69.6798  222.0910 H   0  0  0  0  0  0  0  0  0  0  0  0
  140.0873   69.1159  222.3618 H   0  0  0  0  0  0  0  0  0  0  0  0
  137.6657   68.8499  224.1754 H   0  0  0  0  0  0  0  0  0  0  0  0
  138.7796   67.5698  223.5454 H   0  0  0  0  0  0  0  0  0  0  0  0
  139.8539   66.6112  225.4597 H   0  0  0  0  0  0  0  0  0  0  0  0
  141.2520   66.9681  227.5214 H   0  0  0  0  0  0  0  0  0  0  0  0
  141.6555   69.2908  228.2804 H   0  0  0  0  0  0  0  0  0  0  0  0
  140.7518   71.2362  227.0979 H   0  0  0  0  0  0  0  0  0  0  0  0
  138.1021   71.1800  224.9509 H   0  0  0  0  0  0  0  0  0  0  0  0
  139.5772   72.1214  225.1330 H   0  0  0  0  0  0  0  0  0  0  0  0
  1  2  1  0
  2  3  2  0
  2  4  1  0
  4  5  1  0
  5  6  1  0
  6  7  1  0
  7  8  2  0
  8  9  1  0
  9 10  1  0
 10 11  1  0
 11 12  1  0
 12 13  1  0
 13 14  1  0
 14 15  2  0
 15 16  1  0
 16 17  2  0
 17 18  1  0
 18 19  2  0
 13 20  1  0
 20 21  1  0
  9 22  2  0
 22 23  1  0
 23 24  1  0
 24 25  1  0
 25 26  1  0
 26 27  1  0
 27 28  2  0
 28 29  1  0
 29 30  2  0
 30 31  1  0
 31 32  2  0
 32 33  1  0
 23 34  2  0
 34  7  1  0
 21 10  1  0
 33 24  1  0
 19 14  1  0
 32 27  1  0
  1 35  1  0
  1 36  1  0
  4 37  1  0
  4 38  1  0
  5 39  1  0
  5 40  1  0
  6 41  1  0
 11 42  1  0
 11 43  1  0
 12 44  1  0
 12 45  1  0
 15 46  1  0
 16 47  1  0
 17 48  1  0
 18 49  1  0
 19 50  1  0
 20 51  1  0
 20 52  1  0
 21 53  1  0
 21 54  1  0
 25 55  1  0
 25 56  1  0
 26 57  1  0
 26 58  1  0
 28 59  1  0
 29 60  1  0
 30 61  1  0
 31 62  1  0
 33 63  1  0
 33 64  1  0
M  END
>  <smiles>  (1) 
NC(=O)CCNc1nc(N2CCN(c3ccccc3)CC2)nc(N2CCc3ccccc3C2)n1

>  <score_type>  (1) 
oracle

>  <origin>  (1) 
autodockgpu

>  <m_score__min__energy>  (1) 
-9.3900000000000006

>  <m_primary>  (1) 
energy

>  <rmsd>  (1) 
8.687569595065442

>  <m_score__min__rmsd>  (1) 
8.687569595065442

>  <meeko>  (1) 
{"free_energy": -8.12, "intermolecular_energy": -10.21, "internal_energy": -0.92, "cluster_size": 2, "cluster_id": 2, "rank_in_cluster": 1}

>  <energy>  (1) 
-9.39

>  <cluster_rmsd>  (1) 
0.0

>  <cluster>  (1) 
1

$$$$

     RDKit          3D

 64 68  0  0  0  0  0  0  0  0999 V2000
  145.8760   72.0320  220.4140 N   0  0  0  0  0  0  0  0  0  0  0  0
  145.4250   72.6450  219.2220 C   0  0  0  0  0  0  0  0  0  0  0  0
  146.2440   73.2280  218.5000 O   0  0  0  0  0  0  0  0  0  0  0  0
  143.9730   72.5430  218.9110 C   0  0  0  0  0  0  0  0  0  0  0  0
  143.5190   71.1790  219.3360 C   0  0  0  0  0  0  0  0  0  0  0  0
  142.0600   71.0610  219.4240 N   0  0  0  0  0  0  0  0  0  0  0  0
  141.4460   71.8320  220.4620 C   0  0  0  0  0  0  0  0  0  0  0  0
  141.4920   73.1650  220.3690 N   0  0  0  0  0  0  0  0  0  0  0  0
  140.9100   73.9130  221.3480 C   0  0  0  0  0  0  0  0  0  0  0  0
  140.9610   75.3180  221.2470 N   0  0  0  0  0  0  0  0  0  0  0  0
  140.0610   76.1160  222.0560 C   0  0  0  0  0  0  0  0  0  0  0  0
  140.9240   77.2350  222.6370 C   0  0  0  0  0  0  0  0  0  0  0  0
  141.2690   78.1020  221.5270 N   0  0  0  0  0  0  0  0  0  0  0  0
  141.3670   79.5010  221.6650 C   0  0  0  0  0  0  0  0  0  0  0  0
  141.7110   80.1050  222.8630 C   0  0  0  0  0  0  0  0  0  0  0  0
  141.8020   81.4850  222.9930 C   0  0  0  0  0  0  0  0  0  0  0  0
  141.5490   82.3210  221.9210 C   0  0  0  0  0  0  0  0  0  0  0  0
  141.2050   81.7320  220.7220 C   0  0  0  0  0  0  0  0  0  0  0  0
  141.1170   80.3470  220.6050 C   0  0  0  0  0  0  0  0  0  0  0  0
  141.5190   77.4710  220.2520 C   0  0  0  0  0  0  0  0  0  0  0  0
  141.8660   76.0010  220.3730 C   0  0  0  0  0  0  0  0  0  0  0  0
  140.2960   73.3150  222.4000 N   0  0  0  0  0  0  0  0  0  0  0  0
  140.2530   71.9670  222.4880 C   0  0  0  0  0  0  0  0  0  0  0  0
  139.6000   71.4000  223.6030 N   0  0  0  0  0  0  0  0  0  0  0  0
  138.3590   70.6800  223.3880 C   0  0  0  0  0  0  0  0  0  0  0  0
  137.9540   69.9580  224.6590 C   0  0  0  0  0  0  0  0  0  0  0  0
  139.1240   69.3190  225.3140 C   0  0  0  0  0  0  0  0  0  0  0  0
  139.1370   68.0210  225.7590 C   0  0  0  0  0  0  0  0  0  0  0  0
  140.2810   67.4970  226.3640 C   0  0  0  0  0  0  0  0  0  0  0  0
  141.3770   68.3370  226.4890 C   0  0  0  0  0  0  0  0  0  0  0  0
  141.3940   69.6310  226.0570 C   0  0  0  0  0  0  0  0  0  0  0  0
  140.2540   70.1290  225.4620 C   0  0  0  0  0  0  0  0  0  0  0  0
  140.1680   71.5380  224.9500 C   0  0  0  0  0  0  0  0  0  0  0  0
  140.8280   71.2280  221.5190 N   0  0  0  0  0  0  0  0  0  0  0  0
  146.6880   71.3650  220.3260 H   0  0  0  0  0  0  0  0  0  0  0  0
  145.4240   72.2320  221.3370 H   0  0  0  0  0  0  0  0  0  0  0  0
  143.4151   73.3140  219.4627 H   0  0  0  0  0  0  0  0  0  0  0  0
  143.7941   72.6949  217.8363 H   0  0  0  0  0  0  0  0  0  0  0  0
  143.8864   70.4439  218.6048 H   0  0  0  0  0  0  0  0  0  0  0  0
  143.9246   70.9965  220.3421 H   0  0  0  0  0  0  0  0  0  0  0  0
  141.5130   70.4530  218.7710 H   0  0  0  0  0  0  0  0  0  0  0  0
  139.2543   76.5342  221.4360 H   0  0  0  0  0  0  0  0  0  0  0  0
  139.5800   75.5184  222.8444 H   0  0  0  0  0  0  0  0  0  0  0  0
  140.3597   77.7955  223.3968 H   0  0  0  0  0  0  0  0  0  0  0  0
  141.8243   76.8329  223.1247 H   0  0  0  0  0  0  0  0  0  0  0  0
  141.9185   79.4723  223.7386 H   0  0  0  0  0  0  0  0  0  0  0  0
  142.0798   81.9198  223.9645 H   0  0  0  0  0  0  0  0  0  0  0  0
  141.6194   83.4142  222.0206 H   0  0  0  0  0  0  0  0  0  0  0  0
  140.9974   82.3648  219.8465 H   0  0  0  0  0  0  0  0  0  0  0  0
  140.8384   79.9129  219.6334 H   0  0  0  0  0  0  0  0  0  0  0  0
  140.6163   77.5674  219.6309 H   0  0  0  0  0  0  0  0  0  0  0  0
  142.3858   77.9761  219.8009 H   0  0  0  0  0  0  0  0  0  0  0  0
  141.8170   75.5390  219.3759 H   0  0  0  0  0  0  0  0  0  0  0  0
  142.8792   75.9193  220.7934 H   0  0  0  0  0  0  0  0  0  0  0  0
  137.5690   71.3913  223.1051 H   0  0  0  0  0  0  0  0  0  0  0  0
  138.5022   69.9438  222.5833 H   0  0  0  0  0  0  0  0  0  0  0  0
  137.5053   70.6822  225.3548 H   0  0  0  0  0  0  0  0  0  0  0  0
  137.2315   69.1714  224.3958 H   0  0  0  0  0  0  0  0  0  0  0  0
  138.2432   67.3913  225.6387 H   0  0  0  0  0  0  0  0  0  0  0  0
  140.3116   66.4591  226.7270 H   0  0  0  0  0  0  0  0  0  0  0  0
  142.2851   67.9371  226.9638 H   0  0  0  0  0  0  0  0  0  0  0  0
  142.2896   70.2578  226.1796 H   0  0  0  0  0  0  0  0  0  0  0  0
  139.5110   72.1457  225.5896 H   0  0  0  0  0  0  0  0  0  0  0  0
  141.1448   72.0438  224.9446 H   0  0  0  0  0  0  0  0  0  0  0  0
  1  2  1  0
  2  3  2  0
  2  4  1  0
  4  5  1  0
  5  6  1  0
  6  7  1  0
  7  8  2  0
  8  9  1  0
  9 10  1  0
 10 11  1  0
 11 12  1  0
 12 13  1  0
 13 14  1  0
 14 15  2  0
 15 16  1  0
 16 17  2  0
 17 18  1  0
 18 19  2  0
 13 20  1  0
 20 21  1  0
  9 22  2  0
 22 23  1  0
 23 24  1  0
 24 25  1  0
 25 26  1  0
 26 27  1  0
 27 28  2  0
 28 29  1  0
 29 30  2  0
 30 31  1  0
 31 32  2  0
 32 33  1  0
 23 34  2  0
 34  7  1  0
 21 10  1  0
 33 24  1  0
 19 14  1  0
 32 27  1  0
  1 35  1  0
  1 36  1  0
  4 37  1  0
  4 38  1  0
  5 39  1  0
  5 40  1  0
  6 41  1  0
 11 42  1  0
 11 43  1  0
 12 44  1  0
 12 45  1  0
 15 46  1  0
 16 47  1  0
 17 48  1  0
 18 49  1  0
 19 50  1  0
 20 51  1  0
 20 52  1  0
 21 53  1  0
 21 54  1  0
 25 55  1  0
 25 56  1  0
 26 57  1  0
 26 58  1  0
 28 59  1  0
 29 60  1  0
 30 61  1  0
 31 62  1  0
 33 63  1  0
 33 64  1  0
M  END
>  <smiles>  (2) 
NC(=O)CCNc1nc(N2CCN(c3ccccc3)CC2)nc(N2CCc3ccccc3C2)n1

>  <score_type>  (2) 
oracle

>  <origin>  (2) 
autodockgpu

>  <m_score__min__energy>  (2) 
-9.3900000000000006

>  <m_primary>  (2) 
energy

>  <rmsd>  (2) 
9.154781810720271

>  <m_score__min__rmsd>  (2) 
9.154781810720271

>  <meeko>  (2) 
{"free_energy": -9.39, "intermolecular_energy": -11.48, "internal_energy": -0.92, "cluster_size": 38, "cluster_id": 1, "rank_in_cluster": 1}

>  <energy>  (2) 
-9.32

>  <cluster_rmsd>  (2) 
0.54

>  <cluster>  (2) 
1

$$$$

     RDKit          3D

 64 68  0  0  0  0  0  0  0  0999 V2000
  144.5880   74.3790  220.3130 N   0  0  0  0  0  0  0  0  0  0  0  0
  145.2710   73.2620  220.8460 C   0  0  0  0  0  0  0  0  0  0  0  0
  145.8570   73.3790  221.9300 O   0  0  0  0  0  0  0  0  0  0  0  0
  145.2360   72.0010  220.0550 C   0  0  0  0  0  0  0  0  0  0  0  0
  144.0600   72.0870  219.1300 C   0  0  0  0  0  0  0  0  0  0  0  0
  142.8810   71.3730  219.6320 N   0  0  0  0  0  0  0  0  0  0  0  0
  142.0870   72.0970  220.5790 C   0  0  0  0  0  0  0  0  0  0  0  0
  142.0530   73.4300  220.4860 N   0  0  0  0  0  0  0  0  0  0  0  0
  141.3010   74.1330  221.3780 C   0  0  0  0  0  0  0  0  0  0  0  0
  141.2670   75.5380  221.2770 N   0  0  0  0  0  0  0  0  0  0  0  0
  140.3090   76.2800  222.0730 C   0  0  0  0  0  0  0  0  0  0  0  0
  141.0930   77.4490  222.6660 C   0  0  0  0  0  0  0  0  0  0  0  0
  141.4010   78.3360  221.5610 N   0  0  0  0  0  0  0  0  0  0  0  0
  141.4120   79.7390  221.6990 C   0  0  0  0  0  0  0  0  0  0  0  0
  141.7550   80.3630  222.8870 C   0  0  0  0  0  0  0  0  0  0  0  0
  141.7590   81.7460  223.0180 C   0  0  0  0  0  0  0  0  0  0  0  0
  141.4170   82.5640  221.9570 C   0  0  0  0  0  0  0  0  0  0  0  0
  141.0730   81.9550  220.7670 C   0  0  0  0  0  0  0  0  0  0  0  0
  141.0730   80.5670  220.6500 C   0  0  0  0  0  0  0  0  0  0  0  0
  141.7080   77.7220  220.2900 C   0  0  0  0  0  0  0  0  0  0  0  0
  142.1420   76.2760  220.4160 C   0  0  0  0  0  0  0  0  0  0  0  0
  140.5990   73.4900  222.3470 N   0  0  0  0  0  0  0  0  0  0  0  0
  140.6390   72.1420  222.4350 C   0  0  0  0  0  0  0  0  0  0  0  0
  139.8890   71.5280  223.4600 N   0  0  0  0  0  0  0  0  0  0  0  0
  138.7030   70.7750  223.0960 C   0  0  0  0  0  0  0  0  0  0  0  0
  138.1870   70.0090  224.3000 C   0  0  0  0  0  0  0  0  0  0  0  0
  139.3000   69.3900  225.0640 C   0  0  0  0  0  0  0  0  0  0  0  0
  139.3080   68.0830  225.4800 C   0  0  0  0  0  0  0  0  0  0  0  0
  140.3970   67.5790  226.1940 C   0  0  0  0  0  0  0  0  0  0  0  0
  141.4450   68.4490  226.4550 C   0  0  0  0  0  0  0  0  0  0  0  0
  141.4660   69.7530  226.0550 C   0  0  0  0  0  0  0  0  0  0  0  0
  140.3810   70.2310  225.3510 C   0  0  0  0  0  0  0  0  0  0  0  0
  140.3030   71.6490  224.8640 C   0  0  0  0  0  0  0  0  0  0  0  0
  141.3820   71.4480  221.5520 N   0  0  0  0  0  0  0  0  0  0  0  0
  143.8970   74.8600  220.9480 H   0  0  0  0  0  0  0  0  0  0  0  0
  144.7620   74.7120  219.3350 H   0  0  0  0  0  0  0  0  0  0  0  0
  146.1644   71.8950  219.4746 H   0  0  0  0  0  0  0  0  0  0  0  0
  145.1465   71.1279  220.7181 H   0  0  0  0  0  0  0  0  0  0  0  0
  143.7969   73.1466  218.9955 H   0  0  0  0  0  0  0  0  0  0  0  0
  144.3525   71.6123  218.1818 H   0  0  0  0  0  0  0  0  0  0  0  0
  142.6430   70.4050  219.3170 H   0  0  0  0  0  0  0  0  0  0  0  0
  139.4873   76.6487  221.4414 H   0  0  0  0  0  0  0  0  0  0  0  0
  139.8547   75.6537  222.8549 H   0  0  0  0  0  0  0  0  0  0  0  0
  140.4842   77.9737  223.4171 H   0  0  0  0  0  0  0  0  0  0  0  0
  142.0088   77.1024  223.1672 H   0  0  0  0  0  0  0  0  0  0  0  0
  142.0327   79.7446  223.7533 H   0  0  0  0  0  0  0  0  0  0  0  0
  142.0387   82.1976  223.9813 H   0  0  0  0  0  0  0  0  0  0  0  0
  141.4190   83.6594  222.0575 H   0  0  0  0  0  0  0  0  0  0  0  0
  140.7955   82.5733  219.9006 H   0  0  0  0  0  0  0  0  0  0  0  0
  140.7927   80.1156  219.6868 H   0  0  0  0  0  0  0  0  0  0  0  0
  140.8104   77.7637  219.6555 H   0  0  0  0  0  0  0  0  0  0  0  0
  142.5493   78.2792  219.8521 H   0  0  0  0  0  0  0  0  0  0  0  0
  142.1359   75.8128  219.4183 H   0  0  0  0  0  0  0  0  0  0  0  0
  143.1520   76.2557  220.8512 H   0  0  0  0  0  0  0  0  0  0  0  0
  137.9248   71.4682  222.7439 H   0  0  0  0  0  0  0  0  0  0  0  0
  138.9572   70.0637  222.2964 H   0  0  0  0  0  0  0  0  0  0  0  0
  137.6421   70.7015  224.9585 H   0  0  0  0  0  0  0  0  0  0  0  0
  137.5234   69.2076  223.9430 H   0  0  0  0  0  0  0  0  0  0  0  0
  138.4535   67.4295  225.2503 H   0  0  0  0  0  0  0  0  0  0  0  0
  140.4226   66.5338  226.5358 H   0  0  0  0  0  0  0  0  0  0  0  0
  142.3093   68.0654  227.0171 H   0  0  0  0  0  0  0  0  0  0  0  0
  142.3223   70.4033  226.2870 H   0  0  0  0  0  0  0  0  0  0  0  0
  139.5604   72.2191  225.4415 H   0  0  0  0  0  0  0  0  0  0  0  0
  141.2569   72.1851  224.9763 H   0  0  0  0  0  0  0  0  0  0  0  0
  1  2  1  0
  2  3  2  0
  2  4  1  0
  4  5  1  0
  5  6  1  0
  6  7  1  0
  7  8  2  0
  8  9  1  0
  9 10  1  0
 10 11  1  0
 11 12  1  0
 12 13  1  0
 13 14  1  0
 14 15  2  0
 15 16  1  0
 16 17  2  0
 17 18  1  0
 18 19  2  0
 13 20  1  0
 20 21  1  0
  9 22  2  0
 22 23  1  0
 23 24  1  0
 24 25  1  0
 25 26  1  0
 26 27  1  0
 27 28  2  0
 28 29  1  0
 29 30  2  0
 30 31  1  0
 31 32  2  0
 32 33  1  0
 23 34  2  0
 34  7  1  0
 21 10  1  0
 33 24  1  0
 19 14  1  0
 32 27  1  0
  1 35  1  0
  1 36  1  0
  4 37  1  0
  4 38  1  0
  5 39  1  0
  5 40  1  0
  6 41  1  0
 11 42  1  0
 11 43  1  0
 12 44  1  0
 12 45  1  0
 15 46  1  0
 16 47  1  0
 17 48  1  0
 18 49  1  0
 19 50  1  0
 20 51  1  0
 20 52  1  0
 21 53  1  0
 21 54  1  0
 25 55  1  0
 25 56  1  0
 26 57  1  0
 26 58  1  0
 28 59  1  0
 29 60  1  0
 30 61  1  0
 31 62  1  0
 33 63  1  0
 33 64  1  0
M  END
>  <smiles>  (3) 
NC(=O)CCNc1nc(N2CCN(c3ccccc3)CC2)nc(N2CCc3ccccc3C2)n1

>  <score_type>  (3) 
oracle

>  <origin>  (3) 
autodockgpu

>  <m_score__min__energy>  (3) 
-9.3900000000000006

>  <m_primary>  (3) 
energy

>  <rmsd>  (3) 
9.340427897926839

>  <m_score__min__rmsd>  (3) 
9.340427897926839

>  <meeko>  (3) 
{"free_energy": -8.9, "intermolecular_energy": -10.99, "internal_energy": -1.47, "cluster_size": 38, "cluster_id": 1, "rank_in_cluster": 13}

>  <energy>  (3) 
-9.12

>  <cluster_rmsd>  (3) 
0.74

>  <cluster>  (3) 
1

$$$$

     RDKit          3D

 64 68  0  0  0  0  0  0  0  0999 V2000
  145.7700   73.7030  217.3080 N   0  0  0  0  0  0  0  0  0  0  0  0
  145.2130   72.8970  218.3280 C   0  0  0  0  0  0  0  0  0  0  0  0
  145.9080   72.0070  218.8360 O   0  0  0  0  0  0  0  0  0  0  0  0
  143.8070   73.1780  218.7260 C   0  0  0  0  0  0  0  0  0  0  0  0
  143.0200   71.9220  218.5070 C   0  0  0  0  0  0  0  0  0  0  0  0
  142.7180   71.2080  219.7530 N   0  0  0  0  0  0  0  0  0  0  0  0
  141.9480   71.9460  220.7080 C   0  0  0  0  0  0  0  0  0  0  0  0
  141.9150   73.2790  220.5970 N   0  0  0  0  0  0  0  0  0  0  0  0
  141.1840   73.9950  221.4970 C   0  0  0  0  0  0  0  0  0  0  0  0
  141.1510   75.3990  221.3780 N   0  0  0  0  0  0  0  0  0  0  0  0
  140.2460   76.1570  222.2190 C   0  0  0  0  0  0  0  0  0  0  0  0
  141.0700   77.3300  222.7470 C   0  0  0  0  0  0  0  0  0  0  0  0
  141.3160   78.1990  221.6130 N   0  0  0  0  0  0  0  0  0  0  0  0
  141.3410   79.6040  221.7300 C   0  0  0  0  0  0  0  0  0  0  0  0
  141.0060   80.4410  220.6790 C   0  0  0  0  0  0  0  0  0  0  0  0
  141.0370   81.8240  220.8000 C   0  0  0  0  0  0  0  0  0  0  0  0
  141.4070   82.4280  221.9870 C   0  0  0  0  0  0  0  0  0  0  0  0
  141.7420   81.6060  223.0440 C   0  0  0  0  0  0  0  0  0  0  0  0
  141.7070   80.2200  222.9080 C   0  0  0  0  0  0  0  0  0  0  0  0
  141.5430   77.5660  220.3350 C   0  0  0  0  0  0  0  0  0  0  0  0
  141.9760   76.1190  220.4560 C   0  0  0  0  0  0  0  0  0  0  0  0
  140.5030   73.3670  222.4900 N   0  0  0  0  0  0  0  0  0  0  0  0
  140.5420   72.0200  222.5950 C   0  0  0  0  0  0  0  0  0  0  0  0
  139.8140   71.4210  223.6450 N   0  0  0  0  0  0  0  0  0  0  0  0
  138.5940   70.7030  223.3220 C   0  0  0  0  0  0  0  0  0  0  0  0
  138.1030   69.9460  224.5420 C   0  0  0  0  0  0  0  0  0  0  0  0
  139.2270   69.2920  225.2610 C   0  0  0  0  0  0  0  0  0  0  0  0
  139.2140   67.9830  225.6700 C   0  0  0  0  0  0  0  0  0  0  0  0
  140.3150   67.4460  226.3420 C   0  0  0  0  0  0  0  0  0  0  0  0
  141.3940   68.2850  226.5670 C   0  0  0  0  0  0  0  0  0  0  0  0
  141.4370   69.5910  226.1720 C   0  0  0  0  0  0  0  0  0  0  0  0
  140.3400   70.1020  225.5110 C   0  0  0  0  0  0  0  0  0  0  0  0
  140.2830   71.5230  225.0330 C   0  0  0  0  0  0  0  0  0  0  0  0
  141.2640   71.3120  221.7050 N   0  0  0  0  0  0  0  0  0  0  0  0
  146.6940   74.1650  217.5220 H   0  0  0  0  0  0  0  0  0  0  0  0
  145.2880   73.8340  216.3880 H   0  0  0  0  0  0  0  0  0  0  0  0
  143.7670   73.4667  219.7867 H   0  0  0  0  0  0  0  0  0  0  0  0
  143.3926   74.0049  218.1306 H   0  0  0  0  0  0  0  0  0  0  0  0
  142.0718   72.1842  218.0150 H   0  0  0  0  0  0  0  0  0  0  0  0
  143.6347   71.2535  217.8863 H   0  0  0  0  0  0  0  0  0  0  0  0
  143.0470   70.2310  219.9250 H   0  0  0  0  0  0  0  0  0  0  0  0
  139.3896   76.5213  221.6325 H   0  0  0  0  0  0  0  0  0  0  0  0
  139.8362   75.5443  223.0355 H   0  0  0  0  0  0  0  0  0  0  0  0
  140.5098   77.8690  223.5252 H   0  0  0  0  0  0  0  0  0  0  0  0
  142.0123   76.9852  223.1977 H   0  0  0  0  0  0  0  0  0  0  0  0
  140.7060   79.9966  219.7185 H   0  0  0  0  0  0  0  0  0  0  0  0
  140.7627   82.4490  219.9373 H   0  0  0  0  0  0  0  0  0  0  0  0
  141.4335   83.5233  222.0856 H   0  0  0  0  0  0  0  0  0  0  0  0
  142.0401   82.0505  224.0050 H   0  0  0  0  0  0  0  0  0  0  0  0
  141.9810   79.5951  223.7708 H   0  0  0  0  0  0  0  0  0  0  0  0
  140.6093   77.6045  219.7547 H   0  0  0  0  0  0  0  0  0  0  0  0
  142.3593   78.1119  219.8394 H   0  0  0  0  0  0  0  0  0  0  0  0
  141.9075   75.6417  219.4673 H   0  0  0  0  0  0  0  0  0  0  0  0
  143.0102   76.0988  220.8303 H   0  0  0  0  0  0  0  0  0  0  0  0
  137.8228   71.4193  223.0022 H   0  0  0  0  0  0  0  0  0  0  0  0
  138.7975   69.9893  222.5101 H   0  0  0  0  0  0  0  0  0  0  0  0
  137.6034   70.6503  225.2234 H   0  0  0  0  0  0  0  0  0  0  0  0
  137.4040   69.1652  224.2077 H   0  0  0  0  0  0  0  0  0  0  0  0
  138.3343   67.3541  225.4684 H   0  0  0  0  0  0  0  0  0  0  0  0
  140.3246   66.3989  226.6789 H   0  0  0  0  0  0  0  0  0  0  0  0
  142.2675   67.8748  227.0950 H   0  0  0  0  0  0  0  0  0  0  0  0
  142.3191   70.2162  226.3746 H   0  0  0  0  0  0  0  0  0  0  0  0
  139.5784   72.1103  225.6401 H   0  0  0  0  0  0  0  0  0  0  0  0
  141.2550   72.0319  225.1116 H   0  0  0  0  0  0  0  0  0  0  0  0
  1  2  1  0
  2  3  2  0
  2  4  1  0
  4  5  1  0
  5  6  1  0
  6  7  1  0
  7  8  2  0
  8  9  1  0
  9 10  1  0
 10 11  1  0
 11 12  1  0
 12 13  1  0
 13 14  1  0
 14 15  2  0
 15 16  1  0
 16 17  2  0
 17 18  1  0
 18 19  2  0
 13 20  1  0
 20 21  1  0
  9 22  2  0
 22 23  1  0
 23 24  1  0
 24 25  1  0
 25 26  1  0
 26 27  1  0
 27 28  2  0
 28 29  1  0
 29 30  2  0
 30 31  1  0
 31 32  2  0
 32 33  1  0
 23 34  2  0
 34  7  1  0
 21 10  1  0
 33 24  1  0
 19 14  1  0
 32 27  1  0
  1 35  1  0
  1 36  1  0
  4 37  1  0
  4 38  1  0
  5 39  1  0
  5 40  1  0
  6 41  1  0
 11 42  1  0
 11 43  1  0
 12 44  1  0
 12 45  1  0
 15 46  1  0
 16 47  1  0
 17 48  1  0
 18 49  1  0
 19 50  1  0
 20 51  1  0
 20 52  1  0
 21 53  1  0
 21 54  1  0
 25 55  1  0
 25 56  1  0
 26 57  1  0
 26 58  1  0
 28 59  1  0
 29 60  1  0
 30 61  1  0
 31 62  1  0
 33 63  1  0
 33 64  1  0
M  END
>  <smiles>  (4) 
NC(=O)CCNc1nc(N2CCN(c3ccccc3)CC2)nc(N2CCc3ccccc3C2)n1

>  <score_type>  (4) 
oracle

>  <origin>  (4) 
autodockgpu

>  <m_score__min__energy>  (4) 
-9.3900000000000006

>  <m_primary>  (4) 
energy

>  <rmsd>  (4) 
9.056428585966783

>  <m_score__min__rmsd>  (4) 
9.056428585966783

>  <meeko>  (4) 
{"free_energy": -8.89, "intermolecular_energy": -10.98, "internal_energy": -0.7, "cluster_size": 38, "cluster_id": 1, "rank_in_cluster": 14}

>  <energy>  (4) 
-9.11

>  <cluster_rmsd>  (4) 
1.11

>  <cluster>  (4) 
1

$$$$

     RDKit          3D

 64 68  0  0  0  0  0  0  0  0999 V2000
  146.0560   74.1180  220.0880 N   0  0  0  0  0  0  0  0  0  0  0  0
  145.2790   72.9380  220.1440 C   0  0  0  0  0  0  0  0  0  0  0  0
  144.8280   72.5670  221.2360 O   0  0  0  0  0  0  0  0  0  0  0  0
  145.0520   72.2110  218.8650 C   0  0  0  0  0  0  0  0  0  0  0  0
  143.5760   71.9830  218.7360 C   0  0  0  0  0  0  0  0  0  0  0  0
  143.0190   71.1890  219.8370 N   0  0  0  0  0  0  0  0  0  0  0  0
  142.1410   71.8990  220.7180 C   0  0  0  0  0  0  0  0  0  0  0  0
  142.0820   73.2300  220.6110 N   0  0  0  0  0  0  0  0  0  0  0  0
  141.2500   73.9190  221.4410 C   0  0  0  0  0  0  0  0  0  0  0  0
  141.1890   75.3230  221.3260 N   0  0  0  0  0  0  0  0  0  0  0  0
  140.2720   76.0610  222.1720 C   0  0  0  0  0  0  0  0  0  0  0  0
  141.0750   77.2480  222.7010 C   0  0  0  0  0  0  0  0  0  0  0  0
  141.2990   78.1250  221.5680 N   0  0  0  0  0  0  0  0  0  0  0  0
  141.2970   79.5300  221.6890 C   0  0  0  0  0  0  0  0  0  0  0  0
  141.7490   80.1750  222.8280 C   0  0  0  0  0  0  0  0  0  0  0  0
  141.7410   81.5590  222.9430 C   0  0  0  0  0  0  0  0  0  0  0  0
  141.2760   82.3570  221.9140 C   0  0  0  0  0  0  0  0  0  0  0  0
  140.8240   81.7270  220.7730 C   0  0  0  0  0  0  0  0  0  0  0  0
  140.8370   80.3380  220.6710 C   0  0  0  0  0  0  0  0  0  0  0  0
  141.5340   77.5000  220.2870 C   0  0  0  0  0  0  0  0  0  0  0  0
  141.9960   76.0620  220.4020 C   0  0  0  0  0  0  0  0  0  0  0  0
  140.4950   73.2660  222.3610 N   0  0  0  0  0  0  0  0  0  0  0  0
  140.5610   71.9190  222.4630 C   0  0  0  0  0  0  0  0  0  0  0  0
  139.7540   71.2940  223.4360 N   0  0  0  0  0  0  0  0  0  0  0  0
  138.6790   70.4250  222.9920 C   0  0  0  0  0  0  0  0  0  0  0  0
  138.0970   69.6770  224.1760 C   0  0  0  0  0  0  0  0  0  0  0  0
  139.1650   69.1930  225.0880 C   0  0  0  0  0  0  0  0  0  0  0  0
  139.2310   67.9120  225.5760 C   0  0  0  0  0  0  0  0  0  0  0  0
  140.2720   67.5380  226.4290 C   0  0  0  0  0  0  0  0  0  0  0  0
  141.2110   68.5060  226.7500 C   0  0  0  0  0  0  0  0  0  0  0  0
  141.1720   69.7870  226.2810 C   0  0  0  0  0  0  0  0  0  0  0  0
  140.1370   70.1360  225.4390 C   0  0  0  0  0  0  0  0  0  0  0  0
  140.0000   71.5160  224.8670 C   0  0  0  0  0  0  0  0  0  0  0  0
  141.3840   71.2380  221.6420 N   0  0  0  0  0  0  0  0  0  0  0  0
  145.6340   74.9840  220.5190 H   0  0  0  0  0  0  0  0  0  0  0  0
  147.0030   74.1300  219.6410 H   0  0  0  0  0  0  0  0  0  0  0  0
  145.4147   72.8144  218.0198 H   0  0  0  0  0  0  0  0  0  0  0  0
  145.5951   71.2544  218.8598 H   0  0  0  0  0  0  0  0  0  0  0  0
  143.0709   72.9600  218.7182 H   0  0  0  0  0  0  0  0  0  0  0  0
  143.4109   71.4177  217.8070 H   0  0  0  0  0  0  0  0  0  0  0  0
  143.2520   70.1780  219.9630 H   0  0  0  0  0  0  0  0  0  0  0  0
  139.4070   76.4105  221.5892 H   0  0  0  0  0  0  0  0  0  0  0  0
  139.8765   75.4382  222.9879 H   0  0  0  0  0  0  0  0  0  0  0  0
  140.5075   77.7736  223.4831 H   0  0  0  0  0  0  0  0  0  0  0  0
  142.0256   76.9206  223.1474 H   0  0  0  0  0  0  0  0  0  0  0  0
  142.1260   79.5726  223.6676 H   0  0  0  0  0  0  0  0  0  0  0  0
  142.1103   82.0277  223.8671 H   0  0  0  0  0  0  0  0  0  0  0  0
  141.2668   83.4534  222.0019 H   0  0  0  0  0  0  0  0  0  0  0  0
  140.4484   82.3295  219.9328 H   0  0  0  0  0  0  0  0  0  0  0  0
  140.4677   79.8697  219.7467 H   0  0  0  0  0  0  0  0  0  0  0  0
  140.5976   77.5216  219.7102 H   0  0  0  0  0  0  0  0  0  0  0  0
  142.3376   78.0634  219.7902 H   0  0  0  0  0  0  0  0  0  0  0  0
  141.9327   75.5861  219.4123 H   0  0  0  0  0  0  0  0  0  0  0  0
  143.0320   76.0612  220.7717 H   0  0  0  0  0  0  0  0  0  0  0  0
  137.8913   71.0310  222.5206 H   0  0  0  0  0  0  0  0  0  0  0  0
  139.0758   69.7005  222.2656 H   0  0  0  0  0  0  0  0  0  0  0  0
  137.4293   70.3512  224.7324 H   0  0  0  0  0  0  0  0  0  0  0  0
  137.5432   68.8053  223.7972 H   0  0  0  0  0  0  0  0  0  0  0  0
  138.4619   67.1776  225.2946 H   0  0  0  0  0  0  0  0  0  0  0  0
  140.3438   66.5162  226.8300 H   0  0  0  0  0  0  0  0  0  0  0  0
  142.0355   68.2252  227.4218 H   0  0  0  0  0  0  0  0  0  0  0  0
  141.9424   70.5187  226.5658 H   0  0  0  0  0  0  0  0  0  0  0  0
  139.1552   72.0473  225.3296 H   0  0  0  0  0  0  0  0  0  0  0  0
  140.8902   72.1361  225.0488 H   0  0  0  0  0  0  0  0  0  0  0  0
  1  2  1  0
  2  3  2  0
  2  4  1  0
  4  5  1  0
  5  6  1  0
  6  7  1  0
  7  8  2  0
  8  9  1  0
  9 10  1  0
 10 11  1  0
 11 12  1  0
 12 13  1  0
 13 14  1  0
 14 15  2  0
 15 16  1  0
 16 17  2  0
 17 18  1  0
 18 19  2  0
 13 20  1  0
 20 21  1  0
  9 22  2  0
 22 23  1  0
 23 24  1  0
 24 25  1  0
 25 26  1  0
 26 27  1  0
 27 28  2  0
 28 29  1  0
 29 30  2  0
 30 31  1  0
 31 32  2  0
 32 33  1  0
 23 34  2  0
 34  7  1  0
 21 10  1  0
 33 24  1  0
 19 14  1  0
 32 27  1  0
  1 35  1  0
  1 36  1  0
  4 37  1  0
  4 38  1  0
  5 39  1  0
  5 40  1  0
  6 41  1  0
 11 42  1  0
 11 43  1  0
 12 44  1  0
 12 45  1  0
 15 46  1  0
 16 47  1  0
 17 48  1  0
 18 49  1  0
 19 50  1  0
 20 51  1  0
 20 52  1  0
 21 53  1  0
 21 54  1  0
 25 55  1  0
 25 56  1  0
 26 57  1  0
 26 58  1  0
 28 59  1  0
 29 60  1  0
 30 61  1  0
 31 62  1  0
 33 63  1  0
 33 64  1  0
M  END
>  <smiles>  (5) 
NC(=O)CCNc1nc(N2CCN(c3ccccc3)CC2)nc(N2CCc3ccccc3C2)n1

>  <score_type>  (5) 
oracle

>  <origin>  (5) 
autodockgpu

>  <m_score__min__energy>  (5) 
-9.3900000000000006

>  <m_primary>  (5) 
energy

>  <rmsd>  (5) 
9.177660240831853

>  <m_score__min__rmsd>  (5) 
9.177660240831853

>  <meeko>  (5) 
{"free_energy": -8.56, "intermolecular_energy": -10.65, "internal_energy": -0.98, "cluster_size": 38, "cluster_id": 1, "rank_in_cluster": 22}

>  <energy>  (5) 
-9.05

>  <cluster_rmsd>  (5) 
0.61

>  <cluster>  (5) 
1

$$$$

     RDKit          3D

 64 68  0  0  0  0  0  0  0  0999 V2000
  144.3460   72.2850  220.8380 N   0  0  0  0  0  0  0  0  0  0  0  0
  144.9080   72.2690  219.5400 C   0  0  0  0  0  0  0  0  0  0  0  0
  146.0430   72.7350  219.3730 O   0  0  0  0  0  0  0  0  0  0  0  0
  144.0840   71.6840  218.4480 C   0  0  0  0  0  0  0  0  0  0  0  0
  143.3590   70.5030  219.0180 C   0  0  0  0  0  0  0  0  0  0  0  0
  141.9010   70.6570  218.9940 N   0  0  0  0  0  0  0  0  0  0  0  0
  141.3430   71.3650  220.1060 C   0  0  0  0  0  0  0  0  0  0  0  0
  141.4450   72.6990  220.1210 N   0  0  0  0  0  0  0  0  0  0  0  0
  140.9180   73.3870  221.1720 C   0  0  0  0  0  0  0  0  0  0  0  0
  141.0280   74.7920  221.1840 N   0  0  0  0  0  0  0  0  0  0  0  0
  140.0110   75.5730  221.8610 C   0  0  0  0  0  0  0  0  0  0  0  0
  140.7750   76.6130  222.6770 C   0  0  0  0  0  0  0  0  0  0  0  0
  141.3550   77.5360  221.7200 N   0  0  0  0  0  0  0  0  0  0  0  0
  141.4640   78.9180  221.9750 C   0  0  0  0  0  0  0  0  0  0  0  0
  141.7860   79.4170  223.2270 C   0  0  0  0  0  0  0  0  0  0  0  0
  141.8880   80.7800  223.4730 C   0  0  0  0  0  0  0  0  0  0  0  0
  141.6700   81.7040  222.4670 C   0  0  0  0  0  0  0  0  0  0  0  0
  141.3500   81.2210  221.2150 C   0  0  0  0  0  0  0  0  0  0  0  0
  141.2510   79.8510  220.9830 C   0  0  0  0  0  0  0  0  0  0  0  0
  141.8310   76.9800  220.4750 C   0  0  0  0  0  0  0  0  0  0  0  0
  142.1050   75.4920  220.5530 C   0  0  0  0  0  0  0  0  0  0  0  0
  140.3000   72.7300  222.1870 N   0  0  0  0  0  0  0  0  0  0  0  0
  140.2000   71.3820  222.1650 C   0  0  0  0  0  0  0  0  0  0  0  0
  139.5470   70.7540  223.2460 N   0  0  0  0  0  0  0  0  0  0  0  0
  139.2360   69.3400  223.1410 C   0  0  0  0  0  0  0  0  0  0  0  0
  138.7590   68.8150  224.4820 C   0  0  0  0  0  0  0  0  0  0  0  0
  139.5830   69.3520  225.5950 C   0  0  0  0  0  0  0  0  0  0  0  0
  140.1120   68.5780  226.5970 C   0  0  0  0  0  0  0  0  0  0  0  0
  140.8770   69.1640  227.6080 C   0  0  0  0  0  0  0  0  0  0  0  0
  141.0680   70.5360  227.5480 C   0  0  0  0  0  0  0  0  0  0  0  0
  140.5550   71.3310  226.5660 C   0  0  0  0  0  0  0  0  0  0  0  0
  139.8020   70.7330  225.5770 C   0  0  0  0  0  0  0  0  0  0  0  0
  139.1930   71.5160  224.4500 C   0  0  0  0  0  0  0  0  0  0  0  0
  140.7220   70.7020  221.1250 N   0  0  0  0  0  0  0  0  0  0  0  0
  144.9290   71.8690  221.6120 H   0  0  0  0  0  0  0  0  0  0  0  0
  143.3970   72.6890  221.0190 H   0  0  0  0  0  0  0  0  0  0  0  0
  143.3613   72.4283  218.0822 H   0  0  0  0  0  0  0  0  0  0  0  0
  144.7187   71.3795  217.6027 H   0  0  0  0  0  0  0  0  0  0  0  0
  143.6266   69.6115  218.4318 H   0  0  0  0  0  0  0  0  0  0  0  0
  143.6617   70.4092  220.0714 H   0  0  0  0  0  0  0  0  0  0  0  0
  141.3160   70.2740  218.2160 H   0  0  0  0  0  0  0  0  0  0  0  0
  139.3532   76.0651  221.1295 H   0  0  0  0  0  0  0  0  0  0  0  0
  139.3688   74.9455  222.4965 H   0  0  0  0  0  0  0  0  0  0  0  0
  140.0894   77.1457  223.3525 H   0  0  0  0  0  0  0  0  0  0  0  0
  141.5507   76.1421  223.2987 H   0  0  0  0  0  0  0  0  0  0  0  0
  141.9664   78.7117  224.0516 H   0  0  0  0  0  0  0  0  0  0  0  0
  142.1461   81.1301  224.4833 H   0  0  0  0  0  0  0  0  0  0  0  0
  141.7489   82.7844  222.6583 H   0  0  0  0  0  0  0  0  0  0  0  0
  141.1709   81.9262  220.3900 H   0  0  0  0  0  0  0  0  0  0  0  0
  140.9937   79.5013  219.9723 H   0  0  0  0  0  0  0  0  0  0  0  0
  141.0703   77.1554  219.7001 H   0  0  0  0  0  0  0  0  0  0  0  0
  142.7837   77.4762  220.2380 H   0  0  0  0  0  0  0  0  0  0  0  0
  142.2380   75.0993  219.5341 H   0  0  0  0  0  0  0  0  0  0  0  0
  143.0139   75.3398  221.1535 H   0  0  0  0  0  0  0  0  0  0  0  0
  138.4450   69.1953  222.3904 H   0  0  0  0  0  0  0  0  0  0  0  0
  140.1405   68.7919  222.8386 H   0  0  0  0  0  0  0  0  0  0  0  0
  137.7120   69.1166  224.6332 H   0  0  0  0  0  0  0  0  0  0  0  0
  138.8512   67.7189  224.4788 H   0  0  0  0  0  0  0  0  0  0  0  0
  139.9330   67.4927  226.6040 H   0  0  0  0  0  0  0  0  0  0  0  0
  141.3107   68.5611  228.4195 H   0  0  0  0  0  0  0  0  0  0  0  0
  141.6681   71.0107  228.3383 H   0  0  0  0  0  0  0  0  0  0  0  0
  140.7361   72.4160  226.5626 H   0  0  0  0  0  0  0  0  0  0  0  0
  138.1008   71.5784  224.5645 H   0  0  0  0  0  0  0  0  0  0  0  0
  139.5579   72.5531  224.4134 H   0  0  0  0  0  0  0  0  0  0  0  0
  1  2  1  0
  2  3  2  0
  2  4  1  0
  4  5  1  0
  5  6  1  0
  6  7  1  0
  7  8  2  0
  8  9  1  0
  9 10  1  0
 10 11  1  0
 11 12  1  0
 12 13  1  0
 13 14  1  0
 14 15  2  0
 15 16  1  0
 16 17  2  0
 17 18  1  0
 18 19  2  0
 13 20  1  0
 20 21  1  0
  9 22  2  0
 22 23  1  0
 23 24  1  0
 24 25  1  0
 25 26  1  0
 26 27  1  0
 27 28  2  0
 28 29  1  0
 29 30  2  0
 30 31  1  0
 31 32  2  0
 32 33  1  0
 23 34  2  0
 34  7  1  0
 21 10  1  0
 33 24  1  0
 19 14  1  0
 32 27  1  0
  1 35  1  0
  1 36  1  0
  4 37  1  0
  4 38  1  0
  5 39  1  0
  5 40  1  0
  6 41  1  0
 11 42  1  0
 11 43  1  0
 12 44  1  0
 12 45  1  0
 15 46  1  0
 16 47  1  0
 17 48  1  0
 18 49  1  0
 19 50  1  0
 20 51  1  0
 20 52  1  0
 21 53  1  0
 21 54  1  0
 25 55  1  0
 25 56  1  0
 26 57  1  0
 26 58  1  0
 28 59  1  0
 29 60  1  0
 30 61  1  0
 31 62  1  0
 33 63  1  0
 33 64  1  0
M  END
>  <smiles>  (6) 
NC(=O)CCNc1nc(N2CCN(c3ccccc3)CC2)nc(N2CCc3ccccc3C2)n1

>  <score_type>  (6) 
oracle

>  <origin>  (6) 
autodockgpu

>  <m_score__min__energy>  (6) 
-9.3900000000000006

>  <m_primary>  (6) 
energy

>  <rmsd>  (6) 
8.73817580135842

>  <m_score__min__rmsd>  (6) 
8.73817580135842

>  <meeko>  (6) 
{"free_energy": -8.77, "intermolecular_energy": -10.86, "internal_energy": -1.77, "cluster_size": 38, "cluster_id": 1, "rank_in_cluster": 18}

>  <energy>  (6) 
-9.04

>  <cluster_rmsd>  (6) 
1.44

>  <cluster>  (6) 
1

$$$$

     RDKit          3D

 64 68  0  0  0  0  0  0  0  0999 V2000
  144.3470   71.3460  217.0100 N   0  0  0  0  0  0  0  0  0  0  0  0
  144.9890   71.0320  218.2300 C   0  0  0  0  0  0  0  0  0  0  0  0
  145.9160   71.7520  218.6230 O   0  0  0  0  0  0  0  0  0  0  0  0
  144.4980   69.8380  218.9700 C   0  0  0  0  0  0  0  0  0  0  0  0
  143.5800   70.3260  220.0480 C   0  0  0  0  0  0  0  0  0  0  0  0
  143.6480   71.7780  220.2480 N   0  0  0  0  0  0  0  0  0  0  0  0
  142.5530   72.3470  220.9720 C   0  0  0  0  0  0  0  0  0  0  0  0
  142.3260   73.6590  220.8450 N   0  0  0  0  0  0  0  0  0  0  0  0
  141.2860   74.2150  221.5260 C   0  0  0  0  0  0  0  0  0  0  0  0
  141.0490   75.5980  221.3900 N   0  0  0  0  0  0  0  0  0  0  0  0
  140.1170   76.2460  222.2920 C   0  0  0  0  0  0  0  0  0  0  0  0
  140.8100   77.5340  222.7340 C   0  0  0  0  0  0  0  0  0  0  0  0
  140.8420   78.3990  221.5710 N   0  0  0  0  0  0  0  0  0  0  0  0
  140.6810   79.7960  221.6660 C   0  0  0  0  0  0  0  0  0  0  0  0
  139.4640   80.3830  221.9710 C   0  0  0  0  0  0  0  0  0  0  0  0
  139.3120   81.7610  222.0590 C   0  0  0  0  0  0  0  0  0  0  0  0
  140.3800   82.6120  221.8430 C   0  0  0  0  0  0  0  0  0  0  0  0
  141.5980   82.0410  221.5380 C   0  0  0  0  0  0  0  0  0  0  0  0
  141.7370   80.6570  221.4530 C   0  0  0  0  0  0  0  0  0  0  0  0
  141.0520   77.7710  220.2880 C   0  0  0  0  0  0  0  0  0  0  0  0
  141.6900   76.4000  220.3930 C   0  0  0  0  0  0  0  0  0  0  0  0
  140.4940   73.4510  222.3220 N   0  0  0  0  0  0  0  0  0  0  0  0
  140.7290   72.1260  222.4450 C   0  0  0  0  0  0  0  0  0  0  0  0
  139.8740   71.3810  223.2850 N   0  0  0  0  0  0  0  0  0  0  0  0
  138.9280   70.4660  222.6740 C   0  0  0  0  0  0  0  0  0  0  0  0
  138.2810   69.6030  223.7410 C   0  0  0  0  0  0  0  0  0  0  0  0
  139.2790   69.1420  224.7400 C   0  0  0  0  0  0  0  0  0  0  0  0
  139.3940   67.8410  225.1620 C   0  0  0  0  0  0  0  0  0  0  0  0
  140.3620   67.4920  226.1060 C   0  0  0  0  0  0  0  0  0  0  0  0
  141.1800   68.5040  226.5840 C   0  0  0  0  0  0  0  0  0  0  0  0
  141.0890   69.8060  226.1850 C   0  0  0  0  0  0  0  0  0  0  0  0
  140.1270   70.1300  225.2520 C   0  0  0  0  0  0  0  0  0  0  0  0
  139.9440   71.5300  224.7440 C   0  0  0  0  0  0  0  0  0  0  0  0
  141.7580   71.5760  221.7710 N   0  0  0  0  0  0  0  0  0  0  0  0
  143.9910   72.3340  216.9020 H   0  0  0  0  0  0  0  0  0  0  0  0
  144.2310   70.6330  216.2520 H   0  0  0  0  0  0  0  0  0  0  0  0
  143.9537   69.1696  218.2866 H   0  0  0  0  0  0  0  0  0  0  0  0
  145.3390   69.2751  219.4011 H   0  0  0  0  0  0  0  0  0  0  0  0
  142.5482   70.0578  219.7771 H   0  0  0  0  0  0  0  0  0  0  0  0
  143.8958   69.8502  220.9881 H   0  0  0  0  0  0  0  0  0  0  0  0
  144.4440   72.3500  219.8820 H   0  0  0  0  0  0  0  0  0  0  0  0
  139.1746   76.4746  221.7728 H   0  0  0  0  0  0  0  0  0  0  0  0
  139.8622   75.6038  223.1480 H   0  0  0  0  0  0  0  0  0  0  0  0
  140.2441   78.0109  223.5478 H   0  0  0  0  0  0  0  0  0  0  0  0
  141.8238   77.3333  223.1108 H   0  0  0  0  0  0  0  0  0  0  0  0
  138.5909   79.7380  222.1490 H   0  0  0  0  0  0  0  0  0  0  0  0
  138.3258   82.1820  222.3046 H   0  0  0  0  0  0  0  0  0  0  0  0
  140.2628   83.7036  221.9118 H   0  0  0  0  0  0  0  0  0  0  0  0
  142.4708   82.6863  221.3596 H   0  0  0  0  0  0  0  0  0  0  0  0
  142.7234   80.2367  221.2075 H   0  0  0  0  0  0  0  0  0  0  0  0
  140.0787   77.6665  219.7861 H   0  0  0  0  0  0  0  0  0  0  0  0
  141.7427   78.4109  219.7193 H   0  0  0  0  0  0  0  0  0  0  0  0
  141.6094   75.8928  219.4202 H   0  0  0  0  0  0  0  0  0  0  0  0
  142.7437   76.5309  220.6804 H   0  0  0  0  0  0  0  0  0  0  0  0
  138.1508   71.0414  222.1496 H   0  0  0  0  0  0  0  0  0  0  0  0
  139.4590   69.8204  221.9590 H   0  0  0  0  0  0  0  0  0  0  0  0
  137.5047   70.1894  224.2542 H   0  0  0  0  0  0  0  0  0  0  0  0
  137.8427   68.7192  223.2544 H   0  0  0  0  0  0  0  0  0  0  0  0
  138.7217   67.0711  224.7554 H   0  0  0  0  0  0  0  0  0  0  0  0
  140.4711   66.4551  226.4565 H   0  0  0  0  0  0  0  0  0  0  0  0
  141.9469   68.2425  227.3280 H   0  0  0  0  0  0  0  0  0  0  0  0
  141.7623   70.5731  226.5951 H   0  0  0  0  0  0  0  0  0  0  0  0
  139.0143   71.9682  225.1359 H   0  0  0  0  0  0  0  0  0  0  0  0
  140.7569   72.2007  225.0592 H   0  0  0  0  0  0  0  0  0  0  0  0
  1  2  1  0
  2  3  2  0
  2  4  1  0
  4  5  1  0
  5  6  1  0
  6  7  1  0
  7  8  2  0
  8  9  1  0
  9 10  1  0
 10 11  1  0
 11 12  1  0
 12 13  1  0
 13 14  1  0
 14 15  2  0
 15 16  1  0
 16 17  2  0
 17 18  1  0
 18 19  2  0
 13 20  1  0
 20 21  1  0
  9 22  2  0
 22 23  1  0
 23 24  1  0
 24 25  1  0
 25 26  1  0
 26 27  1  0
 27 28  2  0
 28 29  1  0
 29 30  2  0
 30 31  1  0
 31 32  2  0
 32 33  1  0
 23 34  2  0
 34  7  1  0
 21 10  1  0
 33 24  1  0
 19 14  1  0
 32 27  1  0
  1 35  1  0
  1 36  1  0
  4 37  1  0
  4 38  1  0
  5 39  1  0
  5 40  1  0
  6 41  1  0
 11 42  1  0
 11 43  1  0
 12 44  1  0
 12 45  1  0
 15 46  1  0
 16 47  1  0
 17 48  1  0
 18 49  1  0
 19 50  1  0
 20 51  1  0
 20 52  1  0
 21 53  1  0
 21 54  1  0
 25 55  1  0
 25 56  1  0
 26 57  1  0
 26 58  1  0
 28 59  1  0
 29 60  1  0
 30 61  1  0
 31 62  1  0
 33 63  1  0
 33 64  1  0
M  END
>  <smiles>  (7) 
NC(=O)CCNc1nc(N2CCN(c3ccccc3)CC2)nc(N2CCc3ccccc3C2)n1

>  <score_type>  (7) 
oracle

>  <origin>  (7) 
autodockgpu

>  <m_score__min__energy>  (7) 
-9.3900000000000006

>  <m_primary>  (7) 
energy

>  <rmsd>  (7) 
9.17974218894856

>  <m_score__min__rmsd>  (7) 
9.17974218894856

>  <meeko>  (7) 
{"free_energy": -7.52, "intermolecular_energy": -9.61, "internal_energy": -1.42, "cluster_size": 38, "cluster_id": 1, "rank_in_cluster": 37}

>  <energy>  (7) 
-9.02

>  <cluster_rmsd>  (7) 
0.93

>  <cluster>  (7) 
1

$$$$

     RDKit          3D

 64 68  0  0  0  0  0  0  0  0999 V2000
  146.2420   69.5520  218.3940 N   0  0  0  0  0  0  0  0  0  0  0  0
  145.4230   70.7040  218.4250 C   0  0  0  0  0  0  0  0  0  0  0  0
  145.9310   71.7930  218.7210 O   0  0  0  0  0  0  0  0  0  0  0  0
  143.9830   70.5240  218.0950 C   0  0  0  0  0  0  0  0  0  0  0  0
  143.2290   70.4790  219.3890 C   0  0  0  0  0  0  0  0  0  0  0  0
  143.6760   71.4940  220.3500 N   0  0  0  0  0  0  0  0  0  0  0  0
  142.6290   72.1810  221.0440 C   0  0  0  0  0  0  0  0  0  0  0  0
  142.4900   73.4950  220.8350 N   0  0  0  0  0  0  0  0  0  0  0  0
  141.4970   74.1620  221.4860 C   0  0  0  0  0  0  0  0  0  0  0  0
  141.3540   75.5470  221.2640 N   0  0  0  0  0  0  0  0  0  0  0  0
  140.3700   76.2860  222.0310 C   0  0  0  0  0  0  0  0  0  0  0  0
  141.0840   77.5570  222.4860 C   0  0  0  0  0  0  0  0  0  0  0  0
  141.2860   78.3600  221.2960 N   0  0  0  0  0  0  0  0  0  0  0  0
  141.1940   79.7670  221.3110 C   0  0  0  0  0  0  0  0  0  0  0  0
  141.4470   80.5140  222.4500 C   0  0  0  0  0  0  0  0  0  0  0  0
  141.3520   81.8990  222.4590 C   0  0  0  0  0  0  0  0  0  0  0  0
  140.9970   82.5970  221.3190 C   0  0  0  0  0  0  0  0  0  0  0  0
  140.7420   81.8660  220.1770 C   0  0  0  0  0  0  0  0  0  0  0  0
  140.8410   80.4770  220.1820 C   0  0  0  0  0  0  0  0  0  0  0  0
  141.5940   77.6590  220.0720 C   0  0  0  0  0  0  0  0  0  0  0  0
  142.1400   76.2650  220.3060 C   0  0  0  0  0  0  0  0  0  0  0  0
  140.6640   73.5060  222.3330 N   0  0  0  0  0  0  0  0  0  0  0  0
  140.8100   72.1780  222.5390 C   0  0  0  0  0  0  0  0  0  0  0  0
  139.9150   71.5480  223.4280 N   0  0  0  0  0  0  0  0  0  0  0  0
  138.8570   70.7200  222.8780 C   0  0  0  0  0  0  0  0  0  0  0  0
  138.1660   69.9560  223.9920 C   0  0  0  0  0  0  0  0  0  0  0  0
  139.1480   69.4210  224.9690 C   0  0  0  0  0  0  0  0  0  0  0  0
  139.1450   68.1260  225.4250 C   0  0  0  0  0  0  0  0  0  0  0  0
  140.1060   67.7030  226.3450 C   0  0  0  0  0  0  0  0  0  0  0  0
  141.0400   68.6370  226.7650 C   0  0  0  0  0  0  0  0  0  0  0  0
  141.0690   69.9300  226.3300 C   0  0  0  0  0  0  0  0  0  0  0  0
  140.1110   70.3280  225.4220 C   0  0  0  0  0  0  0  0  0  0  0  0
  140.0530   71.7260  224.8800 C   0  0  0  0  0  0  0  0  0  0  0  0
  141.7920   71.5180  221.8940 N   0  0  0  0  0  0  0  0  0  0  0  0
  147.1210   69.6110  217.8130 H   0  0  0  0  0  0  0  0  0  0  0  0
  145.9880   68.6840  218.9210 H   0  0  0  0  0  0  0  0  0  0  0  0
  143.6294   71.3668  217.4829 H   0  0  0  0  0  0  0  0  0  0  0  0
  143.8285   69.5972  217.5230 H   0  0  0  0  0  0  0  0  0  0  0  0
  142.1617   70.6419  219.1784 H   0  0  0  0  0  0  0  0  0  0  0  0
  143.4130   69.4938  219.8423 H   0  0  0  0  0  0  0  0  0  0  0  0
  144.6890   71.6960  220.5110 H   0  0  0  0  0  0  0  0  0  0  0  0
  139.5013   76.5357  221.4041 H   0  0  0  0  0  0  0  0  0  0  0  0
  139.9911   75.7017  222.8825 H   0  0  0  0  0  0  0  0  0  0  0  0
  140.4640   78.1025  223.2126 H   0  0  0  0  0  0  0  0  0  0  0  0
  142.0402   77.3237  222.9773 H   0  0  0  0  0  0  0  0  0  0  0  0
  141.7321   79.9935  223.3762 H   0  0  0  0  0  0  0  0  0  0  0  0
  141.5624   82.4500  223.3875 H   0  0  0  0  0  0  0  0  0  0  0  0
  140.9208   83.6943  221.3227 H   0  0  0  0  0  0  0  0  0  0  0  0
  140.4570   82.3869  219.2510 H   0  0  0  0  0  0  0  0  0  0  0  0
  140.6304   79.9266  219.2532 H   0  0  0  0  0  0  0  0  0  0  0  0
  140.6744   77.5788  219.4737 H   0  0  0  0  0  0  0  0  0  0  0  0
  142.3748   78.2339  219.5526 H   0  0  0  0  0  0  0  0  0  0  0  0
  142.1337   75.7142  219.3538 H   0  0  0  0  0  0  0  0  0  0  0  0
  143.1634   76.3568  220.6988 H   0  0  0  0  0  0  0  0  0  0  0  0
  138.1234   71.3591  222.3647 H   0  0  0  0  0  0  0  0  0  0  0  0
  139.2915   70.0047  222.1642 H   0  0  0  0  0  0  0  0  0  0  0  0
  137.4732   70.6323  224.5141 H   0  0  0  0  0  0  0  0  0  0  0  0
  137.6223   69.1095  223.5472 H   0  0  0  0  0  0  0  0  0  0  0  0
  138.3829   67.4195  225.0643 H   0  0  0  0  0  0  0  0  0  0  0  0
  140.1214   66.6696  226.7216 H   0  0  0  0  0  0  0  0  0  0  0  0
  141.8020   68.3174  227.4911 H   0  0  0  0  0  0  0  0  0  0  0  0
  141.8332   70.6331  226.6927 H   0  0  0  0  0  0  0  0  0  0  0  0
  139.1875   72.2671  225.2901 H   0  0  0  0  0  0  0  0  0  0  0  0
  140.9409   72.3174  225.1480 H   0  0  0  0  0  0  0  0  0  0  0  0
  1  2  1  0
  2  3  2  0
  2  4  1  0
  4  5  1  0
  5  6  1  0
  6  7  1  0
  7  8  2  0
  8  9  1  0
  9 10  1  0
 10 11  1  0
 11 12  1  0
 12 13  1  0
 13 14  1  0
 14 15  2  0
 15 16  1  0
 16 17  2  0
 17 18  1  0
 18 19  2  0
 13 20  1  0
 20 21  1  0
  9 22  2  0
 22 23  1  0
 23 24  1  0
 24 25  1  0
 25 26  1  0
 26 27  1  0
 27 28  2  0
 28 29  1  0
 29 30  2  0
 30 31  1  0
 31 32  2  0
 32 33  1  0
 23 34  2  0
 34  7  1  0
 21 10  1  0
 33 24  1  0
 19 14  1  0
 32 27  1  0
  1 35  1  0
  1 36  1  0
  4 37  1  0
  4 38  1  0
  5 39  1  0
  5 40  1  0
  6 41  1  0
 11 42  1  0
 11 43  1  0
 12 44  1  0
 12 45  1  0
 15 46  1  0
 16 47  1  0
 17 48  1  0
 18 49  1  0
 19 50  1  0
 20 51  1  0
 20 52  1  0
 21 53  1  0
 21 54  1  0
 25 55  1  0
 25 56  1  0
 26 57  1  0
 26 58  1  0
 28 59  1  0
 29 60  1  0
 30 61  1  0
 31 62  1  0
 33 63  1  0
 33 64  1  0
M  END
>  <smiles>  (8) 
NC(=O)CCNc1nc(N2CCN(c3ccccc3)CC2)nc(N2CCc3ccccc3C2)n1

>  <score_type>  (8) 
oracle

>  <origin>  (8) 
autodockgpu

>  <m_score__min__energy>  (8) 
-9.3900000000000006

>  <m_primary>  (8) 
energy

>  <rmsd>  (8) 
9.380713657179417

>  <m_score__min__rmsd>  (8) 
9.380713657179417

>  <meeko>  (8) 
{"free_energy": -8.18, "intermolecular_energy": -10.27, "internal_energy": -1.46, "cluster_size": 38, "cluster_id": 1, "rank_in_cluster": 31}

>  <energy>  (8) 
-8.99

>  <cluster_rmsd>  (8) 
1.61

>  <cluster>  (8) 
1

$$$$

     RDKit          3D

 64 68  0  0  0  0  0  0  0  0999 V2000
  140.0320   68.5870  220.6710 N   0  0  0  0  0  0  0  0  0  0  0  0
  139.5870   69.2560  219.5070 C   0  0  0  0  0  0  0  0  0  0  0  0
  138.4600   69.7680  219.5040 O   0  0  0  0  0  0  0  0  0  0  0  0
  140.5190   69.2990  218.3480 C   0  0  0  0  0  0  0  0  0  0  0  0
  141.1380   70.6640  218.3220 C   0  0  0  0  0  0  0  0  0  0  0  0
  142.0180   70.9180  219.4680 N   0  0  0  0  0  0  0  0  0  0  0  0
  141.4410   71.7000  220.5190 C   0  0  0  0  0  0  0  0  0  0  0  0
  141.5100   73.0330  220.4230 N   0  0  0  0  0  0  0  0  0  0  0  0
  140.9640   73.7910  221.4140 C   0  0  0  0  0  0  0  0  0  0  0  0
  141.0380   75.1950  221.3110 N   0  0  0  0  0  0  0  0  0  0  0  0
  140.1070   76.0080  222.0690 C   0  0  0  0  0  0  0  0  0  0  0  0
  140.9520   77.1180  222.6910 C   0  0  0  0  0  0  0  0  0  0  0  0
  141.3670   77.9760  221.5980 N   0  0  0  0  0  0  0  0  0  0  0  0
  141.4750   79.3750  221.7360 C   0  0  0  0  0  0  0  0  0  0  0  0
  141.7310   79.9810  222.9540 C   0  0  0  0  0  0  0  0  0  0  0  0
  141.8330   81.3600  223.0840 C   0  0  0  0  0  0  0  0  0  0  0  0
  141.6810   82.1920  221.9900 C   0  0  0  0  0  0  0  0  0  0  0  0
  141.4260   81.6010  220.7700 C   0  0  0  0  0  0  0  0  0  0  0  0
  141.3260   80.2170  220.6540 C   0  0  0  0  0  0  0  0  0  0  0  0
  141.6760   77.3370  220.3400 C   0  0  0  0  0  0  0  0  0  0  0  0
  141.9970   75.8630  220.4840 C   0  0  0  0  0  0  0  0  0  0  0  0
  140.3620   73.2050  222.4810 N   0  0  0  0  0  0  0  0  0  0  0  0
  140.2970   71.8580  222.5700 C   0  0  0  0  0  0  0  0  0  0  0  0
  139.6590   71.3040  223.7000 N   0  0  0  0  0  0  0  0  0  0  0  0
  138.3990   70.6070  223.5130 C   0  0  0  0  0  0  0  0  0  0  0  0
  138.0090   69.8930  224.7940 C   0  0  0  0  0  0  0  0  0  0  0  0
  139.1810   69.2320  225.4220 C   0  0  0  0  0  0  0  0  0  0  0  0
  139.1790   67.9340  225.8670 C   0  0  0  0  0  0  0  0  0  0  0  0
  140.3270   67.3880  226.4470 C   0  0  0  0  0  0  0  0  0  0  0  0
  141.4400   68.2070  226.5470 C   0  0  0  0  0  0  0  0  0  0  0  0
  141.4730   69.5000  226.1130 C   0  0  0  0  0  0  0  0  0  0  0  0
  140.3300   70.0200  225.5440 C   0  0  0  0  0  0  0  0  0  0  0  0
  140.2590   71.4300  225.0340 C   0  0  0  0  0  0  0  0  0  0  0  0
  140.8360   71.1080  221.5900 N   0  0  0  0  0  0  0  0  0  0  0  0
  139.9720   69.1230  221.5780 H   0  0  0  0  0  0  0  0  0  0  0  0
  140.4020   67.6090  220.6320 H   0  0  0  0  0  0  0  0  0  0  0  0
  141.3005   68.5338  218.4652 H   0  0  0  0  0  0  0  0  0  0  0  0
  139.9817   69.0979  217.4095 H   0  0  0  0  0  0  0  0  0  0  0  0
  141.7277   70.7636  217.3988 H   0  0  0  0  0  0  0  0  0  0  0  0
  140.3190   71.3968  218.3682 H   0  0  0  0  0  0  0  0  0  0  0  0
  142.9960   70.5510  219.5070 H   0  0  0  0  0  0  0  0  0  0  0  0
  139.3396   76.4340  221.4059 H   0  0  0  0  0  0  0  0  0  0  0  0
  139.5777   75.4196  222.8330 H   0  0  0  0  0  0  0  0  0  0  0  0
  140.3553   77.6889  223.4177 H   0  0  0  0  0  0  0  0  0  0  0  0
  141.8198   76.7064  223.2273 H   0  0  0  0  0  0  0  0  0  0  0  0
  141.8576   79.3508  223.8466 H   0  0  0  0  0  0  0  0  0  0  0  0
  142.0378   81.7971  224.0724 H   0  0  0  0  0  0  0  0  0  0  0  0
  141.7605   83.2847  222.0890 H   0  0  0  0  0  0  0  0  0  0  0  0
  141.3000   82.2311  219.8772 H   0  0  0  0  0  0  0  0  0  0  0  0
  141.1211   79.7803  219.6654 H   0  0  0  0  0  0  0  0  0  0  0  0
  140.8088   77.4426  219.6716 H   0  0  0  0  0  0  0  0  0  0  0  0
  142.5720   77.8293  219.9339 H   0  0  0  0  0  0  0  0  0  0  0  0
  141.9949   75.3978  219.4872 H   0  0  0  0  0  0  0  0  0  0  0  0
  142.9853   75.7699  220.9578 H   0  0  0  0  0  0  0  0  0  0  0  0
  137.6165   71.3330  223.2473 H   0  0  0  0  0  0  0  0  0  0  0  0
  138.5101   69.8681  222.7058 H   0  0  0  0  0  0  0  0  0  0  0  0
  137.5905   70.6259  225.4995 H   0  0  0  0  0  0  0  0  0  0  0  0
  137.2654   69.1206  224.5482 H   0  0  0  0  0  0  0  0  0  0  0  0
  138.2709   67.3214  225.7668 H   0  0  0  0  0  0  0  0  0  0  0  0
  140.3463   66.3497  226.8096 H   0  0  0  0  0  0  0  0  0  0  0  0
  142.3502   67.7904  227.0029 H   0  0  0  0  0  0  0  0  0  0  0  0
  142.3836   70.1089  226.2140 H   0  0  0  0  0  0  0  0  0  0  0  0
  139.6279   72.0496  225.6881 H   0  0  0  0  0  0  0  0  0  0  0  0
  141.2449   71.9170  225.0068 H   0  0  0  0  0  0  0  0  0  0  0  0
  1  2  1  0
  2  3  2  0
  2  4  1  0
  4  5  1  0
  5  6  1  0
  6  7  1  0
  7  8  2  0
  8  9  1  0
  9 10  1  0
 10 11  1  0
 11 12  1  0
 12 13  1  0
 13 14  1  0
 14 15  2  0
 15 16  1  0
 16 17  2  0
 17 18  1  0
 18 19  2  0
 13 20  1  0
 20 21  1  0
  9 22  2  0
 22 23  1  0
 23 24  1  0
 24 25  1  0
 25 26  1  0
 26 27  1  0
 27 28  2  0
 28 29  1  0
 29 30  2  0
 30 31  1  0
 31 32  2  0
 32 33  1  0
 23 34  2  0
 34  7  1  0
 21 10  1  0
 33 24  1  0
 19 14  1  0
 32 27  1  0
  1 35  1  0
  1 36  1  0
  4 37  1  0
  4 38  1  0
  5 39  1  0
  5 40  1  0
  6 41  1  0
 11 42  1  0
 11 43  1  0
 12 44  1  0
 12 45  1  0
 15 46  1  0
 16 47  1  0
 17 48  1  0
 18 49  1  0
 19 50  1  0
 20 51  1  0
 20 52  1  0
 21 53  1  0
 21 54  1  0
 25 55  1  0
 25 56  1  0
 26 57  1  0
 26 58  1  0
 28 59  1  0
 29 60  1  0
 30 61  1  0
 31 62  1  0
 33 63  1  0
 33 64  1  0
M  END
>  <smiles>  (9) 
NC(=O)CCNc1nc(N2CCN(c3ccccc3)CC2)nc(N2CCc3ccccc3C2)n1

>  <score_type>  (9) 
oracle

>  <origin>  (9) 
autodockgpu

>  <m_score__min__energy>  (9) 
-9.3900000000000006

>  <m_primary>  (9) 
energy

>  <rmsd>  (9) 
9.092501557345141

>  <m_score__min__rmsd>  (9) 
9.092501557345141

>  <meeko>  (9) 
{"free_energy": -7.47, "intermolecular_energy": -9.56, "internal_energy": -1.74, "cluster_size": 1, "cluster_id": 4, "rank_in_cluster": 1}

>  <energy>  (9) 
-8.99

>  <cluster_rmsd>  (9) 
1.16

>  <cluster>  (9) 
1

$$$$

     RDKit          3D

 64 68  0  0  0  0  0  0  0  0999 V2000
  137.0510   75.6290  223.0930 N   0  0  0  0  0  0  0  0  0  0  0  0
  135.6870   75.7010  222.7270 C   0  0  0  0  0  0  0  0  0  0  0  0
  134.8240   75.4240  223.5710 O   0  0  0  0  0  0  0  0  0  0  0  0
  135.3770   76.1130  221.3310 C   0  0  0  0  0  0  0  0  0  0  0  0
  134.9000   74.8940  220.6000 C   0  0  0  0  0  0  0  0  0  0  0  0
  135.9790   74.1780  219.9110 N   0  0  0  0  0  0  0  0  0  0  0  0
  137.2500   74.2070  220.5700 C   0  0  0  0  0  0  0  0  0  0  0  0
  137.5440   73.2150  221.4160 N   0  0  0  0  0  0  0  0  0  0  0  0
  138.7500   73.2270  222.0490 C   0  0  0  0  0  0  0  0  0  0  0  0
  139.0580   72.1810  222.9410 N   0  0  0  0  0  0  0  0  0  0  0  0
  140.4470   71.8990  223.2470 C   0  0  0  0  0  0  0  0  0  0  0  0
  140.5000   71.7190  224.7630 C   0  0  0  0  0  0  0  0  0  0  0  0
  139.8120   70.4760  225.0510 N   0  0  0  0  0  0  0  0  0  0  0  0
  140.2310   69.6010  226.0740 C   0  0  0  0  0  0  0  0  0  0  0  0
  140.2810   68.2280  225.8990 C   0  0  0  0  0  0  0  0  0  0  0  0
  140.6910   67.3710  226.9130 C   0  0  0  0  0  0  0  0  0  0  0  0
  141.0700   67.8590  228.1500 C   0  0  0  0  0  0  0  0  0  0  0  0
  141.0250   69.2260  228.3370 C   0  0  0  0  0  0  0  0  0  0  0  0
  140.6110   70.0730  227.3120 C   0  0  0  0  0  0  0  0  0  0  0  0
  138.6580   70.1590  224.2420 C   0  0  0  0  0  0  0  0  0  0  0  0
  138.0540   71.3730  223.5660 C   0  0  0  0  0  0  0  0  0  0  0  0
  139.6380   74.2300  221.8260 N   0  0  0  0  0  0  0  0  0  0  0  0
  139.3330   75.2300  220.9680 C   0  0  0  0  0  0  0  0  0  0  0  0
  140.2930   76.2450  220.7730 N   0  0  0  0  0  0  0  0  0  0  0  0
  140.1300   77.1480  219.6490 C   0  0  0  0  0  0  0  0  0  0  0  0
  141.1200   78.2930  219.7570 C   0  0  0  0  0  0  0  0  0  0  0  0
  141.2160   78.7930  221.1530 C   0  0  0  0  0  0  0  0  0  0  0  0
  141.1570   80.1200  221.4960 C   0  0  0  0  0  0  0  0  0  0  0  0
  141.2550   80.5050  222.8340 C   0  0  0  0  0  0  0  0  0  0  0  0
  141.4130   79.5000  223.7760 C   0  0  0  0  0  0  0  0  0  0  0  0
  141.4760   78.1730  223.4670 C   0  0  0  0  0  0  0  0  0  0  0  0
  141.3760   77.8130  222.1390 C   0  0  0  0  0  0  0  0  0  0  0  0
  141.4320   76.3820  221.6900 C   0  0  0  0  0  0  0  0  0  0  0  0
  138.1400   75.2170  220.3420 N   0  0  0  0  0  0  0  0  0  0  0  0
  137.3380   76.1550  223.9610 H   0  0  0  0  0  0  0  0  0  0  0  0
  137.7410   75.0790  222.5290 H   0  0  0  0  0  0  0  0  0  0  0  0
  134.5911   76.8827  221.3317 H   0  0  0  0  0  0  0  0  0  0  0  0
  136.2681   76.5349  220.8432 H   0  0  0  0  0  0  0  0  0  0  0  0
  134.4337   74.2109  221.3252 H   0  0  0  0  0  0  0  0  0  0  0  0
  134.1865   75.2294  219.8329 H   0  0  0  0  0  0  0  0  0  0  0  0
  135.8240   73.6850  219.0020 H   0  0  0  0  0  0  0  0  0  0  0  0
  140.7742   70.9800  222.7387 H   0  0  0  0  0  0  0  0  0  0  0  0
  141.1127   72.7062  222.9074 H   0  0  0  0  0  0  0  0  0  0  0  0
  141.5445   71.6636  225.1034 H   0  0  0  0  0  0  0  0  0  0  0  0
  140.0279   72.5661  225.2823 H   0  0  0  0  0  0  0  0  0  0  0  0
  139.9872   67.8031  224.9278 H   0  0  0  0  0  0  0  0  0  0  0  0
  140.7144   66.2868  226.7287 H   0  0  0  0  0  0  0  0  0  0  0  0
  141.3952   67.1833  228.9548 H   0  0  0  0  0  0  0  0  0  0  0  0
  141.3198   69.6515  229.3076 H   0  0  0  0  0  0  0  0  0  0  0  0
  140.5864   71.1571  227.4969 H   0  0  0  0  0  0  0  0  0  0  0  0
  138.9612   69.4409  223.4659 H   0  0  0  0  0  0  0  0  0  0  0  0
  137.8921   69.7421  224.9125 H   0  0  0  0  0  0  0  0  0  0  0  0
  137.3386   71.0369  222.8010 H   0  0  0  0  0  0  0  0  0  0  0  0
  137.5513   71.9802  224.3332 H   0  0  0  0  0  0  0  0  0  0  0  0
  140.3077   76.5996  218.7121 H   0  0  0  0  0  0  0  0  0  0  0  0
  139.1071   77.5525  219.6555 H   0  0  0  0  0  0  0  0  0  0  0  0
  142.1108   77.9419  219.4331 H   0  0  0  0  0  0  0  0  0  0  0  0
  140.7705   79.1161  219.1164 H   0  0  0  0  0  0  0  0  0  0  0  0
  141.0320   80.8833  220.7138 H   0  0  0  0  0  0  0  0  0  0  0  0
  141.2087   81.5636  223.1294 H   0  0  0  0  0  0  0  0  0  0  0  0
  141.4921   79.7897  224.8342 H   0  0  0  0  0  0  0  0  0  0  0  0
  141.6026   77.4133  224.2524 H   0  0  0  0  0  0  0  0  0  0  0  0
  142.3785   76.1735  221.1697 H   0  0  0  0  0  0  0  0  0  0  0  0
  141.3818   75.6751  222.5313 H   0  0  0  0  0  0  0  0  0  0  0  0
  1  2  1  0
  2  3  2  0
  2  4  1  0
  4  5  1  0
  5  6  1  0
  6  7  1  0
  7  8  2  0
  8  9  1  0
  9 10  1  0
 10 11  1  0
 11 12  1  0
 12 13  1  0
 13 14  1  0
 14 15  2  0
 15 16  1  0
 16 17  2  0
 17 18  1  0
 18 19  2  0
 13 20  1  0
 20 21  1  0
  9 22  2  0
 22 23  1  0
 23 24  1  0
 24 25  1  0
 25 26  1  0
 26 27  1  0
 27 28  2  0
 28 29  1  0
 29 30  2  0
 30 31  1  0
 31 32  2  0
 32 33  1  0
 23 34  2  0
 34  7  1  0
 21 10  1  0
 33 24  1  0
 19 14  1  0
 32 27  1  0
  1 35  1  0
  1 36  1  0
  4 37  1  0
  4 38  1  0
  5 39  1  0
  5 40  1  0
  6 41  1  0
 11 42  1  0
 11 43  1  0
 12 44  1  0
 12 45  1  0
 15 46  1  0
 16 47  1  0
 17 48  1  0
 18 49  1  0
 19 50  1  0
 20 51  1  0
 20 52  1  0
 21 53  1  0
 21 54  1  0
 25 55  1  0
 25 56  1  0
 26 57  1  0
 26 58  1  0
 28 59  1  0
 29 60  1  0
 30 61  1  0
 31 62  1  0
 33 63  1  0
 33 64  1  0
M  END
>  <smiles>  (10) 
NC(=O)CCNc1nc(N2CCN(c3ccccc3)CC2)nc(N2CCc3ccccc3C2)n1

>  <score_type>  (10) 
oracle

>  <origin>  (10) 
autodockgpu

>  <m_score__min__energy>  (10) 
-9.3900000000000006

>  <m_primary>  (10) 
energy

>  <rmsd>  (10) 
5.346171810658482

>  <m_score__min__rmsd>  (10) 
5.346171810658482

>  <meeko>  (10) 
{"free_energy": -6.91, "intermolecular_energy": -9.0, "internal_energy": -2.67, "cluster_size": 3, "cluster_id": 6, "rank_in_cluster": 2}

>  <energy>  (10) 
-8.99

>  <cluster_rmsd>  (10) 
0.91

>  <cluster>  (10) 
1

$$$$

     RDKit          3D

 64 68  0  0  0  0  0  0  0  0999 V2000
  144.2640   72.0070  220.8360 N   0  0  0  0  0  0  0  0  0  0  0  0
  144.9010   71.7420  219.6010 C   0  0  0  0  0  0  0  0  0  0  0  0
  145.9590   72.3260  219.3340 O   0  0  0  0  0  0  0  0  0  0  0  0
  144.2450   70.7610  218.6940 C   0  0  0  0  0  0  0  0  0  0  0  0
  143.0030   71.4080  218.1600 C   0  0  0  0  0  0  0  0  0  0  0  0
  141.7720   70.8370  218.7180 N   0  0  0  0  0  0  0  0  0  0  0  0
  141.2580   71.5060  219.8750 C   0  0  0  0  0  0  0  0  0  0  0  0
  141.3820   72.8360  219.9400 N   0  0  0  0  0  0  0  0  0  0  0  0
  140.8960   73.4880  221.0340 C   0  0  0  0  0  0  0  0  0  0  0  0
  141.0280   74.8890  221.1000 N   0  0  0  0  0  0  0  0  0  0  0  0
  140.0290   75.6590  221.8170 C   0  0  0  0  0  0  0  0  0  0  0  0
  140.8170   76.6550  222.6660 C   0  0  0  0  0  0  0  0  0  0  0  0
  141.4030   77.6050  221.7400 N   0  0  0  0  0  0  0  0  0  0  0  0
  141.5360   78.9740  222.0480 C   0  0  0  0  0  0  0  0  0  0  0  0
  141.8660   79.4190  223.3180 C   0  0  0  0  0  0  0  0  0  0  0  0
  141.9920   80.7700  223.6160 C   0  0  0  0  0  0  0  0  0  0  0  0
  141.7910   81.7350  222.6470 C   0  0  0  0  0  0  0  0  0  0  0  0
  141.4620   81.3060  221.3780 C   0  0  0  0  0  0  0  0  0  0  0  0
  141.3380   79.9490  221.0930 C   0  0  0  0  0  0  0  0  0  0  0  0
  141.8600   77.0910  220.4700 C   0  0  0  0  0  0  0  0  0  0  0  0
  142.1110   75.5970  220.4870 C   0  0  0  0  0  0  0  0  0  0  0  0
  140.2980   72.7990  222.0390 N   0  0  0  0  0  0  0  0  0  0  0  0
  140.1770   71.4550  221.9650 C   0  0  0  0  0  0  0  0  0  0  0  0
  139.5460   70.7920  223.0390 N   0  0  0  0  0  0  0  0  0  0  0  0
  139.2630   69.3740  222.9080 C   0  0  0  0  0  0  0  0  0  0  0  0
  138.8090   68.8130  224.2430 C   0  0  0  0  0  0  0  0  0  0  0  0
  139.6300   69.3450  225.3600 C   0  0  0  0  0  0  0  0  0  0  0  0
  140.1840   68.5630  226.3420 C   0  0  0  0  0  0  0  0  0  0  0  0
  140.9450   69.1450  227.3580 C   0  0  0  0  0  0  0  0  0  0  0  0
  141.1060   70.5210  227.3240 C   0  0  0  0  0  0  0  0  0  0  0  0
  140.5690   71.3250  226.3610 C   0  0  0  0  0  0  0  0  0  0  0  0
  139.8210   70.7310  225.3670 C   0  0  0  0  0  0  0  0  0  0  0  0
  139.1860   71.5220  224.2610 C   0  0  0  0  0  0  0  0  0  0  0  0
  140.6570   70.8110  220.8840 N   0  0  0  0  0  0  0  0  0  0  0  0
  144.8560   71.9130  221.7040 H   0  0  0  0  0  0  0  0  0  0  0  0
  143.2560   72.2830  220.8840 H   0  0  0  0  0  0  0  0  0  0  0  0
  144.9213   70.5038  217.8655 H   0  0  0  0  0  0  0  0  0  0  0  0
  143.9998   69.8349  219.2345 H   0  0  0  0  0  0  0  0  0  0  0  0
  143.0339   72.4801  218.4042 H   0  0  0  0  0  0  0  0  0  0  0  0
  142.9829   71.2338  217.0741 H   0  0  0  0  0  0  0  0  0  0  0  0
  141.3090   70.0000  218.2960 H   0  0  0  0  0  0  0  0  0  0  0  0
  139.3725   76.1894  221.1115 H   0  0  0  0  0  0  0  0  0  0  0  0
  139.3827   75.0171  222.4337 H   0  0  0  0  0  0  0  0  0  0  0  0
  140.1460   77.1717  223.3680 H   0  0  0  0  0  0  0  0  0  0  0  0
  141.5905   76.1484  223.2619 H   0  0  0  0  0  0  0  0  0  0  0  0
  142.0334   78.6796  224.1150 H   0  0  0  0  0  0  0  0  0  0  0  0
  142.2558   81.0765  224.6389 H   0  0  0  0  0  0  0  0  0  0  0  0
  141.8898   82.8056  222.8793 H   0  0  0  0  0  0  0  0  0  0  0  0
  141.2955   82.0456  220.5810 H   0  0  0  0  0  0  0  0  0  0  0  0
  141.0727   79.6437  220.0700 H   0  0  0  0  0  0  0  0  0  0  0  0
  141.0959   77.3086  219.7092 H   0  0  0  0  0  0  0  0  0  0  0  0
  142.8185   77.5813  220.2444 H   0  0  0  0  0  0  0  0  0  0  0  0
  142.2292   75.2428  219.4523 H   0  0  0  0  0  0  0  0  0  0  0  0
  143.0224   75.4072  221.0729 H   0  0  0  0  0  0  0  0  0  0  0  0
  138.4682   69.2280  222.1616 H   0  0  0  0  0  0  0  0  0  0  0  0
  140.1755   68.8506  222.5864 H   0  0  0  0  0  0  0  0  0  0  0  0
  137.7572   69.0891  224.4085 H   0  0  0  0  0  0  0  0  0  0  0  0
  138.9253   67.7195  224.2173 H   0  0  0  0  0  0  0  0  0  0  0  0
  140.0282   67.4742  226.3289 H   0  0  0  0  0  0  0  0  0  0  0  0
  141.3986   68.5356  228.1535 H   0  0  0  0  0  0  0  0  0  0  0  0
  141.7014   70.9926  228.1197 H   0  0  0  0  0  0  0  0  0  0  0  0
  140.7281   72.4133  226.3774 H   0  0  0  0  0  0  0  0  0  0  0  0
  138.0937   71.5583  224.3856 H   0  0  0  0  0  0  0  0  0  0  0  0
  139.5284   72.5672  224.2421 H   0  0  0  0  0  0  0  0  0  0  0  0
  1  2  1  0
  2  3  2  0
  2  4  1  0
  4  5  1  0
  5  6  1  0
  6  7  1  0
  7  8  2  0
  8  9  1  0
  9 10  1  0
 10 11  1  0
 11 12  1  0
 12 13  1  0
 13 14  1  0
 14 15  2  0
 15 16  1  0
 16 17  2  0
 17 18  1  0
 18 19  2  0
 13 20  1  0
 20 21  1  0
  9 22  2  0
 22 23  1  0
 23 24  1  0
 24 25  1  0
 25 26  1  0
 26 27  1  0
 27 28  2  0
 28 29  1  0
 29 30  2  0
 30 31  1  0
 31 32  2  0
 32 33  1  0
 23 34  2  0
 34  7  1  0
 21 10  1  0
 33 24  1  0
 19 14  1  0
 32 27  1  0
  1 35  1  0
  1 36  1  0
  4 37  1  0
  4 38  1  0
  5 39  1  0
  5 40  1  0
  6 41  1  0
 11 42  1  0
 11 43  1  0
 12 44  1  0
 12 45  1  0
 15 46  1  0
 16 47  1  0
 17 48  1  0
 18 49  1  0
 19 50  1  0
 20 51  1  0
 20 52  1  0
 21 53  1  0
 21 54  1  0
 25 55  1  0
 25 56  1  0
 26 57  1  0
 26 58  1  0
 28 59  1  0
 29 60  1  0
 30 61  1  0
 31 62  1  0
 33 63  1  0
 33 64  1  0
M  END
>  <smiles>  (11) 
NC(=O)CCNc1nc(N2CCN(c3ccccc3)CC2)nc(N2CCc3ccccc3C2)n1

>  <score_type>  (11) 
oracle

>  <origin>  (11) 
autodockgpu

>  <m_score__min__energy>  (11) 
-9.3900000000000006

>  <m_primary>  (11) 
energy

>  <rmsd>  (11) 
8.765059367134619

>  <m_score__min__rmsd>  (11) 
8.765059367134619

>  <meeko>  (11) 
{"free_energy": -8.57, "intermolecular_energy": -10.66, "internal_energy": -1.78, "cluster_size": 38, "cluster_id": 1, "rank_in_cluster": 21}

>  <energy>  (11) 
-8.96

>  <cluster_rmsd>  (11) 
0.43

>  <cluster>  (11) 
1

$$$$

     RDKit          3D

 64 68  0  0  0  0  0  0  0  0999 V2000
  144.4760   67.5980  218.1320 N   0  0  0  0  0  0  0  0  0  0  0  0
  143.9990   68.5040  219.1080 C   0  0  0  0  0  0  0  0  0  0  0  0
  144.8150   69.1850  219.7430 O   0  0  0  0  0  0  0  0  0  0  0  0
  142.5260   68.5780  219.3070 C   0  0  0  0  0  0  0  0  0  0  0  0
  142.1000   69.9750  218.9740 C   0  0  0  0  0  0  0  0  0  0  0  0
  142.8350   70.9960  219.7290 N   0  0  0  0  0  0  0  0  0  0  0  0
  142.0480   71.7590  220.6510 C   0  0  0  0  0  0  0  0  0  0  0  0
  142.0320   73.0890  220.5150 N   0  0  0  0  0  0  0  0  0  0  0  0
  141.2870   73.8290  221.3830 C   0  0  0  0  0  0  0  0  0  0  0  0
  141.2720   75.2300  221.2380 N   0  0  0  0  0  0  0  0  0  0  0  0
  140.2850   76.0040  221.9650 C   0  0  0  0  0  0  0  0  0  0  0  0
  141.0520   77.1840  222.5590 C   0  0  0  0  0  0  0  0  0  0  0  0
  141.4200   78.0340  221.4430 N   0  0  0  0  0  0  0  0  0  0  0  0
  141.4380   79.4400  221.5400 C   0  0  0  0  0  0  0  0  0  0  0  0
  141.1560   80.2600  220.4590 C   0  0  0  0  0  0  0  0  0  0  0  0
  141.1790   81.6450  220.5600 C   0  0  0  0  0  0  0  0  0  0  0  0
  141.4880   82.2680  221.7550 C   0  0  0  0  0  0  0  0  0  0  0  0
  141.7700   81.4630  222.8400 C   0  0  0  0  0  0  0  0  0  0  0  0
  141.7440   80.0760  222.7250 C   0  0  0  0  0  0  0  0  0  0  0  0
  141.7810   77.3790  220.2080 C   0  0  0  0  0  0  0  0  0  0  0  0
  142.1930   75.9340  220.3980 C   0  0  0  0  0  0  0  0  0  0  0  0
  140.5740   73.2260  222.3690 N   0  0  0  0  0  0  0  0  0  0  0  0
  140.5950   71.8800  222.4990 C   0  0  0  0  0  0  0  0  0  0  0  0
  139.8350   71.3090  223.5410 N   0  0  0  0  0  0  0  0  0  0  0  0
  138.6420   70.5580  223.1960 C   0  0  0  0  0  0  0  0  0  0  0  0
  138.1120   69.8370  224.4220 C   0  0  0  0  0  0  0  0  0  0  0  0
  139.2160   69.2310  225.2100 C   0  0  0  0  0  0  0  0  0  0  0  0
  139.2080   67.9380  225.6690 C   0  0  0  0  0  0  0  0  0  0  0  0
  140.2880   67.4450  226.4040 C   0  0  0  0  0  0  0  0  0  0  0  0
  141.3440   68.3120  226.6410 C   0  0  0  0  0  0  0  0  0  0  0  0
  141.3820   69.6020  226.1990 C   0  0  0  0  0  0  0  0  0  0  0  0
  140.3050   70.0680  225.4750 C   0  0  0  0  0  0  0  0  0  0  0  0
  140.2450   71.4700  224.9420 C   0  0  0  0  0  0  0  0  0  0  0  0
  141.3320   71.1490  221.6410 N   0  0  0  0  0  0  0  0  0  0  0  0
  145.1330   67.9870  217.4050 H   0  0  0  0  0  0  0  0  0  0  0  0
  144.1890   66.5910  218.1340 H   0  0  0  0  0  0  0  0  0  0  0  0
  142.0202   67.8620  218.6426 H   0  0  0  0  0  0  0  0  0  0  0  0
  142.2606   68.3273  220.3447 H   0  0  0  0  0  0  0  0  0  0  0  0
  142.2672   70.1455  217.9002 H   0  0  0  0  0  0  0  0  0  0  0  0
  141.0380   70.0676  219.2451 H   0  0  0  0  0  0  0  0  0  0  0  0
  143.8610   71.1500  219.5970 H   0  0  0  0  0  0  0  0  0  0  0  0
  139.4977   76.3602  221.2844 H   0  0  0  0  0  0  0  0  0  0  0  0
  139.7881   75.4058  222.7430 H   0  0  0  0  0  0  0  0  0  0  0  0
  140.4140   77.7366  223.2644 H   0  0  0  0  0  0  0  0  0  0  0  0
  141.9398   76.8453  223.1132 H   0  0  0  0  0  0  0  0  0  0  0  0
  140.9064   79.7999  219.4915 H   0  0  0  0  0  0  0  0  0  0  0  0
  140.9477   82.2561  219.6751 H   0  0  0  0  0  0  0  0  0  0  0  0
  141.5083   83.3647  221.8379 H   0  0  0  0  0  0  0  0  0  0  0  0
  142.0184   81.9232  223.8077 H   0  0  0  0  0  0  0  0  0  0  0  0
  141.9757   79.4657  223.6104 H   0  0  0  0  0  0  0  0  0  0  0  0
  140.9154   77.4096  219.5299 H   0  0  0  0  0  0  0  0  0  0  0  0
  142.6483   77.9148  219.7949 H   0  0  0  0  0  0  0  0  0  0  0  0
  142.2289   75.4408  219.4154 H   0  0  0  0  0  0  0  0  0  0  0  0
  143.1810   75.9184  220.8814 H   0  0  0  0  0  0  0  0  0  0  0  0
  137.8733   71.2481  222.8182 H   0  0  0  0  0  0  0  0  0  0  0  0
  138.8915   69.8184  222.4209 H   0  0  0  0  0  0  0  0  0  0  0  0
  137.5722   70.5563  225.0555 H   0  0  0  0  0  0  0  0  0  0  0  0
  137.4404   69.0321  224.0887 H   0  0  0  0  0  0  0  0  0  0  0  0
  138.3470   67.2870  225.4570 H   0  0  0  0  0  0  0  0  0  0  0  0
  140.3006   66.4112  226.7797 H   0  0  0  0  0  0  0  0  0  0  0  0
  142.2014   67.9375  227.2194 H   0  0  0  0  0  0  0  0  0  0  0  0
  142.2446   70.2500  226.4134 H   0  0  0  0  0  0  0  0  0  0  0  0
  139.5068   72.0668  225.4978 H   0  0  0  0  0  0  0  0  0  0  0  0
  141.2048   71.9983  225.0407 H   0  0  0  0  0  0  0  0  0  0  0  0
  1  2  1  0
  2  3  2  0
  2  4  1  0
  4  5  1  0
  5  6  1  0
  6  7  1  0
  7  8  2  0
  8  9  1  0
  9 10  1  0
 10 11  1  0
 11 12  1  0
 12 13  1  0
 13 14  1  0
 14 15  2  0
 15 16  1  0
 16 17  2  0
 17 18  1  0
 18 19  2  0
 13 20  1  0
 20 21  1  0
  9 22  2  0
 22 23  1  0
 23 24  1  0
 24 25  1  0
 25 26  1  0
 26 27  1  0
 27 28  2  0
 28 29  1  0
 29 30  2  0
 30 31  1  0
 31 32  2  0
 32 33  1  0
 23 34  2  0
 34  7  1  0
 21 10  1  0
 33 24  1  0
 19 14  1  0
 32 27  1  0
  1 35  1  0
  1 36  1  0
  4 37  1  0
  4 38  1  0
  5 39  1  0
  5 40  1  0
  6 41  1  0
 11 42  1  0
 11 43  1  0
 12 44  1  0
 12 45  1  0
 15 46  1  0
 16 47  1  0
 17 48  1  0
 18 49  1  0
 19 50  1  0
 20 51  1  0
 20 52  1  0
 21 53  1  0
 21 54  1  0
 25 55  1  0
 25 56  1  0
 26 57  1  0
 26 58  1  0
 28 59  1  0
 29 60  1  0
 30 61  1  0
 31 62  1  0
 33 63  1  0
 33 64  1  0
M  END
>  <smiles>  (12) 
NC(=O)CCNc1nc(N2CCN(c3ccccc3)CC2)nc(N2CCc3ccccc3C2)n1

>  <score_type>  (12) 
oracle

>  <origin>  (12) 
autodockgpu

>  <m_score__min__energy>  (12) 
-9.3900000000000006

>  <m_primary>  (12) 
energy

>  <rmsd>  (12) 
8.979209939611623

>  <m_score__min__rmsd>  (12) 
8.979209939611623

>  <meeko>  (12) 
{"free_energy": -8.03, "intermolecular_energy": -10.12, "internal_energy": -1.48, "cluster_size": 38, "cluster_id": 1, "rank_in_cluster": 33}

>  <energy>  (12) 
-8.95

>  <cluster_rmsd>  (12) 
0.88

>  <cluster>  (12) 
1

$$$$

     RDKit          3D

 64 68  0  0  0  0  0  0  0  0999 V2000
  143.7060   74.6450  218.5300 N   0  0  0  0  0  0  0  0  0  0  0  0
  142.6720   74.1670  217.6910 C   0  0  0  0  0  0  0  0  0  0  0  0
  142.1540   74.9420  216.8770 O   0  0  0  0  0  0  0  0  0  0  0  0
  142.2730   72.7420  217.8470 C   0  0  0  0  0  0  0  0  0  0  0  0
  143.4070   72.0310  218.5220 C   0  0  0  0  0  0  0  0  0  0  0  0
  142.9880   71.2770  219.7080 N   0  0  0  0  0  0  0  0  0  0  0  0
  142.1470   71.9910  220.6210 C   0  0  0  0  0  0  0  0  0  0  0  0
  142.1030   73.3240  220.5250 N   0  0  0  0  0  0  0  0  0  0  0  0
  141.3060   74.0180  221.3850 C   0  0  0  0  0  0  0  0  0  0  0  0
  141.2610   75.4230  221.2830 N   0  0  0  0  0  0  0  0  0  0  0  0
  140.2960   76.1580  222.0770 C   0  0  0  0  0  0  0  0  0  0  0  0
  141.0710   77.3340  222.6690 C   0  0  0  0  0  0  0  0  0  0  0  0
  141.3720   78.2210  221.5630 N   0  0  0  0  0  0  0  0  0  0  0  0
  141.3710   79.6250  221.7000 C   0  0  0  0  0  0  0  0  0  0  0  0
  141.6660   80.2520  222.8990 C   0  0  0  0  0  0  0  0  0  0  0  0
  141.6590   81.6350  223.0280 C   0  0  0  0  0  0  0  0  0  0  0  0
  141.3550   82.4500  221.9540 C   0  0  0  0  0  0  0  0  0  0  0  0
  141.0590   81.8380  220.7530 C   0  0  0  0  0  0  0  0  0  0  0  0
  141.0690   80.4500  220.6370 C   0  0  0  0  0  0  0  0  0  0  0  0
  141.6850   77.6090  220.2930 C   0  0  0  0  0  0  0  0  0  0  0  0
  142.1300   76.1660  220.4210 C   0  0  0  0  0  0  0  0  0  0  0  0
  140.5710   73.3670  222.3240 N   0  0  0  0  0  0  0  0  0  0  0  0
  140.6210   72.0200  222.4140 C   0  0  0  0  0  0  0  0  0  0  0  0
  139.8360   71.3970  223.4060 N   0  0  0  0  0  0  0  0  0  0  0  0
  138.6780   70.6260  222.9930 C   0  0  0  0  0  0  0  0  0  0  0  0
  138.1210   69.8560  224.1750 C   0  0  0  0  0  0  0  0  0  0  0  0
  139.2080   69.2550  224.9890 C   0  0  0  0  0  0  0  0  0  0  0  0
  139.2170   67.9480  225.4090 C   0  0  0  0  0  0  0  0  0  0  0  0
  140.2800   67.4620  226.1720 C   0  0  0  0  0  0  0  0  0  0  0  0
  141.3020   68.3480  226.4760 C   0  0  0  0  0  0  0  0  0  0  0  0
  141.3220   69.6520  226.0740 C   0  0  0  0  0  0  0  0  0  0  0  0
  140.2630   70.1120  225.3210 C   0  0  0  0  0  0  0  0  0  0  0  0
  140.1860   71.5270  224.8270 C   0  0  0  0  0  0  0  0  0  0  0  0
  141.4090   71.3340  221.5630 N   0  0  0  0  0  0  0  0  0  0  0  0
  144.5160   75.1270  218.0570 H   0  0  0  0  0  0  0  0  0  0  0  0
  143.6660   74.5260  219.5690 H   0  0  0  0  0  0  0  0  0  0  0  0
  141.3646   72.6711  218.4632 H   0  0  0  0  0  0  0  0  0  0  0  0
  142.0581   72.2891  216.8679 H   0  0  0  0  0  0  0  0  0  0  0  0
  143.8587   71.3311  217.8036 H   0  0  0  0  0  0  0  0  0  0  0  0
  144.1225   72.7970  218.8558 H   0  0  0  0  0  0  0  0  0  0  0  0
  143.2870   70.2870  219.8690 H   0  0  0  0  0  0  0  0  0  0  0  0
  139.4720   76.5194  221.4441 H   0  0  0  0  0  0  0  0  0  0  0  0
  139.8453   75.5293  222.8590 H   0  0  0  0  0  0  0  0  0  0  0  0
  140.4580   77.8551  223.4192 H   0  0  0  0  0  0  0  0  0  0  0  0
  141.9892   76.9954  223.1712 H   0  0  0  0  0  0  0  0  0  0  0  0
  141.9134   79.6360  223.7761 H   0  0  0  0  0  0  0  0  0  0  0  0
  141.8993   82.0889  224.0007 H   0  0  0  0  0  0  0  0  0  0  0  0
  141.3492   83.5455  222.0528 H   0  0  0  0  0  0  0  0  0  0  0  0
  140.8120   82.4543  219.8760 H   0  0  0  0  0  0  0  0  0  0  0  0
  140.8278   79.9964  219.6643 H   0  0  0  0  0  0  0  0  0  0  0  0
  140.7879   77.6434  219.6574 H   0  0  0  0  0  0  0  0  0  0  0  0
  142.5223   78.1724  219.8554 H   0  0  0  0  0  0  0  0  0  0  0  0
  142.1271   75.7013  219.4240 H   0  0  0  0  0  0  0  0  0  0  0  0
  143.1403   76.1538  220.8560 H   0  0  0  0  0  0  0  0  0  0  0  0
  137.9061   71.3070  222.6051 H   0  0  0  0  0  0  0  0  0  0  0  0
  138.9772   69.9164  222.2076 H   0  0  0  0  0  0  0  0  0  0  0  0
  137.5379   70.5422  224.8068 H   0  0  0  0  0  0  0  0  0  0  0  0
  137.4853   69.0442  223.7917 H   0  0  0  0  0  0  0  0  0  0  0  0
  138.3834   67.2813  225.1432 H   0  0  0  0  0  0  0  0  0  0  0  0
  140.3057   66.4182  226.5181 H   0  0  0  0  0  0  0  0  0  0  0  0
  142.1463   67.9783  227.0764 H   0  0  0  0  0  0  0  0  0  0  0  0
  142.1573   70.3154  226.3426 H   0  0  0  0  0  0  0  0  0  0  0  0
  139.4105   72.0875  225.3696 H   0  0  0  0  0  0  0  0  0  0  0  0
  141.1263   72.0771  224.9796 H   0  0  0  0  0  0  0  0  0  0  0  0
  1  2  1  0
  2  3  2  0
  2  4  1  0
  4  5  1  0
  5  6  1  0
  6  7  1  0
  7  8  2  0
  8  9  1  0
  9 10  1  0
 10 11  1  0
 11 12  1  0
 12 13  1  0
 13 14  1  0
 14 15  2  0
 15 16  1  0
 16 17  2  0
 17 18  1  0
 18 19  2  0
 13 20  1  0
 20 21  1  0
  9 22  2  0
 22 23  1  0
 23 24  1  0
 24 25  1  0
 25 26  1  0
 26 27  1  0
 27 28  2  0
 28 29  1  0
 29 30  2  0
 30 31  1  0
 31 32  2  0
 32 33  1  0
 23 34  2  0
 34  7  1  0
 21 10  1  0
 33 24  1  0
 19 14  1  0
 32 27  1  0
  1 35  1  0
  1 36  1  0
  4 37  1  0
  4 38  1  0
  5 39  1  0
  5 40  1  0
  6 41  1  0
 11 42  1  0
 11 43  1  0
 12 44  1  0
 12 45  1  0
 15 46  1  0
 16 47  1  0
 17 48  1  0
 18 49  1  0
 19 50  1  0
 20 51  1  0
 20 52  1  0
 21 53  1  0
 21 54  1  0
 25 55  1  0
 25 56  1  0
 26 57  1  0
 26 58  1  0
 28 59  1  0
 29 60  1  0
 30 61  1  0
 31 62  1  0
 33 63  1  0
 33 64  1  0
M  END
>  <smiles>  (13) 
NC(=O)CCNc1nc(N2CCN(c3ccccc3)CC2)nc(N2CCc3ccccc3C2)n1

>  <score_type>  (13) 
oracle

>  <origin>  (13) 
autodockgpu

>  <m_score__min__energy>  (13) 
-9.3900000000000006

>  <m_primary>  (13) 
energy

>  <rmsd>  (13) 
9.254203390160043

>  <m_score__min__rmsd>  (13) 
9.254203390160043

>  <meeko>  (13) 
{"free_energy": -7.66, "intermolecular_energy": -9.75, "internal_energy": -1.51, "cluster_size": 38, "cluster_id": 1, "rank_in_cluster": 36}

>  <energy>  (13) 
-8.9

>  <cluster_rmsd>  (13) 
1.16

>  <cluster>  (13) 
1

$$$$

     RDKit          3D

 64 68  0  0  0  0  0  0  0  0999 V2000
  146.5870   69.4970  217.9770 N   0  0  0  0  0  0  0  0  0  0  0  0
  145.4000   69.9220  218.6170 C   0  0  0  0  0  0  0  0  0  0  0  0
  145.0050   69.3090  219.6170 O   0  0  0  0  0  0  0  0  0  0  0  0
  144.6960   71.0980  218.0350 C   0  0  0  0  0  0  0  0  0  0  0  0
  144.0510   71.8380  219.1670 C   0  0  0  0  0  0  0  0  0  0  0  0
  143.0340   71.0450  219.8670 N   0  0  0  0  0  0  0  0  0  0  0  0
  142.1630   71.7900  220.7250 C   0  0  0  0  0  0  0  0  0  0  0  0
  142.1330   73.1200  220.5910 N   0  0  0  0  0  0  0  0  0  0  0  0
  141.3080   73.8430  221.3990 C   0  0  0  0  0  0  0  0  0  0  0  0
  141.2780   75.2450  221.2570 N   0  0  0  0  0  0  0  0  0  0  0  0
  140.3040   76.0100  222.0110 C   0  0  0  0  0  0  0  0  0  0  0  0
  141.0780   77.1950  222.5860 C   0  0  0  0  0  0  0  0  0  0  0  0
  141.4100   78.0490  221.4620 N   0  0  0  0  0  0  0  0  0  0  0  0
  141.4190   79.4550  221.5590 C   0  0  0  0  0  0  0  0  0  0  0  0
  141.1520   80.2750  220.4750 C   0  0  0  0  0  0  0  0  0  0  0  0
  141.1660   81.6600  220.5770 C   0  0  0  0  0  0  0  0  0  0  0  0
  141.4510   82.2830  221.7780 C   0  0  0  0  0  0  0  0  0  0  0  0
  141.7190   81.4790  222.8670 C   0  0  0  0  0  0  0  0  0  0  0  0
  141.7010   80.0910  222.7500 C   0  0  0  0  0  0  0  0  0  0  0  0
  141.7420   77.3980  220.2160 C   0  0  0  0  0  0  0  0  0  0  0  0
  142.1710   75.9560  220.3930 C   0  0  0  0  0  0  0  0  0  0  0  0
  140.5310   73.2230  222.3240 N   0  0  0  0  0  0  0  0  0  0  0  0
  140.5670   71.8780  222.4530 C   0  0  0  0  0  0  0  0  0  0  0  0
  139.7370   71.2880  223.4300 N   0  0  0  0  0  0  0  0  0  0  0  0
  138.6420   70.4430  222.9910 C   0  0  0  0  0  0  0  0  0  0  0  0
  138.0320   69.7280  224.1820 C   0  0  0  0  0  0  0  0  0  0  0  0
  139.0810   69.2290  225.1070 C   0  0  0  0  0  0  0  0  0  0  0  0
  139.1100   67.9540  225.6150 C   0  0  0  0  0  0  0  0  0  0  0  0
  140.1340   67.5650  226.4800 C   0  0  0  0  0  0  0  0  0  0  0  0
  141.0970   68.5120  226.7930 C   0  0  0  0  0  0  0  0  0  0  0  0
  141.0960   69.7860  226.3050 C   0  0  0  0  0  0  0  0  0  0  0  0
  140.0750   70.1500  225.4520 C   0  0  0  0  0  0  0  0  0  0  0  0
  139.9800   71.5250  224.8590 C   0  0  0  0  0  0  0  0  0  0  0  0
  141.3830   71.1640  221.6540 N   0  0  0  0  0  0  0  0  0  0  0  0
  147.4410   69.3870  218.5860 H   0  0  0  0  0  0  0  0  0  0  0  0
  146.6150   69.3000  216.9490 H   0  0  0  0  0  0  0  0  0  0  0  0
  145.4164   71.7510  217.5207 H   0  0  0  0  0  0  0  0  0  0  0  0
  143.9423   70.7761  217.3013 H   0  0  0  0  0  0  0  0  0  0  0  0
  144.8308   72.1229  219.8886 H   0  0  0  0  0  0  0  0  0  0  0  0
  143.5454   72.7163  218.7393 H   0  0  0  0  0  0  0  0  0  0  0  0
  142.9580   70.0100  219.7430 H   0  0  0  0  0  0  0  0  0  0  0  0
  139.4962   76.3609  221.3520 H   0  0  0  0  0  0  0  0  0  0  0  0
  139.8319   75.4071  222.8007 H   0  0  0  0  0  0  0  0  0  0  0  0
  140.4550   77.7421  223.3089 H   0  0  0  0  0  0  0  0  0  0  0  0
  141.9827   76.8621  223.1158 H   0  0  0  0  0  0  0  0  0  0  0  0
  140.9216   79.8147  219.5029 H   0  0  0  0  0  0  0  0  0  0  0  0
  140.9470   82.2707  219.6887 H   0  0  0  0  0  0  0  0  0  0  0  0
  141.4637   83.3797  221.8623 H   0  0  0  0  0  0  0  0  0  0  0  0
  141.9496   81.9395  223.8390 H   0  0  0  0  0  0  0  0  0  0  0  0
  141.9194   79.4807  223.6387 H   0  0  0  0  0  0  0  0  0  0  0  0
  140.8577   77.4221  219.5623 H   0  0  0  0  0  0  0  0  0  0  0  0
  142.5929   77.9414  219.7794 H   0  0  0  0  0  0  0  0  0  0  0  0
  142.1842   75.4637  219.4094 H   0  0  0  0  0  0  0  0  0  0  0  0
  143.1721   75.9473  220.8488 H   0  0  0  0  0  0  0  0  0  0  0  0
  137.8743   71.0636  222.5057 H   0  0  0  0  0  0  0  0  0  0  0  0
  139.0233   69.6977  222.2775 H   0  0  0  0  0  0  0  0  0  0  0  0
  137.3794   70.4279  224.7244 H   0  0  0  0  0  0  0  0  0  0  0  0
  137.4566   68.8664  223.8124 H   0  0  0  0  0  0  0  0  0  0  0  0
  138.3233   67.2363  225.3393 H   0  0  0  0  0  0  0  0  0  0  0  0
  140.1753   66.5478  226.8967 H   0  0  0  0  0  0  0  0  0  0  0  0
  141.9092   68.2191  227.4745 H   0  0  0  0  0  0  0  0  0  0  0  0
  141.8847   70.5006  226.5831 H   0  0  0  0  0  0  0  0  0  0  0  0
  139.1473   72.0863  225.3080 H   0  0  0  0  0  0  0  0  0  0  0  0
  140.8856   72.1232  225.0377 H   0  0  0  0  0  0  0  0  0  0  0  0
  1  2  1  0
  2  3  2  0
  2  4  1  0
  4  5  1  0
  5  6  1  0
  6  7  1  0
  7  8  2  0
  8  9  1  0
  9 10  1  0
 10 11  1  0
 11 12  1  0
 12 13  1  0
 13 14  1  0
 14 15  2  0
 15 16  1  0
 16 17  2  0
 17 18  1  0
 18 19  2  0
 13 20  1  0
 20 21  1  0
  9 22  2  0
 22 23  1  0
 23 24  1  0
 24 25  1  0
 25 26  1  0
 26 27  1  0
 27 28  2  0
 28 29  1  0
 29 30  2  0
 30 31  1  0
 31 32  2  0
 32 33  1  0
 23 34  2  0
 34  7  1  0
 21 10  1  0
 33 24  1  0
 19 14  1  0
 32 27  1  0
  1 35  1  0
  1 36  1  0
  4 37  1  0
  4 38  1  0
  5 39  1  0
  5 40  1  0
  6 41  1  0
 11 42  1  0
 11 43  1  0
 12 44  1  0
 12 45  1  0
 15 46  1  0
 16 47  1  0
 17 48  1  0
 18 49  1  0
 19 50  1  0
 20 51  1  0
 20 52  1  0
 21 53  1  0
 21 54  1  0
 25 55  1  0
 25 56  1  0
 26 57  1  0
 26 58  1  0
 28 59  1  0
 29 60  1  0
 30 61  1  0
 31 62  1  0
 33 63  1  0
 33 64  1  0
M  END
>  <smiles>  (14) 
NC(=O)CCNc1nc(N2CCN(c3ccccc3)CC2)nc(N2CCc3ccccc3C2)n1

>  <score_type>  (14) 
oracle

>  <origin>  (14) 
autodockgpu

>  <m_score__min__energy>  (14) 
-9.3900000000000006

>  <m_primary>  (14) 
energy

>  <rmsd>  (14) 
8.98508685754883

>  <m_score__min__rmsd>  (14) 
8.98508685754883

>  <meeko>  (14) 
{"free_energy": -8.41, "intermolecular_energy": -10.5, "internal_energy": -1.42, "cluster_size": 38, "cluster_id": 1, "rank_in_cluster": 26}

>  <energy>  (14) 
-8.89

>  <cluster_rmsd>  (14) 
1.3

>  <cluster>  (14) 
1

$$$$

     RDKit          3D

 64 68  0  0  0  0  0  0  0  0999 V2000
  142.7080   75.0420  220.5140 N   0  0  0  0  0  0  0  0  0  0  0  0
  143.1660   75.3920  219.2230 C   0  0  0  0  0  0  0  0  0  0  0  0
  143.6270   76.5250  219.0370 O   0  0  0  0  0  0  0  0  0  0  0  0
  143.0620   74.3550  218.1600 C   0  0  0  0  0  0  0  0  0  0  0  0
  141.8260   74.6510  217.3670 C   0  0  0  0  0  0  0  0  0  0  0  0
  140.6380   73.9530  217.8720 N   0  0  0  0  0  0  0  0  0  0  0  0
  140.2860   74.2500  219.2270 C   0  0  0  0  0  0  0  0  0  0  0  0
  140.1720   73.2320  220.0870 N   0  0  0  0  0  0  0  0  0  0  0  0
  139.8390   73.4980  221.3810 C   0  0  0  0  0  0  0  0  0  0  0  0
  139.7200   72.4230  222.2840 N   0  0  0  0  0  0  0  0  0  0  0  0
  140.9230   71.8120  222.8160 C   0  0  0  0  0  0  0  0  0  0  0  0
  140.6670   71.6510  224.3140 C   0  0  0  0  0  0  0  0  0  0  0  0
  139.6550   70.6220  224.4460 N   0  0  0  0  0  0  0  0  0  0  0  0
  139.6620   69.6880  225.5020 C   0  0  0  0  0  0  0  0  0  0  0  0
  139.9520   70.0500  226.8080 C   0  0  0  0  0  0  0  0  0  0  0  0
  139.9620   69.1240  227.8440 C   0  0  0  0  0  0  0  0  0  0  0  0
  139.6790   67.7910  227.6110 C   0  0  0  0  0  0  0  0  0  0  0  0
  139.3880   67.4170  226.3150 C   0  0  0  0  0  0  0  0  0  0  0  0
  139.3830   68.3550  225.2860 C   0  0  0  0  0  0  0  0  0  0  0  0
  138.6160   70.5860  223.4440 C   0  0  0  0  0  0  0  0  0  0  0  0
  138.4560   71.9000  222.7050 C   0  0  0  0  0  0  0  0  0  0  0  0
  139.6250   74.7750  221.7900 N   0  0  0  0  0  0  0  0  0  0  0  0
  139.7420   75.7990  220.9150 C   0  0  0  0  0  0  0  0  0  0  0  0
  139.5090   77.1040  221.3960 N   0  0  0  0  0  0  0  0  0  0  0  0
  138.7790   77.2660  222.6390 C   0  0  0  0  0  0  0  0  0  0  0  0
  138.8450   78.7120  223.0940 C   0  0  0  0  0  0  0  0  0  0  0  0
  140.2080   79.2730  222.9110 C   0  0  0  0  0  0  0  0  0  0  0  0
  140.8830   79.9740  223.8790 C   0  0  0  0  0  0  0  0  0  0  0  0
  142.1640   80.4680  223.6240 C   0  0  0  0  0  0  0  0  0  0  0  0
  142.7040   80.2200  222.3720 C   0  0  0  0  0  0  0  0  0  0  0  0
  142.0590   79.5270  221.3890 C   0  0  0  0  0  0  0  0  0  0  0  0
  140.7950   79.0480  221.6610 C   0  0  0  0  0  0  0  0  0  0  0  0
  139.9980   78.2730  220.6520 C   0  0  0  0  0  0  0  0  0  0  0  0
  140.0710   75.5350  219.6350 N   0  0  0  0  0  0  0  0  0  0  0  0
  143.3770   75.2010  221.3140 H   0  0  0  0  0  0  0  0  0  0  0  0
  141.7510   74.6460  220.6670 H   0  0  0  0  0  0  0  0  0  0  0  0
  143.9465   74.3953  217.5073 H   0  0  0  0  0  0  0  0  0  0  0  0
  143.0092   73.3490  218.6017 H   0  0  0  0  0  0  0  0  0  0  0  0
  141.6377   75.7341  217.4033 H   0  0  0  0  0  0  0  0  0  0  0  0
  142.0024   74.2982  216.3402 H   0  0  0  0  0  0  0  0  0  0  0  0
  140.0940   73.2860  217.2780 H   0  0  0  0  0  0  0  0  0  0  0  0
  141.0966   70.8320  222.3476 H   0  0  0  0  0  0  0  0  0  0  0  0
  141.8154   72.4235  222.6165 H   0  0  0  0  0  0  0  0  0  0  0  0
  141.5905   71.3449  224.8274 H   0  0  0  0  0  0  0  0  0  0  0  0
  140.3361   72.5973  224.7668 H   0  0  0  0  0  0  0  0  0  0  0  0
  140.1812   71.1024  227.0313 H   0  0  0  0  0  0  0  0  0  0  0  0
  140.1988   69.4568  228.8654 H   0  0  0  0  0  0  0  0  0  0  0  0
  139.6856   67.0554  228.4288 H   0  0  0  0  0  0  0  0  0  0  0  0
  139.1571   66.3649  226.0921 H   0  0  0  0  0  0  0  0  0  0  0  0
  139.1482   68.0208  224.2646 H   0  0  0  0  0  0  0  0  0  0  0  0
  138.8614   69.8012  222.7134 H   0  0  0  0  0  0  0  0  0  0  0  0
  137.6672   70.3840  223.9627 H   0  0  0  0  0  0  0  0  0  0  0  0
  137.8238   71.7373  221.8196 H   0  0  0  0  0  0  0  0  0  0  0  0
  137.9929   72.6263  223.3892 H   0  0  0  0  0  0  0  0  0  0  0  0
  137.7281   76.9802  222.4843 H   0  0  0  0  0  0  0  0  0  0  0  0
  139.2304   76.6237  223.4096 H   0  0  0  0  0  0  0  0  0  0  0  0
  138.1308   79.3061  222.5049 H   0  0  0  0  0  0  0  0  0  0  0  0
  138.5939   78.7513  224.1642 H   0  0  0  0  0  0  0  0  0  0  0  0
  140.4135   80.1472  224.8586 H   0  0  0  0  0  0  0  0  0  0  0  0
  142.7221   81.0314  224.3863 H   0  0  0  0  0  0  0  0  0  0  0  0
  143.7121   80.6045  222.1579 H   0  0  0  0  0  0  0  0  0  0  0  0
  142.5324   79.3560  220.4109 H   0  0  0  0  0  0  0  0  0  0  0  0
  139.1576   78.8740  220.2744 H   0  0  0  0  0  0  0  0  0  0  0  0
  140.5945   77.9915  219.7717 H   0  0  0  0  0  0  0  0  0  0  0  0
  1  2  1  0
  2  3  2  0
  2  4  1  0
  4  5  1  0
  5  6  1  0
  6  7  1  0
  7  8  2  0
  8  9  1  0
  9 10  1  0
 10 11  1  0
 11 12  1  0
 12 13  1  0
 13 14  1  0
 14 15  2  0
 15 16  1  0
 16 17  2  0
 17 18  1  0
 18 19  2  0
 13 20  1  0
 20 21  1  0
  9 22  2  0
 22 23  1  0
 23 24  1  0
 24 25  1  0
 25 26  1  0
 26 27  1  0
 27 28  2  0
 28 29  1  0
 29 30  2  0
 30 31  1  0
 31 32  2  0
 32 33  1  0
 23 34  2  0
 34  7  1  0
 21 10  1  0
 33 24  1  0
 19 14  1  0
 32 27  1  0
  1 35  1  0
  1 36  1  0
  4 37  1  0
  4 38  1  0
  5 39  1  0
  5 40  1  0
  6 41  1  0
 11 42  1  0
 11 43  1  0
 12 44  1  0
 12 45  1  0
 15 46  1  0
 16 47  1  0
 17 48  1  0
 18 49  1  0
 19 50  1  0
 20 51  1  0
 20 52  1  0
 21 53  1  0
 21 54  1  0
 25 55  1  0
 25 56  1  0
 26 57  1  0
 26 58  1  0
 28 59  1  0
 29 60  1  0
 30 61  1  0
 31 62  1  0
 33 63  1  0
 33 64  1  0
M  END
>  <smiles>  (15) 
NC(=O)CCNc1nc(N2CCN(c3ccccc3)CC2)nc(N2CCc3ccccc3C2)n1

>  <score_type>  (15) 
oracle

>  <origin>  (15) 
autodockgpu

>  <m_score__min__energy>  (15) 
-9.3900000000000006

>  <m_primary>  (15) 
energy

>  <rmsd>  (15) 
4.814989598265405

>  <m_score__min__rmsd>  (15) 
4.814989598265405

>  <meeko>  (15) 
{"free_energy": -7.33, "intermolecular_energy": -9.42, "internal_energy": -2.57, "cluster_size": 3, "cluster_id": 3, "rank_in_cluster": 3}

>  <energy>  (15) 
-8.85

>  <cluster_rmsd>  (15) 
1.82

>  <cluster>  (15) 
1

$$$$

     RDKit          3D

 64 68  0  0  0  0  0  0  0  0999 V2000
  139.2060   69.6880  219.3410 N   0  0  0  0  0  0  0  0  0  0  0  0
  139.8850   68.7040  218.5860 C   0  0  0  0  0  0  0  0  0  0  0  0
  139.2560   67.7160  218.1850 O   0  0  0  0  0  0  0  0  0  0  0  0
  141.3320   68.9280  218.3200 C   0  0  0  0  0  0  0  0  0  0  0  0
  141.9260   69.5320  219.5560 C   0  0  0  0  0  0  0  0  0  0  0  0
  142.1130   70.9840  219.4540 N   0  0  0  0  0  0  0  0  0  0  0  0
  141.5050   71.7530  220.4970 C   0  0  0  0  0  0  0  0  0  0  0  0
  141.5620   73.0860  220.4130 N   0  0  0  0  0  0  0  0  0  0  0  0
  140.9860   73.8320  221.3970 C   0  0  0  0  0  0  0  0  0  0  0  0
  141.0480   75.2370  221.3060 N   0  0  0  0  0  0  0  0  0  0  0  0
  140.1120   76.0360  222.0720 C   0  0  0  0  0  0  0  0  0  0  0  0
  140.9480   77.1480  222.7020 C   0  0  0  0  0  0  0  0  0  0  0  0
  141.3540   78.0180  221.6150 N   0  0  0  0  0  0  0  0  0  0  0  0
  141.4510   79.4170  221.7650 C   0  0  0  0  0  0  0  0  0  0  0  0
  141.2850   80.2880  220.7010 C   0  0  0  0  0  0  0  0  0  0  0  0
  141.3850   81.6650  220.8540 C   0  0  0  0  0  0  0  0  0  0  0  0
  141.6580   82.2270  222.0880 C   0  0  0  0  0  0  0  0  0  0  0  0
  141.8250   81.3700  223.1560 C   0  0  0  0  0  0  0  0  0  0  0  0
  141.7220   79.9920  222.9880 C   0  0  0  0  0  0  0  0  0  0  0  0
  141.6670   77.3920  220.3520 C   0  0  0  0  0  0  0  0  0  0  0  0
  142.0000   75.9200  220.4830 C   0  0  0  0  0  0  0  0  0  0  0  0
  140.3670   73.2320  222.4460 N   0  0  0  0  0  0  0  0  0  0  0  0
  140.3130   71.8840  222.5240 C   0  0  0  0  0  0  0  0  0  0  0  0
  139.6560   71.3150  223.6350 N   0  0  0  0  0  0  0  0  0  0  0  0
  138.4290   70.5740  223.4100 C   0  0  0  0  0  0  0  0  0  0  0  0
  138.0190   69.8540  224.6820 C   0  0  0  0  0  0  0  0  0  0  0  0
  139.1910   69.2380  225.3550 C   0  0  0  0  0  0  0  0  0  0  0  0
  139.2180   67.9440  225.8100 C   0  0  0  0  0  0  0  0  0  0  0  0
  140.3630   67.4420  226.4330 C   0  0  0  0  0  0  0  0  0  0  0  0
  141.4440   68.3000  226.5650 C   0  0  0  0  0  0  0  0  0  0  0  0
  141.4470   69.5910  226.1230 C   0  0  0  0  0  0  0  0  0  0  0  0
  140.3070   70.0670  225.5110 C   0  0  0  0  0  0  0  0  0  0  0  0
  140.2050   71.4710  224.9880 C   0  0  0  0  0  0  0  0  0  0  0  0
  140.8820   71.1460  221.5500 N   0  0  0  0  0  0  0  0  0  0  0  0
  138.3200   70.0780  218.9230 H   0  0  0  0  0  0  0  0  0  0  0  0
  139.5670   70.0110  220.2690 H   0  0  0  0  0  0  0  0  0  0  0  0
  141.8255   67.9711  218.0945 H   0  0  0  0  0  0  0  0  0  0  0  0
  141.4696   69.5955  217.4566 H   0  0  0  0  0  0  0  0  0  0  0  0
  141.2568   69.3238  220.4038 H   0  0  0  0  0  0  0  0  0  0  0  0
  142.9200   69.0821  219.6960 H   0  0  0  0  0  0  0  0  0  0  0  0
  142.6520   71.4190  218.6710 H   0  0  0  0  0  0  0  0  0  0  0  0
  139.3400   76.4609  221.4136 H   0  0  0  0  0  0  0  0  0  0  0  0
  139.5893   75.4368  222.8321 H   0  0  0  0  0  0  0  0  0  0  0  0
  140.3473   77.7079  223.4339 H   0  0  0  0  0  0  0  0  0  0  0  0
  141.8199   76.7399  223.2343 H   0  0  0  0  0  0  0  0  0  0  0  0
  141.0673   79.8767  219.7043 H   0  0  0  0  0  0  0  0  0  0  0  0
  141.2449   82.3185  219.9804 H   0  0  0  0  0  0  0  0  0  0  0  0
  141.7390   83.3169  222.2131 H   0  0  0  0  0  0  0  0  0  0  0  0
  142.0423   81.7808  224.1530 H   0  0  0  0  0  0  0  0  0  0  0  0
  141.8618   79.3390  223.8621 H   0  0  0  0  0  0  0  0  0  0  0  0
  140.7984   77.4961  219.6852 H   0  0  0  0  0  0  0  0  0  0  0  0
  142.5588   77.8948  219.9496 H   0  0  0  0  0  0  0  0  0  0  0  0
  141.9999   75.4633  219.4823 H   0  0  0  0  0  0  0  0  0  0  0  0
  142.9899   75.8311  220.9545 H   0  0  0  0  0  0  0  0  0  0  0  0
  137.6316   71.2708  223.1122 H   0  0  0  0  0  0  0  0  0  0  0  0
  138.5939   69.8344  222.6126 H   0  0  0  0  0  0  0  0  0  0  0  0
  137.5508   70.5759  225.3673 H   0  0  0  0  0  0  0  0  0  0  0  0
  137.3116   69.0547  224.4160 H   0  0  0  0  0  0  0  0  0  0  0  0
  138.3353   67.2999  225.6838 H   0  0  0  0  0  0  0  0  0  0  0  0
  140.4053   66.4073  226.8040 H   0  0  0  0  0  0  0  0  0  0  0  0
  142.3520   67.9179  227.0545 H   0  0  0  0  0  0  0  0  0  0  0  0
  142.3317   70.2321  226.2510 H   0  0  0  0  0  0  0  0  0  0  0  0
  139.5306   72.0725  225.6152 H   0  0  0  0  0  0  0  0  0  0  0  0
  141.1737   71.9921  224.9911 H   0  0  0  0  0  0  0  0  0  0  0  0
  1  2  1  0
  2  3  2  0
  2  4  1  0
  4  5  1  0
  5  6  1  0
  6  7  1  0
  7  8  2  0
  8  9  1  0
  9 10  1  0
 10 11  1  0
 11 12  1  0
 12 13  1  0
 13 14  1  0
 14 15  2  0
 15 16  1  0
 16 17  2  0
 17 18  1  0
 18 19  2  0
 13 20  1  0
 20 21  1  0
  9 22  2  0
 22 23  1  0
 23 24  1  0
 24 25  1  0
 25 26  1  0
 26 27  1  0
 27 28  2  0
 28 29  1  0
 29 30  2  0
 30 31  1  0
 31 32  2  0
 32 33  1  0
 23 34  2  0
 34  7  1  0
 21 10  1  0
 33 24  1  0
 19 14  1  0
 32 27  1  0
  1 35  1  0
  1 36  1  0
  4 37  1  0
  4 38  1  0
  5 39  1  0
  5 40  1  0
  6 41  1  0
 11 42  1  0
 11 43  1  0
 12 44  1  0
 12 45  1  0
 15 46  1  0
 16 47  1  0
 17 48  1  0
 18 49  1  0
 19 50  1  0
 20 51  1  0
 20 52  1  0
 21 53  1  0
 21 54  1  0
 25 55  1  0
 25 56  1  0
 26 57  1  0
 26 58  1  0
 28 59  1  0
 29 60  1  0
 30 61  1  0
 31 62  1  0
 33 63  1  0
 33 64  1  0
M  END
>  <smiles>  (16) 
NC(=O)CCNc1nc(N2CCN(c3ccccc3)CC2)nc(N2CCc3ccccc3C2)n1

>  <score_type>  (16) 
oracle

>  <origin>  (16) 
autodockgpu

>  <m_score__min__energy>  (16) 
-9.3900000000000006

>  <m_primary>  (16) 
energy

>  <rmsd>  (16) 
8.927125224336466

>  <m_score__min__rmsd>  (16) 
8.927125224336466

>  <meeko>  (16) 
{"free_energy": -7.48, "intermolecular_energy": -9.57, "internal_energy": -1.61, "cluster_size": 38, "cluster_id": 1, "rank_in_cluster": 38}

>  <energy>  (16) 
-8.83

>  <cluster_rmsd>  (16) 
1.1

>  <cluster>  (16) 
1

$$$$

     RDKit          3D

 64 68  0  0  0  0  0  0  0  0999 V2000
  144.5350   74.1360  219.8010 N   0  0  0  0  0  0  0  0  0  0  0  0
  145.1400   72.8600  219.7220 C   0  0  0  0  0  0  0  0  0  0  0  0
  146.1980   72.7360  219.0900 O   0  0  0  0  0  0  0  0  0  0  0  0
  144.4530   71.7370  220.4150 C   0  0  0  0  0  0  0  0  0  0  0  0
  143.8870   70.8380  219.3570 C   0  0  0  0  0  0  0  0  0  0  0  0
  142.4620   71.0790  219.1020 N   0  0  0  0  0  0  0  0  0  0  0  0
  141.7600   71.7560  220.1490 C   0  0  0  0  0  0  0  0  0  0  0  0
  141.7980   73.0930  220.1720 N   0  0  0  0  0  0  0  0  0  0  0  0
  141.1330   73.7520  221.1620 C   0  0  0  0  0  0  0  0  0  0  0  0
  141.1750   75.1610  221.1830 N   0  0  0  0  0  0  0  0  0  0  0  0
  140.2140   75.8830  221.9940 C   0  0  0  0  0  0  0  0  0  0  0  0
  141.0220   76.9530  222.7250 C   0  0  0  0  0  0  0  0  0  0  0  0
  141.4340   77.9120  221.7190 N   0  0  0  0  0  0  0  0  0  0  0  0
  141.5070   79.2960  221.9810 C   0  0  0  0  0  0  0  0  0  0  0  0
  141.2270   80.2480  221.0150 C   0  0  0  0  0  0  0  0  0  0  0  0
  141.3050   81.6100  221.2780 C   0  0  0  0  0  0  0  0  0  0  0  0
  141.6680   82.0740  222.5290 C   0  0  0  0  0  0  0  0  0  0  0  0
  141.9490   81.1360  223.5010 C   0  0  0  0  0  0  0  0  0  0  0  0
  141.8670   79.7740  223.2230 C   0  0  0  0  0  0  0  0  0  0  0  0
  141.7770   77.3940  220.4160 C   0  0  0  0  0  0  0  0  0  0  0  0
  142.1310   75.9200  220.4350 C   0  0  0  0  0  0  0  0  0  0  0  0
  140.4450   73.0650  222.1080 N   0  0  0  0  0  0  0  0  0  0  0  0
  140.4110   71.7140  222.0780 C   0  0  0  0  0  0  0  0  0  0  0  0
  139.6790   71.0520  223.0870 N   0  0  0  0  0  0  0  0  0  0  0  0
  138.8940   69.8870  222.7220 C   0  0  0  0  0  0  0  0  0  0  0  0
  138.3850   69.1940  223.9730 C   0  0  0  0  0  0  0  0  0  0  0  0
  139.4370   69.1310  225.0200 C   0  0  0  0  0  0  0  0  0  0  0  0
  139.7550   67.9920  225.7170 C   0  0  0  0  0  0  0  0  0  0  0  0
  140.7600   68.0180  226.6870 C   0  0  0  0  0  0  0  0  0  0  0  0
  141.4030   69.2270  226.9040 C   0  0  0  0  0  0  0  0  0  0  0  0
  141.1100   70.3760  226.2280 C   0  0  0  0  0  0  0  0  0  0  0  0
  140.1140   70.3280  225.2740 C   0  0  0  0  0  0  0  0  0  0  0  0
  139.7140   71.5330  224.4740 C   0  0  0  0  0  0  0  0  0  0  0  0
  141.0680   71.0620  221.1000 N   0  0  0  0  0  0  0  0  0  0  0  0
  145.1460   74.9310  220.1300 H   0  0  0  0  0  0  0  0  0  0  0  0
  143.5310   74.2820  219.5440 H   0  0  0  0  0  0  0  0  0  0  0  0
  145.1719   71.1817  221.0354 H   0  0  0  0  0  0  0  0  0  0  0  0
  143.6555   72.1149  221.0716 H   0  0  0  0  0  0  0  0  0  0  0  0
  144.4432   71.0031  218.4224 H   0  0  0  0  0  0  0  0  0  0  0  0
  143.9865   69.8032  219.7167 H   0  0  0  0  0  0  0  0  0  0  0  0
  141.9990   70.7730  218.2160 H   0  0  0  0  0  0  0  0  0  0  0  0
  139.4462   76.3480  221.3582 H   0  0  0  0  0  0  0  0  0  0  0  0
  139.6886   75.2175  222.6948 H   0  0  0  0  0  0  0  0  0  0  0  0
  140.4002   77.4448  223.4876 H   0  0  0  0  0  0  0  0  0  0  0  0
  141.8906   76.5156  223.2390 H   0  0  0  0  0  0  0  0  0  0  0  0
  140.9338   79.9155  220.0083 H   0  0  0  0  0  0  0  0  0  0  0  0
  141.0745   82.3301  220.4790 H   0  0  0  0  0  0  0  0  0  0  0  0
  141.7304   83.1515  222.7415 H   0  0  0  0  0  0  0  0  0  0  0  0
  142.2414   81.4682  224.5080 H   0  0  0  0  0  0  0  0  0  0  0  0
  142.0975   79.0543  224.0223 H   0  0  0  0  0  0  0  0  0  0  0  0
  140.9177   77.5388  219.7447 H   0  0  0  0  0  0  0  0  0  0  0  0
  142.6671   77.9401  220.0704 H   0  0  0  0  0  0  0  0  0  0  0  0
  142.1555   75.5448  219.4013 H   0  0  0  0  0  0  0  0  0  0  0  0
  143.1140   75.8070  220.9156 H   0  0  0  0  0  0  0  0  0  0  0  0
  138.0388   70.2019  222.1060 H   0  0  0  0  0  0  0  0  0  0  0  0
  139.5254   69.1888  222.1528 H   0  0  0  0  0  0  0  0  0  0  0  0
  137.5216   69.7513  224.3654 H   0  0  0  0  0  0  0  0  0  0  0  0
  138.0964   68.1662  223.7080 H   0  0  0  0  0  0  0  0  0  0  0  0
  139.2165   67.0552  225.5110 H   0  0  0  0  0  0  0  0  0  0  0  0
  141.0302   67.1159  227.2555 H   0  0  0  0  0  0  0  0  0  0  0  0
  142.1958   69.2623  227.6657 H   0  0  0  0  0  0  0  0  0  0  0  0
  141.6508   71.3108  226.4370 H   0  0  0  0  0  0  0  0  0  0  0  0
  138.7236   71.8964  224.7856 H   0  0  0  0  0  0  0  0  0  0  0  0
  140.4072   72.3764  224.6091 H   0  0  0  0  0  0  0  0  0  0  0  0
  1  2  1  0
  2  3  2  0
  2  4  1  0
  4  5  1  0
  5  6  1  0
  6  7  1  0
  7  8  2  0
  8  9  1  0
  9 10  1  0
 10 11  1  0
 11 12  1  0
 12 13  1  0
 13 14  1  0
 14 15  2  0
 15 16  1  0
 16 17  2  0
 17 18  1  0
 18 19  2  0
 13 20  1  0
 20 21  1  0
  9 22  2  0
 22 23  1  0
 23 24  1  0
 24 25  1  0
 25 26  1  0
 26 27  1  0
 27 28  2  0
 28 29  1  0
 29 30  2  0
 30 31  1  0
 31 32  2  0
 32 33  1  0
 23 34  2  0
 34  7  1  0
 21 10  1  0
 33 24  1  0
 19 14  1  0
 32 27  1  0
  1 35  1  0
  1 36  1  0
  4 37  1  0
  4 38  1  0
  5 39  1  0
  5 40  1  0
  6 41  1  0
 11 42  1  0
 11 43  1  0
 12 44  1  0
 12 45  1  0
 15 46  1  0
 16 47  1  0
 17 48  1  0
 18 49  1  0
 19 50  1  0
 20 51  1  0
 20 52  1  0
 21 53  1  0
 21 54  1  0
 25 55  1  0
 25 56  1  0
 26 57  1  0
 26 58  1  0
 28 59  1  0
 29 60  1  0
 30 61  1  0
 31 62  1  0
 33 63  1  0
 33 64  1  0
M  END
>  <smiles>  (17) 
NC(=O)CCNc1nc(N2CCN(c3ccccc3)CC2)nc(N2CCc3ccccc3C2)n1

>  <score_type>  (17) 
oracle

>  <origin>  (17) 
autodockgpu

>  <m_score__min__energy>  (17) 
-9.3900000000000006

>  <m_primary>  (17) 
energy

>  <rmsd>  (17) 
8.809104810249078

>  <m_score__min__rmsd>  (17) 
8.809104810249078

>  <meeko>  (17) 
{"free_energy": -8.81, "intermolecular_energy": -10.9, "internal_energy": -1.69, "cluster_size": 38, "cluster_id": 1, "rank_in_cluster": 17}

>  <energy>  (17) 
-8.81

>  <cluster_rmsd>  (17) 
1.05

>  <cluster>  (17) 
1

$$$$

     RDKit          3D

 64 68  0  0  0  0  0  0  0  0999 V2000
  145.7740   71.5520  220.0420 N   0  0  0  0  0  0  0  0  0  0  0  0
  145.3240   71.6740  218.7070 C   0  0  0  0  0  0  0  0  0  0  0  0
  145.9430   72.4140  217.9310 O   0  0  0  0  0  0  0  0  0  0  0  0
  144.1190   70.8910  218.3210 C   0  0  0  0  0  0  0  0  0  0  0  0
  142.9210   71.7490  218.5960 C   0  0  0  0  0  0  0  0  0  0  0  0
  141.8880   71.0600  219.3760 N   0  0  0  0  0  0  0  0  0  0  0  0
  141.3210   71.8220  220.4480 C   0  0  0  0  0  0  0  0  0  0  0  0
  141.3870   73.1550  220.3770 N   0  0  0  0  0  0  0  0  0  0  0  0
  140.8510   73.8940  221.3880 C   0  0  0  0  0  0  0  0  0  0  0  0
  140.9210   75.3000  221.3110 N   0  0  0  0  0  0  0  0  0  0  0  0
  140.0220   76.0970  222.1220 C   0  0  0  0  0  0  0  0  0  0  0  0
  140.8920   77.1950  222.7320 C   0  0  0  0  0  0  0  0  0  0  0  0
  141.2630   78.0740  221.6400 N   0  0  0  0  0  0  0  0  0  0  0  0
  141.3780   79.4700  221.8020 C   0  0  0  0  0  0  0  0  0  0  0  0
  141.7350   80.0490  223.0080 C   0  0  0  0  0  0  0  0  0  0  0  0
  141.8420   81.4250  223.1620 C   0  0  0  0  0  0  0  0  0  0  0  0
  141.5940   82.2820  222.1060 C   0  0  0  0  0  0  0  0  0  0  0  0
  141.2370   81.7190  220.8980 C   0  0  0  0  0  0  0  0  0  0  0  0
  141.1330   80.3370  220.7580 C   0  0  0  0  0  0  0  0  0  0  0  0
  141.5210   77.4610  220.3580 C   0  0  0  0  0  0  0  0  0  0  0  0
  141.8460   75.9850  220.4590 C   0  0  0  0  0  0  0  0  0  0  0  0
  140.2620   73.2870  222.4500 N   0  0  0  0  0  0  0  0  0  0  0  0
  140.2000   71.9380  222.5150 C   0  0  0  0  0  0  0  0  0  0  0  0
  139.5750   71.3620  223.6410 N   0  0  0  0  0  0  0  0  0  0  0  0
  138.3500   70.6100  223.4450 C   0  0  0  0  0  0  0  0  0  0  0  0
  137.9780   69.8850  224.7250 C   0  0  0  0  0  0  0  0  0  0  0  0
  139.1720   69.2790  225.3680 C   0  0  0  0  0  0  0  0  0  0  0  0
  139.2220   67.9840  225.8200 C   0  0  0  0  0  0  0  0  0  0  0  0
  140.3860   67.4920  226.4140 C   0  0  0  0  0  0  0  0  0  0  0  0
  141.4620   68.3590  226.5210 C   0  0  0  0  0  0  0  0  0  0  0  0
  141.4430   69.6510  226.0810 C   0  0  0  0  0  0  0  0  0  0  0  0
  140.2830   70.1180  225.4980 C   0  0  0  0  0  0  0  0  0  0  0  0
  140.1560   71.5210  224.9810 C   0  0  0  0  0  0  0  0  0  0  0  0
  140.7300   71.2080  221.5140 N   0  0  0  0  0  0  0  0  0  0  0  0
  146.7900   71.3050  220.1790 H   0  0  0  0  0  0  0  0  0  0  0  0
  145.1290   71.7010  220.8530 H   0  0  0  0  0  0  0  0  0  0  0  0
  144.1622   70.6369  217.2516 H   0  0  0  0  0  0  0  0  0  0  0  0
  144.0651   69.9531  218.8932 H   0  0  0  0  0  0  0  0  0  0  0  0
  143.2478   72.6379  219.1555 H   0  0  0  0  0  0  0  0  0  0  0  0
  142.4772   72.0142  217.6251 H   0  0  0  0  0  0  0  0  0  0  0  0
  141.5910   70.0810  219.1590 H   0  0  0  0  0  0  0  0  0  0  0  0
  139.2287   76.5360  221.4991 H   0  0  0  0  0  0  0  0  0  0  0  0
  139.5238   75.4930  222.8947 H   0  0  0  0  0  0  0  0  0  0  0  0
  140.3252   77.7514  223.4930 H   0  0  0  0  0  0  0  0  0  0  0  0
  141.7802   76.7735  223.2254 H   0  0  0  0  0  0  0  0  0  0  0  0
  141.9403   79.3987  223.8711 H   0  0  0  0  0  0  0  0  0  0  0  0
  142.1286   81.8396  224.1397 H   0  0  0  0  0  0  0  0  0  0  0  0
  141.6782   83.3724  222.2244 H   0  0  0  0  0  0  0  0  0  0  0  0
  141.0320   82.3694  220.0349 H   0  0  0  0  0  0  0  0  0  0  0  0
  140.8454   79.9227  219.7804 H   0  0  0  0  0  0  0  0  0  0  0  0
  140.6279   77.5803  219.7270 H   0  0  0  0  0  0  0  0  0  0  0  0
  142.4004   77.9614  219.9265 H   0  0  0  0  0  0  0  0  0  0  0  0
  141.8027   75.5401  219.4539 H   0  0  0  0  0  0  0  0  0  0  0  0
  142.8527   75.8825  220.8902 H   0  0  0  0  0  0  0  0  0  0  0  0
  137.5392   71.2997  223.1677 H   0  0  0  0  0  0  0  0  0  0  0  0
  138.5022   69.8730  222.6428 H   0  0  0  0  0  0  0  0  0  0  0  0
  137.5201   70.6016  225.4227 H   0  0  0  0  0  0  0  0  0  0  0  0
  137.2715   69.0797  224.4754 H   0  0  0  0  0  0  0  0  0  0  0  0
  138.3426   67.3318  225.7140 H   0  0  0  0  0  0  0  0  0  0  0  0
  140.4466   66.4573  226.7824 H   0  0  0  0  0  0  0  0  0  0  0  0
  142.3849   67.9842  226.9876 H   0  0  0  0  0  0  0  0  0  0  0  0
  142.3250   70.2996  226.1879 H   0  0  0  0  0  0  0  0  0  0  0  0
  139.4920   72.1154  225.6258 H   0  0  0  0  0  0  0  0  0  0  0  0
  141.1198   72.0509  224.9614 H   0  0  0  0  0  0  0  0  0  0  0  0
  1  2  1  0
  2  3  2  0
  2  4  1  0
  4  5  1  0
  5  6  1  0
  6  7  1  0
  7  8  2  0
  8  9  1  0
  9 10  1  0
 10 11  1  0
 11 12  1  0
 12 13  1  0
 13 14  1  0
 14 15  2  0
 15 16  1  0
 16 17  2  0
 17 18  1  0
 18 19  2  0
 13 20  1  0
 20 21  1  0
  9 22  2  0
 22 23  1  0
 23 24  1  0
 24 25  1  0
 25 26  1  0
 26 27  1  0
 27 28  2  0
 28 29  1  0
 29 30  2  0
 30 31  1  0
 31 32  2  0
 32 33  1  0
 23 34  2  0
 34  7  1  0
 21 10  1  0
 33 24  1  0
 19 14  1  0
 32 27  1  0
  1 35  1  0
  1 36  1  0
  4 37  1  0
  4 38  1  0
  5 39  1  0
  5 40  1  0
  6 41  1  0
 11 42  1  0
 11 43  1  0
 12 44  1  0
 12 45  1  0
 15 46  1  0
 16 47  1  0
 17 48  1  0
 18 49  1  0
 19 50  1  0
 20 51  1  0
 20 52  1  0
 21 53  1  0
 21 54  1  0
 25 55  1  0
 25 56  1  0
 26 57  1  0
 26 58  1  0
 28 59  1  0
 29 60  1  0
 30 61  1  0
 31 62  1  0
 33 63  1  0
 33 64  1  0
M  END
>  <smiles>  (18) 
NC(=O)CCNc1nc(N2CCN(c3ccccc3)CC2)nc(N2CCc3ccccc3C2)n1

>  <score_type>  (18) 
oracle

>  <origin>  (18) 
autodockgpu

>  <m_score__min__energy>  (18) 
-9.3900000000000006

>  <m_primary>  (18) 
energy

>  <rmsd>  (18) 
9.12305963644162

>  <m_score__min__rmsd>  (18) 
9.12305963644162

>  <meeko>  (18) 
{"free_energy": -8.96, "intermolecular_energy": -11.05, "internal_energy": -0.88, "cluster_size": 38, "cluster_id": 1, "rank_in_cluster": 11}

>  <energy>  (18) 
-8.77

>  <cluster_rmsd>  (18) 
0.98

>  <cluster>  (18) 
1

$$$$

     RDKit          3D

 64 68  0  0  0  0  0  0  0  0999 V2000
  145.8190   71.9010  219.8290 N   0  0  0  0  0  0  0  0  0  0  0  0
  145.7190   70.6720  219.1380 C   0  0  0  0  0  0  0  0  0  0  0  0
  146.5410   69.7790  219.3800 O   0  0  0  0  0  0  0  0  0  0  0  0
  144.6140   70.5340  218.1500 C   0  0  0  0  0  0  0  0  0  0  0  0
  143.5380   71.4990  218.5460 C   0  0  0  0  0  0  0  0  0  0  0  0
  142.3320   70.8390  219.0580 N   0  0  0  0  0  0  0  0  0  0  0  0
  141.6650   71.5250  220.1220 C   0  0  0  0  0  0  0  0  0  0  0  0
  141.7300   72.8610  220.1490 N   0  0  0  0  0  0  0  0  0  0  0  0
  141.0980   73.5290  221.1550 C   0  0  0  0  0  0  0  0  0  0  0  0
  141.1680   74.9360  221.1810 N   0  0  0  0  0  0  0  0  0  0  0  0
  140.1840   75.6770  221.9460 C   0  0  0  0  0  0  0  0  0  0  0  0
  140.9790   76.7290  222.7170 C   0  0  0  0  0  0  0  0  0  0  0  0
  141.4580   77.6810  221.7340 N   0  0  0  0  0  0  0  0  0  0  0  0
  141.5470   79.0620  222.0010 C   0  0  0  0  0  0  0  0  0  0  0  0
  141.2690   80.0220  221.0420 C   0  0  0  0  0  0  0  0  0  0  0  0
  141.3630   81.3810  221.3110 C   0  0  0  0  0  0  0  0  0  0  0  0
  141.7400   81.8370  222.5610 C   0  0  0  0  0  0  0  0  0  0  0  0
  142.0190   80.8910  223.5270 C   0  0  0  0  0  0  0  0  0  0  0  0
  141.9220   79.5310  223.2430 C   0  0  0  0  0  0  0  0  0  0  0  0
  141.8530   77.1570  220.4470 C   0  0  0  0  0  0  0  0  0  0  0  0
  142.1740   75.6760  220.4810 C   0  0  0  0  0  0  0  0  0  0  0  0
  140.4160   72.8500  222.1130 N   0  0  0  0  0  0  0  0  0  0  0  0
  140.3550   71.5000  222.0780 C   0  0  0  0  0  0  0  0  0  0  0  0
  139.6310   70.8490  223.0980 N   0  0  0  0  0  0  0  0  0  0  0  0
  139.1270   69.5110  222.8460 C   0  0  0  0  0  0  0  0  0  0  0  0
  138.5950   68.9080  224.1320 C   0  0  0  0  0  0  0  0  0  0  0  0
  139.4940   69.2000  225.2780 C   0  0  0  0  0  0  0  0  0  0  0  0
  139.9210   68.2540  226.1760 C   0  0  0  0  0  0  0  0  0  0  0  0
  140.7680   68.6130  227.2260 C   0  0  0  0  0  0  0  0  0  0  0  0
  141.1440   69.9450  227.3130 C   0  0  0  0  0  0  0  0  0  0  0  0
  140.7370   70.9080  226.4370 C   0  0  0  0  0  0  0  0  0  0  0  0
  139.9010   70.5320  225.4060 C   0  0  0  0  0  0  0  0  0  0  0  0
  139.3950   71.5110  224.3880 C   0  0  0  0  0  0  0  0  0  0  0  0
  140.9790   70.8400  221.0840 N   0  0  0  0  0  0  0  0  0  0  0  0
  145.8660   71.8510  220.8820 H   0  0  0  0  0  0  0  0  0  0  0  0
  145.8450   72.8160  219.3200 H   0  0  0  0  0  0  0  0  0  0  0  0
  144.9800   70.7721  217.1404 H   0  0  0  0  0  0  0  0  0  0  0  0
  144.2281   69.5039  218.1391 H   0  0  0  0  0  0  0  0  0  0  0  0
  143.9336   72.1619  219.3296 H   0  0  0  0  0  0  0  0  0  0  0  0
  143.2484   72.0557  217.6425 H   0  0  0  0  0  0  0  0  0  0  0  0
  141.9920   69.9300  218.6690 H   0  0  0  0  0  0  0  0  0  0  0  0
  139.4577   76.1587  221.2749 H   0  0  0  0  0  0  0  0  0  0  0  0
  139.6110   75.0223  222.6191 H   0  0  0  0  0  0  0  0  0  0  0  0
  140.3324   77.2325  223.4507 H   0  0  0  0  0  0  0  0  0  0  0  0
  141.8132   76.2726  223.2700 H   0  0  0  0  0  0  0  0  0  0  0  0
  140.9643   79.6977  220.0360 H   0  0  0  0  0  0  0  0  0  0  0  0
  141.1339   82.1068  220.5168 H   0  0  0  0  0  0  0  0  0  0  0  0
  141.8148   82.9129  222.7774 H   0  0  0  0  0  0  0  0  0  0  0  0
  142.3217   81.2154  224.5335 H   0  0  0  0  0  0  0  0  0  0  0  0
  142.1525   78.8053  224.0369 H   0  0  0  0  0  0  0  0  0  0  0  0
  141.0306   77.3207  219.7350 H   0  0  0  0  0  0  0  0  0  0  0  0
  142.7700   77.6845  220.1455 H   0  0  0  0  0  0  0  0  0  0  0  0
  142.2401   75.3010  219.4490 H   0  0  0  0  0  0  0  0  0  0  0  0
  143.1299   75.5425  221.0087 H   0  0  0  0  0  0  0  0  0  0  0  0
  138.3165   69.5605  222.1040 H   0  0  0  0  0  0  0  0  0  0  0  0
  139.9446   68.8827  222.4630 H   0  0  0  0  0  0  0  0  0  0  0  0
  137.6004   69.3291  224.3405 H   0  0  0  0  0  0  0  0  0  0  0  0
  138.5372   67.8168  224.0056 H   0  0  0  0  0  0  0  0  0  0  0  0
  139.5946   67.2091  226.0680 H   0  0  0  0  0  0  0  0  0  0  0  0
  141.1228   67.8694  227.9548 H   0  0  0  0  0  0  0  0  0  0  0  0
  141.8095   70.2424  228.1368 H   0  0  0  0  0  0  0  0  0  0  0  0
  141.0651   71.9519  226.5491 H   0  0  0  0  0  0  0  0  0  0  0  0
  138.3226   71.7065  224.5350 H   0  0  0  0  0  0  0  0  0  0  0  0
  139.8980   72.4868  224.4575 H   0  0  0  0  0  0  0  0  0  0  0  0
  1  2  1  0
  2  3  2  0
  2  4  1  0
  4  5  1  0
  5  6  1  0
  6  7  1  0
  7  8  2  0
  8  9  1  0
  9 10  1  0
 10 11  1  0
 11 12  1  0
 12 13  1  0
 13 14  1  0
 14 15  2  0
 15 16  1  0
 16 17  2  0
 17 18  1  0
 18 19  2  0
 13 20  1  0
 20 21  1  0
  9 22  2  0
 22 23  1  0
 23 24  1  0
 24 25  1  0
 25 26  1  0
 26 27  1  0
 27 28  2  0
 28 29  1  0
 29 30  2  0
 30 31  1  0
 31 32  2  0
 32 33  1  0
 23 34  2  0
 34  7  1  0
 21 10  1  0
 33 24  1  0
 19 14  1  0
 32 27  1  0
  1 35  1  0
  1 36  1  0
  4 37  1  0
  4 38  1  0
  5 39  1  0
  5 40  1  0
  6 41  1  0
 11 42  1  0
 11 43  1  0
 12 44  1  0
 12 45  1  0
 15 46  1  0
 16 47  1  0
 17 48  1  0
 18 49  1  0
 19 50  1  0
 20 51  1  0
 20 52  1  0
 21 53  1  0
 21 54  1  0
 25 55  1  0
 25 56  1  0
 26 57  1  0
 26 58  1  0
 28 59  1  0
 29 60  1  0
 30 61  1  0
 31 62  1  0
 33 63  1  0
 33 64  1  0
M  END
>  <smiles>  (19) 
NC(=O)CCNc1nc(N2CCN(c3ccccc3)CC2)nc(N2CCc3ccccc3C2)n1

>  <score_type>  (19) 
oracle

>  <origin>  (19) 
autodockgpu

>  <m_score__min__energy>  (19) 
-9.3900000000000006

>  <m_primary>  (19) 
energy

>  <rmsd>  (19) 
8.6561410476755

>  <m_score__min__rmsd>  (19) 
8.6561410476755

>  <meeko>  (19) 
{"free_energy": -8.38, "intermolecular_energy": -10.47, "internal_energy": -0.88, "cluster_size": 38, "cluster_id": 1, "rank_in_cluster": 27}

>  <energy>  (19) 
-8.77

>  <cluster_rmsd>  (19) 
0.79

>  <cluster>  (19) 
1

$$$$

     RDKit          3D

 64 68  0  0  0  0  0  0  0  0999 V2000
  144.6480   67.0730  218.4590 N   0  0  0  0  0  0  0  0  0  0  0  0
  144.6290   68.0700  219.4620 C   0  0  0  0  0  0  0  0  0  0  0  0
  145.6720   68.3170  220.0820 O   0  0  0  0  0  0  0  0  0  0  0  0
  143.3360   68.7670  219.7060 C   0  0  0  0  0  0  0  0  0  0  0  0
  143.6550   70.1820  220.0820 C   0  0  0  0  0  0  0  0  0  0  0  0
  142.6970   71.1510  219.5370 N   0  0  0  0  0  0  0  0  0  0  0  0
  141.9470   71.8820  220.5130 C   0  0  0  0  0  0  0  0  0  0  0  0
  141.9460   73.2170  220.4360 N   0  0  0  0  0  0  0  0  0  0  0  0
  141.2360   73.9280  221.3560 C   0  0  0  0  0  0  0  0  0  0  0  0
  141.2360   75.3340  221.2740 N   0  0  0  0  0  0  0  0  0  0  0  0
  140.2710   76.0880  222.0500 C   0  0  0  0  0  0  0  0  0  0  0  0
  141.0620   77.2310  222.6820 C   0  0  0  0  0  0  0  0  0  0  0  0
  141.4240   78.1240  221.5990 N   0  0  0  0  0  0  0  0  0  0  0  0
  141.4620   79.5250  221.7570 C   0  0  0  0  0  0  0  0  0  0  0  0
  141.2030   80.3950  220.7100 C   0  0  0  0  0  0  0  0  0  0  0  0
  141.2460   81.7740  220.8710 C   0  0  0  0  0  0  0  0  0  0  0  0
  141.5510   82.3400  222.0960 C   0  0  0  0  0  0  0  0  0  0  0  0
  141.8100   81.4840  223.1470 C   0  0  0  0  0  0  0  0  0  0  0  0
  141.7640   80.1030  222.9710 C   0  0  0  0  0  0  0  0  0  0  0  0
  141.7570   77.5200  220.3300 C   0  0  0  0  0  0  0  0  0  0  0  0
  142.1540   76.0630  220.4500 C   0  0  0  0  0  0  0  0  0  0  0  0
  140.5420   73.2910  222.3350 N   0  0  0  0  0  0  0  0  0  0  0  0
  140.5470   71.9410  222.4050 C   0  0  0  0  0  0  0  0  0  0  0  0
  139.8080   71.3340  223.4420 N   0  0  0  0  0  0  0  0  0  0  0  0
  138.6450   70.5390  223.0900 C   0  0  0  0  0  0  0  0  0  0  0  0
  138.1420   69.7910  224.3110 C   0  0  0  0  0  0  0  0  0  0  0  0
  139.2670   69.2240  225.0980 C   0  0  0  0  0  0  0  0  0  0  0  0
  139.3080   67.9280  225.5480 C   0  0  0  0  0  0  0  0  0  0  0  0
  140.4060   67.4740  226.2830 C   0  0  0  0  0  0  0  0  0  0  0  0
  141.4270   68.3800  226.5270 C   0  0  0  0  0  0  0  0  0  0  0  0
  141.4150   69.6730  226.0930 C   0  0  0  0  0  0  0  0  0  0  0  0
  140.3220   70.1020  225.3690 C   0  0  0  0  0  0  0  0  0  0  0  0
  140.2090   71.5030  224.8440 C   0  0  0  0  0  0  0  0  0  0  0  0
  141.2500   71.2390  221.4950 N   0  0  0  0  0  0  0  0  0  0  0  0
  145.3930   67.1600  217.7180 H   0  0  0  0  0  0  0  0  0  0  0  0
  143.9550   66.2890  218.4550 H   0  0  0  0  0  0  0  0  0  0  0  0
  142.7213   68.7496  218.7940 H   0  0  0  0  0  0  0  0  0  0  0  0
  142.7713   68.2694  220.5081 H   0  0  0  0  0  0  0  0  0  0  0  0
  143.6493   70.2628  221.1790 H   0  0  0  0  0  0  0  0  0  0  0  0
  144.6413   70.4205  219.6573 H   0  0  0  0  0  0  0  0  0  0  0  0
  142.5750   71.2900  218.5080 H   0  0  0  0  0  0  0  0  0  0  0  0
  139.4778   76.4833  221.3984 H   0  0  0  0  0  0  0  0  0  0  0  0
  139.7789   75.4626  222.8094 H   0  0  0  0  0  0  0  0  0  0  0  0
  140.4421   77.7602  223.4207 H   0  0  0  0  0  0  0  0  0  0  0  0
  141.9537   76.8574  223.2067 H   0  0  0  0  0  0  0  0  0  0  0  0
  140.9558   79.9810  219.7213 H   0  0  0  0  0  0  0  0  0  0  0  0
  141.0342   82.4263  220.0110 H   0  0  0  0  0  0  0  0  0  0  0  0
  141.5857   83.4316  222.2273 H   0  0  0  0  0  0  0  0  0  0  0  0
  142.0559   81.8975  224.1362 H   0  0  0  0  0  0  0  0  0  0  0  0
  141.9762   79.4510  223.8311 H   0  0  0  0  0  0  0  0  0  0  0  0
  140.8811   77.5906  219.6683 H   0  0  0  0  0  0  0  0  0  0  0  0
  142.6239   78.0634  219.9261 H   0  0  0  0  0  0  0  0  0  0  0  0
  142.1684   75.6128  219.4465 H   0  0  0  0  0  0  0  0  0  0  0  0
  143.1493   76.0141  220.9159 H   0  0  0  0  0  0  0  0  0  0  0  0
  137.8506   71.2010  222.7149 H   0  0  0  0  0  0  0  0  0  0  0  0
  138.9239   69.8144  222.3108 H   0  0  0  0  0  0  0  0  0  0  0  0
  137.5735   70.4851  224.9474 H   0  0  0  0  0  0  0  0  0  0  0  0
  137.5033   68.9622  223.9717 H   0  0  0  0  0  0  0  0  0  0  0  0
  138.4740   67.2449  225.3294 H   0  0  0  0  0  0  0  0  0  0  0  0
  140.4585   66.4395  226.6532 H   0  0  0  0  0  0  0  0  0  0  0  0
  142.2977   68.0357  227.1044 H   0  0  0  0  0  0  0  0  0  0  0  0
  142.2512   70.3528  226.3136 H   0  0  0  0  0  0  0  0  0  0  0  0
  139.4475   72.0678  225.4017 H   0  0  0  0  0  0  0  0  0  0  0  0
  141.1475   72.0674  224.9475 H   0  0  0  0  0  0  0  0  0  0  0  0
  1  2  1  0
  2  3  2  0
  2  4  1  0
  4  5  1  0
  5  6  1  0
  6  7  1  0
  7  8  2  0
  8  9  1  0
  9 10  1  0
 10 11  1  0
 11 12  1  0
 12 13  1  0
 13 14  1  0
 14 15  2  0
 15 16  1  0
 16 17  2  0
 17 18  1  0
 18 19  2  0
 13 20  1  0
 20 21  1  0
  9 22  2  0
 22 23  1  0
 23 24  1  0
 24 25  1  0
 25 26  1  0
 26 27  1  0
 27 28  2  0
 28 29  1  0
 29 30  2  0
 30 31  1  0
 31 32  2  0
 32 33  1  0
 23 34  2  0
 34  7  1  0
 21 10  1  0
 33 24  1  0
 19 14  1  0
 32 27  1  0
  1 35  1  0
  1 36  1  0
  4 37  1  0
  4 38  1  0
  5 39  1  0
  5 40  1  0
  6 41  1  0
 11 42  1  0
 11 43  1  0
 12 44  1  0
 12 45  1  0
 15 46  1  0
 16 47  1  0
 17 48  1  0
 18 49  1  0
 19 50  1  0
 20 51  1  0
 20 52  1  0
 21 53  1  0
 21 54  1  0
 25 55  1  0
 25 56  1  0
 26 57  1  0
 26 58  1  0
 28 59  1  0
 29 60  1  0
 30 61  1  0
 31 62  1  0
 33 63  1  0
 33 64  1  0
M  END
>  <smiles>  (20) 
NC(=O)CCNc1nc(N2CCN(c3ccccc3)CC2)nc(N2CCc3ccccc3C2)n1

>  <score_type>  (20) 
oracle

>  <origin>  (20) 
autodockgpu

>  <m_score__min__energy>  (20) 
-9.3900000000000006

>  <m_primary>  (20) 
energy

>  <rmsd>  (20) 
9.010060627967214

>  <m_score__min__rmsd>  (20) 
9.010060627967214

>  <meeko>  (20) 
{"free_energy": -8.85, "intermolecular_energy": -10.94, "internal_energy": -0.89, "cluster_size": 38, "cluster_id": 1, "rank_in_cluster": 15}

>  <energy>  (20) 
-8.66

>  <cluster_rmsd>  (20) 
1.81

>  <cluster>  (20) 
1

$$$$

     RDKit          3D

 64 68  0  0  0  0  0  0  0  0999 V2000
  146.3880   73.5960  220.1110 N   0  0  0  0  0  0  0  0  0  0  0  0
  145.0220   73.2310  220.1230 C   0  0  0  0  0  0  0  0  0  0  0  0
  144.1750   74.0890  220.4030 O   0  0  0  0  0  0  0  0  0  0  0  0
  144.6920   71.8180  219.7930 C   0  0  0  0  0  0  0  0  0  0  0  0
  143.4630   71.8340  218.9360 C   0  0  0  0  0  0  0  0  0  0  0  0
  142.3190   71.1580  219.5590 N   0  0  0  0  0  0  0  0  0  0  0  0
  141.6440   71.9100  220.5730 C   0  0  0  0  0  0  0  0  0  0  0  0
  141.6480   73.2440  220.4780 N   0  0  0  0  0  0  0  0  0  0  0  0
  141.0080   73.9730  221.4340 C   0  0  0  0  0  0  0  0  0  0  0  0
  141.0140   75.3780  221.3310 N   0  0  0  0  0  0  0  0  0  0  0  0
  140.1610   76.1540  222.2100 C   0  0  0  0  0  0  0  0  0  0  0  0
  141.0370   77.2950  222.7220 C   0  0  0  0  0  0  0  0  0  0  0  0
  141.2720   78.1700  221.5890 N   0  0  0  0  0  0  0  0  0  0  0  0
  141.3440   79.5710  221.7210 C   0  0  0  0  0  0  0  0  0  0  0  0
  141.6940   80.1860  222.9110 C   0  0  0  0  0  0  0  0  0  0  0  0
  141.7590   81.5680  223.0350 C   0  0  0  0  0  0  0  0  0  0  0  0
  141.4750   82.3950  221.9640 C   0  0  0  0  0  0  0  0  0  0  0  0
  141.1250   81.7950  220.7710 C   0  0  0  0  0  0  0  0  0  0  0  0
  141.0630   80.4080  220.6610 C   0  0  0  0  0  0  0  0  0  0  0  0
  141.4370   77.5450  220.2980 C   0  0  0  0  0  0  0  0  0  0  0  0
  141.8300   76.0840  220.3890 C   0  0  0  0  0  0  0  0  0  0  0  0
  140.3780   73.3560  222.4660 N   0  0  0  0  0  0  0  0  0  0  0  0
  140.3780   72.0070  222.5560 C   0  0  0  0  0  0  0  0  0  0  0  0
  139.7060   71.4210  223.6490 N   0  0  0  0  0  0  0  0  0  0  0  0
  138.4750   70.6950  223.3980 C   0  0  0  0  0  0  0  0  0  0  0  0
  138.0480   69.9520  224.6510 C   0  0  0  0  0  0  0  0  0  0  0  0
  139.2090   69.3120  225.3210 C   0  0  0  0  0  0  0  0  0  0  0  0
  139.2220   68.0080  225.7480 C   0  0  0  0  0  0  0  0  0  0  0  0
  140.3580   67.4840  226.3700 C   0  0  0  0  0  0  0  0  0  0  0  0
  141.4440   68.3300  226.5290 C   0  0  0  0  0  0  0  0  0  0  0  0
  141.4620   69.6300  226.1150 C   0  0  0  0  0  0  0  0  0  0  0  0
  140.3310   70.1280  225.5030 C   0  0  0  0  0  0  0  0  0  0  0  0
  140.2450   71.5430  225.0100 C   0  0  0  0  0  0  0  0  0  0  0  0
  141.0110   71.2870  221.6100 N   0  0  0  0  0  0  0  0  0  0  0  0
  146.6480   74.4380  219.5310 H   0  0  0  0  0  0  0  0  0  0  0  0
  147.1040   73.0570  220.6510 H   0  0  0  0  0  0  0  0  0  0  0  0
  145.5262   71.3549  219.2456 H   0  0  0  0  0  0  0  0  0  0  0  0
  144.5191   71.2350  220.7096 H   0  0  0  0  0  0  0  0  0  0  0  0
  143.1868   72.8804  218.7392 H   0  0  0  0  0  0  0  0  0  0  0  0
  143.7013   71.2903  218.0099 H   0  0  0  0  0  0  0  0  0  0  0  0
  142.0250   70.1950  219.2780 H   0  0  0  0  0  0  0  0  0  0  0  0
  139.2972   76.5506  221.6564 H   0  0  0  0  0  0  0  0  0  0  0  0
  139.7602   75.5448  223.0336 H   0  0  0  0  0  0  0  0  0  0  0  0
  140.5195   77.8416  223.5241 H   0  0  0  0  0  0  0  0  0  0  0  0
  141.9828   76.9167  223.1371 H   0  0  0  0  0  0  0  0  0  0  0  0
  141.9279   79.5609  223.7854 H   0  0  0  0  0  0  0  0  0  0  0  0
  142.0411   82.0118  224.0012 H   0  0  0  0  0  0  0  0  0  0  0  0
  141.5260   83.4897  222.0589 H   0  0  0  0  0  0  0  0  0  0  0  0
  140.8922   82.4202  219.8964 H   0  0  0  0  0  0  0  0  0  0  0  0
  140.7801   79.9644  219.6950 H   0  0  0  0  0  0  0  0  0  0  0  0
  140.4861   77.6180  219.7499 H   0  0  0  0  0  0  0  0  0  0  0  0
  142.2526   78.0718  219.7811 H   0  0  0  0  0  0  0  0  0  0  0  0
  141.7144   75.6205  219.3982 H   0  0  0  0  0  0  0  0  0  0  0  0
  142.8749   76.0284  220.7282 H   0  0  0  0  0  0  0  0  0  0  0  0
  137.6859   71.4044  223.1080 H   0  0  0  0  0  0  0  0  0  0  0  0
  138.6409   69.9709  222.5867 H   0  0  0  0  0  0  0  0  0  0  0  0
  137.5798   70.6633  225.3473 H   0  0  0  0  0  0  0  0  0  0  0  0
  137.3364   69.1645  224.3622 H   0  0  0  0  0  0  0  0  0  0  0  0
  138.3357   67.3735  225.6002 H   0  0  0  0  0  0  0  0  0  0  0  0
  140.3891   66.4415  226.7195 H   0  0  0  0  0  0  0  0  0  0  0  0
  142.3446   67.9299  227.0178 H   0  0  0  0  0  0  0  0  0  0  0  0
  142.3506   70.2609  226.2647 H   0  0  0  0  0  0  0  0  0  0  0  0
  139.5703   72.1364  225.6446 H   0  0  0  0  0  0  0  0  0  0  0  0
  141.2180   72.0557  225.0323 H   0  0  0  0  0  0  0  0  0  0  0  0
  1  2  1  0
  2  3  2  0
  2  4  1  0
  4  5  1  0
  5  6  1  0
  6  7  1  0
  7  8  2  0
  8  9  1  0
  9 10  1  0
 10 11  1  0
 11 12  1  0
 12 13  1  0
 13 14  1  0
 14 15  2  0
 15 16  1  0
 16 17  2  0
 17 18  1  0
 18 19  2  0
 13 20  1  0
 20 21  1  0
  9 22  2  0
 22 23  1  0
 23 24  1  0
 24 25  1  0
 25 26  1  0
 26 27  1  0
 27 28  2  0
 28 29  1  0
 29 30  2  0
 30 31  1  0
 31 32  2  0
 32 33  1  0
 23 34  2  0
 34  7  1  0
 21 10  1  0
 33 24  1  0
 19 14  1  0
 32 27  1  0
  1 35  1  0
  1 36  1  0
  4 37  1  0
  4 38  1  0
  5 39  1  0
  5 40  1  0
  6 41  1  0
 11 42  1  0
 11 43  1  0
 12 44  1  0
 12 45  1  0
 15 46  1  0
 16 47  1  0
 17 48  1  0
 18 49  1  0
 19 50  1  0
 20 51  1  0
 20 52  1  0
 21 53  1  0
 21 54  1  0
 25 55  1  0
 25 56  1  0
 26 57  1  0
 26 58  1  0
 28 59  1  0
 29 60  1  0
 30 61  1  0
 31 62  1  0
 33 63  1  0
 33 64  1  0
M  END
>  <smiles>  (21) 
NC(=O)CCNc1nc(N2CCN(c3ccccc3)CC2)nc(N2CCc3ccccc3C2)n1

>  <score_type>  (21) 
oracle

>  <origin>  (21) 
autodockgpu

>  <m_score__min__energy>  (21) 
-9.3900000000000006

>  <m_primary>  (21) 
energy

>  <rmsd>  (21) 
9.203672868991063

>  <m_score__min__rmsd>  (21) 
9.203672868991063

>  <meeko>  (21) 
{"free_energy": -8.95, "intermolecular_energy": -11.03, "internal_energy": -1.14, "cluster_size": 38, "cluster_id": 1, "rank_in_cluster": 12}

>  <energy>  (21) 
-8.57

>  <cluster_rmsd>  (21) 
1.02

>  <cluster>  (21) 
1

$$$$

     RDKit          3D

 64 68  0  0  0  0  0  0  0  0999 V2000
  144.0310   73.3880  218.7590 N   0  0  0  0  0  0  0  0  0  0  0  0
  144.8490   72.2520  218.9580 C   0  0  0  0  0  0  0  0  0  0  0  0
  145.9430   72.1920  218.3820 O   0  0  0  0  0  0  0  0  0  0  0  0
  144.3300   71.1900  219.8630 C   0  0  0  0  0  0  0  0  0  0  0  0
  143.3820   70.3470  219.0650 C   0  0  0  0  0  0  0  0  0  0  0  0
  142.1120   71.0220  218.7810 N   0  0  0  0  0  0  0  0  0  0  0  0
  141.5030   71.6740  219.9010 C   0  0  0  0  0  0  0  0  0  0  0  0
  141.5850   73.0060  219.9770 N   0  0  0  0  0  0  0  0  0  0  0  0
  141.0090   73.6400  221.0360 C   0  0  0  0  0  0  0  0  0  0  0  0
  141.0980   75.0450  221.1140 N   0  0  0  0  0  0  0  0  0  0  0  0
  140.1170   75.7710  221.8970 C   0  0  0  0  0  0  0  0  0  0  0  0
  140.9190   76.7840  222.7130 C   0  0  0  0  0  0  0  0  0  0  0  0
  141.4190   77.7640  221.7680 N   0  0  0  0  0  0  0  0  0  0  0  0
  141.5240   79.1330  222.0860 C   0  0  0  0  0  0  0  0  0  0  0  0
  142.1240   79.5780  223.2530 C   0  0  0  0  0  0  0  0  0  0  0  0
  142.2210   80.9290  223.5620 C   0  0  0  0  0  0  0  0  0  0  0  0
  141.7170   81.8940  222.7100 C   0  0  0  0  0  0  0  0  0  0  0  0
  141.1160   81.4640  221.5440 C   0  0  0  0  0  0  0  0  0  0  0  0
  141.0260   80.1070  221.2460 C   0  0  0  0  0  0  0  0  0  0  0  0
  141.8180   77.2810  220.4670 C   0  0  0  0  0  0  0  0  0  0  0  0
  142.1190   75.7960  220.4490 C   0  0  0  0  0  0  0  0  0  0  0  0
  140.3630   72.9320  221.9980 N   0  0  0  0  0  0  0  0  0  0  0  0
  140.2840   71.5850  221.9130 C   0  0  0  0  0  0  0  0  0  0  0  0
  139.6000   70.9010  222.9400 N   0  0  0  0  0  0  0  0  0  0  0  0
  139.2070   69.5230  222.7130 C   0  0  0  0  0  0  0  0  0  0  0  0
  138.7070   68.9080  224.0070 C   0  0  0  0  0  0  0  0  0  0  0  0
  139.5640   69.2970  225.1560 C   0  0  0  0  0  0  0  0  0  0  0  0
  140.0520   68.4080  226.0810 C   0  0  0  0  0  0  0  0  0  0  0  0
  140.8530   68.8580  227.1330 C   0  0  0  0  0  0  0  0  0  0  0  0
  141.1210   70.2170  227.1930 C   0  0  0  0  0  0  0  0  0  0  0  0
  140.6510   71.1240  226.2890 C   0  0  0  0  0  0  0  0  0  0  0  0
  139.8620   70.6600  225.2580 C   0  0  0  0  0  0  0  0  0  0  0  0
  139.2940   71.5720  224.2100 C   0  0  0  0  0  0  0  0  0  0  0  0
  140.8540   70.9580  220.8660 N   0  0  0  0  0  0  0  0  0  0  0  0
  144.4790   74.3290  218.9220 H   0  0  0  0  0  0  0  0  0  0  0  0
  143.0310   73.2970  218.4630 H   0  0  0  0  0  0  0  0  0  0  0  0
  145.1613   70.5727  220.2342 H   0  0  0  0  0  0  0  0  0  0  0  0
  143.8200   71.6335  220.7309 H   0  0  0  0  0  0  0  0  0  0  0  0
  143.8624   70.0885  218.1098 H   0  0  0  0  0  0  0  0  0  0  0  0
  143.1520   69.4542  219.6651 H   0  0  0  0  0  0  0  0  0  0  0  0
  141.6870   71.0230  217.8250 H   0  0  0  0  0  0  0  0  0  0  0  0
  139.4032   76.2865  221.2376 H   0  0  0  0  0  0  0  0  0  0  0  0
  139.5294   75.1001  222.5409 H   0  0  0  0  0  0  0  0  0  0  0  0
  140.2725   77.2695  223.4589 H   0  0  0  0  0  0  0  0  0  0  0  0
  141.7419   76.2972  223.2569 H   0  0  0  0  0  0  0  0  0  0  0  0
  142.5360   78.8392  223.9561 H   0  0  0  0  0  0  0  0  0  0  0  0
  142.7068   81.2359  224.5000 H   0  0  0  0  0  0  0  0  0  0  0  0
  141.7921   82.9644  222.9521 H   0  0  0  0  0  0  0  0  0  0  0  0
  140.7030   82.2028  220.8415 H   0  0  0  0  0  0  0  0  0  0  0  0
  140.5406   79.8009  220.3076 H   0  0  0  0  0  0  0  0  0  0  0  0
  141.0041   77.4815  219.7547 H   0  0  0  0  0  0  0  0  0  0  0  0
  142.7449   77.8061  220.1931 H   0  0  0  0  0  0  0  0  0  0  0  0
  142.1881   75.4581  219.4045 H   0  0  0  0  0  0  0  0  0  0  0  0
  143.0690   75.6303  220.9783 H   0  0  0  0  0  0  0  0  0  0  0  0
  138.4051   69.4918  221.9607 H   0  0  0  0  0  0  0  0  0  0  0  0
  140.0766   68.9532  222.3538 H   0  0  0  0  0  0  0  0  0  0  0  0
  137.6792   69.2526  224.1938 H   0  0  0  0  0  0  0  0  0  0  0  0
  138.7381   67.8131  223.9057 H   0  0  0  0  0  0  0  0  0  0  0  0
  139.8116   67.3382  225.9935 H   0  0  0  0  0  0  0  0  0  0  0  0
  141.2551   68.1620  227.8839 H   0  0  0  0  0  0  0  0  0  0  0  0
  141.7492   70.5852  228.0175 H   0  0  0  0  0  0  0  0  0  0  0  0
  140.8941   72.1930  226.3798 H   0  0  0  0  0  0  0  0  0  0  0  0
  138.2075   71.6848  224.3391 H   0  0  0  0  0  0  0  0  0  0  0  0
  139.7168   72.5862  224.2618 H   0  0  0  0  0  0  0  0  0  0  0  0
  1  2  1  0
  2  3  2  0
  2  4  1  0
  4  5  1  0
  5  6  1  0
  6  7  1  0
  7  8  2  0
  8  9  1  0
  9 10  1  0
 10 11  1  0
 11 12  1  0
 12 13  1  0
 13 14  1  0
 14 15  2  0
 15 16  1  0
 16 17  2  0
 17 18  1  0
 18 19  2  0
 13 20  1  0
 20 21  1  0
  9 22  2  0
 22 23  1  0
 23 24  1  0
 24 25  1  0
 25 26  1  0
 26 27  1  0
 27 28  2  0
 28 29  1  0
 29 30  2  0
 30 31  1  0
 31 32  2  0
 32 33  1  0
 23 34  2  0
 34  7  1  0
 21 10  1  0
 33 24  1  0
 19 14  1  0
 32 27  1  0
  1 35  1  0
  1 36  1  0
  4 37  1  0
  4 38  1  0
  5 39  1  0
  5 40  1  0
  6 41  1  0
 11 42  1  0
 11 43  1  0
 12 44  1  0
 12 45  1  0
 15 46  1  0
 16 47  1  0
 17 48  1  0
 18 49  1  0
 19 50  1  0
 20 51  1  0
 20 52  1  0
 21 53  1  0
 21 54  1  0
 25 55  1  0
 25 56  1  0
 26 57  1  0
 26 58  1  0
 28 59  1  0
 29 60  1  0
 30 61  1  0
 31 62  1  0
 33 63  1  0
 33 64  1  0
M  END
>  <smiles>  (22) 
NC(=O)CCNc1nc(N2CCN(c3ccccc3)CC2)nc(N2CCc3ccccc3C2)n1

>  <score_type>  (22) 
oracle

>  <origin>  (22) 
autodockgpu

>  <m_score__min__energy>  (22) 
-9.3900000000000006

>  <m_primary>  (22) 
energy

>  <rmsd>  (22) 
8.864274046132698

>  <m_score__min__rmsd>  (22) 
8.864274046132698

>  <meeko>  (22) 
{"free_energy": -8.24, "intermolecular_energy": -10.33, "internal_energy": -1.71, "cluster_size": 38, "cluster_id": 1, "rank_in_cluster": 29}

>  <energy>  (22) 
-8.56

>  <cluster_rmsd>  (22) 
1.06

>  <cluster>  (22) 
1

$$$$

     RDKit          3D

 64 68  0  0  0  0  0  0  0  0999 V2000
  135.0390   76.8070  224.0450 N   0  0  0  0  0  0  0  0  0  0  0  0
  135.1420   75.4250  223.7660 C   0  0  0  0  0  0  0  0  0  0  0  0
  135.4620   74.6510  224.6780 O   0  0  0  0  0  0  0  0  0  0  0  0
  134.8550   74.9890  222.3720 C   0  0  0  0  0  0  0  0  0  0  0  0
  136.1690   74.8610  221.6630 C   0  0  0  0  0  0  0  0  0  0  0  0
  137.2870   74.5830  222.5710 N   0  0  0  0  0  0  0  0  0  0  0  0
  138.5610   75.0740  222.1390 C   0  0  0  0  0  0  0  0  0  0  0  0
  139.5160   74.1830  221.8510 N   0  0  0  0  0  0  0  0  0  0  0  0
  140.7320   74.6350  221.4370 C   0  0  0  0  0  0  0  0  0  0  0  0
  141.7370   73.6950  221.1350 N   0  0  0  0  0  0  0  0  0  0  0  0
  141.5390   72.3070  221.5060 C   0  0  0  0  0  0  0  0  0  0  0  0
  141.9610   71.4960  220.2820 C   0  0  0  0  0  0  0  0  0  0  0  0
  143.4000   71.6350  220.1770 N   0  0  0  0  0  0  0  0  0  0  0  0
  144.2310   70.5800  219.7490 C   0  0  0  0  0  0  0  0  0  0  0  0
  145.5250   70.7910  219.3030 C   0  0  0  0  0  0  0  0  0  0  0  0
  146.3370   69.7460  218.8790 C   0  0  0  0  0  0  0  0  0  0  0  0
  145.8820   68.4410  218.8840 C   0  0  0  0  0  0  0  0  0  0  0  0
  144.5940   68.2170  219.3260 C   0  0  0  0  0  0  0  0  0  0  0  0
  143.7900   69.2730  219.7490 C   0  0  0  0  0  0  0  0  0  0  0  0
  143.9650   72.9170  220.5270 C   0  0  0  0  0  0  0  0  0  0  0  0
  142.9570   74.0470  220.4730 C   0  0  0  0  0  0  0  0  0  0  0  0
  140.9710   75.9670  221.3200 N   0  0  0  0  0  0  0  0  0  0  0  0
  140.0010   76.8610  221.6120 C   0  0  0  0  0  0  0  0  0  0  0  0
  140.3050   78.2310  221.4710 N   0  0  0  0  0  0  0  0  0  0  0  0
  139.2440   79.2010  221.6710 C   0  0  0  0  0  0  0  0  0  0  0  0
  139.8250   80.6020  221.7090 C   0  0  0  0  0  0  0  0  0  0  0  0
  141.0810   80.6450  222.5010 C   0  0  0  0  0  0  0  0  0  0  0  0
  141.3410   81.5800  223.4710 C   0  0  0  0  0  0  0  0  0  0  0  0
  142.5490   81.5480  224.1720 C   0  0  0  0  0  0  0  0  0  0  0  0
  143.4500   80.5460  223.8420 C   0  0  0  0  0  0  0  0  0  0  0  0
  143.2190   79.6030  222.8830 C   0  0  0  0  0  0  0  0  0  0  0  0
  142.0200   79.6520  222.2040 C   0  0  0  0  0  0  0  0  0  0  0  0
  141.6670   78.6630  221.1310 C   0  0  0  0  0  0  0  0  0  0  0  0
  138.7970   76.4140  222.0220 N   0  0  0  0  0  0  0  0  0  0  0  0
  134.4320   77.0820  224.8630 H   0  0  0  0  0  0  0  0  0  0  0  0
  135.5420   77.5220  223.4680 H   0  0  0  0  0  0  0  0  0  0  0  0
  134.3364   74.0190  222.3807 H   0  0  0  0  0  0  0  0  0  0  0  0
  134.2081   75.7182  221.8624 H   0  0  0  0  0  0  0  0  0  0  0  0
  136.0959   74.0391  220.9355 H   0  0  0  0  0  0  0  0  0  0  0  0
  136.3742   75.8252  221.1750 H   0  0  0  0  0  0  0  0  0  0  0  0
  137.1560   74.0610  223.4670 H   0  0  0  0  0  0  0  0  0  0  0  0
  142.1635   72.0476  222.3736 H   0  0  0  0  0  0  0  0  0  0  0  0
  140.4961   72.1045  221.7913 H   0  0  0  0  0  0  0  0  0  0  0  0
  141.6893   70.4383  220.4140 H   0  0  0  0  0  0  0  0  0  0  0  0
  141.4576   71.8549  219.3722 H   0  0  0  0  0  0  0  0  0  0  0  0
  145.9220   71.8167  219.2838 H   0  0  0  0  0  0  0  0  0  0  0  0
  147.3590   69.9611  218.5336 H   0  0  0  0  0  0  0  0  0  0  0  0
  146.5224   67.6120  218.5483 H   0  0  0  0  0  0  0  0  0  0  0  0
  144.1971   67.1913  219.3445 H   0  0  0  0  0  0  0  0  0  0  0  0
  142.7683   69.0572  220.0949 H   0  0  0  0  0  0  0  0  0  0  0  0
  144.3666   72.8550  221.5492 H   0  0  0  0  0  0  0  0  0  0  0  0
  144.7488   73.1419  219.7887 H   0  0  0  0  0  0  0  0  0  0  0  0
  143.3868   74.9329  220.9633 H   0  0  0  0  0  0  0  0  0  0  0  0
  142.7288   74.2553  219.4173 H   0  0  0  0  0  0  0  0  0  0  0  0
  138.5224   79.1278  220.8440 H   0  0  0  0  0  0  0  0  0  0  0  0
  138.7384   78.9928  222.6255 H   0  0  0  0  0  0  0  0  0  0  0  0
  140.0386   80.9292  220.6807 H   0  0  0  0  0  0  0  0  0  0  0  0
  139.0914   81.2689  222.1856 H   0  0  0  0  0  0  0  0  0  0  0  0
  140.5961   82.3571  223.6973 H   0  0  0  0  0  0  0  0  0  0  0  0
  142.7766   82.2874  224.9540 H   0  0  0  0  0  0  0  0  0  0  0  0
  144.4060   80.5095  224.3848 H   0  0  0  0  0  0  0  0  0  0  0  0
  143.9663   78.8277  222.6586 H   0  0  0  0  0  0  0  0  0  0  0  0
  141.6890   79.1390  220.1396 H   0  0  0  0  0  0  0  0  0  0  0  0
  142.3754   77.8228  221.0837 H   0  0  0  0  0  0  0  0  0  0  0  0
  1  2  1  0
  2  3  2  0
  2  4  1  0
  4  5  1  0
  5  6  1  0
  6  7  1  0
  7  8  2  0
  8  9  1  0
  9 10  1  0
 10 11  1  0
 11 12  1  0
 12 13  1  0
 13 14  1  0
 14 15  2  0
 15 16  1  0
 16 17  2  0
 17 18  1  0
 18 19  2  0
 13 20  1  0
 20 21  1  0
  9 22  2  0
 22 23  1  0
 23 24  1  0
 24 25  1  0
 25 26  1  0
 26 27  1  0
 27 28  2  0
 28 29  1  0
 29 30  2  0
 30 31  1  0
 31 32  2  0
 32 33  1  0
 23 34  2  0
 34  7  1  0
 21 10  1  0
 33 24  1  0
 19 14  1  0
 32 27  1  0
  1 35  1  0
  1 36  1  0
  4 37  1  0
  4 38  1  0
  5 39  1  0
  5 40  1  0
  6 41  1  0
 11 42  1  0
 11 43  1  0
 12 44  1  0
 12 45  1  0
 15 46  1  0
 16 47  1  0
 17 48  1  0
 18 49  1  0
 19 50  1  0
 20 51  1  0
 20 52  1  0
 21 53  1  0
 21 54  1  0
 25 55  1  0
 25 56  1  0
 26 57  1  0
 26 58  1  0
 28 59  1  0
 29 60  1  0
 30 61  1  0
 31 62  1  0
 33 63  1  0
 33 64  1  0
M  END
>  <smiles>  (23) 
NC(=O)CCNc1nc(N2CCN(c3ccccc3)CC2)nc(N2CCc3ccccc3C2)n1

>  <score_type>  (23) 
oracle

>  <origin>  (23) 
autodockgpu

>  <m_score__min__energy>  (23) 
-9.3900000000000006

>  <m_primary>  (23) 
energy

>  <rmsd>  (23) 
6.429425082943426

>  <m_score__min__rmsd>  (23) 
6.429425082943426

>  <meeko>  (23) 
{"free_energy": -7.15, "intermolecular_energy": -9.24, "internal_energy": -1.51, "cluster_size": 1, "cluster_id": 5, "rank_in_cluster": 1}

>  <energy>  (23) 
-8.53

>  <cluster_rmsd>  (23) 
1.57

>  <cluster>  (23) 
1

$$$$

     RDKit          3D

 64 68  0  0  0  0  0  0  0  0999 V2000
  136.3900   74.0050  220.6260 N   0  0  0  0  0  0  0  0  0  0  0  0
  135.9560   73.5340  219.3660 C   0  0  0  0  0  0  0  0  0  0  0  0
  135.0920   72.6480  219.3220 O   0  0  0  0  0  0  0  0  0  0  0  0
  136.5770   74.1460  218.1600 C   0  0  0  0  0  0  0  0  0  0  0  0
  137.5520   73.1510  217.6050 C   0  0  0  0  0  0  0  0  0  0  0  0
  138.9220   73.3610  218.0850 N   0  0  0  0  0  0  0  0  0  0  0  0
  139.0350   73.7750  219.4510 C   0  0  0  0  0  0  0  0  0  0  0  0
  139.1830   72.8310  220.3860 N   0  0  0  0  0  0  0  0  0  0  0  0
  139.2930   73.2090  221.6900 C   0  0  0  0  0  0  0  0  0  0  0  0
  139.4500   72.2110  222.6730 N   0  0  0  0  0  0  0  0  0  0  0  0
  140.7850   71.8590  223.1150 C   0  0  0  0  0  0  0  0  0  0  0  0
  140.7010   71.7870  224.6390 C   0  0  0  0  0  0  0  0  0  0  0  0
  139.9030   70.6170  224.9480 N   0  0  0  0  0  0  0  0  0  0  0  0
  140.1720   69.7930  226.0600 C   0  0  0  0  0  0  0  0  0  0  0  0
  139.9250   68.4300  226.0480 C   0  0  0  0  0  0  0  0  0  0  0  0
  140.1890   67.6240  227.1480 C   0  0  0  0  0  0  0  0  0  0  0  0
  140.7140   68.1550  228.3120 C   0  0  0  0  0  0  0  0  0  0  0  0
  140.9650   69.5120  228.3370 C   0  0  0  0  0  0  0  0  0  0  0  0
  140.6950   70.3080  227.2270 C   0  0  0  0  0  0  0  0  0  0  0  0
  138.7980   70.3220  224.0670 C   0  0  0  0  0  0  0  0  0  0  0  0
  138.3410   71.5210  223.2610 C   0  0  0  0  0  0  0  0  0  0  0  0
  139.2520   74.5210  222.0340 N   0  0  0  0  0  0  0  0  0  0  0  0
  139.1020   75.4700  221.0830 C   0  0  0  0  0  0  0  0  0  0  0  0
  139.0670   76.8180  221.4990 N   0  0  0  0  0  0  0  0  0  0  0  0
  138.2950   77.1600  222.6790 C   0  0  0  0  0  0  0  0  0  0  0  0
  138.5800   78.5940  223.0860 C   0  0  0  0  0  0  0  0  0  0  0  0
  140.0290   78.9060  222.9830 C   0  0  0  0  0  0  0  0  0  0  0  0
  140.7490   79.5270  223.9720 C   0  0  0  0  0  0  0  0  0  0  0  0
  142.1100   79.7840  223.7950 C   0  0  0  0  0  0  0  0  0  0  0  0
  142.6810   79.3880  222.5950 C   0  0  0  0  0  0  0  0  0  0  0  0
  141.9920   78.7690  221.5940 C   0  0  0  0  0  0  0  0  0  0  0  0
  140.6490   78.5250  221.7890 C   0  0  0  0  0  0  0  0  0  0  0  0
  139.7990   77.8490  220.7520 C   0  0  0  0  0  0  0  0  0  0  0  0
  138.9930   75.0960  219.7940 N   0  0  0  0  0  0  0  0  0  0  0  0
  135.6400   74.3200  221.2990 H   0  0  0  0  0  0  0  0  0  0  0  0
  137.4060   74.0400  220.8780 H   0  0  0  0  0  0  0  0  0  0  0  0
  135.8029   74.3717  217.4118 H   0  0  0  0  0  0  0  0  0  0  0  0
  137.0860   75.0860  218.4194 H   0  0  0  0  0  0  0  0  0  0  0  0
  137.2284   72.1417  217.8993 H   0  0  0  0  0  0  0  0  0  0  0  0
  137.5637   73.2765  216.5122 H   0  0  0  0  0  0  0  0  0  0  0  0
  139.7530   73.2180  217.4660 H   0  0  0  0  0  0  0  0  0  0  0  0
  141.0840   70.8854  222.6995 H   0  0  0  0  0  0  0  0  0  0  0  0
  141.5337   72.5921  222.7804 H   0  0  0  0  0  0  0  0  0  0  0  0
  141.7074   71.6866  225.0716 H   0  0  0  0  0  0  0  0  0  0  0  0
  140.2516   72.6994  225.0580 H   0  0  0  0  0  0  0  0  0  0  0  0
  139.5070   67.9719  225.1395 H   0  0  0  0  0  0  0  0  0  0  0  0
  139.9771   66.5460  227.0924 H   0  0  0  0  0  0  0  0  0  0  0  0
  140.9237   67.5197  229.1852 H   0  0  0  0  0  0  0  0  0  0  0  0
  141.3835   69.9703  229.2452 H   0  0  0  0  0  0  0  0  0  0  0  0
  140.9065   71.3860  227.2832 H   0  0  0  0  0  0  0  0  0  0  0  0
  139.1085   69.5298  223.3698 H   0  0  0  0  0  0  0  0  0  0  0  0
  137.9520   70.0097  224.6968 H   0  0  0  0  0  0  0  0  0  0  0  0
  137.6680   71.1787  222.4611 H   0  0  0  0  0  0  0  0  0  0  0  0
  137.8221   72.2152  223.9384 H   0  0  0  0  0  0  0  0  0  0  0  0
  137.2231   77.0499  222.4579 H   0  0  0  0  0  0  0  0  0  0  0  0
  138.5761   76.4874  223.5028 H   0  0  0  0  0  0  0  0  0  0  0  0
  138.0195   79.2721  222.4257 H   0  0  0  0  0  0  0  0  0  0  0  0
  138.2697   78.7262  224.1330 H   0  0  0  0  0  0  0  0  0  0  0  0
  140.2524   79.8235  224.9077 H   0  0  0  0  0  0  0  0  0  0  0  0
  142.7050   80.2804  224.5757 H   0  0  0  0  0  0  0  0  0  0  0  0
  143.7523   79.5846  222.4415 H   0  0  0  0  0  0  0  0  0  0  0  0
  142.4922   78.4735  220.6599 H   0  0  0  0  0  0  0  0  0  0  0  0
  139.1024   78.5652  220.2918 H   0  0  0  0  0  0  0  0  0  0  0  0
  140.3952   77.4282  219.9289 H   0  0  0  0  0  0  0  0  0  0  0  0
  1  2  1  0
  2  3  2  0
  2  4  1  0
  4  5  1  0
  5  6  1  0
  6  7  1  0
  7  8  2  0
  8  9  1  0
  9 10  1  0
 10 11  1  0
 11 12  1  0
 12 13  1  0
 13 14  1  0
 14 15  2  0
 15 16  1  0
 16 17  2  0
 17 18  1  0
 18 19  2  0
 13 20  1  0
 20 21  1  0
  9 22  2  0
 22 23  1  0
 23 24  1  0
 24 25  1  0
 25 26  1  0
 26 27  1  0
 27 28  2  0
 28 29  1  0
 29 30  2  0
 30 31  1  0
 31 32  2  0
 32 33  1  0
 23 34  2  0
 34  7  1  0
 21 10  1  0
 33 24  1  0
 19 14  1  0
 32 27  1  0
  1 35  1  0
  1 36  1  0
  4 37  1  0
  4 38  1  0
  5 39  1  0
  5 40  1  0
  6 41  1  0
 11 42  1  0
 11 43  1  0
 12 44  1  0
 12 45  1  0
 15 46  1  0
 16 47  1  0
 17 48  1  0
 18 49  1  0
 19 50  1  0
 20 51  1  0
 20 52  1  0
 21 53  1  0
 21 54  1  0
 25 55  1  0
 25 56  1  0
 26 57  1  0
 26 58  1  0
 28 59  1  0
 29 60  1  0
 30 61  1  0
 31 62  1  0
 33 63  1  0
 33 64  1  0
M  END
>  <smiles>  (24) 
NC(=O)CCNc1nc(N2CCN(c3ccccc3)CC2)nc(N2CCc3ccccc3C2)n1

>  <score_type>  (24) 
oracle

>  <origin>  (24) 
autodockgpu

>  <m_score__min__energy>  (24) 
-9.3900000000000006

>  <m_primary>  (24) 
energy

>  <rmsd>  (24) 
5.206821220768022

>  <m_score__min__rmsd>  (24) 
5.206821220768022

>  <meeko>  (24) 
{"free_energy": -6.67, "intermolecular_energy": -8.76, "internal_energy": -2.64, "cluster_size": 2, "cluster_id": 7, "rank_in_cluster": 1}

>  <energy>  (24) 
-8.51

>  <cluster_rmsd>  (24) 
1.03

>  <cluster>  (24) 
1

$$$$

     RDKit          3D

 64 68  0  0  0  0  0  0  0  0999 V2000
  146.2080   68.7340  218.1170 N   0  0  0  0  0  0  0  0  0  0  0  0
  145.1510   68.6380  219.0520 C   0  0  0  0  0  0  0  0  0  0  0  0
  145.3960   68.2270  220.1930 O   0  0  0  0  0  0  0  0  0  0  0  0
  143.7960   69.0460  218.5910 C   0  0  0  0  0  0  0  0  0  0  0  0
  143.1470   69.7940  219.7160 C   0  0  0  0  0  0  0  0  0  0  0  0
  142.4640   71.0150  219.2750 N   0  0  0  0  0  0  0  0  0  0  0  0
  141.7630   71.7260  220.3010 C   0  0  0  0  0  0  0  0  0  0  0  0
  141.8020   73.0630  220.2810 N   0  0  0  0  0  0  0  0  0  0  0  0
  141.1390   73.7540  221.2500 C   0  0  0  0  0  0  0  0  0  0  0  0
  141.1820   75.1620  221.2270 N   0  0  0  0  0  0  0  0  0  0  0  0
  140.2120   75.9110  222.0020 C   0  0  0  0  0  0  0  0  0  0  0  0
  141.0140   77.0030  222.7080 C   0  0  0  0  0  0  0  0  0  0  0  0
  141.4370   77.9290  221.6760 N   0  0  0  0  0  0  0  0  0  0  0  0
  141.5090   79.3200  221.8940 C   0  0  0  0  0  0  0  0  0  0  0  0
  141.7870   79.8610  223.1380 C   0  0  0  0  0  0  0  0  0  0  0  0
  141.8520   81.2330  223.3480 C   0  0  0  0  0  0  0  0  0  0  0  0
  141.6390   82.1230  222.3110 C   0  0  0  0  0  0  0  0  0  0  0  0
  141.3620   81.5980  221.0660 C   0  0  0  0  0  0  0  0  0  0  0  0
  141.2990   80.2200  220.8710 C   0  0  0  0  0  0  0  0  0  0  0  0
  141.7960   77.3690  220.3940 C   0  0  0  0  0  0  0  0  0  0  0  0
  142.1470   75.8970  220.4650 C   0  0  0  0  0  0  0  0  0  0  0  0
  140.4510   73.0970  222.2190 N   0  0  0  0  0  0  0  0  0  0  0  0
  140.4160   71.7460  222.2320 C   0  0  0  0  0  0  0  0  0  0  0  0
  139.6840   71.1170  223.2620 N   0  0  0  0  0  0  0  0  0  0  0  0
  138.6820   70.1320  222.8990 C   0  0  0  0  0  0  0  0  0  0  0  0
  138.1890   69.4150  224.1410 C   0  0  0  0  0  0  0  0  0  0  0  0
  139.3110   69.0860  225.0560 C   0  0  0  0  0  0  0  0  0  0  0  0
  139.4990   67.8500  225.6230 C   0  0  0  0  0  0  0  0  0  0  0  0
  140.5830   67.6250  226.4740 C   0  0  0  0  0  0  0  0  0  0  0  0
  141.4390   68.6900  226.7110 C   0  0  0  0  0  0  0  0  0  0  0  0
  141.2790   69.9290  226.1620 C   0  0  0  0  0  0  0  0  0  0  0  0
  140.2020   70.1310  225.3250 C   0  0  0  0  0  0  0  0  0  0  0  0
  139.9350   71.4540  224.6690 C   0  0  0  0  0  0  0  0  0  0  0  0
  141.0720   71.0630  221.2740 N   0  0  0  0  0  0  0  0  0  0  0  0
  147.0650   69.2680  218.4230 H   0  0  0  0  0  0  0  0  0  0  0  0
  146.1420   68.2960  217.1690 H   0  0  0  0  0  0  0  0  0  0  0  0
  143.8791   69.6947  217.7066 H   0  0  0  0  0  0  0  0  0  0  0  0
  143.1981   68.1652  218.3139 H   0  0  0  0  0  0  0  0  0  0  0  0
  142.4095   69.1340  220.1961 H   0  0  0  0  0  0  0  0  0  0  0  0
  143.9432   70.0961  220.4123 H   0  0  0  0  0  0  0  0  0  0  0  0
  142.4900   71.3360  218.2800 H   0  0  0  0  0  0  0  0  0  0  0  0
  139.4531   76.3565  221.3420 H   0  0  0  0  0  0  0  0  0  0  0  0
  139.6760   75.2696  222.7171 H   0  0  0  0  0  0  0  0  0  0  0  0
  140.3851   77.5191  223.4483 H   0  0  0  0  0  0  0  0  0  0  0  0
  141.8766   76.5816  223.2449 H   0  0  0  0  0  0  0  0  0  0  0  0
  141.9619   79.1833  223.9866 H   0  0  0  0  0  0  0  0  0  0  0  0
  142.0762   81.6170  224.3541 H   0  0  0  0  0  0  0  0  0  0  0  0
  141.6887   83.2098  222.4732 H   0  0  0  0  0  0  0  0  0  0  0  0
  141.1887   82.2755  220.2169 H   0  0  0  0  0  0  0  0  0  0  0  0
  141.0737   79.8364  219.8650 H   0  0  0  0  0  0  0  0  0  0  0  0
  140.9457   77.4933  219.7073 H   0  0  0  0  0  0  0  0  0  0  0  0
  142.6912   77.9028  220.0424 H   0  0  0  0  0  0  0  0  0  0  0  0
  142.1823   75.4886  219.4442 H   0  0  0  0  0  0  0  0  0  0  0  0
  143.1242   75.7993  220.9606 H   0  0  0  0  0  0  0  0  0  0  0  0
  137.8360   70.6360  222.4088 H   0  0  0  0  0  0  0  0  0  0  0  0
  139.1277   69.3989  222.2106 H   0  0  0  0  0  0  0  0  0  0  0  0
  137.4745   70.0635  224.6691 H   0  0  0  0  0  0  0  0  0  0  0  0
  137.7073   68.4759  223.8312 H   0  0  0  0  0  0  0  0  0  0  0  0
  138.7935   67.0343  225.4063 H   0  0  0  0  0  0  0  0  0  0  0  0
  140.7513   66.6419  226.9380 H   0  0  0  0  0  0  0  0  0  0  0  0
  142.2965   68.5266  227.3802 H   0  0  0  0  0  0  0  0  0  0  0  0
  141.9874   70.7416  226.3805 H   0  0  0  0  0  0  0  0  0  0  0  0
  139.0554   71.9402  225.1162 H   0  0  0  0  0  0  0  0  0  0  0  0
  140.7705   72.1593  224.7897 H   0  0  0  0  0  0  0  0  0  0  0  0
  1  2  1  0
  2  3  2  0
  2  4  1  0
  4  5  1  0
  5  6  1  0
  6  7  1  0
  7  8  2  0
  8  9  1  0
  9 10  1  0
 10 11  1  0
 11 12  1  0
 12 13  1  0
 13 14  1  0
 14 15  2  0
 15 16  1  0
 16 17  2  0
 17 18  1  0
 18 19  2  0
 13 20  1  0
 20 21  1  0
  9 22  2  0
 22 23  1  0
 23 24  1  0
 24 25  1  0
 25 26  1  0
 26 27  1  0
 27 28  2  0
 28 29  1  0
 29 30  2  0
 30 31  1  0
 31 32  2  0
 32 33  1  0
 23 34  2  0
 34  7  1  0
 21 10  1  0
 33 24  1  0
 19 14  1  0
 32 27  1  0
  1 35  1  0
  1 36  1  0
  4 37  1  0
  4 38  1  0
  5 39  1  0
  5 40  1  0
  6 41  1  0
 11 42  1  0
 11 43  1  0
 12 44  1  0
 12 45  1  0
 15 46  1  0
 16 47  1  0
 17 48  1  0
 18 49  1  0
 19 50  1  0
 20 51  1  0
 20 52  1  0
 21 53  1  0
 21 54  1  0
 25 55  1  0
 25 56  1  0
 26 57  1  0
 26 58  1  0
 28 59  1  0
 29 60  1  0
 30 61  1  0
 31 62  1  0
 33 63  1  0
 33 64  1  0
M  END
>  <smiles>  (25) 
NC(=O)CCNc1nc(N2CCN(c3ccccc3)CC2)nc(N2CCc3ccccc3C2)n1

>  <score_type>  (25) 
oracle

>  <origin>  (25) 
autodockgpu

>  <m_score__min__energy>  (25) 
-9.3900000000000006

>  <m_primary>  (25) 
energy

>  <rmsd>  (25) 
9.03566921376941

>  <m_score__min__rmsd>  (25) 
9.03566921376941

>  <meeko>  (25) 
{"free_energy": -8.99, "intermolecular_energy": -11.08, "internal_energy": -0.86, "cluster_size": 38, "cluster_id": 1, "rank_in_cluster": 8}

>  <energy>  (25) 
-8.46

>  <cluster_rmsd>  (25) 
0.72

>  <cluster>  (25) 
1

$$$$

     RDKit          3D

 64 68  0  0  0  0  0  0  0  0999 V2000
  144.5880   72.4260  221.0610 N   0  0  0  0  0  0  0  0  0  0  0  0
  145.2000   72.1980  219.8070 C   0  0  0  0  0  0  0  0  0  0  0  0
  146.2740   72.7590  219.5530 O   0  0  0  0  0  0  0  0  0  0  0  0
  144.5000   71.2840  218.8640 C   0  0  0  0  0  0  0  0  0  0  0  0
  143.4810   70.5210  219.6540 C   0  0  0  0  0  0  0  0  0  0  0  0
  142.1060   70.9640  219.3980 N   0  0  0  0  0  0  0  0  0  0  0  0
  141.5080   71.7360  220.4460 C   0  0  0  0  0  0  0  0  0  0  0  0
  141.5820   73.0690  220.3680 N   0  0  0  0  0  0  0  0  0  0  0  0
  141.0160   73.8170  221.3560 C   0  0  0  0  0  0  0  0  0  0  0  0
  141.0960   75.2220  221.2710 N   0  0  0  0  0  0  0  0  0  0  0  0
  140.1430   76.0280  222.0090 C   0  0  0  0  0  0  0  0  0  0  0  0
  140.9700   77.1290  222.6700 C   0  0  0  0  0  0  0  0  0  0  0  0
  141.4200   77.9980  221.6000 N   0  0  0  0  0  0  0  0  0  0  0  0
  141.5260   79.3950  221.7570 C   0  0  0  0  0  0  0  0  0  0  0  0
  141.3800   80.2730  220.6960 C   0  0  0  0  0  0  0  0  0  0  0  0
  141.4900   81.6490  220.8570 C   0  0  0  0  0  0  0  0  0  0  0  0
  141.7520   82.2030  222.0960 C   0  0  0  0  0  0  0  0  0  0  0  0
  141.9000   81.3400  223.1620 C   0  0  0  0  0  0  0  0  0  0  0  0
  141.7880   79.9630  222.9860 C   0  0  0  0  0  0  0  0  0  0  0  0
  141.7670   77.3730  220.3450 C   0  0  0  0  0  0  0  0  0  0  0  0
  142.0810   75.8970  220.4820 C   0  0  0  0  0  0  0  0  0  0  0  0
  140.3900   73.2200  222.4020 N   0  0  0  0  0  0  0  0  0  0  0  0
  140.3200   71.8720  222.4730 C   0  0  0  0  0  0  0  0  0  0  0  0
  139.6560   71.3060  223.5820 N   0  0  0  0  0  0  0  0  0  0  0  0
  138.4320   70.5600  223.3520 C   0  0  0  0  0  0  0  0  0  0  0  0
  138.0150   69.8450  224.6230 C   0  0  0  0  0  0  0  0  0  0  0  0
  139.1840   69.2350  225.3080 C   0  0  0  0  0  0  0  0  0  0  0  0
  139.2120   67.9430  225.7680 C   0  0  0  0  0  0  0  0  0  0  0  0
  140.3530   67.4470  226.4010 C   0  0  0  0  0  0  0  0  0  0  0  0
  141.4310   68.3080  226.5380 C   0  0  0  0  0  0  0  0  0  0  0  0
  141.4340   69.5970  226.0900 C   0  0  0  0  0  0  0  0  0  0  0  0
  140.2970   70.0680  225.4680 C   0  0  0  0  0  0  0  0  0  0  0  0
  140.1950   71.4690  224.9390 C   0  0  0  0  0  0  0  0  0  0  0  0
  140.8790   71.1320  221.4960 N   0  0  0  0  0  0  0  0  0  0  0  0
  145.1870   72.2720  221.9160 H   0  0  0  0  0  0  0  0  0  0  0  0
  143.5900   72.7330  221.1350 H   0  0  0  0  0  0  0  0  0  0  0  0
  144.0040   71.8667  218.0738 H   0  0  0  0  0  0  0  0  0  0  0  0
  145.2143   70.5978  218.3855 H   0  0  0  0  0  0  0  0  0  0  0  0
  143.5603   69.4557  219.3917 H   0  0  0  0  0  0  0  0  0  0  0  0
  143.6905   70.6991  220.7191 H   0  0  0  0  0  0  0  0  0  0  0  0
  141.6040   70.7290  218.5120 H   0  0  0  0  0  0  0  0  0  0  0  0
  139.3974   76.4632  221.3273 H   0  0  0  0  0  0  0  0  0  0  0  0
  139.5891   75.4318  222.7491 H   0  0  0  0  0  0  0  0  0  0  0  0
  140.3519   77.6929  223.3842 H   0  0  0  0  0  0  0  0  0  0  0  0
  141.8198   76.7099  223.2288 H   0  0  0  0  0  0  0  0  0  0  0  0
  141.1705   79.8687  219.6947 H   0  0  0  0  0  0  0  0  0  0  0  0
  141.3666   82.3077  219.9847 H   0  0  0  0  0  0  0  0  0  0  0  0
  141.8392   83.2917  222.2271 H   0  0  0  0  0  0  0  0  0  0  0  0
  142.1090   81.7444  224.1634 H   0  0  0  0  0  0  0  0  0  0  0  0
  141.9130   79.3049  223.8585 H   0  0  0  0  0  0  0  0  0  0  0  0
  140.9212   77.4879  219.6512 H   0  0  0  0  0  0  0  0  0  0  0  0
  142.6759   77.8682  219.9726 H   0  0  0  0  0  0  0  0  0  0  0  0
  142.1090   75.4431  219.4804 H   0  0  0  0  0  0  0  0  0  0  0  0
  143.0541   75.7965  220.9850 H   0  0  0  0  0  0  0  0  0  0  0  0
  137.6348   71.2532  223.0455 H   0  0  0  0  0  0  0  0  0  0  0  0
  138.6049   69.8171  222.5594 H   0  0  0  0  0  0  0  0  0  0  0  0
  137.5395   70.5685  225.3016 H   0  0  0  0  0  0  0  0  0  0  0  0
  137.3121   69.0424  224.3551 H   0  0  0  0  0  0  0  0  0  0  0  0
  138.3323   67.2956  225.6376 H   0  0  0  0  0  0  0  0  0  0  0  0
  140.3952   66.4139  226.7763 H   0  0  0  0  0  0  0  0  0  0  0  0
  142.3359   67.9304  227.0365 H   0  0  0  0  0  0  0  0  0  0  0  0
  142.3164   70.2406  226.2210 H   0  0  0  0  0  0  0  0  0  0  0  0
  139.5144   72.0711  225.5589 H   0  0  0  0  0  0  0  0  0  0  0  0
  141.1622   71.9928  224.9470 H   0  0  0  0  0  0  0  0  0  0  0  0
  1  2  1  0
  2  3  2  0
  2  4  1  0
  4  5  1  0
  5  6  1  0
  6  7  1  0
  7  8  2  0
  8  9  1  0
  9 10  1  0
 10 11  1  0
 11 12  1  0
 12 13  1  0
 13 14  1  0
 14 15  2  0
 15 16  1  0
 16 17  2  0
 17 18  1  0
 18 19  2  0
 13 20  1  0
 20 21  1  0
  9 22  2  0
 22 23  1  0
 23 24  1  0
 24 25  1  0
 25 26  1  0
 26 27  1  0
 27 28  2  0
 28 29  1  0
 29 30  2  0
 30 31  1  0
 31 32  2  0
 32 33  1  0
 23 34  2  0
 34  7  1  0
 21 10  1  0
 33 24  1  0
 19 14  1  0
 32 27  1  0
  1 35  1  0
  1 36  1  0
  4 37  1  0
  4 38  1  0
  5 39  1  0
  5 40  1  0
  6 41  1  0
 11 42  1  0
 11 43  1  0
 12 44  1  0
 12 45  1  0
 15 46  1  0
 16 47  1  0
 17 48  1  0
 18 49  1  0
 19 50  1  0
 20 51  1  0
 20 52  1  0
 21 53  1  0
 21 54  1  0
 25 55  1  0
 25 56  1  0
 26 57  1  0
 26 58  1  0
 28 59  1  0
 29 60  1  0
 30 61  1  0
 31 62  1  0
 33 63  1  0
 33 64  1  0
M  END
>  <smiles>  (26) 
NC(=O)CCNc1nc(N2CCN(c3ccccc3)CC2)nc(N2CCc3ccccc3C2)n1

>  <score_type>  (26) 
oracle

>  <origin>  (26) 
autodockgpu

>  <m_score__min__energy>  (26) 
-9.3900000000000006

>  <m_primary>  (26) 
energy

>  <rmsd>  (26) 
8.926752274096051

>  <m_score__min__rmsd>  (26) 
8.926752274096051

>  <meeko>  (26) 
{"free_energy": -9.32, "intermolecular_energy": -11.41, "internal_energy": -1.66, "cluster_size": 38, "cluster_id": 1, "rank_in_cluster": 2}

>  <energy>  (26) 
-8.41

>  <cluster_rmsd>  (26) 
1.39

>  <cluster>  (26) 
1

$$$$

     RDKit          3D

 64 68  0  0  0  0  0  0  0  0999 V2000
  144.7360   72.1840  220.6710 N   0  0  0  0  0  0  0  0  0  0  0  0
  145.3180   72.1590  219.3830 C   0  0  0  0  0  0  0  0  0  0  0  0
  146.3300   72.8390  219.1680 O   0  0  0  0  0  0  0  0  0  0  0  0
  144.6650   71.3010  218.3570 C   0  0  0  0  0  0  0  0  0  0  0  0
  143.2340   71.7360  218.2560 C   0  0  0  0  0  0  0  0  0  0  0  0
  142.3260   70.9150  219.0650 N   0  0  0  0  0  0  0  0  0  0  0  0
  141.6740   71.6020  220.1390 C   0  0  0  0  0  0  0  0  0  0  0  0
  141.7350   72.9380  220.1610 N   0  0  0  0  0  0  0  0  0  0  0  0
  141.1180   73.6060  221.1760 C   0  0  0  0  0  0  0  0  0  0  0  0
  141.1840   75.0140  221.1970 N   0  0  0  0  0  0  0  0  0  0  0  0
  140.2280   75.7530  221.9990 C   0  0  0  0  0  0  0  0  0  0  0  0
  141.0480   76.8090  222.7370 C   0  0  0  0  0  0  0  0  0  0  0  0
  141.4840   77.7610  221.7330 N   0  0  0  0  0  0  0  0  0  0  0  0
  141.5780   79.1430  221.9950 C   0  0  0  0  0  0  0  0  0  0  0  0
  141.3500   80.0990  221.0190 C   0  0  0  0  0  0  0  0  0  0  0  0
  141.4480   81.4590  221.2830 C   0  0  0  0  0  0  0  0  0  0  0  0
  141.7810   81.9190  222.5430 C   0  0  0  0  0  0  0  0  0  0  0  0
  142.0100   80.9780  223.5260 C   0  0  0  0  0  0  0  0  0  0  0  0
  141.9090   79.6170  223.2470 C   0  0  0  0  0  0  0  0  0  0  0  0
  141.8300   77.2360  220.4330 C   0  0  0  0  0  0  0  0  0  0  0  0
  142.1580   75.7570  220.4560 C   0  0  0  0  0  0  0  0  0  0  0  0
  140.4550   72.9280  222.1470 N   0  0  0  0  0  0  0  0  0  0  0  0
  140.3980   71.5780  222.1170 C   0  0  0  0  0  0  0  0  0  0  0  0
  139.6940   70.9270  223.1520 N   0  0  0  0  0  0  0  0  0  0  0  0
  139.0340   69.6690  222.8560 C   0  0  0  0  0  0  0  0  0  0  0  0
  138.5460   69.0260  224.1410 C   0  0  0  0  0  0  0  0  0  0  0  0
  139.5600   69.1410  225.2200 C   0  0  0  0  0  0  0  0  0  0  0  0
  139.9560   68.0920  226.0120 C   0  0  0  0  0  0  0  0  0  0  0  0
  140.9180   68.2860  227.0060 C   0  0  0  0  0  0  0  0  0  0  0  0
  141.4390   69.5630  227.1480 C   0  0  0  0  0  0  0  0  0  0  0  0
  141.0660   70.6250  226.3760 C   0  0  0  0  0  0  0  0  0  0  0  0
  140.1140   70.4120  225.4010 C   0  0  0  0  0  0  0  0  0  0  0  0
  139.6340   71.5110  224.4980 C   0  0  0  0  0  0  0  0  0  0  0  0
  141.0080   70.9170  221.1140 N   0  0  0  0  0  0  0  0  0  0  0  0
  145.3770   71.9860  221.4850 H   0  0  0  0  0  0  0  0  0  0  0  0
  143.7180   72.3900  220.8080 H   0  0  0  0  0  0  0  0  0  0  0  0
  145.1662   71.4278  217.3861 H   0  0  0  0  0  0  0  0  0  0  0  0
  144.7300   70.2397  218.6387 H   0  0  0  0  0  0  0  0  0  0  0  0
  143.1601   72.7794  218.5964 H   0  0  0  0  0  0  0  0  0  0  0  0
  142.9298   71.6241  217.2048 H   0  0  0  0  0  0  0  0  0  0  0  0
  142.1710   69.9000  218.8660 H   0  0  0  0  0  0  0  0  0  0  0  0
  139.4743   76.2311  221.3560 H   0  0  0  0  0  0  0  0  0  0  0  0
  139.6844   75.0972  222.6950 H   0  0  0  0  0  0  0  0  0  0  0  0
  140.4286   77.3113  223.4946 H   0  0  0  0  0  0  0  0  0  0  0  0
  141.9048   76.3574  223.2585 H   0  0  0  0  0  0  0  0  0  0  0  0
  141.0831   79.7710  220.0035 H   0  0  0  0  0  0  0  0  0  0  0  0
  141.2574   82.1819  220.4761 H   0  0  0  0  0  0  0  0  0  0  0  0
  141.8606   82.9955  222.7545 H   0  0  0  0  0  0  0  0  0  0  0  0
  142.2754   81.3065  224.5417 H   0  0  0  0  0  0  0  0  0  0  0  0
  142.1001   78.8945  224.0542 H   0  0  0  0  0  0  0  0  0  0  0  0
  140.9796   77.3952  219.7537 H   0  0  0  0  0  0  0  0  0  0  0  0
  142.7326   77.7664  220.0953 H   0  0  0  0  0  0  0  0  0  0  0  0
  142.1840   75.3807  219.4227 H   0  0  0  0  0  0  0  0  0  0  0  0
  143.1349   75.6282  220.9449 H   0  0  0  0  0  0  0  0  0  0  0  0
  138.1764   69.8545  222.1926 H   0  0  0  0  0  0  0  0  0  0  0  0
  139.7477   68.9935  222.3617 H   0  0  0  0  0  0  0  0  0  0  0  0
  137.6211   69.5265  224.4635 H   0  0  0  0  0  0  0  0  0  0  0  0
  138.3635   67.9586  223.9480 H   0  0  0  0  0  0  0  0  0  0  0  0
  139.5144   67.0956  225.8634 H   0  0  0  0  0  0  0  0  0  0  0  0
  141.2491   67.4584  227.6506 H   0  0  0  0  0  0  0  0  0  0  0  0
  142.1967   69.7299  227.9278 H   0  0  0  0  0  0  0  0  0  0  0  0
  141.5108   71.6197  226.5267 H   0  0  0  0  0  0  0  0  0  0  0  0
  138.6037   71.8013  224.7512 H   0  0  0  0  0  0  0  0  0  0  0  0
  140.2413   72.4238  224.5875 H   0  0  0  0  0  0  0  0  0  0  0  0
  1  2  1  0
  2  3  2  0
  2  4  1  0
  4  5  1  0
  5  6  1  0
  6  7  1  0
  7  8  2  0
  8  9  1  0
  9 10  1  0
 10 11  1  0
 11 12  1  0
 12 13  1  0
 13 14  1  0
 14 15  2  0
 15 16  1  0
 16 17  2  0
 17 18  1  0
 18 19  2  0
 13 20  1  0
 20 21  1  0
  9 22  2  0
 22 23  1  0
 23 24  1  0
 24 25  1  0
 25 26  1  0
 26 27  1  0
 27 28  2  0
 28 29  1  0
 29 30  2  0
 30 31  1  0
 31 32  2  0
 32 33  1  0
 23 34  2  0
 34  7  1  0
 21 10  1  0
 33 24  1  0
 19 14  1  0
 32 27  1  0
  1 35  1  0
  1 36  1  0
  4 37  1  0
  4 38  1  0
  5 39  1  0
  5 40  1  0
  6 41  1  0
 11 42  1  0
 11 43  1  0
 12 44  1  0
 12 45  1  0
 15 46  1  0
 16 47  1  0
 17 48  1  0
 18 49  1  0
 19 50  1  0
 20 51  1  0
 20 52  1  0
 21 53  1  0
 21 54  1  0
 25 55  1  0
 25 56  1  0
 26 57  1  0
 26 58  1  0
 28 59  1  0
 29 60  1  0
 30 61  1  0
 31 62  1  0
 33 63  1  0
 33 64  1  0
M  END
>  <smiles>  (27) 
NC(=O)CCNc1nc(N2CCN(c3ccccc3)CC2)nc(N2CCc3ccccc3C2)n1

>  <score_type>  (27) 
oracle

>  <origin>  (27) 
autodockgpu

>  <m_score__min__energy>  (27) 
-9.3900000000000006

>  <m_primary>  (27) 
energy

>  <rmsd>  (27) 
8.720822231102593

>  <m_score__min__rmsd>  (27) 
8.720822231102593

>  <meeko>  (27) 
{"free_energy": -8.77, "intermolecular_energy": -10.85, "internal_energy": -1.65, "cluster_size": 38, "cluster_id": 1, "rank_in_cluster": 19}

>  <energy>  (27) 
-8.38

>  <cluster_rmsd>  (27) 
1.08

>  <cluster>  (27) 
1

$$$$

     RDKit          3D

 64 68  0  0  0  0  0  0  0  0999 V2000
  144.3870   73.8030  219.4660 N   0  0  0  0  0  0  0  0  0  0  0  0
  144.8880   72.4950  219.2720 C   0  0  0  0  0  0  0  0  0  0  0  0
  145.9000   72.3370  218.5780 O   0  0  0  0  0  0  0  0  0  0  0  0
  144.1500   71.3800  219.9260 C   0  0  0  0  0  0  0  0  0  0  0  0
  143.2840   70.7430  218.8820 C   0  0  0  0  0  0  0  0  0  0  0  0
  142.0000   71.4290  218.7040 N   0  0  0  0  0  0  0  0  0  0  0  0
  141.4270   71.9730  219.8980 C   0  0  0  0  0  0  0  0  0  0  0  0
  141.5280   73.2910  220.1010 N   0  0  0  0  0  0  0  0  0  0  0  0
  140.9860   73.8250  221.2310 C   0  0  0  0  0  0  0  0  0  0  0  0
  141.0930   75.2140  221.4430 N   0  0  0  0  0  0  0  0  0  0  0  0
  142.1260   75.9560  220.7470 C   0  0  0  0  0  0  0  0  0  0  0  0
  141.4360   77.2110  220.2160 C   0  0  0  0  0  0  0  0  0  0  0  0
  141.1280   78.0280  221.3740 N   0  0  0  0  0  0  0  0  0  0  0  0
  141.2020   79.4350  221.3450 C   0  0  0  0  0  0  0  0  0  0  0  0
  141.4480   80.1870  222.4820 C   0  0  0  0  0  0  0  0  0  0  0  0
  141.5160   81.5740  222.4470 C   0  0  0  0  0  0  0  0  0  0  0  0
  141.3380   82.2680  221.2650 C   0  0  0  0  0  0  0  0  0  0  0  0
  141.0930   81.5310  220.1240 C   0  0  0  0  0  0  0  0  0  0  0  0
  141.0270   80.1410  220.1730 C   0  0  0  0  0  0  0  0  0  0  0  0
  140.7300   77.3390  222.5790 C   0  0  0  0  0  0  0  0  0  0  0  0
  140.2230   75.9350  222.3230 C   0  0  0  0  0  0  0  0  0  0  0  0
  140.3570   73.0320  222.1360 N   0  0  0  0  0  0  0  0  0  0  0  0
  140.2590   71.7010  221.9240 C   0  0  0  0  0  0  0  0  0  0  0  0
  139.5940   70.9260  222.8970 N   0  0  0  0  0  0  0  0  0  0  0  0
  139.2940   69.5390  222.5940 C   0  0  0  0  0  0  0  0  0  0  0  0
  138.8010   68.8320  223.8420 C   0  0  0  0  0  0  0  0  0  0  0  0
  139.6030   69.2150  225.0320 C   0  0  0  0  0  0  0  0  0  0  0  0
  140.1220   68.3140  225.9270 C   0  0  0  0  0  0  0  0  0  0  0  0
  140.8670   68.7590  227.0220 C   0  0  0  0  0  0  0  0  0  0  0  0
  141.0480   70.1270  227.1530 C   0  0  0  0  0  0  0  0  0  0  0  0
  140.5450   71.0470  226.2810 C   0  0  0  0  0  0  0  0  0  0  0  0
  139.8120   70.5870  225.2070 C   0  0  0  0  0  0  0  0  0  0  0  0
  139.2150   71.5140  224.1890 C   0  0  0  0  0  0  0  0  0  0  0  0
  140.7950   71.1740  220.8050 N   0  0  0  0  0  0  0  0  0  0  0  0
  145.0730   74.5260  219.8130 H   0  0  0  0  0  0  0  0  0  0  0  0
  143.3860   74.0410  219.2740 H   0  0  0  0  0  0  0  0  0  0  0  0
  144.8609   70.6422  220.3262 H   0  0  0  0  0  0  0  0  0  0  0  0
  143.5399   71.7549  220.7610 H   0  0  0  0  0  0  0  0  0  0  0  0
  143.8238   70.7558  217.9236 H   0  0  0  0  0  0  0  0  0  0  0  0
  143.0652   69.7184  219.2172 H   0  0  0  0  0  0  0  0  0  0  0  0
  141.5410   71.5100  217.7680 H   0  0  0  0  0  0  0  0  0  0  0  0
  142.9378   76.2264  221.4383 H   0  0  0  0  0  0  0  0  0  0  0  0
  142.5794   75.3649  219.9376 H   0  0  0  0  0  0  0  0  0  0  0  0
  142.1065   77.7545  219.5341 H   0  0  0  0  0  0  0  0  0  0  0  0
  140.5260   76.9582  219.6520 H   0  0  0  0  0  0  0  0  0  0  0  0
  141.5940   79.6700  223.4419 H   0  0  0  0  0  0  0  0  0  0  0  0
  141.7148   82.1293  223.3755 H   0  0  0  0  0  0  0  0  0  0  0  0
  141.3896   83.3664  221.2348 H   0  0  0  0  0  0  0  0  0  0  0  0
  140.9481   82.0481  219.1640 H   0  0  0  0  0  0  0  0  0  0  0  0
  140.8282   79.5863  219.2442 H   0  0  0  0  0  0  0  0  0  0  0  0
  141.5987   77.2800  223.2513 H   0  0  0  0  0  0  0  0  0  0  0  0
  139.9016   77.9099  223.0239 H   0  0  0  0  0  0  0  0  0  0  0  0
  140.1590   75.3981  223.2809 H   0  0  0  0  0  0  0  0  0  0  0  0
  139.2340   76.0071  221.8470 H   0  0  0  0  0  0  0  0  0  0  0  0
  138.5150   69.4955  221.8185 H   0  0  0  0  0  0  0  0  0  0  0  0
  140.2066   69.0420  222.2333 H   0  0  0  0  0  0  0  0  0  0  0  0
  137.7494   69.1039  224.0160 H   0  0  0  0  0  0  0  0  0  0  0  0
  138.9026   67.7474  223.6895 H   0  0  0  0  0  0  0  0  0  0  0  0
  139.9509   67.2371  225.7820 H   0  0  0  0  0  0  0  0  0  0  0  0
  141.2924   68.0528  227.7502 H   0  0  0  0  0  0  0  0  0  0  0  0
  141.6318   70.4921  228.0109 H   0  0  0  0  0  0  0  0  0  0  0  0
  140.7185   72.1230  226.4296 H   0  0  0  0  0  0  0  0  0  0  0  0
  138.1207   71.5543  224.2929 H   0  0  0  0  0  0  0  0  0  0  0  0
  139.5724   72.5482  224.3013 H   0  0  0  0  0  0  0  0  0  0  0  0
  1  2  1  0
  2  3  2  0
  2  4  1  0
  4  5  1  0
  5  6  1  0
  6  7  1  0
  7  8  2  0
  8  9  1  0
  9 10  1  0
 10 11  1  0
 11 12  1  0
 12 13  1  0
 13 14  1  0
 14 15  2  0
 15 16  1  0
 16 17  2  0
 17 18  1  0
 18 19  2  0
 13 20  1  0
 20 21  1  0
  9 22  2  0
 22 23  1  0
 23 24  1  0
 24 25  1  0
 25 26  1  0
 26 27  1  0
 27 28  2  0
 28 29  1  0
 29 30  2  0
 30 31  1  0
 31 32  2  0
 32 33  1  0
 23 34  2  0
 34  7  1  0
 21 10  1  0
 33 24  1  0
 19 14  1  0
 32 27  1  0
  1 35  1  0
  1 36  1  0
  4 37  1  0
  4 38  1  0
  5 39  1  0
  5 40  1  0
  6 41  1  0
 11 42  1  0
 11 43  1  0
 12 44  1  0
 12 45  1  0
 15 46  1  0
 16 47  1  0
 17 48  1  0
 18 49  1  0
 19 50  1  0
 20 51  1  0
 20 52  1  0
 21 53  1  0
 21 54  1  0
 25 55  1  0
 25 56  1  0
 26 57  1  0
 26 58  1  0
 28 59  1  0
 29 60  1  0
 30 61  1  0
 31 62  1  0
 33 63  1  0
 33 64  1  0
M  END
>  <smiles>  (28) 
NC(=O)CCNc1nc(N2CCN(c3ccccc3)CC2)nc(N2CCc3ccccc3C2)n1

>  <score_type>  (28) 
oracle

>  <origin>  (28) 
autodockgpu

>  <m_score__min__energy>  (28) 
-9.3900000000000006

>  <m_primary>  (28) 
energy

>  <rmsd>  (28) 
9.308961349749861

>  <m_score__min__rmsd>  (28) 
9.308961349749861

>  <meeko>  (28) 
{"free_energy": -7.81, "intermolecular_energy": -9.9, "internal_energy": -1.76, "cluster_size": 38, "cluster_id": 1, "rank_in_cluster": 35}

>  <energy>  (28) 
-8.32

>  <cluster_rmsd>  (28) 
0.86

>  <cluster>  (28) 
1

$$$$

     RDKit          3D

 64 68  0  0  0  0  0  0  0  0999 V2000
  143.7640   67.5520  219.1200 N   0  0  0  0  0  0  0  0  0  0  0  0
  144.4660   68.5830  219.7850 C   0  0  0  0  0  0  0  0  0  0  0  0
  145.6550   68.4060  220.0790 O   0  0  0  0  0  0  0  0  0  0  0  0
  143.7150   69.8320  220.0890 C   0  0  0  0  0  0  0  0  0  0  0  0
  142.4050   69.7530  219.3660 C   0  0  0  0  0  0  0  0  0  0  0  0
  141.8450   71.0710  219.0460 N   0  0  0  0  0  0  0  0  0  0  0  0
  141.3020   71.7900  220.1590 C   0  0  0  0  0  0  0  0  0  0  0  0
  141.4170   73.1220  220.1660 N   0  0  0  0  0  0  0  0  0  0  0  0
  140.9030   73.8200  221.2170 C   0  0  0  0  0  0  0  0  0  0  0  0
  141.0260   75.2240  221.2210 N   0  0  0  0  0  0  0  0  0  0  0  0
  140.0700   76.0140  221.9730 C   0  0  0  0  0  0  0  0  0  0  0  0
  140.9030   77.0470  222.7290 C   0  0  0  0  0  0  0  0  0  0  0  0
  141.4180   77.9650  221.7310 N   0  0  0  0  0  0  0  0  0  0  0  0
  141.5580   79.3460  221.9780 C   0  0  0  0  0  0  0  0  0  0  0  0
  141.9450   79.8420  223.2120 C   0  0  0  0  0  0  0  0  0  0  0  0
  142.0780   81.2040  223.4490 C   0  0  0  0  0  0  0  0  0  0  0  0
  141.8260   82.1300  222.4530 C   0  0  0  0  0  0  0  0  0  0  0  0
  141.4400   81.6490  221.2190 C   0  0  0  0  0  0  0  0  0  0  0  0
  141.3110   80.2800  220.9950 C   0  0  0  0  0  0  0  0  0  0  0  0
  141.7940   77.4060  220.4540 C   0  0  0  0  0  0  0  0  0  0  0  0
  142.0600   75.9160  220.5110 C   0  0  0  0  0  0  0  0  0  0  0  0
  140.2870   73.1750  222.2400 N   0  0  0  0  0  0  0  0  0  0  0  0
  140.1740   71.8280  222.2250 C   0  0  0  0  0  0  0  0  0  0  0  0
  139.5230   71.2110  223.3140 N   0  0  0  0  0  0  0  0  0  0  0  0
  138.4250   70.3020  223.0410 C   0  0  0  0  0  0  0  0  0  0  0  0
  138.0270   69.5750  224.3120 C   0  0  0  0  0  0  0  0  0  0  0  0
  139.2210   69.1470  225.0850 C   0  0  0  0  0  0  0  0  0  0  0  0
  139.3900   67.8840  225.5930 C   0  0  0  0  0  0  0  0  0  0  0  0
  140.5450   67.5630  226.3100 C   0  0  0  0  0  0  0  0  0  0  0  0
  141.4890   68.5640  226.4760 C   0  0  0  0  0  0  0  0  0  0  0  0
  141.3500   69.8290  225.9820 C   0  0  0  0  0  0  0  0  0  0  0  0
  140.2020   70.1250  225.2780 C   0  0  0  0  0  0  0  0  0  0  0  0
  139.9500   71.4830  224.6930 C   0  0  0  0  0  0  0  0  0  0  0  0
  140.6820   71.1380  221.1860 N   0  0  0  0  0  0  0  0  0  0  0  0
  144.2070   67.1630  218.2460 H   0  0  0  0  0  0  0  0  0  0  0  0
  142.8480   67.1920  219.4800 H   0  0  0  0  0  0  0  0  0  0  0  0
  143.5425   69.9130  221.1724 H   0  0  0  0  0  0  0  0  0  0  0  0
  144.2843   70.7163  219.7667 H   0  0  0  0  0  0  0  0  0  0  0  0
  142.5556   69.1992  218.4276 H   0  0  0  0  0  0  0  0  0  0  0  0
  141.6919   69.2461  220.0327 H   0  0  0  0  0  0  0  0  0  0  0  0
  141.8450   71.4510  218.0720 H   0  0  0  0  0  0  0  0  0  0  0  0
  139.3633   76.5124  221.2932 H   0  0  0  0  0  0  0  0  0  0  0  0
  139.4721   75.3920  222.6554 H   0  0  0  0  0  0  0  0  0  0  0  0
  140.2751   77.5857  223.4539 H   0  0  0  0  0  0  0  0  0  0  0  0
  141.7189   76.5687  223.2907 H   0  0  0  0  0  0  0  0  0  0  0  0
  142.1534   79.1357  224.0291 H   0  0  0  0  0  0  0  0  0  0  0  0
  142.3888   81.5520  224.4451 H   0  0  0  0  0  0  0  0  0  0  0  0
  141.9295   83.2094  222.6379 H   0  0  0  0  0  0  0  0  0  0  0  0
  141.2315   82.3551  220.4017 H   0  0  0  0  0  0  0  0  0  0  0  0
  141.0011   79.9323  219.9985 H   0  0  0  0  0  0  0  0  0  0  0  0
  140.9787   77.5886  219.7385 H   0  0  0  0  0  0  0  0  0  0  0  0
  142.7304   77.8941  220.1460 H   0  0  0  0  0  0  0  0  0  0  0  0
  142.1134   75.5231  219.4849 H   0  0  0  0  0  0  0  0  0  0  0  0
  143.0098   75.7555  221.0422 H   0  0  0  0  0  0  0  0  0  0  0  0
  137.5643   70.8732  222.6629 H   0  0  0  0  0  0  0  0  0  0  0  0
  138.7433   69.5661  222.2879 H   0  0  0  0  0  0  0  0  0  0  0  0
  137.4194   70.2482  224.9346 H   0  0  0  0  0  0  0  0  0  0  0  0
  137.4534   68.6785  224.0342 H   0  0  0  0  0  0  0  0  0  0  0  0
  138.6132   67.1213  225.4352 H   0  0  0  0  0  0  0  0  0  0  0  0
  140.6991   66.5564  226.7260 H   0  0  0  0  0  0  0  0  0  0  0  0
  142.4036   68.3253  227.0386 H   0  0  0  0  0  0  0  0  0  0  0  0
  142.1297   70.5886  226.1406 H   0  0  0  0  0  0  0  0  0  0  0  0
  139.1588   72.0064  225.2498 H   0  0  0  0  0  0  0  0  0  0  0  0
  140.8377   72.1311  224.7378 H   0  0  0  0  0  0  0  0  0  0  0  0
  1  2  1  0
  2  3  2  0
  2  4  1  0
  4  5  1  0
  5  6  1  0
  6  7  1  0
  7  8  2  0
  8  9  1  0
  9 10  1  0
 10 11  1  0
 11 12  1  0
 12 13  1  0
 13 14  1  0
 14 15  2  0
 15 16  1  0
 16 17  2  0
 17 18  1  0
 18 19  2  0
 13 20  1  0
 20 21  1  0
  9 22  2  0
 22 23  1  0
 23 24  1  0
 24 25  1  0
 25 26  1  0
 26 27  1  0
 27 28  2  0
 28 29  1  0
 29 30  2  0
 30 31  1  0
 31 32  2  0
 32 33  1  0
 23 34  2  0
 34  7  1  0
 21 10  1  0
 33 24  1  0
 19 14  1  0
 32 27  1  0
  1 35  1  0
  1 36  1  0
  4 37  1  0
  4 38  1  0
  5 39  1  0
  5 40  1  0
  6 41  1  0
 11 42  1  0
 11 43  1  0
 12 44  1  0
 12 45  1  0
 15 46  1  0
 16 47  1  0
 17 48  1  0
 18 49  1  0
 19 50  1  0
 20 51  1  0
 20 52  1  0
 21 53  1  0
 21 54  1  0
 25 55  1  0
 25 56  1  0
 26 57  1  0
 26 58  1  0
 28 59  1  0
 29 60  1  0
 30 61  1  0
 31 62  1  0
 33 63  1  0
 33 64  1  0
M  END
>  <smiles>  (29) 
NC(=O)CCNc1nc(N2CCN(c3ccccc3)CC2)nc(N2CCc3ccccc3C2)n1

>  <score_type>  (29) 
oracle

>  <origin>  (29) 
autodockgpu

>  <m_score__min__energy>  (29) 
-9.3900000000000006

>  <m_primary>  (29) 
energy

>  <rmsd>  (29) 
9.043525089137109

>  <m_score__min__rmsd>  (29) 
9.043525089137109

>  <meeko>  (29) 
{"free_energy": -8.53, "intermolecular_energy": -10.61, "internal_energy": -0.93, "cluster_size": 38, "cluster_id": 1, "rank_in_cluster": 23}

>  <energy>  (29) 
-8.24

>  <cluster_rmsd>  (29) 
1.2

>  <cluster>  (29) 
1

$$$$

     RDKit          3D

 64 68  0  0  0  0  0  0  0  0999 V2000
  143.1360   76.5720  219.9820 N   0  0  0  0  0  0  0  0  0  0  0  0
  143.6150   75.4900  219.2070 C   0  0  0  0  0  0  0  0  0  0  0  0
  144.1630   74.5390  219.7780 O   0  0  0  0  0  0  0  0  0  0  0  0
  143.4230   75.5720  217.7330 C   0  0  0  0  0  0  0  0  0  0  0  0
  141.9790   75.2840  217.4540 C   0  0  0  0  0  0  0  0  0  0  0  0
  141.4750   74.1130  218.1790 N   0  0  0  0  0  0  0  0  0  0  0  0
  140.9100   74.3880  219.4650 C   0  0  0  0  0  0  0  0  0  0  0  0
  140.6960   73.3600  220.2930 N   0  0  0  0  0  0  0  0  0  0  0  0
  140.1600   73.6050  221.5210 C   0  0  0  0  0  0  0  0  0  0  0  0
  139.9350   72.5200  222.3910 N   0  0  0  0  0  0  0  0  0  0  0  0
  141.0670   71.7440  222.8580 C   0  0  0  0  0  0  0  0  0  0  0  0
  140.8420   71.5590  224.3570 C   0  0  0  0  0  0  0  0  0  0  0  0
  139.7120   70.6590  224.4920 N   0  0  0  0  0  0  0  0  0  0  0  0
  139.6360   69.6920  225.5150 C   0  0  0  0  0  0  0  0  0  0  0  0
  139.3530   68.3610  225.2560 C   0  0  0  0  0  0  0  0  0  0  0  0
  139.2750   67.4140  226.2690 C   0  0  0  0  0  0  0  0  0  0  0  0
  139.4790   67.7650  227.5910 C   0  0  0  0  0  0  0  0  0  0  0  0
  139.7620   69.0880  227.8630 C   0  0  0  0  0  0  0  0  0  0  0  0
  139.8360   70.0270  226.8370 C   0  0  0  0  0  0  0  0  0  0  0  0
  138.6460   70.7920  223.5270 C   0  0  0  0  0  0  0  0  0  0  0  0
  138.6290   72.1420  222.8400 C   0  0  0  0  0  0  0  0  0  0  0  0
  139.8470   74.8720  221.8970 N   0  0  0  0  0  0  0  0  0  0  0  0
  140.0660   75.9060  221.0550 C   0  0  0  0  0  0  0  0  0  0  0  0
  139.7240   77.2000  221.4990 N   0  0  0  0  0  0  0  0  0  0  0  0
  138.9380   77.3320  222.7130 C   0  0  0  0  0  0  0  0  0  0  0  0
  138.8840   78.7870  223.1390 C   0  0  0  0  0  0  0  0  0  0  0  0
  140.2090   79.4420  222.9920 C   0  0  0  0  0  0  0  0  0  0  0  0
  140.7960   80.2070  223.9680 C   0  0  0  0  0  0  0  0  0  0  0  0
  142.0480   80.7880  223.7490 C   0  0  0  0  0  0  0  0  0  0  0  0
  142.6500   80.5560  222.5220 C   0  0  0  0  0  0  0  0  0  0  0  0
  142.0920   79.8000  221.5320 C   0  0  0  0  0  0  0  0  0  0  0  0
  140.8570   79.2360  221.7690 C   0  0  0  0  0  0  0  0  0  0  0  0
  140.1550   78.3870  220.7490 C   0  0  0  0  0  0  0  0  0  0  0  0
  140.5970   75.6630  219.8410 N   0  0  0  0  0  0  0  0  0  0  0  0
  142.4980   76.3310  220.7870 H   0  0  0  0  0  0  0  0  0  0  0  0
  143.4020   77.5610  219.7660 H   0  0  0  0  0  0  0  0  0  0  0  0
  143.6816   76.5796  217.3754 H   0  0  0  0  0  0  0  0  0  0  0  0
  144.0709   74.8492  217.2155 H   0  0  0  0  0  0  0  0  0  0  0  0
  141.3839   76.1609  217.7487 H   0  0  0  0  0  0  0  0  0  0  0  0
  141.8896   75.0676  216.3792 H   0  0  0  0  0  0  0  0  0  0  0  0
  141.5300   73.1480  217.7790 H   0  0  0  0  0  0  0  0  0  0  0  0
  141.1003   70.7685  222.3507 H   0  0  0  0  0  0  0  0  0  0  0  0
  142.0223   72.2469  222.6470 H   0  0  0  0  0  0  0  0  0  0  0  0
  141.7358   71.1207  224.8249 H   0  0  0  0  0  0  0  0  0  0  0  0
  140.6479   72.5212  224.8535 H   0  0  0  0  0  0  0  0  0  0  0  0
  139.1849   68.0443  224.2161 H   0  0  0  0  0  0  0  0  0  0  0  0
  139.0473   66.3681  226.0157 H   0  0  0  0  0  0  0  0  0  0  0  0
  139.4180   67.0175  228.3957 H   0  0  0  0  0  0  0  0  0  0  0  0
  139.9312   69.4048  228.9027 H   0  0  0  0  0  0  0  0  0  0  0  0
  140.0621   71.0732  227.0907 H   0  0  0  0  0  0  0  0  0  0  0  0
  138.7678   70.0115  222.7615 H   0  0  0  0  0  0  0  0  0  0  0  0
  137.6962   70.6905  224.0725 H   0  0  0  0  0  0  0  0  0  0  0  0
  137.9535   72.0932  221.9732 H   0  0  0  0  0  0  0  0  0  0  0  0
  138.2830   72.8933  223.5651 H   0  0  0  0  0  0  0  0  0  0  0  0
  137.9166   76.9684  222.5272 H   0  0  0  0  0  0  0  0  0  0  0  0
  139.4051   76.7382  223.5125 H   0  0  0  0  0  0  0  0  0  0  0  0
  138.1510   79.3167  222.5128 H   0  0  0  0  0  0  0  0  0  0  0  0
  138.5922   78.8278  224.1988 H   0  0  0  0  0  0  0  0  0  0  0  0
  140.2793   80.3636  224.9264 H   0  0  0  0  0  0  0  0  0  0  0  0
  142.5358   81.4042  224.5187 H   0  0  0  0  0  0  0  0  0  0  0  0
  143.6354   81.0078  222.3352 H   0  0  0  0  0  0  0  0  0  0  0  0
  142.6117   79.6457  220.5749 H   0  0  0  0  0  0  0  0  0  0  0  0
  139.2882   78.9187  220.3295 H   0  0  0  0  0  0  0  0  0  0  0  0
  140.8021   78.1332  219.8965 H   0  0  0  0  0  0  0  0  0  0  0  0
  1  2  1  0
  2  3  2  0
  2  4  1  0
  4  5  1  0
  5  6  1  0
  6  7  1  0
  7  8  2  0
  8  9  1  0
  9 10  1  0
 10 11  1  0
 11 12  1  0
 12 13  1  0
 13 14  1  0
 14 15  2  0
 15 16  1  0
 16 17  2  0
 17 18  1  0
 18 19  2  0
 13 20  1  0
 20 21  1  0
  9 22  2  0
 22 23  1  0
 23 24  1  0
 24 25  1  0
 25 26  1  0
 26 27  1  0
 27 28  2  0
 28 29  1  0
 29 30  2  0
 30 31  1  0
 31 32  2  0
 32 33  1  0
 23 34  2  0
 34  7  1  0
 21 10  1  0
 33 24  1  0
 19 14  1  0
 32 27  1  0
  1 35  1  0
  1 36  1  0
  4 37  1  0
  4 38  1  0
  5 39  1  0
  5 40  1  0
  6 41  1  0
 11 42  1  0
 11 43  1  0
 12 44  1  0
 12 45  1  0
 15 46  1  0
 16 47  1  0
 17 48  1  0
 18 49  1  0
 19 50  1  0
 20 51  1  0
 20 52  1  0
 21 53  1  0
 21 54  1  0
 25 55  1  0
 25 56  1  0
 26 57  1  0
 26 58  1  0
 28 59  1  0
 29 60  1  0
 30 61  1  0
 31 62  1  0
 33 63  1  0
 33 64  1  0
M  END
>  <smiles>  (30) 
NC(=O)CCNc1nc(N2CCN(c3ccccc3)CC2)nc(N2CCc3ccccc3C2)n1

>  <score_type>  (30) 
oracle

>  <origin>  (30) 
autodockgpu

>  <m_score__min__energy>  (30) 
-9.3900000000000006

>  <m_primary>  (30) 
energy

>  <rmsd>  (30) 
4.661669329417605

>  <m_score__min__rmsd>  (30) 
4.661669329417605

>  <meeko>  (30) 
{"free_energy": -7.82, "intermolecular_energy": -9.91, "internal_energy": -1.62, "cluster_size": 3, "cluster_id": 3, "rank_in_cluster": 1}

>  <energy>  (30) 
-8.2

>  <cluster_rmsd>  (30) 
1.16

>  <cluster>  (30) 
1

$$$$

     RDKit          3D

 64 68  0  0  0  0  0  0  0  0999 V2000
  146.0090   69.4860  218.1330 N   0  0  0  0  0  0  0  0  0  0  0  0
  145.2940   69.3300  219.3430 C   0  0  0  0  0  0  0  0  0  0  0  0
  145.5030   68.3270  220.0370 O   0  0  0  0  0  0  0  0  0  0  0  0
  144.3240   70.4000  219.7040 C   0  0  0  0  0  0  0  0  0  0  0  0
  142.9490   69.8230  219.5630 C   0  0  0  0  0  0  0  0  0  0  0  0
  141.9420   70.8210  219.1870 N   0  0  0  0  0  0  0  0  0  0  0  0
  141.3850   71.5670  220.2760 C   0  0  0  0  0  0  0  0  0  0  0  0
  141.4940   72.8990  220.2480 N   0  0  0  0  0  0  0  0  0  0  0  0
  140.9670   73.6230  221.2760 C   0  0  0  0  0  0  0  0  0  0  0  0
  141.0830   75.0270  221.2450 N   0  0  0  0  0  0  0  0  0  0  0  0
  140.1050   75.8310  221.9500 C   0  0  0  0  0  0  0  0  0  0  0  0
  140.9140   76.8900  222.6980 C   0  0  0  0  0  0  0  0  0  0  0  0
  141.4490   77.7820  221.6880 N   0  0  0  0  0  0  0  0  0  0  0  0
  141.5770   79.1700  221.8990 C   0  0  0  0  0  0  0  0  0  0  0  0
  141.9600   79.7010  223.1200 C   0  0  0  0  0  0  0  0  0  0  0  0
  142.0800   81.0700  223.3230 C   0  0  0  0  0  0  0  0  0  0  0  0
  141.8190   81.9680  222.3040 C   0  0  0  0  0  0  0  0  0  0  0  0
  141.4380   81.4520  221.0820 C   0  0  0  0  0  0  0  0  0  0  0  0
  141.3210   80.0770  220.8930 C   0  0  0  0  0  0  0  0  0  0  0  0
  141.8600   77.1900  220.4360 C   0  0  0  0  0  0  0  0  0  0  0  0
  142.1310   75.7030  220.5410 C   0  0  0  0  0  0  0  0  0  0  0  0
  140.3440   73.0010  222.3100 N   0  0  0  0  0  0  0  0  0  0  0  0
  140.2380   71.6540  222.3300 C   0  0  0  0  0  0  0  0  0  0  0  0
  139.5800   71.0620  223.4290 N   0  0  0  0  0  0  0  0  0  0  0  0
  138.4420   70.1990  223.1730 C   0  0  0  0  0  0  0  0  0  0  0  0
  138.0350   69.4870  224.4490 C   0  0  0  0  0  0  0  0  0  0  0  0
  139.2230   69.0100  225.2030 C   0  0  0  0  0  0  0  0  0  0  0  0
  139.3480   67.7410  225.7090 C   0  0  0  0  0  0  0  0  0  0  0  0
  140.5010   67.3720  226.4060 C   0  0  0  0  0  0  0  0  0  0  0  0
  141.4870   68.3350  226.5580 C   0  0  0  0  0  0  0  0  0  0  0  0
  141.3920   69.6040  226.0670 C   0  0  0  0  0  0  0  0  0  0  0  0
  140.2460   69.9470  225.3810 C   0  0  0  0  0  0  0  0  0  0  0  0
  140.0390   71.3160  224.8010 C   0  0  0  0  0  0  0  0  0  0  0  0
  140.7590   70.9390  221.3140 N   0  0  0  0  0  0  0  0  0  0  0  0
  147.0590   69.4060  218.1890 H   0  0  0  0  0  0  0  0  0  0  0  0
  145.5180   69.6730  217.2270 H   0  0  0  0  0  0  0  0  0  0  0  0
  144.4911   70.7247  220.7416 H   0  0  0  0  0  0  0  0  0  0  0  0
  144.4478   71.2744  219.0481 H   0  0  0  0  0  0  0  0  0  0  0  0
  142.9746   69.0425  218.7883 H   0  0  0  0  0  0  0  0  0  0  0  0
  142.6603   69.4196  220.5448 H   0  0  0  0  0  0  0  0  0  0  0  0
  141.6560   70.9720  218.1930 H   0  0  0  0  0  0  0  0  0  0  0  0
  139.4130   76.3063  221.2392 H   0  0  0  0  0  0  0  0  0  0  0  0
  139.4933   75.2246  222.6341 H   0  0  0  0  0  0  0  0  0  0  0  0
  140.2654   77.4453  223.3915 H   0  0  0  0  0  0  0  0  0  0  0  0
  141.7178   76.4323  223.2934 H   0  0  0  0  0  0  0  0  0  0  0  0
  142.1757   79.0175  223.9544 H   0  0  0  0  0  0  0  0  0  0  0  0
  142.3875   81.4458  224.3100 H   0  0  0  0  0  0  0  0  0  0  0  0
  141.9116   83.0527  222.4616 H   0  0  0  0  0  0  0  0  0  0  0  0
  141.2241   82.1352  220.2468 H   0  0  0  0  0  0  0  0  0  0  0  0
  141.0134   79.7015  219.9059 H   0  0  0  0  0  0  0  0  0  0  0  0
  141.0624   77.3488  219.6954 H   0  0  0  0  0  0  0  0  0  0  0  0
  142.8017   77.6743  220.1383 H   0  0  0  0  0  0  0  0  0  0  0  0
  142.2106   75.2818  219.5280 H   0  0  0  0  0  0  0  0  0  0  0  0
  143.0685   75.5616  221.0987 H   0  0  0  0  0  0  0  0  0  0  0  0
  137.5993   70.8053  222.8092 H   0  0  0  0  0  0  0  0  0  0  0  0
  138.7182   69.4519  222.4144 H   0  0  0  0  0  0  0  0  0  0  0  0
  137.4648   70.1832  225.0816 H   0  0  0  0  0  0  0  0  0  0  0  0
  137.4214   68.6147  224.1795 H   0  0  0  0  0  0  0  0  0  0  0  0
  138.5374   67.0114  225.5653 H   0  0  0  0  0  0  0  0  0  0  0  0
  140.6218   66.3590  226.8174 H   0  0  0  0  0  0  0  0  0  0  0  0
  142.3995   68.0593  227.1069 H   0  0  0  0  0  0  0  0  0  0  0  0
  142.2042   70.3311  226.2137 H   0  0  0  0  0  0  0  0  0  0  0  0
  139.2780   71.8697  225.3705 H   0  0  0  0  0  0  0  0  0  0  0  0
  140.9520   71.9288  224.8326 H   0  0  0  0  0  0  0  0  0  0  0  0
  1  2  1  0
  2  3  2  0
  2  4  1  0
  4  5  1  0
  5  6  1  0
  6  7  1  0
  7  8  2  0
  8  9  1  0
  9 10  1  0
 10 11  1  0
 11 12  1  0
 12 13  1  0
 13 14  1  0
 14 15  2  0
 15 16  1  0
 16 17  2  0
 17 18  1  0
 18 19  2  0
 13 20  1  0
 20 21  1  0
  9 22  2  0
 22 23  1  0
 23 24  1  0
 24 25  1  0
 25 26  1  0
 26 27  1  0
 27 28  2  0
 28 29  1  0
 29 30  2  0
 30 31  1  0
 31 32  2  0
 32 33  1  0
 23 34  2  0
 34  7  1  0
 21 10  1  0
 33 24  1  0
 19 14  1  0
 32 27  1  0
  1 35  1  0
  1 36  1  0
  4 37  1  0
  4 38  1  0
  5 39  1  0
  5 40  1  0
  6 41  1  0
 11 42  1  0
 11 43  1  0
 12 44  1  0
 12 45  1  0
 15 46  1  0
 16 47  1  0
 17 48  1  0
 18 49  1  0
 19 50  1  0
 20 51  1  0
 20 52  1  0
 21 53  1  0
 21 54  1  0
 25 55  1  0
 25 56  1  0
 26 57  1  0
 26 58  1  0
 28 59  1  0
 29 60  1  0
 30 61  1  0
 31 62  1  0
 33 63  1  0
 33 64  1  0
M  END
>  <smiles>  (31) 
NC(=O)CCNc1nc(N2CCN(c3ccccc3)CC2)nc(N2CCc3ccccc3C2)n1

>  <score_type>  (31) 
oracle

>  <origin>  (31) 
autodockgpu

>  <m_score__min__energy>  (31) 
-9.3900000000000006

>  <m_primary>  (31) 
energy

>  <rmsd>  (31) 
8.94830893721119

>  <m_score__min__rmsd>  (31) 
8.94830893721119

>  <meeko>  (31) 
{"free_energy": -9.04, "intermolecular_energy": -11.13, "internal_energy": -0.92, "cluster_size": 38, "cluster_id": 1, "rank_in_cluster": 6}

>  <energy>  (31) 
-8.18

>  <cluster_rmsd>  (31) 
1.22

>  <cluster>  (31) 
1

$$$$

     RDKit          3D

 64 68  0  0  0  0  0  0  0  0999 V2000
  142.5280   74.8560  220.8150 N   0  0  0  0  0  0  0  0  0  0  0  0
  143.0370   74.8510  219.4950 C   0  0  0  0  0  0  0  0  0  0  0  0
  143.6380   75.8500  219.0800 O   0  0  0  0  0  0  0  0  0  0  0  0
  142.8120   73.6230  218.6840 C   0  0  0  0  0  0  0  0  0  0  0  0
  141.8050   73.9630  217.6280 C   0  0  0  0  0  0  0  0  0  0  0  0
  140.4220   73.7170  218.0530 N   0  0  0  0  0  0  0  0  0  0  0  0
  140.1240   74.0840  219.4040 C   0  0  0  0  0  0  0  0  0  0  0  0
  140.0600   73.1120  220.3210 N   0  0  0  0  0  0  0  0  0  0  0  0
  139.7800   73.4450  221.6120 C   0  0  0  0  0  0  0  0  0  0  0  0
  139.7130   72.4200  222.5770 N   0  0  0  0  0  0  0  0  0  0  0  0
  140.9450   71.8840  223.1230 C   0  0  0  0  0  0  0  0  0  0  0  0
  140.7150   71.7990  224.6310 C   0  0  0  0  0  0  0  0  0  0  0  0
  139.7440   70.7420  224.8370 N   0  0  0  0  0  0  0  0  0  0  0  0
  139.8000   69.8710  225.9440 C   0  0  0  0  0  0  0  0  0  0  0  0
  139.5950   68.5070  225.8230 C   0  0  0  0  0  0  0  0  0  0  0  0
  139.6480   67.6540  226.9190 C   0  0  0  0  0  0  0  0  0  0  0  0
  139.9110   68.1380  228.1870 C   0  0  0  0  0  0  0  0  0  0  0  0
  140.1180   69.4960  228.3210 C   0  0  0  0  0  0  0  0  0  0  0  0
  140.0610   70.3390  227.2150 C   0  0  0  0  0  0  0  0  0  0  0  0
  138.6940   70.6120  223.8540 C   0  0  0  0  0  0  0  0  0  0  0  0
  138.4750   71.8750  223.0460 C   0  0  0  0  0  0  0  0  0  0  0  0
  139.5670   74.7400  221.9610 N   0  0  0  0  0  0  0  0  0  0  0  0
  139.6330   75.7160  221.0280 C   0  0  0  0  0  0  0  0  0  0  0  0
  139.4050   77.0430  221.4480 N   0  0  0  0  0  0  0  0  0  0  0  0
  138.6160   77.2660  222.6460 C   0  0  0  0  0  0  0  0  0  0  0  0
  138.6900   78.7270  223.0500 C   0  0  0  0  0  0  0  0  0  0  0  0
  140.0730   79.2540  222.9160 C   0  0  0  0  0  0  0  0  0  0  0  0
  140.7130   79.9770  223.8910 C   0  0  0  0  0  0  0  0  0  0  0  0
  142.0150   80.4370  223.6840 C   0  0  0  0  0  0  0  0  0  0  0  0
  142.6130   80.1310  222.4710 C   0  0  0  0  0  0  0  0  0  0  0  0
  142.0030   79.4140  221.4830 C   0  0  0  0  0  0  0  0  0  0  0  0
  140.7170   78.9700  221.7070 C   0  0  0  0  0  0  0  0  0  0  0  0
  139.9560   78.1730  220.6880 C   0  0  0  0  0  0  0  0  0  0  0  0
  139.9110   75.3870  219.7520 N   0  0  0  0  0  0  0  0  0  0  0  0
  143.2060   75.1080  221.5830 H   0  0  0  0  0  0  0  0  0  0  0  0
  141.5280   74.6220  221.0170 H   0  0  0  0  0  0  0  0  0  0  0  0
  143.7547   73.3034  218.2158 H   0  0  0  0  0  0  0  0  0  0  0  0
  142.4487   72.8001  219.3171 H   0  0  0  0  0  0  0  0  0  0  0  0
  141.9094   75.0282  217.3743 H   0  0  0  0  0  0  0  0  0  0  0  0
  142.0036   73.3131  216.7630 H   0  0  0  0  0  0  0  0  0  0  0  0
  139.7110   73.3030  217.4080 H   0  0  0  0  0  0  0  0  0  0  0  0
  141.1484   70.8860  222.7075 H   0  0  0  0  0  0  0  0  0  0  0  0
  141.8116   72.5147  222.8755 H   0  0  0  0  0  0  0  0  0  0  0  0
  141.6561   71.5571  225.1465 H   0  0  0  0  0  0  0  0  0  0  0  0
  140.3543   72.7567  225.0344 H   0  0  0  0  0  0  0  0  0  0  0  0
  139.3838   68.0856  224.8291 H   0  0  0  0  0  0  0  0  0  0  0  0
  139.4780   66.5768  226.7753 H   0  0  0  0  0  0  0  0  0  0  0  0
  139.9537   67.4659  229.0567 H   0  0  0  0  0  0  0  0  0  0  0  0
  140.3307   69.9174  229.3146 H   0  0  0  0  0  0  0  0  0  0  0  0
  140.2300   71.4163  227.3596 H   0  0  0  0  0  0  0  0  0  0  0  0
  138.9593   69.7971  223.1644 H   0  0  0  0  0  0  0  0  0  0  0  0
  137.7603   70.4049  224.3975 H   0  0  0  0  0  0  0  0  0  0  0  0
  137.8377   71.6397  222.1809 H   0  0  0  0  0  0  0  0  0  0  0  0
  137.9941   72.6210  223.6958 H   0  0  0  0  0  0  0  0  0  0  0  0
  137.5684   76.9951  222.4482 H   0  0  0  0  0  0  0  0  0  0  0  0
  139.0137   76.6445  223.4619 H   0  0  0  0  0  0  0  0  0  0  0  0
  138.0192   79.3121  222.4037 H   0  0  0  0  0  0  0  0  0  0  0  0
  138.3862   78.8120  224.1038 H   0  0  0  0  0  0  0  0  0  0  0  0
  140.1987   80.1949  224.8387 H   0  0  0  0  0  0  0  0  0  0  0  0
  142.5451   81.0188  224.4524 H   0  0  0  0  0  0  0  0  0  0  0  0
  143.6388   80.4869  222.2948 H   0  0  0  0  0  0  0  0  0  0  0  0
  142.5212   79.1970  220.5373 H   0  0  0  0  0  0  0  0  0  0  0  0
  139.1489   78.7755  220.2457 H   0  0  0  0  0  0  0  0  0  0  0  0
  140.5904   77.8467  219.8507 H   0  0  0  0  0  0  0  0  0  0  0  0
  1  2  1  0
  2  3  2  0
  2  4  1  0
  4  5  1  0
  5  6  1  0
  6  7  1  0
  7  8  2  0
  8  9  1  0
  9 10  1  0
 10 11  1  0
 11 12  1  0
 12 13  1  0
 13 14  1  0
 14 15  2  0
 15 16  1  0
 16 17  2  0
 17 18  1  0
 18 19  2  0
 13 20  1  0
 20 21  1  0
  9 22  2  0
 22 23  1  0
 23 24  1  0
 24 25  1  0
 25 26  1  0
 26 27  1  0
 27 28  2  0
 28 29  1  0
 29 30  2  0
 30 31  1  0
 31 32  2  0
 32 33  1  0
 23 34  2  0
 34  7  1  0
 21 10  1  0
 33 24  1  0
 19 14  1  0
 32 27  1  0
  1 35  1  0
  1 36  1  0
  4 37  1  0
  4 38  1  0
  5 39  1  0
  5 40  1  0
  6 41  1  0
 11 42  1  0
 11 43  1  0
 12 44  1  0
 12 45  1  0
 15 46  1  0
 16 47  1  0
 17 48  1  0
 18 49  1  0
 19 50  1  0
 20 51  1  0
 20 52  1  0
 21 53  1  0
 21 54  1  0
 25 55  1  0
 25 56  1  0
 26 57  1  0
 26 58  1  0
 28 59  1  0
 29 60  1  0
 30 61  1  0
 31 62  1  0
 33 63  1  0
 33 64  1  0
M  END
>  <smiles>  (32) 
NC(=O)CCNc1nc(N2CCN(c3ccccc3)CC2)nc(N2CCc3ccccc3C2)n1

>  <score_type>  (32) 
oracle

>  <origin>  (32) 
autodockgpu

>  <m_score__min__energy>  (32) 
-9.3900000000000006

>  <m_primary>  (32) 
energy

>  <rmsd>  (32) 
4.962457765795745

>  <m_score__min__rmsd>  (32) 
4.962457765795745

>  <meeko>  (32) 
{"free_energy": -7.49, "intermolecular_energy": -9.58, "internal_energy": -2.71, "cluster_size": 3, "cluster_id": 3, "rank_in_cluster": 2}

>  <energy>  (32) 
-8.12

>  <cluster_rmsd>  (32) 
0.92

>  <cluster>  (32) 
1

$$$$

     RDKit          3D

 64 68  0  0  0  0  0  0  0  0999 V2000
  145.0620   73.6120  219.8980 N   0  0  0  0  0  0  0  0  0  0  0  0
  145.3360   72.5090  219.0560 C   0  0  0  0  0  0  0  0  0  0  0  0
  145.4630   72.7000  217.8390 O   0  0  0  0  0  0  0  0  0  0  0  0
  145.4570   71.1730  219.7010 C   0  0  0  0  0  0  0  0  0  0  0  0
  144.0760   70.7380  220.0890 C   0  0  0  0  0  0  0  0  0  0  0  0
  143.0220   71.5550  219.4770 N   0  0  0  0  0  0  0  0  0  0  0  0
  142.1690   72.2410  220.3990 C   0  0  0  0  0  0  0  0  0  0  0  0
  142.1070   73.5750  220.3290 N   0  0  0  0  0  0  0  0  0  0  0  0
  141.2980   74.2420  221.1980 C   0  0  0  0  0  0  0  0  0  0  0  0
  141.2350   75.6480  221.1220 N   0  0  0  0  0  0  0  0  0  0  0  0
  140.2810   76.3580  221.9510 C   0  0  0  0  0  0  0  0  0  0  0  0
  141.0560   77.5320  222.5460 C   0  0  0  0  0  0  0  0  0  0  0  0
  141.3210   78.4430  221.4490 N   0  0  0  0  0  0  0  0  0  0  0  0
  141.3080   79.8430  221.6110 C   0  0  0  0  0  0  0  0  0  0  0  0
  141.1360   80.7100  220.5440 C   0  0  0  0  0  0  0  0  0  0  0  0
  141.1270   82.0890  220.7100 C   0  0  0  0  0  0  0  0  0  0  0  0
  141.2920   82.6580  221.9590 C   0  0  0  0  0  0  0  0  0  0  0  0
  141.4640   81.8060  223.0310 C   0  0  0  0  0  0  0  0  0  0  0  0
  141.4700   80.4250  222.8500 C   0  0  0  0  0  0  0  0  0  0  0  0
  141.6110   77.8560  220.1620 C   0  0  0  0  0  0  0  0  0  0  0  0
  142.0750   76.4170  220.2540 C   0  0  0  0  0  0  0  0  0  0  0  0
  140.5680   73.5650  222.1210 N   0  0  0  0  0  0  0  0  0  0  0  0
  140.6350   72.2160  222.1860 C   0  0  0  0  0  0  0  0  0  0  0  0
  139.8540   71.5650  223.1630 N   0  0  0  0  0  0  0  0  0  0  0  0
  138.7870   70.6840  222.7250 C   0  0  0  0  0  0  0  0  0  0  0  0
  138.2350   69.9120  223.9090 C   0  0  0  0  0  0  0  0  0  0  0  0
  139.3260   69.4350  224.7980 C   0  0  0  0  0  0  0  0  0  0  0  0
  139.4210   68.1500  225.2690 C   0  0  0  0  0  0  0  0  0  0  0  0
  140.4810   67.7830  226.1020 C   0  0  0  0  0  0  0  0  0  0  0  0
  141.4080   68.7630  226.4200 C   0  0  0  0  0  0  0  0  0  0  0  0
  141.3410   70.0490  225.9670 C   0  0  0  0  0  0  0  0  0  0  0  0
  140.2870   70.3900  225.1460 C   0  0  0  0  0  0  0  0  0  0  0  0
  140.1180   71.7750  224.5930 C   0  0  0  0  0  0  0  0  0  0  0  0
  141.4360   71.5570  221.3260 N   0  0  0  0  0  0  0  0  0  0  0  0
  145.7080   74.4420  219.8160 H   0  0  0  0  0  0  0  0  0  0  0  0
  144.2580   73.6020  220.5680 H   0  0  0  0  0  0  0  0  0  0  0  0
  145.8940   70.4521  218.9943 H   0  0  0  0  0  0  0  0  0  0  0  0
  146.1112   71.2248  220.5838 H   0  0  0  0  0  0  0  0  0  0  0  0
  143.9365   69.6933  219.7740 H   0  0  0  0  0  0  0  0  0  0  0  0
  143.9897   70.8543  221.1794 H   0  0  0  0  0  0  0  0  0  0  0  0
  142.9080   71.6260  218.4400 H   0  0  0  0  0  0  0  0  0  0  0  0
  139.4386   76.7210  221.3438 H   0  0  0  0  0  0  0  0  0  0  0  0
  139.8559   75.7104  222.7320 H   0  0  0  0  0  0  0  0  0  0  0  0
  140.4549   78.0322  223.3197 H   0  0  0  0  0  0  0  0  0  0  0  0
  141.9896   77.1953  223.0203 H   0  0  0  0  0  0  0  0  0  0  0  0
  141.0025   80.2935  219.5347 H   0  0  0  0  0  0  0  0  0  0  0  0
  140.9863   82.7387  219.8336 H   0  0  0  0  0  0  0  0  0  0  0  0
  141.2864   83.7497  222.0935 H   0  0  0  0  0  0  0  0  0  0  0  0
  141.5979   82.2225  224.0403 H   0  0  0  0  0  0  0  0  0  0  0  0
  141.6090   79.7757  223.7270 H   0  0  0  0  0  0  0  0  0  0  0  0
  140.6988   77.8907  219.5483 H   0  0  0  0  0  0  0  0  0  0  0  0
  142.4317   78.4364  219.7152 H   0  0  0  0  0  0  0  0  0  0  0  0
  142.0545   75.9702  219.2491 H   0  0  0  0  0  0  0  0  0  0  0  0
  143.0949   76.4095  220.6659 H   0  0  0  0  0  0  0  0  0  0  0  0
  137.9824   71.2825  222.2729 H   0  0  0  0  0  0  0  0  0  0  0  0
  139.1845   69.9747  221.9841 H   0  0  0  0  0  0  0  0  0  0  0  0
  137.5652   70.5683  224.4840 H   0  0  0  0  0  0  0  0  0  0  0  0
  137.6889   69.0362  223.5286 H   0  0  0  0  0  0  0  0  0  0  0  0
  138.6602   67.4062  224.9899 H   0  0  0  0  0  0  0  0  0  0  0  0
  140.5759   66.7580  226.4897 H   0  0  0  0  0  0  0  0  0  0  0  0
  142.2472   68.4884  227.0760 H   0  0  0  0  0  0  0  0  0  0  0  0
  142.1039   70.7899  226.2481 H   0  0  0  0  0  0  0  0  0  0  0  0
  139.2714   72.2863  225.0746 H   0  0  0  0  0  0  0  0  0  0  0  0
  140.9999   72.4084  224.7691 H   0  0  0  0  0  0  0  0  0  0  0  0
  1  2  1  0
  2  3  2  0
  2  4  1  0
  4  5  1  0
  5  6  1  0
  6  7  1  0
  7  8  2  0
  8  9  1  0
  9 10  1  0
 10 11  1  0
 11 12  1  0
 12 13  1  0
 13 14  1  0
 14 15  2  0
 15 16  1  0
 16 17  2  0
 17 18  1  0
 18 19  2  0
 13 20  1  0
 20 21  1  0
  9 22  2  0
 22 23  1  0
 23 24  1  0
 24 25  1  0
 25 26  1  0
 26 27  1  0
 27 28  2  0
 28 29  1  0
 29 30  2  0
 30 31  1  0
 31 32  2  0
 32 33  1  0
 23 34  2  0
 34  7  1  0
 21 10  1  0
 33 24  1  0
 19 14  1  0
 32 27  1  0
  1 35  1  0
  1 36  1  0
  4 37  1  0
  4 38  1  0
  5 39  1  0
  5 40  1  0
  6 41  1  0
 11 42  1  0
 11 43  1  0
 12 44  1  0
 12 45  1  0
 15 46  1  0
 16 47  1  0
 17 48  1  0
 18 49  1  0
 19 50  1  0
 20 51  1  0
 20 52  1  0
 21 53  1  0
 21 54  1  0
 25 55  1  0
 25 56  1  0
 26 57  1  0
 26 58  1  0
 28 59  1  0
 29 60  1  0
 30 61  1  0
 31 62  1  0
 33 63  1  0
 33 64  1  0
M  END
>  <smiles>  (33) 
NC(=O)CCNc1nc(N2CCN(c3ccccc3)CC2)nc(N2CCc3ccccc3C2)n1

>  <score_type>  (33) 
oracle

>  <origin>  (33) 
autodockgpu

>  <m_score__min__energy>  (33) 
-9.3900000000000006

>  <m_primary>  (33) 
energy

>  <rmsd>  (33) 
9.2049496235242

>  <m_score__min__rmsd>  (33) 
9.2049496235242

>  <meeko>  (33) 
{"free_energy": -8.12, "intermolecular_energy": -10.21, "internal_energy": -1.67, "cluster_size": 38, "cluster_id": 1, "rank_in_cluster": 32}

>  <energy>  (33) 
-8.03

>  <cluster_rmsd>  (33) 
1.74

>  <cluster>  (33) 
1

$$$$

     RDKit          3D

 64 68  0  0  0  0  0  0  0  0999 V2000
  144.3550   72.5140  221.1200 N   0  0  0  0  0  0  0  0  0  0  0  0
  144.8670   72.5010  219.8020 C   0  0  0  0  0  0  0  0  0  0  0  0
  146.0210   72.9010  219.6030 O   0  0  0  0  0  0  0  0  0  0  0  0
  143.9680   71.9990  218.7270 C   0  0  0  0  0  0  0  0  0  0  0  0
  143.3730   70.7100  219.2080 C   0  0  0  0  0  0  0  0  0  0  0  0
  141.9080   70.7450  219.2780 N   0  0  0  0  0  0  0  0  0  0  0  0
  141.3660   71.5280  220.3470 C   0  0  0  0  0  0  0  0  0  0  0  0
  141.4750   72.8590  220.2710 N   0  0  0  0  0  0  0  0  0  0  0  0
  140.9620   73.6180  221.2800 C   0  0  0  0  0  0  0  0  0  0  0  0
  141.0780   75.0200  221.1970 N   0  0  0  0  0  0  0  0  0  0  0  0
  140.0780   75.8500  221.8410 C   0  0  0  0  0  0  0  0  0  0  0  0
  140.8630   76.9380  222.5710 C   0  0  0  0  0  0  0  0  0  0  0  0
  141.4280   77.7920  221.5440 N   0  0  0  0  0  0  0  0  0  0  0  0
  141.5480   79.1870  221.7050 C   0  0  0  0  0  0  0  0  0  0  0  0
  141.2380   80.0790  220.6910 C   0  0  0  0  0  0  0  0  0  0  0  0
  141.3630   81.4530  220.8550 C   0  0  0  0  0  0  0  0  0  0  0  0
  141.8050   81.9920  222.0490 C   0  0  0  0  0  0  0  0  0  0  0  0
  142.1160   81.1140  223.0670 C   0  0  0  0  0  0  0  0  0  0  0  0
  141.9880   79.7390  222.8890 C   0  0  0  0  0  0  0  0  0  0  0  0
  141.8770   77.1530  220.3290 C   0  0  0  0  0  0  0  0  0  0  0  0
  142.1460   75.6720  220.5000 C   0  0  0  0  0  0  0  0  0  0  0  0
  140.3540   73.0340  222.3430 N   0  0  0  0  0  0  0  0  0  0  0  0
  140.2480   71.6880  222.4130 C   0  0  0  0  0  0  0  0  0  0  0  0
  139.6040   71.1370  223.5400 N   0  0  0  0  0  0  0  0  0  0  0  0
  138.3830   70.3780  223.3400 C   0  0  0  0  0  0  0  0  0  0  0  0
  137.9900   69.6810  224.6300 C   0  0  0  0  0  0  0  0  0  0  0  0
  139.1730   69.0920  225.3070 C   0  0  0  0  0  0  0  0  0  0  0  0
  139.2180   67.8080  225.7890 C   0  0  0  0  0  0  0  0  0  0  0  0
  140.3720   67.3310  226.4140 C   0  0  0  0  0  0  0  0  0  0  0  0
  141.4450   68.2030  226.5200 C   0  0  0  0  0  0  0  0  0  0  0  0
  141.4310   69.4840  226.0510 C   0  0  0  0  0  0  0  0  0  0  0  0
  140.2820   69.9350  225.4370 C   0  0  0  0  0  0  0  0  0  0  0  0
  140.1610   71.3260  224.8860 C   0  0  0  0  0  0  0  0  0  0  0  0
  140.7540   70.9380  221.4150 N   0  0  0  0  0  0  0  0  0  0  0  0
  144.9400   72.0420  221.8600 H   0  0  0  0  0  0  0  0  0  0  0  0
  143.4400   72.9700  221.3470 H   0  0  0  0  0  0  0  0  0  0  0  0
  143.1709   72.7312  218.5306 H   0  0  0  0  0  0  0  0  0  0  0  0
  144.5275   71.8445  217.7926 H   0  0  0  0  0  0  0  0  0  0  0  0
  143.6717   69.9071  218.5179 H   0  0  0  0  0  0  0  0  0  0  0  0
  143.7468   70.5357  220.2278 H   0  0  0  0  0  0  0  0  0  0  0  0
  141.3090   70.2300  218.5930 H   0  0  0  0  0  0  0  0  0  0  0  0
  139.4076   76.2962  221.0917 H   0  0  0  0  0  0  0  0  0  0  0  0
  139.4462   75.2696  222.5295 H   0  0  0  0  0  0  0  0  0  0  0  0
  140.1934   77.5183  223.2228 H   0  0  0  0  0  0  0  0  0  0  0  0
  141.6489   76.5049  223.2072 H   0  0  0  0  0  0  0  0  0  0  0  0
  140.8821   79.6873  219.7267 H   0  0  0  0  0  0  0  0  0  0  0  0
  141.1061   82.1230  220.0212 H   0  0  0  0  0  0  0  0  0  0  0  0
  141.9049   83.0793  222.1823 H   0  0  0  0  0  0  0  0  0  0  0  0
  142.4698   81.5056  224.0321 H   0  0  0  0  0  0  0  0  0  0  0  0
  142.2471   79.0696  223.7226 H   0  0  0  0  0  0  0  0  0  0  0  0
  141.1019   77.2813  219.5591 H   0  0  0  0  0  0  0  0  0  0  0  0
  142.8267   77.6274  220.0409 H   0  0  0  0  0  0  0  0  0  0  0  0
  142.2575   75.2123  219.5069 H   0  0  0  0  0  0  0  0  0  0  0  0
  143.0657   75.5551  221.0920 H   0  0  0  0  0  0  0  0  0  0  0  0
  137.5760   71.0597  223.0334 H   0  0  0  0  0  0  0  0  0  0  0  0
  138.5501   69.6234  222.5573 H   0  0  0  0  0  0  0  0  0  0  0  0
  137.5191   70.4123  225.3033 H   0  0  0  0  0  0  0  0  0  0  0  0
  137.2893   68.8688  224.3863 H   0  0  0  0  0  0  0  0  0  0  0  0
  138.3415   67.1519  225.6826 H   0  0  0  0  0  0  0  0  0  0  0  0
  140.4277   66.3049  226.8064 H   0  0  0  0  0  0  0  0  0  0  0  0
  142.3605   67.8408  227.0107 H   0  0  0  0  0  0  0  0  0  0  0  0
  142.3095   70.1370  226.1594 H   0  0  0  0  0  0  0  0  0  0  0  0
  139.4846   71.9330  225.5057 H   0  0  0  0  0  0  0  0  0  0  0  0
  141.1242   71.8570  224.8711 H   0  0  0  0  0  0  0  0  0  0  0  0
  1  2  1  0
  2  3  2  0
  2  4  1  0
  4  5  1  0
  5  6  1  0
  6  7  1  0
  7  8  2  0
  8  9  1  0
  9 10  1  0
 10 11  1  0
 11 12  1  0
 12 13  1  0
 13 14  1  0
 14 15  2  0
 15 16  1  0
 16 17  2  0
 17 18  1  0
 18 19  2  0
 13 20  1  0
 20 21  1  0
  9 22  2  0
 22 23  1  0
 23 24  1  0
 24 25  1  0
 25 26  1  0
 26 27  1  0
 27 28  2  0
 28 29  1  0
 29 30  2  0
 30 31  1  0
 31 32  2  0
 32 33  1  0
 23 34  2  0
 34  7  1  0
 21 10  1  0
 33 24  1  0
 19 14  1  0
 32 27  1  0
  1 35  1  0
  1 36  1  0
  4 37  1  0
  4 38  1  0
  5 39  1  0
  5 40  1  0
  6 41  1  0
 11 42  1  0
 11 43  1  0
 12 44  1  0
 12 45  1  0
 15 46  1  0
 16 47  1  0
 17 48  1  0
 18 49  1  0
 19 50  1  0
 20 51  1  0
 20 52  1  0
 21 53  1  0
 21 54  1  0
 25 55  1  0
 25 56  1  0
 26 57  1  0
 26 58  1  0
 28 59  1  0
 29 60  1  0
 30 61  1  0
 31 62  1  0
 33 63  1  0
 33 64  1  0
M  END
>  <smiles>  (34) 
NC(=O)CCNc1nc(N2CCN(c3ccccc3)CC2)nc(N2CCc3ccccc3C2)n1

>  <score_type>  (34) 
oracle

>  <origin>  (34) 
autodockgpu

>  <m_score__min__energy>  (34) 
-9.3900000000000006

>  <m_primary>  (34) 
energy

>  <rmsd>  (34) 
8.78722886332921

>  <m_score__min__rmsd>  (34) 
8.78722886332921

>  <meeko>  (34) 
{"free_energy": -9.05, "intermolecular_energy": -11.14, "internal_energy": -1.71, "cluster_size": 38, "cluster_id": 1, "rank_in_cluster": 5}

>  <energy>  (34) 
-8.01

>  <cluster_rmsd>  (34) 
1.69

>  <cluster>  (34) 
1

$$$$

     RDKit          3D

 64 68  0  0  0  0  0  0  0  0999 V2000
  146.6880   69.7720  217.6620 N   0  0  0  0  0  0  0  0  0  0  0  0
  145.7240   70.6350  218.2330 C   0  0  0  0  0  0  0  0  0  0  0  0
  145.9300   71.8550  218.2240 O   0  0  0  0  0  0  0  0  0  0  0  0
  144.5070   70.0060  218.8150 C   0  0  0  0  0  0  0  0  0  0  0  0
  143.8420   71.0340  219.6790 C   0  0  0  0  0  0  0  0  0  0  0  0
  142.3770   70.9770  219.6160 N   0  0  0  0  0  0  0  0  0  0  0  0
  141.6930   71.7450  220.6120 C   0  0  0  0  0  0  0  0  0  0  0  0
  141.7090   73.0780  220.5020 N   0  0  0  0  0  0  0  0  0  0  0  0
  141.0610   73.8220  221.4410 C   0  0  0  0  0  0  0  0  0  0  0  0
  141.0810   75.2270  221.3230 N   0  0  0  0  0  0  0  0  0  0  0  0
  140.1530   76.0140  222.1120 C   0  0  0  0  0  0  0  0  0  0  0  0
  140.9830   77.1590  222.6890 C   0  0  0  0  0  0  0  0  0  0  0  0
  141.3220   78.0200  221.5720 N   0  0  0  0  0  0  0  0  0  0  0  0
  141.3860   79.4230  221.6940 C   0  0  0  0  0  0  0  0  0  0  0  0
  141.1130   80.2710  220.6330 C   0  0  0  0  0  0  0  0  0  0  0  0
  141.1810   81.6530  220.7590 C   0  0  0  0  0  0  0  0  0  0  0  0
  141.5290   82.2440  221.9600 C   0  0  0  0  0  0  0  0  0  0  0  0
  141.8030   81.4100  223.0240 C   0  0  0  0  0  0  0  0  0  0  0  0
  141.7310   80.0270  222.8850 C   0  0  0  0  0  0  0  0  0  0  0  0
  141.6010   77.3800  220.3080 C   0  0  0  0  0  0  0  0  0  0  0  0
  141.9800   75.9200  220.4510 C   0  0  0  0  0  0  0  0  0  0  0  0
  140.4110   73.2220  222.4700 N   0  0  0  0  0  0  0  0  0  0  0  0
  140.3980   71.8740  222.5740 C   0  0  0  0  0  0  0  0  0  0  0  0
  139.7050   71.3050  223.6630 N   0  0  0  0  0  0  0  0  0  0  0  0
  138.4780   70.5770  223.4000 C   0  0  0  0  0  0  0  0  0  0  0  0
  138.0270   69.8540  224.6550 C   0  0  0  0  0  0  0  0  0  0  0  0
  139.1740   69.2220  225.3560 C   0  0  0  0  0  0  0  0  0  0  0  0
  139.1770   67.9250  225.8030 C   0  0  0  0  0  0  0  0  0  0  0  0
  140.3000   67.4080  226.4540 C   0  0  0  0  0  0  0  0  0  0  0  0
  141.3840   68.2550  226.6210 C   0  0  0  0  0  0  0  0  0  0  0  0
  141.4120   69.5490  226.1880 C   0  0  0  0  0  0  0  0  0  0  0  0
  140.2930   70.0400  225.5480 C   0  0  0  0  0  0  0  0  0  0  0  0
  140.2190   71.4470  225.0320 C   0  0  0  0  0  0  0  0  0  0  0  0
  141.0390   71.1380  221.6450 N   0  0  0  0  0  0  0  0  0  0  0  0
  146.9950   69.9910  216.6770 H   0  0  0  0  0  0  0  0  0  0  0  0
  147.0760   68.9580  218.1920 H   0  0  0  0  0  0  0  0  0  0  0  0
  143.8249   69.6920  218.0112 H   0  0  0  0  0  0  0  0  0  0  0  0
  144.7732   69.1162  219.4043 H   0  0  0  0  0  0  0  0  0  0  0  0
  144.1544   70.8709  220.7210 H   0  0  0  0  0  0  0  0  0  0  0  0
  144.1485   72.0230  219.3077 H   0  0  0  0  0  0  0  0  0  0  0  0
  141.8750   70.4130  218.8920 H   0  0  0  0  0  0  0  0  0  0  0  0
  139.3444   76.4061  221.4776 H   0  0  0  0  0  0  0  0  0  0  0  0
  139.6764   75.4149  222.9019 H   0  0  0  0  0  0  0  0  0  0  0  0
  140.3969   77.7159  223.4349 H   0  0  0  0  0  0  0  0  0  0  0  0
  141.8861   76.7836  223.1925 H   0  0  0  0  0  0  0  0  0  0  0  0
  140.8340   79.8371  219.6615 H   0  0  0  0  0  0  0  0  0  0  0  0
  140.9544   82.2874  219.8894 H   0  0  0  0  0  0  0  0  0  0  0  0
  141.5852   83.3377  222.0628 H   0  0  0  0  0  0  0  0  0  0  0  0
  142.0822   81.8438  223.9955 H   0  0  0  0  0  0  0  0  0  0  0  0
  141.9572   79.3936  223.7554 H   0  0  0  0  0  0  0  0  0  0  0  0
  140.7036   77.4482  219.6756 H   0  0  0  0  0  0  0  0  0  0  0  0
  142.4612   77.8995  219.8605 H   0  0  0  0  0  0  0  0  0  0  0  0
  141.9530   75.4450  219.4592 H   0  0  0  0  0  0  0  0  0  0  0  0
  142.9899   75.8667  220.8837 H   0  0  0  0  0  0  0  0  0  0  0  0
  137.6956   71.2830  223.0848 H   0  0  0  0  0  0  0  0  0  0  0  0
  138.6578   69.8406  222.6029 H   0  0  0  0  0  0  0  0  0  0  0  0
  137.5474   70.5764  225.3319 H   0  0  0  0  0  0  0  0  0  0  0  0
  137.3194   69.0634  224.3647 H   0  0  0  0  0  0  0  0  0  0  0  0
  138.2923   67.2899  225.6484 H   0  0  0  0  0  0  0  0  0  0  0  0
  140.3227   66.3706  226.8192 H   0  0  0  0  0  0  0  0  0  0  0  0
  142.2745   67.8611  227.1328 H   0  0  0  0  0  0  0  0  0  0  0  0
  142.2990   70.1805  226.3444 H   0  0  0  0  0  0  0  0  0  0  0  0
  139.5338   72.0512  225.6447 H   0  0  0  0  0  0  0  0  0  0  0  0
  141.1924   71.9583  225.0645 H   0  0  0  0  0  0  0  0  0  0  0  0
  1  2  1  0
  2  3  2  0
  2  4  1  0
  4  5  1  0
  5  6  1  0
  6  7  1  0
  7  8  2  0
  8  9  1  0
  9 10  1  0
 10 11  1  0
 11 12  1  0
 12 13  1  0
 13 14  1  0
 14 15  2  0
 15 16  1  0
 16 17  2  0
 17 18  1  0
 18 19  2  0
 13 20  1  0
 20 21  1  0
  9 22  2  0
 22 23  1  0
 23 24  1  0
 24 25  1  0
 25 26  1  0
 26 27  1  0
 27 28  2  0
 28 29  1  0
 29 30  2  0
 30 31  1  0
 31 32  2  0
 32 33  1  0
 23 34  2  0
 34  7  1  0
 21 10  1  0
 33 24  1  0
 19 14  1  0
 32 27  1  0
  1 35  1  0
  1 36  1  0
  4 37  1  0
  4 38  1  0
  5 39  1  0
  5 40  1  0
  6 41  1  0
 11 42  1  0
 11 43  1  0
 12 44  1  0
 12 45  1  0
 15 46  1  0
 16 47  1  0
 17 48  1  0
 18 49  1  0
 19 50  1  0
 20 51  1  0
 20 52  1  0
 21 53  1  0
 21 54  1  0
 25 55  1  0
 25 56  1  0
 26 57  1  0
 26 58  1  0
 28 59  1  0
 29 60  1  0
 30 61  1  0
 31 62  1  0
 33 63  1  0
 33 64  1  0
M  END
>  <smiles>  (35) 
NC(=O)CCNc1nc(N2CCN(c3ccccc3)CC2)nc(N2CCc3ccccc3C2)n1

>  <score_type>  (35) 
oracle

>  <origin>  (35) 
autodockgpu

>  <m_score__min__energy>  (35) 
-9.3900000000000006

>  <m_primary>  (35) 
energy

>  <rmsd>  (35) 
8.933727087548574

>  <m_score__min__rmsd>  (35) 
8.933727087548574

>  <meeko>  (35) 
{"free_energy": -8.99, "intermolecular_energy": -11.08, "internal_energy": -0.85, "cluster_size": 38, "cluster_id": 1, "rank_in_cluster": 9}

>  <energy>  (35) 
-7.81

>  <cluster_rmsd>  (35) 
1.14

>  <cluster>  (35) 
1

$$$$

     RDKit          3D

 64 68  0  0  0  0  0  0  0  0999 V2000
  144.2950   74.0180  219.9670 N   0  0  0  0  0  0  0  0  0  0  0  0
  144.8480   72.7180  219.9110 C   0  0  0  0  0  0  0  0  0  0  0  0
  145.9280   72.5510  219.3300 O   0  0  0  0  0  0  0  0  0  0  0  0
  144.0820   71.6230  220.5650 C   0  0  0  0  0  0  0  0  0  0  0  0
  143.4230   70.8270  219.4800 C   0  0  0  0  0  0  0  0  0  0  0  0
  141.9930   71.1230  219.3370 N   0  0  0  0  0  0  0  0  0  0  0  0
  141.4170   71.8820  220.4050 C   0  0  0  0  0  0  0  0  0  0  0  0
  141.4920   73.2160  220.3420 N   0  0  0  0  0  0  0  0  0  0  0  0
  140.9470   73.9530  221.3500 C   0  0  0  0  0  0  0  0  0  0  0  0
  141.0270   75.3580  221.2810 N   0  0  0  0  0  0  0  0  0  0  0  0
  140.0870   76.1570  222.0430 C   0  0  0  0  0  0  0  0  0  0  0  0
  140.9260   77.2490  222.7040 C   0  0  0  0  0  0  0  0  0  0  0  0
  141.3600   78.1310  221.6370 N   0  0  0  0  0  0  0  0  0  0  0  0
  141.4710   79.5260  221.8090 C   0  0  0  0  0  0  0  0  0  0  0  0
  141.3120   80.4160  220.7600 C   0  0  0  0  0  0  0  0  0  0  0  0
  141.4260   81.7890  220.9360 C   0  0  0  0  0  0  0  0  0  0  0  0
  141.7060   82.3290  222.1780 C   0  0  0  0  0  0  0  0  0  0  0  0
  141.8670   81.4530  223.2320 C   0  0  0  0  0  0  0  0  0  0  0  0
  141.7500   80.0780  223.0410 C   0  0  0  0  0  0  0  0  0  0  0  0
  141.6870   77.5200  220.3700 C   0  0  0  0  0  0  0  0  0  0  0  0
  142.0000   76.0420  220.4840 C   0  0  0  0  0  0  0  0  0  0  0  0
  140.3400   73.3440  222.4000 N   0  0  0  0  0  0  0  0  0  0  0  0
  140.2680   71.9950  222.4570 C   0  0  0  0  0  0  0  0  0  0  0  0
  139.6250   71.4170  223.5720 N   0  0  0  0  0  0  0  0  0  0  0  0
  138.3820   70.6980  223.3590 C   0  0  0  0  0  0  0  0  0  0  0  0
  137.9870   69.9630  224.6260 C   0  0  0  0  0  0  0  0  0  0  0  0
  139.1630   69.3180  225.2650 C   0  0  0  0  0  0  0  0  0  0  0  0
  139.1810   68.0160  225.6970 C   0  0  0  0  0  0  0  0  0  0  0  0
  140.3300   67.4860  226.2880 C   0  0  0  0  0  0  0  0  0  0  0  0
  141.4260   68.3260  226.4120 C   0  0  0  0  0  0  0  0  0  0  0  0
  141.4400   69.6240  225.9930 C   0  0  0  0  0  0  0  0  0  0  0  0
  140.2950   70.1280  225.4120 C   0  0  0  0  0  0  0  0  0  0  0  0
  140.2030   71.5410  224.9160 C   0  0  0  0  0  0  0  0  0  0  0  0
  140.8070   71.2670  221.4600 N   0  0  0  0  0  0  0  0  0  0  0  0
  144.9220   74.7850  220.3290 H   0  0  0  0  0  0  0  0  0  0  0  0
  143.3110   74.2080  219.6640 H   0  0  0  0  0  0  0  0  0  0  0  0
  144.7632   70.9803  221.1420 H   0  0  0  0  0  0  0  0  0  0  0  0
  143.3312   72.0334  221.2562 H   0  0  0  0  0  0  0  0  0  0  0  0
  143.9242   71.0520  218.5270 H   0  0  0  0  0  0  0  0  0  0  0  0
  143.5127   69.7648  219.7516 H   0  0  0  0  0  0  0  0  0  0  0  0
  141.4400   70.7970  218.5120 H   0  0  0  0  0  0  0  0  0  0  0  0
  139.3318   76.6013  221.3780 H   0  0  0  0  0  0  0  0  0  0  0  0
  139.5436   75.5531  222.7846 H   0  0  0  0  0  0  0  0  0  0  0  0
  140.3202   77.8048  223.4349 H   0  0  0  0  0  0  0  0  0  0  0  0
  141.7841   76.8222  223.2438 H   0  0  0  0  0  0  0  0  0  0  0  0
  141.0886   80.0236  219.7569 H   0  0  0  0  0  0  0  0  0  0  0  0
  141.2913   82.4579  220.0732 H   0  0  0  0  0  0  0  0  0  0  0  0
  141.7969   83.4160  222.3203 H   0  0  0  0  0  0  0  0  0  0  0  0
  142.0904   81.8451  224.2351 H   0  0  0  0  0  0  0  0  0  0  0  0
  141.8850   79.4091  223.9038 H   0  0  0  0  0  0  0  0  0  0  0  0
  140.8312   77.6448  219.6903 H   0  0  0  0  0  0  0  0  0  0  0  0
  142.5916   78.0177  219.9905 H   0  0  0  0  0  0  0  0  0  0  0  0
  142.0107   75.6005  219.4766 H   0  0  0  0  0  0  0  0  0  0  0  0
  142.9808   75.9341  220.9701 H   0  0  0  0  0  0  0  0  0  0  0  0
  137.5895   71.4116  223.0891 H   0  0  0  0  0  0  0  0  0  0  0  0
  138.5195   69.9700  222.5459 H   0  0  0  0  0  0  0  0  0  0  0  0
  137.5436   70.6799  225.3327 H   0  0  0  0  0  0  0  0  0  0  0  0
  137.2624   69.1789  224.3609 H   0  0  0  0  0  0  0  0  0  0  0  0
  138.2866   67.3869  225.5774 H   0  0  0  0  0  0  0  0  0  0  0  0
  140.3641   66.4446  226.6407 H   0  0  0  0  0  0  0  0  0  0  0  0
  142.3380   67.9219  226.8756 H   0  0  0  0  0  0  0  0  0  0  0  0
  142.3367   70.2495  226.1147 H   0  0  0  0  0  0  0  0  0  0  0  0
  139.5501   72.1408  225.5671 H   0  0  0  0  0  0  0  0  0  0  0  0
  141.1791   72.0481  224.9085 H   0  0  0  0  0  0  0  0  0  0  0  0
  1  2  1  0
  2  3  2  0
  2  4  1  0
  4  5  1  0
  5  6  1  0
  6  7  1  0
  7  8  2  0
  8  9  1  0
  9 10  1  0
 10 11  1  0
 11 12  1  0
 12 13  1  0
 13 14  1  0
 14 15  2  0
 15 16  1  0
 16 17  2  0
 17 18  1  0
 18 19  2  0
 13 20  1  0
 20 21  1  0
  9 22  2  0
 22 23  1  0
 23 24  1  0
 24 25  1  0
 25 26  1  0
 26 27  1  0
 27 28  2  0
 28 29  1  0
 29 30  2  0
 30 31  1  0
 31 32  2  0
 32 33  1  0
 23 34  2  0
 34  7  1  0
 21 10  1  0
 33 24  1  0
 19 14  1  0
 32 27  1  0
  1 35  1  0
  1 36  1  0
  4 37  1  0
  4 38  1  0
  5 39  1  0
  5 40  1  0
  6 41  1  0
 11 42  1  0
 11 43  1  0
 12 44  1  0
 12 45  1  0
 15 46  1  0
 16 47  1  0
 17 48  1  0
 18 49  1  0
 19 50  1  0
 20 51  1  0
 20 52  1  0
 21 53  1  0
 21 54  1  0
 25 55  1  0
 25 56  1  0
 26 57  1  0
 26 58  1  0
 28 59  1  0
 29 60  1  0
 30 61  1  0
 31 62  1  0
 33 63  1  0
 33 64  1  0
M  END
>  <smiles>  (36) 
NC(=O)CCNc1nc(N2CCN(c3ccccc3)CC2)nc(N2CCc3ccccc3C2)n1

>  <score_type>  (36) 
oracle

>  <origin>  (36) 
autodockgpu

>  <m_score__min__energy>  (36) 
-9.3900000000000006

>  <m_primary>  (36) 
energy

>  <rmsd>  (36) 
8.994999466993121

>  <m_score__min__rmsd>  (36) 
8.994999466993121

>  <meeko>  (36) 
{"free_energy": -8.99, "intermolecular_energy": -11.07, "internal_energy": -1.74, "cluster_size": 38, "cluster_id": 1, "rank_in_cluster": 10}

>  <energy>  (36) 
-7.66

>  <cluster_rmsd>  (36) 
1.54

>  <cluster>  (36) 
1

$$$$

     RDKit          3D

 64 68  0  0  0  0  0  0  0  0999 V2000
  144.5270   72.2730  220.8510 N   0  0  0  0  0  0  0  0  0  0  0  0
  145.0060   72.0170  219.5460 C   0  0  0  0  0  0  0  0  0  0  0  0
  146.0160   72.6130  219.1510 O   0  0  0  0  0  0  0  0  0  0  0  0
  144.2510   71.0320  218.7240 C   0  0  0  0  0  0  0  0  0  0  0  0
  143.2420   70.3810  219.6210 C   0  0  0  0  0  0  0  0  0  0  0  0
  141.8810   70.8890  219.4190 N   0  0  0  0  0  0  0  0  0  0  0  0
  141.3310   71.6180  220.5210 C   0  0  0  0  0  0  0  0  0  0  0  0
  141.4560   72.9490  220.5220 N   0  0  0  0  0  0  0  0  0  0  0  0
  140.9360   73.6570  221.5640 C   0  0  0  0  0  0  0  0  0  0  0  0
  141.0700   75.0600  221.5630 N   0  0  0  0  0  0  0  0  0  0  0  0
  142.1440   75.6660  220.8000 C   0  0  0  0  0  0  0  0  0  0  0  0
  141.5020   76.8360  220.0560 C   0  0  0  0  0  0  0  0  0  0  0  0
  141.1750   77.8280  221.0620 N   0  0  0  0  0  0  0  0  0  0  0  0
  141.2840   79.2120  220.8190 C   0  0  0  0  0  0  0  0  0  0  0  0
  141.3200   79.7390  219.5380 C   0  0  0  0  0  0  0  0  0  0  0  0
  141.4320   81.1040  219.3060 C   0  0  0  0  0  0  0  0  0  0  0  0
  141.5120   82.0020  220.3550 C   0  0  0  0  0  0  0  0  0  0  0  0
  141.4770   81.4900  221.6360 C   0  0  0  0  0  0  0  0  0  0  0  0
  141.3650   80.1190  221.8540 C   0  0  0  0  0  0  0  0  0  0  0  0
  140.7200   77.3420  222.3430 C   0  0  0  0  0  0  0  0  0  0  0  0
  140.1880   75.9240  222.2880 C   0  0  0  0  0  0  0  0  0  0  0  0
  140.3030   73.0220  222.5830 N   0  0  0  0  0  0  0  0  0  0  0  0
  140.1800   71.6760  222.5750 C   0  0  0  0  0  0  0  0  0  0  0  0
  139.5120   71.0690  223.6590 N   0  0  0  0  0  0  0  0  0  0  0  0
  138.3910   70.1900  223.3790 C   0  0  0  0  0  0  0  0  0  0  0  0
  137.9740   69.4660  224.6460 C   0  0  0  0  0  0  0  0  0  0  0  0
  139.1550   69.0040  225.4180 C   0  0  0  0  0  0  0  0  0  0  0  0
  139.2910   67.7340  225.9200 C   0  0  0  0  0  0  0  0  0  0  0  0
  140.4370   67.3800  226.6360 C   0  0  0  0  0  0  0  0  0  0  0  0
  141.4060   68.3570  226.8090 C   0  0  0  0  0  0  0  0  0  0  0  0
  141.3000   69.6270  226.3220 C   0  0  0  0  0  0  0  0  0  0  0  0
  140.1600   69.9560  225.6180 C   0  0  0  0  0  0  0  0  0  0  0  0
  139.9440   71.3240  225.0400 C   0  0  0  0  0  0  0  0  0  0  0  0
  140.6940   70.9760  221.5450 N   0  0  0  0  0  0  0  0  0  0  0  0
  145.2240   72.1820  221.6380 H   0  0  0  0  0  0  0  0  0  0  0  0
  143.5290   72.5380  221.0260 H   0  0  0  0  0  0  0  0  0  0  0  0
  143.7417   71.5455  217.8952 H   0  0  0  0  0  0  0  0  0  0  0  0
  144.9310   70.2815  218.2946 H   0  0  0  0  0  0  0  0  0  0  0  0
  143.2447   69.2988  219.4239 H   0  0  0  0  0  0  0  0  0  0  0  0
  143.5278   70.6111  220.6580 H   0  0  0  0  0  0  0  0  0  0  0  0
  141.3550   70.7250  218.5300 H   0  0  0  0  0  0  0  0  0  0  0  0
  142.9378   76.0256  221.4712 H   0  0  0  0  0  0  0  0  0  0  0  0
  142.6110   74.9484  220.1094 H   0  0  0  0  0  0  0  0  0  0  0  0
  142.2077   77.2548  219.3234 H   0  0  0  0  0  0  0  0  0  0  0  0
  140.6058   76.5156  219.5044 H   0  0  0  0  0  0  0  0  0  0  0  0
  141.2580   79.0555  218.6784 H   0  0  0  0  0  0  0  0  0  0  0  0
  141.4575   81.4768  218.2714 H   0  0  0  0  0  0  0  0  0  0  0  0
  141.6002   83.0836  220.1749 H   0  0  0  0  0  0  0  0  0  0  0  0
  141.5384   82.1734  222.4958 H   0  0  0  0  0  0  0  0  0  0  0  0
  141.3403   79.7467  222.8888 H   0  0  0  0  0  0  0  0  0  0  0  0
  141.5637   77.3719  223.0482 H   0  0  0  0  0  0  0  0  0  0  0  0
  139.8911   77.9903  222.6633 H   0  0  0  0  0  0  0  0  0  0  0  0
  140.0785   75.5433  223.3142 H   0  0  0  0  0  0  0  0  0  0  0  0
  139.2176   75.9395  221.7702 H   0  0  0  0  0  0  0  0  0  0  0  0
  137.5455   70.7853  223.0038 H   0  0  0  0  0  0  0  0  0  0  0  0
  138.6904   69.4510  222.6212 H   0  0  0  0  0  0  0  0  0  0  0  0
  137.3827   70.1507  225.2717 H   0  0  0  0  0  0  0  0  0  0  0  0
  137.3790   68.5854  224.3623 H   0  0  0  0  0  0  0  0  0  0  0  0
  138.4949   66.9924  225.7580 H   0  0  0  0  0  0  0  0  0  0  0  0
  140.5656   66.3674  227.0460 H   0  0  0  0  0  0  0  0  0  0  0  0
  142.3133   68.0924  227.3719 H   0  0  0  0  0  0  0  0  0  0  0  0
  142.0986   70.3656  226.4856 H   0  0  0  0  0  0  0  0  0  0  0  0
  139.1657   71.8648  225.5984 H   0  0  0  0  0  0  0  0  0  0  0  0
  140.8476   71.9493  225.0896 H   0  0  0  0  0  0  0  0  0  0  0  0
  1  2  1  0
  2  3  2  0
  2  4  1  0
  4  5  1  0
  5  6  1  0
  6  7  1  0
  7  8  2  0
  8  9  1  0
  9 10  1  0
 10 11  1  0
 11 12  1  0
 12 13  1  0
 13 14  1  0
 14 15  2  0
 15 16  1  0
 16 17  2  0
 17 18  1  0
 18 19  2  0
 13 20  1  0
 20 21  1  0
  9 22  2  0
 22 23  1  0
 23 24  1  0
 24 25  1  0
 25 26  1  0
 26 27  1  0
 27 28  2  0
 28 29  1  0
 29 30  2  0
 30 31  1  0
 31 32  2  0
 32 33  1  0
 23 34  2  0
 34  7  1  0
 21 10  1  0
 33 24  1  0
 19 14  1  0
 32 27  1  0
  1 35  1  0
  1 36  1  0
  4 37  1  0
  4 38  1  0
  5 39  1  0
  5 40  1  0
  6 41  1  0
 11 42  1  0
 11 43  1  0
 12 44  1  0
 12 45  1  0
 15 46  1  0
 16 47  1  0
 17 48  1  0
 18 49  1  0
 19 50  1  0
 20 51  1  0
 20 52  1  0
 21 53  1  0
 21 54  1  0
 25 55  1  0
 25 56  1  0
 26 57  1  0
 26 58  1  0
 28 59  1  0
 29 60  1  0
 30 61  1  0
 31 62  1  0
 33 63  1  0
 33 64  1  0
M  END
>  <smiles>  (37) 
NC(=O)CCNc1nc(N2CCN(c3ccccc3)CC2)nc(N2CCc3ccccc3C2)n1

>  <score_type>  (37) 
oracle

>  <origin>  (37) 
autodockgpu

>  <m_score__min__energy>  (37) 
-9.3900000000000006

>  <m_primary>  (37) 
energy

>  <rmsd>  (37) 
9.109085926859438

>  <m_score__min__rmsd>  (37) 
9.109085926859438

>  <meeko>  (37) 
{"free_energy": -8.46, "intermolecular_energy": -10.54, "internal_energy": -1.64, "cluster_size": 38, "cluster_id": 1, "rank_in_cluster": 25}

>  <energy>  (37) 
-7.52

>  <cluster_rmsd>  (37) 
1.44

>  <cluster>  (37) 
1

$$$$

     RDKit          3D

 64 68  0  0  0  0  0  0  0  0999 V2000
  143.4650   75.5760  220.0960 N   0  0  0  0  0  0  0  0  0  0  0  0
  144.0890   74.5280  219.3790 C   0  0  0  0  0  0  0  0  0  0  0  0
  143.7880   74.3530  218.1910 O   0  0  0  0  0  0  0  0  0  0  0  0
  145.0810   73.6970  220.1130 C   0  0  0  0  0  0  0  0  0  0  0  0
  144.3230   72.6100  220.8120 C   0  0  0  0  0  0  0  0  0  0  0  0
  143.0120   72.3440  220.2100 N   0  0  0  0  0  0  0  0  0  0  0  0
  141.8870   72.6060  221.0560 C   0  0  0  0  0  0  0  0  0  0  0  0
  141.4440   73.8650  221.1440 N   0  0  0  0  0  0  0  0  0  0  0  0
  140.3730   74.1300  221.9440 C   0  0  0  0  0  0  0  0  0  0  0  0
  139.9080   75.4570  222.0350 N   0  0  0  0  0  0  0  0  0  0  0  0
  138.5040   75.7300  221.7990 C   0  0  0  0  0  0  0  0  0  0  0  0
  138.0810   76.6780  222.9200 C   0  0  0  0  0  0  0  0  0  0  0  0
  138.7410   77.9420  222.6540 N   0  0  0  0  0  0  0  0  0  0  0  0
  138.1250   79.1830  222.9160 C   0  0  0  0  0  0  0  0  0  0  0  0
  138.6020   80.0570  223.8800 C   0  0  0  0  0  0  0  0  0  0  0  0
  137.9880   81.2770  224.1360 C   0  0  0  0  0  0  0  0  0  0  0  0
  136.8660   81.6720  223.4320 C   0  0  0  0  0  0  0  0  0  0  0  0
  136.3810   80.8120  222.4690 C   0  0  0  0  0  0  0  0  0  0  0  0
  137.0060   79.5910  222.2230 C   0  0  0  0  0  0  0  0  0  0  0  0
  140.0760   77.8870  222.1070 C   0  0  0  0  0  0  0  0  0  0  0  0
  140.7650   76.5600  222.3500 C   0  0  0  0  0  0  0  0  0  0  0  0
  139.7680   73.1340  222.6400 N   0  0  0  0  0  0  0  0  0  0  0  0
  140.2220   71.8640  222.5460 C   0  0  0  0  0  0  0  0  0  0  0  0
  139.5540   70.8700  223.2910 N   0  0  0  0  0  0  0  0  0  0  0  0
  139.3560   69.5650  222.6860 C   0  0  0  0  0  0  0  0  0  0  0  0
  138.8400   68.5870  223.7250 C   0  0  0  0  0  0  0  0  0  0  0  0
  139.5520   68.7470  225.0180 C   0  0  0  0  0  0  0  0  0  0  0  0
  140.0770   67.7030  225.7370 C   0  0  0  0  0  0  0  0  0  0  0  0
  140.7340   67.9420  226.9470 C   0  0  0  0  0  0  0  0  0  0  0  0
  140.8240   69.2580  227.3730 C   0  0  0  0  0  0  0  0  0  0  0  0
  140.3130   70.3170  226.6810 C   0  0  0  0  0  0  0  0  0  0  0  0
  139.6690   70.0600  225.4890 C   0  0  0  0  0  0  0  0  0  0  0  0
  139.0710   71.1510  224.6490 C   0  0  0  0  0  0  0  0  0  0  0  0
  141.2810   71.6020  221.7550 N   0  0  0  0  0  0  0  0  0  0  0  0
  143.4990   76.5350  219.6590 H   0  0  0  0  0  0  0  0  0  0  0  0
  142.9920   75.4040  221.0140 H   0  0  0  0  0  0  0  0  0  0  0  0
  145.8012   73.2589  219.4063 H   0  0  0  0  0  0  0  0  0  0  0  0
  145.6409   74.3079  220.8364 H   0  0  0  0  0  0  0  0  0  0  0  0
  144.9197   71.6867  220.7736 H   0  0  0  0  0  0  0  0  0  0  0  0
  144.1478   72.9445  221.8452 H   0  0  0  0  0  0  0  0  0  0  0  0
  142.9140   71.9880  219.2320 H   0  0  0  0  0  0  0  0  0  0  0  0
  138.3644   76.2075  220.8179 H   0  0  0  0  0  0  0  0  0  0  0  0
  137.9033   74.8085  221.7940 H   0  0  0  0  0  0  0  0  0  0  0  0
  136.9890   76.8100  222.9155 H   0  0  0  0  0  0  0  0  0  0  0  0
  138.3605   76.2806  223.9069 H   0  0  0  0  0  0  0  0  0  0  0  0
  139.4936   79.7765  224.4600 H   0  0  0  0  0  0  0  0  0  0  0  0
  138.4014   81.9389  224.9112 H   0  0  0  0  0  0  0  0  0  0  0  0
  136.3777   82.6371  223.6325 H   0  0  0  0  0  0  0  0  0  0  0  0
  135.4902   81.0933  221.8882 H   0  0  0  0  0  0  0  0  0  0  0  0
  136.5914   78.9294  221.4482 H   0  0  0  0  0  0  0  0  0  0  0  0
  140.0167   78.0568  221.0218 H   0  0  0  0  0  0  0  0  0  0  0  0
  140.6697   78.6619  222.6140 H   0  0  0  0  0  0  0  0  0  0  0  0
  141.6651   76.5042  221.7202 H   0  0  0  0  0  0  0  0  0  0  0  0
  141.0280   76.4985  223.4163 H   0  0  0  0  0  0  0  0  0  0  0  0
  138.6243   69.6490  221.8690 H   0  0  0  0  0  0  0  0  0  0  0  0
  140.3152   69.2001  222.2900 H   0  0  0  0  0  0  0  0  0  0  0  0
  137.7661   68.7656  223.8829 H   0  0  0  0  0  0  0  0  0  0  0  0
  139.0149   67.5653  223.3568 H   0  0  0  0  0  0  0  0  0  0  0  0
  139.9804   66.6743  225.3597 H   0  0  0  0  0  0  0  0  0  0  0  0
  141.1625   67.1189  227.5377 H   0  0  0  0  0  0  0  0  0  0  0  0
  141.3374   69.4603  228.3246 H   0  0  0  0  0  0  0  0  0  0  0  0
  140.4117   71.3441  227.0622 H   0  0  0  0  0  0  0  0  0  0  0  0
  137.9723   71.1142  224.6871 H   0  0  0  0  0  0  0  0  0  0  0  0
  139.3573   72.1543  224.9975 H   0  0  0  0  0  0  0  0  0  0  0  0
  1  2  1  0
  2  3  2  0
  2  4  1  0
  4  5  1  0
  5  6  1  0
  6  7  1  0
  7  8  2  0
  8  9  1  0
  9 10  1  0
 10 11  1  0
 11 12  1  0
 12 13  1  0
 13 14  1  0
 14 15  2  0
 15 16  1  0
 16 17  2  0
 17 18  1  0
 18 19  2  0
 13 20  1  0
 20 21  1  0
  9 22  2  0
 22 23  1  0
 23 24  1  0
 24 25  1  0
 25 26  1  0
 26 27  1  0
 27 28  2  0
 28 29  1  0
 29 30  2  0
 30 31  1  0
 31 32  2  0
 32 33  1  0
 23 34  2  0
 34  7  1  0
 21 10  1  0
 33 24  1  0
 19 14  1  0
 32 27  1  0
  1 35  1  0
  1 36  1  0
  4 37  1  0
  4 38  1  0
  5 39  1  0
  5 40  1  0
  6 41  1  0
 11 42  1  0
 11 43  1  0
 12 44  1  0
 12 45  1  0
 15 46  1  0
 16 47  1  0
 17 48  1  0
 18 49  1  0
 19 50  1  0
 20 51  1  0
 20 52  1  0
 21 53  1  0
 21 54  1  0
 25 55  1  0
 25 56  1  0
 26 57  1  0
 26 58  1  0
 28 59  1  0
 29 60  1  0
 30 61  1  0
 31 62  1  0
 33 63  1  0
 33 64  1  0
M  END
>  <smiles>  (38) 
NC(=O)CCNc1nc(N2CCN(c3ccccc3)CC2)nc(N2CCc3ccccc3C2)n1

>  <score_type>  (38) 
oracle

>  <origin>  (38) 
autodockgpu

>  <m_score__min__energy>  (38) 
-9.3900000000000006

>  <m_primary>  (38) 
energy

>  <rmsd>  (38) 
8.692830062040207

>  <m_score__min__rmsd>  (38) 
8.692830062040207

>  <meeko>  (38) 
{"free_energy": -7.76, "intermolecular_energy": -9.85, "internal_energy": -1.73, "cluster_size": 2, "cluster_id": 2, "rank_in_cluster": 2}

>  <energy>  (38) 
-7.48

>  <cluster_rmsd>  (38) 
1.98

>  <cluster>  (38) 
1

$$$$

     RDKit          3D

 64 68  0  0  0  0  0  0  0  0999 V2000
  140.9210   73.2340  219.2090 N   0  0  0  0  0  0  0  0  0  0  0  0
  140.2620   72.9720  217.9860 C   0  0  0  0  0  0  0  0  0  0  0  0
  140.8260   73.2710  216.9250 O   0  0  0  0  0  0  0  0  0  0  0  0
  138.9160   72.3430  218.0590 C   0  0  0  0  0  0  0  0  0  0  0  0
  137.9140   73.3830  217.6560 C   0  0  0  0  0  0  0  0  0  0  0  0
  137.4060   74.1620  218.7910 N   0  0  0  0  0  0  0  0  0  0  0  0
  138.3130   74.3030  219.8890 C   0  0  0  0  0  0  0  0  0  0  0  0
  138.4220   73.2870  220.7520 N   0  0  0  0  0  0  0  0  0  0  0  0
  139.2820   73.4060  221.8010 C   0  0  0  0  0  0  0  0  0  0  0  0
  139.3950   72.3330  222.7090 N   0  0  0  0  0  0  0  0  0  0  0  0
  140.7140   71.8870  223.1130 C   0  0  0  0  0  0  0  0  0  0  0  0
  140.6360   71.7090  224.6280 C   0  0  0  0  0  0  0  0  0  0  0  0
  139.7830   70.5590  224.8600 N   0  0  0  0  0  0  0  0  0  0  0  0
  140.0180   69.6450  225.9070 C   0  0  0  0  0  0  0  0  0  0  0  0
  139.9320   68.2740  225.7260 C   0  0  0  0  0  0  0  0  0  0  0  0
  140.1610   67.3790  226.7630 C   0  0  0  0  0  0  0  0  0  0  0  0
  140.4870   67.8240  228.0310 C   0  0  0  0  0  0  0  0  0  0  0  0
  140.5760   69.1870  228.2250 C   0  0  0  0  0  0  0  0  0  0  0  0
  140.3430   70.0740  227.1760 C   0  0  0  0  0  0  0  0  0  0  0  0
  138.6610   70.3810  223.9690 C   0  0  0  0  0  0  0  0  0  0  0  0
  138.2580   71.6560  223.2550 C   0  0  0  0  0  0  0  0  0  0  0  0
  140.0150   74.5360  221.9700 N   0  0  0  0  0  0  0  0  0  0  0  0
  139.8990   75.5590  221.0930 C   0  0  0  0  0  0  0  0  0  0  0  0
  140.6860   76.7090  221.3170 N   0  0  0  0  0  0  0  0  0  0  0  0
  141.1590   77.4600  220.1690 C   0  0  0  0  0  0  0  0  0  0  0  0
  141.7730   78.7700  220.6250 C   0  0  0  0  0  0  0  0  0  0  0  0
  140.9570   79.4060  221.6910 C   0  0  0  0  0  0  0  0  0  0  0  0
  140.5850   80.7260  221.6840 C   0  0  0  0  0  0  0  0  0  0  0  0
  139.8150   81.2450  222.7280 C   0  0  0  0  0  0  0  0  0  0  0  0
  139.4580   80.3770  223.7480 C   0  0  0  0  0  0  0  0  0  0  0  0
  139.8130   79.0600  223.7830 C   0  0  0  0  0  0  0  0  0  0  0  0
  140.5720   78.5670  222.7430 C   0  0  0  0  0  0  0  0  0  0  0  0
  141.0160   77.1350  222.6830 C   0  0  0  0  0  0  0  0  0  0  0  0
  139.0480   75.4410  220.0550 N   0  0  0  0  0  0  0  0  0  0  0  0
  141.9040   72.8640  219.3070 H   0  0  0  0  0  0  0  0  0  0  0  0
  140.4550   73.7700  219.9790 H   0  0  0  0  0  0  0  0  0  0  0  0
  138.8641   71.4848  217.3729 H   0  0  0  0  0  0  0  0  0  0  0  0
  138.7113   71.9795  219.0768 H   0  0  0  0  0  0  0  0  0  0  0  0
  138.3916   74.0721  216.9440 H   0  0  0  0  0  0  0  0  0  0  0  0
  137.0573   72.8577  217.2086 H   0  0  0  0  0  0  0  0  0  0  0  0
  136.4470   74.5800  218.7900 H   0  0  0  0  0  0  0  0  0  0  0  0
  140.9636   70.9329  222.6258 H   0  0  0  0  0  0  0  0  0  0  0  0
  141.4948   72.6065  222.8255 H   0  0  0  0  0  0  0  0  0  0  0  0
  141.6389   71.5289  225.0424 H   0  0  0  0  0  0  0  0  0  0  0  0
  140.2343   72.6093  225.1159 H   0  0  0  0  0  0  0  0  0  0  0  0
  139.6746   67.8826  224.7308 H   0  0  0  0  0  0  0  0  0  0  0  0
  140.0817   66.2985  226.5726 H   0  0  0  0  0  0  0  0  0  0  0  0
  140.6686   67.1175  228.8544 H   0  0  0  0  0  0  0  0  0  0  0  0
  140.8341   69.5783  229.2201 H   0  0  0  0  0  0  0  0  0  0  0  0
  140.4211   71.1544  227.3672 H   0  0  0  0  0  0  0  0  0  0  0  0
  138.9300   69.6275  223.2141 H   0  0  0  0  0  0  0  0  0  0  0  0
  137.8040   70.0642  224.5815 H   0  0  0  0  0  0  0  0  0  0  0  0
  137.5653   71.4047  222.4383 H   0  0  0  0  0  0  0  0  0  0  0  0
  137.7766   72.3232  223.9852 H   0  0  0  0  0  0  0  0  0  0  0  0
  141.9168   76.8690  219.6338 H   0  0  0  0  0  0  0  0  0  0  0  0
  140.3112   77.6712  219.5007 H   0  0  0  0  0  0  0  0  0  0  0  0
  142.7832   78.5759  221.0147 H   0  0  0  0  0  0  0  0  0  0  0  0
  141.8129   79.4533  219.7639 H   0  0  0  0  0  0  0  0  0  0  0  0
  140.8938   81.3782  220.8538 H   0  0  0  0  0  0  0  0  0  0  0  0
  139.5045   82.3002  222.7400 H   0  0  0  0  0  0  0  0  0  0  0  0
  138.8534   80.7729  224.5773 H   0  0  0  0  0  0  0  0  0  0  0  0
  139.5031   78.4114  224.6156 H   0  0  0  0  0  0  0  0  0  0  0  0
  142.0978   77.0546  222.8655 H   0  0  0  0  0  0  0  0  0  0  0  0
  140.5280   76.5117  223.4468 H   0  0  0  0  0  0  0  0  0  0  0  0
  1  2  1  0
  2  3  2  0
  2  4  1  0
  4  5  1  0
  5  6  1  0
  6  7  1  0
  7  8  2  0
  8  9  1  0
  9 10  1  0
 10 11  1  0
 11 12  1  0
 12 13  1  0
 13 14  1  0
 14 15  2  0
 15 16  1  0
 16 17  2  0
 17 18  1  0
 18 19  2  0
 13 20  1  0
 20 21  1  0
  9 22  2  0
 22 23  1  0
 23 24  1  0
 24 25  1  0
 25 26  1  0
 26 27  1  0
 27 28  2  0
 28 29  1  0
 29 30  2  0
 30 31  1  0
 31 32  2  0
 32 33  1  0
 23 34  2  0
 34  7  1  0
 21 10  1  0
 33 24  1  0
 19 14  1  0
 32 27  1  0
  1 35  1  0
  1 36  1  0
  4 37  1  0
  4 38  1  0
  5 39  1  0
  5 40  1  0
  6 41  1  0
 11 42  1  0
 11 43  1  0
 12 44  1  0
 12 45  1  0
 15 46  1  0
 16 47  1  0
 17 48  1  0
 18 49  1  0
 19 50  1  0
 20 51  1  0
 20 52  1  0
 21 53  1  0
 21 54  1  0
 25 55  1  0
 25 56  1  0
 26 57  1  0
 26 58  1  0
 28 59  1  0
 29 60  1  0
 30 61  1  0
 31 62  1  0
 33 63  1  0
 33 64  1  0
M  END
>  <smiles>  (39) 
NC(=O)CCNc1nc(N2CCN(c3ccccc3)CC2)nc(N2CCc3ccccc3C2)n1

>  <score_type>  (39) 
oracle

>  <origin>  (39) 
autodockgpu

>  <m_score__min__energy>  (39) 
-9.3900000000000006

>  <m_primary>  (39) 
energy

>  <rmsd>  (39) 
5.081543528694406

>  <m_score__min__rmsd>  (39) 
5.081543528694406

>  <meeko>  (39) 
{"free_energy": -6.41, "intermolecular_energy": -8.5, "internal_energy": -2.55, "cluster_size": 2, "cluster_id": 7, "rank_in_cluster": 2}

>  <energy>  (39) 
-8.12

>  <cluster_rmsd>  (39) 
0.0

>  <cluster>  (39) 
2

$$$$

     RDKit          3D

 64 68  0  0  0  0  0  0  0  0999 V2000
  144.2710   67.1660  219.0070 N   0  0  0  0  0  0  0  0  0  0  0  0
  144.9680   68.2430  219.6040 C   0  0  0  0  0  0  0  0  0  0  0  0
  145.9190   67.9980  220.3570 O   0  0  0  0  0  0  0  0  0  0  0  0
  144.5020   69.6190  219.2790 C   0  0  0  0  0  0  0  0  0  0  0  0
  143.0330   69.6740  219.5690 C   0  0  0  0  0  0  0  0  0  0  0  0
  142.4140   70.9410  219.1630 N   0  0  0  0  0  0  0  0  0  0  0  0
  141.7150   71.6390  220.1990 C   0  0  0  0  0  0  0  0  0  0  0  0
  141.7650   72.9750  220.2030 N   0  0  0  0  0  0  0  0  0  0  0  0
  141.1030   73.6540  221.1820 C   0  0  0  0  0  0  0  0  0  0  0  0
  141.1570   75.0620  221.1840 N   0  0  0  0  0  0  0  0  0  0  0  0
  140.1800   75.8040  221.9570 C   0  0  0  0  0  0  0  0  0  0  0  0
  140.9780   76.8780  222.6950 C   0  0  0  0  0  0  0  0  0  0  0  0
  141.4250   77.8190  221.6860 N   0  0  0  0  0  0  0  0  0  0  0  0
  141.5030   79.2050  221.9290 C   0  0  0  0  0  0  0  0  0  0  0  0
  141.8310   79.7210  223.1720 C   0  0  0  0  0  0  0  0  0  0  0  0
  141.9020   81.0890  223.4060 C   0  0  0  0  0  0  0  0  0  0  0  0
  141.6460   82.0000  222.3980 C   0  0  0  0  0  0  0  0  0  0  0  0
  141.3180   81.4990  221.1550 C   0  0  0  0  0  0  0  0  0  0  0  0
  141.2500   80.1250  220.9340 C   0  0  0  0  0  0  0  0  0  0  0  0
  141.7990   77.2780  220.4000 C   0  0  0  0  0  0  0  0  0  0  0  0
  142.1390   75.8020  220.4510 C   0  0  0  0  0  0  0  0  0  0  0  0
  140.4060   72.9850  222.1360 N   0  0  0  0  0  0  0  0  0  0  0  0
  140.3610   71.6340  222.1250 C   0  0  0  0  0  0  0  0  0  0  0  0
  139.6210   70.9930  223.1410 N   0  0  0  0  0  0  0  0  0  0  0  0
  138.8220   69.8330  222.7900 C   0  0  0  0  0  0  0  0  0  0  0  0
  138.3060   69.1610  224.0480 C   0  0  0  0  0  0  0  0  0  0  0  0
  139.3570   69.0960  225.0960 C   0  0  0  0  0  0  0  0  0  0  0  0
  139.6610   67.9610  225.8050 C   0  0  0  0  0  0  0  0  0  0  0  0
  140.6660   67.9860  226.7740 C   0  0  0  0  0  0  0  0  0  0  0  0
  141.3240   69.1890  226.9770 C   0  0  0  0  0  0  0  0  0  0  0  0
  141.0450   70.3340  226.2890 C   0  0  0  0  0  0  0  0  0  0  0  0
  140.0490   70.2880  225.3360 C   0  0  0  0  0  0  0  0  0  0  0  0
  139.6630   71.4890  224.5230 C   0  0  0  0  0  0  0  0  0  0  0  0
  141.0160   70.9630  221.1570 N   0  0  0  0  0  0  0  0  0  0  0  0
  144.8530   66.4530  218.4920 H   0  0  0  0  0  0  0  0  0  0  0  0
  143.2300   67.0830  219.0750 H   0  0  0  0  0  0  0  0  0  0  0  0
  145.0357   70.3534  219.9002 H   0  0  0  0  0  0  0  0  0  0  0  0
  144.6989   69.8568  218.2232 H   0  0  0  0  0  0  0  0  0  0  0  0
  142.5383   68.8535  219.0285 H   0  0  0  0  0  0  0  0  0  0  0  0
  142.9097   69.5825  220.6582 H   0  0  0  0  0  0  0  0  0  0  0  0
  142.4820   71.3010  218.1840 H   0  0  0  0  0  0  0  0  0  0  0  0
  139.4346   76.2663  221.2932 H   0  0  0  0  0  0  0  0  0  0  0  0
  139.6287   75.1537  222.6521 H   0  0  0  0  0  0  0  0  0  0  0  0
  140.3405   77.3859  223.4336 H   0  0  0  0  0  0  0  0  0  0  0  0
  141.8286   76.4410  223.2386 H   0  0  0  0  0  0  0  0  0  0  0  0
  142.0416   79.0269  223.9989 H   0  0  0  0  0  0  0  0  0  0  0  0
  142.1662   81.4530  224.4098 H   0  0  0  0  0  0  0  0  0  0  0  0
  141.7017   83.0834  222.5801 H   0  0  0  0  0  0  0  0  0  0  0  0
  141.1075   82.1931  220.3280 H   0  0  0  0  0  0  0  0  0  0  0  0
  140.9851   79.7615  219.9302 H   0  0  0  0  0  0  0  0  0  0  0  0
  140.9597   77.4199  219.7032 H   0  0  0  0  0  0  0  0  0  0  0  0
  142.7030   77.8112  220.0706 H   0  0  0  0  0  0  0  0  0  0  0  0
  142.1881   75.4109  219.4241 H   0  0  0  0  0  0  0  0  0  0  0  0
  143.1074   75.6885  220.9602 H   0  0  0  0  0  0  0  0  0  0  0  0
  137.9702   70.1508  222.1708 H   0  0  0  0  0  0  0  0  0  0  0  0
  139.4449   69.1209  222.2288 H   0  0  0  0  0  0  0  0  0  0  0  0
  137.4498   69.7334  224.4344 H   0  0  0  0  0  0  0  0  0  0  0  0
  138.0052   68.1338  223.7942 H   0  0  0  0  0  0  0  0  0  0  0  0
  139.1112   67.0286  225.6093 H   0  0  0  0  0  0  0  0  0  0  0  0
  140.9251   67.0873  227.3529 H   0  0  0  0  0  0  0  0  0  0  0  0
  142.1180   69.2227  227.7376 H   0  0  0  0  0  0  0  0  0  0  0  0
  141.5971   71.2644  226.4882 H   0  0  0  0  0  0  0  0  0  0  0  0
  138.6774   71.8679  224.8312 H   0  0  0  0  0  0  0  0  0  0  0  0
  140.3664   72.3253  224.6483 H   0  0  0  0  0  0  0  0  0  0  0  0
  1  2  1  0
  2  3  2  0
  2  4  1  0
  4  5  1  0
  5  6  1  0
  6  7  1  0
  7  8  2  0
  8  9  1  0
  9 10  1  0
 10 11  1  0
 11 12  1  0
 12 13  1  0
 13 14  1  0
 14 15  2  0
 15 16  1  0
 16 17  2  0
 17 18  1  0
 18 19  2  0
 13 20  1  0
 20 21  1  0
  9 22  2  0
 22 23  1  0
 23 24  1  0
 24 25  1  0
 25 26  1  0
 26 27  1  0
 27 28  2  0
 28 29  1  0
 29 30  2  0
 30 31  1  0
 31 32  2  0
 32 33  1  0
 23 34  2  0
 34  7  1  0
 21 10  1  0
 33 24  1  0
 19 14  1  0
 32 27  1  0
  1 35  1  0
  1 36  1  0
  4 37  1  0
  4 38  1  0
  5 39  1  0
  5 40  1  0
  6 41  1  0
 11 42  1  0
 11 43  1  0
 12 44  1  0
 12 45  1  0
 15 46  1  0
 16 47  1  0
 17 48  1  0
 18 49  1  0
 19 50  1  0
 20 51  1  0
 20 52  1  0
 21 53  1  0
 21 54  1  0
 25 55  1  0
 25 56  1  0
 26 57  1  0
 26 58  1  0
 28 59  1  0
 29 60  1  0
 30 61  1  0
 31 62  1  0
 33 63  1  0
 33 64  1  0
M  END
>  <smiles>  (40) 
NC(=O)CCNc1nc(N2CCN(c3ccccc3)CC2)nc(N2CCc3ccccc3C2)n1

>  <score_type>  (40) 
oracle

>  <origin>  (40) 
autodockgpu

>  <m_score__min__energy>  (40) 
-9.3900000000000006

>  <m_primary>  (40) 
energy

>  <rmsd>  (40) 
8.945459032450453

>  <m_score__min__rmsd>  (40) 
8.945459032450453

>  <meeko>  (40) 
{"free_energy": -8.66, "intermolecular_energy": -10.75, "internal_energy": -0.85, "cluster_size": 38, "cluster_id": 1, "rank_in_cluster": 20}

>  <energy>  (40) 
-7.76

>  <cluster_rmsd>  (40) 
1.48

>  <cluster>  (40) 
2

$$$$

     RDKit          3D

 64 68  0  0  0  0  0  0  0  0999 V2000
  144.2650   74.2480  220.1850 N   0  0  0  0  0  0  0  0  0  0  0  0
  144.8730   72.9830  220.0100 C   0  0  0  0  0  0  0  0  0  0  0  0
  145.9760   72.9200  219.4510 O   0  0  0  0  0  0  0  0  0  0  0  0
  144.1330   71.7960  220.5190 C   0  0  0  0  0  0  0  0  0  0  0  0
  143.5170   71.1120  219.3360 C   0  0  0  0  0  0  0  0  0  0  0  0
  142.0530   71.0490  219.4070 N   0  0  0  0  0  0  0  0  0  0  0  0
  141.4600   71.8120  220.4630 C   0  0  0  0  0  0  0  0  0  0  0  0
  141.5140   73.1460  220.3850 N   0  0  0  0  0  0  0  0  0  0  0  0
  140.9510   73.8850  221.3820 C   0  0  0  0  0  0  0  0  0  0  0  0
  141.0100   75.2910  221.2970 N   0  0  0  0  0  0  0  0  0  0  0  0
  140.1060   76.0840  222.1070 C   0  0  0  0  0  0  0  0  0  0  0  0
  140.9680   77.1920  222.7100 C   0  0  0  0  0  0  0  0  0  0  0  0
  141.3300   78.0700  221.6130 N   0  0  0  0  0  0  0  0  0  0  0  0
  141.4330   79.4670  221.7680 C   0  0  0  0  0  0  0  0  0  0  0  0
  141.2780   80.3430  220.7060 C   0  0  0  0  0  0  0  0  0  0  0  0
  141.3860   81.7190  220.8650 C   0  0  0  0  0  0  0  0  0  0  0  0
  141.6540   82.2750  222.1020 C   0  0  0  0  0  0  0  0  0  0  0  0
  141.8090   81.4140  223.1680 C   0  0  0  0  0  0  0  0  0  0  0  0
  141.7000   80.0360  222.9950 C   0  0  0  0  0  0  0  0  0  0  0  0
  141.5900   77.4520  220.3340 C   0  0  0  0  0  0  0  0  0  0  0  0
  141.9280   75.9790  220.4410 C   0  0  0  0  0  0  0  0  0  0  0  0
  140.3480   73.2780  222.4360 N   0  0  0  0  0  0  0  0  0  0  0  0
  140.2970   71.9300  222.5070 C   0  0  0  0  0  0  0  0  0  0  0  0
  139.6560   71.3540  223.6240 N   0  0  0  0  0  0  0  0  0  0  0  0
  138.4100   70.6390  223.4170 C   0  0  0  0  0  0  0  0  0  0  0  0
  138.0180   69.9050  224.6860 C   0  0  0  0  0  0  0  0  0  0  0  0
  139.1940   69.2560  225.3200 C   0  0  0  0  0  0  0  0  0  0  0  0
  139.2080   67.9540  225.7510 C   0  0  0  0  0  0  0  0  0  0  0  0
  140.3580   67.4200  226.3370 C   0  0  0  0  0  0  0  0  0  0  0  0
  141.4580   68.2560  226.4570 C   0  0  0  0  0  0  0  0  0  0  0  0
  141.4740   69.5540  226.0380 C   0  0  0  0  0  0  0  0  0  0  0  0
  140.3290   70.0610  225.4620 C   0  0  0  0  0  0  0  0  0  0  0  0
  140.2410   71.4750  224.9660 C   0  0  0  0  0  0  0  0  0  0  0  0
  140.8530   71.1990  221.5210 N   0  0  0  0  0  0  0  0  0  0  0  0
  144.8500   74.9950  220.6460 H   0  0  0  0  0  0  0  0  0  0  0  0
  143.2840   74.4320  219.8700 H   0  0  0  0  0  0  0  0  0  0  0  0
  144.8259   71.1117  221.0305 H   0  0  0  0  0  0  0  0  0  0  0  0
  143.3589   72.0997  221.2391 H   0  0  0  0  0  0  0  0  0  0  0  0
  143.8003   71.6621  218.4265 H   0  0  0  0  0  0  0  0  0  0  0  0
  143.8901   70.0773  219.3237 H   0  0  0  0  0  0  0  0  0  0  0  0
  141.4900   70.4840  218.7310 H   0  0  0  0  0  0  0  0  0  0  0  0
  139.3074   76.5135  221.4843 H   0  0  0  0  0  0  0  0  0  0  0  0
  139.6150   75.4792  222.8835 H   0  0  0  0  0  0  0  0  0  0  0  0
  140.3980   77.7470  223.4697 H   0  0  0  0  0  0  0  0  0  0  0  0
  141.8607   76.7799  223.2032 H   0  0  0  0  0  0  0  0  0  0  0  0
  141.0629   79.9368  219.7066 H   0  0  0  0  0  0  0  0  0  0  0  0
  141.2562   82.3765  219.9927 H   0  0  0  0  0  0  0  0  0  0  0  0
  141.7404   83.3640  222.2312 H   0  0  0  0  0  0  0  0  0  0  0  0
  142.0215   81.8205  224.1678 H   0  0  0  0  0  0  0  0  0  0  0  0
  141.8315   79.3792  223.8676 H   0  0  0  0  0  0  0  0  0  0  0  0
  140.6943   77.5604  219.7047 H   0  0  0  0  0  0  0  0  0  0  0  0
  142.4645   77.9574  219.8983 H   0  0  0  0  0  0  0  0  0  0  0  0
  141.8872   75.5291  219.4380 H   0  0  0  0  0  0  0  0  0  0  0  0
  142.9363   75.8866  220.8709 H   0  0  0  0  0  0  0  0  0  0  0  0
  137.6186   71.3551  223.1507 H   0  0  0  0  0  0  0  0  0  0  0  0
  138.5417   69.9104  222.6035 H   0  0  0  0  0  0  0  0  0  0  0  0
  137.5801   70.6234  225.3946 H   0  0  0  0  0  0  0  0  0  0  0  0
  137.2898   69.1233  224.4238 H   0  0  0  0  0  0  0  0  0  0  0  0
  138.3107   67.3283  225.6348 H   0  0  0  0  0  0  0  0  0  0  0  0
  140.3899   66.3784  226.6891 H   0  0  0  0  0  0  0  0  0  0  0  0
  142.3705   67.8487  226.9168 H   0  0  0  0  0  0  0  0  0  0  0  0
  142.3729   70.1769  226.1561 H   0  0  0  0  0  0  0  0  0  0  0  0
  139.5938   72.0777  225.6201 H   0  0  0  0  0  0  0  0  0  0  0  0
  141.2195   71.9774  224.9538 H   0  0  0  0  0  0  0  0  0  0  0  0
  1  2  1  0
  2  3  2  0
  2  4  1  0
  4  5  1  0
  5  6  1  0
  6  7  1  0
  7  8  2  0
  8  9  1  0
  9 10  1  0
 10 11  1  0
 11 12  1  0
 12 13  1  0
 13 14  1  0
 14 15  2  0
 15 16  1  0
 16 17  2  0
 17 18  1  0
 18 19  2  0
 13 20  1  0
 20 21  1  0
  9 22  2  0
 22 23  1  0
 23 24  1  0
 24 25  1  0
 25 26  1  0
 26 27  1  0
 27 28  2  0
 28 29  1  0
 29 30  2  0
 30 31  1  0
 31 32  2  0
 32 33  1  0
 23 34  2  0
 34  7  1  0
 21 10  1  0
 33 24  1  0
 19 14  1  0
 32 27  1  0
  1 35  1  0
  1 36  1  0
  4 37  1  0
  4 38  1  0
  5 39  1  0
  5 40  1  0
  6 41  1  0
 11 42  1  0
 11 43  1  0
 12 44  1  0
 12 45  1  0
 15 46  1  0
 16 47  1  0
 17 48  1  0
 18 49  1  0
 19 50  1  0
 20 51  1  0
 20 52  1  0
 21 53  1  0
 21 54  1  0
 25 55  1  0
 25 56  1  0
 26 57  1  0
 26 58  1  0
 28 59  1  0
 29 60  1  0
 30 61  1  0
 31 62  1  0
 33 63  1  0
 33 64  1  0
M  END
>  <smiles>  (41) 
NC(=O)CCNc1nc(N2CCN(c3ccccc3)CC2)nc(N2CCc3ccccc3C2)n1

>  <score_type>  (41) 
oracle

>  <origin>  (41) 
autodockgpu

>  <m_score__min__energy>  (41) 
-9.3900000000000006

>  <m_primary>  (41) 
energy

>  <rmsd>  (41) 
8.953898239388797

>  <m_score__min__rmsd>  (41) 
8.953898239388797

>  <meeko>  (41) 
{"free_energy": -9.02, "intermolecular_energy": -11.11, "internal_energy": -1.54, "cluster_size": 38, "cluster_id": 1, "rank_in_cluster": 7}

>  <energy>  (41) 
-7.82

>  <cluster_rmsd>  (41) 
0.0

>  <cluster>  (41) 
3

$$$$

     RDKit          3D

 64 68  0  0  0  0  0  0  0  0999 V2000
  144.1020   74.2170  218.9470 N   0  0  0  0  0  0  0  0  0  0  0  0
  144.3780   72.8570  218.6720 C   0  0  0  0  0  0  0  0  0  0  0  0
  144.0870   72.3990  217.5600 O   0  0  0  0  0  0  0  0  0  0  0  0
  145.0120   72.0590  219.7560 C   0  0  0  0  0  0  0  0  0  0  0  0
  144.0790   70.9330  220.0860 C   0  0  0  0  0  0  0  0  0  0  0  0
  142.6880   71.2110  219.7130 N   0  0  0  0  0  0  0  0  0  0  0  0
  141.9350   71.9570  220.6750 C   0  0  0  0  0  0  0  0  0  0  0  0
  141.9150   73.2900  220.5650 N   0  0  0  0  0  0  0  0  0  0  0  0
  141.2010   74.0140  221.4710 C   0  0  0  0  0  0  0  0  0  0  0  0
  141.1820   75.4180  221.3530 N   0  0  0  0  0  0  0  0  0  0  0  0
  140.2520   76.1820  222.1610 C   0  0  0  0  0  0  0  0  0  0  0  0
  141.0650   77.3490  222.7200 C   0  0  0  0  0  0  0  0  0  0  0  0
  141.3570   78.2170  221.5950 N   0  0  0  0  0  0  0  0  0  0  0  0
  141.3870   79.6210  221.7150 C   0  0  0  0  0  0  0  0  0  0  0  0
  141.5180   80.2570  222.9380 C   0  0  0  0  0  0  0  0  0  0  0  0
  141.5440   81.6420  223.0500 C   0  0  0  0  0  0  0  0  0  0  0  0
  141.4380   82.4490  221.9320 C   0  0  0  0  0  0  0  0  0  0  0  0
  141.3080   81.8280  220.7070 C   0  0  0  0  0  0  0  0  0  0  0  0
  141.2830   80.4390  220.6100 C   0  0  0  0  0  0  0  0  0  0  0  0
  141.6260   77.5830  220.3260 C   0  0  0  0  0  0  0  0  0  0  0  0
  142.0450   76.1330  220.4610 C   0  0  0  0  0  0  0  0  0  0  0  0
  140.5240   73.3930  222.4710 N   0  0  0  0  0  0  0  0  0  0  0  0
  140.5480   72.0460  222.5760 C   0  0  0  0  0  0  0  0  0  0  0  0
  139.8250   71.4550  223.6330 N   0  0  0  0  0  0  0  0  0  0  0  0
  138.6070   70.7300  223.3200 C   0  0  0  0  0  0  0  0  0  0  0  0
  138.1210   69.9820  224.5470 C   0  0  0  0  0  0  0  0  0  0  0  0
  139.2480   69.3400  225.2710 C   0  0  0  0  0  0  0  0  0  0  0  0
  139.2410   68.0350  225.6940 C   0  0  0  0  0  0  0  0  0  0  0  0
  140.3450   67.5080  226.3680 C   0  0  0  0  0  0  0  0  0  0  0  0
  141.4220   68.3540  226.5830 C   0  0  0  0  0  0  0  0  0  0  0  0
  141.4590   69.6560  226.1750 C   0  0  0  0  0  0  0  0  0  0  0  0
  140.3590   70.1560  225.5110 C   0  0  0  0  0  0  0  0  0  0  0  0
  140.2960   71.5730  225.0190 C   0  0  0  0  0  0  0  0  0  0  0  0
  141.2540   71.3300  221.6790 N   0  0  0  0  0  0  0  0  0  0  0  0
  144.4670   74.9240  218.2550 H   0  0  0  0  0  0  0  0  0  0  0  0
  143.5610   74.5040  219.7960 H   0  0  0  0  0  0  0  0  0  0  0  0
  145.9778   71.6592  219.4133 H   0  0  0  0  0  0  0  0  0  0  0  0
  145.1963   72.6840  220.6423 H   0  0  0  0  0  0  0  0  0  0  0  0
  144.4125   70.0330  219.5486 H   0  0  0  0  0  0  0  0  0  0  0  0
  144.1049   70.7943  221.1769 H   0  0  0  0  0  0  0  0  0  0  0  0
  142.2820   70.8840  218.8070 H   0  0  0  0  0  0  0  0  0  0  0  0
  139.4204   76.5528  221.5439 H   0  0  0  0  0  0  0  0  0  0  0  0
  139.8080   75.5718  222.9614 H   0  0  0  0  0  0  0  0  0  0  0  0
  140.4811   77.8914  223.4782 H   0  0  0  0  0  0  0  0  0  0  0  0
  141.9881   76.9977  223.2043 H   0  0  0  0  0  0  0  0  0  0  0  0
  141.6042   79.6470  223.8493 H   0  0  0  0  0  0  0  0  0  0  0  0
  141.6505   82.1033  224.0429 H   0  0  0  0  0  0  0  0  0  0  0  0
  141.4567   83.5456  222.0164 H   0  0  0  0  0  0  0  0  0  0  0  0
  141.2230   82.4377  219.7954 H   0  0  0  0  0  0  0  0  0  0  0  0
  141.1766   79.9783  219.6168 H   0  0  0  0  0  0  0  0  0  0  0  0
  140.7142   77.6279  219.7123 H   0  0  0  0  0  0  0  0  0  0  0  0
  142.4635   78.1237  219.8611 H   0  0  0  0  0  0  0  0  0  0  0  0
  142.0087   75.6567  219.4701 H   0  0  0  0  0  0  0  0  0  0  0  0
  143.0651   76.1054  220.8716 H   0  0  0  0  0  0  0  0  0  0  0  0
  137.8326   71.4408  222.9958 H   0  0  0  0  0  0  0  0  0  0  0  0
  138.8115   70.0095  222.5143 H   0  0  0  0  0  0  0  0  0  0  0  0
  137.6186   70.6901  225.2224 H   0  0  0  0  0  0  0  0  0  0  0  0
  137.4257   69.1948  224.2202 H   0  0  0  0  0  0  0  0  0  0  0  0
  138.3627   67.4013  225.5017 H   0  0  0  0  0  0  0  0  0  0  0  0
  140.3593   66.4640  226.7142 H   0  0  0  0  0  0  0  0  0  0  0  0
  142.2980   67.9525  227.1134 H   0  0  0  0  0  0  0  0  0  0  0  0
  142.3389   70.2867  226.3699 H   0  0  0  0  0  0  0  0  0  0  0  0
  139.5903   72.1637  225.6215 H   0  0  0  0  0  0  0  0  0  0  0  0
  141.2661   72.0865  225.0910 H   0  0  0  0  0  0  0  0  0  0  0  0
  1  2  1  0
  2  3  2  0
  2  4  1  0
  4  5  1  0
  5  6  1  0
  6  7  1  0
  7  8  2  0
  8  9  1  0
  9 10  1  0
 10 11  1  0
 11 12  1  0
 12 13  1  0
 13 14  1  0
 14 15  2  0
 15 16  1  0
 16 17  2  0
 17 18  1  0
 18 19  2  0
 13 20  1  0
 20 21  1  0
  9 22  2  0
 22 23  1  0
 23 24  1  0
 24 25  1  0
 25 26  1  0
 26 27  1  0
 27 28  2  0
 28 29  1  0
 29 30  2  0
 30 31  1  0
 31 32  2  0
 32 33  1  0
 23 34  2  0
 34  7  1  0
 21 10  1  0
 33 24  1  0
 19 14  1  0
 32 27  1  0
  1 35  1  0
  1 36  1  0
  4 37  1  0
  4 38  1  0
  5 39  1  0
  5 40  1  0
  6 41  1  0
 11 42  1  0
 11 43  1  0
 12 44  1  0
 12 45  1  0
 15 46  1  0
 16 47  1  0
 17 48  1  0
 18 49  1  0
 19 50  1  0
 20 51  1  0
 20 52  1  0
 21 53  1  0
 21 54  1  0
 25 55  1  0
 25 56  1  0
 26 57  1  0
 26 58  1  0
 28 59  1  0
 29 60  1  0
 30 61  1  0
 31 62  1  0
 33 63  1  0
 33 64  1  0
M  END
>  <smiles>  (42) 
NC(=O)CCNc1nc(N2CCN(c3ccccc3)CC2)nc(N2CCc3ccccc3C2)n1

>  <score_type>  (42) 
oracle

>  <origin>  (42) 
autodockgpu

>  <m_score__min__energy>  (42) 
-9.3900000000000006

>  <m_primary>  (42) 
energy

>  <rmsd>  (42) 
9.257215949418937

>  <m_score__min__rmsd>  (42) 
9.257215949418937

>  <meeko>  (42) 
{"free_energy": -8.2, "intermolecular_energy": -10.29, "internal_energy": -1.76, "cluster_size": 38, "cluster_id": 1, "rank_in_cluster": 30}

>  <energy>  (42) 
-7.49

>  <cluster_rmsd>  (42) 
0.92

>  <cluster>  (42) 
3

$$$$

     RDKit          3D

 64 68  0  0  0  0  0  0  0  0999 V2000
  135.5760   73.5490  223.3430 N   0  0  0  0  0  0  0  0  0  0  0  0
  134.7890   74.6960  223.0910 C   0  0  0  0  0  0  0  0  0  0  0  0
  134.7660   75.6050  223.9310 O   0  0  0  0  0  0  0  0  0  0  0  0
  134.0300   74.7330  221.8110 C   0  0  0  0  0  0  0  0  0  0  0  0
  134.9260   75.3420  220.7770 C   0  0  0  0  0  0  0  0  0  0  0  0
  135.8660   74.3790  220.1920 N   0  0  0  0  0  0  0  0  0  0  0  0
  137.1710   74.3640  220.7820 C   0  0  0  0  0  0  0  0  0  0  0  0
  137.4790   73.3550  221.6040 N   0  0  0  0  0  0  0  0  0  0  0  0
  138.7170   73.3260  222.1720 C   0  0  0  0  0  0  0  0  0  0  0  0
  139.0390   72.2620  223.0380 N   0  0  0  0  0  0  0  0  0  0  0  0
  140.4300   72.0120  223.3610 C   0  0  0  0  0  0  0  0  0  0  0  0
  140.4620   71.7880  224.8720 C   0  0  0  0  0  0  0  0  0  0  0  0
  139.8060   70.5170  225.1100 N   0  0  0  0  0  0  0  0  0  0  0  0
  140.2320   69.6240  226.1140 C   0  0  0  0  0  0  0  0  0  0  0  0
  140.6220   70.0560  227.3710 C   0  0  0  0  0  0  0  0  0  0  0  0
  141.0450   69.1710  228.3550 C   0  0  0  0  0  0  0  0  0  0  0  0
  141.0940   67.8100  228.1170 C   0  0  0  0  0  0  0  0  0  0  0  0
  140.7080   67.3660  226.8690 C   0  0  0  0  0  0  0  0  0  0  0  0
  140.2870   68.2640  225.8920 C   0  0  0  0  0  0  0  0  0  0  0  0
  138.6760   70.1910  224.2710 C   0  0  0  0  0  0  0  0  0  0  0  0
  138.0490   71.4060  223.6190 C   0  0  0  0  0  0  0  0  0  0  0  0
  139.6210   74.3030  221.9080 N   0  0  0  0  0  0  0  0  0  0  0  0
  139.3020   75.3190  221.0760 C   0  0  0  0  0  0  0  0  0  0  0  0
  140.2820   76.3070  220.8380 N   0  0  0  0  0  0  0  0  0  0  0  0
  140.1320   77.1660  219.6780 C   0  0  0  0  0  0  0  0  0  0  0  0
  141.1440   78.2950  219.7380 C   0  0  0  0  0  0  0  0  0  0  0  0
  141.2550   78.8490  221.1110 C   0  0  0  0  0  0  0  0  0  0  0  0
  141.2220   80.1910  221.4000 C   0  0  0  0  0  0  0  0  0  0  0  0
  141.3320   80.6280  222.7210 C   0  0  0  0  0  0  0  0  0  0  0  0
  141.4740   79.6590  223.7030 C   0  0  0  0  0  0  0  0  0  0  0  0
  141.5090   78.3190  223.4480 C   0  0  0  0  0  0  0  0  0  0  0  0
  141.3990   77.9080  222.1360 C   0  0  0  0  0  0  0  0  0  0  0  0
  141.4260   76.4590  221.7460 C   0  0  0  0  0  0  0  0  0  0  0  0
  138.0780   75.3480  220.5150 N   0  0  0  0  0  0  0  0  0  0  0  0
  136.5870   73.7140  223.5950 H   0  0  0  0  0  0  0  0  0  0  0  0
  135.1740   72.5840  223.2820 H   0  0  0  0  0  0  0  0  0  0  0  0
  133.7487   73.7128  221.5110 H   0  0  0  0  0  0  0  0  0  0  0  0
  133.1084   75.3230  221.9227 H   0  0  0  0  0  0  0  0  0  0  0  0
  134.3011   75.7551  219.9715 H   0  0  0  0  0  0  0  0  0  0  0  0
  135.5216   76.1207  221.2760 H   0  0  0  0  0  0  0  0  0  0  0  0
  135.5960   73.7530  219.4000 H   0  0  0  0  0  0  0  0  0  0  0  0
  140.7934   71.1188  222.8318 H   0  0  0  0  0  0  0  0  0  0  0  0
  141.0770   72.8483  223.0577 H   0  0  0  0  0  0  0  0  0  0  0  0
  141.5016   71.7527  225.2297 H   0  0  0  0  0  0  0  0  0  0  0  0
  139.9563   72.6049  225.4076 H   0  0  0  0  0  0  0  0  0  0  0  0
  140.5960   71.1322  227.5970 H   0  0  0  0  0  0  0  0  0  0  0  0
  141.3457   69.5594  229.3392 H   0  0  0  0  0  0  0  0  0  0  0  0
  141.4284   67.1069  228.8941 H   0  0  0  0  0  0  0  0  0  0  0  0
  140.7332   66.2897  226.6433 H   0  0  0  0  0  0  0  0  0  0  0  0
  139.9875   67.8748  224.9077 H   0  0  0  0  0  0  0  0  0  0  0  0
  139.0136   69.5047  223.4804 H   0  0  0  0  0  0  0  0  0  0  0  0
  137.9108   69.7333  224.9152 H   0  0  0  0  0  0  0  0  0  0  0  0
  137.3588   71.0717  222.8304 H   0  0  0  0  0  0  0  0  0  0  0  0
  137.5141   71.9748  224.3938 H   0  0  0  0  0  0  0  0  0  0  0  0
  140.2966   76.5767  218.7639 H   0  0  0  0  0  0  0  0  0  0  0  0
  139.1168   77.5893  219.6693 H   0  0  0  0  0  0  0  0  0  0  0  0
  142.1268   77.9120  219.4259 H   0  0  0  0  0  0  0  0  0  0  0  0
  140.8075   79.0983  219.0661 H   0  0  0  0  0  0  0  0  0  0  0  0
  141.1085   80.9240  220.5877 H   0  0  0  0  0  0  0  0  0  0  0  0
  141.3071   81.6984  222.9732 H   0  0  0  0  0  0  0  0  0  0  0  0
  141.5636   79.9899  224.7482 H   0  0  0  0  0  0  0  0  0  0  0  0
  141.6214   77.5893  224.2634 H   0  0  0  0  0  0  0  0  0  0  0  0
  142.3667   76.2110  221.2327 H   0  0  0  0  0  0  0  0  0  0  0  0
  141.3647   75.7882  222.6156 H   0  0  0  0  0  0  0  0  0  0  0  0
  1  2  1  0
  2  3  2  0
  2  4  1  0
  4  5  1  0
  5  6  1  0
  6  7  1  0
  7  8  2  0
  8  9  1  0
  9 10  1  0
 10 11  1  0
 11 12  1  0
 12 13  1  0
 13 14  1  0
 14 15  2  0
 15 16  1  0
 16 17  2  0
 17 18  1  0
 18 19  2  0
 13 20  1  0
 20 21  1  0
  9 22  2  0
 22 23  1  0
 23 24  1  0
 24 25  1  0
 25 26  1  0
 26 27  1  0
 27 28  2  0
 28 29  1  0
 29 30  2  0
 30 31  1  0
 31 32  2  0
 32 33  1  0
 23 34  2  0
 34  7  1  0
 21 10  1  0
 33 24  1  0
 19 14  1  0
 32 27  1  0
  1 35  1  0
  1 36  1  0
  4 37  1  0
  4 38  1  0
  5 39  1  0
  5 40  1  0
  6 41  1  0
 11 42  1  0
 11 43  1  0
 12 44  1  0
 12 45  1  0
 15 46  1  0
 16 47  1  0
 17 48  1  0
 18 49  1  0
 19 50  1  0
 20 51  1  0
 20 52  1  0
 21 53  1  0
 21 54  1  0
 25 55  1  0
 25 56  1  0
 26 57  1  0
 26 58  1  0
 28 59  1  0
 29 60  1  0
 30 61  1  0
 31 62  1  0
 33 63  1  0
 33 64  1  0
M  END
>  <smiles>  (43) 
NC(=O)CCNc1nc(N2CCN(c3ccccc3)CC2)nc(N2CCc3ccccc3C2)n1

>  <score_type>  (43) 
oracle

>  <origin>  (43) 
autodockgpu

>  <m_score__min__energy>  (43) 
-9.3900000000000006

>  <m_primary>  (43) 
energy

>  <rmsd>  (43) 
5.466486816968296

>  <m_score__min__rmsd>  (43) 
5.466486816968296

>  <meeko>  (43) 
{"free_energy": -7.04, "intermolecular_energy": -9.13, "internal_energy": -1.61, "cluster_size": 3, "cluster_id": 6, "rank_in_cluster": 1}

>  <energy>  (43) 
-7.33

>  <cluster_rmsd>  (43) 
0.76

>  <cluster>  (43) 
3

$$$$

     RDKit          3D

 64 68  0  0  0  0  0  0  0  0999 V2000
  146.2750   72.9710  221.1860 N   0  0  0  0  0  0  0  0  0  0  0  0
  145.2010   73.2520  220.3100 C   0  0  0  0  0  0  0  0  0  0  0  0
  144.5910   74.3220  220.4330 O   0  0  0  0  0  0  0  0  0  0  0  0
  144.8740   72.2260  219.2830 C   0  0  0  0  0  0  0  0  0  0  0  0
  144.0910   71.1450  219.9640 C   0  0  0  0  0  0  0  0  0  0  0  0
  142.6500   71.2260  219.7020 N   0  0  0  0  0  0  0  0  0  0  0  0
  141.8940   71.9620  220.6700 C   0  0  0  0  0  0  0  0  0  0  0  0
  141.8700   73.2950  220.5700 N   0  0  0  0  0  0  0  0  0  0  0  0
  141.1530   74.0090  221.4820 C   0  0  0  0  0  0  0  0  0  0  0  0
  141.1290   75.4140  221.3740 N   0  0  0  0  0  0  0  0  0  0  0  0
  140.2370   76.1720  222.2290 C   0  0  0  0  0  0  0  0  0  0  0  0
  141.0740   77.3350  222.7590 C   0  0  0  0  0  0  0  0  0  0  0  0
  141.3150   78.2110  221.6290 N   0  0  0  0  0  0  0  0  0  0  0  0
  141.3520   79.6150  221.7570 C   0  0  0  0  0  0  0  0  0  0  0  0
  141.0430   80.4620  220.7060 C   0  0  0  0  0  0  0  0  0  0  0  0
  141.0850   81.8450  220.8370 C   0  0  0  0  0  0  0  0  0  0  0  0
  141.4400   82.4370  222.0360 C   0  0  0  0  0  0  0  0  0  0  0  0
  141.7490   81.6040  223.0910 C   0  0  0  0  0  0  0  0  0  0  0  0
  141.7040   80.2190  222.9450 C   0  0  0  0  0  0  0  0  0  0  0  0
  141.5270   77.5870  220.3440 C   0  0  0  0  0  0  0  0  0  0  0  0
  141.9510   76.1360  220.4500 C   0  0  0  0  0  0  0  0  0  0  0  0
  140.4760   73.3790  222.4760 N   0  0  0  0  0  0  0  0  0  0  0  0
  140.5060   72.0300  222.5700 C   0  0  0  0  0  0  0  0  0  0  0  0
  139.7830   71.4290  223.6220 N   0  0  0  0  0  0  0  0  0  0  0  0
  138.5630   70.7100  223.3030 C   0  0  0  0  0  0  0  0  0  0  0  0
  138.0780   69.9490  224.5230 C   0  0  0  0  0  0  0  0  0  0  0  0
  139.2060   69.2960  225.2360 C   0  0  0  0  0  0  0  0  0  0  0  0
  139.1970   67.9860  225.6440 C   0  0  0  0  0  0  0  0  0  0  0  0
  140.3010   67.4490  226.3090 C   0  0  0  0  0  0  0  0  0  0  0  0
  141.3800   68.2900  226.5320 C   0  0  0  0  0  0  0  0  0  0  0  0
  141.4190   69.5960  226.1390 C   0  0  0  0  0  0  0  0  0  0  0  0
  140.3190   70.1070  225.4830 C   0  0  0  0  0  0  0  0  0  0  0  0
  140.2580   71.5290  225.0080 C   0  0  0  0  0  0  0  0  0  0  0  0
  141.2140   71.3240  221.6680 N   0  0  0  0  0  0  0  0  0  0  0  0
  147.0260   73.7070  221.2670 H   0  0  0  0  0  0  0  0  0  0  0  0
  146.3200   72.0760  221.7270 H   0  0  0  0  0  0  0  0  0  0  0  0
  144.2729   72.6765  218.4794 H   0  0  0  0  0  0  0  0  0  0  0  0
  145.7921   71.8178  218.8353 H   0  0  0  0  0  0  0  0  0  0  0  0
  144.4572   70.1706  219.6086 H   0  0  0  0  0  0  0  0  0  0  0  0
  144.2348   71.2688  221.0475 H   0  0  0  0  0  0  0  0  0  0  0  0
  142.2130   70.7740  218.8660 H   0  0  0  0  0  0  0  0  0  0  0  0
  139.3782   76.5470  221.6530 H   0  0  0  0  0  0  0  0  0  0  0  0
  139.8302   75.5558  223.0444 H   0  0  0  0  0  0  0  0  0  0  0  0
  140.5248   77.8717  223.5466 H   0  0  0  0  0  0  0  0  0  0  0  0
  142.0180   76.9805  223.1986 H   0  0  0  0  0  0  0  0  0  0  0  0
  140.7554   80.0268  219.7375 H   0  0  0  0  0  0  0  0  0  0  0  0
  140.8321   82.4786  219.9741 H   0  0  0  0  0  0  0  0  0  0  0  0
  141.4745   83.5311  222.1439 H   0  0  0  0  0  0  0  0  0  0  0  0
  142.0347   82.0387  224.0603 H   0  0  0  0  0  0  0  0  0  0  0  0
  141.9582   79.5857  223.8077 H   0  0  0  0  0  0  0  0  0  0  0  0
  140.5888   77.6366  219.7718 H   0  0  0  0  0  0  0  0  0  0  0  0
  142.3428   78.1314  219.8458 H   0  0  0  0  0  0  0  0  0  0  0  0
  141.8705   75.6670  219.4583 H   0  0  0  0  0  0  0  0  0  0  0  0
  142.9882   76.1059  220.8151 H   0  0  0  0  0  0  0  0  0  0  0  0
  137.7894   71.4259  222.9883 H   0  0  0  0  0  0  0  0  0  0  0  0
  138.7644   69.9984  222.4887 H   0  0  0  0  0  0  0  0  0  0  0  0
  137.5793   70.6505  225.2080 H   0  0  0  0  0  0  0  0  0  0  0  0
  137.3794   69.1675  224.1895 H   0  0  0  0  0  0  0  0  0  0  0  0
  138.3168   67.3566  225.4464 H   0  0  0  0  0  0  0  0  0  0  0  0
  140.3140   66.4008  226.6425 H   0  0  0  0  0  0  0  0  0  0  0  0
  142.2560   67.8806  227.0564 H   0  0  0  0  0  0  0  0  0  0  0  0
  142.3010   70.2221  226.3393 H   0  0  0  0  0  0  0  0  0  0  0  0
  139.5553   72.1142  225.6194 H   0  0  0  0  0  0  0  0  0  0  0  0
  141.2297   72.0391  225.0833 H   0  0  0  0  0  0  0  0  0  0  0  0
  1  2  1  0
  2  3  2  0
  2  4  1  0
  4  5  1  0
  5  6  1  0
  6  7  1  0
  7  8  2  0
  8  9  1  0
  9 10  1  0
 10 11  1  0
 11 12  1  0
 12 13  1  0
 13 14  1  0
 14 15  2  0
 15 16  1  0
 16 17  2  0
 17 18  1  0
 18 19  2  0
 13 20  1  0
 20 21  1  0
  9 22  2  0
 22 23  1  0
 23 24  1  0
 24 25  1  0
 25 26  1  0
 26 27  1  0
 27 28  2  0
 28 29  1  0
 29 30  2  0
 30 31  1  0
 31 32  2  0
 32 33  1  0
 23 34  2  0
 34  7  1  0
 21 10  1  0
 33 24  1  0
 19 14  1  0
 32 27  1  0
  1 35  1  0
  1 36  1  0
  4 37  1  0
  4 38  1  0
  5 39  1  0
  5 40  1  0
  6 41  1  0
 11 42  1  0
 11 43  1  0
 12 44  1  0
 12 45  1  0
 15 46  1  0
 16 47  1  0
 17 48  1  0
 18 49  1  0
 19 50  1  0
 20 51  1  0
 20 52  1  0
 21 53  1  0
 21 54  1  0
 25 55  1  0
 25 56  1  0
 26 57  1  0
 26 58  1  0
 28 59  1  0
 29 60  1  0
 30 61  1  0
 31 62  1  0
 33 63  1  0
 33 64  1  0
M  END
>  <smiles>  (44) 
NC(=O)CCNc1nc(N2CCN(c3ccccc3)CC2)nc(N2CCc3ccccc3C2)n1

>  <score_type>  (44) 
oracle

>  <origin>  (44) 
autodockgpu

>  <m_score__min__energy>  (44) 
-9.3900000000000006

>  <m_primary>  (44) 
energy

>  <rmsd>  (44) 
9.060387190689745

>  <m_score__min__rmsd>  (44) 
9.060387190689745

>  <meeko>  (44) 
{"free_energy": -9.12, "intermolecular_energy": -11.2, "internal_energy": -1.15, "cluster_size": 38, "cluster_id": 1, "rank_in_cluster": 3}

>  <energy>  (44) 
-7.47

>  <cluster_rmsd>  (44) 
0.0

>  <cluster>  (44) 
4

$$$$

     RDKit          3D

 64 68  0  0  0  0  0  0  0  0999 V2000
  143.7940   71.5070  221.2100 N   0  0  0  0  0  0  0  0  0  0  0  0
  144.2680   71.2200  219.9090 C   0  0  0  0  0  0  0  0  0  0  0  0
  144.9610   72.0620  219.3240 O   0  0  0  0  0  0  0  0  0  0  0  0
  143.8940   69.9040  219.3230 C   0  0  0  0  0  0  0  0  0  0  0  0
  142.4210   69.7240  219.5310 C   0  0  0  0  0  0  0  0  0  0  0  0
  141.6410   70.9150  219.1800 N   0  0  0  0  0  0  0  0  0  0  0  0
  141.1540   71.6760  220.2910 C   0  0  0  0  0  0  0  0  0  0  0  0
  141.2870   73.0060  220.2510 N   0  0  0  0  0  0  0  0  0  0  0  0
  140.8270   73.7430  221.3000 C   0  0  0  0  0  0  0  0  0  0  0  0
  140.9680   75.1450  221.2560 N   0  0  0  0  0  0  0  0  0  0  0  0
  139.9960   75.9740  221.9410 C   0  0  0  0  0  0  0  0  0  0  0  0
  140.8150   77.0260  222.6880 C   0  0  0  0  0  0  0  0  0  0  0  0
  141.3780   77.8980  221.6750 N   0  0  0  0  0  0  0  0  0  0  0  0
  141.5280   79.2860  221.8740 C   0  0  0  0  0  0  0  0  0  0  0  0
  141.9030   79.8230  223.0940 C   0  0  0  0  0  0  0  0  0  0  0  0
  142.0450   81.1910  223.2840 C   0  0  0  0  0  0  0  0  0  0  0  0
  141.8150   82.0820  222.2520 C   0  0  0  0  0  0  0  0  0  0  0  0
  141.4410   81.5610  221.0310 C   0  0  0  0  0  0  0  0  0  0  0  0
  141.3020   80.1860  220.8540 C   0  0  0  0  0  0  0  0  0  0  0  0
  141.7920   77.2860  220.4340 C   0  0  0  0  0  0  0  0  0  0  0  0
  142.0360   75.7960  220.5580 C   0  0  0  0  0  0  0  0  0  0  0  0
  140.2450   73.1390  222.3670 N   0  0  0  0  0  0  0  0  0  0  0  0
  140.1140   71.7940  222.4000 C   0  0  0  0  0  0  0  0  0  0  0  0
  139.5010   71.2200  223.5330 N   0  0  0  0  0  0  0  0  0  0  0  0
  138.2960   70.4330  223.3460 C   0  0  0  0  0  0  0  0  0  0  0  0
  137.9380   69.7190  224.6370 C   0  0  0  0  0  0  0  0  0  0  0  0
  139.1450   69.1550  225.2940 C   0  0  0  0  0  0  0  0  0  0  0  0
  139.2280   67.8700  225.7670 C   0  0  0  0  0  0  0  0  0  0  0  0
  140.4020   67.4180  226.3720 C   0  0  0  0  0  0  0  0  0  0  0  0
  141.4550   68.3150  226.4680 C   0  0  0  0  0  0  0  0  0  0  0  0
  141.4040   69.5980  226.0070 C   0  0  0  0  0  0  0  0  0  0  0  0
  140.2350   70.0250  225.4130 C   0  0  0  0  0  0  0  0  0  0  0  0
  140.0730   71.4150  224.8720 C   0  0  0  0  0  0  0  0  0  0  0  0
  140.5690   71.0640  221.3620 N   0  0  0  0  0  0  0  0  0  0  0  0
  144.5130   71.8100  221.9200 H   0  0  0  0  0  0  0  0  0  0  0  0
  142.7800   71.4210  221.4550 H   0  0  0  0  0  0  0  0  0  0  0  0
  144.1263   69.8914  218.2479 H   0  0  0  0  0  0  0  0  0  0  0  0
  144.4567   69.0903  219.8039 H   0  0  0  0  0  0  0  0  0  0  0  0
  142.0792   68.8851  218.9069 H   0  0  0  0  0  0  0  0  0  0  0  0
  142.2620   69.5317  220.6023 H   0  0  0  0  0  0  0  0  0  0  0  0
  141.4560   71.1830  218.1860 H   0  0  0  0  0  0  0  0  0  0  0  0
  139.3213   76.4542  221.2170 H   0  0  0  0  0  0  0  0  0  0  0  0
  139.3652   75.3858  222.6237 H   0  0  0  0  0  0  0  0  0  0  0  0
  140.1683   77.5999  223.3680 H   0  0  0  0  0  0  0  0  0  0  0  0
  141.6032   76.5603  223.2978 H   0  0  0  0  0  0  0  0  0  0  0  0
  142.0943   79.1448  223.9387 H   0  0  0  0  0  0  0  0  0  0  0  0
  142.3452   81.5720  224.2712 H   0  0  0  0  0  0  0  0  0  0  0  0
  141.9262   83.1664  222.3994 H   0  0  0  0  0  0  0  0  0  0  0  0
  141.2501   82.2394  220.1864 H   0  0  0  0  0  0  0  0  0  0  0  0
  141.0017   79.8053  219.8667 H   0  0  0  0  0  0  0  0  0  0  0  0
  141.0052   77.4505  219.6831 H   0  0  0  0  0  0  0  0  0  0  0  0
  142.7449   77.7509  220.1411 H   0  0  0  0  0  0  0  0  0  0  0  0
  142.1209   75.3627  219.5505 H   0  0  0  0  0  0  0  0  0  0  0  0
  142.9639   75.6448  221.1290 H   0  0  0  0  0  0  0  0  0  0  0  0
  137.4686   71.0969  223.0551 H   0  0  0  0  0  0  0  0  0  0  0  0
  138.4702   69.6870  222.5566 H   0  0  0  0  0  0  0  0  0  0  0  0
  137.4588   70.4346  225.3213 H   0  0  0  0  0  0  0  0  0  0  0  0
  137.2539   68.8914  224.3981 H   0  0  0  0  0  0  0  0  0  0  0  0
  138.3663   67.1933  225.6692 H   0  0  0  0  0  0  0  0  0  0  0  0
  140.4883   66.3913  226.7572 H   0  0  0  0  0  0  0  0  0  0  0  0
  142.3857   67.9721  226.9436 H   0  0  0  0  0  0  0  0  0  0  0  0
  142.2685   70.2710  226.1060 H   0  0  0  0  0  0  0  0  0  0  0  0
  139.3915   72.0023  225.5049 H   0  0  0  0  0  0  0  0  0  0  0  0
  141.0230   71.9689  224.8462 H   0  0  0  0  0  0  0  0  0  0  0  0
  1  2  1  0
  2  3  2  0
  2  4  1  0
  4  5  1  0
  5  6  1  0
  6  7  1  0
  7  8  2  0
  8  9  1  0
  9 10  1  0
 10 11  1  0
 11 12  1  0
 12 13  1  0
 13 14  1  0
 14 15  2  0
 15 16  1  0
 16 17  2  0
 17 18  1  0
 18 19  2  0
 13 20  1  0
 20 21  1  0
  9 22  2  0
 22 23  1  0
 23 24  1  0
 24 25  1  0
 25 26  1  0
 26 27  1  0
 27 28  2  0
 28 29  1  0
 29 30  2  0
 30 31  1  0
 31 32  2  0
 32 33  1  0
 23 34  2  0
 34  7  1  0
 21 10  1  0
 33 24  1  0
 19 14  1  0
 32 27  1  0
  1 35  1  0
  1 36  1  0
  4 37  1  0
  4 38  1  0
  5 39  1  0
  5 40  1  0
  6 41  1  0
 11 42  1  0
 11 43  1  0
 12 44  1  0
 12 45  1  0
 15 46  1  0
 16 47  1  0
 17 48  1  0
 18 49  1  0
 19 50  1  0
 20 51  1  0
 20 52  1  0
 21 53  1  0
 21 54  1  0
 25 55  1  0
 25 56  1  0
 26 57  1  0
 26 58  1  0
 28 59  1  0
 29 60  1  0
 30 61  1  0
 31 62  1  0
 33 63  1  0
 33 64  1  0
M  END
>  <smiles>  (45) 
NC(=O)CCNc1nc(N2CCN(c3ccccc3)CC2)nc(N2CCc3ccccc3C2)n1

>  <score_type>  (45) 
oracle

>  <origin>  (45) 
autodockgpu

>  <m_score__min__energy>  (45) 
-9.3900000000000006

>  <m_primary>  (45) 
energy

>  <rmsd>  (45) 
9.014842556747993

>  <m_score__min__rmsd>  (45) 
9.014842556747993

>  <meeko>  (45) 
{"free_energy": -8.32, "intermolecular_energy": -10.41, "internal_energy": -1.58, "cluster_size": 38, "cluster_id": 1, "rank_in_cluster": 28}

>  <energy>  (45) 
-7.15

>  <cluster_rmsd>  (45) 
0.0

>  <cluster>  (45) 
5

$$$$

     RDKit          3D

 64 68  0  0  0  0  0  0  0  0999 V2000
  144.4830   73.8370  220.7580 N   0  0  0  0  0  0  0  0  0  0  0  0
  145.0630   72.7820  220.0160 C   0  0  0  0  0  0  0  0  0  0  0  0
  146.0750   73.0090  219.3410 O   0  0  0  0  0  0  0  0  0  0  0  0
  144.4060   71.4490  220.1010 C   0  0  0  0  0  0  0  0  0  0  0  0
  143.7080   71.2110  218.7970 C   0  0  0  0  0  0  0  0  0  0  0  0
  142.2810   70.9100  218.9560 N   0  0  0  0  0  0  0  0  0  0  0  0
  141.6320   71.5830  220.0410 C   0  0  0  0  0  0  0  0  0  0  0  0
  141.6950   72.9180  220.0840 N   0  0  0  0  0  0  0  0  0  0  0  0
  141.0820   73.5720  221.1090 C   0  0  0  0  0  0  0  0  0  0  0  0
  141.1500   74.9790  221.1520 N   0  0  0  0  0  0  0  0  0  0  0  0
  140.2000   75.7070  221.9700 C   0  0  0  0  0  0  0  0  0  0  0  0
  141.0260   76.7500  222.7200 C   0  0  0  0  0  0  0  0  0  0  0  0
  141.4580   77.7170  221.7290 N   0  0  0  0  0  0  0  0  0  0  0  0
  141.5560   79.0940  222.0120 C   0  0  0  0  0  0  0  0  0  0  0  0
  141.2270   80.0660  221.0820 C   0  0  0  0  0  0  0  0  0  0  0  0
  141.3300   81.4220  221.3650 C   0  0  0  0  0  0  0  0  0  0  0  0
  141.7700   81.8610  222.6010 C   0  0  0  0  0  0  0  0  0  0  0  0
  142.1000   80.9030  223.5370 C   0  0  0  0  0  0  0  0  0  0  0  0
  141.9930   79.5470  223.2390 C   0  0  0  0  0  0  0  0  0  0  0  0
  141.7970   77.2110  220.4190 C   0  0  0  0  0  0  0  0  0  0  0  0
  142.1220   75.7310  220.4180 C   0  0  0  0  0  0  0  0  0  0  0  0
  140.4180   72.8800  222.0710 N   0  0  0  0  0  0  0  0  0  0  0  0
  140.3590   71.5310  222.0200 C   0  0  0  0  0  0  0  0  0  0  0  0
  139.6550   70.8650  223.0460 N   0  0  0  0  0  0  0  0  0  0  0  0
  139.1960   69.5090  222.8050 C   0  0  0  0  0  0  0  0  0  0  0  0
  138.6810   68.9000  224.0960 C   0  0  0  0  0  0  0  0  0  0  0  0
  139.5690   69.2320  225.2400 C   0  0  0  0  0  0  0  0  0  0  0  0
  140.0250   68.3090  226.1470 C   0  0  0  0  0  0  0  0  0  0  0  0
  140.8580   68.7060  227.1960 C   0  0  0  0  0  0  0  0  0  0  0  0
  141.1900   70.0500  227.2710 C   0  0  0  0  0  0  0  0  0  0  0  0
  140.7530   70.9910  226.3850 C   0  0  0  0  0  0  0  0  0  0  0  0
  139.9310   70.5780  225.3570 C   0  0  0  0  0  0  0  0  0  0  0  0
  139.3950   71.5310  224.3290 C   0  0  0  0  0  0  0  0  0  0  0  0
  140.9660   70.8840  221.0060 N   0  0  0  0  0  0  0  0  0  0  0  0
  145.1260   74.3750  221.3990 H   0  0  0  0  0  0  0  0  0  0  0  0
  143.4670   74.0720  220.6730 H   0  0  0  0  0  0  0  0  0  0  0  0
  145.1612   70.6676  220.2716 H   0  0  0  0  0  0  0  0  0  0  0  0
  143.6905   71.4206  220.9360 H   0  0  0  0  0  0  0  0  0  0  0  0
  143.8086   72.1133  218.1760 H   0  0  0  0  0  0  0  0  0  0  0  0
  144.1784   70.3343  218.3278 H   0  0  0  0  0  0  0  0  0  0  0  0
  141.7800   70.2500  218.3180 H   0  0  0  0  0  0  0  0  0  0  0  0
  139.4439   76.1964  221.3384 H   0  0  0  0  0  0  0  0  0  0  0  0
  139.6588   75.0415  222.6586 H   0  0  0  0  0  0  0  0  0  0  0  0
  140.4117   77.2412  223.4889 H   0  0  0  0  0  0  0  0  0  0  0  0
  141.8850   76.2888  223.2294 H   0  0  0  0  0  0  0  0  0  0  0  0
  140.8731   79.7545  220.0882 H   0  0  0  0  0  0  0  0  0  0  0  0
  141.0575   82.1582  220.5944 H   0  0  0  0  0  0  0  0  0  0  0  0
  141.8536   82.9339  222.8288 H   0  0  0  0  0  0  0  0  0  0  0  0
  142.4522   81.2142  224.5315 H   0  0  0  0  0  0  0  0  0  0  0  0
  142.2667   78.8112  224.0095 H   0  0  0  0  0  0  0  0  0  0  0  0
  140.9438   77.3823  219.7462 H   0  0  0  0  0  0  0  0  0  0  0  0
  142.6991   77.7446  220.0852 H   0  0  0  0  0  0  0  0  0  0  0  0
  142.1425   75.3704  219.3790 H   0  0  0  0  0  0  0  0  0  0  0  0
  143.1009   75.5927  220.9004 H   0  0  0  0  0  0  0  0  0  0  0  0
  138.3860   69.5251  222.0609 H   0  0  0  0  0  0  0  0  0  0  0  0
  140.0347   68.9046  222.4292 H   0  0  0  0  0  0  0  0  0  0  0  0
  137.6730   69.2904  224.2995 H   0  0  0  0  0  0  0  0  0  0  0  0
  138.6580   67.8064  223.9796 H   0  0  0  0  0  0  0  0  0  0  0  0
  139.7337   67.2529  226.0479 H   0  0  0  0  0  0  0  0  0  0  0  0
  141.2352   67.9815  227.9327 H   0  0  0  0  0  0  0  0  0  0  0  0
  141.8440   70.3768  228.0929 H   0  0  0  0  0  0  0  0  0  0  0  0
  141.0470   72.0461  226.4872 H   0  0  0  0  0  0  0  0  0  0  0  0
  138.3165   71.6928  224.4725 H   0  0  0  0  0  0  0  0  0  0  0  0
  139.8655   72.5234  224.3902 H   0  0  0  0  0  0  0  0  0  0  0  0
  1  2  1  0
  2  3  2  0
  2  4  1  0
  4  5  1  0
  5  6  1  0
  6  7  1  0
  7  8  2  0
  8  9  1  0
  9 10  1  0
 10 11  1  0
 11 12  1  0
 12 13  1  0
 13 14  1  0
 14 15  2  0
 15 16  1  0
 16 17  2  0
 17 18  1  0
 18 19  2  0
 13 20  1  0
 20 21  1  0
  9 22  2  0
 22 23  1  0
 23 24  1  0
 24 25  1  0
 25 26  1  0
 26 27  1  0
 27 28  2  0
 28 29  1  0
 29 30  2  0
 30 31  1  0
 31 32  2  0
 32 33  1  0
 23 34  2  0
 34  7  1  0
 21 10  1  0
 33 24  1  0
 19 14  1  0
 32 27  1  0
  1 35  1  0
  1 36  1  0
  4 37  1  0
  4 38  1  0
  5 39  1  0
  5 40  1  0
  6 41  1  0
 11 42  1  0
 11 43  1  0
 12 44  1  0
 12 45  1  0
 15 46  1  0
 16 47  1  0
 17 48  1  0
 18 49  1  0
 19 50  1  0
 20 51  1  0
 20 52  1  0
 21 53  1  0
 21 54  1  0
 25 55  1  0
 25 56  1  0
 26 57  1  0
 26 58  1  0
 28 59  1  0
 29 60  1  0
 30 61  1  0
 31 62  1  0
 33 63  1  0
 33 64  1  0
M  END
>  <smiles>  (46) 
NC(=O)CCNc1nc(N2CCN(c3ccccc3)CC2)nc(N2CCc3ccccc3C2)n1

>  <score_type>  (46) 
oracle

>  <origin>  (46) 
autodockgpu

>  <m_score__min__energy>  (46) 
-9.3900000000000006

>  <m_primary>  (46) 
energy

>  <rmsd>  (46) 
8.671068840305322

>  <m_score__min__rmsd>  (46) 
8.671068840305322

>  <meeko>  (46) 
{"free_energy": -8.51, "intermolecular_energy": -10.6, "internal_energy": -1.71, "cluster_size": 38, "cluster_id": 1, "rank_in_cluster": 24}

>  <energy>  (46) 
-7.04

>  <cluster_rmsd>  (46) 
0.0

>  <cluster>  (46) 
6

$$$$

     RDKit          3D

 64 68  0  0  0  0  0  0  0  0999 V2000
  144.3910   73.7590  218.7060 N   0  0  0  0  0  0  0  0  0  0  0  0
  145.1850   72.6040  218.8930 C   0  0  0  0  0  0  0  0  0  0  0  0
  145.9180   72.2240  217.9710 O   0  0  0  0  0  0  0  0  0  0  0  0
  145.0830   71.9130  220.2080 C   0  0  0  0  0  0  0  0  0  0  0  0
  144.0050   70.8790  220.0870 C   0  0  0  0  0  0  0  0  0  0  0  0
  142.7390   71.4240  219.5870 N   0  0  0  0  0  0  0  0  0  0  0  0
  141.9590   72.1400  220.5510 C   0  0  0  0  0  0  0  0  0  0  0  0
  141.9200   73.4740  220.4630 N   0  0  0  0  0  0  0  0  0  0  0  0
  141.1810   74.1710  221.3720 C   0  0  0  0  0  0  0  0  0  0  0  0
  141.1410   75.5760  221.2780 N   0  0  0  0  0  0  0  0  0  0  0  0
  140.2310   76.3150  222.1310 C   0  0  0  0  0  0  0  0  0  0  0  0
  141.0480   77.4820  222.6810 C   0  0  0  0  0  0  0  0  0  0  0  0
  141.2920   78.3730  221.5620 N   0  0  0  0  0  0  0  0  0  0  0  0
  141.3100   79.7750  221.7050 C   0  0  0  0  0  0  0  0  0  0  0  0
  141.7870   80.3970  222.8460 C   0  0  0  0  0  0  0  0  0  0  0  0
  141.7990   81.7800  222.9820 C   0  0  0  0  0  0  0  0  0  0  0  0
  141.3290   82.5990  221.9720 C   0  0  0  0  0  0  0  0  0  0  0  0
  140.8510   81.9920  220.8290 C   0  0  0  0  0  0  0  0  0  0  0  0
  140.8450   80.6050  220.7070 C   0  0  0  0  0  0  0  0  0  0  0  0
  141.5240   77.7630  220.2740 C   0  0  0  0  0  0  0  0  0  0  0  0
  141.9650   76.3170  220.3700 C   0  0  0  0  0  0  0  0  0  0  0  0
  140.4980   73.5220  222.3490 N   0  0  0  0  0  0  0  0  0  0  0  0
  140.5420   72.1730  222.4310 C   0  0  0  0  0  0  0  0  0  0  0  0
  139.8120   71.5520  223.4660 N   0  0  0  0  0  0  0  0  0  0  0  0
  138.6150   70.8080  223.1200 C   0  0  0  0  0  0  0  0  0  0  0  0
  138.1210   70.0330  224.3270 C   0  0  0  0  0  0  0  0  0  0  0  0
  139.2480   69.4020  225.0610 C   0  0  0  0  0  0  0  0  0  0  0  0
  139.2590   68.0900  225.4640 C   0  0  0  0  0  0  0  0  0  0  0  0
  140.3610   67.5740  226.1500 C   0  0  0  0  0  0  0  0  0  0  0  0
  141.4180   68.4380  226.3970 C   0  0  0  0  0  0  0  0  0  0  0  0
  141.4370   69.7460  226.0090 C   0  0  0  0  0  0  0  0  0  0  0  0
  140.3390   70.2350  225.3330 C   0  0  0  0  0  0  0  0  0  0  0  0
  140.2570   71.6570  224.8620 C   0  0  0  0  0  0  0  0  0  0  0  0
  141.2730   71.4850  221.5320 N   0  0  0  0  0  0  0  0  0  0  0  0
  144.8890   74.6280  218.3770 H   0  0  0  0  0  0  0  0  0  0  0  0
  143.3590   73.7490  218.8860 H   0  0  0  0  0  0  0  0  0  0  0  0
  146.0405   71.4311  220.4551 H   0  0  0  0  0  0  0  0  0  0  0  0
  144.8456   72.6307  221.0071 H   0  0  0  0  0  0  0  0  0  0  0  0
  144.3470   70.0960  219.3942 H   0  0  0  0  0  0  0  0  0  0  0  0
  143.8160   70.4826  221.0955 H   0  0  0  0  0  0  0  0  0  0  0  0
  142.4330   71.2930  218.5960 H   0  0  0  0  0  0  0  0  0  0  0  0
  139.3738   76.6855  221.5496 H   0  0  0  0  0  0  0  0  0  0  0  0
  139.8231   75.6860  222.9360 H   0  0  0  0  0  0  0  0  0  0  0  0
  140.4838   78.0044  223.4676 H   0  0  0  0  0  0  0  0  0  0  0  0
  141.9912   77.1339  223.1273 H   0  0  0  0  0  0  0  0  0  0  0  0
  142.1685   79.7772  223.6708 H   0  0  0  0  0  0  0  0  0  0  0  0
  142.1883   82.2299  223.9072 H   0  0  0  0  0  0  0  0  0  0  0  0
  141.3359   83.6941  222.0760 H   0  0  0  0  0  0  0  0  0  0  0  0
  140.4699   82.6115  220.0038 H   0  0  0  0  0  0  0  0  0  0  0  0
  140.4555   80.1555  219.7817 H   0  0  0  0  0  0  0  0  0  0  0  0
  140.5907   77.8062  219.6934 H   0  0  0  0  0  0  0  0  0  0  0  0
  142.3381   78.3218  219.7892 H   0  0  0  0  0  0  0  0  0  0  0  0
  141.9014   75.8570  219.3728 H   0  0  0  0  0  0  0  0  0  0  0  0
  142.9986   76.2956  220.7459 H   0  0  0  0  0  0  0  0  0  0  0  0
  137.8329   71.5081  222.7911 H   0  0  0  0  0  0  0  0  0  0  0  0
  138.8489   70.1033  222.3084 H   0  0  0  0  0  0  0  0  0  0  0  0
  137.5934   70.7214  225.0035 H   0  0  0  0  0  0  0  0  0  0  0  0
  137.4460   69.2381  223.9770 H   0  0  0  0  0  0  0  0  0  0  0  0
  138.3969   67.4425  225.2460 H   0  0  0  0  0  0  0  0  0  0  0  0
  140.3896   66.5253  226.4809 H   0  0  0  0  0  0  0  0  0  0  0  0
  142.2921   68.0455  226.9374 H   0  0  0  0  0  0  0  0  0  0  0  0
  142.3011   70.3903  226.2286 H   0  0  0  0  0  0  0  0  0  0  0  0
  139.5298   72.2246  225.4611 H   0  0  0  0  0  0  0  0  0  0  0  0
  141.2157   72.1876  224.9587 H   0  0  0  0  0  0  0  0  0  0  0  0
  1  2  1  0
  2  3  2  0
  2  4  1  0
  4  5  1  0
  5  6  1  0
  6  7  1  0
  7  8  2  0
  8  9  1  0
  9 10  1  0
 10 11  1  0
 11 12  1  0
 12 13  1  0
 13 14  1  0
 14 15  2  0
 15 16  1  0
 16 17  2  0
 17 18  1  0
 18 19  2  0
 13 20  1  0
 20 21  1  0
  9 22  2  0
 22 23  1  0
 23 24  1  0
 24 25  1  0
 25 26  1  0
 26 27  1  0
 27 28  2  0
 28 29  1  0
 29 30  2  0
 30 31  1  0
 31 32  2  0
 32 33  1  0
 23 34  2  0
 34  7  1  0
 21 10  1  0
 33 24  1  0
 19 14  1  0
 32 27  1  0
  1 35  1  0
  1 36  1  0
  4 37  1  0
  4 38  1  0
  5 39  1  0
  5 40  1  0
  6 41  1  0
 11 42  1  0
 11 43  1  0
 12 44  1  0
 12 45  1  0
 15 46  1  0
 16 47  1  0
 17 48  1  0
 18 49  1  0
 19 50  1  0
 20 51  1  0
 20 52  1  0
 21 53  1  0
 21 54  1  0
 25 55  1  0
 25 56  1  0
 26 57  1  0
 26 58  1  0
 28 59  1  0
 29 60  1  0
 30 61  1  0
 31 62  1  0
 33 63  1  0
 33 64  1  0
M  END
>  <smiles>  (47) 
NC(=O)CCNc1nc(N2CCN(c3ccccc3)CC2)nc(N2CCc3ccccc3C2)n1

>  <score_type>  (47) 
oracle

>  <origin>  (47) 
autodockgpu

>  <m_score__min__energy>  (47) 
-9.3900000000000006

>  <m_primary>  (47) 
energy

>  <rmsd>  (47) 
9.338552712561654

>  <m_score__min__rmsd>  (47) 
9.338552712561654

>  <meeko>  (47) 
{"free_energy": -8.83, "intermolecular_energy": -10.92, "internal_energy": -1.66, "cluster_size": 38, "cluster_id": 1, "rank_in_cluster": 16}

>  <energy>  (47) 
-6.91

>  <cluster_rmsd>  (47) 
0.77

>  <cluster>  (47) 
6

$$$$

     RDKit          3D

 64 68  0  0  0  0  0  0  0  0999 V2000
  144.2830   74.0310  218.8260 N   0  0  0  0  0  0  0  0  0  0  0  0
  145.1070   72.9000  219.0300 C   0  0  0  0  0  0  0  0  0  0  0  0
  145.9020   72.5690  218.1400 O   0  0  0  0  0  0  0  0  0  0  0  0
  144.9610   72.1750  220.3210 C   0  0  0  0  0  0  0  0  0  0  0  0
  144.0730   70.9930  220.0720 C   0  0  0  0  0  0  0  0  0  0  0  0
  142.7290   71.3690  219.6200 N   0  0  0  0  0  0  0  0  0  0  0  0
  141.9410   72.0860  220.5760 C   0  0  0  0  0  0  0  0  0  0  0  0
  141.8950   73.4200  220.4830 N   0  0  0  0  0  0  0  0  0  0  0  0
  141.1480   74.1160  221.3850 C   0  0  0  0  0  0  0  0  0  0  0  0
  141.1020   75.5210  221.2840 N   0  0  0  0  0  0  0  0  0  0  0  0
  140.2350   76.2640  222.1770 C   0  0  0  0  0  0  0  0  0  0  0  0
  141.0770   77.4360  222.6780 C   0  0  0  0  0  0  0  0  0  0  0  0
  141.2620   78.3190  221.5430 N   0  0  0  0  0  0  0  0  0  0  0  0
  141.2850   79.7230  221.6750 C   0  0  0  0  0  0  0  0  0  0  0  0
  140.9060   80.5700  220.6470 C   0  0  0  0  0  0  0  0  0  0  0  0
  140.9350   81.9520  220.7830 C   0  0  0  0  0  0  0  0  0  0  0  0
  141.3480   82.5440  221.9620 C   0  0  0  0  0  0  0  0  0  0  0  0
  141.7280   81.7120  222.9950 C   0  0  0  0  0  0  0  0  0  0  0  0
  141.6940   80.3280  222.8450 C   0  0  0  0  0  0  0  0  0  0  0  0
  141.4300   77.7020  220.2480 C   0  0  0  0  0  0  0  0  0  0  0  0
  141.8770   76.2570  220.3310 C   0  0  0  0  0  0  0  0  0  0  0  0
  140.4640   73.4680  222.3620 N   0  0  0  0  0  0  0  0  0  0  0  0
  140.5150   72.1200  222.4500 C   0  0  0  0  0  0  0  0  0  0  0  0
  139.7830   71.5000  223.4840 N   0  0  0  0  0  0  0  0  0  0  0  0
  138.5850   70.7590  223.1380 C   0  0  0  0  0  0  0  0  0  0  0  0
  138.0890   69.9840  224.3440 C   0  0  0  0  0  0  0  0  0  0  0  0
  139.2150   69.3500  225.0780 C   0  0  0  0  0  0  0  0  0  0  0  0
  139.2230   68.0380  225.4800 C   0  0  0  0  0  0  0  0  0  0  0  0
  140.3230   67.5190  226.1650 C   0  0  0  0  0  0  0  0  0  0  0  0
  141.3820   68.3800  226.4130 C   0  0  0  0  0  0  0  0  0  0  0  0
  141.4030   69.6880  226.0260 C   0  0  0  0  0  0  0  0  0  0  0  0
  140.3070   70.1800  225.3500 C   0  0  0  0  0  0  0  0  0  0  0  0
  140.2280   71.6030  224.8800 C   0  0  0  0  0  0  0  0  0  0  0  0
  141.2540   71.4320  221.5580 N   0  0  0  0  0  0  0  0  0  0  0  0
  144.7670   74.9250  218.5430 H   0  0  0  0  0  0  0  0  0  0  0  0
  143.2450   73.9810  218.9500 H   0  0  0  0  0  0  0  0  0  0  0  0
  145.9458   71.8375  220.6764 H   0  0  0  0  0  0  0  0  0  0  0  0
  144.5275   72.8322  221.0892 H   0  0  0  0  0  0  0  0  0  0  0  0
  144.5382   70.3618  219.3005 H   0  0  0  0  0  0  0  0  0  0  0  0
  143.9608   70.4595  221.0274 H   0  0  0  0  0  0  0  0  0  0  0  0
  142.3780   71.1260  218.6650 H   0  0  0  0  0  0  0  0  0  0  0  0
  139.3490   76.6296  221.6373 H   0  0  0  0  0  0  0  0  0  0  0  0
  139.8692   75.6395  223.0054 H   0  0  0  0  0  0  0  0  0  0  0  0
  140.5524   77.9627  223.4887 H   0  0  0  0  0  0  0  0  0  0  0  0
  142.0421   77.0924  223.0785 H   0  0  0  0  0  0  0  0  0  0  0  0
  140.5718   80.1350  219.6936 H   0  0  0  0  0  0  0  0  0  0  0  0
  140.6244   82.5855  219.9391 H   0  0  0  0  0  0  0  0  0  0  0  0
  141.3728   83.6382  222.0725 H   0  0  0  0  0  0  0  0  0  0  0  0
  142.0618   82.1472  223.9485 H   0  0  0  0  0  0  0  0  0  0  0  0
  142.0043   79.6950  223.6894 H   0  0  0  0  0  0  0  0  0  0  0  0
  140.4688   77.7409  219.7145 H   0  0  0  0  0  0  0  0  0  0  0  0
  142.2177   78.2589  219.7194 H   0  0  0  0  0  0  0  0  0  0  0  0
  141.7633   75.7904  219.3414 H   0  0  0  0  0  0  0  0  0  0  0  0
  142.9283   76.2394  220.6542 H   0  0  0  0  0  0  0  0  0  0  0  0
  137.8044   71.4610  222.8097 H   0  0  0  0  0  0  0  0  0  0  0  0
  138.8178   70.0542  222.3261 H   0  0  0  0  0  0  0  0  0  0  0  0
  137.5625   70.6728  225.0210 H   0  0  0  0  0  0  0  0  0  0  0  0
  137.4125   69.1908  223.9931 H   0  0  0  0  0  0  0  0  0  0  0  0
  138.3593   67.3928  225.2616 H   0  0  0  0  0  0  0  0  0  0  0  0
  140.3490   66.4699  226.4947 H   0  0  0  0  0  0  0  0  0  0  0  0
  142.2553   67.9852  226.9529 H   0  0  0  0  0  0  0  0  0  0  0  0
  142.2682   70.3305  226.2467 H   0  0  0  0  0  0  0  0  0  0  0  0
  139.5019   72.1716  225.4795 H   0  0  0  0  0  0  0  0  0  0  0  0
  141.1878   72.1316  224.9772 H   0  0  0  0  0  0  0  0  0  0  0  0
  1  2  1  0
  2  3  2  0
  2  4  1  0
  4  5  1  0
  5  6  1  0
  6  7  1  0
  7  8  2  0
  8  9  1  0
  9 10  1  0
 10 11  1  0
 11 12  1  0
 12 13  1  0
 13 14  1  0
 14 15  2  0
 15 16  1  0
 16 17  2  0
 17 18  1  0
 18 19  2  0
 13 20  1  0
 20 21  1  0
  9 22  2  0
 22 23  1  0
 23 24  1  0
 24 25  1  0
 25 26  1  0
 26 27  1  0
 27 28  2  0
 28 29  1  0
 29 30  2  0
 30 31  1  0
 31 32  2  0
 32 33  1  0
 23 34  2  0
 34  7  1  0
 21 10  1  0
 33 24  1  0
 19 14  1  0
 32 27  1  0
  1 35  1  0
  1 36  1  0
  4 37  1  0
  4 38  1  0
  5 39  1  0
  5 40  1  0
  6 41  1  0
 11 42  1  0
 11 43  1  0
 12 44  1  0
 12 45  1  0
 15 46  1  0
 16 47  1  0
 17 48  1  0
 18 49  1  0
 19 50  1  0
 20 51  1  0
 20 52  1  0
 21 53  1  0
 21 54  1  0
 25 55  1  0
 25 56  1  0
 26 57  1  0
 26 58  1  0
 28 59  1  0
 29 60  1  0
 30 61  1  0
 31 62  1  0
 33 63  1  0
 33 64  1  0
M  END
>  <smiles>  (48) 
NC(=O)CCNc1nc(N2CCN(c3ccccc3)CC2)nc(N2CCc3ccccc3C2)n1

>  <score_type>  (48) 
oracle

>  <origin>  (48) 
autodockgpu

>  <m_score__min__energy>  (48) 
-9.3900000000000006

>  <m_primary>  (48) 
energy

>  <rmsd>  (48) 
9.121332784247787

>  <m_score__min__rmsd>  (48) 
9.121332784247787

>  <meeko>  (48) 
{"free_energy": -9.11, "intermolecular_energy": -11.2, "internal_energy": -1.7, "cluster_size": 38, "cluster_id": 1, "rank_in_cluster": 4}

>  <energy>  (48) 
-6.71

>  <cluster_rmsd>  (48) 
0.75

>  <cluster>  (48) 
6

$$$$

     RDKit          3D

 64 68  0  0  0  0  0  0  0  0999 V2000
  144.5790   67.9170  217.9530 N   0  0  0  0  0  0  0  0  0  0  0  0
  144.0470   68.6480  219.0400 C   0  0  0  0  0  0  0  0  0  0  0  0
  144.8140   69.3100  219.7510 O   0  0  0  0  0  0  0  0  0  0  0  0
  142.5760   68.5700  219.2590 C   0  0  0  0  0  0  0  0  0  0  0  0
  142.0120   69.9330  218.9940 C   0  0  0  0  0  0  0  0  0  0  0  0
  142.7400   71.0010  219.6880 N   0  0  0  0  0  0  0  0  0  0  0  0
  141.9660   71.7580  220.6250 C   0  0  0  0  0  0  0  0  0  0  0  0
  141.9670   73.0900  220.5140 N   0  0  0  0  0  0  0  0  0  0  0  0
  141.2340   73.8240  221.3970 C   0  0  0  0  0  0  0  0  0  0  0  0
  141.2370   75.2280  221.2770 N   0  0  0  0  0  0  0  0  0  0  0  0
  140.2630   76.0020  222.0220 C   0  0  0  0  0  0  0  0  0  0  0  0
  141.0480   77.1610  222.6330 C   0  0  0  0  0  0  0  0  0  0  0  0
  141.4230   78.0250  221.5310 N   0  0  0  0  0  0  0  0  0  0  0  0
  141.4600   79.4290  221.6520 C   0  0  0  0  0  0  0  0  0  0  0  0
  141.2050   80.2720  220.5820 C   0  0  0  0  0  0  0  0  0  0  0  0
  141.2470   81.6550  220.7070 C   0  0  0  0  0  0  0  0  0  0  0  0
  141.5470   82.2520  221.9170 C   0  0  0  0  0  0  0  0  0  0  0  0
  141.8020   81.4250  222.9910 C   0  0  0  0  0  0  0  0  0  0  0  0
  141.7580   80.0400  222.8520 C   0  0  0  0  0  0  0  0  0  0  0  0
  141.7690   77.3880  220.2820 C   0  0  0  0  0  0  0  0  0  0  0  0
  142.1640   75.9340  220.4450 C   0  0  0  0  0  0  0  0  0  0  0  0
  140.5160   73.2130  222.3740 N   0  0  0  0  0  0  0  0  0  0  0  0
  140.5200   71.8650  222.4800 C   0  0  0  0  0  0  0  0  0  0  0  0
  139.7550   71.2850  223.5140 N   0  0  0  0  0  0  0  0  0  0  0  0
  138.5970   70.4870  223.1550 C   0  0  0  0  0  0  0  0  0  0  0  0
  138.0640   69.7700  224.3810 C   0  0  0  0  0  0  0  0  0  0  0  0
  139.1690   69.2160  225.2050 C   0  0  0  0  0  0  0  0  0  0  0  0
  139.1940   67.9310  225.6860 C   0  0  0  0  0  0  0  0  0  0  0  0
  140.2730   67.4890  226.4550 C   0  0  0  0  0  0  0  0  0  0  0  0
  141.2930   68.3950  226.7010 C   0  0  0  0  0  0  0  0  0  0  0  0
  141.2960   69.6780  226.2370 C   0  0  0  0  0  0  0  0  0  0  0  0
  140.2210   70.0950  225.4800 C   0  0  0  0  0  0  0  0  0  0  0  0
  140.1260   71.4850  224.9210 C   0  0  0  0  0  0  0  0  0  0  0  0
  141.2450   71.1400  221.6070 N   0  0  0  0  0  0  0  0  0  0  0  0
  145.1870   68.4500  217.2760 H   0  0  0  0  0  0  0  0  0  0  0  0
  144.3770   66.8970  217.8270 H   0  0  0  0  0  0  0  0  0  0  0  0
  142.1312   67.8380  218.5688 H   0  0  0  0  0  0  0  0  0  0  0  0
  142.3523   68.2496  220.2873 H   0  0  0  0  0  0  0  0  0  0  0  0
  142.0552   70.1256  217.9119 H   0  0  0  0  0  0  0  0  0  0  0  0
  140.9791   69.9402  219.3722 H   0  0  0  0  0  0  0  0  0  0  0  0
  143.7520   71.1910  219.5060 H   0  0  0  0  0  0  0  0  0  0  0  0
  139.4775   76.3803  221.3513 H   0  0  0  0  0  0  0  0  0  0  0  0
  139.7614   75.3968  222.7915 H   0  0  0  0  0  0  0  0  0  0  0  0
  140.4202   77.7097  223.3505 H   0  0  0  0  0  0  0  0  0  0  0  0
  141.9334   76.8008  223.1775 H   0  0  0  0  0  0  0  0  0  0  0  0
  140.9618   79.8325  219.6034 H   0  0  0  0  0  0  0  0  0  0  0  0
  141.0383   82.2846  219.8295 H   0  0  0  0  0  0  0  0  0  0  0  0
  141.5811   83.3467  222.0197 H   0  0  0  0  0  0  0  0  0  0  0  0
  142.0432   81.8651  223.9699 H   0  0  0  0  0  0  0  0  0  0  0  0
  141.9682   79.4115  223.7299 H   0  0  0  0  0  0  0  0  0  0  0  0
  140.9002   77.4414  219.6095 H   0  0  0  0  0  0  0  0  0  0  0  0
  142.6402   77.9204  219.8728 H   0  0  0  0  0  0  0  0  0  0  0  0
  142.1895   75.4574  219.4540 H   0  0  0  0  0  0  0  0  0  0  0  0
  143.1540   75.8971  220.9231 H   0  0  0  0  0  0  0  0  0  0  0  0
  137.8141   71.1432  222.7471 H   0  0  0  0  0  0  0  0  0  0  0  0
  138.8898   69.7433  222.3992 H   0  0  0  0  0  0  0  0  0  0  0  0
  137.4855   70.4812  224.9889 H   0  0  0  0  0  0  0  0  0  0  0  0
  137.4283   68.9367  224.0470 H   0  0  0  0  0  0  0  0  0  0  0  0
  138.3615   67.2468  225.4652 H   0  0  0  0  0  0  0  0  0  0  0  0
  140.3118   66.4630  226.8497 H   0  0  0  0  0  0  0  0  0  0  0  0
  142.1492   68.0602  227.3051 H   0  0  0  0  0  0  0  0  0  0  0  0
  142.1304   70.3592  226.4598 H   0  0  0  0  0  0  0  0  0  0  0  0
  139.3549   72.0655  225.4487 H   0  0  0  0  0  0  0  0  0  0  0  0
  141.0643   72.0482  225.0326 H   0  0  0  0  0  0  0  0  0  0  0  0
  1  2  1  0
  2  3  2  0
  2  4  1  0
  4  5  1  0
  5  6  1  0
  6  7  1  0
  7  8  2  0
  8  9  1  0
  9 10  1  0
 10 11  1  0
 11 12  1  0
 12 13  1  0
 13 14  1  0
 14 15  2  0
 15 16  1  0
 16 17  2  0
 17 18  1  0
 18 19  2  0
 13 20  1  0
 20 21  1  0
  9 22  2  0
 22 23  1  0
 23 24  1  0
 24 25  1  0
 25 26  1  0
 26 27  1  0
 27 28  2  0
 28 29  1  0
 29 30  2  0
 30 31  1  0
 31 32  2  0
 32 33  1  0
 23 34  2  0
 34  7  1  0
 21 10  1  0
 33 24  1  0
 19 14  1  0
 32 27  1  0
  1 35  1  0
  1 36  1  0
  4 37  1  0
  4 38  1  0
  5 39  1  0
  5 40  1  0
  6 41  1  0
 11 42  1  0
 11 43  1  0
 12 44  1  0
 12 45  1  0
 15 46  1  0
 16 47  1  0
 17 48  1  0
 18 49  1  0
 19 50  1  0
 20 51  1  0
 20 52  1  0
 21 53  1  0
 21 54  1  0
 25 55  1  0
 25 56  1  0
 26 57  1  0
 26 58  1  0
 28 59  1  0
 29 60  1  0
 30 61  1  0
 31 62  1  0
 33 63  1  0
 33 64  1  0
M  END
>  <smiles>  (49) 
NC(=O)CCNc1nc(N2CCN(c3ccccc3)CC2)nc(N2CCc3ccccc3C2)n1

>  <score_type>  (49) 
oracle

>  <origin>  (49) 
autodockgpu

>  <m_score__min__energy>  (49) 
-9.3900000000000006

>  <m_primary>  (49) 
energy

>  <rmsd>  (49) 
8.961453920966386

>  <m_score__min__rmsd>  (49) 
8.961453920966386

>  <meeko>  (49) 
{"free_energy": -8.01, "intermolecular_energy": -10.1, "internal_energy": -1.48, "cluster_size": 38, "cluster_id": 1, "rank_in_cluster": 34}

>  <energy>  (49) 
-6.67

>  <cluster_rmsd>  (49) 
0.0

>  <cluster>  (49) 
7

$$$$

     RDKit          3D

 64 68  0  0  0  0  0  0  0  0999 V2000
  136.5570   75.0650  223.1940 N   0  0  0  0  0  0  0  0  0  0  0  0
  135.2570   74.5230  223.0640 C   0  0  0  0  0  0  0  0  0  0  0  0
  134.7620   73.9160  224.0230 O   0  0  0  0  0  0  0  0  0  0  0  0
  134.5630   74.7230  221.7630 C   0  0  0  0  0  0  0  0  0  0  0  0
  134.8840   73.5410  220.8980 C   0  0  0  0  0  0  0  0  0  0  0  0
  136.0340   73.7690  220.0160 N   0  0  0  0  0  0  0  0  0  0  0  0
  137.2990   73.8770  220.6780 C   0  0  0  0  0  0  0  0  0  0  0  0
  137.6340   72.9260  221.5570 N   0  0  0  0  0  0  0  0  0  0  0  0
  138.8350   73.0130  222.1930 C   0  0  0  0  0  0  0  0  0  0  0  0
  139.1850   72.0100  223.1190 N   0  0  0  0  0  0  0  0  0  0  0  0
  140.5730   71.8680  223.5140 C   0  0  0  0  0  0  0  0  0  0  0  0
  140.5470   71.7090  225.0330 C   0  0  0  0  0  0  0  0  0  0  0  0
  139.9660   70.4070  225.2970 N   0  0  0  0  0  0  0  0  0  0  0  0
  140.4020   69.5870  226.3580 C   0  0  0  0  0  0  0  0  0  0  0  0
  140.6960   70.0950  227.6130 C   0  0  0  0  0  0  0  0  0  0  0  0
  141.1290   69.2820  228.6530 C   0  0  0  0  0  0  0  0  0  0  0  0
  141.2870   67.9200  228.4760 C   0  0  0  0  0  0  0  0  0  0  0  0
  140.9970   67.4010  227.2300 C   0  0  0  0  0  0  0  0  0  0  0  0
  140.5640   68.2280  226.1960 C   0  0  0  0  0  0  0  0  0  0  0  0
  138.9010   69.9720  224.4240 C   0  0  0  0  0  0  0  0  0  0  0  0
  138.2270   71.1140  223.6920 C   0  0  0  0  0  0  0  0  0  0  0  0
  139.6770   74.0480  221.9400 N   0  0  0  0  0  0  0  0  0  0  0  0
  139.3320   75.0050  221.0500 C   0  0  0  0  0  0  0  0  0  0  0  0
  140.2460   76.0550  220.8260 N   0  0  0  0  0  0  0  0  0  0  0  0
  140.0130   76.9510  219.7090 C   0  0  0  0  0  0  0  0  0  0  0  0
  140.9620   78.1330  219.7870 C   0  0  0  0  0  0  0  0  0  0  0  0
  141.0830   78.6370  221.1790 C   0  0  0  0  0  0  0  0  0  0  0  0
  140.9830   79.9610  221.5250 C   0  0  0  0  0  0  0  0  0  0  0  0
  141.1090   80.3500  222.8600 C   0  0  0  0  0  0  0  0  0  0  0  0
  141.3350   79.3520  223.7960 C   0  0  0  0  0  0  0  0  0  0  0  0
  141.4380   78.0280  223.4830 C   0  0  0  0  0  0  0  0  0  0  0  0
  141.3110   77.6650  222.1590 C   0  0  0  0  0  0  0  0  0  0  0  0
  141.4070   76.2360  221.7080 C   0  0  0  0  0  0  0  0  0  0  0  0
  138.1430   74.9180  220.4210 N   0  0  0  0  0  0  0  0  0  0  0  0
  136.7310   75.6850  224.0300 H   0  0  0  0  0  0  0  0  0  0  0  0
  137.3080   74.8600  222.4940 H   0  0  0  0  0  0  0  0  0  0  0  0
  133.4766   74.7884  221.9224 H   0  0  0  0  0  0  0  0  0  0  0  0
  134.8951   75.6563  221.2847 H   0  0  0  0  0  0  0  0  0  0  0  0
  135.1060   72.6816  221.5477 H   0  0  0  0  0  0  0  0  0  0  0  0
  134.0097   73.3570  220.2563 H   0  0  0  0  0  0  0  0  0  0  0  0
  135.9290   73.8480  218.9790 H   0  0  0  0  0  0  0  0  0  0  0  0
  141.0189   70.9804  223.0415 H   0  0  0  0  0  0  0  0  0  0  0  0
  141.1778   72.7326  223.2030 H   0  0  0  0  0  0  0  0  0  0  0  0
  141.5682   71.7595  225.4386 H   0  0  0  0  0  0  0  0  0  0  0  0
  139.9631   72.5108  225.5086 H   0  0  0  0  0  0  0  0  0  0  0  0
  140.5832   71.1746  227.7913 H   0  0  0  0  0  0  0  0  0  0  0  0
  141.3498   69.7293  229.6334 H   0  0  0  0  0  0  0  0  0  0  0  0
  141.6309   67.2740  229.2972 H   0  0  0  0  0  0  0  0  0  0  0  0
  141.1092   66.3214  227.0515 H   0  0  0  0  0  0  0  0  0  0  0  0
  140.3436   67.7805  225.2156 H   0  0  0  0  0  0  0  0  0  0  0  0
  139.3198   69.2783  223.6801 H   0  0  0  0  0  0  0  0  0  0  0  0
  138.1378   69.4907  225.0532 H   0  0  0  0  0  0  0  0  0  0  0  0
  137.5985   70.7019  222.8888 H   0  0  0  0  0  0  0  0  0  0  0  0
  137.6195   71.6765  224.4163 H   0  0  0  0  0  0  0  0  0  0  0  0
  140.1814   76.4098  218.7663 H   0  0  0  0  0  0  0  0  0  0  0  0
  138.9762   77.3163  219.7484 H   0  0  0  0  0  0  0  0  0  0  0  0
  141.9548   77.8195  219.4319 H   0  0  0  0  0  0  0  0  0  0  0  0
  140.5614   78.9420  219.1584 H   0  0  0  0  0  0  0  0  0  0  0  0
  140.8030   80.7185  220.7480 H   0  0  0  0  0  0  0  0  0  0  0  0
  141.0320   81.4062  223.1575 H   0  0  0  0  0  0  0  0  0  0  0  0
  141.4371   79.6446  224.8514 H   0  0  0  0  0  0  0  0  0  0  0  0
  141.6169   77.2733  224.2631 H   0  0  0  0  0  0  0  0  0  0  0  0
  142.3443   76.0628  221.1589 H   0  0  0  0  0  0  0  0  0  0  0  0
  141.4092   75.5286  222.5504 H   0  0  0  0  0  0  0  0  0  0  0  0
  1  2  1  0
  2  3  2  0
  2  4  1  0
  4  5  1  0
  5  6  1  0
  6  7  1  0
  7  8  2  0
  8  9  1  0
  9 10  1  0
 10 11  1  0
 11 12  1  0
 12 13  1  0
 13 14  1  0
 14 15  2  0
 15 16  1  0
 16 17  2  0
 17 18  1  0
 18 19  2  0
 13 20  1  0
 20 21  1  0
  9 22  2  0
 22 23  1  0
 23 24  1  0
 24 25  1  0
 25 26  1  0
 26 27  1  0
 27 28  2  0
 28 29  1  0
 29 30  2  0
 30 31  1  0
 31 32  2  0
 32 33  1  0
 23 34  2  0
 34  7  1  0
 21 10  1  0
 33 24  1  0
 19 14  1  0
 32 27  1  0
  1 35  1  0
  1 36  1  0
  4 37  1  0
  4 38  1  0
  5 39  1  0
  5 40  1  0
  6 41  1  0
 11 42  1  0
 11 43  1  0
 12 44  1  0
 12 45  1  0
 15 46  1  0
 16 47  1  0
 17 48  1  0
 18 49  1  0
 19 50  1  0
 20 51  1  0
 20 52  1  0
 21 53  1  0
 21 54  1  0
 25 55  1  0
 25 56  1  0
 26 57  1  0
 26 58  1  0
 28 59  1  0
 29 60  1  0
 30 61  1  0
 31 62  1  0
 33 63  1  0
 33 64  1  0
M  END
>  <smiles>  (50) 
NC(=O)CCNc1nc(N2CCN(c3ccccc3)CC2)nc(N2CCc3ccccc3C2)n1

>  <score_type>  (50) 
oracle

>  <origin>  (50) 
autodockgpu

>  <m_score__min__energy>  (50) 
-9.3900000000000006

>  <m_primary>  (50) 
energy

>  <rmsd>  (50) 
5.682219884450506

>  <m_score__min__rmsd>  (50) 
5.682219884450506

>  <meeko>  (50) 
{"free_energy": -6.71, "intermolecular_energy": -8.8, "internal_energy": -2.35, "cluster_size": 3, "cluster_id": 6, "rank_in_cluster": 3}

>  <energy>  (50) 
-6.41

>  <cluster_rmsd>  (50) 
1.75

>  <cluster>  (50) 
7

$$$$
