
     RDKit          3D

 56 59  0  0  0  0  0  0  0  0999 V2000
  138.8780   71.9660  220.8870 O   0  0  0  0  0  0  0  0  0  0  0  0
  139.1430   72.3650  222.0510 C   0  0  0  0  0  0  0  0  0  0  0  0
  139.1650   73.8030  222.2740 N   0  0  0  0  0  0  0  0  0  0  0  0
  138.8810   74.6020  221.1350 C   0  0  0  0  0  0  0  0  0  0  0  0
  139.8080   74.7740  220.0520 C   0  0  0  0  0  0  0  0  0  0  0  0
  139.3100   74.4390  218.8820 O   0  0  0  0  0  0  0  0  0  0  0  0
  141.1380   75.2280  219.9840 N   0  0  0  0  0  0  0  0  0  0  0  0
  142.3250   74.4790  220.1980 C   0  0  0  0  0  0  0  0  0  0  0  0
  143.6340   75.1830  220.0450 C   0  0  0  0  0  0  0  0  0  0  0  0
  143.6810   76.2440  219.0060 C   0  0  0  0  0  0  0  0  0  0  0  0
  142.3060   76.6850  218.5510 C   0  0  0  0  0  0  0  0  0  0  0  0
  141.3090   76.6650  219.6560 C   0  0  2  0  0  0  0  0  0  0  0  0
  141.6050   77.5040  220.8390 C   0  0  0  0  0  0  0  0  0  0  0  0
  140.5330   77.2770  221.8820 C   0  0  0  0  0  0  0  0  0  0  0  0
  140.9650   78.0910  223.1030 C   0  0  0  0  0  0  0  0  0  0  0  0
  142.0520   78.9980  222.7990 N   0  0  0  0  0  0  0  0  0  0  0  0
  141.8610   79.7760  221.6120 C   0  0  0  0  0  0  0  0  0  0  0  0
  141.4260   78.9600  220.4120 C   0  0  0  0  0  0  0  0  0  0  0  0
  139.4220   71.4650  223.1620 C   0  0  0  0  0  0  0  0  0  0  0  0
  139.0860   70.1380  222.9890 C   0  0  0  0  0  0  0  0  0  0  0  0
  139.3260   69.2350  224.0050 C   0  0  0  0  0  0  0  0  0  0  0  0
  139.9060   69.7300  225.1710 C   0  0  0  0  0  0  0  0  0  0  0  0
  140.1590   68.8520  226.2070 C   0  0  0  0  0  0  0  0  0  0  0  0
  140.7390   69.2840  227.4030 C   0  0  0  0  0  0  0  0  0  0  0  0
  141.0460   68.1380  228.7030 Cl  0  0  0  0  0  0  0  0  0  0  0  0
  141.0620   70.6180  227.5420 C   0  0  0  0  0  0  0  0  0  0  0  0
  140.8020   71.4790  226.4950 C   0  0  0  0  0  0  0  0  0  0  0  0
  140.2300   71.0740  225.3070 C   0  0  0  0  0  0  0  0  0  0  0  0
  139.9770   71.9160  224.2880 N   0  0  0  0  0  0  0  0  0  0  0  0
  139.3840   74.0700  223.2390 H   0  0  0  0  0  0  0  0  0  0  0  0
  137.9679   74.1809  220.6889 H   0  0  0  0  0  0  0  0  0  0  0  0
  138.8620   75.6112  221.5721 H   0  0  0  0  0  0  0  0  0  0  0  0
  142.2831   74.0851  221.2242 H   0  0  0  0  0  0  0  0  0  0  0  0
  142.3228   73.7246  219.3975 H   0  0  0  0  0  0  0  0  0  0  0  0
  143.8830   75.6459  221.0113 H   0  0  0  0  0  0  0  0  0  0  0  0
  144.3499   74.4142  219.7189 H   0  0  0  0  0  0  0  0  0  0  0  0
  144.2105   77.1156  219.4182 H   0  0  0  0  0  0  0  0  0  0  0  0
  144.1998   75.8259  218.1307 H   0  0  0  0  0  0  0  0  0  0  0  0
  142.3761   77.7096  218.1570 H   0  0  0  0  0  0  0  0  0  0  0  0
  141.9656   75.9787  217.7794 H   0  0  0  0  0  0  0  0  0  0  0  0
  140.3794   77.1432  219.3137 H   0  0  0  0  0  0  0  0  0  0  0  0
  142.6104   77.2726  221.2205 H   0  0  0  0  0  0  0  0  0  0  0  0
  139.5580   77.6276  221.5126 H   0  0  0  0  0  0  0  0  0  0  0  0
  140.4214   76.2098  222.1241 H   0  0  0  0  0  0  0  0  0  0  0  0
  140.1050   78.6761  223.4610 H   0  0  0  0  0  0  0  0  0  0  0  0
  141.3176   77.3867  223.8709 H   0  0  0  0  0  0  0  0  0  0  0  0
  142.1040   79.6660  223.5990 H   0  0  0  0  0  0  0  0  0  0  0  0
  141.0902   80.5343  221.8141 H   0  0  0  0  0  0  0  0  0  0  0  0
  142.8341   80.2231  221.3608 H   0  0  0  0  0  0  0  0  0  0  0  0
  140.3734   79.1644  220.1663 H   0  0  0  0  0  0  0  0  0  0  0  0
  142.0117   79.2022  219.5129 H   0  0  0  0  0  0  0  0  0  0  0  0
  138.6293   69.8015  222.0465 H   0  0  0  0  0  0  0  0  0  0  0  0
  139.0703   68.1704  223.8986 H   0  0  0  0  0  0  0  0  0  0  0  0
  139.8984   67.7900  226.0881 H   0  0  0  0  0  0  0  0  0  0  0  0
  141.5189   70.9891  228.4713 H   0  0  0  0  0  0  0  0  0  0  0  0
  141.0639   72.5407  226.6139 H   0  0  0  0  0  0  0  0  0  0  0  0
  1  2  2  0
  2  3  1  0
  3  4  1  0
  4  5  1  0
  5  6  2  0
  5  7  1  0
  7  8  1  0
  8  9  1  0
  9 10  1  0
 10 11  1  0
 11 12  1  0
 12 13  1  0
 13 14  1  0
 14 15  1  0
 15 16  1  0
 16 17  1  0
 17 18  1  0
  2 19  1  0
 19 20  2  0
 20 21  1  0
 21 22  2  0
 22 23  1  0
 23 24  2  0
 24 25  1  0
 24 26  1  0
 26 27  2  0
 27 28  1  0
 28 29  2  0
 12  7  1  0
 18 13  1  0
 29 19  1  0
 28 22  1  0
  3 30  1  0
  4 31  1  0
  4 32  1  0
  8 33  1  0
  8 34  1  0
  9 35  1  0
  9 36  1  0
 10 37  1  0
 10 38  1  0
 11 39  1  0
 11 40  1  0
 12 41  1  6
 13 42  1  0
 14 43  1  0
 14 44  1  0
 15 45  1  0
 15 46  1  0
 16 47  1  0
 17 48  1  0
 17 49  1  0
 18 50  1  0
 18 51  1  0
 20 52  1  0
 21 53  1  0
 23 54  1  0
 26 55  1  0
 27 56  1  0
M  END
>  <smiles>  (1) 
O=C(NCC(=O)N1CCCCC1C1CCNCC1)c1ccc2cc(Cl)ccc2n1

>  <score_type>  (1) 
oracle

>  <origin>  (1) 
autodockgpu

>  <m_score__min__energy>  (1) 
-8.6300000000000008

>  <m_primary>  (1) 
energy

>  <rmsd>  (1) 
2.067347140376483

>  <m_score__min__rmsd>  (1) 
2.067347140376483

>  <meeko>  (1) 
{"free_energy": -7.69, "intermolecular_energy": -9.18, "internal_energy": -1.71, "cluster_size": 20, "cluster_id": 1, "rank_in_cluster": 16}

>  <energy>  (1) 
-8.63

>  <cluster_rmsd>  (1) 
0.0

>  <cluster>  (1) 
1

$$$$

     RDKit          3D

 56 59  0  0  0  0  0  0  0  0999 V2000
  136.5850   77.3590  222.7420 O   0  0  0  0  0  0  0  0  0  0  0  0
  136.5370   76.1500  223.0920 C   0  0  0  0  0  0  0  0  0  0  0  0
  137.5490   75.2590  222.5450 N   0  0  0  0  0  0  0  0  0  0  0  0
  138.4870   75.8630  221.6660 C   0  0  0  0  0  0  0  0  0  0  0  0
  139.8590   75.4500  221.5870 C   0  0  0  0  0  0  0  0  0  0  0  0
  140.1140   74.3550  222.2680 O   0  0  0  0  0  0  0  0  0  0  0  0
  140.9880   75.9740  220.9300 N   0  0  0  0  0  0  0  0  0  0  0  0
  142.1710   75.2860  220.5510 C   0  0  0  0  0  0  0  0  0  0  0  0
  143.2320   76.0590  219.8370 C   0  0  0  0  0  0  0  0  0  0  0  0
  142.7500   77.1320  218.9270 C   0  0  0  0  0  0  0  0  0  0  0  0
  141.3030   77.5040  219.1680 C   0  0  0  0  0  0  0  0  0  0  0  0
  140.9280   77.4210  220.6070 C   0  0  2  0  0  0  0  0  0  0  0  0
  141.6990   78.2630  221.5480 C   0  0  0  0  0  0  0  0  0  0  0  0
  141.0270   78.2250  222.9040 C   0  0  0  0  0  0  0  0  0  0  0  0
  141.9360   79.0270  223.8380 C   0  0  0  0  0  0  0  0  0  0  0  0
  142.9470   79.7680  223.1140 N   0  0  0  0  0  0  0  0  0  0  0  0
  142.4520   80.5120  221.9970 C   0  0  0  0  0  0  0  0  0  0  0  0
  141.5480   79.7100  221.0820 C   0  0  0  0  0  0  0  0  0  0  0  0
  135.5330   75.6190  224.0030 C   0  0  0  0  0  0  0  0  0  0  0  0
  134.7020   76.5340  224.6160 C   0  0  0  0  0  0  0  0  0  0  0  0
  133.7290   76.0930  225.4900 C   0  0  0  0  0  0  0  0  0  0  0  0
  133.6440   74.7190  225.7070 C   0  0  0  0  0  0  0  0  0  0  0  0
  132.6810   74.2460  226.5770 C   0  0  0  0  0  0  0  0  0  0  0  0
  132.5440   72.8790  226.8380 C   0  0  0  0  0  0  0  0  0  0  0  0
  131.3060   72.3110  227.9520 Cl  0  0  0  0  0  0  0  0  0  0  0  0
  133.3930   71.9940  226.2080 C   0  0  0  0  0  0  0  0  0  0  0  0
  134.3470   72.4870  225.3420 C   0  0  0  0  0  0  0  0  0  0  0  0
  134.5010   73.8300  225.0700 C   0  0  0  0  0  0  0  0  0  0  0  0
  135.4340   74.3080  224.2260 N   0  0  0  0  0  0  0  0  0  0  0  0
  137.4630   74.2890  222.8640 H   0  0  0  0  0  0  0  0  0  0  0  0
  138.0750   75.7427  220.6532 H   0  0  0  0  0  0  0  0  0  0  0  0
  138.5834   76.8682  222.1022 H   0  0  0  0  0  0  0  0  0  0  0  0
  142.6225   74.8810  221.4687 H   0  0  0  0  0  0  0  0  0  0  0  0
  141.8326   74.5399  219.8170 H   0  0  0  0  0  0  0  0  0  0  0  0
  143.8782   76.5249  220.5955 H   0  0  0  0  0  0  0  0  0  0  0  0
  143.7493   75.3320  219.1937 H   0  0  0  0  0  0  0  0  0  0  0  0
  143.3721   78.0264  219.0788 H   0  0  0  0  0  0  0  0  0  0  0  0
  142.8253   76.7502  217.8981 H   0  0  0  0  0  0  0  0  0  0  0  0
  141.1403   78.5345  218.8193 H   0  0  0  0  0  0  0  0  0  0  0  0
  140.6761   76.7883  218.6160 H   0  0  0  0  0  0  0  0  0  0  0  0
  139.9258   77.8527  220.7456 H   0  0  0  0  0  0  0  0  0  0  0  0
  142.7422   77.9169  221.5925 H   0  0  0  0  0  0  0  0  0  0  0  0
  140.0294   78.6854  222.8509 H   0  0  0  0  0  0  0  0  0  0  0  0
  140.8874   77.1935  223.2597 H   0  0  0  0  0  0  0  0  0  0  0  0
  141.3192   79.7357  224.4102 H   0  0  0  0  0  0  0  0  0  0  0  0
  142.4493   78.3160  224.5021 H   0  0  0  0  0  0  0  0  0  0  0  0
  143.3420   80.4560  223.7920 H   0  0  0  0  0  0  0  0  0  0  0  0
  141.8840   81.3735  222.3780 H   0  0  0  0  0  0  0  0  0  0  0  0
  143.3252   80.8150  221.4006 H   0  0  0  0  0  0  0  0  0  0  0  0
  140.5040   80.0416  221.1820 H   0  0  0  0  0  0  0  0  0  0  0  0
  141.8171   79.8336  220.0226 H   0  0  0  0  0  0  0  0  0  0  0  0
  134.8142   77.6086  224.4094 H   0  0  0  0  0  0  0  0  0  0  0  0
  133.0495   76.7962  225.9939 H   0  0  0  0  0  0  0  0  0  0  0  0
  132.0079   74.9595  227.0749 H   0  0  0  0  0  0  0  0  0  0  0  0
  133.3110   70.9127  226.3928 H   0  0  0  0  0  0  0  0  0  0  0  0
  135.0187   71.7727  224.8433 H   0  0  0  0  0  0  0  0  0  0  0  0
  1  2  2  0
  2  3  1  0
  3  4  1  0
  4  5  1  0
  5  6  2  0
  5  7  1  0
  7  8  1  0
  8  9  1  0
  9 10  1  0
 10 11  1  0
 11 12  1  0
 12 13  1  0
 13 14  1  0
 14 15  1  0
 15 16  1  0
 16 17  1  0
 17 18  1  0
  2 19  1  0
 19 20  2  0
 20 21  1  0
 21 22  2  0
 22 23  1  0
 23 24  2  0
 24 25  1  0
 24 26  1  0
 26 27  2  0
 27 28  1  0
 28 29  2  0
 12  7  1  0
 18 13  1  0
 29 19  1  0
 28 22  1  0
  3 30  1  0
  4 31  1  0
  4 32  1  0
  8 33  1  0
  8 34  1  0
  9 35  1  0
  9 36  1  0
 10 37  1  0
 10 38  1  0
 11 39  1  0
 11 40  1  0
 12 41  1  6
 13 42  1  0
 14 43  1  0
 14 44  1  0
 15 45  1  0
 15 46  1  0
 16 47  1  0
 17 48  1  0
 17 49  1  0
 18 50  1  0
 18 51  1  0
 20 52  1  0
 21 53  1  0
 23 54  1  0
 26 55  1  0
 27 56  1  0
M  END
>  <smiles>  (2) 
O=C(NCC(=O)N1CCCCC1C1CCNCC1)c1ccc2cc(Cl)ccc2n1

>  <score_type>  (2) 
oracle

>  <origin>  (2) 
autodockgpu

>  <m_score__min__energy>  (2) 
-8.6300000000000008

>  <m_primary>  (2) 
energy

>  <rmsd>  (2) 
5.88449911078833

>  <m_score__min__rmsd>  (2) 
5.88449911078833

>  <meeko>  (2) 
{"free_energy": -7.56, "intermolecular_energy": -9.05, "internal_energy": -1.79, "cluster_size": 4, "cluster_id": 4, "rank_in_cluster": 1}

>  <energy>  (2) 
-8.57

>  <cluster_rmsd>  (2) 
0.5

>  <cluster>  (2) 
1

$$$$

     RDKit          3D

 56 59  0  0  0  0  0  0  0  0999 V2000
  138.8580   71.8680  220.8750 O   0  0  0  0  0  0  0  0  0  0  0  0
  139.1900   72.2870  222.0150 C   0  0  0  0  0  0  0  0  0  0  0  0
  139.2940   73.7280  222.1910 N   0  0  0  0  0  0  0  0  0  0  0  0
  139.0060   74.5070  221.0390 C   0  0  0  0  0  0  0  0  0  0  0  0
  139.6120   75.7830  220.7890 C   0  0  0  0  0  0  0  0  0  0  0  0
  138.7940   76.7950  220.9790 O   0  0  0  0  0  0  0  0  0  0  0  0
  140.9010   76.1760  220.3820 N   0  0  0  0  0  0  0  0  0  0  0  0
  142.0410   75.3520  220.1900 C   0  0  0  0  0  0  0  0  0  0  0  0
  143.3050   76.0030  219.7290 C   0  0  0  0  0  0  0  0  0  0  0  0
  143.1400   77.1590  218.8090 C   0  0  0  0  0  0  0  0  0  0  0  0
  141.7300   77.7090  218.8000 C   0  0  0  0  0  0  0  0  0  0  0  0
  141.0810   77.6280  220.1370 C   0  0  2  0  0  0  0  0  0  0  0  0
  141.7560   78.3310  221.2510 C   0  0  0  0  0  0  0  0  0  0  0  0
  141.0090   78.0430  222.5360 C   0  0  0  0  0  0  0  0  0  0  0  0
  141.8240   78.7120  223.6450 C   0  0  0  0  0  0  0  0  0  0  0  0
  142.8390   79.6000  223.1190 N   0  0  0  0  0  0  0  0  0  0  0  0
  142.3740   80.5000  222.1090 C   0  0  0  0  0  0  0  0  0  0  0  0
  141.5630   79.8290  221.0190 C   0  0  0  0  0  0  0  0  0  0  0  0
  139.4660   71.4080  223.1430 C   0  0  0  0  0  0  0  0  0  0  0  0
  139.1270   70.0790  222.9950 C   0  0  0  0  0  0  0  0  0  0  0  0
  139.3640   69.1940  224.0270 C   0  0  0  0  0  0  0  0  0  0  0  0
  139.9460   69.7100  225.1840 C   0  0  0  0  0  0  0  0  0  0  0  0
  140.1960   68.8500  226.2360 C   0  0  0  0  0  0  0  0  0  0  0  0
  140.7770   69.3030  227.4240 C   0  0  0  0  0  0  0  0  0  0  0  0
  141.0810   68.1810  228.7450 Cl  0  0  0  0  0  0  0  0  0  0  0  0
  141.1020   70.6380  227.5380 C   0  0  0  0  0  0  0  0  0  0  0  0
  140.8450   71.4800  226.4750 C   0  0  0  0  0  0  0  0  0  0  0  0
  140.2730   71.0550  225.2940 C   0  0  0  0  0  0  0  0  0  0  0  0
  140.0220   71.8780  224.2600 N   0  0  0  0  0  0  0  0  0  0  0  0
  139.5640   74.0120  223.1380 H   0  0  0  0  0  0  0  0  0  0  0  0
  139.2602   73.8759  220.1747 H   0  0  0  0  0  0  0  0  0  0  0  0
  137.9592   74.7916  221.2210 H   0  0  0  0  0  0  0  0  0  0  0  0
  142.2565   74.8620  221.1509 H   0  0  0  0  0  0  0  0  0  0  0  0
  141.7601   74.6803  219.3654 H   0  0  0  0  0  0  0  0  0  0  0  0
  143.8473   76.3549  220.6190 H   0  0  0  0  0  0  0  0  0  0  0  0
  143.8421   75.2362  219.1514 H   0  0  0  0  0  0  0  0  0  0  0  0
  143.8265   77.9587  219.1238 H   0  0  0  0  0  0  0  0  0  0  0  0
  143.3624   76.8050  217.7915 H   0  0  0  0  0  0  0  0  0  0  0  0
  141.7639   78.7630  218.4870 H   0  0  0  0  0  0  0  0  0  0  0  0
  141.1369   77.1002  218.1018 H   0  0  0  0  0  0  0  0  0  0  0  0
  140.1310   78.1819  220.1129 H   0  0  0  0  0  0  0  0  0  0  0  0
  142.8103   78.0221  221.3056 H   0  0  0  0  0  0  0  0  0  0  0  0
  139.9955   78.4684  222.4945 H   0  0  0  0  0  0  0  0  0  0  0  0
  140.8976   76.9623  222.7084 H   0  0  0  0  0  0  0  0  0  0  0  0
  141.1425   79.2924  224.2843 H   0  0  0  0  0  0  0  0  0  0  0  0
  142.3314   77.9200  224.2154 H   0  0  0  0  0  0  0  0  0  0  0  0
  143.1610   80.1810  223.9250 H   0  0  0  0  0  0  0  0  0  0  0  0
  141.7451   81.2646  222.5885 H   0  0  0  0  0  0  0  0  0  0  0  0
  143.2649   80.9295  221.6274 H   0  0  0  0  0  0  0  0  0  0  0  0
  140.5004   80.1002  221.1047 H   0  0  0  0  0  0  0  0  0  0  0  0
  141.8856   80.1373  220.0136 H   0  0  0  0  0  0  0  0  0  0  0  0
  138.6699   69.7263  222.0587 H   0  0  0  0  0  0  0  0  0  0  0  0
  139.1051   68.1284  223.9405 H   0  0  0  0  0  0  0  0  0  0  0  0
  139.9324   67.7867  226.1367 H   0  0  0  0  0  0  0  0  0  0  0  0
  141.5585   71.0256  228.4607 H   0  0  0  0  0  0  0  0  0  0  0  0
  141.1095   72.5431  226.5746 H   0  0  0  0  0  0  0  0  0  0  0  0
  1  2  2  0
  2  3  1  0
  3  4  1  0
  4  5  1  0
  5  6  2  0
  5  7  1  0
  7  8  1  0
  8  9  1  0
  9 10  1  0
 10 11  1  0
 11 12  1  0
 12 13  1  0
 13 14  1  0
 14 15  1  0
 15 16  1  0
 16 17  1  0
 17 18  1  0
  2 19  1  0
 19 20  2  0
 20 21  1  0
 21 22  2  0
 22 23  1  0
 23 24  2  0
 24 25  1  0
 24 26  1  0
 26 27  2  0
 27 28  1  0
 28 29  2  0
 12  7  1  0
 18 13  1  0
 29 19  1  0
 28 22  1  0
  3 30  1  0
  4 31  1  0
  4 32  1  0
  8 33  1  0
  8 34  1  0
  9 35  1  0
  9 36  1  0
 10 37  1  0
 10 38  1  0
 11 39  1  0
 11 40  1  0
 12 41  1  6
 13 42  1  0
 14 43  1  0
 14 44  1  0
 15 45  1  0
 15 46  1  0
 16 47  1  0
 17 48  1  0
 17 49  1  0
 18 50  1  0
 18 51  1  0
 20 52  1  0
 21 53  1  0
 23 54  1  0
 26 55  1  0
 27 56  1  0
M  END
>  <smiles>  (3) 
O=C(NCC(=O)N1CCCCC1C1CCNCC1)c1ccc2cc(Cl)ccc2n1

>  <score_type>  (3) 
oracle

>  <origin>  (3) 
autodockgpu

>  <m_score__min__energy>  (3) 
-8.6300000000000008

>  <m_primary>  (3) 
energy

>  <rmsd>  (3) 
1.9186897308106705

>  <m_score__min__rmsd>  (3) 
1.9186897308106705

>  <meeko>  (3) 
{"free_energy": -8.4, "intermolecular_energy": -9.9, "internal_energy": -1.6, "cluster_size": 20, "cluster_id": 1, "rank_in_cluster": 5}

>  <energy>  (3) 
-8.53

>  <cluster_rmsd>  (3) 
0.5

>  <cluster>  (3) 
1

$$$$

     RDKit          3D

 56 59  0  0  0  0  0  0  0  0999 V2000
  139.7640   72.4170  220.8010 O   0  0  0  0  0  0  0  0  0  0  0  0
  139.7190   72.7710  222.0090 C   0  0  0  0  0  0  0  0  0  0  0  0
  139.5350   74.1880  222.2800 N   0  0  0  0  0  0  0  0  0  0  0  0
  139.4250   75.0210  221.1350 C   0  0  0  0  0  0  0  0  0  0  0  0
  138.3120   75.9010  220.9150 C   0  0  0  0  0  0  0  0  0  0  0  0
  137.2690   75.3000  220.3870 O   0  0  0  0  0  0  0  0  0  0  0  0
  138.1070   77.2740  221.1480 N   0  0  0  0  0  0  0  0  0  0  0  0
  137.3350   78.1810  220.3750 C   0  0  0  0  0  0  0  0  0  0  0  0
  137.2480   79.5980  220.8400 C   0  0  0  0  0  0  0  0  0  0  0  0
  137.2540   79.7980  222.3120 C   0  0  0  0  0  0  0  0  0  0  0  0
  137.7260   78.5760  223.0720 C   0  0  0  0  0  0  0  0  0  0  0  0
  138.7880   77.8300  222.3420 C   0  0  2  0  0  0  0  0  0  0  0  0
  140.0240   78.5770  222.0160 C   0  0  0  0  0  0  0  0  0  0  0  0
  140.6320   77.9920  220.7590 C   0  0  0  0  0  0  0  0  0  0  0  0
  141.8360   78.8790  220.4320 C   0  0  0  0  0  0  0  0  0  0  0  0
  142.1680   79.7740  221.5200 N   0  0  0  0  0  0  0  0  0  0  0  0
  142.2320   79.1480  222.8060 C   0  0  0  0  0  0  0  0  0  0  0  0
  141.0380   78.2670  223.1160 C   0  0  0  0  0  0  0  0  0  0  0  0
  139.8410   71.8390  223.1210 C   0  0  0  0  0  0  0  0  0  0  0  0
  139.4370   70.5400  222.8940 C   0  0  0  0  0  0  0  0  0  0  0  0
  139.5290   69.6090  223.9090 C   0  0  0  0  0  0  0  0  0  0  0  0
  140.0350   70.0490  225.1310 C   0  0  0  0  0  0  0  0  0  0  0  0
  140.1390   69.1410  226.1670 C   0  0  0  0  0  0  0  0  0  0  0  0
  140.6370   69.5180  227.4180 C   0  0  0  0  0  0  0  0  0  0  0  0
  140.7560   68.3360  228.7160 Cl  0  0  0  0  0  0  0  0  0  0  0  0
  141.0310   70.8260  227.6100 C   0  0  0  0  0  0  0  0  0  0  0  0
  140.9200   71.7160  226.5620 C   0  0  0  0  0  0  0  0  0  0  0  0
  140.4300   71.3660  225.3200 C   0  0  0  0  0  0  0  0  0  0  0  0
  140.3220   72.2370  224.3000 N   0  0  0  0  0  0  0  0  0  0  0  0
  139.5040   74.4190  223.2790 H   0  0  0  0  0  0  0  0  0  0  0  0
  140.3209   75.6593  221.1367 H   0  0  0  0  0  0  0  0  0  0  0  0
  139.2823   74.2796  220.3350 H   0  0  0  0  0  0  0  0  0  0  0  0
  137.7630   78.1945  219.3618 H   0  0  0  0  0  0  0  0  0  0  0  0
  136.3053   77.8018  220.4521 H   0  0  0  0  0  0  0  0  0  0  0  0
  138.1069   80.1435  220.4220 H   0  0  0  0  0  0  0  0  0  0  0  0
  136.2714   79.9664  220.4929 H   0  0  0  0  0  0  0  0  0  0  0  0
  137.9228   80.6385  222.5491 H   0  0  0  0  0  0  0  0  0  0  0  0
  136.2177   79.9988  222.6216 H   0  0  0  0  0  0  0  0  0  0  0  0
  138.1252   78.8975  224.0453 H   0  0  0  0  0  0  0  0  0  0  0  0
  136.8649   77.9023  223.1928 H   0  0  0  0  0  0  0  0  0  0  0  0
  139.2038   77.0536  223.0010 H   0  0  0  0  0  0  0  0  0  0  0  0
  139.7983   79.6482  221.9084 H   0  0  0  0  0  0  0  0  0  0  0  0
  140.9555   76.9555  220.9355 H   0  0  0  0  0  0  0  0  0  0  0  0
  139.9085   77.9668  219.9308 H   0  0  0  0  0  0  0  0  0  0  0  0
  142.7040   78.2357  220.2252 H   0  0  0  0  0  0  0  0  0  0  0  0
  141.5751   79.4932  219.5575 H   0  0  0  0  0  0  0  0  0  0  0  0
  143.1210   80.1440  221.3100 H   0  0  0  0  0  0  0  0  0  0  0  0
  143.1401   78.5285  222.8457 H   0  0  0  0  0  0  0  0  0  0  0  0
  142.2398   79.9535  223.5551 H   0  0  0  0  0  0  0  0  0  0  0  0
  141.3237   77.2051  223.0907 H   0  0  0  0  0  0  0  0  0  0  0  0
  140.6314   78.4591  224.1199 H   0  0  0  0  0  0  0  0  0  0  0  0
  139.0435   70.2474  221.9093 H   0  0  0  0  0  0  0  0  0  0  0  0
  139.2165   68.5649  223.7599 H   0  0  0  0  0  0  0  0  0  0  0  0
  139.8235   68.0998  226.0044 H   0  0  0  0  0  0  0  0  0  0  0  0
  141.4271   71.1538  228.5825 H   0  0  0  0  0  0  0  0  0  0  0  0
  141.2378   72.7565  226.7241 H   0  0  0  0  0  0  0  0  0  0  0  0
  1  2  2  0
  2  3  1  0
  3  4  1  0
  4  5  1  0
  5  6  2  0
  5  7  1  0
  7  8  1  0
  8  9  1  0
  9 10  1  0
 10 11  1  0
 11 12  1  0
 12 13  1  0
 13 14  1  0
 14 15  1  0
 15 16  1  0
 16 17  1  0
 17 18  1  0
  2 19  1  0
 19 20  2  0
 20 21  1  0
 21 22  2  0
 22 23  1  0
 23 24  2  0
 24 25  1  0
 24 26  1  0
 26 27  2  0
 27 28  1  0
 28 29  2  0
 12  7  1  0
 18 13  1  0
 29 19  1  0
 28 22  1  0
  3 30  1  0
  4 31  1  0
  4 32  1  0
  8 33  1  0
  8 34  1  0
  9 35  1  0
  9 36  1  0
 10 37  1  0
 10 38  1  0
 11 39  1  0
 11 40  1  0
 12 41  1  1
 13 42  1  0
 14 43  1  0
 14 44  1  0
 15 45  1  0
 15 46  1  0
 16 47  1  0
 17 48  1  0
 17 49  1  0
 18 50  1  0
 18 51  1  0
 20 52  1  0
 21 53  1  0
 23 54  1  0
 26 55  1  0
 27 56  1  0
M  END
>  <smiles>  (4) 
O=C(NCC(=O)N1CCCCC1C1CCNCC1)c1ccc2cc(Cl)ccc2n1

>  <score_type>  (4) 
oracle

>  <origin>  (4) 
autodockgpu

>  <m_score__min__energy>  (4) 
-8.6300000000000008

>  <m_primary>  (4) 
energy

>  <rmsd>  (4) 
3.3294182684766462

>  <m_score__min__rmsd>  (4) 
3.3294182684766462

>  <meeko>  (4) 
{"free_energy": -7.61, "intermolecular_energy": -9.1, "internal_energy": -1.51, "cluster_size": 20, "cluster_id": 1, "rank_in_cluster": 19}

>  <energy>  (4) 
-8.52

>  <cluster_rmsd>  (4) 
0.58

>  <cluster>  (4) 
1

$$$$

     RDKit          3D

 56 59  0  0  0  0  0  0  0  0999 V2000
  136.4490   77.5540  223.0290 O   0  0  0  0  0  0  0  0  0  0  0  0
  136.3960   76.3310  223.3230 C   0  0  0  0  0  0  0  0  0  0  0  0
  137.4270   75.4680  222.7660 N   0  0  0  0  0  0  0  0  0  0  0  0
  138.3870   76.1140  221.9430 C   0  0  0  0  0  0  0  0  0  0  0  0
  139.7050   75.5890  221.7230 C   0  0  0  0  0  0  0  0  0  0  0  0
  139.9030   74.4230  222.2970 O   0  0  0  0  0  0  0  0  0  0  0  0
  140.8280   76.0630  221.0200 N   0  0  0  0  0  0  0  0  0  0  0  0
  141.9810   75.3340  220.6300 C   0  0  0  0  0  0  0  0  0  0  0  0
  143.0420   76.0570  219.8640 C   0  0  0  0  0  0  0  0  0  0  0  0
  142.5620   77.1140  218.9360 C   0  0  0  0  0  0  0  0  0  0  0  0
  141.1320   77.5310  219.2050 C   0  0  0  0  0  0  0  0  0  0  0  0
  140.7950   77.5000  220.6550 C   0  0  2  0  0  0  0  0  0  0  0  0
  141.6140   78.3500  221.5490 C   0  0  0  0  0  0  0  0  0  0  0  0
  141.0430   78.2800  222.9490 C   0  0  0  0  0  0  0  0  0  0  0  0
  141.9990   79.0920  223.8250 C   0  0  0  0  0  0  0  0  0  0  0  0
  142.9380   79.8660  223.0400 N   0  0  0  0  0  0  0  0  0  0  0  0
  142.3450   80.6110  221.9720 C   0  0  0  0  0  0  0  0  0  0  0  0
  141.3950   79.7990  221.1150 C   0  0  0  0  0  0  0  0  0  0  0  0
  135.3680   75.7570  224.1800 C   0  0  0  0  0  0  0  0  0  0  0  0
  134.4210   76.6240  224.6840 C   0  0  0  0  0  0  0  0  0  0  0  0
  133.4200   76.1410  225.5020 C   0  0  0  0  0  0  0  0  0  0  0  0
  133.4270   74.7740  225.7760 C   0  0  0  0  0  0  0  0  0  0  0  0
  132.4390   74.2590  226.5920 C   0  0  0  0  0  0  0  0  0  0  0  0
  132.3900   72.8980  226.9060 C   0  0  0  0  0  0  0  0  0  0  0  0
  131.1160   72.2760  227.9500 Cl  0  0  0  0  0  0  0  0  0  0  0  0
  133.3530   72.0600  226.3850 C   0  0  0  0  0  0  0  0  0  0  0  0
  134.3320   72.5940  225.5720 C   0  0  0  0  0  0  0  0  0  0  0  0
  134.4000   73.9340  225.2490 C   0  0  0  0  0  0  0  0  0  0  0  0
  135.3550   74.4520  224.4560 N   0  0  0  0  0  0  0  0  0  0  0  0
  137.3360   74.4840  223.0390 H   0  0  0  0  0  0  0  0  0  0  0  0
  137.9250   76.2008  220.9485 H   0  0  0  0  0  0  0  0  0  0  0  0
  138.6046   77.0205  222.5268 H   0  0  0  0  0  0  0  0  0  0  0  0
  142.4474   74.9443  221.5469 H   0  0  0  0  0  0  0  0  0  0  0  0
  141.6029   74.5764  219.9279 H   0  0  0  0  0  0  0  0  0  0  0  0
  143.7210   76.5280  220.5900 H   0  0  0  0  0  0  0  0  0  0  0  0
  143.5229   75.2978  219.2296 H   0  0  0  0  0  0  0  0  0  0  0  0
  143.2106   77.9959  219.0434 H   0  0  0  0  0  0  0  0  0  0  0  0
  142.5984   76.6997  217.9177 H   0  0  0  0  0  0  0  0  0  0  0  0
  140.9861   78.5548  218.8302 H   0  0  0  0  0  0  0  0  0  0  0  0
  140.4720   76.8161  218.6919 H   0  0  0  0  0  0  0  0  0  0  0  0
  139.8078   77.9607  220.8076 H   0  0  0  0  0  0  0  0  0  0  0  0
  142.6655   78.0290  221.5125 H   0  0  0  0  0  0  0  0  0  0  0  0
  140.0340   78.7173  222.9744 H   0  0  0  0  0  0  0  0  0  0  0  0
  140.9526   77.2414  223.3000 H   0  0  0  0  0  0  0  0  0  0  0  0
  141.4094   79.7788  224.4501 H   0  0  0  0  0  0  0  0  0  0  0  0
  142.5756   78.3852  224.4399 H   0  0  0  0  0  0  0  0  0  0  0  0
  143.3650   80.5560  223.6970 H   0  0  0  0  0  0  0  0  0  0  0  0
  141.7870   81.4542  222.4051 H   0  0  0  0  0  0  0  0  0  0  0  0
  143.1649   80.9413  221.3173 H   0  0  0  0  0  0  0  0  0  0  0  0
  140.3538   80.1040  221.2961 H   0  0  0  0  0  0  0  0  0  0  0  0
  141.5819   79.9420  220.0405 H   0  0  0  0  0  0  0  0  0  0  0  0
  134.4635   77.6947  224.4353 H   0  0  0  0  0  0  0  0  0  0  0  0
  132.6497   76.8059  225.9198 H   0  0  0  0  0  0  0  0  0  0  0  0
  131.6744   74.9343  227.0035 H   0  0  0  0  0  0  0  0  0  0  0  0
  133.3411   70.9841  226.6135 H   0  0  0  0  0  0  0  0  0  0  0  0
  135.0962   71.9179  225.1610 H   0  0  0  0  0  0  0  0  0  0  0  0
  1  2  2  0
  2  3  1  0
  3  4  1  0
  4  5  1  0
  5  6  2  0
  5  7  1  0
  7  8  1  0
  8  9  1  0
  9 10  1  0
 10 11  1  0
 11 12  1  0
 12 13  1  0
 13 14  1  0
 14 15  1  0
 15 16  1  0
 16 17  1  0
 17 18  1  0
  2 19  1  0
 19 20  2  0
 20 21  1  0
 21 22  2  0
 22 23  1  0
 23 24  2  0
 24 25  1  0
 24 26  1  0
 26 27  2  0
 27 28  1  0
 28 29  2  0
 12  7  1  0
 18 13  1  0
 29 19  1  0
 28 22  1  0
  3 30  1  0
  4 31  1  0
  4 32  1  0
  8 33  1  0
  8 34  1  0
  9 35  1  0
  9 36  1  0
 10 37  1  0
 10 38  1  0
 11 39  1  0
 11 40  1  0
 12 41  1  6
 13 42  1  0
 14 43  1  0
 14 44  1  0
 15 45  1  0
 15 46  1  0
 16 47  1  0
 17 48  1  0
 17 49  1  0
 18 50  1  0
 18 51  1  0
 20 52  1  0
 21 53  1  0
 23 54  1  0
 26 55  1  0
 27 56  1  0
M  END
>  <smiles>  (5) 
O=C(NCC(=O)N1CCCCC1C1CCNCC1)c1ccc2cc(Cl)ccc2n1

>  <score_type>  (5) 
oracle

>  <origin>  (5) 
autodockgpu

>  <m_score__min__energy>  (5) 
-8.6300000000000008

>  <m_primary>  (5) 
energy

>  <rmsd>  (5) 
5.993417139948386

>  <m_score__min__rmsd>  (5) 
5.993417139948386

>  <meeko>  (5) 
{"free_energy": -7.5, "intermolecular_energy": -8.99, "internal_energy": -1.79, "cluster_size": 4, "cluster_id": 4, "rank_in_cluster": 3}

>  <energy>  (5) 
-8.4

>  <cluster_rmsd>  (5) 
0.69

>  <cluster>  (5) 
1

$$$$

     RDKit          3D

 56 59  0  0  0  0  0  0  0  0999 V2000
  138.1320   71.8180  221.1260 O   0  0  0  0  0  0  0  0  0  0  0  0
  138.7440   72.2250  222.1490 C   0  0  0  0  0  0  0  0  0  0  0  0
  139.0570   73.6450  222.2170 N   0  0  0  0  0  0  0  0  0  0  0  0
  138.6320   74.4180  221.1040 C   0  0  0  0  0  0  0  0  0  0  0  0
  139.3840   75.5290  220.5950 C   0  0  0  0  0  0  0  0  0  0  0  0
  138.6340   76.5580  220.2650 O   0  0  0  0  0  0  0  0  0  0  0  0
  140.7570   75.7460  220.3750 N   0  0  0  0  0  0  0  0  0  0  0  0
  141.8150   74.8070  220.4910 C   0  0  0  0  0  0  0  0  0  0  0  0
  143.2010   75.2720  220.1810 C   0  0  0  0  0  0  0  0  0  0  0  0
  143.3160   76.2940  219.1080 C   0  0  0  0  0  0  0  0  0  0  0  0
  141.9960   76.9580  218.7820 C   0  0  0  0  0  0  0  0  0  0  0  0
  141.1330   77.1270  219.9840 C   0  0  2  0  0  0  0  0  0  0  0  0
  141.6920   77.9200  221.1010 C   0  0  0  0  0  0  0  0  0  0  0  0
  140.8280   77.7160  222.3270 C   0  0  0  0  0  0  0  0  0  0  0  0
  141.5270   78.4770  223.4560 C   0  0  0  0  0  0  0  0  0  0  0  0
  142.5800   79.3400  222.9630 N   0  0  0  0  0  0  0  0  0  0  0  0
  142.2060   80.1570  221.8490 C   0  0  0  0  0  0  0  0  0  0  0  0
  141.5090   79.3930  220.7410 C   0  0  0  0  0  0  0  0  0  0  0  0
  139.1400   71.3520  223.2450 C   0  0  0  0  0  0  0  0  0  0  0  0
  138.8770   70.0060  223.0970 C   0  0  0  0  0  0  0  0  0  0  0  0
  139.2290   69.1270  224.1010 C   0  0  0  0  0  0  0  0  0  0  0  0
  139.8430   69.6650  225.2300 C   0  0  0  0  0  0  0  0  0  0  0  0
  140.2080   68.8110  226.2540 C   0  0  0  0  0  0  0  0  0  0  0  0
  140.8270   69.2870  227.4130 C   0  0  0  0  0  0  0  0  0  0  0  0
  141.2780   68.1710  228.6970 Cl  0  0  0  0  0  0  0  0  0  0  0  0
  141.0740   70.6390  227.5280 C   0  0  0  0  0  0  0  0  0  0  0  0
  140.7030   71.4740  226.4950 C   0  0  0  0  0  0  0  0  0  0  0  0
  140.0900   71.0270  225.3420 C   0  0  0  0  0  0  0  0  0  0  0  0
  139.7280   71.8450  224.3360 N   0  0  0  0  0  0  0  0  0  0  0  0
  139.5520   73.9200  223.0710 H   0  0  0  0  0  0  0  0  0  0  0  0
  138.5277   73.7126  220.2664 H   0  0  0  0  0  0  0  0  0  0  0  0
  137.7418   74.9205  221.5103 H   0  0  0  0  0  0  0  0  0  0  0  0
  141.8165   74.4421  221.5287 H   0  0  0  0  0  0  0  0  0  0  0  0
  141.5990   74.0522  219.7206 H   0  0  0  0  0  0  0  0  0  0  0  0
  143.6273   75.6990  221.1008 H   0  0  0  0  0  0  0  0  0  0  0  0
  143.7367   74.3864  219.8085 H   0  0  0  0  0  0  0  0  0  0  0  0
  144.0265   77.0675  219.4350 H   0  0  0  0  0  0  0  0  0  0  0  0
  143.6598   75.7798  218.1984 H   0  0  0  0  0  0  0  0  0  0  0  0
  142.1966   77.9491  218.3490 H   0  0  0  0  0  0  0  0  0  0  0  0
  141.4604   76.3093  218.0733 H   0  0  0  0  0  0  0  0  0  0  0  0
  140.2665   77.7527  219.7237 H   0  0  0  0  0  0  0  0  0  0  0  0
  142.7388   77.6323  221.2781 H   0  0  0  0  0  0  0  0  0  0  0  0
  139.8196   78.1217  222.1577 H   0  0  0  0  0  0  0  0  0  0  0  0
  140.7099   76.6493  222.5681 H   0  0  0  0  0  0  0  0  0  0  0  0
  140.7825   79.0919  223.9829 H   0  0  0  0  0  0  0  0  0  0  0  0
  141.9840   77.7373  224.1298 H   0  0  0  0  0  0  0  0  0  0  0  0
  142.8180   79.9840  223.7500 H   0  0  0  0  0  0  0  0  0  0  0  0
  141.5273   80.9446  222.2081 H   0  0  0  0  0  0  0  0  0  0  0  0
  143.1344   80.5656  221.4235 H   0  0  0  0  0  0  0  0  0  0  0  0
  140.4406   79.6524  220.7053 H   0  0  0  0  0  0  0  0  0  0  0  0
  141.9241   79.6310  219.7505 H   0  0  0  0  0  0  0  0  0  0  0  0
  138.3892   69.6352  222.1835 H   0  0  0  0  0  0  0  0  0  0  0  0
  139.0332   68.0481  224.0136 H   0  0  0  0  0  0  0  0  0  0  0  0
  140.0070   67.7341  226.1544 H   0  0  0  0  0  0  0  0  0  0  0  0
  141.5587   71.0444  228.4284 H   0  0  0  0  0  0  0  0  0  0  0  0
  140.9059   72.5505  226.5950 H   0  0  0  0  0  0  0  0  0  0  0  0
  1  2  2  0
  2  3  1  0
  3  4  1  0
  4  5  1  0
  5  6  2  0
  5  7  1  0
  7  8  1  0
  8  9  1  0
  9 10  1  0
 10 11  1  0
 11 12  1  0
 12 13  1  0
 13 14  1  0
 14 15  1  0
 15 16  1  0
 16 17  1  0
 17 18  1  0
  2 19  1  0
 19 20  2  0
 20 21  1  0
 21 22  2  0
 22 23  1  0
 23 24  2  0
 24 25  1  0
 24 26  1  0
 26 27  2  0
 27 28  1  0
 28 29  2  0
 12  7  1  0
 18 13  1  0
 29 19  1  0
 28 22  1  0
  3 30  1  0
  4 31  1  0
  4 32  1  0
  8 33  1  0
  8 34  1  0
  9 35  1  0
  9 36  1  0
 10 37  1  0
 10 38  1  0
 11 39  1  0
 11 40  1  0
 12 41  1  6
 13 42  1  0
 14 43  1  0
 14 44  1  0
 15 45  1  0
 15 46  1  0
 16 47  1  0
 17 48  1  0
 17 49  1  0
 18 50  1  0
 18 51  1  0
 20 52  1  0
 21 53  1  0
 23 54  1  0
 26 55  1  0
 27 56  1  0
M  END
>  <smiles>  (6) 
O=C(NCC(=O)N1CCCCC1C1CCNCC1)c1ccc2cc(Cl)ccc2n1

>  <score_type>  (6) 
oracle

>  <origin>  (6) 
autodockgpu

>  <m_score__min__energy>  (6) 
-8.6300000000000008

>  <m_primary>  (6) 
energy

>  <rmsd>  (6) 
1.9151662923928539

>  <m_score__min__rmsd>  (6) 
1.9151662923928539

>  <meeko>  (6) 
{"free_energy": -7.9, "intermolecular_energy": -9.39, "internal_energy": -1.67, "cluster_size": 20, "cluster_id": 1, "rank_in_cluster": 15}

>  <energy>  (6) 
-8.38

>  <cluster_rmsd>  (6) 
0.78

>  <cluster>  (6) 
1

$$$$

     RDKit          3D

 56 59  0  0  0  0  0  0  0  0999 V2000
  141.2430   75.1630  221.3150 O   0  0  0  0  0  0  0  0  0  0  0  0
  140.1690   75.3930  221.9310 C   0  0  0  0  0  0  0  0  0  0  0  0
  139.3120   74.2540  222.2240 N   0  0  0  0  0  0  0  0  0  0  0  0
  139.7930   72.9960  221.7760 C   0  0  0  0  0  0  0  0  0  0  0  0
  140.0330   71.8920  222.6620 C   0  0  0  0  0  0  0  0  0  0  0  0
  141.2910   71.5140  222.6940 O   0  0  0  0  0  0  0  0  0  0  0  0
  139.1990   71.1310  223.5030 N   0  0  0  0  0  0  0  0  0  0  0  0
  137.7800   71.1370  223.5570 C   0  0  0  0  0  0  0  0  0  0  0  0
  137.1130   70.2160  224.5260 C   0  0  0  0  0  0  0  0  0  0  0  0
  137.7960   68.9160  224.7600 C   0  0  0  0  0  0  0  0  0  0  0  0
  139.2290   68.9070  224.2720 C   0  0  0  0  0  0  0  0  0  0  0  0
  139.8970   70.2260  224.4470 C   0  0  2  0  0  0  0  0  0  0  0  0
  139.9680   70.7600  225.8260 C   0  0  0  0  0  0  0  0  0  0  0  0
  141.1900   71.6450  225.9460 C   0  0  0  0  0  0  0  0  0  0  0  0
  141.1340   72.2380  227.3560 C   0  0  0  0  0  0  0  0  0  0  0  0
  140.1440   71.5840  228.1850 N   0  0  0  0  0  0  0  0  0  0  0  0
  140.1920   70.1540  228.1510 C   0  0  0  0  0  0  0  0  0  0  0  0
  140.2550   69.5780  226.7510 C   0  0  0  0  0  0  0  0  0  0  0  0
  139.7570   76.7250  222.3530 C   0  0  0  0  0  0  0  0  0  0  0  0
  140.7620   77.6330  222.6190 C   0  0  0  0  0  0  0  0  0  0  0  0
  140.4370   78.9120  223.0220 C   0  0  0  0  0  0  0  0  0  0  0  0
  139.0810   79.2160  223.1400 C   0  0  0  0  0  0  0  0  0  0  0  0
  138.7230   80.4880  223.5430 C   0  0  0  0  0  0  0  0  0  0  0  0
  137.3820   80.8570  223.6810 C   0  0  0  0  0  0  0  0  0  0  0  0
  136.9600   82.4860  224.1960 Cl  0  0  0  0  0  0  0  0  0  0  0  0
  136.4040   79.9230  223.4080 C   0  0  0  0  0  0  0  0  0  0  0  0
  136.7830   78.6590  223.0070 C   0  0  0  0  0  0  0  0  0  0  0  0
  138.1000   78.2730  222.8640 C   0  0  0  0  0  0  0  0  0  0  0  0
  138.4670   77.0390  222.4740 N   0  0  0  0  0  0  0  0  0  0  0  0
  138.4540   74.5000  222.7270 H   0  0  0  0  0  0  0  0  0  0  0  0
  139.0623   72.6378  221.0359 H   0  0  0  0  0  0  0  0  0  0  0  0
  140.8149   73.2506  221.4583 H   0  0  0  0  0  0  0  0  0  0  0  0
  137.4662   72.1607  223.8091 H   0  0  0  0  0  0  0  0  0  0  0  0
  137.4650   70.7720  222.5683 H   0  0  0  0  0  0  0  0  0  0  0  0
  137.0405   70.7375  225.4918 H   0  0  0  0  0  0  0  0  0  0  0  0
  136.1401   69.9654  224.0780 H   0  0  0  0  0  0  0  0  0  0  0  0
  137.7917   68.7067  225.8399 H   0  0  0  0  0  0  0  0  0  0  0  0
  137.2491   68.1490  224.1920 H   0  0  0  0  0  0  0  0  0  0  0  0
  139.7902   68.1491  224.8382 H   0  0  0  0  0  0  0  0  0  0  0  0
  139.2152   68.6784  223.1961 H   0  0  0  0  0  0  0  0  0  0  0  0
  140.9701   70.1210  224.2290 H   0  0  0  0  0  0  0  0  0  0  0  0
  139.0398   71.2985  226.0679 H   0  0  0  0  0  0  0  0  0  0  0  0
  142.1074   71.0522  225.8152 H   0  0  0  0  0  0  0  0  0  0  0  0
  141.2006   72.4298  225.1753 H   0  0  0  0  0  0  0  0  0  0  0  0
  142.1214   72.1249  227.8274 H   0  0  0  0  0  0  0  0  0  0  0  0
  140.8525   73.2976  227.2659 H   0  0  0  0  0  0  0  0  0  0  0  0
  140.3500   71.8760  229.1660 H   0  0  0  0  0  0  0  0  0  0  0  0
  141.0845   69.8236  228.7026 H   0  0  0  0  0  0  0  0  0  0  0  0
  139.2584   69.7909  228.6054 H   0  0  0  0  0  0  0  0  0  0  0  0
  141.2527   69.1615  226.5485 H   0  0  0  0  0  0  0  0  0  0  0  0
  139.5370   68.7569  226.6085 H   0  0  0  0  0  0  0  0  0  0  0  0
  141.8163   77.3386  222.5103 H   0  0  0  0  0  0  0  0  0  0  0  0
  141.2138   79.6595  223.2407 H   0  0  0  0  0  0  0  0  0  0  0  0
  139.5097   81.2257  223.7598 H   0  0  0  0  0  0  0  0  0  0  0  0
  135.3397   80.1821  223.5085 H   0  0  0  0  0  0  0  0  0  0  0  0
  135.9960   77.9217  222.7903 H   0  0  0  0  0  0  0  0  0  0  0  0
  1  2  2  0
  2  3  1  0
  3  4  1  0
  4  5  1  0
  5  6  2  0
  5  7  1  0
  7  8  1  0
  8  9  1  0
  9 10  1  0
 10 11  1  0
 11 12  1  0
 12 13  1  0
 13 14  1  0
 14 15  1  0
 15 16  1  0
 16 17  1  0
 17 18  1  0
  2 19  1  0
 19 20  2  0
 20 21  1  0
 21 22  2  0
 22 23  1  0
 23 24  2  0
 24 25  1  0
 24 26  1  0
 26 27  2  0
 27 28  1  0
 28 29  2  0
 12  7  1  0
 18 13  1  0
 29 19  1  0
 28 22  1  0
  3 30  1  0
  4 31  1  0
  4 32  1  0
  8 33  1  0
  8 34  1  0
  9 35  1  0
  9 36  1  0
 10 37  1  0
 10 38  1  0
 11 39  1  0
 11 40  1  0
 12 41  1  6
 13 42  1  0
 14 43  1  0
 14 44  1  0
 15 45  1  0
 15 46  1  0
 16 47  1  0
 17 48  1  0
 17 49  1  0
 18 50  1  0
 18 51  1  0
 20 52  1  0
 21 53  1  0
 23 54  1  0
 26 55  1  0
 27 56  1  0
M  END
>  <smiles>  (7) 
O=C(NCC(=O)N1CCCCC1C1CCNCC1)c1ccc2cc(Cl)ccc2n1

>  <score_type>  (7) 
oracle

>  <origin>  (7) 
autodockgpu

>  <m_score__min__energy>  (7) 
-8.6300000000000008

>  <m_primary>  (7) 
energy

>  <rmsd>  (7) 
8.54890922392174

>  <m_score__min__rmsd>  (7) 
8.54890922392174

>  <meeko>  (7) 
{"free_energy": -8.08, "intermolecular_energy": -9.57, "internal_energy": -1.53, "cluster_size": 3, "cluster_id": 3, "rank_in_cluster": 3}

>  <energy>  (7) 
-8.36

>  <cluster_rmsd>  (7) 
1.83

>  <cluster>  (7) 
1

$$$$

     RDKit          3D

 56 59  0  0  0  0  0  0  0  0999 V2000
  140.0220   73.9480  222.2770 O   0  0  0  0  0  0  0  0  0  0  0  0
  139.6690   72.7420  222.1910 C   0  0  0  0  0  0  0  0  0  0  0  0
  139.0800   72.3090  220.9330 N   0  0  0  0  0  0  0  0  0  0  0  0
  138.9690   73.3100  219.9330 C   0  0  0  0  0  0  0  0  0  0  0  0
  140.1050   73.8510  219.2430 C   0  0  0  0  0  0  0  0  0  0  0  0
  139.9570   73.8780  217.9360 O   0  0  0  0  0  0  0  0  0  0  0  0
  141.3450   74.3600  219.6740 N   0  0  0  0  0  0  0  0  0  0  0  0
  142.4410   73.6360  220.2140 C   0  0  0  0  0  0  0  0  0  0  0  0
  143.6710   74.4010  220.5820 C   0  0  0  0  0  0  0  0  0  0  0  0
  143.9890   75.5690  219.7200 C   0  0  0  0  0  0  0  0  0  0  0  0
  142.8200   76.0050  218.8620 C   0  0  0  0  0  0  0  0  0  0  0  0
  141.5130   75.8280  219.5530 C   0  0  2  0  0  0  0  0  0  0  0  0
  141.3320   76.5460  220.8350 C   0  0  0  0  0  0  0  0  0  0  0  0
  139.8510   76.6610  221.1280 C   0  0  0  0  0  0  0  0  0  0  0  0
  139.7530   77.3130  222.5080 C   0  0  0  0  0  0  0  0  0  0  0  0
  141.0240   77.8470  222.9530 N   0  0  0  0  0  0  0  0  0  0  0  0
  141.7090   78.6380  221.9770 C   0  0  0  0  0  0  0  0  0  0  0  0
  141.7940   77.9850  220.6130 C   0  0  0  0  0  0  0  0  0  0  0  0
  139.8230   71.7830  223.2770 C   0  0  0  0  0  0  0  0  0  0  0  0
  139.4190   70.4880  223.0270 C   0  0  0  0  0  0  0  0  0  0  0  0
  139.5400   69.5330  224.0150 C   0  0  0  0  0  0  0  0  0  0  0  0
  140.0760   69.9440  225.2340 C   0  0  0  0  0  0  0  0  0  0  0  0
  140.2110   69.0110  226.2450 C   0  0  0  0  0  0  0  0  0  0  0  0
  140.7410   69.3580  227.4910 C   0  0  0  0  0  0  0  0  0  0  0  0
  140.8970   68.1450  228.7550 Cl  0  0  0  0  0  0  0  0  0  0  0  0
  141.1340   70.6630  227.7050 C   0  0  0  0  0  0  0  0  0  0  0  0
  140.9920   71.5790  226.6840 C   0  0  0  0  0  0  0  0  0  0  0  0
  140.4720   71.2580  225.4470 C   0  0  0  0  0  0  0  0  0  0  0  0
  140.3330   72.1540  224.4520 N   0  0  0  0  0  0  0  0  0  0  0  0
  138.8140   71.3190  220.9190 H   0  0  0  0  0  0  0  0  0  0  0  0
  138.3127   72.8913  219.1558 H   0  0  0  0  0  0  0  0  0  0  0  0
  138.6351   74.1763  220.5230 H   0  0  0  0  0  0  0  0  0  0  0  0
  142.0841   73.1320  221.1243 H   0  0  0  0  0  0  0  0  0  0  0  0
  142.7626   72.9727  219.3976 H   0  0  0  0  0  0  0  0  0  0  0  0
  143.5457   74.7661  221.6121 H   0  0  0  0  0  0  0  0  0  0  0  0
  144.5083   73.6991  220.4544 H   0  0  0  0  0  0  0  0  0  0  0  0
  144.2844   76.4103  220.3642 H   0  0  0  0  0  0  0  0  0  0  0  0
  144.8010   75.2671  219.0421 H   0  0  0  0  0  0  0  0  0  0  0  0
  142.9447   77.0681  218.6085 H   0  0  0  0  0  0  0  0  0  0  0  0
  142.8114   75.3746  217.9606 H   0  0  0  0  0  0  0  0  0  0  0  0
  140.7209   76.3045  218.9567 H   0  0  0  0  0  0  0  0  0  0  0  0
  141.8745   76.0235  221.6366 H   0  0  0  0  0  0  0  0  0  0  0  0
  139.3576   77.2885  220.3712 H   0  0  0  0  0  0  0  0  0  0  0  0
  139.3548   75.6795  221.1059 H   0  0  0  0  0  0  0  0  0  0  0  0
  139.0213   78.1330  222.4611 H   0  0  0  0  0  0  0  0  0  0  0  0
  139.4423   76.5393  223.2255 H   0  0  0  0  0  0  0  0  0  0  0  0
  140.8080   78.4730  223.7600 H   0  0  0  0  0  0  0  0  0  0  0  0
  141.1775   79.5952  221.8710 H   0  0  0  0  0  0  0  0  0  0  0  0
  142.7408   78.7675  222.3357 H   0  0  0  0  0  0  0  0  0  0  0  0
  141.1340   78.4970  219.8973 H   0  0  0  0  0  0  0  0  0  0  0  0
  142.8100   78.0331  220.1941 H   0  0  0  0  0  0  0  0  0  0  0  0
  139.0027   70.2183  222.0452 H   0  0  0  0  0  0  0  0  0  0  0  0
  139.2269   68.4918  223.8479 H   0  0  0  0  0  0  0  0  0  0  0  0
  139.8945   67.9730  226.0651 H   0  0  0  0  0  0  0  0  0  0  0  0
  141.5540   70.9681  228.6748 H   0  0  0  0  0  0  0  0  0  0  0  0
  141.3089   72.6167  226.8647 H   0  0  0  0  0  0  0  0  0  0  0  0
  1  2  2  0
  2  3  1  0
  3  4  1  0
  4  5  1  0
  5  6  2  0
  5  7  1  0
  7  8  1  0
  8  9  1  0
  9 10  1  0
 10 11  1  0
 11 12  1  0
 12 13  1  0
 13 14  1  0
 14 15  1  0
 15 16  1  0
 16 17  1  0
 17 18  1  0
  2 19  1  0
 19 20  2  0
 20 21  1  0
 21 22  2  0
 22 23  1  0
 23 24  2  0
 24 25  1  0
 24 26  1  0
 26 27  2  0
 27 28  1  0
 28 29  2  0
 12  7  1  0
 18 13  1  0
 29 19  1  0
 28 22  1  0
  3 30  1  0
  4 31  1  0
  4 32  1  0
  8 33  1  0
  8 34  1  0
  9 35  1  0
  9 36  1  0
 10 37  1  0
 10 38  1  0
 11 39  1  0
 11 40  1  0
 12 41  1  6
 13 42  1  0
 14 43  1  0
 14 44  1  0
 15 45  1  0
 15 46  1  0
 16 47  1  0
 17 48  1  0
 17 49  1  0
 18 50  1  0
 18 51  1  0
 20 52  1  0
 21 53  1  0
 23 54  1  0
 26 55  1  0
 27 56  1  0
M  END
>  <smiles>  (8) 
O=C(NCC(=O)N1CCCCC1C1CCNCC1)c1ccc2cc(Cl)ccc2n1

>  <score_type>  (8) 
oracle

>  <origin>  (8) 
autodockgpu

>  <m_score__min__energy>  (8) 
-8.6300000000000008

>  <m_primary>  (8) 
energy

>  <rmsd>  (8) 
2.4559999657389353

>  <m_score__min__rmsd>  (8) 
2.4559999657389353

>  <meeko>  (8) 
{"free_energy": -7.5, "intermolecular_energy": -8.99, "internal_energy": -1.74, "cluster_size": 20, "cluster_id": 1, "rank_in_cluster": 20}

>  <energy>  (8) 
-8.36

>  <cluster_rmsd>  (8) 
1.81

>  <cluster>  (8) 
1

$$$$

     RDKit          3D

 56 59  0  0  0  0  0  0  0  0999 V2000
  140.3090   73.9580  221.9650 O   0  0  0  0  0  0  0  0  0  0  0  0
  139.9300   72.7590  221.8990 C   0  0  0  0  0  0  0  0  0  0  0  0
  139.4480   72.2830  220.6120 N   0  0  0  0  0  0  0  0  0  0  0  0
  139.4590   73.2400  219.5630 C   0  0  0  0  0  0  0  0  0  0  0  0
  140.5670   73.3980  218.6640 C   0  0  0  0  0  0  0  0  0  0  0  0
  140.6000   72.4920  217.7120 O   0  0  0  0  0  0  0  0  0  0  0  0
  141.6260   74.3230  218.5910 N   0  0  0  0  0  0  0  0  0  0  0  0
  141.9790   75.1550  217.4960 C   0  0  0  0  0  0  0  0  0  0  0  0
  143.1410   76.0800  217.6650 C   0  0  0  0  0  0  0  0  0  0  0  0
  143.3300   76.6380  219.0300 C   0  0  0  0  0  0  0  0  0  0  0  0
  142.5510   75.8860  220.0880 C   0  0  0  0  0  0  0  0  0  0  0  0
  142.4720   74.4260  219.8040 C   0  0  2  0  0  0  0  0  0  0  0  0
  143.7560   73.6980  219.6870 C   0  0  0  0  0  0  0  0  0  0  0  0
  143.5100   72.2280  219.9490 C   0  0  0  0  0  0  0  0  0  0  0  0
  144.8530   71.5360  219.7060 C   0  0  0  0  0  0  0  0  0  0  0  0
  145.9430   72.4820  219.5870 N   0  0  0  0  0  0  0  0  0  0  0  0
  145.9750   73.4810  220.6100 C   0  0  0  0  0  0  0  0  0  0  0  0
  144.6380   74.1550  220.8470 C   0  0  0  0  0  0  0  0  0  0  0  0
  139.9560   71.8470  223.0350 C   0  0  0  0  0  0  0  0  0  0  0  0
  139.4180   70.5920  222.8390 C   0  0  0  0  0  0  0  0  0  0  0  0
  139.4130   69.6820  223.8770 C   0  0  0  0  0  0  0  0  0  0  0  0
  139.9640   70.0960  225.0880 C   0  0  0  0  0  0  0  0  0  0  0  0
  139.9740   69.2090  226.1460 C   0  0  0  0  0  0  0  0  0  0  0  0
  140.5120   69.5610  227.3880 C   0  0  0  0  0  0  0  0  0  0  0  0
  140.5080   68.4060  228.7150 Cl  0  0  0  0  0  0  0  0  0  0  0  0
  141.0410   70.8250  227.5480 C   0  0  0  0  0  0  0  0  0  0  0  0
  141.0220   71.6960  226.4780 C   0  0  0  0  0  0  0  0  0  0  0  0
  140.4960   71.3690  225.2450 C   0  0  0  0  0  0  0  0  0  0  0  0
  140.4780   72.2220  224.2040 N   0  0  0  0  0  0  0  0  0  0  0  0
  139.1550   71.3010  220.6160 H   0  0  0  0  0  0  0  0  0  0  0  0
  138.5872   73.0099  218.9329 H   0  0  0  0  0  0  0  0  0  0  0  0
  139.4938   74.1847  220.1255 H   0  0  0  0  0  0  0  0  0  0  0  0
  142.2058   74.4966  216.6445 H   0  0  0  0  0  0  0  0  0  0  0  0
  141.1134   75.8212  217.3663 H   0  0  0  0  0  0  0  0  0  0  0  0
  144.0538   75.5279  217.3966 H   0  0  0  0  0  0  0  0  0  0  0  0
  142.9331   76.9430  217.0154 H   0  0  0  0  0  0  0  0  0  0  0  0
  144.3996   76.5919  219.2828 H   0  0  0  0  0  0  0  0  0  0  0  0
  142.9558   77.6723  219.0180 H   0  0  0  0  0  0  0  0  0  0  0  0
  143.0450   76.0306  221.0601 H   0  0  0  0  0  0  0  0  0  0  0  0
  141.5250   76.2826  220.0945 H   0  0  0  0  0  0  0  0  0  0  0  0
  142.0413   73.9097  220.6746 H   0  0  0  0  0  0  0  0  0  0  0  0
  144.1990   73.8748  218.6958 H   0  0  0  0  0  0  0  0  0  0  0  0
  143.1805   72.0729  220.9870 H   0  0  0  0  0  0  0  0  0  0  0  0
  142.7208   71.8250  219.2973 H   0  0  0  0  0  0  0  0  0  0  0  0
  145.0609   70.8604  220.5488 H   0  0  0  0  0  0  0  0  0  0  0  0
  144.7810   70.9832  218.7577 H   0  0  0  0  0  0  0  0  0  0  0  0
  146.8210   71.9240  219.6740 H   0  0  0  0  0  0  0  0  0  0  0  0
  146.2956   73.0061  221.5490 H   0  0  0  0  0  0  0  0  0  0  0  0
  146.6732   74.2620  220.2743 H   0  0  0  0  0  0  0  0  0  0  0  0
  144.2089   73.8361  221.8083 H   0  0  0  0  0  0  0  0  0  0  0  0
  144.7287   75.2503  220.8915 H   0  0  0  0  0  0  0  0  0  0  0  0
  138.9954   70.3179  221.8611 H   0  0  0  0  0  0  0  0  0  0  0  0
  138.9921   68.6733  223.7534 H   0  0  0  0  0  0  0  0  0  0  0  0
  139.5495   68.2035  226.0091 H   0  0  0  0  0  0  0  0  0  0  0  0
  141.4708   71.1333  228.5125 H   0  0  0  0  0  0  0  0  0  0  0  0
  141.4474   72.7012  226.6148 H   0  0  0  0  0  0  0  0  0  0  0  0
  1  2  2  0
  2  3  1  0
  3  4  1  0
  4  5  1  0
  5  6  2  0
  5  7  1  0
  7  8  1  0
  8  9  1  0
  9 10  1  0
 10 11  1  0
 11 12  1  0
 12 13  1  0
 13 14  1  0
 14 15  1  0
 15 16  1  0
 16 17  1  0
 17 18  1  0
  2 19  1  0
 19 20  2  0
 20 21  1  0
 21 22  2  0
 22 23  1  0
 23 24  2  0
 24 25  1  0
 24 26  1  0
 26 27  2  0
 27 28  1  0
 28 29  2  0
 12  7  1  0
 18 13  1  0
 29 19  1  0
 28 22  1  0
  3 30  1  0
  4 31  1  0
  4 32  1  0
  8 33  1  0
  8 34  1  0
  9 35  1  0
  9 36  1  0
 10 37  1  0
 10 38  1  0
 11 39  1  0
 11 40  1  0
 12 41  1  1
 13 42  1  0
 14 43  1  0
 14 44  1  0
 15 45  1  0
 15 46  1  0
 16 47  1  0
 17 48  1  0
 17 49  1  0
 18 50  1  0
 18 51  1  0
 20 52  1  0
 21 53  1  0
 23 54  1  0
 26 55  1  0
 27 56  1  0
M  END
>  <smiles>  (9) 
O=C(NCC(=O)N1CCCCC1C1CCNCC1)c1ccc2cc(Cl)ccc2n1

>  <score_type>  (9) 
oracle

>  <origin>  (9) 
autodockgpu

>  <m_score__min__energy>  (9) 
-8.6300000000000008

>  <m_primary>  (9) 
energy

>  <rmsd>  (9) 
2.506636002466702

>  <m_score__min__rmsd>  (9) 
2.506636002466702

>  <meeko>  (9) 
{"free_energy": -8.07, "intermolecular_energy": -9.56, "internal_energy": -1.72, "cluster_size": 18, "cluster_id": 2, "rank_in_cluster": 6}

>  <energy>  (9) 
-8.34

>  <cluster_rmsd>  (9) 
0.76

>  <cluster>  (9) 
1

$$$$

     RDKit          3D

 56 59  0  0  0  0  0  0  0  0999 V2000
  141.4010   75.4600  221.2610 O   0  0  0  0  0  0  0  0  0  0  0  0
  140.3430   75.6270  221.9220 C   0  0  0  0  0  0  0  0  0  0  0  0
  139.5460   74.4440  222.2120 N   0  0  0  0  0  0  0  0  0  0  0  0
  140.0620   73.2210  221.7080 C   0  0  0  0  0  0  0  0  0  0  0  0
  140.2100   72.0450  222.5180 C   0  0  0  0  0  0  0  0  0  0  0  0
  141.4240   71.5410  222.4880 O   0  0  0  0  0  0  0  0  0  0  0  0
  139.3250   71.3190  223.3370 N   0  0  0  0  0  0  0  0  0  0  0  0
  137.9070   71.3810  223.3530 C   0  0  0  0  0  0  0  0  0  0  0  0
  137.1780   70.4900  224.3060 C   0  0  0  0  0  0  0  0  0  0  0  0
  137.8020   69.1650  224.5590 C   0  0  0  0  0  0  0  0  0  0  0  0
  139.2460   69.0970  224.1080 C   0  0  0  0  0  0  0  0  0  0  0  0
  139.9610   70.3880  224.3010 C   0  0  2  0  0  0  0  0  0  0  0  0
  140.0170   70.9220  225.6810 C   0  0  0  0  0  0  0  0  0  0  0  0
  141.3380   71.6340  225.8770 C   0  0  0  0  0  0  0  0  0  0  0  0
  141.2740   72.2430  227.2790 C   0  0  0  0  0  0  0  0  0  0  0  0
  140.1540   71.7380  228.0440 N   0  0  0  0  0  0  0  0  0  0  0  0
  140.0090   70.3150  228.0160 C   0  0  0  0  0  0  0  0  0  0  0  0
  140.0810   69.7220  226.6230 C   0  0  0  0  0  0  0  0  0  0  0  0
  139.8930   76.9270  222.3990 C   0  0  0  0  0  0  0  0  0  0  0  0
  140.8710   77.8420  222.7300 C   0  0  0  0  0  0  0  0  0  0  0  0
  140.5090   79.0930  223.1880 C   0  0  0  0  0  0  0  0  0  0  0  0
  139.1450   79.3610  223.2920 C   0  0  0  0  0  0  0  0  0  0  0  0
  138.7490   80.6040  223.7470 C   0  0  0  0  0  0  0  0  0  0  0  0
  137.3980   80.9360  223.8750 C   0  0  0  0  0  0  0  0  0  0  0  0
  136.9290   82.5290  224.4590 Cl  0  0  0  0  0  0  0  0  0  0  0  0
  136.4470   79.9960  223.5360 C   0  0  0  0  0  0  0  0  0  0  0  0
  136.8630   78.7610  223.0820 C   0  0  0  0  0  0  0  0  0  0  0  0
  138.1910   78.4120  222.9490 C   0  0  0  0  0  0  0  0  0  0  0  0
  138.5930   77.2060  222.5070 N   0  0  0  0  0  0  0  0  0  0  0  0
  138.6980   74.6380  222.7540 H   0  0  0  0  0  0  0  0  0  0  0  0
  139.4042   72.9346  220.8742 H   0  0  0  0  0  0  0  0  0  0  0  0
  141.1109   73.4876  221.5110 H   0  0  0  0  0  0  0  0  0  0  0  0
  137.6273   72.4171  223.5943 H   0  0  0  0  0  0  0  0  0  0  0  0
  137.6045   71.0253  222.3570 H   0  0  0  0  0  0  0  0  0  0  0  0
  137.1015   71.0164  225.2688 H   0  0  0  0  0  0  0  0  0  0  0  0
  136.2075   70.2778  223.8337 H   0  0  0  0  0  0  0  0  0  0  0  0
  137.7616   68.9586  225.6387 H   0  0  0  0  0  0  0  0  0  0  0  0
  137.2396   68.4193  223.9779 H   0  0  0  0  0  0  0  0  0  0  0  0
  139.7612   68.3174  224.6884 H   0  0  0  0  0  0  0  0  0  0  0  0
  139.2514   68.8677  223.0322 H   0  0  0  0  0  0  0  0  0  0  0  0
  141.0346   70.2391  224.1132 H   0  0  0  0  0  0  0  0  0  0  0  0
  139.1578   71.5844  225.8627 H   0  0  0  0  0  0  0  0  0  0  0  0
  142.1726   70.9210  225.8060 H   0  0  0  0  0  0  0  0  0  0  0  0
  141.5042   72.4020  225.1072 H   0  0  0  0  0  0  0  0  0  0  0  0
  142.2051   72.0018  227.8128 H   0  0  0  0  0  0  0  0  0  0  0  0
  141.1453   73.3299  227.1694 H   0  0  0  0  0  0  0  0  0  0  0  0
  140.3350   72.0100  229.0360 H   0  0  0  0  0  0  0  0  0  0  0  0
  140.8118   69.8722  228.6238 H   0  0  0  0  0  0  0  0  0  0  0  0
  139.0083   70.0862  228.4112 H   0  0  0  0  0  0  0  0  0  0  0  0
  141.0233   69.1715  226.4850 H   0  0  0  0  0  0  0  0  0  0  0  0
  139.2681   69.0050  226.4358 H   0  0  0  0  0  0  0  0  0  0  0  0
  141.9337   77.5762  222.6295 H   0  0  0  0  0  0  0  0  0  0  0  0
  141.2641   79.8456  223.4591 H   0  0  0  0  0  0  0  0  0  0  0  0
  139.5138   81.3481  224.0142 H   0  0  0  0  0  0  0  0  0  0  0  0
  135.3753   80.2269  223.6260 H   0  0  0  0  0  0  0  0  0  0  0  0
  136.0978   78.0181  222.8128 H   0  0  0  0  0  0  0  0  0  0  0  0
  1  2  2  0
  2  3  1  0
  3  4  1  0
  4  5  1  0
  5  6  2  0
  5  7  1  0
  7  8  1  0
  8  9  1  0
  9 10  1  0
 10 11  1  0
 11 12  1  0
 12 13  1  0
 13 14  1  0
 14 15  1  0
 15 16  1  0
 16 17  1  0
 17 18  1  0
  2 19  1  0
 19 20  2  0
 20 21  1  0
 21 22  2  0
 22 23  1  0
 23 24  2  0
 24 25  1  0
 24 26  1  0
 26 27  2  0
 27 28  1  0
 28 29  2  0
 12  7  1  0
 18 13  1  0
 29 19  1  0
 28 22  1  0
  3 30  1  0
  4 31  1  0
  4 32  1  0
  8 33  1  0
  8 34  1  0
  9 35  1  0
  9 36  1  0
 10 37  1  0
 10 38  1  0
 11 39  1  0
 11 40  1  0
 12 41  1  6
 13 42  1  0
 14 43  1  0
 14 44  1  0
 15 45  1  0
 15 46  1  0
 16 47  1  0
 17 48  1  0
 17 49  1  0
 18 50  1  0
 18 51  1  0
 20 52  1  0
 21 53  1  0
 23 54  1  0
 26 55  1  0
 27 56  1  0
M  END
>  <smiles>  (10) 
O=C(NCC(=O)N1CCCCC1C1CCNCC1)c1ccc2cc(Cl)ccc2n1

>  <score_type>  (10) 
oracle

>  <origin>  (10) 
autodockgpu

>  <m_score__min__energy>  (10) 
-8.6300000000000008

>  <m_primary>  (10) 
energy

>  <rmsd>  (10) 
8.511277204007534

>  <m_score__min__rmsd>  (10) 
8.511277204007534

>  <meeko>  (10) 
{"free_energy": -8.13, "intermolecular_energy": -9.62, "internal_energy": -1.46, "cluster_size": 3, "cluster_id": 3, "rank_in_cluster": 1}

>  <energy>  (10) 
-8.09

>  <cluster_rmsd>  (10) 
1.16

>  <cluster>  (10) 
1

$$$$

     RDKit          3D

 56 59  0  0  0  0  0  0  0  0999 V2000
  138.9890   71.8780  220.8020 O   0  0  0  0  0  0  0  0  0  0  0  0
  139.2990   72.3000  221.9470 C   0  0  0  0  0  0  0  0  0  0  0  0
  139.4060   73.7410  222.1190 N   0  0  0  0  0  0  0  0  0  0  0  0
  139.1460   74.5160  220.9590 C   0  0  0  0  0  0  0  0  0  0  0  0
  139.8120   74.2930  219.7070 C   0  0  0  0  0  0  0  0  0  0  0  0
  139.1540   73.4850  218.9040 O   0  0  0  0  0  0  0  0  0  0  0  0
  141.0210   74.7600  219.1600 N   0  0  0  0  0  0  0  0  0  0  0  0
  141.2900   75.1030  217.8080 C   0  0  0  0  0  0  0  0  0  0  0  0
  142.6570   75.6010  217.4710 C   0  0  0  0  0  0  0  0  0  0  0  0
  143.3290   76.4100  218.5220 C   0  0  0  0  0  0  0  0  0  0  0  0
  142.6770   76.2700  219.8810 C   0  0  0  0  0  0  0  0  0  0  0  0
  142.1460   74.9000  220.1170 C   0  0  2  0  0  0  0  0  0  0  0  0
  143.1170   73.7850  220.0450 C   0  0  0  0  0  0  0  0  0  0  0  0
  142.5800   72.6150  220.8410 C   0  0  0  0  0  0  0  0  0  0  0  0
  143.5820   71.4780  220.6300 C   0  0  0  0  0  0  0  0  0  0  0  0
  144.8060   71.9350  220.0060 N   0  0  0  0  0  0  0  0  0  0  0  0
  145.3690   73.1120  220.5950 C   0  0  0  0  0  0  0  0  0  0  0  0
  144.3660   74.2290  220.8050 C   0  0  0  0  0  0  0  0  0  0  0  0
  139.5470   71.4230  223.0830 C   0  0  0  0  0  0  0  0  0  0  0  0
  139.2180   70.0930  222.9280 C   0  0  0  0  0  0  0  0  0  0  0  0
  139.4300   69.2110  223.9680 C   0  0  0  0  0  0  0  0  0  0  0  0
  139.9760   69.7310  225.1410 C   0  0  0  0  0  0  0  0  0  0  0  0
  140.2010   68.8740  226.2010 C   0  0  0  0  0  0  0  0  0  0  0  0
  140.7450   69.3320  227.4040 C   0  0  0  0  0  0  0  0  0  0  0  0
  141.0180   68.2130  228.7350 Cl  0  0  0  0  0  0  0  0  0  0  0  0
  141.0620   70.6690  227.5250 C   0  0  0  0  0  0  0  0  0  0  0  0
  140.8310   71.5070  226.4540 C   0  0  0  0  0  0  0  0  0  0  0  0
  140.2940   71.0780  225.2580 C   0  0  0  0  0  0  0  0  0  0  0  0
  140.0680   71.8990  224.2160 N   0  0  0  0  0  0  0  0  0  0  0  0
  139.6580   74.0270  223.0710 H   0  0  0  0  0  0  0  0  0  0  0  0
  138.0708   74.4055  220.7548 H   0  0  0  0  0  0  0  0  0  0  0  0
  139.5497   75.4962  221.2528 H   0  0  0  0  0  0  0  0  0  0  0  0
  141.1100   74.2040  217.2002 H   0  0  0  0  0  0  0  0  0  0  0  0
  140.6277   75.9571  217.6036 H   0  0  0  0  0  0  0  0  0  0  0  0
  143.2917   74.7277  217.2601 H   0  0  0  0  0  0  0  0  0  0  0  0
  142.5254   76.2766  216.6129 H   0  0  0  0  0  0  0  0  0  0  0  0
  144.3765   76.0833  218.6001 H   0  0  0  0  0  0  0  0  0  0  0  0
  143.2503   77.4664  218.2257 H   0  0  0  0  0  0  0  0  0  0  0  0
  143.4235   76.4979  220.6561 H   0  0  0  0  0  0  0  0  0  0  0  0
  141.8291   76.9697  219.9199 H   0  0  0  0  0  0  0  0  0  0  0  0
  141.8323   74.8100  221.1675 H   0  0  0  0  0  0  0  0  0  0  0  0
  143.3065   73.5196  218.9944 H   0  0  0  0  0  0  0  0  0  0  0  0
  142.5134   72.8748  221.9078 H   0  0  0  0  0  0  0  0  0  0  0  0
  141.5685   72.3313  220.5149 H   0  0  0  0  0  0  0  0  0  0  0  0
  143.8265   71.0357  221.6070 H   0  0  0  0  0  0  0  0  0  0  0  0
  143.1176   70.7392  219.9603 H   0  0  0  0  0  0  0  0  0  0  0  0
  145.5000   71.1660  220.1320 H   0  0  0  0  0  0  0  0  0  0  0  0
  145.7962   72.8410  221.5717 H   0  0  0  0  0  0  0  0  0  0  0  0
  146.1283   73.4898  219.8945 H   0  0  0  0  0  0  0  0  0  0  0  0
  144.1439   74.3534  221.8751 H   0  0  0  0  0  0  0  0  0  0  0  0
  144.7450   75.1980  220.4479 H   0  0  0  0  0  0  0  0  0  0  0  0
  138.7887   69.7367  221.9800 H   0  0  0  0  0  0  0  0  0  0  0  0
  139.1791   68.1440  223.8757 H   0  0  0  0  0  0  0  0  0  0  0  0
  139.9467   67.8090  226.0959 H   0  0  0  0  0  0  0  0  0  0  0  0
  141.4915   71.0600  228.4591 H   0  0  0  0  0  0  0  0  0  0  0  0
  141.0880   72.5714  226.5590 H   0  0  0  0  0  0  0  0  0  0  0  0
  1  2  2  0
  2  3  1  0
  3  4  1  0
  4  5  1  0
  5  6  2  0
  5  7  1  0
  7  8  1  0
  8  9  1  0
  9 10  1  0
 10 11  1  0
 11 12  1  0
 12 13  1  0
 13 14  1  0
 14 15  1  0
 15 16  1  0
 16 17  1  0
 17 18  1  0
  2 19  1  0
 19 20  2  0
 20 21  1  0
 21 22  2  0
 22 23  1  0
 23 24  2  0
 24 25  1  0
 24 26  1  0
 26 27  2  0
 27 28  1  0
 28 29  2  0
 12  7  1  0
 18 13  1  0
 29 19  1  0
 28 22  1  0
  3 30  1  0
  4 31  1  0
  4 32  1  0
  8 33  1  0
  8 34  1  0
  9 35  1  0
  9 36  1  0
 10 37  1  0
 10 38  1  0
 11 39  1  0
 11 40  1  0
 12 41  1  1
 13 42  1  0
 14 43  1  0
 14 44  1  0
 15 45  1  0
 15 46  1  0
 16 47  1  0
 17 48  1  0
 17 49  1  0
 18 50  1  0
 18 51  1  0
 20 52  1  0
 21 53  1  0
 23 54  1  0
 26 55  1  0
 27 56  1  0
M  END
>  <smiles>  (11) 
O=C(NCC(=O)N1CCCCC1C1CCNCC1)c1ccc2cc(Cl)ccc2n1

>  <score_type>  (11) 
oracle

>  <origin>  (11) 
autodockgpu

>  <m_score__min__energy>  (11) 
-8.6300000000000008

>  <m_primary>  (11) 
energy

>  <rmsd>  (11) 
1.9579314963249081

>  <m_score__min__rmsd>  (11) 
1.9579314963249081

>  <meeko>  (11) 
{"free_energy": -7.57, "intermolecular_energy": -9.06, "internal_energy": -1.94, "cluster_size": 18, "cluster_id": 2, "rank_in_cluster": 17}

>  <energy>  (11) 
-8.08

>  <cluster_rmsd>  (11) 
1.0

>  <cluster>  (11) 
1

$$$$

     RDKit          3D

 56 59  0  0  0  0  0  0  0  0999 V2000
  136.6210   77.9060  222.3510 O   0  0  0  0  0  0  0  0  0  0  0  0
  136.7500   76.7960  222.9310 C   0  0  0  0  0  0  0  0  0  0  0  0
  137.9960   76.0750  222.7200 N   0  0  0  0  0  0  0  0  0  0  0  0
  138.9360   76.7150  221.8710 C   0  0  0  0  0  0  0  0  0  0  0  0
  140.2570   77.0770  222.3020 C   0  0  0  0  0  0  0  0  0  0  0  0
  141.0780   76.0520  222.3800 O   0  0  0  0  0  0  0  0  0  0  0  0
  140.8550   78.3000  222.6590 N   0  0  0  0  0  0  0  0  0  0  0  0
  141.8140   78.5340  223.6790 C   0  0  0  0  0  0  0  0  0  0  0  0
  142.3230   79.9280  223.8550 C   0  0  0  0  0  0  0  0  0  0  0  0
  142.4440   80.7340  222.6120 C   0  0  0  0  0  0  0  0  0  0  0  0
  141.6820   80.1400  221.4470 C   0  0  0  0  0  0  0  0  0  0  0  0
  140.4180   79.4800  221.8730 C   0  0  2  0  0  0  0  0  0  0  0  0
  139.4300   80.3230  222.5840 C   0  0  0  0  0  0  0  0  0  0  0  0
  138.9030   79.5580  223.7790 C   0  0  0  0  0  0  0  0  0  0  0  0
  137.9770   80.5290  224.5140 C   0  0  0  0  0  0  0  0  0  0  0  0
  137.6880   81.7110  223.7290 N   0  0  0  0  0  0  0  0  0  0  0  0
  137.3040   81.4440  222.3760 C   0  0  0  0  0  0  0  0  0  0  0  0
  138.2240   80.4770  221.6600 C   0  0  0  0  0  0  0  0  0  0  0  0
  135.7250   76.2170  223.7890 C   0  0  0  0  0  0  0  0  0  0  0  0
  134.7590   77.0750  224.2730 C   0  0  0  0  0  0  0  0  0  0  0  0
  133.7590   76.5870  225.0900 C   0  0  0  0  0  0  0  0  0  0  0  0
  133.7880   75.2250  225.3840 C   0  0  0  0  0  0  0  0  0  0  0  0
  132.8020   74.7050  226.2000 C   0  0  0  0  0  0  0  0  0  0  0  0
  132.7730   73.3480  226.5340 C   0  0  0  0  0  0  0  0  0  0  0  0
  131.5020   72.7190  227.5760 Cl  0  0  0  0  0  0  0  0  0  0  0  0
  133.7550   72.5190  226.0330 C   0  0  0  0  0  0  0  0  0  0  0  0
  134.7300   73.0580  225.2190 C   0  0  0  0  0  0  0  0  0  0  0  0
  134.7780   74.3940  224.8770 C   0  0  0  0  0  0  0  0  0  0  0  0
  135.7320   74.9160  224.0840 N   0  0  0  0  0  0  0  0  0  0  0  0
  138.0470   75.1800  223.2170 H   0  0  0  0  0  0  0  0  0  0  0  0
  139.0710   76.0456  221.0086 H   0  0  0  0  0  0  0  0  0  0  0  0
  138.4711   77.7020  221.7311 H   0  0  0  0  0  0  0  0  0  0  0  0
  141.3586   78.2289  224.6327 H   0  0  0  0  0  0  0  0  0  0  0  0
  142.6960   77.9563  223.3655 H   0  0  0  0  0  0  0  0  0  0  0  0
  141.6360   80.4550  224.5335 H   0  0  0  0  0  0  0  0  0  0  0  0
  143.3462   79.8255  224.2455 H   0  0  0  0  0  0  0  0  0  0  0  0
  142.0531   81.7432  222.8089 H   0  0  0  0  0  0  0  0  0  0  0  0
  143.5082   80.7536  222.3342 H   0  0  0  0  0  0  0  0  0  0  0  0
  141.4387   80.9443  220.7372 H   0  0  0  0  0  0  0  0  0  0  0  0
  142.3210   79.3735  220.9842 H   0  0  0  0  0  0  0  0  0  0  0  0
  139.8312   79.2122  220.9820 H   0  0  0  0  0  0  0  0  0  0  0  0
  139.8917   81.2783  222.8741 H   0  0  0  0  0  0  0  0  0  0  0  0
  138.3443   78.6694  223.4500 H   0  0  0  0  0  0  0  0  0  0  0  0
  139.7182   79.2039  224.4271 H   0  0  0  0  0  0  0  0  0  0  0  0
  137.0316   80.0142  224.7400 H   0  0  0  0  0  0  0  0  0  0  0  0
  138.4876   80.8513  225.4334 H   0  0  0  0  0  0  0  0  0  0  0  0
  136.8760   82.1750  224.1940 H   0  0  0  0  0  0  0  0  0  0  0  0
  136.2895   81.0189  222.3807 H   0  0  0  0  0  0  0  0  0  0  0  0
  137.3571   82.3991  221.8330 H   0  0  0  0  0  0  0  0  0  0  0  0
  137.7255   79.5080  221.5099 H   0  0  0  0  0  0  0  0  0  0  0  0
  138.5110   80.8408  220.6624 H   0  0  0  0  0  0  0  0  0  0  0  0
  134.7855   78.1426  224.0092 H   0  0  0  0  0  0  0  0  0  0  0  0
  132.9737   77.2444  225.4914 H   0  0  0  0  0  0  0  0  0  0  0  0
  132.0229   75.3733  226.5954 H   0  0  0  0  0  0  0  0  0  0  0  0
  133.7607   71.4467  226.2782 H   0  0  0  0  0  0  0  0  0  0  0  0
  135.5082   72.3891  224.8227 H   0  0  0  0  0  0  0  0  0  0  0  0
  1  2  2  0
  2  3  1  0
  3  4  1  0
  4  5  1  0
  5  6  2  0
  5  7  1  0
  7  8  1  0
  8  9  1  0
  9 10  1  0
 10 11  1  0
 11 12  1  0
 12 13  1  0
 13 14  1  0
 14 15  1  0
 15 16  1  0
 16 17  1  0
 17 18  1  0
  2 19  1  0
 19 20  2  0
 20 21  1  0
 21 22  2  0
 22 23  1  0
 23 24  2  0
 24 25  1  0
 24 26  1  0
 26 27  2  0
 27 28  1  0
 28 29  2  0
 12  7  1  0
 18 13  1  0
 29 19  1  0
 28 22  1  0
  3 30  1  0
  4 31  1  0
  4 32  1  0
  8 33  1  0
  8 34  1  0
  9 35  1  0
  9 36  1  0
 10 37  1  0
 10 38  1  0
 11 39  1  0
 11 40  1  0
 12 41  1  6
 13 42  1  0
 14 43  1  0
 14 44  1  0
 15 45  1  0
 15 46  1  0
 16 47  1  0
 17 48  1  0
 17 49  1  0
 18 50  1  0
 18 51  1  0
 20 52  1  0
 21 53  1  0
 23 54  1  0
 26 55  1  0
 27 56  1  0
M  END
>  <smiles>  (12) 
O=C(NCC(=O)N1CCCCC1C1CCNCC1)c1ccc2cc(Cl)ccc2n1

>  <score_type>  (12) 
oracle

>  <origin>  (12) 
autodockgpu

>  <m_score__min__energy>  (12) 
-8.6300000000000008

>  <m_primary>  (12) 
energy

>  <rmsd>  (12) 
6.784657864876679

>  <m_score__min__rmsd>  (12) 
6.784657864876679

>  <meeko>  (12) 
{"free_energy": -7.07, "intermolecular_energy": -8.56, "internal_energy": -2.0, "cluster_size": 1, "cluster_id": 5, "rank_in_cluster": 1}

>  <energy>  (12) 
-8.06

>  <cluster_rmsd>  (12) 
1.5

>  <cluster>  (12) 
1

$$$$

     RDKit          3D

 56 59  0  0  0  0  0  0  0  0999 V2000
  140.3220   74.0070  222.0430 O   0  0  0  0  0  0  0  0  0  0  0  0
  139.9710   72.8010  221.9610 C   0  0  0  0  0  0  0  0  0  0  0  0
  139.4960   72.3330  220.6670 N   0  0  0  0  0  0  0  0  0  0  0  0
  139.4820   73.3050  219.6330 C   0  0  0  0  0  0  0  0  0  0  0  0
  140.5520   73.4520  218.6870 C   0  0  0  0  0  0  0  0  0  0  0  0
  140.5110   72.5690  217.7130 O   0  0  0  0  0  0  0  0  0  0  0  0
  141.6350   74.3450  218.5850 N   0  0  0  0  0  0  0  0  0  0  0  0
  141.9910   75.1570  217.4770 C   0  0  0  0  0  0  0  0  0  0  0  0
  143.1820   76.0490  217.6160 C   0  0  0  0  0  0  0  0  0  0  0  0
  143.4130   76.6130  218.9720 C   0  0  0  0  0  0  0  0  0  0  0  0
  142.6330   75.8930  220.0510 C   0  0  0  0  0  0  0  0  0  0  0  0
  142.5070   74.4340  219.7820 C   0  0  2  0  0  0  0  0  0  0  0  0
  143.7660   73.6680  219.6480 C   0  0  0  0  0  0  0  0  0  0  0  0
  143.4890   72.2120  219.9520 C   0  0  0  0  0  0  0  0  0  0  0  0
  144.8050   71.4770  219.6890 C   0  0  0  0  0  0  0  0  0  0  0  0
  145.9160   72.3900  219.5170 N   0  0  0  0  0  0  0  0  0  0  0  0
  146.0040   73.4120  220.5140 C   0  0  0  0  0  0  0  0  0  0  0  0
  144.6930   74.1280  220.7710 C   0  0  0  0  0  0  0  0  0  0  0  0
  140.0200   71.8740  223.0830 C   0  0  0  0  0  0  0  0  0  0  0  0
  139.5360   70.6010  222.8620 C   0  0  0  0  0  0  0  0  0  0  0  0
  139.5560   69.6750  223.8860 C   0  0  0  0  0  0  0  0  0  0  0  0
  140.0760   70.0930  225.1090 C   0  0  0  0  0  0  0  0  0  0  0  0
  140.1100   69.1900  226.1550 C   0  0  0  0  0  0  0  0  0  0  0  0
  140.6190   69.5450  227.4070 C   0  0  0  0  0  0  0  0  0  0  0  0
  140.6470   68.3700  228.7170 Cl  0  0  0  0  0  0  0  0  0  0  0  0
  141.0940   70.8270  227.5930 C   0  0  0  0  0  0  0  0  0  0  0  0
  141.0520   71.7130  226.5360 C   0  0  0  0  0  0  0  0  0  0  0  0
  140.5540   71.3840  225.2920 C   0  0  0  0  0  0  0  0  0  0  0  0
  140.5130   72.2510  224.2630 N   0  0  0  0  0  0  0  0  0  0  0  0
  139.2260   71.3440  220.6580 H   0  0  0  0  0  0  0  0  0  0  0  0
  138.5777   73.1043  219.0398 H   0  0  0  0  0  0  0  0  0  0  0  0
  139.5639   74.2399  220.2069 H   0  0  0  0  0  0  0  0  0  0  0  0
  142.1825   74.4854  216.6272 H   0  0  0  0  0  0  0  0  0  0  0  0
  141.1428   75.8471  217.3578 H   0  0  0  0  0  0  0  0  0  0  0  0
  144.0732   75.4683  217.3357 H   0  0  0  0  0  0  0  0  0  0  0  0
  142.9868   76.9121  216.9626 H   0  0  0  0  0  0  0  0  0  0  0  0
  144.4854   76.5381  219.2051 H   0  0  0  0  0  0  0  0  0  0  0  0
  143.0687   77.6576  218.9577 H   0  0  0  0  0  0  0  0  0  0  0  0
  143.1492   76.0317  221.0124 H   0  0  0  0  0  0  0  0  0  0  0  0
  141.6191   76.3190  220.0730 H   0  0  0  0  0  0  0  0  0  0  0  0
  142.0785   73.9381  220.6654 H   0  0  0  0  0  0  0  0  0  0  0  0
  144.1848   73.8088  218.6406 H   0  0  0  0  0  0  0  0  0  0  0  0
  143.1850   72.0905  221.0021 H   0  0  0  0  0  0  0  0  0  0  0  0
  142.6715   71.8159  219.3316 H   0  0  0  0  0  0  0  0  0  0  0  0
  145.0183   70.8160  220.5420 H   0  0  0  0  0  0  0  0  0  0  0  0
  144.6914   70.9036  218.7572 H   0  0  0  0  0  0  0  0  0  0  0  0
  146.7810   71.8100  219.5930 H   0  0  0  0  0  0  0  0  0  0  0  0
  146.3380   72.9509  221.4552 H   0  0  0  0  0  0  0  0  0  0  0  0
  146.7133   74.1651  220.1402 H   0  0  0  0  0  0  0  0  0  0  0  0
  144.2831   73.8443  221.7516 H   0  0  0  0  0  0  0  0  0  0  0  0
  144.8146   75.2212  220.7853 H   0  0  0  0  0  0  0  0  0  0  0  0
  139.1362   70.3252  221.8750 H   0  0  0  0  0  0  0  0  0  0  0  0
  139.1779   68.6520  223.7424 H   0  0  0  0  0  0  0  0  0  0  0  0
  139.7283   68.1703  225.9985 H   0  0  0  0  0  0  0  0  0  0  0  0
  141.4993   71.1375  228.5674 H   0  0  0  0  0  0  0  0  0  0  0  0
  141.4346   72.7323  226.6929 H   0  0  0  0  0  0  0  0  0  0  0  0
  1  2  2  0
  2  3  1  0
  3  4  1  0
  4  5  1  0
  5  6  2  0
  5  7  1  0
  7  8  1  0
  8  9  1  0
  9 10  1  0
 10 11  1  0
 11 12  1  0
 12 13  1  0
 13 14  1  0
 14 15  1  0
 15 16  1  0
 16 17  1  0
 17 18  1  0
  2 19  1  0
 19 20  2  0
 20 21  1  0
 21 22  2  0
 22 23  1  0
 23 24  2  0
 24 25  1  0
 24 26  1  0
 26 27  2  0
 27 28  1  0
 28 29  2  0
 12  7  1  0
 18 13  1  0
 29 19  1  0
 28 22  1  0
  3 30  1  0
  4 31  1  0
  4 32  1  0
  8 33  1  0
  8 34  1  0
  9 35  1  0
  9 36  1  0
 10 37  1  0
 10 38  1  0
 11 39  1  0
 11 40  1  0
 12 41  1  1
 13 42  1  0
 14 43  1  0
 14 44  1  0
 15 45  1  0
 15 46  1  0
 16 47  1  0
 17 48  1  0
 17 49  1  0
 18 50  1  0
 18 51  1  0
 20 52  1  0
 21 53  1  0
 23 54  1  0
 26 55  1  0
 27 56  1  0
M  END
>  <smiles>  (13) 
O=C(NCC(=O)N1CCCCC1C1CCNCC1)c1ccc2cc(Cl)ccc2n1

>  <score_type>  (13) 
oracle

>  <origin>  (13) 
autodockgpu

>  <m_score__min__energy>  (13) 
-8.6300000000000008

>  <m_primary>  (13) 
energy

>  <rmsd>  (13) 
2.5141985241056055

>  <m_score__min__rmsd>  (13) 
2.5141985241056055

>  <meeko>  (13) 
{"free_energy": -8.06, "intermolecular_energy": -9.55, "internal_energy": -1.71, "cluster_size": 18, "cluster_id": 2, "rank_in_cluster": 7}

>  <energy>  (13) 
-7.98

>  <cluster_rmsd>  (13) 
0.93

>  <cluster>  (13) 
1

$$$$

     RDKit          3D

 56 59  0  0  0  0  0  0  0  0999 V2000
  140.6230   72.5210  220.7810 O   0  0  0  0  0  0  0  0  0  0  0  0
  140.2520   72.8520  221.9380 C   0  0  0  0  0  0  0  0  0  0  0  0
  139.8570   74.2380  222.1400 N   0  0  0  0  0  0  0  0  0  0  0  0
  139.9370   75.0690  220.9920 C   0  0  0  0  0  0  0  0  0  0  0  0
  141.1620   75.6710  220.5490 C   0  0  0  0  0  0  0  0  0  0  0  0
  142.2080   74.8870  220.6910 O   0  0  0  0  0  0  0  0  0  0  0  0
  141.4760   76.9260  219.9940 N   0  0  0  0  0  0  0  0  0  0  0  0
  142.4370   77.2170  218.9910 C   0  0  0  0  0  0  0  0  0  0  0  0
  142.5740   78.6370  218.5440 C   0  0  0  0  0  0  0  0  0  0  0  0
  141.3220   79.4370  218.5360 C   0  0  0  0  0  0  0  0  0  0  0  0
  140.2060   78.7950  219.3330 C   0  0  0  0  0  0  0  0  0  0  0  0
  140.7100   78.0750  220.5350 C   0  0  2  0  0  0  0  0  0  0  0  0
  141.4720   78.8740  221.5220 C   0  0  0  0  0  0  0  0  0  0  0  0
  141.2110   78.3220  222.9060 C   0  0  0  0  0  0  0  0  0  0  0  0
  142.1100   79.1260  223.8480 C   0  0  0  0  0  0  0  0  0  0  0  0
  142.6830   80.2870  223.1990 N   0  0  0  0  0  0  0  0  0  0  0  0
  141.7450   81.0790  222.4640 C   0  0  0  0  0  0  0  0  0  0  0  0
  140.8560   80.2720  221.5400 C   0  0  0  0  0  0  0  0  0  0  0  0
  140.2030   71.9230  223.0590 C   0  0  0  0  0  0  0  0  0  0  0  0
  139.6410   70.6860  222.8200 C   0  0  0  0  0  0  0  0  0  0  0  0
  139.5650   69.7610  223.8410 C   0  0  0  0  0  0  0  0  0  0  0  0
  140.0720   70.1420  225.0820 C   0  0  0  0  0  0  0  0  0  0  0  0
  140.0110   69.2400  226.1260 C   0  0  0  0  0  0  0  0  0  0  0  0
  140.5010   69.5590  227.3960 C   0  0  0  0  0  0  0  0  0  0  0  0
  140.4070   68.3850  228.7030 Cl  0  0  0  0  0  0  0  0  0  0  0  0
  141.0550   70.8060  227.5990 C   0  0  0  0  0  0  0  0  0  0  0  0
  141.1080   71.6930  226.5440 C   0  0  0  0  0  0  0  0  0  0  0  0
  140.6300   71.3980  225.2830 C   0  0  0  0  0  0  0  0  0  0  0  0
  140.6810   72.2660  224.2560 N   0  0  0  0  0  0  0  0  0  0  0  0
  139.5630   74.4490  223.0990 H   0  0  0  0  0  0  0  0  0  0  0  0
  139.5768   74.4593  220.1503 H   0  0  0  0  0  0  0  0  0  0  0  0
  139.3627   75.9494  221.3161 H   0  0  0  0  0  0  0  0  0  0  0  0
  143.4175   76.8983  219.3745 H   0  0  0  0  0  0  0  0  0  0  0  0
  142.0769   76.6812  218.1004 H   0  0  0  0  0  0  0  0  0  0  0  0
  143.2881   79.1349  219.2164 H   0  0  0  0  0  0  0  0  0  0  0  0
  142.9042   78.5893  217.4958 H   0  0  0  0  0  0  0  0  0  0  0  0
  141.5355   80.4268  218.9658 H   0  0  0  0  0  0  0  0  0  0  0  0
  140.9828   79.5078  217.4920 H   0  0  0  0  0  0  0  0  0  0  0  0
  139.5072   79.5798  219.6582 H   0  0  0  0  0  0  0  0  0  0  0  0
  139.7102   78.0585  218.6836 H   0  0  0  0  0  0  0  0  0  0  0  0
  139.8566   77.7690  221.1580 H   0  0  0  0  0  0  0  0  0  0  0  0
  142.5419   78.8636  221.2666 H   0  0  0  0  0  0  0  0  0  0  0  0
  140.1536   78.4545  223.1788 H   0  0  0  0  0  0  0  0  0  0  0  0
  141.4256   77.2445  222.9608 H   0  0  0  0  0  0  0  0  0  0  0  0
  141.5122   79.4603  224.7087 H   0  0  0  0  0  0  0  0  0  0  0  0
  142.9371   78.4734  224.1643 H   0  0  0  0  0  0  0  0  0  0  0  0
  143.0620   80.8880  223.9640 H   0  0  0  0  0  0  0  0  0  0  0  0
  141.1052   81.6138  223.1814 H   0  0  0  0  0  0  0  0  0  0  0  0
  142.3293   81.7626  221.8306 H   0  0  0  0  0  0  0  0  0  0  0  0
  139.8269   80.2363  221.9270 H   0  0  0  0  0  0  0  0  0  0  0  0
  140.7983   80.7116  220.5333 H   0  0  0  0  0  0  0  0  0  0  0  0
  139.2553   70.4382  221.8201 H   0  0  0  0  0  0  0  0  0  0  0  0
  139.1234   68.7661  223.6824 H   0  0  0  0  0  0  0  0  0  0  0  0
  139.5669   68.2483  225.9545 H   0  0  0  0  0  0  0  0  0  0  0  0
  141.4483   71.0885  228.5867 H   0  0  0  0  0  0  0  0  0  0  0  0
  141.5530   72.6842  226.7159 H   0  0  0  0  0  0  0  0  0  0  0  0
  1  2  2  0
  2  3  1  0
  3  4  1  0
  4  5  1  0
  5  6  2  0
  5  7  1  0
  7  8  1  0
  8  9  1  0
  9 10  1  0
 10 11  1  0
 11 12  1  0
 12 13  1  0
 13 14  1  0
 14 15  1  0
 15 16  1  0
 16 17  1  0
 17 18  1  0
  2 19  1  0
 19 20  2  0
 20 21  1  0
 21 22  2  0
 22 23  1  0
 23 24  2  0
 24 25  1  0
 24 26  1  0
 26 27  2  0
 27 28  1  0
 28 29  2  0
 12  7  1  0
 18 13  1  0
 29 19  1  0
 28 22  1  0
  3 30  1  0
  4 31  1  0
  4 32  1  0
  8 33  1  0
  8 34  1  0
  9 35  1  0
  9 36  1  0
 10 37  1  0
 10 38  1  0
 11 39  1  0
 11 40  1  0
 12 41  1  1
 13 42  1  0
 14 43  1  0
 14 44  1  0
 15 45  1  0
 15 46  1  0
 16 47  1  0
 17 48  1  0
 17 49  1  0
 18 50  1  0
 18 51  1  0
 20 52  1  0
 21 53  1  0
 23 54  1  0
 26 55  1  0
 27 56  1  0
M  END
>  <smiles>  (14) 
O=C(NCC(=O)N1CCCCC1C1CCNCC1)c1ccc2cc(Cl)ccc2n1

>  <score_type>  (14) 
oracle

>  <origin>  (14) 
autodockgpu

>  <m_score__min__energy>  (14) 
-8.6300000000000008

>  <m_primary>  (14) 
energy

>  <rmsd>  (14) 
2.3941674602260763

>  <m_score__min__rmsd>  (14) 
2.3941674602260763

>  <meeko>  (14) 
{"free_energy": -8.38, "intermolecular_energy": -9.87, "internal_energy": -1.4, "cluster_size": 20, "cluster_id": 1, "rank_in_cluster": 6}

>  <energy>  (14) 
-7.95

>  <cluster_rmsd>  (14) 
0.83

>  <cluster>  (14) 
1

$$$$

     RDKit          3D

 56 59  0  0  0  0  0  0  0  0999 V2000
  140.1500   71.9980  220.7570 O   0  0  0  0  0  0  0  0  0  0  0  0
  139.8980   72.3650  221.9350 C   0  0  0  0  0  0  0  0  0  0  0  0
  139.5130   73.7540  222.1310 N   0  0  0  0  0  0  0  0  0  0  0  0
  139.4650   74.5470  220.9550 C   0  0  0  0  0  0  0  0  0  0  0  0
  140.5650   75.3590  220.5160 C   0  0  0  0  0  0  0  0  0  0  0  0
  140.7830   76.4010  221.2880 O   0  0  0  0  0  0  0  0  0  0  0  0
  141.4590   75.2700  219.4320 N   0  0  0  0  0  0  0  0  0  0  0  0
  141.1500   75.0120  218.0710 C   0  0  0  0  0  0  0  0  0  0  0  0
  142.2780   74.9880  217.0900 C   0  0  0  0  0  0  0  0  0  0  0  0
  143.3960   75.9270  217.3670 C   0  0  0  0  0  0  0  0  0  0  0  0
  143.3770   76.4670  218.7810 C   0  0  0  0  0  0  0  0  0  0  0  0
  142.8910   75.4620  219.7650 C   0  0  2  0  0  0  0  0  0  0  0  0
  143.6470   74.1920  219.8530 C   0  0  0  0  0  0  0  0  0  0  0  0
  142.9460   73.2700  220.8260 C   0  0  0  0  0  0  0  0  0  0  0  0
  143.7220   71.9520  220.7790 C   0  0  0  0  0  0  0  0  0  0  0  0
  144.9810   72.0840  220.0750 N   0  0  0  0  0  0  0  0  0  0  0  0
  145.7660   73.2140  220.4690 C   0  0  0  0  0  0  0  0  0  0  0  0
  144.9850   74.5110  220.5180 C   0  0  0  0  0  0  0  0  0  0  0  0
  139.9740   71.4740  223.0850 C   0  0  0  0  0  0  0  0  0  0  0  0
  139.5080   70.1870  222.9090 C   0  0  0  0  0  0  0  0  0  0  0  0
  139.5540   69.2950  223.9610 C   0  0  0  0  0  0  0  0  0  0  0  0
  140.0790   69.7590  225.1650 C   0  0  0  0  0  0  0  0  0  0  0  0
  140.1380   68.8900  226.2380 C   0  0  0  0  0  0  0  0  0  0  0  0
  140.6520   69.2930  227.4740 C   0  0  0  0  0  0  0  0  0  0  0  0
  140.7120   68.1600  228.8190 Cl  0  0  0  0  0  0  0  0  0  0  0  0
  141.1080   70.5870  227.6140 C   0  0  0  0  0  0  0  0  0  0  0  0
  141.0410   71.4380  226.5310 C   0  0  0  0  0  0  0  0  0  0  0  0
  140.5370   71.0630  225.3030 C   0  0  0  0  0  0  0  0  0  0  0  0
  140.4720   71.8960  224.2480 N   0  0  0  0  0  0  0  0  0  0  0  0
  139.3190   73.9960  223.1080 H   0  0  0  0  0  0  0  0  0  0  0  0
  139.2520   73.8524  220.1291 H   0  0  0  0  0  0  0  0  0  0  0  0
  138.7240   75.3107  221.2336 H   0  0  0  0  0  0  0  0  0  0  0  0
  140.6571   74.0296  218.0275 H   0  0  0  0  0  0  0  0  0  0  0  0
  140.5330   75.8683  217.7611 H   0  0  0  0  0  0  0  0  0  0  0  0
  142.6899   73.9681  217.0742 H   0  0  0  0  0  0  0  0  0  0  0  0
  141.8469   75.3113  216.1310 H   0  0  0  0  0  0  0  0  0  0  0  0
  144.3467   75.3974  217.2066 H   0  0  0  0  0  0  0  0  0  0  0  0
  143.2835   76.7833  216.6858 H   0  0  0  0  0  0  0  0  0  0  0  0
  144.3981   76.7678  219.0581 H   0  0  0  0  0  0  0  0  0  0  0  0
  142.6850   77.3217  218.8046 H   0  0  0  0  0  0  0  0  0  0  0  0
  143.0495   75.8464  220.7834 H   0  0  0  0  0  0  0  0  0  0  0  0
  143.7434   73.7436  218.8532 H   0  0  0  0  0  0  0  0  0  0  0  0
  142.9701   73.6934  221.8410 H   0  0  0  0  0  0  0  0  0  0  0  0
  141.8879   73.1281  220.5608 H   0  0  0  0  0  0  0  0  0  0  0  0
  143.9247   71.6232  221.8089 H   0  0  0  0  0  0  0  0  0  0  0  0
  143.1077   71.2171  220.2381 H   0  0  0  0  0  0  0  0  0  0  0  0
  145.5330   71.2290  220.3080 H   0  0  0  0  0  0  0  0  0  0  0  0
  146.1778   73.0186  221.4701 H   0  0  0  0  0  0  0  0  0  0  0  0
  146.5514   73.3403  219.7092 H   0  0  0  0  0  0  0  0  0  0  0  0
  144.8326   74.8315  221.5592 H   0  0  0  0  0  0  0  0  0  0  0  0
  145.5137   75.3312  220.0103 H   0  0  0  0  0  0  0  0  0  0  0  0
  139.1022   69.8739  221.9357 H   0  0  0  0  0  0  0  0  0  0  0  0
  139.1917   68.2620  223.8534 H   0  0  0  0  0  0  0  0  0  0  0  0
  139.7728   67.8595  226.1169 H   0  0  0  0  0  0  0  0  0  0  0  0
  141.5183   70.9345  228.5736 H   0  0  0  0  0  0  0  0  0  0  0  0
  141.4080   72.4678  226.6525 H   0  0  0  0  0  0  0  0  0  0  0  0
  1  2  2  0
  2  3  1  0
  3  4  1  0
  4  5  1  0
  5  6  2  0
  5  7  1  0
  7  8  1  0
  8  9  1  0
  9 10  1  0
 10 11  1  0
 11 12  1  0
 12 13  1  0
 13 14  1  0
 14 15  1  0
 15 16  1  0
 16 17  1  0
 17 18  1  0
  2 19  1  0
 19 20  2  0
 20 21  1  0
 21 22  2  0
 22 23  1  0
 23 24  2  0
 24 25  1  0
 24 26  1  0
 26 27  2  0
 27 28  1  0
 28 29  2  0
 12  7  1  0
 18 13  1  0
 29 19  1  0
 28 22  1  0
  3 30  1  0
  4 31  1  0
  4 32  1  0
  8 33  1  0
  8 34  1  0
  9 35  1  0
  9 36  1  0
 10 37  1  0
 10 38  1  0
 11 39  1  0
 11 40  1  0
 12 41  1  1
 13 42  1  0
 14 43  1  0
 14 44  1  0
 15 45  1  0
 15 46  1  0
 16 47  1  0
 17 48  1  0
 17 49  1  0
 18 50  1  0
 18 51  1  0
 20 52  1  0
 21 53  1  0
 23 54  1  0
 26 55  1  0
 27 56  1  0
M  END
>  <smiles>  (15) 
O=C(NCC(=O)N1CCCCC1C1CCNCC1)c1ccc2cc(Cl)ccc2n1

>  <score_type>  (15) 
oracle

>  <origin>  (15) 
autodockgpu

>  <m_score__min__energy>  (15) 
-8.6300000000000008

>  <m_primary>  (15) 
energy

>  <rmsd>  (15) 
1.8385833325160081

>  <m_score__min__rmsd>  (15) 
1.8385833325160081

>  <meeko>  (15) 
{"free_energy": -8.17, "intermolecular_energy": -9.66, "internal_energy": -1.91, "cluster_size": 18, "cluster_id": 2, "rank_in_cluster": 3}

>  <energy>  (15) 
-7.9

>  <cluster_rmsd>  (15) 
0.99

>  <cluster>  (15) 
1

$$$$

     RDKit          3D

 56 59  0  0  0  0  0  0  0  0999 V2000
  140.2500   74.5850  219.6540 O   0  0  0  0  0  0  0  0  0  0  0  0
  140.9750   74.1310  220.5780 C   0  0  0  0  0  0  0  0  0  0  0  0
  142.2460   74.7980  220.8150 N   0  0  0  0  0  0  0  0  0  0  0  0
  142.5270   75.8990  219.9650 C   0  0  0  0  0  0  0  0  0  0  0  0
  141.6280   77.0070  219.8010 C   0  0  0  0  0  0  0  0  0  0  0  0
  141.8650   77.7130  218.7180 O   0  0  0  0  0  0  0  0  0  0  0  0
  140.5460   77.4920  220.5590 N   0  0  0  0  0  0  0  0  0  0  0  0
  139.2480   77.8360  220.1000 C   0  0  0  0  0  0  0  0  0  0  0  0
  138.2520   78.3120  221.1080 C   0  0  0  0  0  0  0  0  0  0  0  0
  138.3540   77.6990  222.4580 C   0  0  0  0  0  0  0  0  0  0  0  0
  139.6710   76.9880  222.6850 C   0  0  0  0  0  0  0  0  0  0  0  0
  140.8080   77.6700  222.0080 C   0  0  2  0  0  0  0  0  0  0  0  0
  141.0650   79.0770  222.3890 C   0  0  0  0  0  0  0  0  0  0  0  0
  141.6340   79.8120  221.1940 C   0  0  0  0  0  0  0  0  0  0  0  0
  141.7700   81.2710  221.6330 C   0  0  0  0  0  0  0  0  0  0  0  0
  141.5920   81.4310  223.0610 N   0  0  0  0  0  0  0  0  0  0  0  0
  142.3370   80.5060  223.8600 C   0  0  0  0  0  0  0  0  0  0  0  0
  142.2000   79.0650  223.4110 C   0  0  0  0  0  0  0  0  0  0  0  0
  140.6000   72.9900  221.4020 C   0  0  0  0  0  0  0  0  0  0  0  0
  140.0050   71.9240  220.7600 C   0  0  0  0  0  0  0  0  0  0  0  0
  139.6280   70.8130  221.4860 C   0  0  0  0  0  0  0  0  0  0  0  0
  139.8760   70.8360  222.8570 C   0  0  0  0  0  0  0  0  0  0  0  0
  139.5090   69.7390  223.6120 C   0  0  0  0  0  0  0  0  0  0  0  0
  139.7300   69.6980  224.9920 C   0  0  0  0  0  0  0  0  0  0  0  0
  139.2500   68.2850  225.9240 Cl  0  0  0  0  0  0  0  0  0  0  0  0
  140.3260   70.7820  225.6020 C   0  0  0  0  0  0  0  0  0  0  0  0
  140.6850   71.8670  224.8300 C   0  0  0  0  0  0  0  0  0  0  0  0
  140.4770   71.9290  223.4670 C   0  0  0  0  0  0  0  0  0  0  0  0
  140.8270   72.9900  222.7170 N   0  0  0  0  0  0  0  0  0  0  0  0
  142.7930   74.3880  221.5790 H   0  0  0  0  0  0  0  0  0  0  0  0
  143.4739   76.3271  220.3258 H   0  0  0  0  0  0  0  0  0  0  0  0
  142.4820   75.4287  218.9716 H   0  0  0  0  0  0  0  0  0  0  0  0
  139.3659   78.6353  219.3535 H   0  0  0  0  0  0  0  0  0  0  0  0
  138.8293   76.8908  219.7242 H   0  0  0  0  0  0  0  0  0  0  0  0
  138.3788   79.3989  221.2205 H   0  0  0  0  0  0  0  0  0  0  0  0
  137.2673   78.0142  220.7185 H   0  0  0  0  0  0  0  0  0  0  0  0
  138.2491   78.4926  223.2125 H   0  0  0  0  0  0  0  0  0  0  0  0
  137.5551   76.9474  222.5401 H   0  0  0  0  0  0  0  0  0  0  0  0
  139.8724   76.9540  223.7659 H   0  0  0  0  0  0  0  0  0  0  0  0
  139.5844   75.9774  222.2592 H   0  0  0  0  0  0  0  0  0  0  0  0
  141.7529   77.2110  222.3343 H   0  0  0  0  0  0  0  0  0  0  0  0
  140.1386   79.5405  222.7591 H   0  0  0  0  0  0  0  0  0  0  0  0
  142.6170   79.3998  220.9224 H   0  0  0  0  0  0  0  0  0  0  0  0
  140.9872   79.7122  220.3098 H   0  0  0  0  0  0  0  0  0  0  0  0
  142.7722   81.6317  221.3583 H   0  0  0  0  0  0  0  0  0  0  0  0
  140.9836   81.8506  221.1275 H   0  0  0  0  0  0  0  0  0  0  0  0
  141.9420   82.3880  223.2910 H   0  0  0  0  0  0  0  0  0  0  0  0
  143.4001   80.7846  223.8135 H   0  0  0  0  0  0  0  0  0  0  0  0
  141.9321   80.5644  224.8811 H   0  0  0  0  0  0  0  0  0  0  0  0
  143.1339   78.7137  222.9479 H   0  0  0  0  0  0  0  0  0  0  0  0
  141.9920   78.3875  224.2523 H   0  0  0  0  0  0  0  0  0  0  0  0
  139.8319   71.9595  219.6743 H   0  0  0  0  0  0  0  0  0  0  0  0
  139.1522   69.9465  221.0034 H   0  0  0  0  0  0  0  0  0  0  0  0
  139.0329   68.8797  223.1172 H   0  0  0  0  0  0  0  0  0  0  0  0
  140.5119   70.7811  226.6862 H   0  0  0  0  0  0  0  0  0  0  0  0
  141.1610   72.7261  225.3254 H   0  0  0  0  0  0  0  0  0  0  0  0
  1  2  2  0
  2  3  1  0
  3  4  1  0
  4  5  1  0
  5  6  2  0
  5  7  1  0
  7  8  1  0
  8  9  1  0
  9 10  1  0
 10 11  1  0
 11 12  1  0
 12 13  1  0
 13 14  1  0
 14 15  1  0
 15 16  1  0
 16 17  1  0
 17 18  1  0
  2 19  1  0
 19 20  2  0
 20 21  1  0
 21 22  2  0
 22 23  1  0
 23 24  2  0
 24 25  1  0
 24 26  1  0
 26 27  2  0
 27 28  1  0
 28 29  2  0
 12  7  1  0
 18 13  1  0
 29 19  1  0
 28 22  1  0
  3 30  1  0
  4 31  1  0
  4 32  1  0
  8 33  1  0
  8 34  1  0
  9 35  1  0
  9 36  1  0
 10 37  1  0
 10 38  1  0
 11 39  1  0
 11 40  1  0
 12 41  1  1
 13 42  1  0
 14 43  1  0
 14 44  1  0
 15 45  1  0
 15 46  1  0
 16 47  1  0
 17 48  1  0
 17 49  1  0
 18 50  1  0
 18 51  1  0
 20 52  1  0
 21 53  1  0
 23 54  1  0
 26 55  1  0
 27 56  1  0
M  END
>  <smiles>  (16) 
O=C(NCC(=O)N1CCCCC1C1CCNCC1)c1ccc2cc(Cl)ccc2n1

>  <score_type>  (16) 
oracle

>  <origin>  (16) 
autodockgpu

>  <m_score__min__energy>  (16) 
-8.6300000000000008

>  <m_primary>  (16) 
energy

>  <rmsd>  (16) 
3.9558903235423

>  <m_score__min__rmsd>  (16) 
3.9558903235423

>  <meeko>  (16) 
{"free_energy": -6.75, "intermolecular_energy": -8.24, "internal_energy": -1.88, "cluster_size": 1, "cluster_id": 7, "rank_in_cluster": 1}

>  <energy>  (16) 
-7.69

>  <cluster_rmsd>  (16) 
1.14

>  <cluster>  (16) 
1

$$$$

     RDKit          3D

 56 59  0  0  0  0  0  0  0  0999 V2000
  139.1810   71.8750  220.9580 O   0  0  0  0  0  0  0  0  0  0  0  0
  139.3950   72.2880  222.1280 C   0  0  0  0  0  0  0  0  0  0  0  0
  139.3910   73.7280  222.3370 N   0  0  0  0  0  0  0  0  0  0  0  0
  139.1420   74.5130  221.1800 C   0  0  0  0  0  0  0  0  0  0  0  0
  139.6770   75.8330  221.0040 C   0  0  0  0  0  0  0  0  0  0  0  0
  138.8480   76.7850  221.3720 O   0  0  0  0  0  0  0  0  0  0  0  0
  140.9050   76.3200  220.5190 N   0  0  0  0  0  0  0  0  0  0  0  0
  142.0660   75.5740  220.1860 C   0  0  0  0  0  0  0  0  0  0  0  0
  143.2520   76.3190  219.6640 C   0  0  0  0  0  0  0  0  0  0  0  0
  142.9510   77.5130  218.8320 C   0  0  0  0  0  0  0  0  0  0  0  0
  141.5180   77.9830  218.9700 C   0  0  0  0  0  0  0  0  0  0  0  0
  140.9890   77.7910  220.3480 C   0  0  2  0  0  0  0  0  0  0  0  0
  141.7180   78.4680  221.4440 C   0  0  0  0  0  0  0  0  0  0  0  0
  140.9660   78.2520  222.7400 C   0  0  0  0  0  0  0  0  0  0  0  0
  141.8320   78.8850  223.8300 C   0  0  0  0  0  0  0  0  0  0  0  0
  142.8990   79.6950  223.2800 N   0  0  0  0  0  0  0  0  0  0  0  0
  142.4850   80.6070  222.2570 C   0  0  0  0  0  0  0  0  0  0  0  0
  141.6220   79.9700  221.1860 C   0  0  0  0  0  0  0  0  0  0  0  0
  139.6410   71.4020  223.2570 C   0  0  0  0  0  0  0  0  0  0  0  0
  139.3370   70.0680  223.0810 C   0  0  0  0  0  0  0  0  0  0  0  0
  139.5480   69.1770  224.1140 C   0  0  0  0  0  0  0  0  0  0  0  0
  140.0680   69.6920  225.3000 C   0  0  0  0  0  0  0  0  0  0  0  0
  140.2900   68.8260  226.3540 C   0  0  0  0  0  0  0  0  0  0  0  0
  140.8100   69.2780  227.5700 C   0  0  0  0  0  0  0  0  0  0  0  0
  141.0800   68.1470  228.8910 Cl  0  0  0  0  0  0  0  0  0  0  0  0
  141.1020   70.6180  227.7110 C   0  0  0  0  0  0  0  0  0  0  0  0
  140.8730   71.4660  226.6470 C   0  0  0  0  0  0  0  0  0  0  0  0
  140.3610   71.0420  225.4380 C   0  0  0  0  0  0  0  0  0  0  0  0
  140.1380   71.8720  224.4030 N   0  0  0  0  0  0  0  0  0  0  0  0
  139.5690   74.0070  223.3070 H   0  0  0  0  0  0  0  0  0  0  0  0
  139.5068   73.9214  220.3274 H   0  0  0  0  0  0  0  0  0  0  0  0
  138.0668   74.7218  221.2814 H   0  0  0  0  0  0  0  0  0  0  0  0
  142.3865   75.0442  221.0952 H   0  0  0  0  0  0  0  0  0  0  0  0
  141.7515   74.9352  219.3475 H   0  0  0  0  0  0  0  0  0  0  0  0
  143.8487   76.6505  220.5266 H   0  0  0  0  0  0  0  0  0  0  0  0
  143.7772   75.6168  218.9998 H   0  0  0  0  0  0  0  0  0  0  0  0
  143.6195   78.3312  219.1379 H   0  0  0  0  0  0  0  0  0  0  0  0
  143.1049   77.2292  217.7804 H   0  0  0  0  0  0  0  0  0  0  0  0
  141.4713   79.0531  218.7194 H   0  0  0  0  0  0  0  0  0  0  0  0
  140.9002   77.3821  218.2864 H   0  0  0  0  0  0  0  0  0  0  0  0
  140.0130   78.2910  220.4344 H   0  0  0  0  0  0  0  0  0  0  0  0
  142.7503   78.0917  221.4963 H   0  0  0  0  0  0  0  0  0  0  0  0
  139.9820   78.7419  222.6989 H   0  0  0  0  0  0  0  0  0  0  0  0
  140.7865   77.1840  222.9326 H   0  0  0  0  0  0  0  0  0  0  0  0
  141.1956   79.5203  224.4635 H   0  0  0  0  0  0  0  0  0  0  0  0
  142.2910   78.0716  224.4112 H   0  0  0  0  0  0  0  0  0  0  0  0
  143.2650   80.2680  224.0730 H   0  0  0  0  0  0  0  0  0  0  0  0
  141.9117   81.4195  222.7273 H   0  0  0  0  0  0  0  0  0  0  0  0
  143.3974   80.9698  221.7611 H   0  0  0  0  0  0  0  0  0  0  0  0
  140.5802   80.3119  221.2747 H   0  0  0  0  0  0  0  0  0  0  0  0
  141.9557   80.2377  220.1726 H   0  0  0  0  0  0  0  0  0  0  0  0
  138.9285   69.7160  222.1222 H   0  0  0  0  0  0  0  0  0  0  0  0
  139.3159   68.1072  224.0058 H   0  0  0  0  0  0  0  0  0  0  0  0
  140.0525   67.7588  226.2333 H   0  0  0  0  0  0  0  0  0  0  0  0
  141.5108   71.0047  228.6562 H   0  0  0  0  0  0  0  0  0  0  0  0
  141.1104   72.5332  226.7687 H   0  0  0  0  0  0  0  0  0  0  0  0
  1  2  2  0
  2  3  1  0
  3  4  1  0
  4  5  1  0
  5  6  2  0
  5  7  1  0
  7  8  1  0
  8  9  1  0
  9 10  1  0
 10 11  1  0
 11 12  1  0
 12 13  1  0
 13 14  1  0
 14 15  1  0
 15 16  1  0
 16 17  1  0
 17 18  1  0
  2 19  1  0
 19 20  2  0
 20 21  1  0
 21 22  2  0
 22 23  1  0
 23 24  2  0
 24 25  1  0
 24 26  1  0
 26 27  2  0
 27 28  1  0
 28 29  2  0
 12  7  1  0
 18 13  1  0
 29 19  1  0
 28 22  1  0
  3 30  1  0
  4 31  1  0
  4 32  1  0
  8 33  1  0
  8 34  1  0
  9 35  1  0
  9 36  1  0
 10 37  1  0
 10 38  1  0
 11 39  1  0
 11 40  1  0
 12 41  1  6
 13 42  1  0
 14 43  1  0
 14 44  1  0
 15 45  1  0
 15 46  1  0
 16 47  1  0
 17 48  1  0
 17 49  1  0
 18 50  1  0
 18 51  1  0
 20 52  1  0
 21 53  1  0
 23 54  1  0
 26 55  1  0
 27 56  1  0
M  END
>  <smiles>  (17) 
O=C(NCC(=O)N1CCCCC1C1CCNCC1)c1ccc2cc(Cl)ccc2n1

>  <score_type>  (17) 
oracle

>  <origin>  (17) 
autodockgpu

>  <m_score__min__energy>  (17) 
-8.6300000000000008

>  <m_primary>  (17) 
energy

>  <rmsd>  (17) 
1.9488685798072054

>  <m_score__min__rmsd>  (17) 
1.9488685798072054

>  <meeko>  (17) 
{"free_energy": -8.52, "intermolecular_energy": -10.02, "internal_energy": -1.57, "cluster_size": 20, "cluster_id": 1, "rank_in_cluster": 4}

>  <energy>  (17) 
-7.64

>  <cluster_rmsd>  (17) 
1.23

>  <cluster>  (17) 
1

$$$$

     RDKit          3D

 56 59  0  0  0  0  0  0  0  0999 V2000
  140.6460   73.8640  222.1190 O   0  0  0  0  0  0  0  0  0  0  0  0
  140.0560   72.7530  222.0810 C   0  0  0  0  0  0  0  0  0  0  0  0
  139.3290   72.4270  220.8630 N   0  0  0  0  0  0  0  0  0  0  0  0
  139.3700   73.4150  219.8440 C   0  0  0  0  0  0  0  0  0  0  0  0
  140.4140   73.4790  218.8610 C   0  0  0  0  0  0  0  0  0  0  0  0
  140.3440   72.5200  217.9630 O   0  0  0  0  0  0  0  0  0  0  0  0
  141.4970   74.3550  218.6590 N   0  0  0  0  0  0  0  0  0  0  0  0
  141.7990   75.1100  217.4950 C   0  0  0  0  0  0  0  0  0  0  0  0
  143.0020   75.9950  217.5280 C   0  0  0  0  0  0  0  0  0  0  0  0
  143.3110   76.6190  218.8410 C   0  0  0  0  0  0  0  0  0  0  0  0
  142.5860   75.9590  219.9940 C   0  0  0  0  0  0  0  0  0  0  0  0
  142.4340   74.4900  219.8010 C   0  0  2  0  0  0  0  0  0  0  0  0
  143.6780   73.7060  219.6340 C   0  0  0  0  0  0  0  0  0  0  0  0
  143.3700   72.2430  219.8710 C   0  0  0  0  0  0  0  0  0  0  0  0
  144.6720   71.4940  219.5780 C   0  0  0  0  0  0  0  0  0  0  0  0
  145.8020   72.3910  219.4510 N   0  0  0  0  0  0  0  0  0  0  0  0
  145.9070   73.3640  220.4940 C   0  0  0  0  0  0  0  0  0  0  0  0
  144.6100   74.0940  220.7800 C   0  0  0  0  0  0  0  0  0  0  0  0
  140.0710   71.7990  223.1810 C   0  0  0  0  0  0  0  0  0  0  0  0
  139.5750   70.5380  222.9210 C   0  0  0  0  0  0  0  0  0  0  0  0
  139.5630   69.5890  223.9230 C   0  0  0  0  0  0  0  0  0  0  0  0
  140.0640   69.9710  225.1660 C   0  0  0  0  0  0  0  0  0  0  0  0
  140.0650   69.0430  226.1900 C   0  0  0  0  0  0  0  0  0  0  0  0
  140.5540   69.3620  227.4600 C   0  0  0  0  0  0  0  0  0  0  0  0
  140.5400   68.1570  228.7420 Cl  0  0  0  0  0  0  0  0  0  0  0  0
  141.0420   70.6320  227.6850 C   0  0  0  0  0  0  0  0  0  0  0  0
  141.0320   71.5430  226.6490 C   0  0  0  0  0  0  0  0  0  0  0  0
  140.5550   71.2510  225.3880 C   0  0  0  0  0  0  0  0  0  0  0  0
  140.5460   72.1420  224.3800 N   0  0  0  0  0  0  0  0  0  0  0  0
  138.8710   71.5100  220.8860 H   0  0  0  0  0  0  0  0  0  0  0  0
  138.4301   73.3105  219.2821 H   0  0  0  0  0  0  0  0  0  0  0  0
  139.5606   74.3272  220.4284 H   0  0  0  0  0  0  0  0  0  0  0  0
  141.9396   74.3968  216.6694 H   0  0  0  0  0  0  0  0  0  0  0  0
  140.9507   75.8019  217.3874 H   0  0  0  0  0  0  0  0  0  0  0  0
  143.8721   75.3928  217.2275 H   0  0  0  0  0  0  0  0  0  0  0  0
  142.7777   76.8290  216.8467 H   0  0  0  0  0  0  0  0  0  0  0  0
  144.3940   76.5439  219.0187 H   0  0  0  0  0  0  0  0  0  0  0  0
  142.9742   77.6652  218.7958 H   0  0  0  0  0  0  0  0  0  0  0  0
  143.1555   76.1371  220.9181 H   0  0  0  0  0  0  0  0  0  0  0  0
  141.5783   76.3963  220.0518 H   0  0  0  0  0  0  0  0  0  0  0  0
  142.0510   74.0398  220.7287 H   0  0  0  0  0  0  0  0  0  0  0  0
  144.1029   73.8849  218.6353 H   0  0  0  0  0  0  0  0  0  0  0  0
  143.0600   72.0802  220.9138 H   0  0  0  0  0  0  0  0  0  0  0  0
  142.5466   71.8922  219.2315 H   0  0  0  0  0  0  0  0  0  0  0  0
  144.8688   70.7904  220.4003 H   0  0  0  0  0  0  0  0  0  0  0  0
  144.5502   70.9664  218.6205 H   0  0  0  0  0  0  0  0  0  0  0  0
  146.6540   71.7910  219.5030 H   0  0  0  0  0  0  0  0  0  0  0  0
  146.2281   72.8535  221.4139 H   0  0  0  0  0  0  0  0  0  0  0  0
  146.6328   74.1188  220.1571 H   0  0  0  0  0  0  0  0  0  0  0  0
  144.1905   73.7736  221.7451 H   0  0  0  0  0  0  0  0  0  0  0  0
  144.7539   75.1826  220.8454 H   0  0  0  0  0  0  0  0  0  0  0  0
  139.1911   70.2904  221.9203 H   0  0  0  0  0  0  0  0  0  0  0  0
  139.1747   68.5748  223.7480 H   0  0  0  0  0  0  0  0  0  0  0  0
  139.6730   68.0326  226.0018 H   0  0  0  0  0  0  0  0  0  0  0  0
  141.4327   70.9139  228.6739 H   0  0  0  0  0  0  0  0  0  0  0  0
  141.4242   72.5532  226.8380 H   0  0  0  0  0  0  0  0  0  0  0  0
  1  2  2  0
  2  3  1  0
  3  4  1  0
  4  5  1  0
  5  6  2  0
  5  7  1  0
  7  8  1  0
  8  9  1  0
  9 10  1  0
 10 11  1  0
 11 12  1  0
 12 13  1  0
 13 14  1  0
 14 15  1  0
 15 16  1  0
 16 17  1  0
 17 18  1  0
  2 19  1  0
 19 20  2  0
 20 21  1  0
 21 22  2  0
 22 23  1  0
 23 24  2  0
 24 25  1  0
 24 26  1  0
 26 27  2  0
 27 28  1  0
 28 29  2  0
 12  7  1  0
 18 13  1  0
 29 19  1  0
 28 22  1  0
  3 30  1  0
  4 31  1  0
  4 32  1  0
  8 33  1  0
  8 34  1  0
  9 35  1  0
  9 36  1  0
 10 37  1  0
 10 38  1  0
 11 39  1  0
 11 40  1  0
 12 41  1  1
 13 42  1  0
 14 43  1  0
 14 44  1  0
 15 45  1  0
 15 46  1  0
 16 47  1  0
 17 48  1  0
 17 49  1  0
 18 50  1  0
 18 51  1  0
 20 52  1  0
 21 53  1  0
 23 54  1  0
 26 55  1  0
 27 56  1  0
M  END
>  <smiles>  (18) 
O=C(NCC(=O)N1CCCCC1C1CCNCC1)c1ccc2cc(Cl)ccc2n1

>  <score_type>  (18) 
oracle

>  <origin>  (18) 
autodockgpu

>  <m_score__min__energy>  (18) 
-8.6300000000000008

>  <m_primary>  (18) 
energy

>  <rmsd>  (18) 
2.4001465531171315

>  <m_score__min__rmsd>  (18) 
2.4001465531171315

>  <meeko>  (18) 
{"free_energy": -7.88, "intermolecular_energy": -9.37, "internal_energy": -1.73, "cluster_size": 18, "cluster_id": 2, "rank_in_cluster": 12}

>  <energy>  (18) 
-7.63

>  <cluster_rmsd>  (18) 
1.25

>  <cluster>  (18) 
1

$$$$

     RDKit          3D

 56 59  0  0  0  0  0  0  0  0999 V2000
  140.5870   73.9670  222.0030 O   0  0  0  0  0  0  0  0  0  0  0  0
  140.0730   72.8180  221.9630 C   0  0  0  0  0  0  0  0  0  0  0  0
  139.4350   72.4170  220.7180 N   0  0  0  0  0  0  0  0  0  0  0  0
  139.4650   73.3820  219.6770 C   0  0  0  0  0  0  0  0  0  0  0  0
  140.5560   73.4960  218.7510 C   0  0  0  0  0  0  0  0  0  0  0  0
  140.5550   72.5600  217.8270 O   0  0  0  0  0  0  0  0  0  0  0  0
  141.6260   74.4020  218.6260 N   0  0  0  0  0  0  0  0  0  0  0  0
  141.9530   75.2120  217.5070 C   0  0  0  0  0  0  0  0  0  0  0  0
  143.1340   76.1200  217.6220 C   0  0  0  0  0  0  0  0  0  0  0  0
  143.3790   76.6960  218.9700 C   0  0  0  0  0  0  0  0  0  0  0  0
  142.6260   75.9720  220.0660 C   0  0  0  0  0  0  0  0  0  0  0  0
  142.5150   74.5100  219.8080 C   0  0  2  0  0  0  0  0  0  0  0  0
  143.7820   73.7600  219.6580 C   0  0  0  0  0  0  0  0  0  0  0  0
  143.5070   72.2860  219.8680 C   0  0  0  0  0  0  0  0  0  0  0  0
  144.8330   71.5750  219.5930 C   0  0  0  0  0  0  0  0  0  0  0  0
  145.9420   72.5020  219.5020 N   0  0  0  0  0  0  0  0  0  0  0  0
  146.0000   73.4630  220.5610 C   0  0  0  0  0  0  0  0  0  0  0  0
  144.6790   74.1560  220.8290 C   0  0  0  0  0  0  0  0  0  0  0  0
  140.0930   71.8930  223.0870 C   0  0  0  0  0  0  0  0  0  0  0  0
  139.5890   70.6280  222.8640 C   0  0  0  0  0  0  0  0  0  0  0  0
  139.5810   69.7050  223.8890 C   0  0  0  0  0  0  0  0  0  0  0  0
  140.0920   70.1160  225.1190 C   0  0  0  0  0  0  0  0  0  0  0  0
  140.0980   69.2160  226.1660 C   0  0  0  0  0  0  0  0  0  0  0  0
  140.5960   69.5650  227.4240 C   0  0  0  0  0  0  0  0  0  0  0  0
  140.5870   68.3930  228.7370 Cl  0  0  0  0  0  0  0  0  0  0  0  0
  141.0910   70.8390  227.6130 C   0  0  0  0  0  0  0  0  0  0  0  0
  141.0780   71.7230  226.5540 C   0  0  0  0  0  0  0  0  0  0  0  0
  140.5900   71.4000  225.3040 C   0  0  0  0  0  0  0  0  0  0  0  0
  140.5770   72.2640  224.2730 N   0  0  0  0  0  0  0  0  0  0  0  0
  139.0370   71.4720  220.7420 H   0  0  0  0  0  0  0  0  0  0  0  0
  138.5675   73.1993  219.0678 H   0  0  0  0  0  0  0  0  0  0  0  0
  139.5591   74.3186  220.2462 H   0  0  0  0  0  0  0  0  0  0  0  0
  142.1397   74.5378  216.6581 H   0  0  0  0  0  0  0  0  0  0  0  0
  141.0938   75.8899  217.3969 H   0  0  0  0  0  0  0  0  0  0  0  0
  144.0282   75.5489  217.3315 H   0  0  0  0  0  0  0  0  0  0  0  0
  142.9171   76.9763  216.9665 H   0  0  0  0  0  0  0  0  0  0  0  0
  144.4559   76.6373  219.1863 H   0  0  0  0  0  0  0  0  0  0  0  0
  143.0205   77.7358  218.9547 H   0  0  0  0  0  0  0  0  0  0  0  0
  143.1558   76.1235  221.0180 H   0  0  0  0  0  0  0  0  0  0  0  0
  141.6069   76.3846  220.1017 H   0  0  0  0  0  0  0  0  0  0  0  0
  142.1070   74.0143  220.7012 H   0  0  0  0  0  0  0  0  0  0  0  0
  144.2235   73.9634  218.6712 H   0  0  0  0  0  0  0  0  0  0  0  0
  143.1792   72.1003  220.9015 H   0  0  0  0  0  0  0  0  0  0  0  0
  142.7068   71.9237  219.2059 H   0  0  0  0  0  0  0  0  0  0  0  0
  145.0305   70.8653  220.4099 H   0  0  0  0  0  0  0  0  0  0  0  0
  144.7448   71.0579  218.6262 H   0  0  0  0  0  0  0  0  0  0  0  0
  146.8090   71.9230  219.5640 H   0  0  0  0  0  0  0  0  0  0  0  0
  146.3145   72.9477  221.4805 H   0  0  0  0  0  0  0  0  0  0  0  0
  146.7133   74.2406  220.2503 H   0  0  0  0  0  0  0  0  0  0  0  0
  144.2476   73.8118  221.7805 H   0  0  0  0  0  0  0  0  0  0  0  0
  144.7934   75.2469  220.9122 H   0  0  0  0  0  0  0  0  0  0  0  0
  139.1954   70.3568  221.8733 H   0  0  0  0  0  0  0  0  0  0  0  0
  139.1882   68.6881  223.7420 H   0  0  0  0  0  0  0  0  0  0  0  0
  139.7022   68.2022  226.0063 H   0  0  0  0  0  0  0  0  0  0  0  0
  141.4893   71.1447  228.5917 H   0  0  0  0  0  0  0  0  0  0  0  0
  141.4764   72.7358  226.7138 H   0  0  0  0  0  0  0  0  0  0  0  0
  1  2  2  0
  2  3  1  0
  3  4  1  0
  4  5  1  0
  5  6  2  0
  5  7  1  0
  7  8  1  0
  8  9  1  0
  9 10  1  0
 10 11  1  0
 11 12  1  0
 12 13  1  0
 13 14  1  0
 14 15  1  0
 15 16  1  0
 16 17  1  0
 17 18  1  0
  2 19  1  0
 19 20  2  0
 20 21  1  0
 21 22  2  0
 22 23  1  0
 23 24  2  0
 24 25  1  0
 24 26  1  0
 26 27  2  0
 27 28  1  0
 28 29  2  0
 12  7  1  0
 18 13  1  0
 29 19  1  0
 28 22  1  0
  3 30  1  0
  4 31  1  0
  4 32  1  0
  8 33  1  0
  8 34  1  0
  9 35  1  0
  9 36  1  0
 10 37  1  0
 10 38  1  0
 11 39  1  0
 11 40  1  0
 12 41  1  1
 13 42  1  0
 14 43  1  0
 14 44  1  0
 15 45  1  0
 15 46  1  0
 16 47  1  0
 17 48  1  0
 17 49  1  0
 18 50  1  0
 18 51  1  0
 20 52  1  0
 21 53  1  0
 23 54  1  0
 26 55  1  0
 27 56  1  0
M  END
>  <smiles>  (19) 
O=C(NCC(=O)N1CCCCC1C1CCNCC1)c1ccc2cc(Cl)ccc2n1

>  <score_type>  (19) 
oracle

>  <origin>  (19) 
autodockgpu

>  <m_score__min__energy>  (19) 
-8.6300000000000008

>  <m_primary>  (19) 
energy

>  <rmsd>  (19) 
2.4893961343415762

>  <m_score__min__rmsd>  (19) 
2.4893961343415762

>  <meeko>  (19) 
{"free_energy": -8.0, "intermolecular_energy": -9.5, "internal_energy": -1.73, "cluster_size": 18, "cluster_id": 2, "rank_in_cluster": 11}

>  <energy>  (19) 
-7.61

>  <cluster_rmsd>  (19) 
1.73

>  <cluster>  (19) 
1

$$$$

     RDKit          3D

 56 59  0  0  0  0  0  0  0  0999 V2000
  139.7820   72.1390  220.6920 O   0  0  0  0  0  0  0  0  0  0  0  0
  139.7490   72.5200  221.8920 C   0  0  0  0  0  0  0  0  0  0  0  0
  139.5740   73.9440  222.1330 N   0  0  0  0  0  0  0  0  0  0  0  0
  139.4610   74.7520  220.9700 C   0  0  0  0  0  0  0  0  0  0  0  0
  140.5700   75.4660  220.4060 C   0  0  0  0  0  0  0  0  0  0  0  0
  140.8610   76.5720  221.0540 O   0  0  0  0  0  0  0  0  0  0  0  0
  141.4110   75.2270  219.3030 N   0  0  0  0  0  0  0  0  0  0  0  0
  141.0370   74.8110  217.9980 C   0  0  0  0  0  0  0  0  0  0  0  0
  142.1180   74.6450  216.9790 C   0  0  0  0  0  0  0  0  0  0  0  0
  143.2600   75.5890  217.0880 C   0  0  0  0  0  0  0  0  0  0  0  0
  143.3150   76.2980  218.4250 C   0  0  0  0  0  0  0  0  0  0  0  0
  142.8600   75.4310  219.5460 C   0  0  2  0  0  0  0  0  0  0  0  0
  143.6020   74.1670  219.7560 C   0  0  0  0  0  0  0  0  0  0  0  0
  142.8390   73.3090  220.7430 C   0  0  0  0  0  0  0  0  0  0  0  0
  143.6090   71.9890  220.8230 C   0  0  0  0  0  0  0  0  0  0  0  0
  144.9060   72.0720  220.1860 N   0  0  0  0  0  0  0  0  0  0  0  0
  145.6750   73.2220  220.5520 C   0  0  0  0  0  0  0  0  0  0  0  0
  144.9010   74.5230  220.4760 C   0  0  0  0  0  0  0  0  0  0  0  0
  139.8740   71.6130  223.0240 C   0  0  0  0  0  0  0  0  0  0  0  0
  139.4670   70.3090  222.8270 C   0  0  0  0  0  0  0  0  0  0  0  0
  139.5610   69.4000  223.8610 C   0  0  0  0  0  0  0  0  0  0  0  0
  140.0720   69.8660  225.0710 C   0  0  0  0  0  0  0  0  0  0  0  0
  140.1790   68.9810  226.1270 C   0  0  0  0  0  0  0  0  0  0  0  0
  140.6830   69.3840  227.3670 C   0  0  0  0  0  0  0  0  0  0  0  0
  140.8040   68.2310  228.6900 Cl  0  0  0  0  0  0  0  0  0  0  0  0
  141.0790   70.6950  227.5290 C   0  0  0  0  0  0  0  0  0  0  0  0
  140.9650   71.5630  226.4620 C   0  0  0  0  0  0  0  0  0  0  0  0
  140.4710   71.1870  225.2300 C   0  0  0  0  0  0  0  0  0  0  0  0
  140.3600   72.0360  224.1920 N   0  0  0  0  0  0  0  0  0  0  0  0
  139.5520   74.1970  223.1260 H   0  0  0  0  0  0  0  0  0  0  0  0
  139.0910   74.0886  220.1744 H   0  0  0  0  0  0  0  0  0  0  0  0
  138.8298   75.5761  221.3340 H   0  0  0  0  0  0  0  0  0  0  0  0
  140.5285   73.8406  218.0969 H   0  0  0  0  0  0  0  0  0  0  0  0
  140.4195   75.6357  217.6125 H   0  0  0  0  0  0  0  0  0  0  0  0
  142.5148   73.6232  217.0714 H   0  0  0  0  0  0  0  0  0  0  0  0
  141.6475   74.8563  216.0074 H   0  0  0  0  0  0  0  0  0  0  0  0
  144.1949   75.0258  216.9510 H   0  0  0  0  0  0  0  0  0  0  0  0
  143.1270   76.3579  216.3127 H   0  0  0  0  0  0  0  0  0  0  0  0
  144.3524   76.6090  218.6175 H   0  0  0  0  0  0  0  0  0  0  0  0
  142.6377   77.1633  218.3740 H   0  0  0  0  0  0  0  0  0  0  0  0
  143.0695   75.9346  220.5012 H   0  0  0  0  0  0  0  0  0  0  0  0
  143.7536   73.6569  218.7933 H   0  0  0  0  0  0  0  0  0  0  0  0
  142.8067   73.7949  221.7293 H   0  0  0  0  0  0  0  0  0  0  0  0
  141.7971   73.1536  220.4264 H   0  0  0  0  0  0  0  0  0  0  0  0
  143.7506   71.7253  221.8815 H   0  0  0  0  0  0  0  0  0  0  0  0
  143.0220   71.2236  220.2943 H   0  0  0  0  0  0  0  0  0  0  0  0
  145.4390   71.2320  220.5030 H   0  0  0  0  0  0  0  0  0  0  0  0
  146.0290   73.0885  221.5849 H   0  0  0  0  0  0  0  0  0  0  0  0
  146.5022   73.2979  219.8309 H   0  0  0  0  0  0  0  0  0  0  0  0
  144.6912   74.9078  221.4849 H   0  0  0  0  0  0  0  0  0  0  0  0
  145.4633   75.3089  219.9505 H   0  0  0  0  0  0  0  0  0  0  0  0
  139.0695   69.9958  221.8503 H   0  0  0  0  0  0  0  0  0  0  0  0
  139.2464   68.3534  223.7357 H   0  0  0  0  0  0  0  0  0  0  0  0
  139.8608   67.9371  225.9888 H   0  0  0  0  0  0  0  0  0  0  0  0
  141.4791   71.0432  228.4927 H   0  0  0  0  0  0  0  0  0  0  0  0
  141.2839   72.6066  226.6009 H   0  0  0  0  0  0  0  0  0  0  0  0
  1  2  2  0
  2  3  1  0
  3  4  1  0
  4  5  1  0
  5  6  2  0
  5  7  1  0
  7  8  1  0
  8  9  1  0
  9 10  1  0
 10 11  1  0
 11 12  1  0
 12 13  1  0
 13 14  1  0
 14 15  1  0
 15 16  1  0
 16 17  1  0
 17 18  1  0
  2 19  1  0
 19 20  2  0
 20 21  1  0
 21 22  2  0
 22 23  1  0
 23 24  2  0
 24 25  1  0
 24 26  1  0
 26 27  2  0
 27 28  1  0
 28 29  2  0
 12  7  1  0
 18 13  1  0
 29 19  1  0
 28 22  1  0
  3 30  1  0
  4 31  1  0
  4 32  1  0
  8 33  1  0
  8 34  1  0
  9 35  1  0
  9 36  1  0
 10 37  1  0
 10 38  1  0
 11 39  1  0
 11 40  1  0
 12 41  1  1
 13 42  1  0
 14 43  1  0
 14 44  1  0
 15 45  1  0
 15 46  1  0
 16 47  1  0
 17 48  1  0
 17 49  1  0
 18 50  1  0
 18 51  1  0
 20 52  1  0
 21 53  1  0
 23 54  1  0
 26 55  1  0
 27 56  1  0
M  END
>  <smiles>  (20) 
O=C(NCC(=O)N1CCCCC1C1CCNCC1)c1ccc2cc(Cl)ccc2n1

>  <score_type>  (20) 
oracle

>  <origin>  (20) 
autodockgpu

>  <m_score__min__energy>  (20) 
-8.6300000000000008

>  <m_primary>  (20) 
energy

>  <rmsd>  (20) 
1.864636338124057

>  <m_score__min__rmsd>  (20) 
1.864636338124057

>  <meeko>  (20) 
{"free_energy": -8.07, "intermolecular_energy": -9.56, "internal_energy": -2.01, "cluster_size": 18, "cluster_id": 2, "rank_in_cluster": 5}

>  <energy>  (20) 
-7.5

>  <cluster_rmsd>  (20) 
1.6

>  <cluster>  (20) 
1

$$$$

     RDKit          3D

 56 59  0  0  0  0  0  0  0  0999 V2000
  140.2140   73.9310  221.9760 O   0  0  0  0  0  0  0  0  0  0  0  0
  139.9160   72.7100  221.9050 C   0  0  0  0  0  0  0  0  0  0  0  0
  139.4890   72.2030  220.6100 N   0  0  0  0  0  0  0  0  0  0  0  0
  139.4560   73.1580  219.5600 C   0  0  0  0  0  0  0  0  0  0  0  0
  140.5630   73.3800  218.6730 C   0  0  0  0  0  0  0  0  0  0  0  0
  140.5860   72.5520  217.6520 O   0  0  0  0  0  0  0  0  0  0  0  0
  141.6290   74.3000  218.6700 N   0  0  0  0  0  0  0  0  0  0  0  0
  141.9910   75.2060  217.6400 C   0  0  0  0  0  0  0  0  0  0  0  0
  143.1590   76.1080  217.8800 C   0  0  0  0  0  0  0  0  0  0  0  0
  143.3470   76.5640  219.2820 C   0  0  0  0  0  0  0  0  0  0  0  0
  142.5590   75.7430  220.2800 C   0  0  0  0  0  0  0  0  0  0  0  0
  142.4710   74.3090  219.8910 C   0  0  2  0  0  0  0  0  0  0  0  0
  143.7500   73.5810  219.7260 C   0  0  0  0  0  0  0  0  0  0  0  0
  143.5200   72.1140  220.0180 C   0  0  0  0  0  0  0  0  0  0  0  0
  144.8520   71.4220  219.7230 C   0  0  0  0  0  0  0  0  0  0  0  0
  145.9330   72.3680  219.5420 N   0  0  0  0  0  0  0  0  0  0  0  0
  146.0090   73.3820  220.5500 C   0  0  0  0  0  0  0  0  0  0  0  0
  144.6830   74.0560  220.8380 C   0  0  0  0  0  0  0  0  0  0  0  0
  139.9810   71.8020  223.0430 C   0  0  0  0  0  0  0  0  0  0  0  0
  139.5080   70.5210  222.8460 C   0  0  0  0  0  0  0  0  0  0  0  0
  139.5430   69.6130  223.8850 C   0  0  0  0  0  0  0  0  0  0  0  0
  140.0650   70.0570  225.0990 C   0  0  0  0  0  0  0  0  0  0  0  0
  140.1140   69.1720  226.1590 C   0  0  0  0  0  0  0  0  0  0  0  0
  140.6250   69.5540  227.4030 C   0  0  0  0  0  0  0  0  0  0  0  0
  140.6720   68.4020  228.7320 Cl  0  0  0  0  0  0  0  0  0  0  0  0
  141.0880   70.8430  227.5640 C   0  0  0  0  0  0  0  0  0  0  0  0
  141.0310   71.7100  226.4920 C   0  0  0  0  0  0  0  0  0  0  0  0
  140.5310   71.3560  225.2570 C   0  0  0  0  0  0  0  0  0  0  0  0
  140.4760   72.2040  224.2140 N   0  0  0  0  0  0  0  0  0  0  0  0
  139.2610   71.2040  220.6100 H   0  0  0  0  0  0  0  0  0  0  0  0
  138.6062   72.8769  218.9205 H   0  0  0  0  0  0  0  0  0  0  0  0
  139.4294   74.1035  220.1216 H   0  0  0  0  0  0  0  0  0  0  0  0
  142.2164   74.6097  216.7436 H   0  0  0  0  0  0  0  0  0  0  0  0
  141.1303   75.8858  217.5557 H   0  0  0  0  0  0  0  0  0  0  0  0
  144.0689   75.5702  217.5752 H   0  0  0  0  0  0  0  0  0  0  0  0
  142.9593   77.0175  217.2944 H   0  0  0  0  0  0  0  0  0  0  0  0
  144.4153   76.4919  219.5341 H   0  0  0  0  0  0  0  0  0  0  0  0
  142.9803   77.5992  219.3440 H   0  0  0  0  0  0  0  0  0  0  0  0
  143.0504   75.8133  221.2616 H   0  0  0  0  0  0  0  0  0  0  0  0
  141.5357   76.1454  220.3119 H   0  0  0  0  0  0  0  0  0  0  0  0
  142.0333   73.7349  220.7209 H   0  0  0  0  0  0  0  0  0  0  0  0
  144.1470   73.7446  218.7133 H   0  0  0  0  0  0  0  0  0  0  0  0
  143.2386   71.9718  221.0718 H   0  0  0  0  0  0  0  0  0  0  0  0
  142.7029   71.7009  219.4083 H   0  0  0  0  0  0  0  0  0  0  0  0
  145.0999   70.7580  220.5642 H   0  0  0  0  0  0  0  0  0  0  0  0
  144.7381   70.8570  218.7861 H   0  0  0  0  0  0  0  0  0  0  0  0
  146.8160   71.8130  219.5970 H   0  0  0  0  0  0  0  0  0  0  0  0
  146.3731   72.9206  221.4798 H   0  0  0  0  0  0  0  0  0  0  0  0
  146.6893   74.1597  220.1726 H   0  0  0  0  0  0  0  0  0  0  0  0
  144.2991   73.7497  221.8223 H   0  0  0  0  0  0  0  0  0  0  0  0
  144.7728   75.1521  220.8628 H   0  0  0  0  0  0  0  0  0  0  0  0
  139.1051   70.2249  221.8662 H   0  0  0  0  0  0  0  0  0  0  0  0
  139.1750   68.5839  223.7605 H   0  0  0  0  0  0  0  0  0  0  0  0
  139.7432   68.1456  226.0212 H   0  0  0  0  0  0  0  0  0  0  0  0
  141.4957   71.1743  228.5304 H   0  0  0  0  0  0  0  0  0  0  0  0
  141.4035   72.7358  226.6299 H   0  0  0  0  0  0  0  0  0  0  0  0
  1  2  2  0
  2  3  1  0
  3  4  1  0
  4  5  1  0
  5  6  2  0
  5  7  1  0
  7  8  1  0
  8  9  1  0
  9 10  1  0
 10 11  1  0
 11 12  1  0
 12 13  1  0
 13 14  1  0
 14 15  1  0
 15 16  1  0
 16 17  1  0
 17 18  1  0
  2 19  1  0
 19 20  2  0
 20 21  1  0
 21 22  2  0
 22 23  1  0
 23 24  2  0
 24 25  1  0
 24 26  1  0
 26 27  2  0
 27 28  1  0
 28 29  2  0
 12  7  1  0
 18 13  1  0
 29 19  1  0
 28 22  1  0
  3 30  1  0
  4 31  1  0
  4 32  1  0
  8 33  1  0
  8 34  1  0
  9 35  1  0
  9 36  1  0
 10 37  1  0
 10 38  1  0
 11 39  1  0
 11 40  1  0
 12 41  1  1
 13 42  1  0
 14 43  1  0
 14 44  1  0
 15 45  1  0
 15 46  1  0
 16 47  1  0
 17 48  1  0
 17 49  1  0
 18 50  1  0
 18 51  1  0
 20 52  1  0
 21 53  1  0
 23 54  1  0
 26 55  1  0
 27 56  1  0
M  END
>  <smiles>  (21) 
O=C(NCC(=O)N1CCCCC1C1CCNCC1)c1ccc2cc(Cl)ccc2n1

>  <score_type>  (21) 
oracle

>  <origin>  (21) 
autodockgpu

>  <m_score__min__energy>  (21) 
-8.6300000000000008

>  <m_primary>  (21) 
energy

>  <rmsd>  (21) 
2.5430323225421554

>  <m_score__min__rmsd>  (21) 
2.5430323225421554

>  <meeko>  (21) 
{"free_energy": -8.02, "intermolecular_energy": -9.51, "internal_energy": -1.72, "cluster_size": 18, "cluster_id": 2, "rank_in_cluster": 10}

>  <energy>  (21) 
-8.2

>  <cluster_rmsd>  (21) 
0.0

>  <cluster>  (21) 
2

$$$$

     RDKit          3D

 56 59  0  0  0  0  0  0  0  0999 V2000
  138.6880   71.8050  220.8000 O   0  0  0  0  0  0  0  0  0  0  0  0
  138.9380   72.2480  221.9520 C   0  0  0  0  0  0  0  0  0  0  0  0
  138.9060   73.6920  222.1310 N   0  0  0  0  0  0  0  0  0  0  0  0
  138.5920   74.4460  220.9690 C   0  0  0  0  0  0  0  0  0  0  0  0
  139.3980   75.5400  220.5090 C   0  0  0  0  0  0  0  0  0  0  0  0
  138.6930   76.5890  220.1440 O   0  0  0  0  0  0  0  0  0  0  0  0
  140.7870   75.7250  220.3690 N   0  0  0  0  0  0  0  0  0  0  0  0
  141.8140   74.7610  220.5450 C   0  0  0  0  0  0  0  0  0  0  0  0
  143.2260   75.1920  220.3150 C   0  0  0  0  0  0  0  0  0  0  0  0
  143.4260   76.2110  219.2510 C   0  0  0  0  0  0  0  0  0  0  0  0
  142.1430   76.9050  218.8500 C   0  0  0  0  0  0  0  0  0  0  0  0
  141.2170   77.0950  220.0000 C   0  0  2  0  0  0  0  0  0  0  0  0
  141.7290   77.8770  221.1480 C   0  0  0  0  0  0  0  0  0  0  0  0
  140.8330   77.6360  222.3440 C   0  0  0  0  0  0  0  0  0  0  0  0
  141.4860   78.3870  223.5060 C   0  0  0  0  0  0  0  0  0  0  0  0
  142.5390   79.2750  223.0620 N   0  0  0  0  0  0  0  0  0  0  0  0
  142.1850   80.1060  221.9510 C   0  0  0  0  0  0  0  0  0  0  0  0
  141.5330   79.3530  220.8090 C   0  0  0  0  0  0  0  0  0  0  0  0
  139.2490   71.3930  223.0890 C   0  0  0  0  0  0  0  0  0  0  0  0
  138.8980   70.0630  222.9840 C   0  0  0  0  0  0  0  0  0  0  0  0
  139.1680   69.2010  224.0270 C   0  0  0  0  0  0  0  0  0  0  0  0
  139.7920   69.7400  225.1510 C   0  0  0  0  0  0  0  0  0  0  0  0
  140.0760   68.9030  226.2130 C   0  0  0  0  0  0  0  0  0  0  0  0
  140.7000   69.3790  227.3690 C   0  0  0  0  0  0  0  0  0  0  0  0
  141.0460   68.2860  228.7040 Cl  0  0  0  0  0  0  0  0  0  0  0  0
  141.0370   70.7150  227.4400 C   0  0  0  0  0  0  0  0  0  0  0  0
  140.7460   71.5340  226.3680 C   0  0  0  0  0  0  0  0  0  0  0  0
  140.1300   71.0850  225.2190 C   0  0  0  0  0  0  0  0  0  0  0  0
  139.8460   71.8860  224.1750 N   0  0  0  0  0  0  0  0  0  0  0  0
  139.1140   73.9960  223.0880 H   0  0  0  0  0  0  0  0  0  0  0  0
  138.5571   73.7247  220.1393 H   0  0  0  0  0  0  0  0  0  0  0  0
  137.6739   74.9642  221.2829 H   0  0  0  0  0  0  0  0  0  0  0  0
  141.7474   74.3972  221.5810 H   0  0  0  0  0  0  0  0  0  0  0  0
  141.6243   74.0109  219.7631 H   0  0  0  0  0  0  0  0  0  0  0  0
  143.6096   75.6088  221.2580 H   0  0  0  0  0  0  0  0  0  0  0  0
  143.7607   74.2937  219.9728 H   0  0  0  0  0  0  0  0  0  0  0  0
  144.1340   76.9681  219.6191 H   0  0  0  0  0  0  0  0  0  0  0  0
  143.8096   75.6885  218.3623 H   0  0  0  0  0  0  0  0  0  0  0  0
  142.3911   77.8908  218.4297 H   0  0  0  0  0  0  0  0  0  0  0  0
  141.6341   76.2683  218.1114 H   0  0  0  0  0  0  0  0  0  0  0  0
  140.3817   77.7400  219.6897 H   0  0  0  0  0  0  0  0  0  0  0  0
  142.7748   77.6032  221.3514 H   0  0  0  0  0  0  0  0  0  0  0  0
  139.8233   78.0283  222.1525 H   0  0  0  0  0  0  0  0  0  0  0  0
  140.7255   76.5632  222.5621 H   0  0  0  0  0  0  0  0  0  0  0  0
  140.7162   78.9804  224.0211 H   0  0  0  0  0  0  0  0  0  0  0  0
  141.9350   77.6418  224.1790 H   0  0  0  0  0  0  0  0  0  0  0  0
  142.7430   79.9080  223.8670 H   0  0  0  0  0  0  0  0  0  0  0  0
  141.4838   80.8767  222.3036 H   0  0  0  0  0  0  0  0  0  0  0  0
  143.1196   80.5350  221.5605 H   0  0  0  0  0  0  0  0  0  0  0  0
  140.4622   79.5967  220.7463 H   0  0  0  0  0  0  0  0  0  0  0  0
  141.9726   79.6159  219.8356 H   0  0  0  0  0  0  0  0  0  0  0  0
  138.4053   69.6916  222.0733 H   0  0  0  0  0  0  0  0  0  0  0  0
  138.9024   68.1349  223.9739 H   0  0  0  0  0  0  0  0  0  0  0  0
  139.8050   67.8389  226.1470 H   0  0  0  0  0  0  0  0  0  0  0  0
  141.5294   71.1206  228.3361 H   0  0  0  0  0  0  0  0  0  0  0  0
  141.0190   72.5976  226.4334 H   0  0  0  0  0  0  0  0  0  0  0  0
  1  2  2  0
  2  3  1  0
  3  4  1  0
  4  5  1  0
  5  6  2  0
  5  7  1  0
  7  8  1  0
  8  9  1  0
  9 10  1  0
 10 11  1  0
 11 12  1  0
 12 13  1  0
 13 14  1  0
 14 15  1  0
 15 16  1  0
 16 17  1  0
 17 18  1  0
  2 19  1  0
 19 20  2  0
 20 21  1  0
 21 22  2  0
 22 23  1  0
 23 24  2  0
 24 25  1  0
 24 26  1  0
 26 27  2  0
 27 28  1  0
 28 29  2  0
 12  7  1  0
 18 13  1  0
 29 19  1  0
 28 22  1  0
  3 30  1  0
  4 31  1  0
  4 32  1  0
  8 33  1  0
  8 34  1  0
  9 35  1  0
  9 36  1  0
 10 37  1  0
 10 38  1  0
 11 39  1  0
 11 40  1  0
 12 41  1  6
 13 42  1  0
 14 43  1  0
 14 44  1  0
 15 45  1  0
 15 46  1  0
 16 47  1  0
 17 48  1  0
 17 49  1  0
 18 50  1  0
 18 51  1  0
 20 52  1  0
 21 53  1  0
 23 54  1  0
 26 55  1  0
 27 56  1  0
M  END
>  <smiles>  (22) 
O=C(NCC(=O)N1CCCCC1C1CCNCC1)c1ccc2cc(Cl)ccc2n1

>  <score_type>  (22) 
oracle

>  <origin>  (22) 
autodockgpu

>  <m_score__min__energy>  (22) 
-8.6300000000000008

>  <m_primary>  (22) 
energy

>  <rmsd>  (22) 
1.9497651019123883

>  <m_score__min__rmsd>  (22) 
1.9497651019123883

>  <meeko>  (22) 
{"free_energy": -7.98, "intermolecular_energy": -9.47, "internal_energy": -1.68, "cluster_size": 20, "cluster_id": 1, "rank_in_cluster": 13}

>  <energy>  (22) 
-8.19

>  <cluster_rmsd>  (22) 
0.04

>  <cluster>  (22) 
2

$$$$

     RDKit          3D

 56 59  0  0  0  0  0  0  0  0999 V2000
  139.9090   72.0520  220.7160 O   0  0  0  0  0  0  0  0  0  0  0  0
  139.7920   72.4280  221.9120 C   0  0  0  0  0  0  0  0  0  0  0  0
  139.5320   73.8410  222.1440 N   0  0  0  0  0  0  0  0  0  0  0  0
  139.4390   74.6440  220.9770 C   0  0  0  0  0  0  0  0  0  0  0  0
  140.5240   75.4530  220.4990 C   0  0  0  0  0  0  0  0  0  0  0  0
  140.7320   76.5280  221.2260 O   0  0  0  0  0  0  0  0  0  0  0  0
  141.4120   75.3330  219.4130 N   0  0  0  0  0  0  0  0  0  0  0  0
  141.0950   75.0560  218.0570 C   0  0  0  0  0  0  0  0  0  0  0  0
  142.2180   75.0000  217.0730 C   0  0  0  0  0  0  0  0  0  0  0  0
  143.3500   75.9290  217.3290 C   0  0  0  0  0  0  0  0  0  0  0  0
  143.3440   76.4930  218.7340 C   0  0  0  0  0  0  0  0  0  0  0  0
  142.8480   75.5110  219.7370 C   0  0  2  0  0  0  0  0  0  0  0  0
  143.5870   74.2330  219.8440 C   0  0  0  0  0  0  0  0  0  0  0  0
  142.8560   73.3230  220.8060 C   0  0  0  0  0  0  0  0  0  0  0  0
  143.6170   71.9960  220.7790 C   0  0  0  0  0  0  0  0  0  0  0  0
  144.8910   72.1100  220.0990 N   0  0  0  0  0  0  0  0  0  0  0  0
  145.6810   73.2320  220.5040 C   0  0  0  0  0  0  0  0  0  0  0  0
  144.9150   74.5390  220.5340 C   0  0  0  0  0  0  0  0  0  0  0  0
  139.9030   71.5250  223.0490 C   0  0  0  0  0  0  0  0  0  0  0  0
  139.4780   70.2260  222.8590 C   0  0  0  0  0  0  0  0  0  0  0  0
  139.5580   69.3220  223.8980 C   0  0  0  0  0  0  0  0  0  0  0  0
  140.0750   69.7870  225.1060 C   0  0  0  0  0  0  0  0  0  0  0  0
  140.1680   68.9070  226.1670 C   0  0  0  0  0  0  0  0  0  0  0  0
  140.6760   69.3090  227.4050 C   0  0  0  0  0  0  0  0  0  0  0  0
  140.7800   68.1610  228.7350 Cl  0  0  0  0  0  0  0  0  0  0  0  0
  141.0910   70.6150  227.5610 C   0  0  0  0  0  0  0  0  0  0  0  0
  140.9900   71.4790  226.4890 C   0  0  0  0  0  0  0  0  0  0  0  0
  140.4910   71.1030  225.2590 C   0  0  0  0  0  0  0  0  0  0  0  0
  140.3940   71.9480  224.2160 N   0  0  0  0  0  0  0  0  0  0  0  0
  139.4440   74.0890  223.1340 H   0  0  0  0  0  0  0  0  0  0  0  0
  139.1874   73.9573  220.1553 H   0  0  0  0  0  0  0  0  0  0  0  0
  138.7146   75.4094  221.2923 H   0  0  0  0  0  0  0  0  0  0  0  0
  140.5888   74.0797  218.0320 H   0  0  0  0  0  0  0  0  0  0  0  0
  140.4890   75.9155  217.7347 H   0  0  0  0  0  0  0  0  0  0  0  0
  142.6163   73.9746  217.0735 H   0  0  0  0  0  0  0  0  0  0  0  0
  141.7872   75.3124  216.1103 H   0  0  0  0  0  0  0  0  0  0  0  0
  144.2929   75.3843  217.1736 H   0  0  0  0  0  0  0  0  0  0  0  0
  143.2461   76.7749  216.6336 H   0  0  0  0  0  0  0  0  0  0  0  0
  144.3702   76.7843  219.0022 H   0  0  0  0  0  0  0  0  0  0  0  0
  142.6638   77.3574  218.7458 H   0  0  0  0  0  0  0  0  0  0  0  0
  143.0157   75.9104  220.7481 H   0  0  0  0  0  0  0  0  0  0  0  0
  143.6980   73.7797  218.8479 H   0  0  0  0  0  0  0  0  0  0  0  0
  142.8650   73.7498  221.8198 H   0  0  0  0  0  0  0  0  0  0  0  0
  141.8018   73.1926  220.5203 H   0  0  0  0  0  0  0  0  0  0  0  0
  143.7958   71.6690  221.8139 H   0  0  0  0  0  0  0  0  0  0  0  0
  143.0045   71.2664  220.2290 H   0  0  0  0  0  0  0  0  0  0  0  0
  145.4280   71.2490  220.3460 H   0  0  0  0  0  0  0  0  0  0  0  0
  146.0713   73.0353  221.5134 H   0  0  0  0  0  0  0  0  0  0  0  0
  146.4817   73.3464  219.7585 H   0  0  0  0  0  0  0  0  0  0  0  0
  144.7461   74.8648  221.5710 H   0  0  0  0  0  0  0  0  0  0  0  0
  145.4632   75.3515  220.0347 H   0  0  0  0  0  0  0  0  0  0  0  0
  139.0773   69.9128  221.8836 H   0  0  0  0  0  0  0  0  0  0  0  0
  139.2281   68.2795  223.7783 H   0  0  0  0  0  0  0  0  0  0  0  0
  139.8348   67.8671  226.0342 H   0  0  0  0  0  0  0  0  0  0  0  0
  141.4956   70.9623  228.5232 H   0  0  0  0  0  0  0  0  0  0  0  0
  141.3239   72.5186  226.6221 H   0  0  0  0  0  0  0  0  0  0  0  0
  1  2  2  0
  2  3  1  0
  3  4  1  0
  4  5  1  0
  5  6  2  0
  5  7  1  0
  7  8  1  0
  8  9  1  0
  9 10  1  0
 10 11  1  0
 11 12  1  0
 12 13  1  0
 13 14  1  0
 14 15  1  0
 15 16  1  0
 16 17  1  0
 17 18  1  0
  2 19  1  0
 19 20  2  0
 20 21  1  0
 21 22  2  0
 22 23  1  0
 23 24  2  0
 24 25  1  0
 24 26  1  0
 26 27  2  0
 27 28  1  0
 28 29  2  0
 12  7  1  0
 18 13  1  0
 29 19  1  0
 28 22  1  0
  3 30  1  0
  4 31  1  0
  4 32  1  0
  8 33  1  0
  8 34  1  0
  9 35  1  0
  9 36  1  0
 10 37  1  0
 10 38  1  0
 11 39  1  0
 11 40  1  0
 12 41  1  1
 13 42  1  0
 14 43  1  0
 14 44  1  0
 15 45  1  0
 15 46  1  0
 16 47  1  0
 17 48  1  0
 17 49  1  0
 18 50  1  0
 18 51  1  0
 20 52  1  0
 21 53  1  0
 23 54  1  0
 26 55  1  0
 27 56  1  0
M  END
>  <smiles>  (23) 
O=C(NCC(=O)N1CCCCC1C1CCNCC1)c1ccc2cc(Cl)ccc2n1

>  <score_type>  (23) 
oracle

>  <origin>  (23) 
autodockgpu

>  <m_score__min__energy>  (23) 
-8.6300000000000008

>  <m_primary>  (23) 
energy

>  <rmsd>  (23) 
1.8286237720193668

>  <m_score__min__rmsd>  (23) 
1.8286237720193668

>  <meeko>  (23) 
{"free_energy": -8.12, "intermolecular_energy": -9.61, "internal_energy": -1.96, "cluster_size": 18, "cluster_id": 2, "rank_in_cluster": 4}

>  <energy>  (23) 
-8.17

>  <cluster_rmsd>  (23) 
0.08

>  <cluster>  (23) 
2

$$$$

     RDKit          3D

 56 59  0  0  0  0  0  0  0  0999 V2000
  139.0070   73.3700  221.9440 O   0  0  0  0  0  0  0  0  0  0  0  0
  140.0670   72.8200  222.3440 C   0  0  0  0  0  0  0  0  0  0  0  0
  141.3030   73.1880  221.6710 N   0  0  0  0  0  0  0  0  0  0  0  0
  141.1700   74.1390  220.6240 C   0  0  0  0  0  0  0  0  0  0  0  0
  140.9800   75.5410  220.8650 C   0  0  0  0  0  0  0  0  0  0  0  0
  140.2860   75.7930  221.9530 O   0  0  0  0  0  0  0  0  0  0  0  0
  141.3820   76.7020  220.1770 N   0  0  0  0  0  0  0  0  0  0  0  0
  142.3670   76.8120  219.1610 C   0  0  0  0  0  0  0  0  0  0  0  0
  142.6050   78.1600  218.5600 C   0  0  0  0  0  0  0  0  0  0  0  0
  141.4100   79.0370  218.4460 C   0  0  0  0  0  0  0  0  0  0  0  0
  140.2480   78.5660  219.2950 C   0  0  0  0  0  0  0  0  0  0  0  0
  140.6940   77.9530  220.5760 C   0  0  2  0  0  0  0  0  0  0  0  0
  141.5040   78.8050  221.4780 C   0  0  0  0  0  0  0  0  0  0  0  0
  141.2380   78.3930  222.9100 C   0  0  0  0  0  0  0  0  0  0  0  0
  142.1840   79.2390  223.7640 C   0  0  0  0  0  0  0  0  0  0  0  0
  142.7970   80.3100  223.0060 N   0  0  0  0  0  0  0  0  0  0  0  0
  141.8830   81.0720  222.2110 C   0  0  0  0  0  0  0  0  0  0  0  0
  140.9480   80.2230  221.3740 C   0  0  0  0  0  0  0  0  0  0  0  0
  140.1050   71.8520  223.4310 C   0  0  0  0  0  0  0  0  0  0  0  0
  139.6320   70.5850  223.1560 C   0  0  0  0  0  0  0  0  0  0  0  0
  139.6430   69.6220  224.1440 C   0  0  0  0  0  0  0  0  0  0  0  0
  140.1410   69.9970  225.3910 C   0  0  0  0  0  0  0  0  0  0  0  0
  140.1650   69.0560  226.4020 C   0  0  0  0  0  0  0  0  0  0  0  0
  140.6520   69.3670  227.6750 C   0  0  0  0  0  0  0  0  0  0  0  0
  140.6670   68.1440  228.9400 Cl  0  0  0  0  0  0  0  0  0  0  0  0
  141.1160   70.6430  227.9150 C   0  0  0  0  0  0  0  0  0  0  0  0
  141.0840   71.5680  226.8920 C   0  0  0  0  0  0  0  0  0  0  0  0
  140.6080   71.2830  225.6290 C   0  0  0  0  0  0  0  0  0  0  0  0
  140.5770   72.1880  224.6330 N   0  0  0  0  0  0  0  0  0  0  0  0
  142.1330   72.7120  222.0380 H   0  0  0  0  0  0  0  0  0  0  0  0
  142.0857   74.0560  220.0201 H   0  0  0  0  0  0  0  0  0  0  0  0
  140.2002   73.8555  220.1891 H   0  0  0  0  0  0  0  0  0  0  0  0
  143.3207   76.4722  219.5912 H   0  0  0  0  0  0  0  0  0  0  0  0
  141.9759   76.2053  218.3310 H   0  0  0  0  0  0  0  0  0  0  0  0
  143.3478   78.6807  219.1822 H   0  0  0  0  0  0  0  0  0  0  0  0
  142.9381   77.9729  217.5285 H   0  0  0  0  0  0  0  0  0  0  0  0
  141.6884   80.0523  218.7650 H   0  0  0  0  0  0  0  0  0  0  0  0
  141.0822   79.0121  217.3963 H   0  0  0  0  0  0  0  0  0  0  0  0
  139.6034   79.4281  219.5213 H   0  0  0  0  0  0  0  0  0  0  0  0
  139.7062   77.7966  218.7254 H   0  0  0  0  0  0  0  0  0  0  0  0
  139.8181   77.7770  221.2177 H   0  0  0  0  0  0  0  0  0  0  0  0
  142.5689   78.7250  221.2142 H   0  0  0  0  0  0  0  0  0  0  0  0
  140.1913   78.5966  223.1800 H   0  0  0  0  0  0  0  0  0  0  0  0
  141.4057   77.3165  223.0616 H   0  0  0  0  0  0  0  0  0  0  0  0
  141.6137   79.6762  224.5968 H   0  0  0  0  0  0  0  0  0  0  0  0
  142.9871   78.5820  224.1292 H   0  0  0  0  0  0  0  0  0  0  0  0
  143.2110   80.9610  223.7090 H   0  0  0  0  0  0  0  0  0  0  0  0
  141.2764   81.6971  222.8828 H   0  0  0  0  0  0  0  0  0  0  0  0
  142.4866   81.6694  221.5119 H   0  0  0  0  0  0  0  0  0  0  0  0
  139.9239   80.2672  221.7730 H   0  0  0  0  0  0  0  0  0  0  0  0
  140.8947   80.5710  220.3318 H   0  0  0  0  0  0  0  0  0  0  0  0
  139.2480   70.3440  222.1538 H   0  0  0  0  0  0  0  0  0  0  0  0
  139.2748   68.6026  223.9560 H   0  0  0  0  0  0  0  0  0  0  0  0
  139.7930   68.0405  226.2012 H   0  0  0  0  0  0  0  0  0  0  0  0
  141.5054   70.9190  228.9061 H   0  0  0  0  0  0  0  0  0  0  0  0
  141.4565   72.5832  227.0934 H   0  0  0  0  0  0  0  0  0  0  0  0
  1  2  2  0
  2  3  1  0
  3  4  1  0
  4  5  1  0
  5  6  2  0
  5  7  1  0
  7  8  1  0
  8  9  1  0
  9 10  1  0
 10 11  1  0
 11 12  1  0
 12 13  1  0
 13 14  1  0
 14 15  1  0
 15 16  1  0
 16 17  1  0
 17 18  1  0
  2 19  1  0
 19 20  2  0
 20 21  1  0
 21 22  2  0
 22 23  1  0
 23 24  2  0
 24 25  1  0
 24 26  1  0
 26 27  2  0
 27 28  1  0
 28 29  2  0
 12  7  1  0
 18 13  1  0
 29 19  1  0
 28 22  1  0
  3 30  1  0
  4 31  1  0
  4 32  1  0
  8 33  1  0
  8 34  1  0
  9 35  1  0
  9 36  1  0
 10 37  1  0
 10 38  1  0
 11 39  1  0
 11 40  1  0
 12 41  1  1
 13 42  1  0
 14 43  1  0
 14 44  1  0
 15 45  1  0
 15 46  1  0
 16 47  1  0
 17 48  1  0
 17 49  1  0
 18 50  1  0
 18 51  1  0
 20 52  1  0
 21 53  1  0
 23 54  1  0
 26 55  1  0
 27 56  1  0
M  END
>  <smiles>  (24) 
O=C(NCC(=O)N1CCCCC1C1CCNCC1)c1ccc2cc(Cl)ccc2n1

>  <score_type>  (24) 
oracle

>  <origin>  (24) 
autodockgpu

>  <m_score__min__energy>  (24) 
-8.6300000000000008

>  <m_primary>  (24) 
energy

>  <rmsd>  (24) 
2.425599451621324

>  <m_score__min__rmsd>  (24) 
2.425599451621324

>  <meeko>  (24) 
{"free_energy": -8.09, "intermolecular_energy": -9.58, "internal_energy": -1.26, "cluster_size": 20, "cluster_id": 1, "rank_in_cluster": 10}

>  <energy>  (24) 
-8.12

>  <cluster_rmsd>  (24) 
0.16

>  <cluster>  (24) 
2

$$$$

     RDKit          3D

 56 59  0  0  0  0  0  0  0  0999 V2000
  138.2110   71.9800  221.5190 O   0  0  0  0  0  0  0  0  0  0  0  0
  139.1100   72.2180  222.3670 C   0  0  0  0  0  0  0  0  0  0  0  0
  139.8890   73.4340  222.1890 N   0  0  0  0  0  0  0  0  0  0  0  0
  139.5410   74.2230  221.0620 C   0  0  0  0  0  0  0  0  0  0  0  0
  139.8700   75.6160  220.9530 C   0  0  0  0  0  0  0  0  0  0  0  0
  138.9670   76.4080  221.4870 O   0  0  0  0  0  0  0  0  0  0  0  0
  140.9610   76.3090  220.3940 N   0  0  0  0  0  0  0  0  0  0  0  0
  142.1670   75.7640  219.8820 C   0  0  0  0  0  0  0  0  0  0  0  0
  143.1760   76.7090  219.3140 C   0  0  0  0  0  0  0  0  0  0  0  0
  142.6270   77.9060  218.6260 C   0  0  0  0  0  0  0  0  0  0  0  0
  141.1680   78.1530  218.9460 C   0  0  0  0  0  0  0  0  0  0  0  0
  140.8250   77.7850  220.3470 C   0  0  2  0  0  0  0  0  0  0  0  0
  141.5730   78.4770  221.4220 C   0  0  0  0  0  0  0  0  0  0  0  0
  140.9190   78.1680  222.7510 C   0  0  0  0  0  0  0  0  0  0  0  0
  141.8060   78.8250  223.8100 C   0  0  0  0  0  0  0  0  0  0  0  0
  142.7790   79.7250  223.2270 N   0  0  0  0  0  0  0  0  0  0  0  0
  142.2420   80.6370  222.2640 C   0  0  0  0  0  0  0  0  0  0  0  0
  141.3590   79.9760  221.2240 C   0  0  0  0  0  0  0  0  0  0  0  0
  139.3960   71.3440  223.4970 C   0  0  0  0  0  0  0  0  0  0  0  0
  139.0170   70.0230  223.3760 C   0  0  0  0  0  0  0  0  0  0  0  0
  139.2610   69.1450  224.4120 C   0  0  0  0  0  0  0  0  0  0  0  0
  139.8890   69.6580  225.5450 C   0  0  0  0  0  0  0  0  0  0  0  0
  140.1470   68.8050  226.6010 C   0  0  0  0  0  0  0  0  0  0  0  0
  140.7740   69.2560  227.7660 C   0  0  0  0  0  0  0  0  0  0  0  0
  141.0870   68.1420  229.0910 Cl  0  0  0  0  0  0  0  0  0  0  0  0
  141.1380   70.5840  227.8530 C   0  0  0  0  0  0  0  0  0  0  0  0
  140.8720   71.4190  226.7880 C   0  0  0  0  0  0  0  0  0  0  0  0
  140.2550   70.9960  225.6290 C   0  0  0  0  0  0  0  0  0  0  0  0
  139.9950   71.8130  224.5930 N   0  0  0  0  0  0  0  0  0  0  0  0
  140.6050   73.5770  222.9090 H   0  0  0  0  0  0  0  0  0  0  0  0
  140.0051   73.7328  220.1935 H   0  0  0  0  0  0  0  0  0  0  0  0
  138.4451   74.2612  221.1491 H   0  0  0  0  0  0  0  0  0  0  0  0
  142.6548   75.2189  220.7035 H   0  0  0  0  0  0  0  0  0  0  0  0
  141.8506   75.1508  219.0253 H   0  0  0  0  0  0  0  0  0  0  0  0
  143.8140   77.0575  220.1396 H   0  0  0  0  0  0  0  0  0  0  0  0
  143.7142   76.1412  218.5407 H   0  0  0  0  0  0  0  0  0  0  0  0
  143.2083   78.7867  218.9367 H   0  0  0  0  0  0  0  0  0  0  0  0
  142.7014   77.7271  217.5432 H   0  0  0  0  0  0  0  0  0  0  0  0
  140.9495   79.2208  218.7975 H   0  0  0  0  0  0  0  0  0  0  0  0
  140.5658   77.5218  218.2760 H   0  0  0  0  0  0  0  0  0  0  0  0
  139.8057   78.1311  220.5734 H   0  0  0  0  0  0  0  0  0  0  0  0
  142.6298   78.1727  221.3995 H   0  0  0  0  0  0  0  0  0  0  0  0
  139.9034   78.5891  222.7861 H   0  0  0  0  0  0  0  0  0  0  0  0
  140.8243   77.0845  222.9153 H   0  0  0  0  0  0  0  0  0  0  0  0
  141.1684   79.3934  224.5030 H   0  0  0  0  0  0  0  0  0  0  0  0
  142.3544   78.0277  224.3329 H   0  0  0  0  0  0  0  0  0  0  0  0
  143.1540   80.2970  224.0170 H   0  0  0  0  0  0  0  0  0  0  0  0
  141.6455   81.3925  222.7963 H   0  0  0  0  0  0  0  0  0  0  0  0
  143.0956   81.0772  221.7277 H   0  0  0  0  0  0  0  0  0  0  0  0
  140.3040   80.2412  221.3871 H   0  0  0  0  0  0  0  0  0  0  0  0
  141.6096   80.2986  220.2027 H   0  0  0  0  0  0  0  0  0  0  0  0
  138.5228   69.6715  222.4583 H   0  0  0  0  0  0  0  0  0  0  0  0
  138.9722   68.0856  224.3463 H   0  0  0  0  0  0  0  0  0  0  0  0
  139.8525   67.7480  226.5231 H   0  0  0  0  0  0  0  0  0  0  0  0
  141.6321   70.9703  228.7567 H   0  0  0  0  0  0  0  0  0  0  0  0
  141.1668   72.4758  226.8668 H   0  0  0  0  0  0  0  0  0  0  0  0
  1  2  2  0
  2  3  1  0
  3  4  1  0
  4  5  1  0
  5  6  2  0
  5  7  1  0
  7  8  1  0
  8  9  1  0
  9 10  1  0
 10 11  1  0
 11 12  1  0
 12 13  1  0
 13 14  1  0
 14 15  1  0
 15 16  1  0
 16 17  1  0
 17 18  1  0
  2 19  1  0
 19 20  2  0
 20 21  1  0
 21 22  2  0
 22 23  1  0
 23 24  2  0
 24 25  1  0
 24 26  1  0
 26 27  2  0
 27 28  1  0
 28 29  2  0
 12  7  1  0
 18 13  1  0
 29 19  1  0
 28 22  1  0
  3 30  1  0
  4 31  1  0
  4 32  1  0
  8 33  1  0
  8 34  1  0
  9 35  1  0
  9 36  1  0
 10 37  1  0
 10 38  1  0
 11 39  1  0
 11 40  1  0
 12 41  1  1
 13 42  1  0
 14 43  1  0
 14 44  1  0
 15 45  1  0
 15 46  1  0
 16 47  1  0
 17 48  1  0
 17 49  1  0
 18 50  1  0
 18 51  1  0
 20 52  1  0
 21 53  1  0
 23 54  1  0
 26 55  1  0
 27 56  1  0
M  END
>  <smiles>  (25) 
O=C(NCC(=O)N1CCCCC1C1CCNCC1)c1ccc2cc(Cl)ccc2n1

>  <score_type>  (25) 
oracle

>  <origin>  (25) 
autodockgpu

>  <m_score__min__energy>  (25) 
-8.6300000000000008

>  <m_primary>  (25) 
energy

>  <rmsd>  (25) 
1.93781127432761

>  <m_score__min__rmsd>  (25) 
1.93781127432761

>  <meeko>  (25) 
{"free_energy": -7.95, "intermolecular_energy": -9.44, "internal_energy": -1.49, "cluster_size": 20, "cluster_id": 1, "rank_in_cluster": 14}

>  <energy>  (25) 
-8.07

>  <cluster_rmsd>  (25) 
0.28

>  <cluster>  (25) 
2

$$$$

     RDKit          3D

 56 59  0  0  0  0  0  0  0  0999 V2000
  141.3690   75.1970  221.4090 O   0  0  0  0  0  0  0  0  0  0  0  0
  140.2600   75.4260  221.9600 C   0  0  0  0  0  0  0  0  0  0  0  0
  139.3840   74.2870  222.1930 N   0  0  0  0  0  0  0  0  0  0  0  0
  139.8890   73.0310  221.7650 C   0  0  0  0  0  0  0  0  0  0  0  0
  140.0980   71.9290  222.6600 C   0  0  0  0  0  0  0  0  0  0  0  0
  141.3480   71.5230  222.7030 O   0  0  0  0  0  0  0  0  0  0  0  0
  139.2430   71.1930  223.5010 N   0  0  0  0  0  0  0  0  0  0  0  0
  137.8230   71.2040  223.5220 C   0  0  0  0  0  0  0  0  0  0  0  0
  137.1300   70.3100  224.5000 C   0  0  0  0  0  0  0  0  0  0  0  0
  137.8030   69.0160  224.7830 C   0  0  0  0  0  0  0  0  0  0  0  0
  139.2470   68.9890  224.3280 C   0  0  0  0  0  0  0  0  0  0  0  0
  139.9150   70.3100  224.4850 C   0  0  2  0  0  0  0  0  0  0  0  0
  139.9570   70.8800  225.8510 C   0  0  0  0  0  0  0  0  0  0  0  0
  141.2610   71.6270  226.0300 C   0  0  0  0  0  0  0  0  0  0  0  0
  141.1810   72.2700  227.4160 C   0  0  0  0  0  0  0  0  0  0  0  0
  140.0710   71.7590  228.1930 N   0  0  0  0  0  0  0  0  0  0  0  0
  139.9590   70.3330  228.2010 C   0  0  0  0  0  0  0  0  0  0  0  0
  140.0470   69.7060  226.8240 C   0  0  0  0  0  0  0  0  0  0  0  0
  139.8270   76.7560  222.3670 C   0  0  0  0  0  0  0  0  0  0  0  0
  140.8150   77.6910  222.5950 C   0  0  0  0  0  0  0  0  0  0  0  0
  140.4690   78.9700  222.9820 C   0  0  0  0  0  0  0  0  0  0  0  0
  139.1100   79.2450  223.1230 C   0  0  0  0  0  0  0  0  0  0  0  0
  138.7310   80.5160  223.5100 C   0  0  0  0  0  0  0  0  0  0  0  0
  137.3850   80.8570  223.6700 C   0  0  0  0  0  0  0  0  0  0  0  0
  136.9370   82.4850  224.1650 Cl  0  0  0  0  0  0  0  0  0  0  0  0
  136.4240   79.8960  223.4350 C   0  0  0  0  0  0  0  0  0  0  0  0
  136.8230   78.6330  223.0490 C   0  0  0  0  0  0  0  0  0  0  0  0
  138.1450   78.2750  222.8850 C   0  0  0  0  0  0  0  0  0  0  0  0
  138.5320   77.0420  222.5090 N   0  0  0  0  0  0  0  0  0  0  0  0
  138.4980   74.5310  222.6450 H   0  0  0  0  0  0  0  0  0  0  0  0
  139.1907   72.6692  220.9959 H   0  0  0  0  0  0  0  0  0  0  0  0
  140.9217   73.2904  221.4887 H   0  0  0  0  0  0  0  0  0  0  0  0
  137.5067   72.2348  223.7396 H   0  0  0  0  0  0  0  0  0  0  0  0
  137.5299   70.8136  222.5363 H   0  0  0  0  0  0  0  0  0  0  0  0
  137.0370   70.8568  225.4499 H   0  0  0  0  0  0  0  0  0  0  0  0
  136.1666   70.0505  224.0368 H   0  0  0  0  0  0  0  0  0  0  0  0
  137.7737   68.8353  225.8677 H   0  0  0  0  0  0  0  0  0  0  0  0
  137.2665   68.2362  224.2226 H   0  0  0  0  0  0  0  0  0  0  0  0
  139.7922   68.2439  224.9260 H   0  0  0  0  0  0  0  0  0  0  0  0
  139.2574   68.7323  223.2584 H   0  0  0  0  0  0  0  0  0  0  0  0
  140.9925   70.1954  224.2956 H   0  0  0  0  0  0  0  0  0  0  0  0
  139.0825   71.5269  226.0149 H   0  0  0  0  0  0  0  0  0  0  0  0
  142.1119   70.9318  225.9780 H   0  0  0  0  0  0  0  0  0  0  0  0
  141.4106   72.3787  225.2410 H   0  0  0  0  0  0  0  0  0  0  0  0
  142.1165   72.0638  227.9567 H   0  0  0  0  0  0  0  0  0  0  0  0
  141.0278   73.3506  227.2785 H   0  0  0  0  0  0  0  0  0  0  0  0
  140.2440   72.0600  229.1780 H   0  0  0  0  0  0  0  0  0  0  0  0
  140.7708   69.9246  228.8208 H   0  0  0  0  0  0  0  0  0  0  0  0
  138.9630   70.0916  228.6005 H   0  0  0  0  0  0  0  0  0  0  0  0
  141.0020   69.1740  226.7013 H   0  0  0  0  0  0  0  0  0  0  0  0
  139.2512   68.9658  226.6545 H   0  0  0  0  0  0  0  0  0  0  0  0
  141.8733   77.4188  222.4691 H   0  0  0  0  0  0  0  0  0  0  0  0
  141.2327   79.7388  223.1709 H   0  0  0  0  0  0  0  0  0  0  0  0
  139.5047   81.2754  223.6961 H   0  0  0  0  0  0  0  0  0  0  0  0
  135.3563   80.1328  223.5535 H   0  0  0  0  0  0  0  0  0  0  0  0
  136.0488   77.8741  222.8628 H   0  0  0  0  0  0  0  0  0  0  0  0
  1  2  2  0
  2  3  1  0
  3  4  1  0
  4  5  1  0
  5  6  2  0
  5  7  1  0
  7  8  1  0
  8  9  1  0
  9 10  1  0
 10 11  1  0
 11 12  1  0
 12 13  1  0
 13 14  1  0
 14 15  1  0
 15 16  1  0
 16 17  1  0
 17 18  1  0
  2 19  1  0
 19 20  2  0
 20 21  1  0
 21 22  2  0
 22 23  1  0
 23 24  2  0
 24 25  1  0
 24 26  1  0
 26 27  2  0
 27 28  1  0
 28 29  2  0
 12  7  1  0
 18 13  1  0
 29 19  1  0
 28 22  1  0
  3 30  1  0
  4 31  1  0
  4 32  1  0
  8 33  1  0
  8 34  1  0
  9 35  1  0
  9 36  1  0
 10 37  1  0
 10 38  1  0
 11 39  1  0
 11 40  1  0
 12 41  1  6
 13 42  1  0
 14 43  1  0
 14 44  1  0
 15 45  1  0
 15 46  1  0
 16 47  1  0
 17 48  1  0
 17 49  1  0
 18 50  1  0
 18 51  1  0
 20 52  1  0
 21 53  1  0
 23 54  1  0
 26 55  1  0
 27 56  1  0
M  END
>  <smiles>  (26) 
O=C(NCC(=O)N1CCCCC1C1CCNCC1)c1ccc2cc(Cl)ccc2n1

>  <score_type>  (26) 
oracle

>  <origin>  (26) 
autodockgpu

>  <m_score__min__energy>  (26) 
-8.6300000000000008

>  <m_primary>  (26) 
energy

>  <rmsd>  (26) 
8.541233897323146

>  <m_score__min__rmsd>  (26) 
8.541233897323146

>  <meeko>  (26) 
{"free_energy": -8.09, "intermolecular_energy": -9.58, "internal_energy": -1.52, "cluster_size": 3, "cluster_id": 3, "rank_in_cluster": 2}

>  <energy>  (26) 
-8.07

>  <cluster_rmsd>  (26) 
1.31

>  <cluster>  (26) 
2

$$$$

     RDKit          3D

 56 59  0  0  0  0  0  0  0  0999 V2000
  139.5430   71.8610  220.9250 O   0  0  0  0  0  0  0  0  0  0  0  0
  139.6050   72.2730  222.1130 C   0  0  0  0  0  0  0  0  0  0  0  0
  139.4880   73.7070  222.3280 N   0  0  0  0  0  0  0  0  0  0  0  0
  139.3140   74.4890  221.1550 C   0  0  0  0  0  0  0  0  0  0  0  0
  139.7300   75.8590  221.0630 C   0  0  0  0  0  0  0  0  0  0  0  0
  138.8930   76.6980  221.6330 O   0  0  0  0  0  0  0  0  0  0  0  0
  140.8490   76.4920  220.4890 N   0  0  0  0  0  0  0  0  0  0  0  0
  142.0220   75.8810  219.9710 C   0  0  0  0  0  0  0  0  0  0  0  0
  143.0730   76.7690  219.3860 C   0  0  0  0  0  0  0  0  0  0  0  0
  142.5790   77.9870  218.6930 C   0  0  0  0  0  0  0  0  0  0  0  0
  141.1380   78.3110  219.0240 C   0  0  0  0  0  0  0  0  0  0  0  0
  140.7890   77.9720  220.4310 C   0  0  2  0  0  0  0  0  0  0  0  0
  141.5810   78.6330  221.4930 C   0  0  0  0  0  0  0  0  0  0  0  0
  140.9200   78.3730  222.8300 C   0  0  0  0  0  0  0  0  0  0  0  0
  141.8490   78.9920  223.8760 C   0  0  0  0  0  0  0  0  0  0  0  0
  142.8650   79.8330  223.2780 N   0  0  0  0  0  0  0  0  0  0  0  0
  142.3700   80.7620  222.3090 C   0  0  0  0  0  0  0  0  0  0  0  0
  141.4460   80.1400  221.2820 C   0  0  0  0  0  0  0  0  0  0  0  0
  139.7860   71.3910  223.2580 C   0  0  0  0  0  0  0  0  0  0  0  0
  139.4270   70.0690  223.0890 C   0  0  0  0  0  0  0  0  0  0  0  0
  139.5750   69.1820  224.1360 C   0  0  0  0  0  0  0  0  0  0  0  0
  140.0880   69.6880  225.3290 C   0  0  0  0  0  0  0  0  0  0  0  0
  140.2480   68.8260  226.3970 C   0  0  0  0  0  0  0  0  0  0  0  0
  140.7580   69.2700  227.6210 C   0  0  0  0  0  0  0  0  0  0  0  0
  140.9470   68.1450  228.9610 Cl  0  0  0  0  0  0  0  0  0  0  0  0
  141.1050   70.5980  227.7540 C   0  0  0  0  0  0  0  0  0  0  0  0
  140.9380   71.4420  226.6760 C   0  0  0  0  0  0  0  0  0  0  0  0
  140.4370   71.0260  225.4590 C   0  0  0  0  0  0  0  0  0  0  0  0
  140.2750   71.8520  224.4100 N   0  0  0  0  0  0  0  0  0  0  0  0
  139.5440   73.9850  223.3130 H   0  0  0  0  0  0  0  0  0  0  0  0
  139.8457   73.9558  220.3531 H   0  0  0  0  0  0  0  0  0  0  0  0
  138.2191   74.5872  221.1151 H   0  0  0  0  0  0  0  0  0  0  0  0
  142.4887   75.3185  220.7930 H   0  0  0  0  0  0  0  0  0  0  0  0
  141.6671   75.2774  219.1226 H   0  0  0  0  0  0  0  0  0  0  0  0
  143.7356   77.0910  220.2029 H   0  0  0  0  0  0  0  0  0  0  0  0
  143.5746   76.1685  218.6129 H   0  0  0  0  0  0  0  0  0  0  0  0
  143.2075   78.8392  218.9908 H   0  0  0  0  0  0  0  0  0  0  0  0
  142.6336   77.7956  217.6111 H   0  0  0  0  0  0  0  0  0  0  0  0
  140.9733   79.3874  218.8687 H   0  0  0  0  0  0  0  0  0  0  0  0
  140.4982   77.7061  218.3646 H   0  0  0  0  0  0  0  0  0  0  0  0
  139.7909   78.3716  220.6635 H   0  0  0  0  0  0  0  0  0  0  0  0
  142.6197   78.2721  221.4659 H   0  0  0  0  0  0  0  0  0  0  0  0
  139.9289   78.8487  222.8672 H   0  0  0  0  0  0  0  0  0  0  0  0
  140.7678   77.2980  223.0064 H   0  0  0  0  0  0  0  0  0  0  0  0
  141.2478   79.6005  224.5676 H   0  0  0  0  0  0  0  0  0  0  0  0
  142.3579   78.1713  224.4027 H   0  0  0  0  0  0  0  0  0  0  0  0
  143.2750   80.3910  224.0580 H   0  0  0  0  0  0  0  0  0  0  0  0
  141.8184   81.5535  222.8375 H   0  0  0  0  0  0  0  0  0  0  0  0
  143.2421   81.1498  221.7622 H   0  0  0  0  0  0  0  0  0  0  0  0
  140.4079   80.4628  221.4497 H   0  0  0  0  0  0  0  0  0  0  0  0
  141.7061   80.4393  220.2560 H   0  0  0  0  0  0  0  0  0  0  0  0
  139.0250   69.7242  222.1249 H   0  0  0  0  0  0  0  0  0  0  0  0
  139.3000   68.1219  224.0334 H   0  0  0  0  0  0  0  0  0  0  0  0
  139.9683   67.7684  226.2820 H   0  0  0  0  0  0  0  0  0  0  0  0
  141.5083   70.9779  228.7042 H   0  0  0  0  0  0  0  0  0  0  0  0
  141.2181   72.4994  226.7919 H   0  0  0  0  0  0  0  0  0  0  0  0
  1  2  2  0
  2  3  1  0
  3  4  1  0
  4  5  1  0
  5  6  2  0
  5  7  1  0
  7  8  1  0
  8  9  1  0
  9 10  1  0
 10 11  1  0
 11 12  1  0
 12 13  1  0
 13 14  1  0
 14 15  1  0
 15 16  1  0
 16 17  1  0
 17 18  1  0
  2 19  1  0
 19 20  2  0
 20 21  1  0
 21 22  2  0
 22 23  1  0
 23 24  2  0
 24 25  1  0
 24 26  1  0
 26 27  2  0
 27 28  1  0
 28 29  2  0
 12  7  1  0
 18 13  1  0
 29 19  1  0
 28 22  1  0
  3 30  1  0
  4 31  1  0
  4 32  1  0
  8 33  1  0
  8 34  1  0
  9 35  1  0
  9 36  1  0
 10 37  1  0
 10 38  1  0
 11 39  1  0
 11 40  1  0
 12 41  1  1
 13 42  1  0
 14 43  1  0
 14 44  1  0
 15 45  1  0
 15 46  1  0
 16 47  1  0
 17 48  1  0
 17 49  1  0
 18 50  1  0
 18 51  1  0
 20 52  1  0
 21 53  1  0
 23 54  1  0
 26 55  1  0
 27 56  1  0
M  END
>  <smiles>  (27) 
O=C(NCC(=O)N1CCCCC1C1CCNCC1)c1ccc2cc(Cl)ccc2n1

>  <score_type>  (27) 
oracle

>  <origin>  (27) 
autodockgpu

>  <m_score__min__energy>  (27) 
-8.6300000000000008

>  <m_primary>  (27) 
energy

>  <rmsd>  (27) 
1.9496239190519573

>  <m_score__min__rmsd>  (27) 
1.9496239190519573

>  <meeko>  (27) 
{"free_energy": -8.57, "intermolecular_energy": -10.06, "internal_energy": -1.52, "cluster_size": 20, "cluster_id": 1, "rank_in_cluster": 2}

>  <energy>  (27) 
-8.06

>  <cluster_rmsd>  (27) 
1.3

>  <cluster>  (27) 
2

$$$$

     RDKit          3D

 56 59  0  0  0  0  0  0  0  0999 V2000
  139.8630   72.1910  220.7900 O   0  0  0  0  0  0  0  0  0  0  0  0
  139.7820   72.5490  221.9950 C   0  0  0  0  0  0  0  0  0  0  0  0
  139.5680   73.9640  222.2560 N   0  0  0  0  0  0  0  0  0  0  0  0
  139.4730   74.7910  221.1060 C   0  0  0  0  0  0  0  0  0  0  0  0
  139.9790   76.1330  221.0670 C   0  0  0  0  0  0  0  0  0  0  0  0
  141.2870   76.1940  220.9500 O   0  0  0  0  0  0  0  0  0  0  0  0
  139.3650   77.3990  221.1270 N   0  0  0  0  0  0  0  0  0  0  0  0
  138.7040   78.0950  220.0810 C   0  0  0  0  0  0  0  0  0  0  0  0
  138.1050   79.4270  220.3970 C   0  0  0  0  0  0  0  0  0  0  0  0
  137.5530   79.5810  221.7680 C   0  0  0  0  0  0  0  0  0  0  0  0
  138.0280   78.5030  222.7190 C   0  0  0  0  0  0  0  0  0  0  0  0
  139.4290   78.0800  222.4430 C   0  0  2  0  0  0  0  0  0  0  0  0
  140.4700   79.1300  222.5090 C   0  0  0  0  0  0  0  0  0  0  0  0
  141.7310   78.5350  223.0960 C   0  0  0  0  0  0  0  0  0  0  0  0
  142.7810   79.6460  223.0310 C   0  0  0  0  0  0  0  0  0  0  0  0
  142.1980   80.9320  222.7110 N   0  0  0  0  0  0  0  0  0  0  0  0
  141.0380   81.2650  223.4800 C   0  0  0  0  0  0  0  0  0  0  0  0
  140.0080   80.1560  223.5430 C   0  0  0  0  0  0  0  0  0  0  0  0
  139.8920   71.6230  223.1140 C   0  0  0  0  0  0  0  0  0  0  0  0
  139.4700   70.3280  222.8950 C   0  0  0  0  0  0  0  0  0  0  0  0
  139.5490   69.4030  223.9160 C   0  0  0  0  0  0  0  0  0  0  0  0
  140.0610   69.8440  225.1350 C   0  0  0  0  0  0  0  0  0  0  0  0
  140.1530   68.9420  226.1780 C   0  0  0  0  0  0  0  0  0  0  0  0
  140.6570   69.3200  227.4260 C   0  0  0  0  0  0  0  0  0  0  0  0
  140.7590   68.1450  228.7320 Cl  0  0  0  0  0  0  0  0  0  0  0  0
  141.0680   70.6240  227.6090 C   0  0  0  0  0  0  0  0  0  0  0  0
  140.9690   71.5080  226.5550 C   0  0  0  0  0  0  0  0  0  0  0  0
  140.4750   71.1570  225.3160 C   0  0  0  0  0  0  0  0  0  0  0  0
  140.3780   72.0230  224.2900 N   0  0  0  0  0  0  0  0  0  0  0  0
  139.5090   74.1970  223.2530 H   0  0  0  0  0  0  0  0  0  0  0  0
  139.9878   74.2490  220.2990 H   0  0  0  0  0  0  0  0  0  0  0  0
  138.3881   74.9620  221.0458 H   0  0  0  0  0  0  0  0  0  0  0  0
  139.4369   78.2483  219.2752 H   0  0  0  0  0  0  0  0  0  0  0  0
  137.8434   77.4587  219.8270 H   0  0  0  0  0  0  0  0  0  0  0  0
  138.8865   80.1890  220.2607 H   0  0  0  0  0  0  0  0  0  0  0  0
  137.2477   79.5371  219.7166 H   0  0  0  0  0  0  0  0  0  0  0  0
  137.8633   80.5595  222.1634 H   0  0  0  0  0  0  0  0  0  0  0  0
  136.4586   79.4975  221.6945 H   0  0  0  0  0  0  0  0  0  0  0  0
  137.9716   78.8892  223.7474 H   0  0  0  0  0  0  0  0  0  0  0  0
  137.3793   77.6252  222.5821 H   0  0  0  0  0  0  0  0  0  0  0  0
  139.7748   77.4214  223.2533 H   0  0  0  0  0  0  0  0  0  0  0  0
  140.6390   79.5533  221.5079 H   0  0  0  0  0  0  0  0  0  0  0  0
  141.5612   78.2280  224.1386 H   0  0  0  0  0  0  0  0  0  0  0  0
  142.0526   77.6392  222.5445 H   0  0  0  0  0  0  0  0  0  0  0  0
  143.2820   79.7174  224.0077 H   0  0  0  0  0  0  0  0  0  0  0  0
  143.4937   79.3906  222.2330 H   0  0  0  0  0  0  0  0  0  0  0  0
  142.9290   81.6440  222.9320 H   0  0  0  0  0  0  0  0  0  0  0  0
  141.3576   81.5003  224.5059 H   0  0  0  0  0  0  0  0  0  0  0  0
  140.5580   82.1205  222.9823 H   0  0  0  0  0  0  0  0  0  0  0  0
  139.9824   79.7084  224.5475 H   0  0  0  0  0  0  0  0  0  0  0  0
  138.9918   80.5229  223.3364 H   0  0  0  0  0  0  0  0  0  0  0  0
  139.0728   70.0344  221.9121 H   0  0  0  0  0  0  0  0  0  0  0  0
  139.2219   68.3624  223.7739 H   0  0  0  0  0  0  0  0  0  0  0  0
  139.8226   67.9043  226.0229 H   0  0  0  0  0  0  0  0  0  0  0  0
  141.4680   70.9533  228.5793 H   0  0  0  0  0  0  0  0  0  0  0  0
  141.3007   72.5452  226.7103 H   0  0  0  0  0  0  0  0  0  0  0  0
  1  2  2  0
  2  3  1  0
  3  4  1  0
  4  5  1  0
  5  6  2  0
  5  7  1  0
  7  8  1  0
  8  9  1  0
  9 10  1  0
 10 11  1  0
 11 12  1  0
 12 13  1  0
 13 14  1  0
 14 15  1  0
 15 16  1  0
 16 17  1  0
 17 18  1  0
  2 19  1  0
 19 20  2  0
 20 21  1  0
 21 22  2  0
 22 23  1  0
 23 24  2  0
 24 25  1  0
 24 26  1  0
 26 27  2  0
 27 28  1  0
 28 29  2  0
 12  7  1  0
 18 13  1  0
 29 19  1  0
 28 22  1  0
  3 30  1  0
  4 31  1  0
  4 32  1  0
  8 33  1  0
  8 34  1  0
  9 35  1  0
  9 36  1  0
 10 37  1  0
 10 38  1  0
 11 39  1  0
 11 40  1  0
 12 41  1  1
 13 42  1  0
 14 43  1  0
 14 44  1  0
 15 45  1  0
 15 46  1  0
 16 47  1  0
 17 48  1  0
 17 49  1  0
 18 50  1  0
 18 51  1  0
 20 52  1  0
 21 53  1  0
 23 54  1  0
 26 55  1  0
 27 56  1  0
M  END
>  <smiles>  (28) 
O=C(NCC(=O)N1CCCCC1C1CCNCC1)c1ccc2cc(Cl)ccc2n1

>  <score_type>  (28) 
oracle

>  <origin>  (28) 
autodockgpu

>  <m_score__min__energy>  (28) 
-8.6300000000000008

>  <m_primary>  (28) 
energy

>  <rmsd>  (28) 
2.9774546825242

>  <m_score__min__rmsd>  (28) 
2.9774546825242

>  <meeko>  (28) 
{"free_energy": -8.06, "intermolecular_energy": -9.55, "internal_energy": -1.41, "cluster_size": 20, "cluster_id": 1, "rank_in_cluster": 12}

>  <energy>  (28) 
-8.04

>  <cluster_rmsd>  (28) 
0.34

>  <cluster>  (28) 
2

$$$$

     RDKit          3D

 56 59  0  0  0  0  0  0  0  0999 V2000
  138.8430   71.6890  220.6580 O   0  0  0  0  0  0  0  0  0  0  0  0
  139.1900   72.1620  221.7730 C   0  0  0  0  0  0  0  0  0  0  0  0
  139.3150   73.6080  221.8720 N   0  0  0  0  0  0  0  0  0  0  0  0
  139.0280   74.3300  220.6830 C   0  0  0  0  0  0  0  0  0  0  0  0
  139.8190   74.2140  219.4910 C   0  0  0  0  0  0  0  0  0  0  0  0
  139.2690   73.4490  218.5740 O   0  0  0  0  0  0  0  0  0  0  0  0
  141.0600   74.7500  219.1000 N   0  0  0  0  0  0  0  0  0  0  0  0
  141.4350   75.2290  217.8170 C   0  0  0  0  0  0  0  0  0  0  0  0
  142.8160   75.7780  217.6510 C   0  0  0  0  0  0  0  0  0  0  0  0
  143.3770   76.4870  218.8310 C   0  0  0  0  0  0  0  0  0  0  0  0
  142.6140   76.2040  220.1070 C   0  0  0  0  0  0  0  0  0  0  0  0
  142.0950   74.8100  220.1610 C   0  0  2  0  0  0  0  0  0  0  0  0
  143.0940   73.7210  220.0660 C   0  0  0  0  0  0  0  0  0  0  0  0
  142.5920   72.5250  220.8460 C   0  0  0  0  0  0  0  0  0  0  0  0
  143.6210   71.4180  220.6110 C   0  0  0  0  0  0  0  0  0  0  0  0
  144.8290   71.9160  219.9880 N   0  0  0  0  0  0  0  0  0  0  0  0
  145.3650   73.0970  220.5920 C   0  0  0  0  0  0  0  0  0  0  0  0
  144.3360   74.1840  220.8260 C   0  0  0  0  0  0  0  0  0  0  0  0
  139.4630   71.3380  222.9420 C   0  0  0  0  0  0  0  0  0  0  0  0
  139.1340   70.0010  222.8540 C   0  0  0  0  0  0  0  0  0  0  0  0
  139.3700   69.1680  223.9280 C   0  0  0  0  0  0  0  0  0  0  0  0
  139.9390   69.7410  225.0640 C   0  0  0  0  0  0  0  0  0  0  0  0
  140.1870   68.9340  226.1580 C   0  0  0  0  0  0  0  0  0  0  0  0
  140.7550   69.4460  227.3270 C   0  0  0  0  0  0  0  0  0  0  0  0
  141.0570   68.3890  228.7010 Cl  0  0  0  0  0  0  0  0  0  0  0  0
  141.0700   70.7880  227.3810 C   0  0  0  0  0  0  0  0  0  0  0  0
  140.8160   71.5770  226.2780 C   0  0  0  0  0  0  0  0  0  0  0  0
  140.2550   71.0920  225.1140 C   0  0  0  0  0  0  0  0  0  0  0  0
  140.0070   71.8650  224.0400 N   0  0  0  0  0  0  0  0  0  0  0  0
  139.5980   73.9370  222.8010 H   0  0  0  0  0  0  0  0  0  0  0  0
  138.0040   74.0485  220.3965 H   0  0  0  0  0  0  0  0  0  0  0  0
  139.2452   75.3628  220.9932 H   0  0  0  0  0  0  0  0  0  0  0  0
  141.3281   74.3923  217.1109 H   0  0  0  0  0  0  0  0  0  0  0  0
  140.7730   76.0894  217.6396 H   0  0  0  0  0  0  0  0  0  0  0  0
  143.4860   74.9391  217.4114 H   0  0  0  0  0  0  0  0  0  0  0  0
  142.7430   76.5340  216.8553 H   0  0  0  0  0  0  0  0  0  0  0  0
  144.4208   76.1681  218.9683 H   0  0  0  0  0  0  0  0  0  0  0  0
  143.3008   77.5665  218.6339 H   0  0  0  0  0  0  0  0  0  0  0  0
  143.2858   76.3641  220.9631 H   0  0  0  0  0  0  0  0  0  0  0  0
  141.7505   76.8847  220.1392 H   0  0  0  0  0  0  0  0  0  0  0  0
  141.6939   74.6120  221.1659 H   0  0  0  0  0  0  0  0  0  0  0  0
  143.2836   73.4776  219.0101 H   0  0  0  0  0  0  0  0  0  0  0  0
  142.5253   72.7659  221.9172 H   0  0  0  0  0  0  0  0  0  0  0  0
  141.5861   72.2207  220.5211 H   0  0  0  0  0  0  0  0  0  0  0  0
  143.8824   70.9663  221.5793 H   0  0  0  0  0  0  0  0  0  0  0  0
  143.1716   70.6786  219.9318 H   0  0  0  0  0  0  0  0  0  0  0  0
  145.5430   71.1630  220.0970 H   0  0  0  0  0  0  0  0  0  0  0  0
  145.8054   72.8216  221.5616 H   0  0  0  0  0  0  0  0  0  0  0  0
  146.1095   73.5053  219.8927 H   0  0  0  0  0  0  0  0  0  0  0  0
  144.1174   74.2852  221.8993 H   0  0  0  0  0  0  0  0  0  0  0  0
  144.6882   75.1680  220.4828 H   0  0  0  0  0  0  0  0  0  0  0  0
  138.6859   69.6014  221.9323 H   0  0  0  0  0  0  0  0  0  0  0  0
  139.1198   68.0975  223.8895 H   0  0  0  0  0  0  0  0  0  0  0  0
  139.9316   67.8653  226.1072 H   0  0  0  0  0  0  0  0  0  0  0  0
  141.5162   71.2217  228.2881 H   0  0  0  0  0  0  0  0  0  0  0  0
  141.0733   72.6453  226.3289 H   0  0  0  0  0  0  0  0  0  0  0  0
  1  2  2  0
  2  3  1  0
  3  4  1  0
  4  5  1  0
  5  6  2  0
  5  7  1  0
  7  8  1  0
  8  9  1  0
  9 10  1  0
 10 11  1  0
 11 12  1  0
 12 13  1  0
 13 14  1  0
 14 15  1  0
 15 16  1  0
 16 17  1  0
 17 18  1  0
  2 19  1  0
 19 20  2  0
 20 21  1  0
 21 22  2  0
 22 23  1  0
 23 24  2  0
 24 25  1  0
 24 26  1  0
 26 27  2  0
 27 28  1  0
 28 29  2  0
 12  7  1  0
 18 13  1  0
 29 19  1  0
 28 22  1  0
  3 30  1  0
  4 31  1  0
  4 32  1  0
  8 33  1  0
  8 34  1  0
  9 35  1  0
  9 36  1  0
 10 37  1  0
 10 38  1  0
 11 39  1  0
 11 40  1  0
 12 41  1  1
 13 42  1  0
 14 43  1  0
 14 44  1  0
 15 45  1  0
 15 46  1  0
 16 47  1  0
 17 48  1  0
 17 49  1  0
 18 50  1  0
 18 51  1  0
 20 52  1  0
 21 53  1  0
 23 54  1  0
 26 55  1  0
 27 56  1  0
M  END
>  <smiles>  (29) 
O=C(NCC(=O)N1CCCCC1C1CCNCC1)c1ccc2cc(Cl)ccc2n1

>  <score_type>  (29) 
oracle

>  <origin>  (29) 
autodockgpu

>  <m_score__min__energy>  (29) 
-8.6300000000000008

>  <m_primary>  (29) 
energy

>  <rmsd>  (29) 
2.0155007522553485

>  <m_score__min__rmsd>  (29) 
2.0155007522553485

>  <meeko>  (29) 
{"free_energy": -7.35, "intermolecular_energy": -8.84, "internal_energy": -2.06, "cluster_size": 18, "cluster_id": 2, "rank_in_cluster": 18}

>  <energy>  (29) 
-8.03

>  <cluster_rmsd>  (29) 
1.32

>  <cluster>  (29) 
2

$$$$

     RDKit          3D

 56 59  0  0  0  0  0  0  0  0999 V2000
  139.8090   72.2660  220.6740 O   0  0  0  0  0  0  0  0  0  0  0  0
  139.7660   72.6530  221.8710 C   0  0  0  0  0  0  0  0  0  0  0  0
  139.5780   74.0770  222.1040 N   0  0  0  0  0  0  0  0  0  0  0  0
  139.4660   74.8780  220.9370 C   0  0  0  0  0  0  0  0  0  0  0  0
  140.5730   75.5980  220.3750 C   0  0  0  0  0  0  0  0  0  0  0  0
  140.8460   76.7140  221.0150 O   0  0  0  0  0  0  0  0  0  0  0  0
  141.4270   75.3560  219.2830 N   0  0  0  0  0  0  0  0  0  0  0  0
  141.0660   74.9700  217.9650 C   0  0  0  0  0  0  0  0  0  0  0  0
  142.1600   74.7940  216.9630 C   0  0  0  0  0  0  0  0  0  0  0  0
  143.3230   75.7090  217.1060 C   0  0  0  0  0  0  0  0  0  0  0  0
  143.3710   76.3950  218.4550 C   0  0  0  0  0  0  0  0  0  0  0  0
  142.8760   75.5210  219.5540 C   0  0  2  0  0  0  0  0  0  0  0  0
  143.5830   74.2360  219.7550 C   0  0  0  0  0  0  0  0  0  0  0  0
  142.8090   73.4020  220.7530 C   0  0  0  0  0  0  0  0  0  0  0  0
  143.5410   72.0600  220.8250 C   0  0  0  0  0  0  0  0  0  0  0  0
  144.8320   72.1050  220.1710 N   0  0  0  0  0  0  0  0  0  0  0  0
  145.6380   73.2320  220.5260 C   0  0  0  0  0  0  0  0  0  0  0  0
  144.9020   74.5550  220.4580 C   0  0  0  0  0  0  0  0  0  0  0  0
  139.8900   71.7530  223.0090 C   0  0  0  0  0  0  0  0  0  0  0  0
  139.4890   70.4460  222.8180 C   0  0  0  0  0  0  0  0  0  0  0  0
  139.5840   69.5440  223.8570 C   0  0  0  0  0  0  0  0  0  0  0  0
  140.0890   70.0180  225.0660 C   0  0  0  0  0  0  0  0  0  0  0  0
  140.1960   69.1400  226.1270 C   0  0  0  0  0  0  0  0  0  0  0  0
  140.6950   69.5510  227.3670 C   0  0  0  0  0  0  0  0  0  0  0  0
  140.8170   68.4060  228.6970 Cl  0  0  0  0  0  0  0  0  0  0  0  0
  141.0850   70.8650  227.5220 C   0  0  0  0  0  0  0  0  0  0  0  0
  140.9720   71.7260  226.4500 C   0  0  0  0  0  0  0  0  0  0  0  0
  140.4820   71.3420  225.2190 C   0  0  0  0  0  0  0  0  0  0  0  0
  140.3710   72.1840  224.1760 N   0  0  0  0  0  0  0  0  0  0  0  0
  139.5480   74.3350  223.0950 H   0  0  0  0  0  0  0  0  0  0  0  0
  139.1055   74.2079  220.1427 H   0  0  0  0  0  0  0  0  0  0  0  0
  138.8271   75.6993  221.2938 H   0  0  0  0  0  0  0  0  0  0  0  0
  140.5326   74.0109  218.0392 H   0  0  0  0  0  0  0  0  0  0  0  0
  140.4753   75.8154  217.5824 H   0  0  0  0  0  0  0  0  0  0  0  0
  142.5308   73.7617  217.0462 H   0  0  0  0  0  0  0  0  0  0  0  0
  141.7117   75.0317  215.9870 H   0  0  0  0  0  0  0  0  0  0  0  0
  144.2465   75.1257  216.9759 H   0  0  0  0  0  0  0  0  0  0  0  0
  143.2223   76.4927  216.3407 H   0  0  0  0  0  0  0  0  0  0  0  0
  144.4118   76.6782  218.6705 H   0  0  0  0  0  0  0  0  0  0  0  0
  142.7152   77.2768  218.4064 H   0  0  0  0  0  0  0  0  0  0  0  0
  143.0814   76.0040  220.5207 H   0  0  0  0  0  0  0  0  0  0  0  0
  143.7064   73.7208  218.7910 H   0  0  0  0  0  0  0  0  0  0  0  0
  142.8041   73.8899  221.7389 H   0  0  0  0  0  0  0  0  0  0  0  0
  141.7589   73.2766  220.4504 H   0  0  0  0  0  0  0  0  0  0  0  0
  143.6885   71.7933  221.8819 H   0  0  0  0  0  0  0  0  0  0  0  0
  142.9252   71.3113  220.3051 H   0  0  0  0  0  0  0  0  0  0  0  0
  145.3440   71.2500  220.4820 H   0  0  0  0  0  0  0  0  0  0  0  0
  146.0005   73.0891  221.5547 H   0  0  0  0  0  0  0  0  0  0  0  0
  146.4579   73.2831  219.7945 H   0  0  0  0  0  0  0  0  0  0  0  0
  144.7167   74.9471  221.4689 H   0  0  0  0  0  0  0  0  0  0  0  0
  145.4803   75.3234  219.9241 H   0  0  0  0  0  0  0  0  0  0  0  0
  139.0957   70.1255  221.8420 H   0  0  0  0  0  0  0  0  0  0  0  0
  139.2744   68.4954  223.7364 H   0  0  0  0  0  0  0  0  0  0  0  0
  139.8817   68.0943  225.9936 H   0  0  0  0  0  0  0  0  0  0  0  0
  141.4799   71.2207  228.4851 H   0  0  0  0  0  0  0  0  0  0  0  0
  141.2885   72.7710  226.5835 H   0  0  0  0  0  0  0  0  0  0  0  0
  1  2  2  0
  2  3  1  0
  3  4  1  0
  4  5  1  0
  5  6  2  0
  5  7  1  0
  7  8  1  0
  8  9  1  0
  9 10  1  0
 10 11  1  0
 11 12  1  0
 12 13  1  0
 13 14  1  0
 14 15  1  0
 15 16  1  0
 16 17  1  0
 17 18  1  0
  2 19  1  0
 19 20  2  0
 20 21  1  0
 21 22  2  0
 22 23  1  0
 23 24  2  0
 24 25  1  0
 24 26  1  0
 26 27  2  0
 27 28  1  0
 28 29  2  0
 12  7  1  0
 18 13  1  0
 29 19  1  0
 28 22  1  0
  3 30  1  0
  4 31  1  0
  4 32  1  0
  8 33  1  0
  8 34  1  0
  9 35  1  0
  9 36  1  0
 10 37  1  0
 10 38  1  0
 11 39  1  0
 11 40  1  0
 12 41  1  1
 13 42  1  0
 14 43  1  0
 14 44  1  0
 15 45  1  0
 15 46  1  0
 16 47  1  0
 17 48  1  0
 17 49  1  0
 18 50  1  0
 18 51  1  0
 20 52  1  0
 21 53  1  0
 23 54  1  0
 26 55  1  0
 27 56  1  0
M  END
>  <smiles>  (30) 
O=C(NCC(=O)N1CCCCC1C1CCNCC1)c1ccc2cc(Cl)ccc2n1

>  <score_type>  (30) 
oracle

>  <origin>  (30) 
autodockgpu

>  <m_score__min__energy>  (30) 
-8.6300000000000008

>  <m_primary>  (30) 
energy

>  <rmsd>  (30) 
1.9128496716786

>  <m_score__min__rmsd>  (30) 
1.9128496716786

>  <meeko>  (30) 
{"free_energy": -8.04, "intermolecular_energy": -9.53, "internal_energy": -2.02, "cluster_size": 18, "cluster_id": 2, "rank_in_cluster": 8}

>  <energy>  (30) 
-8.02

>  <cluster_rmsd>  (30) 
1.33

>  <cluster>  (30) 
2

$$$$

     RDKit          3D

 56 59  0  0  0  0  0  0  0  0999 V2000
  139.6810   71.9350  220.9110 O   0  0  0  0  0  0  0  0  0  0  0  0
  139.6990   72.3370  222.1040 C   0  0  0  0  0  0  0  0  0  0  0  0
  139.5560   73.7680  222.3270 N   0  0  0  0  0  0  0  0  0  0  0  0
  139.4120   74.5580  221.1560 C   0  0  0  0  0  0  0  0  0  0  0  0
  139.7490   75.9520  221.1100 C   0  0  0  0  0  0  0  0  0  0  0  0
  138.8950   76.7160  221.7550 O   0  0  0  0  0  0  0  0  0  0  0  0
  140.8050   76.6710  220.5170 N   0  0  0  0  0  0  0  0  0  0  0  0
  141.9710   76.1500  219.8990 C   0  0  0  0  0  0  0  0  0  0  0  0
  142.9470   77.1200  219.3160 C   0  0  0  0  0  0  0  0  0  0  0  0
  142.3610   78.3540  218.7290 C   0  0  0  0  0  0  0  0  0  0  0  0
  140.9280   78.5880  219.1580 C   0  0  0  0  0  0  0  0  0  0  0  0
  140.6760   78.1470  220.5570 C   0  0  2  0  0  0  0  0  0  0  0  0
  141.4970   78.7790  221.6150 C   0  0  0  0  0  0  0  0  0  0  0  0
  140.8900   78.4570  222.9640 C   0  0  0  0  0  0  0  0  0  0  0  0
  141.8480   79.0490  223.9990 C   0  0  0  0  0  0  0  0  0  0  0  0
  142.8290   79.9280  223.3970 N   0  0  0  0  0  0  0  0  0  0  0  0
  142.2860   80.8870  222.4840 C   0  0  0  0  0  0  0  0  0  0  0  0
  141.3330   80.2900  221.4680 C   0  0  0  0  0  0  0  0  0  0  0  0
  139.8510   71.4470  223.2470 C   0  0  0  0  0  0  0  0  0  0  0  0
  139.4660   70.1340  223.0700 C   0  0  0  0  0  0  0  0  0  0  0  0
  139.5860   69.2400  224.1150 C   0  0  0  0  0  0  0  0  0  0  0  0
  140.1020   69.7300  225.3140 C   0  0  0  0  0  0  0  0  0  0  0  0
  140.2350   68.8610  226.3790 C   0  0  0  0  0  0  0  0  0  0  0  0
  140.7450   69.2890  227.6090 C   0  0  0  0  0  0  0  0  0  0  0  0
  140.9010   68.1550  228.9450 Cl  0  0  0  0  0  0  0  0  0  0  0  0
  141.1200   70.6090  227.7500 C   0  0  0  0  0  0  0  0  0  0  0  0
  140.9800   71.4600  226.6730 C   0  0  0  0  0  0  0  0  0  0  0  0
  140.4790   71.0600  225.4520 C   0  0  0  0  0  0  0  0  0  0  0  0
  140.3420   71.8930  224.4040 N   0  0  0  0  0  0  0  0  0  0  0  0
  139.5750   74.0370  223.3160 H   0  0  0  0  0  0  0  0  0  0  0  0
  140.0265   74.0715  220.3842 H   0  0  0  0  0  0  0  0  0  0  0  0
  138.3181   74.5912  221.0448 H   0  0  0  0  0  0  0  0  0  0  0  0
  142.5079   75.5608  220.6570 H   0  0  0  0  0  0  0  0  0  0  0  0
  141.5949   75.5840  219.0340 H   0  0  0  0  0  0  0  0  0  0  0  0
  143.6402   77.4225  220.1147 H   0  0  0  0  0  0  0  0  0  0  0  0
  143.4300   76.5921  218.4805 H   0  0  0  0  0  0  0  0  0  0  0  0
  142.9673   79.2154  219.0459 H   0  0  0  0  0  0  0  0  0  0  0  0
  142.3624   78.2321  217.6358 H   0  0  0  0  0  0  0  0  0  0  0  0
  140.7071   79.6628  219.0811 H   0  0  0  0  0  0  0  0  0  0  0  0
  140.2787   77.9951  218.4971 H   0  0  0  0  0  0  0  0  0  0  0  0
  139.6761   78.4834  220.8684 H   0  0  0  0  0  0  0  0  0  0  0  0
  142.5391   78.4357  221.5362 H   0  0  0  0  0  0  0  0  0  0  0  0
  139.8943   78.9154  223.0562 H   0  0  0  0  0  0  0  0  0  0  0  0
  140.7598   77.3736  223.1032 H   0  0  0  0  0  0  0  0  0  0  0  0
  141.2645   79.6210  224.7354 H   0  0  0  0  0  0  0  0  0  0  0  0
  142.3874   78.2167  224.4747 H   0  0  0  0  0  0  0  0  0  0  0  0
  143.2600   80.4620  224.1840 H   0  0  0  0  0  0  0  0  0  0  0  0
  141.7436   81.6491  223.0628 H   0  0  0  0  0  0  0  0  0  0  0  0
  143.1316   81.3098  221.9216 H   0  0  0  0  0  0  0  0  0  0  0  0
  140.2974   80.5898  221.6861 H   0  0  0  0  0  0  0  0  0  0  0  0
  141.5505   80.6323  220.4455 H   0  0  0  0  0  0  0  0  0  0  0  0
  139.0655   69.8012  222.1011 H   0  0  0  0  0  0  0  0  0  0  0  0
  139.2875   68.1869  224.0065 H   0  0  0  0  0  0  0  0  0  0  0  0
  139.9335   67.8101  226.2574 H   0  0  0  0  0  0  0  0  0  0  0  0
  141.5238   70.9769  228.7048 H   0  0  0  0  0  0  0  0  0  0  0  0
  141.2833   72.5104  226.7944 H   0  0  0  0  0  0  0  0  0  0  0  0
  1  2  2  0
  2  3  1  0
  3  4  1  0
  4  5  1  0
  5  6  2  0
  5  7  1  0
  7  8  1  0
  8  9  1  0
  9 10  1  0
 10 11  1  0
 11 12  1  0
 12 13  1  0
 13 14  1  0
 14 15  1  0
 15 16  1  0
 16 17  1  0
 17 18  1  0
  2 19  1  0
 19 20  2  0
 20 21  1  0
 21 22  2  0
 22 23  1  0
 23 24  2  0
 24 25  1  0
 24 26  1  0
 26 27  2  0
 27 28  1  0
 28 29  2  0
 12  7  1  0
 18 13  1  0
 29 19  1  0
 28 22  1  0
  3 30  1  0
  4 31  1  0
  4 32  1  0
  8 33  1  0
  8 34  1  0
  9 35  1  0
  9 36  1  0
 10 37  1  0
 10 38  1  0
 11 39  1  0
 11 40  1  0
 12 41  1  1
 13 42  1  0
 14 43  1  0
 14 44  1  0
 15 45  1  0
 15 46  1  0
 16 47  1  0
 17 48  1  0
 17 49  1  0
 18 50  1  0
 18 51  1  0
 20 52  1  0
 21 53  1  0
 23 54  1  0
 26 55  1  0
 27 56  1  0
M  END
>  <smiles>  (31) 
O=C(NCC(=O)N1CCCCC1C1CCNCC1)c1ccc2cc(Cl)ccc2n1

>  <score_type>  (31) 
oracle

>  <origin>  (31) 
autodockgpu

>  <m_score__min__energy>  (31) 
-8.6300000000000008

>  <m_primary>  (31) 
energy

>  <rmsd>  (31) 
2.017121358991673

>  <m_score__min__rmsd>  (31) 
2.017121358991673

>  <meeko>  (31) 
{"free_energy": -8.53, "intermolecular_energy": -10.02, "internal_energy": -1.51, "cluster_size": 20, "cluster_id": 1, "rank_in_cluster": 3}

>  <energy>  (31) 
-8.0

>  <cluster_rmsd>  (31) 
1.27

>  <cluster>  (31) 
2

$$$$

     RDKit          3D

 56 59  0  0  0  0  0  0  0  0999 V2000
  139.6860   72.5480  220.5670 O   0  0  0  0  0  0  0  0  0  0  0  0
  139.7020   72.8680  221.7850 C   0  0  0  0  0  0  0  0  0  0  0  0
  139.5730   74.2830  222.1030 N   0  0  0  0  0  0  0  0  0  0  0  0
  139.4420   75.1510  220.9870 C   0  0  0  0  0  0  0  0  0  0  0  0
  140.5630   75.5950  220.2090 C   0  0  0  0  0  0  0  0  0  0  0  0
  141.0240   76.7690  220.5820 O   0  0  0  0  0  0  0  0  0  0  0  0
  141.2720   75.0350  219.1300 N   0  0  0  0  0  0  0  0  0  0  0  0
  140.7600   74.2370  218.0730 C   0  0  0  0  0  0  0  0  0  0  0  0
  141.7140   73.7730  217.0200 C   0  0  0  0  0  0  0  0  0  0  0  0
  142.8170   74.7120  216.6880 C   0  0  0  0  0  0  0  0  0  0  0  0
  143.0030   75.7970  217.7280 C   0  0  0  0  0  0  0  0  0  0  0  0
  142.7290   75.3110  219.1080 C   0  0  2  0  0  0  0  0  0  0  0  0
  143.5480   74.1760  219.5920 C   0  0  0  0  0  0  0  0  0  0  0  0
  142.7100   73.3320  220.5280 C   0  0  0  0  0  0  0  0  0  0  0  0
  143.5850   72.1320  220.8960 C   0  0  0  0  0  0  0  0  0  0  0  0
  144.9620   72.3130  220.4870 N   0  0  0  0  0  0  0  0  0  0  0  0
  145.5250   73.5810  220.8410 C   0  0  0  0  0  0  0  0  0  0  0  0
  144.6460   74.7610  220.4780 C   0  0  0  0  0  0  0  0  0  0  0  0
  139.8410   71.9020  222.8650 C   0  0  0  0  0  0  0  0  0  0  0  0
  139.4460   70.6070  222.5990 C   0  0  0  0  0  0  0  0  0  0  0  0
  139.5540   69.6440  223.5810 C   0  0  0  0  0  0  0  0  0  0  0  0
  140.0660   70.0480  224.8130 C   0  0  0  0  0  0  0  0  0  0  0  0
  140.1860   69.1080  225.8180 C   0  0  0  0  0  0  0  0  0  0  0  0
  140.6910   69.4480  227.0770 C   0  0  0  0  0  0  0  0  0  0  0  0
  140.8300   68.2250  228.3350 Cl  0  0  0  0  0  0  0  0  0  0  0  0
  141.0750   70.7520  227.3090 C   0  0  0  0  0  0  0  0  0  0  0  0
  140.9480   71.6760  226.2910 C   0  0  0  0  0  0  0  0  0  0  0  0
  140.4520   71.3630  225.0430 C   0  0  0  0  0  0  0  0  0  0  0  0
  140.3280   72.2660  224.0530 N   0  0  0  0  0  0  0  0  0  0  0  0
  139.5910   74.4850  223.1070 H   0  0  0  0  0  0  0  0  0  0  0  0
  138.7672   74.6412  220.2836 H   0  0  0  0  0  0  0  0  0  0  0  0
  139.1242   76.0865  221.4706 H   0  0  0  0  0  0  0  0  0  0  0  0
  140.3122   73.3406  218.5269 H   0  0  0  0  0  0  0  0  0  0  0  0
  140.0630   74.9004  217.5400 H   0  0  0  0  0  0  0  0  0  0  0  0
  142.1650   72.8308  217.3647 H   0  0  0  0  0  0  0  0  0  0  0  0
  141.1189   73.6738  216.1002 H   0  0  0  0  0  0  0  0  0  0  0  0
  143.7527   74.1393  216.6076 H   0  0  0  0  0  0  0  0  0  0  0  0
  142.5552   75.2056  215.7405 H   0  0  0  0  0  0  0  0  0  0  0  0
  144.0408   76.1586  217.6800 H   0  0  0  0  0  0  0  0  0  0  0  0
  142.2862   76.6014  217.5064 H   0  0  0  0  0  0  0  0  0  0  0  0
  143.0317   76.0834  219.8304 H   0  0  0  0  0  0  0  0  0  0  0  0
  143.9280   73.5962  218.7379 H   0  0  0  0  0  0  0  0  0  0  0  0
  142.4459   73.9051  221.4290 H   0  0  0  0  0  0  0  0  0  0  0  0
  141.7663   73.0183  220.0578 H   0  0  0  0  0  0  0  0  0  0  0  0
  143.5549   71.9929  221.9867 H   0  0  0  0  0  0  0  0  0  0  0  0
  143.1893   71.2514  220.3689 H   0  0  0  0  0  0  0  0  0  0  0  0
  145.5120   71.5810  220.9890 H   0  0  0  0  0  0  0  0  0  0  0  0
  145.6933   73.5949  221.9280 H   0  0  0  0  0  0  0  0  0  0  0  0
  146.4590   73.6885  220.2700 H   0  0  0  0  0  0  0  0  0  0  0  0
  144.2133   75.2138  221.3823 H   0  0  0  0  0  0  0  0  0  0  0  0
  145.2100   75.5557  219.9678 H   0  0  0  0  0  0  0  0  0  0  0  0
  139.0468   70.3436  221.6084 H   0  0  0  0  0  0  0  0  0  0  0  0
  139.2494   68.6027  223.3997 H   0  0  0  0  0  0  0  0  0  0  0  0
  139.8778   68.0700  225.6239 H   0  0  0  0  0  0  0  0  0  0  0  0
  141.4758   71.0510  228.2888 H   0  0  0  0  0  0  0  0  0  0  0  0
  141.2579   72.7134  226.4851 H   0  0  0  0  0  0  0  0  0  0  0  0
  1  2  2  0
  2  3  1  0
  3  4  1  0
  4  5  1  0
  5  6  2  0
  5  7  1  0
  7  8  1  0
  8  9  1  0
  9 10  1  0
 10 11  1  0
 11 12  1  0
 12 13  1  0
 13 14  1  0
 14 15  1  0
 15 16  1  0
 16 17  1  0
 17 18  1  0
  2 19  1  0
 19 20  2  0
 20 21  1  0
 21 22  2  0
 22 23  1  0
 23 24  2  0
 24 25  1  0
 24 26  1  0
 26 27  2  0
 27 28  1  0
 28 29  2  0
 12  7  1  0
 18 13  1  0
 29 19  1  0
 28 22  1  0
  3 30  1  0
  4 31  1  0
  4 32  1  0
  8 33  1  0
  8 34  1  0
  9 35  1  0
  9 36  1  0
 10 37  1  0
 10 38  1  0
 11 39  1  0
 11 40  1  0
 12 41  1  1
 13 42  1  0
 14 43  1  0
 14 44  1  0
 15 45  1  0
 15 46  1  0
 16 47  1  0
 17 48  1  0
 17 49  1  0
 18 50  1  0
 18 51  1  0
 20 52  1  0
 21 53  1  0
 23 54  1  0
 26 55  1  0
 27 56  1  0
M  END
>  <smiles>  (32) 
O=C(NCC(=O)N1CCCCC1C1CCNCC1)c1ccc2cc(Cl)ccc2n1

>  <score_type>  (32) 
oracle

>  <origin>  (32) 
autodockgpu

>  <m_score__min__energy>  (32) 
-8.6300000000000008

>  <m_primary>  (32) 
energy

>  <rmsd>  (32) 
2.003248448773951

>  <m_score__min__rmsd>  (32) 
2.003248448773951

>  <meeko>  (32) 
{"free_energy": -7.62, "intermolecular_energy": -9.11, "internal_energy": -2.1, "cluster_size": 18, "cluster_id": 2, "rank_in_cluster": 16}

>  <energy>  (32) 
-7.88

>  <cluster_rmsd>  (32) 
1.22

>  <cluster>  (32) 
2

$$$$

     RDKit          3D

 56 59  0  0  0  0  0  0  0  0999 V2000
  136.5490   77.6520  222.9100 O   0  0  0  0  0  0  0  0  0  0  0  0
  136.5330   76.4360  223.2340 C   0  0  0  0  0  0  0  0  0  0  0  0
  137.6130   75.5990  222.7340 N   0  0  0  0  0  0  0  0  0  0  0  0
  138.5750   76.2610  221.9260 C   0  0  0  0  0  0  0  0  0  0  0  0
  139.8350   75.6700  221.5720 C   0  0  0  0  0  0  0  0  0  0  0  0
  139.9650   74.4310  221.9920 O   0  0  0  0  0  0  0  0  0  0  0  0
  140.9580   76.1430  220.8680 N   0  0  0  0  0  0  0  0  0  0  0  0
  142.1340   75.4250  220.5250 C   0  0  0  0  0  0  0  0  0  0  0  0
  143.1900   76.1420  219.7470 C   0  0  0  0  0  0  0  0  0  0  0  0
  142.7020   77.1510  218.7710 C   0  0  0  0  0  0  0  0  0  0  0  0
  141.2590   77.5450  219.0010 C   0  0  0  0  0  0  0  0  0  0  0  0
  140.8990   77.5630  220.4460 C   0  0  2  0  0  0  0  0  0  0  0  0
  141.6840   78.4660  221.3180 C   0  0  0  0  0  0  0  0  0  0  0  0
  141.2270   78.2840  222.7490 C   0  0  0  0  0  0  0  0  0  0  0  0
  142.1520   79.1650  223.5930 C   0  0  0  0  0  0  0  0  0  0  0  0
  142.9420   80.0650  222.7790 N   0  0  0  0  0  0  0  0  0  0  0  0
  142.1960   80.7770  221.7870 C   0  0  0  0  0  0  0  0  0  0  0  0
  141.2800   79.8960  220.9630 C   0  0  0  0  0  0  0  0  0  0  0  0
  135.5000   75.8440  224.0730 C   0  0  0  0  0  0  0  0  0  0  0  0
  134.5560   76.7020  224.5990 C   0  0  0  0  0  0  0  0  0  0  0  0
  133.5500   76.2030  225.4010 C   0  0  0  0  0  0  0  0  0  0  0  0
  133.5490   74.8290  225.6370 C   0  0  0  0  0  0  0  0  0  0  0  0
  132.5560   74.2970  226.4360 C   0  0  0  0  0  0  0  0  0  0  0  0
  132.4980   72.9280  226.7130 C   0  0  0  0  0  0  0  0  0  0  0  0
  131.2180   72.2850  227.7350 Cl  0  0  0  0  0  0  0  0  0  0  0  0
  133.4580   72.1000  226.1710 C   0  0  0  0  0  0  0  0  0  0  0  0
  134.4410   72.6500  225.3740 C   0  0  0  0  0  0  0  0  0  0  0  0
  134.5180   73.9980  225.0890 C   0  0  0  0  0  0  0  0  0  0  0  0
  135.4790   74.5320  224.3130 N   0  0  0  0  0  0  0  0  0  0  0  0
  137.5510   74.6200  223.0300 H   0  0  0  0  0  0  0  0  0  0  0  0
  138.0689   76.4886  220.9762 H   0  0  0  0  0  0  0  0  0  0  0  0
  138.8929   77.0807  222.5870 H   0  0  0  0  0  0  0  0  0  0  0  0
  142.5943   75.0829  221.4637 H   0  0  0  0  0  0  0  0  0  0  0  0
  141.7847   74.6310  219.8486 H   0  0  0  0  0  0  0  0  0  0  0  0
  143.8468   76.6563  220.4641 H   0  0  0  0  0  0  0  0  0  0  0  0
  143.6970   75.3698  219.1498 H   0  0  0  0  0  0  0  0  0  0  0  0
  143.3288   78.0511  218.8540 H   0  0  0  0  0  0  0  0  0  0  0  0
  142.7645   76.6986  217.7703 H   0  0  0  0  0  0  0  0  0  0  0  0
  141.0963   78.5497  218.5838 H   0  0  0  0  0  0  0  0  0  0  0  0
  140.6237   76.7956  218.5063 H   0  0  0  0  0  0  0  0  0  0  0  0
  139.8994   78.0063  220.5650 H   0  0  0  0  0  0  0  0  0  0  0  0
  142.7585   78.2644  221.1962 H   0  0  0  0  0  0  0  0  0  0  0  0
  140.1815   78.6066  222.8619 H   0  0  0  0  0  0  0  0  0  0  0  0
  141.2743   77.2299  223.0599 H   0  0  0  0  0  0  0  0  0  0  0  0
  141.5393   79.7598  224.2864 H   0  0  0  0  0  0  0  0  0  0  0  0
  142.8443   78.5050  224.1363 H   0  0  0  0  0  0  0  0  0  0  0  0
  143.3390   80.7740  223.4350 H   0  0  0  0  0  0  0  0  0  0  0  0
  141.5831   81.5374  222.2932 H   0  0  0  0  0  0  0  0  0  0  0  0
  142.9258   81.2190  221.0927 H   0  0  0  0  0  0  0  0  0  0  0  0
  140.2278   80.0776  221.2274 H   0  0  0  0  0  0  0  0  0  0  0  0
  141.3726   80.0965  219.8854 H   0  0  0  0  0  0  0  0  0  0  0  0
  134.6051   77.7789  224.3800 H   0  0  0  0  0  0  0  0  0  0  0  0
  132.7825   76.8606  225.8351 H   0  0  0  0  0  0  0  0  0  0  0  0
  131.7941   74.9652  226.8638 H   0  0  0  0  0  0  0  0  0  0  0  0
  133.4406   71.0184  226.3707 H   0  0  0  0  0  0  0  0  0  0  0  0
  135.2010   71.9807  224.9445 H   0  0  0  0  0  0  0  0  0  0  0  0
  1  2  2  0
  2  3  1  0
  3  4  1  0
  4  5  1  0
  5  6  2  0
  5  7  1  0
  7  8  1  0
  8  9  1  0
  9 10  1  0
 10 11  1  0
 11 12  1  0
 12 13  1  0
 13 14  1  0
 14 15  1  0
 15 16  1  0
 16 17  1  0
 17 18  1  0
  2 19  1  0
 19 20  2  0
 20 21  1  0
 21 22  2  0
 22 23  1  0
 23 24  2  0
 24 25  1  0
 24 26  1  0
 26 27  2  0
 27 28  1  0
 28 29  2  0
 12  7  1  0
 18 13  1  0
 29 19  1  0
 28 22  1  0
  3 30  1  0
  4 31  1  0
  4 32  1  0
  8 33  1  0
  8 34  1  0
  9 35  1  0
  9 36  1  0
 10 37  1  0
 10 38  1  0
 11 39  1  0
 11 40  1  0
 12 41  1  6
 13 42  1  0
 14 43  1  0
 14 44  1  0
 15 45  1  0
 15 46  1  0
 16 47  1  0
 17 48  1  0
 17 49  1  0
 18 50  1  0
 18 51  1  0
 20 52  1  0
 21 53  1  0
 23 54  1  0
 26 55  1  0
 27 56  1  0
M  END
>  <smiles>  (33) 
O=C(NCC(=O)N1CCCCC1C1CCNCC1)c1ccc2cc(Cl)ccc2n1

>  <score_type>  (33) 
oracle

>  <origin>  (33) 
autodockgpu

>  <m_score__min__energy>  (33) 
-8.6300000000000008

>  <m_primary>  (33) 
energy

>  <rmsd>  (33) 
5.981061693390981

>  <m_score__min__rmsd>  (33) 
5.981061693390981

>  <meeko>  (33) 
{"free_energy": -7.49, "intermolecular_energy": -8.98, "internal_energy": -1.79, "cluster_size": 4, "cluster_id": 4, "rank_in_cluster": 4}

>  <energy>  (33) 
-7.85

>  <cluster_rmsd>  (33) 
0.4

>  <cluster>  (33) 
2

$$$$

     RDKit          3D

 56 59  0  0  0  0  0  0  0  0999 V2000
  136.5280   77.5890  222.8090 O   0  0  0  0  0  0  0  0  0  0  0  0
  136.5360   76.3830  223.1710 C   0  0  0  0  0  0  0  0  0  0  0  0
  137.6220   75.5480  222.6810 N   0  0  0  0  0  0  0  0  0  0  0  0
  138.5620   76.1990  221.8390 C   0  0  0  0  0  0  0  0  0  0  0  0
  139.8440   75.6390  221.5210 C   0  0  0  0  0  0  0  0  0  0  0  0
  140.0020   74.4130  221.9700 O   0  0  0  0  0  0  0  0  0  0  0  0
  140.9680   76.1290  220.8290 N   0  0  0  0  0  0  0  0  0  0  0  0
  142.1450   75.4210  220.4710 C   0  0  0  0  0  0  0  0  0  0  0  0
  143.2000   76.1570  219.7110 C   0  0  0  0  0  0  0  0  0  0  0  0
  142.7110   77.1870  218.7570 C   0  0  0  0  0  0  0  0  0  0  0  0
  141.2670   77.5730  218.9950 C   0  0  0  0  0  0  0  0  0  0  0  0
  140.9070   77.5580  220.4390 C   0  0  2  0  0  0  0  0  0  0  0  0
  141.6890   78.4430  221.3320 C   0  0  0  0  0  0  0  0  0  0  0  0
  141.2070   78.2540  222.7550 C   0  0  0  0  0  0  0  0  0  0  0  0
  142.1280   79.1140  223.6210 C   0  0  0  0  0  0  0  0  0  0  0  0
  142.9440   80.0110  222.8290 N   0  0  0  0  0  0  0  0  0  0  0  0
  142.2250   80.7420  221.8310 C   0  0  0  0  0  0  0  0  0  0  0  0
  141.3100   79.8810  220.9840 C   0  0  0  0  0  0  0  0  0  0  0  0
  135.5250   75.8020  224.0430 C   0  0  0  0  0  0  0  0  0  0  0  0
  134.6200   76.6730  224.6160 C   0  0  0  0  0  0  0  0  0  0  0  0
  133.6370   76.1830  225.4510 C   0  0  0  0  0  0  0  0  0  0  0  0
  133.6170   74.8070  225.6720 C   0  0  0  0  0  0  0  0  0  0  0  0
  132.6450   74.2860  226.5040 C   0  0  0  0  0  0  0  0  0  0  0  0
  132.5700   72.9150  226.7670 C   0  0  0  0  0  0  0  0  0  0  0  0
  131.3190   72.2850  227.8320 Cl  0  0  0  0  0  0  0  0  0  0  0  0
  133.4920   72.0740  226.1780 C   0  0  0  0  0  0  0  0  0  0  0  0
  134.4540   72.6150  225.3500 C   0  0  0  0  0  0  0  0  0  0  0  0
  134.5460   73.9640  225.0770 C   0  0  0  0  0  0  0  0  0  0  0  0
  135.4860   74.4880  224.2700 N   0  0  0  0  0  0  0  0  0  0  0  0
  137.5800   74.5780  223.0090 H   0  0  0  0  0  0  0  0  0  0  0  0
  138.0514   76.3534  220.8770 H   0  0  0  0  0  0  0  0  0  0  0  0
  138.8463   77.0653  222.4544 H   0  0  0  0  0  0  0  0  0  0  0  0
  142.6050   75.0582  221.4020 H   0  0  0  0  0  0  0  0  0  0  0  0
  141.7976   74.6420  219.7764 H   0  0  0  0  0  0  0  0  0  0  0  0
  143.8548   76.6563  220.4403 H   0  0  0  0  0  0  0  0  0  0  0  0
  143.7093   75.3994  219.0973 H   0  0  0  0  0  0  0  0  0  0  0  0
  143.3362   78.0861  218.8606 H   0  0  0  0  0  0  0  0  0  0  0  0
  142.7753   76.7575  217.7464 H   0  0  0  0  0  0  0  0  0  0  0  0
  141.1025   78.5865  218.6003 H   0  0  0  0  0  0  0  0  0  0  0  0
  140.6332   76.8337  218.4833 H   0  0  0  0  0  0  0  0  0  0  0  0
  139.9066   77.9971  220.5673 H   0  0  0  0  0  0  0  0  0  0  0  0
  142.7625   78.2282  221.2254 H   0  0  0  0  0  0  0  0  0  0  0  0
  140.1640   78.5889  222.8544 H   0  0  0  0  0  0  0  0  0  0  0  0
  141.2364   77.1966  223.0567 H   0  0  0  0  0  0  0  0  0  0  0  0
  141.5115   79.7107  224.3094 H   0  0  0  0  0  0  0  0  0  0  0  0
  142.8023   78.4398  224.1693 H   0  0  0  0  0  0  0  0  0  0  0  0
  143.3400   80.7090  223.4970 H   0  0  0  0  0  0  0  0  0  0  0  0
  141.6147   81.5069  222.3335 H   0  0  0  0  0  0  0  0  0  0  0  0
  142.9726   81.1792  221.1528 H   0  0  0  0  0  0  0  0  0  0  0  0
  140.2563   80.0746  221.2334 H   0  0  0  0  0  0  0  0  0  0  0  0
  141.4222   80.0901  219.9099 H   0  0  0  0  0  0  0  0  0  0  0  0
  134.6823   77.7514  224.4080 H   0  0  0  0  0  0  0  0  0  0  0  0
  132.9002   76.8501  225.9224 H   0  0  0  0  0  0  0  0  0  0  0  0
  131.9146   74.9642  226.9694 H   0  0  0  0  0  0  0  0  0  0  0  0
  133.4605   70.9905  226.3654 H   0  0  0  0  0  0  0  0  0  0  0  0
  135.1841   71.9367  224.8843 H   0  0  0  0  0  0  0  0  0  0  0  0
  1  2  2  0
  2  3  1  0
  3  4  1  0
  4  5  1  0
  5  6  2  0
  5  7  1  0
  7  8  1  0
  8  9  1  0
  9 10  1  0
 10 11  1  0
 11 12  1  0
 12 13  1  0
 13 14  1  0
 14 15  1  0
 15 16  1  0
 16 17  1  0
 17 18  1  0
  2 19  1  0
 19 20  2  0
 20 21  1  0
 21 22  2  0
 22 23  1  0
 23 24  2  0
 24 25  1  0
 24 26  1  0
 26 27  2  0
 27 28  1  0
 28 29  2  0
 12  7  1  0
 18 13  1  0
 29 19  1  0
 28 22  1  0
  3 30  1  0
  4 31  1  0
  4 32  1  0
  8 33  1  0
  8 34  1  0
  9 35  1  0
  9 36  1  0
 10 37  1  0
 10 38  1  0
 11 39  1  0
 11 40  1  0
 12 41  1  6
 13 42  1  0
 14 43  1  0
 14 44  1  0
 15 45  1  0
 15 46  1  0
 16 47  1  0
 17 48  1  0
 17 49  1  0
 18 50  1  0
 18 51  1  0
 20 52  1  0
 21 53  1  0
 23 54  1  0
 26 55  1  0
 27 56  1  0
M  END
>  <smiles>  (34) 
O=C(NCC(=O)N1CCCCC1C1CCNCC1)c1ccc2cc(Cl)ccc2n1

>  <score_type>  (34) 
oracle

>  <origin>  (34) 
autodockgpu

>  <m_score__min__energy>  (34) 
-8.6300000000000008

>  <m_primary>  (34) 
energy

>  <rmsd>  (34) 
5.940416917948203

>  <m_score__min__rmsd>  (34) 
5.940416917948203

>  <meeko>  (34) 
{"free_energy": -7.53, "intermolecular_energy": -9.03, "internal_energy": -1.79, "cluster_size": 4, "cluster_id": 4, "rank_in_cluster": 2}

>  <energy>  (34) 
-7.82

>  <cluster_rmsd>  (34) 
1.08

>  <cluster>  (34) 
2

$$$$

     RDKit          3D

 56 59  0  0  0  0  0  0  0  0999 V2000
  139.2570   76.0290  223.0950 O   0  0  0  0  0  0  0  0  0  0  0  0
  139.7230   75.9590  221.9270 C   0  0  0  0  0  0  0  0  0  0  0  0
  139.2750   76.9590  220.9700 N   0  0  0  0  0  0  0  0  0  0  0  0
  138.3500   77.9130  221.4710 C   0  0  0  0  0  0  0  0  0  0  0  0
  138.7470   79.2080  221.9480 C   0  0  0  0  0  0  0  0  0  0  0  0
  137.7320   80.0110  222.1800 O   0  0  0  0  0  0  0  0  0  0  0  0
  139.9970   79.7950  222.2200 N   0  0  0  0  0  0  0  0  0  0  0  0
  140.2540   81.0890  222.7460 C   0  0  0  0  0  0  0  0  0  0  0  0
  141.6770   81.4830  222.9700 C   0  0  0  0  0  0  0  0  0  0  0  0
  142.5950   80.3890  223.3820 C   0  0  0  0  0  0  0  0  0  0  0  0
  142.0180   79.0110  223.1370 C   0  0  0  0  0  0  0  0  0  0  0  0
  141.1800   78.9580  221.9070 C   0  0  2  0  0  0  0  0  0  0  0  0
  141.8390   79.3260  220.6340 C   0  0  0  0  0  0  0  0  0  0  0  0
  140.9620   80.3150  219.8970 C   0  0  0  0  0  0  0  0  0  0  0  0
  141.7550   80.7240  218.6540 C   0  0  0  0  0  0  0  0  0  0  0  0
  142.9060   79.8730  218.4350 N   0  0  0  0  0  0  0  0  0  0  0  0
  142.6320   78.4710  218.5210 C   0  0  0  0  0  0  0  0  0  0  0  0
  141.8400   78.0790  219.7520 C   0  0  0  0  0  0  0  0  0  0  0  0
  140.6730   74.9390  221.5040 C   0  0  0  0  0  0  0  0  0  0  0  0
  140.2770   73.6240  221.6380 C   0  0  0  0  0  0  0  0  0  0  0  0
  141.1330   72.6110  221.2540 C   0  0  0  0  0  0  0  0  0  0  0  0
  142.3740   72.9870  220.7440 C   0  0  0  0  0  0  0  0  0  0  0  0
  143.2530   71.9970  220.3510 C   0  0  0  0  0  0  0  0  0  0  0  0
  144.5140   72.3060  219.8310 C   0  0  0  0  0  0  0  0  0  0  0  0
  145.6090   71.0200  219.3410 Cl  0  0  0  0  0  0  0  0  0  0  0  0
  144.8760   73.6320  219.7130 C   0  0  0  0  0  0  0  0  0  0  0  0
  143.9830   74.6060  220.1100 C   0  0  0  0  0  0  0  0  0  0  0  0
  142.7350   74.3230  220.6260 C   0  0  0  0  0  0  0  0  0  0  0  0
  141.8670   75.2750  221.0130 N   0  0  0  0  0  0  0  0  0  0  0  0
  139.6880   76.8550  220.0380 H   0  0  0  0  0  0  0  0  0  0  0  0
  137.6321   78.0959  220.6579 H   0  0  0  0  0  0  0  0  0  0  0  0
  138.0137   77.4287  222.3996 H   0  0  0  0  0  0  0  0  0  0  0  0
  139.8182   81.8188  222.0478 H   0  0  0  0  0  0  0  0  0  0  0  0
  139.8116   81.0700  223.7529 H   0  0  0  0  0  0  0  0  0  0  0  0
  142.0606   81.9097  222.0315 H   0  0  0  0  0  0  0  0  0  0  0  0
  141.6614   82.1919  223.8110 H   0  0  0  0  0  0  0  0  0  0  0  0
  143.5314   80.4836  222.8125 H   0  0  0  0  0  0  0  0  0  0  0  0
  142.7619   80.4888  224.4647 H   0  0  0  0  0  0  0  0  0  0  0  0
  142.8461   78.2947  223.0316 H   0  0  0  0  0  0  0  0  0  0  0  0
  141.3745   78.7593  223.9929 H   0  0  0  0  0  0  0  0  0  0  0  0
  140.9210   77.9114  221.6889 H   0  0  0  0  0  0  0  0  0  0  0  0
  142.8426   79.7293  220.8342 H   0  0  0  0  0  0  0  0  0  0  0  0
  140.0113   79.8434  219.6076 H   0  0  0  0  0  0  0  0  0  0  0  0
  140.7131   81.1837  220.5243 H   0  0  0  0  0  0  0  0  0  0  0  0
  141.0953   80.6604  217.7761 H   0  0  0  0  0  0  0  0  0  0  0  0
  142.1185   81.7507  218.8081 H   0  0  0  0  0  0  0  0  0  0  0  0
  143.2260   80.0650  217.4600 H   0  0  0  0  0  0  0  0  0  0  0  0
  142.0589   78.1740  217.6303 H   0  0  0  0  0  0  0  0  0  0  0  0
  143.6025   77.9574  218.5864 H   0  0  0  0  0  0  0  0  0  0  0  0
  140.8124   77.7985  219.4776 H   0  0  0  0  0  0  0  0  0  0  0  0
  142.2769   77.2098  220.2653 H   0  0  0  0  0  0  0  0  0  0  0  0
  139.2850   73.3841  222.0484 H   0  0  0  0  0  0  0  0  0  0  0  0
  140.8476   71.5527  221.3467 H   0  0  0  0  0  0  0  0  0  0  0  0
  142.9549   70.9427  220.4491 H   0  0  0  0  0  0  0  0  0  0  0  0
  145.8610   73.9084  219.3088 H   0  0  0  0  0  0  0  0  0  0  0  0
  144.2807   75.6602  220.0102 H   0  0  0  0  0  0  0  0  0  0  0  0
  1  2  2  0
  2  3  1  0
  3  4  1  0
  4  5  1  0
  5  6  2  0
  5  7  1  0
  7  8  1  0
  8  9  1  0
  9 10  1  0
 10 11  1  0
 11 12  1  0
 12 13  1  0
 13 14  1  0
 14 15  1  0
 15 16  1  0
 16 17  1  0
 17 18  1  0
  2 19  1  0
 19 20  2  0
 20 21  1  0
 21 22  2  0
 22 23  1  0
 23 24  2  0
 24 25  1  0
 24 26  1  0
 26 27  2  0
 27 28  1  0
 28 29  2  0
 12  7  1  0
 18 13  1  0
 29 19  1  0
 28 22  1  0
  3 30  1  0
  4 31  1  0
  4 32  1  0
  8 33  1  0
  8 34  1  0
  9 35  1  0
  9 36  1  0
 10 37  1  0
 10 38  1  0
 11 39  1  0
 11 40  1  0
 12 41  1  6
 13 42  1  0
 14 43  1  0
 14 44  1  0
 15 45  1  0
 15 46  1  0
 16 47  1  0
 17 48  1  0
 17 49  1  0
 18 50  1  0
 18 51  1  0
 20 52  1  0
 21 53  1  0
 23 54  1  0
 26 55  1  0
 27 56  1  0
M  END
>  <smiles>  (35) 
O=C(NCC(=O)N1CCCCC1C1CCNCC1)c1ccc2cc(Cl)ccc2n1

>  <score_type>  (35) 
oracle

>  <origin>  (35) 
autodockgpu

>  <m_score__min__energy>  (35) 
-8.6300000000000008

>  <m_primary>  (35) 
energy

>  <rmsd>  (35) 
6.456456919692399

>  <m_score__min__rmsd>  (35) 
6.456456919692399

>  <meeko>  (35) 
{"free_energy": -6.96, "intermolecular_energy": -8.46, "internal_energy": -2.03, "cluster_size": 1, "cluster_id": 6, "rank_in_cluster": 1}

>  <energy>  (35) 
-7.68

>  <cluster_rmsd>  (35) 
0.64

>  <cluster>  (35) 
2

$$$$

     RDKit          3D

 56 59  0  0  0  0  0  0  0  0999 V2000
  139.6530   72.2660  220.6680 O   0  0  0  0  0  0  0  0  0  0  0  0
  139.6950   72.6630  221.8620 C   0  0  0  0  0  0  0  0  0  0  0  0
  139.5660   74.0940  222.0920 N   0  0  0  0  0  0  0  0  0  0  0  0
  139.4070   74.8890  220.9270 C   0  0  0  0  0  0  0  0  0  0  0  0
  140.4640   75.6900  220.3780 C   0  0  0  0  0  0  0  0  0  0  0  0
  140.6100   76.8470  220.9860 O   0  0  0  0  0  0  0  0  0  0  0  0
  141.3780   75.4930  219.3260 N   0  0  0  0  0  0  0  0  0  0  0  0
  141.0880   75.2200  217.9630 C   0  0  0  0  0  0  0  0  0  0  0  0
  142.2370   75.0710  217.0190 C   0  0  0  0  0  0  0  0  0  0  0  0
  143.4220   75.9220  217.3040 C   0  0  0  0  0  0  0  0  0  0  0  0
  143.4090   76.5040  218.7010 C   0  0  0  0  0  0  0  0  0  0  0  0
  142.8110   75.5740  219.6980 C   0  0  2  0  0  0  0  0  0  0  0  0
  143.4540   74.2480  219.8440 C   0  0  0  0  0  0  0  0  0  0  0  0
  142.6510   73.4200  220.8240 C   0  0  0  0  0  0  0  0  0  0  0  0
  143.3140   72.0410  220.8380 C   0  0  0  0  0  0  0  0  0  0  0  0
  144.5960   72.0430  220.1670 N   0  0  0  0  0  0  0  0  0  0  0  0
  145.4640   73.1150  220.5490 C   0  0  0  0  0  0  0  0  0  0  0  0
  144.7960   74.4750  220.5380 C   0  0  0  0  0  0  0  0  0  0  0  0
  139.8610   71.7680  222.9980 C   0  0  0  0  0  0  0  0  0  0  0  0
  139.5070   70.4480  222.8100 C   0  0  0  0  0  0  0  0  0  0  0  0
  139.6420   69.5490  223.8480 C   0  0  0  0  0  0  0  0  0  0  0  0
  140.1400   70.0410  225.0530 C   0  0  0  0  0  0  0  0  0  0  0  0
  140.2870   69.1670  226.1130 C   0  0  0  0  0  0  0  0  0  0  0  0
  140.7810   69.5970  227.3480 C   0  0  0  0  0  0  0  0  0  0  0  0
  140.9550   68.4560  228.6770 Cl  0  0  0  0  0  0  0  0  0  0  0  0
  141.1240   70.9240  227.5020 C   0  0  0  0  0  0  0  0  0  0  0  0
  140.9700   71.7800  226.4310 C   0  0  0  0  0  0  0  0  0  0  0  0
  140.4850   71.3780  225.2040 C   0  0  0  0  0  0  0  0  0  0  0  0
  140.3350   72.2160  224.1620 N   0  0  0  0  0  0  0  0  0  0  0  0
  139.6050   74.3600  223.0810 H   0  0  0  0  0  0  0  0  0  0  0  0
  139.1037   74.1975  220.1271 H   0  0  0  0  0  0  0  0  0  0  0  0
  138.7067   75.6602  221.2802 H   0  0  0  0  0  0  0  0  0  0  0  0
  140.5148   74.2817  217.9318 H   0  0  0  0  0  0  0  0  0  0  0  0
  140.5557   76.1156  217.6099 H   0  0  0  0  0  0  0  0  0  0  0  0
  142.5616   74.0203  217.0454 H   0  0  0  0  0  0  0  0  0  0  0  0
  141.8625   75.3986  216.0380 H   0  0  0  0  0  0  0  0  0  0  0  0
  144.3290   75.3107  217.1872 H   0  0  0  0  0  0  0  0  0  0  0  0
  143.4008   76.7638  216.5963 H   0  0  0  0  0  0  0  0  0  0  0  0
  144.4438   76.7256  219.0010 H   0  0  0  0  0  0  0  0  0  0  0  0
  142.7918   77.4143  218.6793 H   0  0  0  0  0  0  0  0  0  0  0  0
  142.9718   75.9745  220.7098 H   0  0  0  0  0  0  0  0  0  0  0  0
  143.5386   73.7612  218.8612 H   0  0  0  0  0  0  0  0  0  0  0  0
  142.6842   73.8722  221.8262 H   0  0  0  0  0  0  0  0  0  0  0  0
  141.5918   73.3594  220.5334 H   0  0  0  0  0  0  0  0  0  0  0  0
  143.4616   71.7297  221.8827 H   0  0  0  0  0  0  0  0  0  0  0  0
  142.6536   71.3438  220.3015 H   0  0  0  0  0  0  0  0  0  0  0  0
  145.0680   71.1520  220.4410 H   0  0  0  0  0  0  0  0  0  0  0  0
  145.8323   72.9175  221.5665 H   0  0  0  0  0  0  0  0  0  0  0  0
  146.2757   73.1503  219.8075 H   0  0  0  0  0  0  0  0  0  0  0  0
  144.6441   74.8399  221.5645 H   0  0  0  0  0  0  0  0  0  0  0  0
  145.4059   75.2318  220.0229 H   0  0  0  0  0  0  0  0  0  0  0  0
  139.1187   70.1135  221.8367 H   0  0  0  0  0  0  0  0  0  0  0  0
  139.3685   68.4902  223.7295 H   0  0  0  0  0  0  0  0  0  0  0  0
  140.0095   68.1106  225.9823 H   0  0  0  0  0  0  0  0  0  0  0  0
  141.5136   71.2935  228.4621 H   0  0  0  0  0  0  0  0  0  0  0  0
  141.2480   72.8362  226.5623 H   0  0  0  0  0  0  0  0  0  0  0  0
  1  2  2  0
  2  3  1  0
  3  4  1  0
  4  5  1  0
  5  6  2  0
  5  7  1  0
  7  8  1  0
  8  9  1  0
  9 10  1  0
 10 11  1  0
 11 12  1  0
 12 13  1  0
 13 14  1  0
 14 15  1  0
 15 16  1  0
 16 17  1  0
 17 18  1  0
  2 19  1  0
 19 20  2  0
 20 21  1  0
 21 22  2  0
 22 23  1  0
 23 24  2  0
 24 25  1  0
 24 26  1  0
 26 27  2  0
 27 28  1  0
 28 29  2  0
 12  7  1  0
 18 13  1  0
 29 19  1  0
 28 22  1  0
  3 30  1  0
  4 31  1  0
  4 32  1  0
  8 33  1  0
  8 34  1  0
  9 35  1  0
  9 36  1  0
 10 37  1  0
 10 38  1  0
 11 39  1  0
 11 40  1  0
 12 41  1  1
 13 42  1  0
 14 43  1  0
 14 44  1  0
 15 45  1  0
 15 46  1  0
 16 47  1  0
 17 48  1  0
 17 49  1  0
 18 50  1  0
 18 51  1  0
 20 52  1  0
 21 53  1  0
 23 54  1  0
 26 55  1  0
 27 56  1  0
M  END
>  <smiles>  (36) 
O=C(NCC(=O)N1CCCCC1C1CCNCC1)c1ccc2cc(Cl)ccc2n1

>  <score_type>  (36) 
oracle

>  <origin>  (36) 
autodockgpu

>  <m_score__min__energy>  (36) 
-8.6300000000000008

>  <m_primary>  (36) 
energy

>  <rmsd>  (36) 
1.9164022471419933

>  <m_score__min__rmsd>  (36) 
1.9164022471419933

>  <meeko>  (36) 
{"free_energy": -7.85, "intermolecular_energy": -9.34, "internal_energy": -2.06, "cluster_size": 18, "cluster_id": 2, "rank_in_cluster": 13}

>  <energy>  (36) 
-7.62

>  <cluster_rmsd>  (36) 
0.63

>  <cluster>  (36) 
2

$$$$

     RDKit          3D

 56 59  0  0  0  0  0  0  0  0999 V2000
  139.8490   72.5470  220.6070 O   0  0  0  0  0  0  0  0  0  0  0  0
  139.7960   72.8670  221.8230 C   0  0  0  0  0  0  0  0  0  0  0  0
  139.6170   74.2770  222.1340 N   0  0  0  0  0  0  0  0  0  0  0  0
  139.5220   75.1430  221.0130 C   0  0  0  0  0  0  0  0  0  0  0  0
  140.6560   75.5130  220.2150 C   0  0  0  0  0  0  0  0  0  0  0  0
  141.1850   76.6650  220.5650 O   0  0  0  0  0  0  0  0  0  0  0  0
  141.3200   74.8990  219.1370 N   0  0  0  0  0  0  0  0  0  0  0  0
  140.7690   74.0330  218.1560 C   0  0  0  0  0  0  0  0  0  0  0  0
  141.6770   73.5190  217.0860 C   0  0  0  0  0  0  0  0  0  0  0  0
  142.7480   74.4500  216.6440 C   0  0  0  0  0  0  0  0  0  0  0  0
  142.9680   75.5960  217.6080 C   0  0  0  0  0  0  0  0  0  0  0  0
  142.7700   75.1910  219.0260 C   0  0  2  0  0  0  0  0  0  0  0  0
  143.6280   74.0970  219.5350 C   0  0  0  0  0  0  0  0  0  0  0  0
  142.8030   73.2080  220.4400 C   0  0  0  0  0  0  0  0  0  0  0  0
  143.7260   72.0520  220.8350 C   0  0  0  0  0  0  0  0  0  0  0  0
  145.1050   72.3050  220.4730 N   0  0  0  0  0  0  0  0  0  0  0  0
  145.5900   73.5970  220.8480 C   0  0  0  0  0  0  0  0  0  0  0  0
  144.6650   74.7330  220.4580 C   0  0  0  0  0  0  0  0  0  0  0  0
  139.9030   71.9030  222.9100 C   0  0  0  0  0  0  0  0  0  0  0  0
  139.4940   70.6130  222.6420 C   0  0  0  0  0  0  0  0  0  0  0  0
  139.5710   69.6530  223.6300 C   0  0  0  0  0  0  0  0  0  0  0  0
  140.0690   70.0540  224.8680 C   0  0  0  0  0  0  0  0  0  0  0  0
  140.1590   69.1170  225.8790 C   0  0  0  0  0  0  0  0  0  0  0  0
  140.6500   69.4540  227.1440 C   0  0  0  0  0  0  0  0  0  0  0  0
  140.7500   68.2350  228.4090 Cl  0  0  0  0  0  0  0  0  0  0  0  0
  141.0490   70.7540  227.3770 C   0  0  0  0  0  0  0  0  0  0  0  0
  140.9520   71.6750  226.3540 C   0  0  0  0  0  0  0  0  0  0  0  0
  140.4710   71.3640  225.0990 C   0  0  0  0  0  0  0  0  0  0  0  0
  140.3770   72.2640  224.1030 N   0  0  0  0  0  0  0  0  0  0  0  0
  139.5790   74.4790  223.1380 H   0  0  0  0  0  0  0  0  0  0  0  0
  138.8073   74.6697  220.3236 H   0  0  0  0  0  0  0  0  0  0  0  0
  139.2685   76.0994  221.4936 H   0  0  0  0  0  0  0  0  0  0  0  0
  140.3580   73.1598  218.6839 H   0  0  0  0  0  0  0  0  0  0  0  0
  140.0364   74.6546  217.6203 H   0  0  0  0  0  0  0  0  0  0  0  0
  142.1589   72.6047  217.4627 H   0  0  0  0  0  0  0  0  0  0  0  0
  141.0388   73.3578  216.2047 H   0  0  0  0  0  0  0  0  0  0  0  0
  143.6872   73.8852  216.5502 H   0  0  0  0  0  0  0  0  0  0  0  0
  142.4327   74.8831  215.6833 H   0  0  0  0  0  0  0  0  0  0  0  0
  143.9965   75.9668  217.4869 H   0  0  0  0  0  0  0  0  0  0  0  0
  142.2280   76.3761  217.3758 H   0  0  0  0  0  0  0  0  0  0  0  0
  143.0967   76.0091  219.6848 H   0  0  0  0  0  0  0  0  0  0  0  0
  144.0649   73.5401  218.6930 H   0  0  0  0  0  0  0  0  0  0  0  0
  142.4797   73.7634  221.3328 H   0  0  0  0  0  0  0  0  0  0  0  0
  141.8929   72.8485  219.9375 H   0  0  0  0  0  0  0  0  0  0  0  0
  143.6664   71.9072  221.9238 H   0  0  0  0  0  0  0  0  0  0  0  0
  143.3938   71.1543  220.2930 H   0  0  0  0  0  0  0  0  0  0  0  0
  145.6740   71.5990  220.9910 H   0  0  0  0  0  0  0  0  0  0  0  0
  145.7207   73.6152  221.9401 H   0  0  0  0  0  0  0  0  0  0  0  0
  146.5359   73.7537  220.3089 H   0  0  0  0  0  0  0  0  0  0  0  0
  144.1803   75.1603  221.3482 H   0  0  0  0  0  0  0  0  0  0  0  0
  145.2050   75.5568  219.9683 H   0  0  0  0  0  0  0  0  0  0  0  0
  139.1084   70.3511  221.6456 H   0  0  0  0  0  0  0  0  0  0  0  0
  139.2529   68.6158  223.4482 H   0  0  0  0  0  0  0  0  0  0  0  0
  139.8374   68.0832  225.6846 H   0  0  0  0  0  0  0  0  0  0  0  0
  141.4380   71.0514  228.3620 H   0  0  0  0  0  0  0  0  0  0  0  0
  141.2742   72.7085  226.5489 H   0  0  0  0  0  0  0  0  0  0  0  0
  1  2  2  0
  2  3  1  0
  3  4  1  0
  4  5  1  0
  5  6  2  0
  5  7  1  0
  7  8  1  0
  8  9  1  0
  9 10  1  0
 10 11  1  0
 11 12  1  0
 12 13  1  0
 13 14  1  0
 14 15  1  0
 15 16  1  0
 16 17  1  0
 17 18  1  0
  2 19  1  0
 19 20  2  0
 20 21  1  0
 21 22  2  0
 22 23  1  0
 23 24  2  0
 24 25  1  0
 24 26  1  0
 26 27  2  0
 27 28  1  0
 28 29  2  0
 12  7  1  0
 18 13  1  0
 29 19  1  0
 28 22  1  0
  3 30  1  0
  4 31  1  0
  4 32  1  0
  8 33  1  0
  8 34  1  0
  9 35  1  0
  9 36  1  0
 10 37  1  0
 10 38  1  0
 11 39  1  0
 11 40  1  0
 12 41  1  1
 13 42  1  0
 14 43  1  0
 14 44  1  0
 15 45  1  0
 15 46  1  0
 16 47  1  0
 17 48  1  0
 17 49  1  0
 18 50  1  0
 18 51  1  0
 20 52  1  0
 21 53  1  0
 23 54  1  0
 26 55  1  0
 27 56  1  0
M  END
>  <smiles>  (37) 
O=C(NCC(=O)N1CCCCC1C1CCNCC1)c1ccc2cc(Cl)ccc2n1

>  <score_type>  (37) 
oracle

>  <origin>  (37) 
autodockgpu

>  <m_score__min__energy>  (37) 
-8.6300000000000008

>  <m_primary>  (37) 
energy

>  <rmsd>  (37) 
2.0563565758502773

>  <m_score__min__rmsd>  (37) 
2.0563565758502773

>  <meeko>  (37) 
{"free_energy": -7.68, "intermolecular_energy": -9.17, "internal_energy": -2.05, "cluster_size": 18, "cluster_id": 2, "rank_in_cluster": 15}

>  <energy>  (37) 
-7.57

>  <cluster_rmsd>  (37) 
0.75

>  <cluster>  (37) 
2

$$$$

     RDKit          3D

 56 59  0  0  0  0  0  0  0  0999 V2000
  140.8360   72.8400  221.1830 O   0  0  0  0  0  0  0  0  0  0  0  0
  139.9850   72.8090  222.1110 C   0  0  0  0  0  0  0  0  0  0  0  0
  138.9090   73.7870  222.0600 N   0  0  0  0  0  0  0  0  0  0  0  0
  138.9420   74.6760  220.9530 C   0  0  0  0  0  0  0  0  0  0  0  0
  139.5320   75.9830  221.0200 C   0  0  0  0  0  0  0  0  0  0  0  0
  138.8260   76.8370  221.7280 O   0  0  0  0  0  0  0  0  0  0  0  0
  140.7100   76.5390  220.4860 N   0  0  0  0  0  0  0  0  0  0  0  0
  141.8610   75.8530  220.0180 C   0  0  0  0  0  0  0  0  0  0  0  0
  142.9870   76.6680  219.4690 C   0  0  0  0  0  0  0  0  0  0  0  0
  142.5970   77.9080  218.7480 C   0  0  0  0  0  0  0  0  0  0  0  0
  141.1670   78.3240  219.0210 C   0  0  0  0  0  0  0  0  0  0  0  0
  140.7440   78.0200  220.4150 C   0  0  2  0  0  0  0  0  0  0  0  0
  141.5340   78.6400  221.5030 C   0  0  0  0  0  0  0  0  0  0  0  0
  140.8880   78.3050  222.8300 C   0  0  0  0  0  0  0  0  0  0  0  0
  141.8150   78.8870  223.8990 C   0  0  0  0  0  0  0  0  0  0  0  0
  142.8130   79.7710  223.3350 N   0  0  0  0  0  0  0  0  0  0  0  0
  142.2970   80.7390  222.4160 C   0  0  0  0  0  0  0  0  0  0  0  0
  141.3750   80.1530  221.3670 C   0  0  0  0  0  0  0  0  0  0  0  0
  140.0330   71.8550  223.2100 C   0  0  0  0  0  0  0  0  0  0  0  0
  139.5450   70.5900  222.9590 C   0  0  0  0  0  0  0  0  0  0  0  0
  139.5630   69.6390  223.9590 C   0  0  0  0  0  0  0  0  0  0  0  0
  140.0860   70.0250  225.1920 C   0  0  0  0  0  0  0  0  0  0  0  0
  140.1180   69.0970  226.2150 C   0  0  0  0  0  0  0  0  0  0  0  0
  140.6290   69.4200  227.4760 C   0  0  0  0  0  0  0  0  0  0  0  0
  140.6540   68.2140  228.7560 Cl  0  0  0  0  0  0  0  0  0  0  0  0
  141.1080   70.6950  227.6920 C   0  0  0  0  0  0  0  0  0  0  0  0
  141.0680   71.6070  226.6570 C   0  0  0  0  0  0  0  0  0  0  0  0
  140.5680   71.3100  225.4060 C   0  0  0  0  0  0  0  0  0  0  0  0
  140.5280   72.2020  224.3990 N   0  0  0  0  0  0  0  0  0  0  0  0
  138.2460   73.7150  222.8380 H   0  0  0  0  0  0  0  0  0  0  0  0
  139.4748   74.1432  220.1516 H   0  0  0  0  0  0  0  0  0  0  0  0
  137.8761   74.9203  220.8337 H   0  0  0  0  0  0  0  0  0  0  0  0
  142.2598   75.2696  220.8610 H   0  0  0  0  0  0  0  0  0  0  0  0
  141.5018   75.2661  219.1598 H   0  0  0  0  0  0  0  0  0  0  0  0
  143.6359   76.9561  220.3091 H   0  0  0  0  0  0  0  0  0  0  0  0
  143.4802   76.0301  218.7208 H   0  0  0  0  0  0  0  0  0  0  0  0
  143.2657   78.7224  219.0636 H   0  0  0  0  0  0  0  0  0  0  0  0
  142.6810   77.7033  217.6705 H   0  0  0  0  0  0  0  0  0  0  0  0
  141.0759   79.4072  218.8525 H   0  0  0  0  0  0  0  0  0  0  0  0
  140.5164   77.7542  218.3413 H   0  0  0  0  0  0  0  0  0  0  0  0
  139.7644   78.4829  220.6048 H   0  0  0  0  0  0  0  0  0  0  0  0
  142.5777   78.2964  221.4511 H   0  0  0  0  0  0  0  0  0  0  0  0
  139.8899   78.7625  222.8973 H   0  0  0  0  0  0  0  0  0  0  0  0
  140.7544   77.2203  222.9547 H   0  0  0  0  0  0  0  0  0  0  0  0
  141.2098   79.4522  224.6231 H   0  0  0  0  0  0  0  0  0  0  0  0
  142.3399   78.0501  224.3827 H   0  0  0  0  0  0  0  0  0  0  0  0
  143.2220   80.2970  224.1390 H   0  0  0  0  0  0  0  0  0  0  0  0
  141.7377   81.4953  222.9862 H   0  0  0  0  0  0  0  0  0  0  0  0
  143.1588   81.1670  221.8830 H   0  0  0  0  0  0  0  0  0  0  0  0
  140.3334   80.4511  221.5575 H   0  0  0  0  0  0  0  0  0  0  0  0
  141.6230   80.5056  220.3550 H   0  0  0  0  0  0  0  0  0  0  0  0
  139.1431   70.3399  221.9661 H   0  0  0  0  0  0  0  0  0  0  0  0
  139.1814   68.6212  223.7904 H   0  0  0  0  0  0  0  0  0  0  0  0
  139.7333   68.0825  226.0337 H   0  0  0  0  0  0  0  0  0  0  0  0
  141.5153   70.9804  228.6732 H   0  0  0  0  0  0  0  0  0  0  0  0
  141.4539   72.6210  226.8385 H   0  0  0  0  0  0  0  0  0  0  0  0
  1  2  2  0
  2  3  1  0
  3  4  1  0
  4  5  1  0
  5  6  2  0
  5  7  1  0
  7  8  1  0
  8  9  1  0
  9 10  1  0
 10 11  1  0
 11 12  1  0
 12 13  1  0
 13 14  1  0
 14 15  1  0
 15 16  1  0
 16 17  1  0
 17 18  1  0
  2 19  1  0
 19 20  2  0
 20 21  1  0
 21 22  2  0
 22 23  1  0
 23 24  2  0
 24 25  1  0
 24 26  1  0
 26 27  2  0
 27 28  1  0
 28 29  2  0
 12  7  1  0
 18 13  1  0
 29 19  1  0
 28 22  1  0
  3 30  1  0
  4 31  1  0
  4 32  1  0
  8 33  1  0
  8 34  1  0
  9 35  1  0
  9 36  1  0
 10 37  1  0
 10 38  1  0
 11 39  1  0
 11 40  1  0
 12 41  1  6
 13 42  1  0
 14 43  1  0
 14 44  1  0
 15 45  1  0
 15 46  1  0
 16 47  1  0
 17 48  1  0
 17 49  1  0
 18 50  1  0
 18 51  1  0
 20 52  1  0
 21 53  1  0
 23 54  1  0
 26 55  1  0
 27 56  1  0
M  END
>  <smiles>  (38) 
O=C(NCC(=O)N1CCCCC1C1CCNCC1)c1ccc2cc(Cl)ccc2n1

>  <score_type>  (38) 
oracle

>  <origin>  (38) 
autodockgpu

>  <m_score__min__energy>  (38) 
-8.6300000000000008

>  <m_primary>  (38) 
energy

>  <rmsd>  (38) 
2.0358311683150982

>  <m_score__min__rmsd>  (38) 
2.0358311683150982

>  <meeko>  (38) 
{"free_energy": -8.63, "intermolecular_energy": -10.12, "internal_energy": -1.34, "cluster_size": 20, "cluster_id": 1, "rank_in_cluster": 1}

>  <energy>  (38) 
-7.35

>  <cluster_rmsd>  (38) 
0.84

>  <cluster>  (38) 
2

$$$$

     RDKit          3D

 56 59  0  0  0  0  0  0  0  0999 V2000
  137.6840   78.7990  220.8510 O   0  0  0  0  0  0  0  0  0  0  0  0
  137.7390   78.8750  222.1060 C   0  0  0  0  0  0  0  0  0  0  0  0
  138.1040   77.6670  222.8310 N   0  0  0  0  0  0  0  0  0  0  0  0
  138.3590   76.5250  222.0260 C   0  0  0  0  0  0  0  0  0  0  0  0
  139.6850   76.0700  221.7170 C   0  0  0  0  0  0  0  0  0  0  0  0
  139.9610   74.8880  222.2220 O   0  0  0  0  0  0  0  0  0  0  0  0
  140.7500   76.6270  220.9840 N   0  0  0  0  0  0  0  0  0  0  0  0
  141.8960   75.9610  220.4750 C   0  0  0  0  0  0  0  0  0  0  0  0
  142.8880   76.7680  219.7010 C   0  0  0  0  0  0  0  0  0  0  0  0
  142.3250   77.8730  218.8810 C   0  0  0  0  0  0  0  0  0  0  0  0
  140.9040   78.2260  219.2640 C   0  0  0  0  0  0  0  0  0  0  0  0
  140.6580   78.0840  220.7250 C   0  0  2  0  0  0  0  0  0  0  0  0
  141.5070   78.8940  221.6280 C   0  0  0  0  0  0  0  0  0  0  0  0
  141.1560   78.5610  223.0620 C   0  0  0  0  0  0  0  0  0  0  0  0
  142.1420   79.3520  223.9230 C   0  0  0  0  0  0  0  0  0  0  0  0
  142.8740   80.3350  223.1530 N   0  0  0  0  0  0  0  0  0  0  0  0
  142.0610   81.1450  222.2980 C   0  0  0  0  0  0  0  0  0  0  0  0
  141.0840   80.3510  221.4540 C   0  0  0  0  0  0  0  0  0  0  0  0
  137.4600   80.0970  222.8480 C   0  0  0  0  0  0  0  0  0  0  0  0
  137.3350   81.2580  222.1130 C   0  0  0  0  0  0  0  0  0  0  0  0
  137.0690   82.4490  222.7580 C   0  0  0  0  0  0  0  0  0  0  0  0
  136.9420   82.4060  224.1450 C   0  0  0  0  0  0  0  0  0  0  0  0
  136.6770   83.5820  224.8200 C   0  0  0  0  0  0  0  0  0  0  0  0
  136.5370   83.6070  226.2110 C   0  0  0  0  0  0  0  0  0  0  0  0
  136.2000   85.1230  227.0390 Cl  0  0  0  0  0  0  0  0  0  0  0  0
  136.6700   82.4280  226.9140 C   0  0  0  0  0  0  0  0  0  0  0  0
  136.9340   81.2650  226.2200 C   0  0  0  0  0  0  0  0  0  0  0  0
  137.0760   81.2160  224.8490 C   0  0  0  0  0  0  0  0  0  0  0  0
  137.3340   80.0810  224.1760 N   0  0  0  0  0  0  0  0  0  0  0  0
  138.1360   77.7870  223.8480 H   0  0  0  0  0  0  0  0  0  0  0  0
  137.8578   75.6830  222.5259 H   0  0  0  0  0  0  0  0  0  0  0  0
  138.0064   76.8651  221.0411 H   0  0  0  0  0  0  0  0  0  0  0  0
  142.4279   75.5228  221.3323 H   0  0  0  0  0  0  0  0  0  0  0  0
  141.4956   75.2422  219.7449 H   0  0  0  0  0  0  0  0  0  0  0  0
  143.5979   77.2073  220.4173 H   0  0  0  0  0  0  0  0  0  0  0  0
  143.3477   76.0699  218.9859 H   0  0  0  0  0  0  0  0  0  0  0  0
  142.9558   78.7645  219.0129 H   0  0  0  0  0  0  0  0  0  0  0  0
  142.3101   77.5331  217.8349 H   0  0  0  0  0  0  0  0  0  0  0  0
  140.7082   79.2684  218.9725 H   0  0  0  0  0  0  0  0  0  0  0  0
  140.2328   77.5284  218.7416 H   0  0  0  0  0  0  0  0  0  0  0  0
  139.6706   78.5035  220.9680 H   0  0  0  0  0  0  0  0  0  0  0  0
  142.5691   78.7105  221.4085 H   0  0  0  0  0  0  0  0  0  0  0  0
  140.1226   78.8651  223.2846 H   0  0  0  0  0  0  0  0  0  0  0  0
  141.2231   77.4804  223.2563 H   0  0  0  0  0  0  0  0  0  0  0  0
  141.5833   79.8686  224.7174 H   0  0  0  0  0  0  0  0  0  0  0  0
  142.8696   78.6415  224.3424 H   0  0  0  0  0  0  0  0  0  0  0  0
  143.3210   80.9730  223.8480 H   0  0  0  0  0  0  0  0  0  0  0  0
  141.4892   81.8456  222.9243 H   0  0  0  0  0  0  0  0  0  0  0  0
  142.7402   81.6609  221.6033 H   0  0  0  0  0  0  0  0  0  0  0  0
  140.0543   80.5002  221.8109 H   0  0  0  0  0  0  0  0  0  0  0  0
  141.0994   80.6632  220.3993 H   0  0  0  0  0  0  0  0  0  0  0  0
  137.4467   81.2346  221.0189 H   0  0  0  0  0  0  0  0  0  0  0  0
  136.9619   83.3915  222.2011 H   0  0  0  0  0  0  0  0  0  0  0  0
  136.5740   84.5180  224.2514 H   0  0  0  0  0  0  0  0  0  0  0  0
  136.5674   82.4150  228.0091 H   0  0  0  0  0  0  0  0  0  0  0  0
  137.0364   80.3293  226.7892 H   0  0  0  0  0  0  0  0  0  0  0  0
  1  2  2  0
  2  3  1  0
  3  4  1  0
  4  5  1  0
  5  6  2  0
  5  7  1  0
  7  8  1  0
  8  9  1  0
  9 10  1  0
 10 11  1  0
 11 12  1  0
 12 13  1  0
 13 14  1  0
 14 15  1  0
 15 16  1  0
 16 17  1  0
 17 18  1  0
  2 19  1  0
 19 20  2  0
 20 21  1  0
 21 22  2  0
 22 23  1  0
 23 24  2  0
 24 25  1  0
 24 26  1  0
 26 27  2  0
 27 28  1  0
 28 29  2  0
 12  7  1  0
 18 13  1  0
 29 19  1  0
 28 22  1  0
  3 30  1  0
  4 31  1  0
  4 32  1  0
  8 33  1  0
  8 34  1  0
  9 35  1  0
  9 36  1  0
 10 37  1  0
 10 38  1  0
 11 39  1  0
 11 40  1  0
 12 41  1  6
 13 42  1  0
 14 43  1  0
 14 44  1  0
 15 45  1  0
 15 46  1  0
 16 47  1  0
 17 48  1  0
 17 49  1  0
 18 50  1  0
 18 51  1  0
 20 52  1  0
 21 53  1  0
 23 54  1  0
 26 55  1  0
 27 56  1  0
M  END
>  <smiles>  (39) 
O=C(NCC(=O)N1CCCCC1C1CCNCC1)c1ccc2cc(Cl)ccc2n1

>  <score_type>  (39) 
oracle

>  <origin>  (39) 
autodockgpu

>  <m_score__min__energy>  (39) 
-8.6300000000000008

>  <m_primary>  (39) 
energy

>  <rmsd>  (39) 
8.805345359439755

>  <m_score__min__rmsd>  (39) 
8.805345359439755

>  <meeko>  (39) 
{"free_energy": -6.57, "intermolecular_energy": -8.06, "internal_energy": -2.51, "cluster_size": 2, "cluster_id": 8, "rank_in_cluster": 2}

>  <energy>  (39) 
-8.13

>  <cluster_rmsd>  (39) 
0.0

>  <cluster>  (39) 
3

$$$$

     RDKit          3D

 56 59  0  0  0  0  0  0  0  0999 V2000
  140.6340   72.5130  220.8020 O   0  0  0  0  0  0  0  0  0  0  0  0
  140.2390   72.8320  221.9540 C   0  0  0  0  0  0  0  0  0  0  0  0
  139.7950   74.2050  222.1500 N   0  0  0  0  0  0  0  0  0  0  0  0
  139.8620   75.0380  221.0020 C   0  0  0  0  0  0  0  0  0  0  0  0
  140.4430   76.3500  221.0240 C   0  0  0  0  0  0  0  0  0  0  0  0
  141.4190   76.5020  220.1550 O   0  0  0  0  0  0  0  0  0  0  0  0
  140.1850   77.5080  221.7810 N   0  0  0  0  0  0  0  0  0  0  0  0
  138.9990   77.8370  222.4890 C   0  0  0  0  0  0  0  0  0  0  0  0
  138.9700   79.1250  223.2460 C   0  0  0  0  0  0  0  0  0  0  0  0
  140.2600   79.5500  223.8500 C   0  0  0  0  0  0  0  0  0  0  0  0
  141.4510   78.8080  223.2800 C   0  0  0  0  0  0  0  0  0  0  0  0
  141.2870   78.4990  221.8330 C   0  0  2  0  0  0  0  0  0  0  0  0
  141.0830   79.6490  220.9230 C   0  0  0  0  0  0  0  0  0  0  0  0
  141.8100   79.3790  219.6230 C   0  0  0  0  0  0  0  0  0  0  0  0
  141.4650   80.5540  218.7050 C   0  0  0  0  0  0  0  0  0  0  0  0
  140.8220   81.6360  219.4210 N   0  0  0  0  0  0  0  0  0  0  0  0
  141.4740   82.0130  220.6380 C   0  0  0  0  0  0  0  0  0  0  0  0
  141.8160   80.8410  221.5350 C   0  0  0  0  0  0  0  0  0  0  0  0
  140.2060   71.9030  223.0750 C   0  0  0  0  0  0  0  0  0  0  0  0
  139.6680   70.6550  222.8360 C   0  0  0  0  0  0  0  0  0  0  0  0
  139.6100   69.7300  223.8580 C   0  0  0  0  0  0  0  0  0  0  0  0
  140.1080   70.1210  225.0990 C   0  0  0  0  0  0  0  0  0  0  0  0
  140.0630   69.2180  226.1430 C   0  0  0  0  0  0  0  0  0  0  0  0
  140.5450   69.5470  227.4130 C   0  0  0  0  0  0  0  0  0  0  0  0
  140.4720   68.3720  228.7200 Cl  0  0  0  0  0  0  0  0  0  0  0  0
  141.0750   70.8040  227.6170 C   0  0  0  0  0  0  0  0  0  0  0  0
  141.1110   71.6920  226.5610 C   0  0  0  0  0  0  0  0  0  0  0  0
  140.6410   71.3880  225.3000 C   0  0  0  0  0  0  0  0  0  0  0  0
  140.6760   72.2560  224.2730 N   0  0  0  0  0  0  0  0  0  0  0  0
  139.4830   74.4070  223.1040 H   0  0  0  0  0  0  0  0  0  0  0  0
  140.4246   74.4695  220.2468 H   0  0  0  0  0  0  0  0  0  0  0  0
  138.7998   75.2693  220.8342 H   0  0  0  0  0  0  0  0  0  0  0  0
  138.1788   77.8691  221.7567 H   0  0  0  0  0  0  0  0  0  0  0  0
  138.9163   77.0604  223.2636 H   0  0  0  0  0  0  0  0  0  0  0  0
  138.6446   79.9158  222.5541 H   0  0  0  0  0  0  0  0  0  0  0  0
  138.2850   78.9595  224.0906 H   0  0  0  0  0  0  0  0  0  0  0  0
  140.3960   80.6259  223.6660 H   0  0  0  0  0  0  0  0  0  0  0  0
  140.2123   79.3211  224.9249 H   0  0  0  0  0  0  0  0  0  0  0  0
  142.3493   79.4296  223.4090 H   0  0  0  0  0  0  0  0  0  0  0  0
  141.5410   77.8533  223.8190 H   0  0  0  0  0  0  0  0  0  0  0  0
  142.2362   78.1098  221.4360 H   0  0  0  0  0  0  0  0  0  0  0  0
  140.0073   79.8201  220.7697 H   0  0  0  0  0  0  0  0  0  0  0  0
  142.8957   79.3310  219.7933 H   0  0  0  0  0  0  0  0  0  0  0  0
  141.5101   78.4170  219.1819 H   0  0  0  0  0  0  0  0  0  0  0  0
  142.3922   80.9321  218.2496 H   0  0  0  0  0  0  0  0  0  0  0  0
  140.7630   80.1906  217.9401 H   0  0  0  0  0  0  0  0  0  0  0  0
  140.8550   82.4630  218.7850 H   0  0  0  0  0  0  0  0  0  0  0  0
  142.4060   82.5392  220.3839 H   0  0  0  0  0  0  0  0  0  0  0  0
  140.7707   82.6493  221.1952 H   0  0  0  0  0  0  0  0  0  0  0  0
  142.9017   80.6645  221.5437 H   0  0  0  0  0  0  0  0  0  0  0  0
  141.5178   81.0183  222.5789 H   0  0  0  0  0  0  0  0  0  0  0  0
  139.2875   70.3990  221.8362 H   0  0  0  0  0  0  0  0  0  0  0  0
  139.1884   68.7264  223.6997 H   0  0  0  0  0  0  0  0  0  0  0  0
  139.6385   68.2179  225.9712 H   0  0  0  0  0  0  0  0  0  0  0  0
  141.4625   71.0939  228.6048 H   0  0  0  0  0  0  0  0  0  0  0  0
  141.5356   72.6920  226.7334 H   0  0  0  0  0  0  0  0  0  0  0  0
  1  2  2  0
  2  3  1  0
  3  4  1  0
  4  5  1  0
  5  6  2  0
  5  7  1  0
  7  8  1  0
  8  9  1  0
  9 10  1  0
 10 11  1  0
 11 12  1  0
 12 13  1  0
 13 14  1  0
 14 15  1  0
 15 16  1  0
 16 17  1  0
 17 18  1  0
  2 19  1  0
 19 20  2  0
 20 21  1  0
 21 22  2  0
 22 23  1  0
 23 24  2  0
 24 25  1  0
 24 26  1  0
 26 27  2  0
 27 28  1  0
 28 29  2  0
 12  7  1  0
 18 13  1  0
 29 19  1  0
 28 22  1  0
  3 30  1  0
  4 31  1  0
  4 32  1  0
  8 33  1  0
  8 34  1  0
  9 35  1  0
  9 36  1  0
 10 37  1  0
 10 38  1  0
 11 39  1  0
 11 40  1  0
 12 41  1  6
 13 42  1  0
 14 43  1  0
 14 44  1  0
 15 45  1  0
 15 46  1  0
 16 47  1  0
 17 48  1  0
 17 49  1  0
 18 50  1  0
 18 51  1  0
 20 52  1  0
 21 53  1  0
 23 54  1  0
 26 55  1  0
 27 56  1  0
M  END
>  <smiles>  (40) 
O=C(NCC(=O)N1CCCCC1C1CCNCC1)c1ccc2cc(Cl)ccc2n1

>  <score_type>  (40) 
oracle

>  <origin>  (40) 
autodockgpu

>  <m_score__min__energy>  (40) 
-8.6300000000000008

>  <m_primary>  (40) 
energy

>  <rmsd>  (40) 
3.3776106790774945

>  <m_score__min__rmsd>  (40) 
3.3776106790774945

>  <meeko>  (40) 
{"free_energy": -8.36, "intermolecular_energy": -9.85, "internal_energy": -1.29, "cluster_size": 20, "cluster_id": 1, "rank_in_cluster": 7}

>  <energy>  (40) 
-8.09

>  <cluster_rmsd>  (40) 
0.22

>  <cluster>  (40) 
3

$$$$

     RDKit          3D

 56 59  0  0  0  0  0  0  0  0999 V2000
  140.4890   72.4750  220.7720 O   0  0  0  0  0  0  0  0  0  0  0  0
  140.1660   72.8130  221.9400 C   0  0  0  0  0  0  0  0  0  0  0  0
  139.7960   74.2050  222.1520 N   0  0  0  0  0  0  0  0  0  0  0  0
  139.8450   75.0320  221.0000 C   0  0  0  0  0  0  0  0  0  0  0  0
  141.0150   75.7700  220.6180 C   0  0  0  0  0  0  0  0  0  0  0  0
  142.1310   75.0910  220.7710 O   0  0  0  0  0  0  0  0  0  0  0  0
  141.2160   77.0680  220.1140 N   0  0  0  0  0  0  0  0  0  0  0  0
  142.2060   77.4990  219.1910 C   0  0  0  0  0  0  0  0  0  0  0  0
  142.2050   78.9370  218.7850 C   0  0  0  0  0  0  0  0  0  0  0  0
  140.8700   79.5850  218.6980 C   0  0  0  0  0  0  0  0  0  0  0  0
  139.7850   78.7940  219.3970 C   0  0  0  0  0  0  0  0  0  0  0  0
  140.2820   78.1040  220.6190 C   0  0  2  0  0  0  0  0  0  0  0  0
  140.8700   78.9580  221.6750 C   0  0  0  0  0  0  0  0  0  0  0  0
  141.1360   78.1090  222.9000 C   0  0  0  0  0  0  0  0  0  0  0  0
  141.8350   79.0330  223.8990 C   0  0  0  0  0  0  0  0  0  0  0  0
  141.7730   80.4220  223.4960 N   0  0  0  0  0  0  0  0  0  0  0  0
  140.4720   80.8660  223.0970 C   0  0  0  0  0  0  0  0  0  0  0  0
  139.7860   79.9400  222.1130 C   0  0  0  0  0  0  0  0  0  0  0  0
  140.1450   71.8880  223.0650 C   0  0  0  0  0  0  0  0  0  0  0  0
  139.6080   70.6380  222.8350 C   0  0  0  0  0  0  0  0  0  0  0  0
  139.5610   69.7160  223.8610 C   0  0  0  0  0  0  0  0  0  0  0  0
  140.0690   70.1130  225.0960 C   0  0  0  0  0  0  0  0  0  0  0  0
  140.0360   69.2130  226.1440 C   0  0  0  0  0  0  0  0  0  0  0  0
  140.5290   69.5490  227.4080 C   0  0  0  0  0  0  0  0  0  0  0  0
  140.4710   68.3780  228.7200 Cl  0  0  0  0  0  0  0  0  0  0  0  0
  141.0580   70.8080  227.6020 C   0  0  0  0  0  0  0  0  0  0  0  0
  141.0830   71.6910  226.5430 C   0  0  0  0  0  0  0  0  0  0  0  0
  140.6010   71.3820  225.2880 C   0  0  0  0  0  0  0  0  0  0  0  0
  140.6260   72.2460  224.2570 N   0  0  0  0  0  0  0  0  0  0  0  0
  139.5400   74.4230  223.1210 H   0  0  0  0  0  0  0  0  0  0  0  0
  139.6066   74.3790  220.1475 H   0  0  0  0  0  0  0  0  0  0  0  0
  139.1553   75.8418  221.2804 H   0  0  0  0  0  0  0  0  0  0  0  0
  143.1873   77.2862  219.6401 H   0  0  0  0  0  0  0  0  0  0  0  0
  141.9770   76.9510  218.2651 H   0  0  0  0  0  0  0  0  0  0  0  0
  142.8036   79.4953  219.5198 H   0  0  0  0  0  0  0  0  0  0  0  0
  142.6142   78.9589  217.7642 H   0  0  0  0  0  0  0  0  0  0  0  0
  140.9322   80.5808  219.1612 H   0  0  0  0  0  0  0  0  0  0  0  0
  140.6009   79.6452  217.6331 H   0  0  0  0  0  0  0  0  0  0  0  0
  138.9761   79.4818  219.6843 H   0  0  0  0  0  0  0  0  0  0  0  0
  139.4297   78.0226  218.6979 H   0  0  0  0  0  0  0  0  0  0  0  0
  139.4285   77.6826  221.1703 H   0  0  0  0  0  0  0  0  0  0  0  0
  141.7833   79.4430  221.3000 H   0  0  0  0  0  0  0  0  0  0  0  0
  140.1908   77.7346  223.3200 H   0  0  0  0  0  0  0  0  0  0  0  0
  141.7522   77.2302  222.6594 H   0  0  0  0  0  0  0  0  0  0  0  0
  141.3486   78.9268  224.8799 H   0  0  0  0  0  0  0  0  0  0  0  0
  142.8948   78.7416  223.9437 H   0  0  0  0  0  0  0  0  0  0  0  0
  142.0440   80.9800  224.3360 H   0  0  0  0  0  0  0  0  0  0  0  0
  139.8421   80.9461  223.9952 H   0  0  0  0  0  0  0  0  0  0  0  0
  140.6047   81.8326  222.5890 H   0  0  0  0  0  0  0  0  0  0  0  0
  138.9546   79.4075  222.5980 H   0  0  0  0  0  0  0  0  0  0  0  0
  139.3548   80.4871  221.2616 H   0  0  0  0  0  0  0  0  0  0  0  0
  139.2195   70.3777  221.8394 H   0  0  0  0  0  0  0  0  0  0  0  0
  139.1405   68.7108  223.7100 H   0  0  0  0  0  0  0  0  0  0  0  0
  139.6128   68.2110  225.9801 H   0  0  0  0  0  0  0  0  0  0  0  0
  141.4534   71.1029  228.5852 H   0  0  0  0  0  0  0  0  0  0  0  0
  141.5086   72.6919  226.7073 H   0  0  0  0  0  0  0  0  0  0  0  0
  1  2  2  0
  2  3  1  0
  3  4  1  0
  4  5  1  0
  5  6  2  0
  5  7  1  0
  7  8  1  0
  8  9  1  0
  9 10  1  0
 10 11  1  0
 11 12  1  0
 12 13  1  0
 13 14  1  0
 14 15  1  0
 15 16  1  0
 16 17  1  0
 17 18  1  0
  2 19  1  0
 19 20  2  0
 20 21  1  0
 21 22  2  0
 22 23  1  0
 23 24  2  0
 24 25  1  0
 24 26  1  0
 26 27  2  0
 27 28  1  0
 28 29  2  0
 12  7  1  0
 18 13  1  0
 29 19  1  0
 28 22  1  0
  3 30  1  0
  4 31  1  0
  4 32  1  0
  8 33  1  0
  8 34  1  0
  9 35  1  0
  9 36  1  0
 10 37  1  0
 10 38  1  0
 11 39  1  0
 11 40  1  0
 12 41  1  1
 13 42  1  0
 14 43  1  0
 14 44  1  0
 15 45  1  0
 15 46  1  0
 16 47  1  0
 17 48  1  0
 17 49  1  0
 18 50  1  0
 18 51  1  0
 20 52  1  0
 21 53  1  0
 23 54  1  0
 26 55  1  0
 27 56  1  0
M  END
>  <smiles>  (41) 
O=C(NCC(=O)N1CCCCC1C1CCNCC1)c1ccc2cc(Cl)ccc2n1

>  <score_type>  (41) 
oracle

>  <origin>  (41) 
autodockgpu

>  <m_score__min__energy>  (41) 
-8.6300000000000008

>  <m_primary>  (41) 
energy

>  <rmsd>  (41) 
2.4164833879755676

>  <m_score__min__rmsd>  (41) 
2.4164833879755676

>  <meeko>  (41) 
{"free_energy": -8.08, "intermolecular_energy": -9.58, "internal_energy": -1.48, "cluster_size": 20, "cluster_id": 1, "rank_in_cluster": 11}

>  <energy>  (41) 
-8.08

>  <cluster_rmsd>  (41) 
0.26

>  <cluster>  (41) 
3

$$$$

     RDKit          3D

 56 59  0  0  0  0  0  0  0  0999 V2000
  138.4990   71.8220  220.8780 O   0  0  0  0  0  0  0  0  0  0  0  0
  138.8670   72.2560  222.0020 C   0  0  0  0  0  0  0  0  0  0  0  0
  138.9590   73.6990  222.1610 N   0  0  0  0  0  0  0  0  0  0  0  0
  138.6180   74.4630  221.0140 C   0  0  0  0  0  0  0  0  0  0  0  0
  139.5850   74.8740  220.0350 C   0  0  0  0  0  0  0  0  0  0  0  0
  139.0710   75.0500  218.8380 O   0  0  0  0  0  0  0  0  0  0  0  0
  140.9680   75.1280  220.0920 N   0  0  0  0  0  0  0  0  0  0  0  0
  141.9980   74.2420  220.5030 C   0  0  0  0  0  0  0  0  0  0  0  0
  143.4080   74.7370  220.4550 C   0  0  0  0  0  0  0  0  0  0  0  0
  143.7250   75.6810  219.3520 C   0  0  0  0  0  0  0  0  0  0  0  0
  142.4890   76.2670  218.7020 C   0  0  0  0  0  0  0  0  0  0  0  0
  141.3870   76.4890  219.6780 C   0  0  2  0  0  0  0  0  0  0  0  0
  141.6770   77.3850  220.8210 C   0  0  0  0  0  0  0  0  0  0  0  0
  140.6230   77.1770  221.8870 C   0  0  0  0  0  0  0  0  0  0  0  0
  141.0510   78.0520  223.0670 C   0  0  0  0  0  0  0  0  0  0  0  0
  142.1120   78.9710  222.7100 N   0  0  0  0  0  0  0  0  0  0  0  0
  141.8880   79.6930  221.4950 C   0  0  0  0  0  0  0  0  0  0  0  0
  141.4580   78.8170  220.3350 C   0  0  0  0  0  0  0  0  0  0  0  0
  139.1970   71.3900  223.1250 C   0  0  0  0  0  0  0  0  0  0  0  0
  138.8490   70.0600  223.0110 C   0  0  0  0  0  0  0  0  0  0  0  0
  139.1350   69.1880  224.0420 C   0  0  0  0  0  0  0  0  0  0  0  0
  139.7720   69.7160  225.1630 C   0  0  0  0  0  0  0  0  0  0  0  0
  140.0720   68.8700  226.2120 C   0  0  0  0  0  0  0  0  0  0  0  0
  140.7100   69.3360  227.3650 C   0  0  0  0  0  0  0  0  0  0  0  0
  141.0770   68.2300  228.6830 Cl  0  0  0  0  0  0  0  0  0  0  0  0
  141.0430   70.6730  227.4460 C   0  0  0  0  0  0  0  0  0  0  0  0
  140.7360   71.5010  226.3860 C   0  0  0  0  0  0  0  0  0  0  0  0
  140.1060   71.0620  225.2400 C   0  0  0  0  0  0  0  0  0  0  0  0
  139.8060   71.8730  224.2090 N   0  0  0  0  0  0  0  0  0  0  0  0
  139.2610   73.9950  223.0950 H   0  0  0  0  0  0  0  0  0  0  0  0
  137.8661   73.8734  220.4691 H   0  0  0  0  0  0  0  0  0  0  0  0
  138.3370   75.4260  221.4652 H   0  0  0  0  0  0  0  0  0  0  0  0
  141.7870   73.9549  221.5437 H   0  0  0  0  0  0  0  0  0  0  0  0
  141.9678   73.4244  219.7677 H   0  0  0  0  0  0  0  0  0  0  0  0
  143.6193   75.2467  221.4066 H   0  0  0  0  0  0  0  0  0  0  0  0
  144.0306   73.8481  220.2756 H   0  0  0  0  0  0  0  0  0  0  0  0
  144.3313   76.5041  219.7582 H   0  0  0  0  0  0  0  0  0  0  0  0
  144.2665   75.1151  218.5796 H   0  0  0  0  0  0  0  0  0  0  0  0
  142.7542   77.2309  218.2431 H   0  0  0  0  0  0  0  0  0  0  0  0
  142.1319   75.5479  217.9501 H   0  0  0  0  0  0  0  0  0  0  0  0
  140.5816   77.0582  219.1908 H   0  0  0  0  0  0  0  0  0  0  0  0
  142.6922   77.1941  221.1989 H   0  0  0  0  0  0  0  0  0  0  0  0
  139.6355   77.4890  221.5163 H   0  0  0  0  0  0  0  0  0  0  0  0
  140.5395   76.1187  222.1750 H   0  0  0  0  0  0  0  0  0  0  0  0
  140.1818   78.6312  223.4121 H   0  0  0  0  0  0  0  0  0  0  0  0
  141.4304   77.3893  223.8588 H   0  0  0  0  0  0  0  0  0  0  0  0
  142.1580   79.6730  223.4810 H   0  0  0  0  0  0  0  0  0  0  0  0
  141.1016   80.4407  221.6755 H   0  0  0  0  0  0  0  0  0  0  0  0
  142.8471   80.1517  221.2126 H   0  0  0  0  0  0  0  0  0  0  0  0
  140.3980   78.9862  220.0945 H   0  0  0  0  0  0  0  0  0  0  0  0
  142.0266   79.0347  219.4189 H   0  0  0  0  0  0  0  0  0  0  0  0
  138.3460   69.6962  222.1029 H   0  0  0  0  0  0  0  0  0  0  0  0
  138.8713   68.1218  223.9812 H   0  0  0  0  0  0  0  0  0  0  0  0
  139.8030   67.8059  226.1388 H   0  0  0  0  0  0  0  0  0  0  0  0
  141.5445   71.0715  228.3403 H   0  0  0  0  0  0  0  0  0  0  0  0
  141.0072   72.5646  226.4583 H   0  0  0  0  0  0  0  0  0  0  0  0
  1  2  2  0
  2  3  1  0
  3  4  1  0
  4  5  1  0
  5  6  2  0
  5  7  1  0
  7  8  1  0
  8  9  1  0
  9 10  1  0
 10 11  1  0
 11 12  1  0
 12 13  1  0
 13 14  1  0
 14 15  1  0
 15 16  1  0
 16 17  1  0
 17 18  1  0
  2 19  1  0
 19 20  2  0
 20 21  1  0
 21 22  2  0
 22 23  1  0
 23 24  2  0
 24 25  1  0
 24 26  1  0
 26 27  2  0
 27 28  1  0
 28 29  2  0
 12  7  1  0
 18 13  1  0
 29 19  1  0
 28 22  1  0
  3 30  1  0
  4 31  1  0
  4 32  1  0
  8 33  1  0
  8 34  1  0
  9 35  1  0
  9 36  1  0
 10 37  1  0
 10 38  1  0
 11 39  1  0
 11 40  1  0
 12 41  1  6
 13 42  1  0
 14 43  1  0
 14 44  1  0
 15 45  1  0
 15 46  1  0
 16 47  1  0
 17 48  1  0
 17 49  1  0
 18 50  1  0
 18 51  1  0
 20 52  1  0
 21 53  1  0
 23 54  1  0
 26 55  1  0
 27 56  1  0
M  END
>  <smiles>  (42) 
O=C(NCC(=O)N1CCCCC1C1CCNCC1)c1ccc2cc(Cl)ccc2n1

>  <score_type>  (42) 
oracle

>  <origin>  (42) 
autodockgpu

>  <m_score__min__energy>  (42) 
-8.6300000000000008

>  <m_primary>  (42) 
energy

>  <rmsd>  (42) 
2.0828848413967918

>  <m_score__min__rmsd>  (42) 
2.0828848413967918

>  <meeko>  (42) 
{"free_energy": -7.64, "intermolecular_energy": -9.13, "internal_energy": -1.78, "cluster_size": 20, "cluster_id": 1, "rank_in_cluster": 17}

>  <energy>  (42) 
-7.56

>  <cluster_rmsd>  (42) 
0.0

>  <cluster>  (42) 
4

$$$$

     RDKit          3D

 56 59  0  0  0  0  0  0  0  0999 V2000
  140.2390   71.9830  220.8400 O   0  0  0  0  0  0  0  0  0  0  0  0
  139.9370   72.3420  222.0090 C   0  0  0  0  0  0  0  0  0  0  0  0
  139.5040   73.7190  222.1920 N   0  0  0  0  0  0  0  0  0  0  0  0
  139.4730   74.5120  221.0140 C   0  0  0  0  0  0  0  0  0  0  0  0
  140.5830   75.3150  220.5860 C   0  0  0  0  0  0  0  0  0  0  0  0
  140.8300   76.3290  221.3850 O   0  0  0  0  0  0  0  0  0  0  0  0
  141.4610   75.2430  219.4880 N   0  0  0  0  0  0  0  0  0  0  0  0
  141.1350   74.9870  218.1300 C   0  0  0  0  0  0  0  0  0  0  0  0
  142.2480   74.9820  217.1330 C   0  0  0  0  0  0  0  0  0  0  0  0
  143.3580   75.9340  217.3970 C   0  0  0  0  0  0  0  0  0  0  0  0
  143.3540   76.4670  218.8140 C   0  0  0  0  0  0  0  0  0  0  0  0
  142.8950   75.4510  219.8000 C   0  0  2  0  0  0  0  0  0  0  0  0
  143.6690   74.1910  219.8700 C   0  0  0  0  0  0  0  0  0  0  0  0
  142.9860   73.2500  220.8400 C   0  0  0  0  0  0  0  0  0  0  0  0
  143.7800   71.9440  220.7750 C   0  0  0  0  0  0  0  0  0  0  0  0
  145.0310   72.0980  220.0630 N   0  0  0  0  0  0  0  0  0  0  0  0
  145.8040   73.2340  220.4610 C   0  0  0  0  0  0  0  0  0  0  0  0
  145.0070   74.5210  220.5290 C   0  0  0  0  0  0  0  0  0  0  0  0
  139.9990   71.4530  223.1610 C   0  0  0  0  0  0  0  0  0  0  0  0
  139.5260   70.1690  222.9840 C   0  0  0  0  0  0  0  0  0  0  0  0
  139.5590   69.2780  224.0380 C   0  0  0  0  0  0  0  0  0  0  0  0
  140.0800   69.7410  225.2450 C   0  0  0  0  0  0  0  0  0  0  0  0
  140.1260   68.8730  226.3190 C   0  0  0  0  0  0  0  0  0  0  0  0
  140.6360   69.2740  227.5570 C   0  0  0  0  0  0  0  0  0  0  0  0
  140.6800   68.1440  228.9050 Cl  0  0  0  0  0  0  0  0  0  0  0  0
  141.1000   70.5660  227.6980 C   0  0  0  0  0  0  0  0  0  0  0  0
  141.0450   71.4160  226.6130 C   0  0  0  0  0  0  0  0  0  0  0  0
  140.5460   71.0420  225.3830 C   0  0  0  0  0  0  0  0  0  0  0  0
  140.4930   71.8730  224.3260 N   0  0  0  0  0  0  0  0  0  0  0  0
  139.2690   73.9550  223.1610 H   0  0  0  0  0  0  0  0  0  0  0  0
  139.2631   73.8184  220.1865 H   0  0  0  0  0  0  0  0  0  0  0  0
  138.7345   75.2812  221.2843 H   0  0  0  0  0  0  0  0  0  0  0  0
  140.6542   73.9985  218.0892 H   0  0  0  0  0  0  0  0  0  0  0  0
  140.5024   75.8366  217.8332 H   0  0  0  0  0  0  0  0  0  0  0  0
  142.6727   73.9676  217.1066 H   0  0  0  0  0  0  0  0  0  0  0  0
  141.7984   75.3042  216.1822 H   0  0  0  0  0  0  0  0  0  0  0  0
  144.3128   75.4175  217.2192 H   0  0  0  0  0  0  0  0  0  0  0  0
  143.2240   76.7920  216.7217 H   0  0  0  0  0  0  0  0  0  0  0  0
  144.3755   76.7787  219.0772 H   0  0  0  0  0  0  0  0  0  0  0  0
  142.6524   77.3133  218.8525 H   0  0  0  0  0  0  0  0  0  0  0  0
  143.0630   75.8318  220.8182 H   0  0  0  0  0  0  0  0  0  0  0  0
  143.7651   73.7539  218.8651 H   0  0  0  0  0  0  0  0  0  0  0  0
  143.0110   73.6642  221.8587 H   0  0  0  0  0  0  0  0  0  0  0  0
  141.9280   73.0963  220.5810 H   0  0  0  0  0  0  0  0  0  0  0  0
  143.9952   71.6091  221.8004 H   0  0  0  0  0  0  0  0  0  0  0  0
  143.1714   71.2062  220.2316 H   0  0  0  0  0  0  0  0  0  0  0  0
  145.5960   71.2480  220.2840 H   0  0  0  0  0  0  0  0  0  0  0  0
  146.2267   73.0345  221.4567 H   0  0  0  0  0  0  0  0  0  0  0  0
  146.5809   73.3777  219.6956 H   0  0  0  0  0  0  0  0  0  0  0  0
  144.8578   74.8289  221.5745 H   0  0  0  0  0  0  0  0  0  0  0  0
  145.5216   75.3534  220.0266 H   0  0  0  0  0  0  0  0  0  0  0  0
  139.1248   69.8570  222.0084 H   0  0  0  0  0  0  0  0  0  0  0  0
  139.1901   68.2473  223.9299 H   0  0  0  0  0  0  0  0  0  0  0  0
  139.7536   67.8452  226.1972 H   0  0  0  0  0  0  0  0  0  0  0  0
  141.5069   70.9122  228.6595 H   0  0  0  0  0  0  0  0  0  0  0  0
  141.4178   72.4437  226.7350 H   0  0  0  0  0  0  0  0  0  0  0  0
  1  2  2  0
  2  3  1  0
  3  4  1  0
  4  5  1  0
  5  6  2  0
  5  7  1  0
  7  8  1  0
  8  9  1  0
  9 10  1  0
 10 11  1  0
 11 12  1  0
 12 13  1  0
 13 14  1  0
 14 15  1  0
 15 16  1  0
 16 17  1  0
 17 18  1  0
  2 19  1  0
 19 20  2  0
 20 21  1  0
 21 22  2  0
 22 23  1  0
 23 24  2  0
 24 25  1  0
 24 26  1  0
 26 27  2  0
 27 28  1  0
 28 29  2  0
 12  7  1  0
 18 13  1  0
 29 19  1  0
 28 22  1  0
  3 30  1  0
  4 31  1  0
  4 32  1  0
  8 33  1  0
  8 34  1  0
  9 35  1  0
  9 36  1  0
 10 37  1  0
 10 38  1  0
 11 39  1  0
 11 40  1  0
 12 41  1  1
 13 42  1  0
 14 43  1  0
 14 44  1  0
 15 45  1  0
 15 46  1  0
 16 47  1  0
 17 48  1  0
 17 49  1  0
 18 50  1  0
 18 51  1  0
 20 52  1  0
 21 53  1  0
 23 54  1  0
 26 55  1  0
 27 56  1  0
M  END
>  <smiles>  (43) 
O=C(NCC(=O)N1CCCCC1C1CCNCC1)c1ccc2cc(Cl)ccc2n1

>  <score_type>  (43) 
oracle

>  <origin>  (43) 
autodockgpu

>  <m_score__min__energy>  (43) 
-8.6300000000000008

>  <m_primary>  (43) 
energy

>  <rmsd>  (43) 
1.8237096095790863

>  <m_score__min__rmsd>  (43) 
1.8237096095790863

>  <meeko>  (43) 
{"free_energy": -8.2, "intermolecular_energy": -9.69, "internal_energy": -1.89, "cluster_size": 18, "cluster_id": 2, "rank_in_cluster": 1}

>  <energy>  (43) 
-7.53

>  <cluster_rmsd>  (43) 
0.24

>  <cluster>  (43) 
4

$$$$

     RDKit          3D

 56 59  0  0  0  0  0  0  0  0999 V2000
  138.7590   71.7180  220.7300 O   0  0  0  0  0  0  0  0  0  0  0  0
  138.9530   72.1770  221.8860 C   0  0  0  0  0  0  0  0  0  0  0  0
  138.8520   73.6190  222.0550 N   0  0  0  0  0  0  0  0  0  0  0  0
  138.5420   74.3520  220.8790 C   0  0  0  0  0  0  0  0  0  0  0  0
  139.5410   74.7800  219.9410 C   0  0  0  0  0  0  0  0  0  0  0  0
  139.0950   74.8650  218.7070 O   0  0  0  0  0  0  0  0  0  0  0  0
  140.8990   75.1260  220.0690 N   0  0  0  0  0  0  0  0  0  0  0  0
  141.9860   74.2770  220.4050 C   0  0  0  0  0  0  0  0  0  0  0  0
  143.3540   74.8760  220.4570 C   0  0  0  0  0  0  0  0  0  0  0  0
  143.6210   75.9650  219.4810 C   0  0  0  0  0  0  0  0  0  0  0  0
  142.3570   76.5300  218.8670 C   0  0  0  0  0  0  0  0  0  0  0  0
  141.2210   76.5540  219.8290 C   0  0  2  0  0  0  0  0  0  0  0  0
  141.4180   77.3280  221.0760 C   0  0  0  0  0  0  0  0  0  0  0  0
  140.0780   77.5070  221.7570 C   0  0  0  0  0  0  0  0  0  0  0  0
  140.3800   78.2160  223.0790 C   0  0  0  0  0  0  0  0  0  0  0  0
  141.7350   78.7210  223.1330 N   0  0  0  0  0  0  0  0  0  0  0  0
  142.1440   79.4480  221.9700 C   0  0  0  0  0  0  0  0  0  0  0  0
  141.8350   78.7390  220.6670 C   0  0  0  0  0  0  0  0  0  0  0  0
  139.2660   71.3430  223.0380 C   0  0  0  0  0  0  0  0  0  0  0  0
  138.9210   70.0090  222.9540 C   0  0  0  0  0  0  0  0  0  0  0  0
  139.1920   69.1660  224.0120 C   0  0  0  0  0  0  0  0  0  0  0  0
  139.8120   69.7260  225.1280 C   0  0  0  0  0  0  0  0  0  0  0  0
  140.0960   68.9080  226.2050 C   0  0  0  0  0  0  0  0  0  0  0  0
  140.7150   69.4070  227.3540 C   0  0  0  0  0  0  0  0  0  0  0  0
  141.0630   68.3370  228.7070 Cl  0  0  0  0  0  0  0  0  0  0  0  0
  141.0450   70.7450  227.4040 C   0  0  0  0  0  0  0  0  0  0  0  0
  140.7530   71.5450  226.3180 C   0  0  0  0  0  0  0  0  0  0  0  0
  140.1420   71.0740  225.1740 C   0  0  0  0  0  0  0  0  0  0  0  0
  139.8570   71.8560  224.1170 N   0  0  0  0  0  0  0  0  0  0  0  0
  139.0160   73.9370  223.0150 H   0  0  0  0  0  0  0  0  0  0  0  0
  137.8380   73.7279  220.3090 H   0  0  0  0  0  0  0  0  0  0  0  0
  138.2069   75.3120  221.2986 H   0  0  0  0  0  0  0  0  0  0  0  0
  141.7760   73.8544  221.3986 H   0  0  0  0  0  0  0  0  0  0  0  0
  142.0345   73.5527  219.5786 H   0  0  0  0  0  0  0  0  0  0  0  0
  143.5058   75.2836  221.4674 H   0  0  0  0  0  0  0  0  0  0  0  0
  144.0464   74.0627  220.1940 H   0  0  0  0  0  0  0  0  0  0  0  0
  144.1532   76.7770  219.9982 H   0  0  0  0  0  0  0  0  0  0  0  0
  144.2212   75.5365  218.6648 H   0  0  0  0  0  0  0  0  0  0  0  0
  142.5567   77.5580  218.5303 H   0  0  0  0  0  0  0  0  0  0  0  0
  142.0719   75.8793  218.0272 H   0  0  0  0  0  0  0  0  0  0  0  0
  140.3844   77.1160  219.3882 H   0  0  0  0  0  0  0  0  0  0  0  0
  142.1480   76.8191  221.7226 H   0  0  0  0  0  0  0  0  0  0  0  0
  139.4104   78.1217  221.1354 H   0  0  0  0  0  0  0  0  0  0  0  0
  139.5713   76.5440  221.9180 H   0  0  0  0  0  0  0  0  0  0  0  0
  139.6831   79.0591  223.1958 H   0  0  0  0  0  0  0  0  0  0  0  0
  140.2613   77.4822  223.8898 H   0  0  0  0  0  0  0  0  0  0  0  0
  141.7650   79.3850  223.9380 H   0  0  0  0  0  0  0  0  0  0  0  0
  141.6268   80.4188  221.9679 H   0  0  0  0  0  0  0  0  0  0  0  0
  143.2374   79.5543  222.0261 H   0  0  0  0  0  0  0  0  0  0  0  0
  141.0160   79.2457  220.1356 H   0  0  0  0  0  0  0  0  0  0  0  0
  142.6972   78.7341  219.9840 H   0  0  0  0  0  0  0  0  0  0  0  0
  138.4326   69.6202  222.0483 H   0  0  0  0  0  0  0  0  0  0  0  0
  138.9302   68.0982  223.9765 H   0  0  0  0  0  0  0  0  0  0  0  0
  139.8292   67.8419  226.1567 H   0  0  0  0  0  0  0  0  0  0  0  0
  141.5329   71.1677  228.2947 H   0  0  0  0  0  0  0  0  0  0  0  0
  141.0206   72.6108  226.3668 H   0  0  0  0  0  0  0  0  0  0  0  0
  1  2  2  0
  2  3  1  0
  3  4  1  0
  4  5  1  0
  5  6  2  0
  5  7  1  0
  7  8  1  0
  8  9  1  0
  9 10  1  0
 10 11  1  0
 11 12  1  0
 12 13  1  0
 13 14  1  0
 14 15  1  0
 15 16  1  0
 16 17  1  0
 17 18  1  0
  2 19  1  0
 19 20  2  0
 20 21  1  0
 21 22  2  0
 22 23  1  0
 23 24  2  0
 24 25  1  0
 24 26  1  0
 26 27  2  0
 27 28  1  0
 28 29  2  0
 12  7  1  0
 18 13  1  0
 29 19  1  0
 28 22  1  0
  3 30  1  0
  4 31  1  0
  4 32  1  0
  8 33  1  0
  8 34  1  0
  9 35  1  0
  9 36  1  0
 10 37  1  0
 10 38  1  0
 11 39  1  0
 11 40  1  0
 12 41  1  6
 13 42  1  0
 14 43  1  0
 14 44  1  0
 15 45  1  0
 15 46  1  0
 16 47  1  0
 17 48  1  0
 17 49  1  0
 18 50  1  0
 18 51  1  0
 20 52  1  0
 21 53  1  0
 23 54  1  0
 26 55  1  0
 27 56  1  0
M  END
>  <smiles>  (44) 
O=C(NCC(=O)N1CCCCC1C1CCNCC1)c1ccc2cc(Cl)ccc2n1

>  <score_type>  (44) 
oracle

>  <origin>  (44) 
autodockgpu

>  <m_score__min__energy>  (44) 
-8.6300000000000008

>  <m_primary>  (44) 
energy

>  <rmsd>  (44) 
2.037974682799579

>  <m_score__min__rmsd>  (44) 
2.037974682799579

>  <meeko>  (44) 
{"free_energy": -7.63, "intermolecular_energy": -9.12, "internal_energy": -1.79, "cluster_size": 20, "cluster_id": 1, "rank_in_cluster": 18}

>  <energy>  (44) 
-7.5

>  <cluster_rmsd>  (44) 
0.24

>  <cluster>  (44) 
4

$$$$

     RDKit          3D

 56 59  0  0  0  0  0  0  0  0999 V2000
  140.3460   73.9310  221.9520 O   0  0  0  0  0  0  0  0  0  0  0  0
  139.9690   72.7310  221.8960 C   0  0  0  0  0  0  0  0  0  0  0  0
  139.4680   72.2490  220.6180 N   0  0  0  0  0  0  0  0  0  0  0  0
  139.4600   73.2010  219.5660 C   0  0  0  0  0  0  0  0  0  0  0  0
  140.5690   73.3850  218.6720 C   0  0  0  0  0  0  0  0  0  0  0  0
  140.5930   72.5130  217.6880 O   0  0  0  0  0  0  0  0  0  0  0  0
  141.6340   74.3040  218.6310 N   0  0  0  0  0  0  0  0  0  0  0  0
  141.9890   75.1760  217.5690 C   0  0  0  0  0  0  0  0  0  0  0  0
  143.1580   76.0850  217.7710 C   0  0  0  0  0  0  0  0  0  0  0  0
  143.3570   76.5860  219.1560 C   0  0  0  0  0  0  0  0  0  0  0  0
  142.5770   75.7970  220.1870 C   0  0  0  0  0  0  0  0  0  0  0  0
  142.4860   74.3510  219.8440 C   0  0  2  0  0  0  0  0  0  0  0  0
  143.7640   73.6190  219.6920 C   0  0  0  0  0  0  0  0  0  0  0  0
  143.5260   72.1530  219.9840 C   0  0  0  0  0  0  0  0  0  0  0  0
  144.8580   71.4550  219.7020 C   0  0  0  0  0  0  0  0  0  0  0  0
  145.9440   72.3970  219.5310 N   0  0  0  0  0  0  0  0  0  0  0  0
  146.0140   73.4110  220.5380 C   0  0  0  0  0  0  0  0  0  0  0  0
  144.6880   74.0910  220.8130 C   0  0  0  0  0  0  0  0  0  0  0  0
  140.0150   71.8240  223.0350 C   0  0  0  0  0  0  0  0  0  0  0  0
  139.5220   70.5500  222.8380 C   0  0  0  0  0  0  0  0  0  0  0  0
  139.5380   69.6430  223.8780 C   0  0  0  0  0  0  0  0  0  0  0  0
  140.0630   70.0800  225.0930 C   0  0  0  0  0  0  0  0  0  0  0  0
  140.0930   69.1960  226.1550 C   0  0  0  0  0  0  0  0  0  0  0  0
  140.6070   69.5700  227.4000 C   0  0  0  0  0  0  0  0  0  0  0  0
  140.6290   68.4190  228.7300 Cl  0  0  0  0  0  0  0  0  0  0  0  0
  141.0910   70.8520  227.5610 C   0  0  0  0  0  0  0  0  0  0  0  0
  141.0520   71.7190  226.4880 C   0  0  0  0  0  0  0  0  0  0  0  0
  140.5500   71.3710  225.2520 C   0  0  0  0  0  0  0  0  0  0  0  0
  140.5130   72.2190  224.2080 N   0  0  0  0  0  0  0  0  0  0  0  0
  139.1770   71.2660  220.6310 H   0  0  0  0  0  0  0  0  0  0  0  0
  138.5982   72.9455  218.9320 H   0  0  0  0  0  0  0  0  0  0  0  0
  139.4670   74.1484  220.1250 H   0  0  0  0  0  0  0  0  0  0  0  0
  142.2084   74.5505  216.6911 H   0  0  0  0  0  0  0  0  0  0  0  0
  141.1277   75.8528  217.4685 H   0  0  0  0  0  0  0  0  0  0  0  0
  144.0657   75.5378  217.4765 H   0  0  0  0  0  0  0  0  0  0  0  0
  142.9532   76.9752  217.1582 H   0  0  0  0  0  0  0  0  0  0  0  0
  144.4273   76.5223  219.4017 H   0  0  0  0  0  0  0  0  0  0  0  0
  142.9902   77.6226  219.1875 H   0  0  0  0  0  0  0  0  0  0  0  0
  143.0767   75.8983  221.1617 H   0  0  0  0  0  0  0  0  0  0  0  0
  141.5540   76.2005  220.2151 H   0  0  0  0  0  0  0  0  0  0  0  0
  142.0549   73.8025  220.6945 H   0  0  0  0  0  0  0  0  0  0  0  0
  144.1712   73.7809  218.6831 H   0  0  0  0  0  0  0  0  0  0  0  0
  143.2346   72.0134  221.0355 H   0  0  0  0  0  0  0  0  0  0  0  0
  142.7130   71.7422  219.3673 H   0  0  0  0  0  0  0  0  0  0  0  0
  145.0952   70.7904  220.5458 H   0  0  0  0  0  0  0  0  0  0  0  0
  144.7509   70.8895  218.7646 H   0  0  0  0  0  0  0  0  0  0  0  0
  146.8240   71.8380  219.5940 H   0  0  0  0  0  0  0  0  0  0  0  0
  146.3673   72.9490  221.4717 H   0  0  0  0  0  0  0  0  0  0  0  0
  146.7007   74.1856  220.1661 H   0  0  0  0  0  0  0  0  0  0  0  0
  144.2932   73.7870  221.7937 H   0  0  0  0  0  0  0  0  0  0  0  0
  144.7820   75.1867  220.8383 H   0  0  0  0  0  0  0  0  0  0  0  0
  139.1184   70.2591  221.8570 H   0  0  0  0  0  0  0  0  0  0  0  0
  139.1533   68.6200  223.7536 H   0  0  0  0  0  0  0  0  0  0  0  0
  139.7041   68.1763  226.0176 H   0  0  0  0  0  0  0  0  0  0  0  0
  141.5011   71.1775  228.5284 H   0  0  0  0  0  0  0  0  0  0  0  0
  141.4409   72.7387  226.6258 H   0  0  0  0  0  0  0  0  0  0  0  0
  1  2  2  0
  2  3  1  0
  3  4  1  0
  4  5  1  0
  5  6  2  0
  5  7  1  0
  7  8  1  0
  8  9  1  0
  9 10  1  0
 10 11  1  0
 11 12  1  0
 12 13  1  0
 13 14  1  0
 14 15  1  0
 15 16  1  0
 16 17  1  0
 17 18  1  0
  2 19  1  0
 19 20  2  0
 20 21  1  0
 21 22  2  0
 22 23  1  0
 23 24  2  0
 24 25  1  0
 24 26  1  0
 26 27  2  0
 27 28  1  0
 28 29  2  0
 12  7  1  0
 18 13  1  0
 29 19  1  0
 28 22  1  0
  3 30  1  0
  4 31  1  0
  4 32  1  0
  8 33  1  0
  8 34  1  0
  9 35  1  0
  9 36  1  0
 10 37  1  0
 10 38  1  0
 11 39  1  0
 11 40  1  0
 12 41  1  1
 13 42  1  0
 14 43  1  0
 14 44  1  0
 15 45  1  0
 15 46  1  0
 16 47  1  0
 17 48  1  0
 17 49  1  0
 18 50  1  0
 18 51  1  0
 20 52  1  0
 21 53  1  0
 23 54  1  0
 26 55  1  0
 27 56  1  0
M  END
>  <smiles>  (45) 
O=C(NCC(=O)N1CCCCC1C1CCNCC1)c1ccc2cc(Cl)ccc2n1

>  <score_type>  (45) 
oracle

>  <origin>  (45) 
autodockgpu

>  <m_score__min__energy>  (45) 
-8.6300000000000008

>  <m_primary>  (45) 
energy

>  <rmsd>  (45) 
2.532258029852018

>  <m_score__min__rmsd>  (45) 
2.532258029852018

>  <meeko>  (45) 
{"free_energy": -8.03, "intermolecular_energy": -9.52, "internal_energy": -1.73, "cluster_size": 18, "cluster_id": 2, "rank_in_cluster": 9}

>  <energy>  (45) 
-7.49

>  <cluster_rmsd>  (45) 
0.29

>  <cluster>  (45) 
4

$$$$

     RDKit          3D

 56 59  0  0  0  0  0  0  0  0999 V2000
  137.8540   78.9240  220.8420 O   0  0  0  0  0  0  0  0  0  0  0  0
  137.7990   78.9510  222.0990 C   0  0  0  0  0  0  0  0  0  0  0  0
  138.0550   77.7040  222.8040 N   0  0  0  0  0  0  0  0  0  0  0  0
  138.3410   76.5840  221.9790 C   0  0  0  0  0  0  0  0  0  0  0  0
  139.6760   76.1230  221.7260 C   0  0  0  0  0  0  0  0  0  0  0  0
  139.9480   74.9720  222.3010 O   0  0  0  0  0  0  0  0  0  0  0  0
  140.7540   76.6460  220.9880 N   0  0  0  0  0  0  0  0  0  0  0  0
  141.8870   75.9500  220.4910 C   0  0  0  0  0  0  0  0  0  0  0  0
  142.8970   76.7240  219.7080 C   0  0  0  0  0  0  0  0  0  0  0  0
  142.3600   77.8300  218.8720 C   0  0  0  0  0  0  0  0  0  0  0  0
  140.9460   78.2180  219.2470 C   0  0  0  0  0  0  0  0  0  0  0  0
  140.6940   78.1020  220.7090 C   0  0  2  0  0  0  0  0  0  0  0  0
  141.5580   78.9050  221.6030 C   0  0  0  0  0  0  0  0  0  0  0  0
  141.1850   78.6120  223.0400 C   0  0  0  0  0  0  0  0  0  0  0  0
  142.1860   79.3920  223.8940 C   0  0  0  0  0  0  0  0  0  0  0  0
  142.9530   80.3390  223.1100 N   0  0  0  0  0  0  0  0  0  0  0  0
  142.1700   81.1530  222.2320 C   0  0  0  0  0  0  0  0  0  0  0  0
  141.1780   80.3700  221.3960 C   0  0  0  0  0  0  0  0  0  0  0  0
  137.4980   80.1550  222.8620 C   0  0  0  0  0  0  0  0  0  0  0  0
  137.3470   81.3250  222.1470 C   0  0  0  0  0  0  0  0  0  0  0  0
  137.0600   82.5000  222.8120 C   0  0  0  0  0  0  0  0  0  0  0  0
  136.9390   82.4310  224.1990 C   0  0  0  0  0  0  0  0  0  0  0  0
  136.6520   83.5900  224.8950 C   0  0  0  0  0  0  0  0  0  0  0  0
  136.5180   83.5890  226.2860 C   0  0  0  0  0  0  0  0  0  0  0  0
  136.1530   85.0840  227.1400 Cl  0  0  0  0  0  0  0  0  0  0  0  0
  136.6770   82.4020  226.9690 C   0  0  0  0  0  0  0  0  0  0  0  0
  136.9620   81.2560  226.2550 C   0  0  0  0  0  0  0  0  0  0  0  0
  137.0990   81.2330  224.8830 C   0  0  0  0  0  0  0  0  0  0  0  0
  137.3780   80.1140  224.1900 N   0  0  0  0  0  0  0  0  0  0  0  0
  138.0000   77.7850  223.8240 H   0  0  0  0  0  0  0  0  0  0  0  0
  137.8057   75.7333  222.4259 H   0  0  0  0  0  0  0  0  0  0  0  0
  138.0447   76.9581  220.9879 H   0  0  0  0  0  0  0  0  0  0  0  0
  142.4080   75.5132  221.3557 H   0  0  0  0  0  0  0  0  0  0  0  0
  141.4729   75.2299  219.7699 H   0  0  0  0  0  0  0  0  0  0  0  0
  143.6155   77.1572  220.4194 H   0  0  0  0  0  0  0  0  0  0  0  0
  143.3418   76.0062  219.0031 H   0  0  0  0  0  0  0  0  0  0  0  0
  143.0094   78.7094  218.9939 H   0  0  0  0  0  0  0  0  0  0  0  0
  142.3405   77.4771  217.8303 H   0  0  0  0  0  0  0  0  0  0  0  0
  140.7727   79.2601  218.9404 H   0  0  0  0  0  0  0  0  0  0  0  0
  140.2615   77.5271  218.7331 H   0  0  0  0  0  0  0  0  0  0  0  0
  139.7157   78.5468  220.9437 H   0  0  0  0  0  0  0  0  0  0  0  0
  142.6162   78.6864  221.3970 H   0  0  0  0  0  0  0  0  0  0  0  0
  140.1589   78.9502  223.2466 H   0  0  0  0  0  0  0  0  0  0  0  0
  141.2190   77.5341  223.2569 H   0  0  0  0  0  0  0  0  0  0  0  0
  141.6357   79.9403  224.6728 H   0  0  0  0  0  0  0  0  0  0  0  0
  142.8894   78.6698  224.3342 H   0  0  0  0  0  0  0  0  0  0  0  0
  143.4110   80.9780  223.7970 H   0  0  0  0  0  0  0  0  0  0  0  0
  141.6131   81.8819  222.8390 H   0  0  0  0  0  0  0  0  0  0  0  0
  142.8690   81.6349  221.5327 H   0  0  0  0  0  0  0  0  0  0  0  0
  140.1501   80.5555  221.7409 H   0  0  0  0  0  0  0  0  0  0  0  0
  141.2109   80.6601  220.3354 H   0  0  0  0  0  0  0  0  0  0  0  0
  137.4548   81.3216  221.0523 H   0  0  0  0  0  0  0  0  0  0  0  0
  136.9323   83.4493  222.2711 H   0  0  0  0  0  0  0  0  0  0  0  0
  136.5264   84.5329  224.3425 H   0  0  0  0  0  0  0  0  0  0  0  0
  136.5784   82.3690  228.0641 H   0  0  0  0  0  0  0  0  0  0  0  0
  137.0862   80.3133  226.8082 H   0  0  0  0  0  0  0  0  0  0  0  0
  1  2  2  0
  2  3  1  0
  3  4  1  0
  4  5  1  0
  5  6  2  0
  5  7  1  0
  7  8  1  0
  8  9  1  0
  9 10  1  0
 10 11  1  0
 11 12  1  0
 12 13  1  0
 13 14  1  0
 14 15  1  0
 15 16  1  0
 16 17  1  0
 17 18  1  0
  2 19  1  0
 19 20  2  0
 20 21  1  0
 21 22  2  0
 22 23  1  0
 23 24  2  0
 24 25  1  0
 24 26  1  0
 26 27  2  0
 27 28  1  0
 28 29  2  0
 12  7  1  0
 18 13  1  0
 29 19  1  0
 28 22  1  0
  3 30  1  0
  4 31  1  0
  4 32  1  0
  8 33  1  0
  8 34  1  0
  9 35  1  0
  9 36  1  0
 10 37  1  0
 10 38  1  0
 11 39  1  0
 11 40  1  0
 12 41  1  6
 13 42  1  0
 14 43  1  0
 14 44  1  0
 15 45  1  0
 15 46  1  0
 16 47  1  0
 17 48  1  0
 17 49  1  0
 18 50  1  0
 18 51  1  0
 20 52  1  0
 21 53  1  0
 23 54  1  0
 26 55  1  0
 27 56  1  0
M  END
>  <smiles>  (46) 
O=C(NCC(=O)N1CCCCC1C1CCNCC1)c1ccc2cc(Cl)ccc2n1

>  <score_type>  (46) 
oracle

>  <origin>  (46) 
autodockgpu

>  <m_score__min__energy>  (46) 
-8.6300000000000008

>  <m_primary>  (46) 
energy

>  <rmsd>  (46) 
8.819280561326936

>  <m_score__min__rmsd>  (46) 
8.819280561326936

>  <meeko>  (46) 
{"free_energy": -6.59, "intermolecular_energy": -8.08, "internal_energy": -2.49, "cluster_size": 2, "cluster_id": 8, "rank_in_cluster": 1}

>  <energy>  (46) 
-7.07

>  <cluster_rmsd>  (46) 
0.0

>  <cluster>  (46) 
5

$$$$

     RDKit          3D

 56 59  0  0  0  0  0  0  0  0999 V2000
  140.2360   72.0130  220.8140 O   0  0  0  0  0  0  0  0  0  0  0  0
  139.9390   72.3720  221.9840 C   0  0  0  0  0  0  0  0  0  0  0  0
  139.5080   73.7500  222.1680 N   0  0  0  0  0  0  0  0  0  0  0  0
  139.4740   74.5430  220.9910 C   0  0  0  0  0  0  0  0  0  0  0  0
  140.5850   75.3410  220.5560 C   0  0  0  0  0  0  0  0  0  0  0  0
  140.8330   76.3620  221.3460 O   0  0  0  0  0  0  0  0  0  0  0  0
  141.4640   75.2560  219.4600 N   0  0  0  0  0  0  0  0  0  0  0  0
  141.1400   74.9870  218.1040 C   0  0  0  0  0  0  0  0  0  0  0  0
  142.2530   74.9710  217.1080 C   0  0  0  0  0  0  0  0  0  0  0  0
  143.3640   75.9250  217.3630 C   0  0  0  0  0  0  0  0  0  0  0  0
  143.3590   76.4720  218.7750 C   0  0  0  0  0  0  0  0  0  0  0  0
  142.8990   75.4660  219.7710 C   0  0  2  0  0  0  0  0  0  0  0  0
  143.6710   74.2060  219.8550 C   0  0  0  0  0  0  0  0  0  0  0  0
  142.9700   73.2650  220.8110 C   0  0  0  0  0  0  0  0  0  0  0  0
  143.7650   71.9580  220.7600 C   0  0  0  0  0  0  0  0  0  0  0  0
  145.0300   72.1130  220.0720 N   0  0  0  0  0  0  0  0  0  0  0  0
  145.7950   73.2500  220.4860 C   0  0  0  0  0  0  0  0  0  0  0  0
  144.9960   74.5370  220.5390 C   0  0  0  0  0  0  0  0  0  0  0  0
  140.0040   71.4830  223.1350 C   0  0  0  0  0  0  0  0  0  0  0  0
  139.5430   70.1950  222.9560 C   0  0  0  0  0  0  0  0  0  0  0  0
  139.5790   69.3030  224.0080 C   0  0  0  0  0  0  0  0  0  0  0  0
  140.0910   69.7690  225.2180 C   0  0  0  0  0  0  0  0  0  0  0  0
  140.1400   68.9020  226.2920 C   0  0  0  0  0  0  0  0  0  0  0  0
  140.6420   69.3060  227.5330 C   0  0  0  0  0  0  0  0  0  0  0  0
  140.6900   68.1750  228.8800 Cl  0  0  0  0  0  0  0  0  0  0  0  0
  141.0930   70.6020  227.6770 C   0  0  0  0  0  0  0  0  0  0  0  0
  141.0360   71.4520  226.5920 C   0  0  0  0  0  0  0  0  0  0  0  0
  140.5450   71.0740  225.3590 C   0  0  0  0  0  0  0  0  0  0  0  0
  140.4890   71.9070  224.3030 N   0  0  0  0  0  0  0  0  0  0  0  0
  139.2770   73.9850  223.1390 H   0  0  0  0  0  0  0  0  0  0  0  0
  139.2558   73.8505  220.1647 H   0  0  0  0  0  0  0  0  0  0  0  0
  138.7411   75.3158  221.2662 H   0  0  0  0  0  0  0  0  0  0  0  0
  140.6583   73.9986  218.0725 H   0  0  0  0  0  0  0  0  0  0  0  0
  140.5093   75.8348  217.7983 H   0  0  0  0  0  0  0  0  0  0  0  0
  142.6768   73.9561  217.0920 H   0  0  0  0  0  0  0  0  0  0  0  0
  141.8041   75.2839  216.1538 H   0  0  0  0  0  0  0  0  0  0  0  0
  144.3186   75.4061  217.1911 H   0  0  0  0  0  0  0  0  0  0  0  0
  143.2316   76.7762  216.6789 H   0  0  0  0  0  0  0  0  0  0  0  0
  144.3804   76.7861  219.0359 H   0  0  0  0  0  0  0  0  0  0  0  0
  142.6573   77.3186  218.8045 H   0  0  0  0  0  0  0  0  0  0  0  0
  143.0678   75.8571  220.7852 H   0  0  0  0  0  0  0  0  0  0  0  0
  143.7860   73.7685  218.8523 H   0  0  0  0  0  0  0  0  0  0  0  0
  142.9761   73.6785  221.8303 H   0  0  0  0  0  0  0  0  0  0  0  0
  141.9170   73.1118  220.5322 H   0  0  0  0  0  0  0  0  0  0  0  0
  143.9604   71.6219  221.7890 H   0  0  0  0  0  0  0  0  0  0  0  0
  143.1669   71.2207  220.2045 H   0  0  0  0  0  0  0  0  0  0  0  0
  145.5910   71.2640  220.3030 H   0  0  0  0  0  0  0  0  0  0  0  0
  146.1982   73.0502  221.4898 H   0  0  0  0  0  0  0  0  0  0  0  0
  146.5867   73.3944  219.7361 H   0  0  0  0  0  0  0  0  0  0  0  0
  144.8270   74.8449  221.5814 H   0  0  0  0  0  0  0  0  0  0  0  0
  145.5194   75.3697  220.0464 H   0  0  0  0  0  0  0  0  0  0  0  0
  139.1484   69.8805  221.9786 H   0  0  0  0  0  0  0  0  0  0  0  0
  139.2194   68.2694  223.8968 H   0  0  0  0  0  0  0  0  0  0  0  0
  139.7762   67.8713  226.1685 H   0  0  0  0  0  0  0  0  0  0  0  0
  141.4914   70.9516  228.6409 H   0  0  0  0  0  0  0  0  0  0  0  0
  141.4001   72.4826  226.7159 H   0  0  0  0  0  0  0  0  0  0  0  0
  1  2  2  0
  2  3  1  0
  3  4  1  0
  4  5  1  0
  5  6  2  0
  5  7  1  0
  7  8  1  0
  8  9  1  0
  9 10  1  0
 10 11  1  0
 11 12  1  0
 12 13  1  0
 13 14  1  0
 14 15  1  0
 15 16  1  0
 16 17  1  0
 17 18  1  0
  2 19  1  0
 19 20  2  0
 20 21  1  0
 21 22  2  0
 22 23  1  0
 23 24  2  0
 24 25  1  0
 24 26  1  0
 26 27  2  0
 27 28  1  0
 28 29  2  0
 12  7  1  0
 18 13  1  0
 29 19  1  0
 28 22  1  0
  3 30  1  0
  4 31  1  0
  4 32  1  0
  8 33  1  0
  8 34  1  0
  9 35  1  0
  9 36  1  0
 10 37  1  0
 10 38  1  0
 11 39  1  0
 11 40  1  0
 12 41  1  1
 13 42  1  0
 14 43  1  0
 14 44  1  0
 15 45  1  0
 15 46  1  0
 16 47  1  0
 17 48  1  0
 17 49  1  0
 18 50  1  0
 18 51  1  0
 20 52  1  0
 21 53  1  0
 23 54  1  0
 26 55  1  0
 27 56  1  0
M  END
>  <smiles>  (47) 
O=C(NCC(=O)N1CCCCC1C1CCNCC1)c1ccc2cc(Cl)ccc2n1

>  <score_type>  (47) 
oracle

>  <origin>  (47) 
autodockgpu

>  <m_score__min__energy>  (47) 
-8.6300000000000008

>  <m_primary>  (47) 
energy

>  <rmsd>  (47) 
1.8336833804250856

>  <m_score__min__rmsd>  (47) 
1.8336833804250856

>  <meeko>  (47) 
{"free_energy": -8.19, "intermolecular_energy": -9.68, "internal_energy": -1.89, "cluster_size": 18, "cluster_id": 2, "rank_in_cluster": 2}

>  <energy>  (47) 
-6.96

>  <cluster_rmsd>  (47) 
0.0

>  <cluster>  (47) 
6

$$$$

     RDKit          3D

 56 59  0  0  0  0  0  0  0  0999 V2000
  140.1010   72.5220  220.8230 O   0  0  0  0  0  0  0  0  0  0  0  0
  139.9050   72.8360  222.0270 C   0  0  0  0  0  0  0  0  0  0  0  0
  139.5910   74.2290  222.3090 N   0  0  0  0  0  0  0  0  0  0  0  0
  139.5420   75.0860  221.1770 C   0  0  0  0  0  0  0  0  0  0  0  0
  140.2300   76.3440  221.1220 C   0  0  0  0  0  0  0  0  0  0  0  0
  141.1490   76.3940  220.1830 O   0  0  0  0  0  0  0  0  0  0  0  0
  140.1250   77.5360  221.8630 N   0  0  0  0  0  0  0  0  0  0  0  0
  139.0410   77.9610  222.6760 C   0  0  0  0  0  0  0  0  0  0  0  0
  139.1720   79.2670  223.3900 C   0  0  0  0  0  0  0  0  0  0  0  0
  140.5420   79.6210  223.8460 C   0  0  0  0  0  0  0  0  0  0  0  0
  141.6180   78.7880  223.1830 C   0  0  0  0  0  0  0  0  0  0  0  0
  141.2870   78.4530  221.7710 C   0  0  2  0  0  0  0  0  0  0  0  0
  141.0640   79.5890  220.8490 C   0  0  0  0  0  0  0  0  0  0  0  0
  141.7480   79.2930  219.5320 C   0  0  0  0  0  0  0  0  0  0  0  0
  141.3830   80.4560  218.6070 C   0  0  0  0  0  0  0  0  0  0  0  0
  140.7700   81.5540  219.3240 N   0  0  0  0  0  0  0  0  0  0  0  0
  141.4620   81.9460  220.5140 C   0  0  0  0  0  0  0  0  0  0  0  0
  141.8240   80.7850  221.4190 C   0  0  0  0  0  0  0  0  0  0  0  0
  139.9770   71.8830  223.1250 C   0  0  0  0  0  0  0  0  0  0  0  0
  139.5300   70.6030  222.8700 C   0  0  0  0  0  0  0  0  0  0  0  0
  139.5730   69.6520  223.8700 C   0  0  0  0  0  0  0  0  0  0  0  0
  140.0760   70.0540  225.1060 C   0  0  0  0  0  0  0  0  0  0  0  0
  140.1310   69.1260  226.1280 C   0  0  0  0  0  0  0  0  0  0  0  0
  140.6240   69.4640  227.3920 C   0  0  0  0  0  0  0  0  0  0  0  0
  140.6800   68.2570  228.6720 Cl  0  0  0  0  0  0  0  0  0  0  0  0
  141.0610   70.7530  227.6120 C   0  0  0  0  0  0  0  0  0  0  0  0
  140.9980   71.6640  226.5780 C   0  0  0  0  0  0  0  0  0  0  0  0
  140.5150   71.3530  225.3240 C   0  0  0  0  0  0  0  0  0  0  0  0
  140.4530   72.2440  224.3170 N   0  0  0  0  0  0  0  0  0  0  0  0
  139.4400   74.4270  223.3030 H   0  0  0  0  0  0  0  0  0  0  0  0
  139.9230   74.4943  220.3316 H   0  0  0  0  0  0  0  0  0  0  0  0
  138.4906   75.4091  221.1894 H   0  0  0  0  0  0  0  0  0  0  0  0
  138.1537   78.0288  222.0294 H   0  0  0  0  0  0  0  0  0  0  0  0
  138.9888   77.2116  223.4795 H   0  0  0  0  0  0  0  0  0  0  0  0
  138.8276   80.0596  222.7095 H   0  0  0  0  0  0  0  0  0  0  0  0
  138.5689   79.1690  224.3047 H   0  0  0  0  0  0  0  0  0  0  0  0
  140.7260   80.6805  223.6144 H   0  0  0  0  0  0  0  0  0  0  0  0
  140.5911   79.4233  224.9270 H   0  0  0  0  0  0  0  0  0  0  0  0
  142.5622   79.3521  223.2002 H   0  0  0  0  0  0  0  0  0  0  0  0
  141.7023   77.8437  223.7408 H   0  0  0  0  0  0  0  0  0  0  0  0
  142.1640   77.9918  221.2933 H   0  0  0  0  0  0  0  0  0  0  0  0
  139.9853   79.7656  220.7256 H   0  0  0  0  0  0  0  0  0  0  0  0
  142.8381   79.2393  219.6692 H   0  0  0  0  0  0  0  0  0  0  0  0
  141.4278   78.3265  219.1157 H   0  0  0  0  0  0  0  0  0  0  0  0
  142.2984   80.8199  218.1174 H   0  0  0  0  0  0  0  0  0  0  0  0
  140.6548   80.0856  217.8704 H   0  0  0  0  0  0  0  0  0  0  0  0
  140.7900   82.3710  218.6740 H   0  0  0  0  0  0  0  0  0  0  0  0
  142.3891   82.4615  220.2228 H   0  0  0  0  0  0  0  0  0  0  0  0
  140.7809   82.5964  221.0824 H   0  0  0  0  0  0  0  0  0  0  0  0
  142.9082   80.6006  221.3967 H   0  0  0  0  0  0  0  0  0  0  0  0
  141.5598   80.9808  222.4687 H   0  0  0  0  0  0  0  0  0  0  0  0
  139.1412   70.3413  221.8748 H   0  0  0  0  0  0  0  0  0  0  0  0
  139.2256   68.6225  223.6987 H   0  0  0  0  0  0  0  0  0  0  0  0
  139.7797   68.1001  225.9435 H   0  0  0  0  0  0  0  0  0  0  0  0
  141.4534   71.0501  228.5957 H   0  0  0  0  0  0  0  0  0  0  0  0
  141.3505   72.6895  226.7628 H   0  0  0  0  0  0  0  0  0  0  0  0
  1  2  2  0
  2  3  1  0
  3  4  1  0
  4  5  1  0
  5  6  2  0
  5  7  1  0
  7  8  1  0
  8  9  1  0
  9 10  1  0
 10 11  1  0
 11 12  1  0
 12 13  1  0
 13 14  1  0
 14 15  1  0
 15 16  1  0
 16 17  1  0
 17 18  1  0
  2 19  1  0
 19 20  2  0
 20 21  1  0
 21 22  2  0
 22 23  1  0
 23 24  2  0
 24 25  1  0
 24 26  1  0
 26 27  2  0
 27 28  1  0
 28 29  2  0
 12  7  1  0
 18 13  1  0
 29 19  1  0
 28 22  1  0
  3 30  1  0
  4 31  1  0
  4 32  1  0
  8 33  1  0
  8 34  1  0
  9 35  1  0
  9 36  1  0
 10 37  1  0
 10 38  1  0
 11 39  1  0
 11 40  1  0
 12 41  1  6
 13 42  1  0
 14 43  1  0
 14 44  1  0
 15 45  1  0
 15 46  1  0
 16 47  1  0
 17 48  1  0
 17 49  1  0
 18 50  1  0
 18 51  1  0
 20 52  1  0
 21 53  1  0
 23 54  1  0
 26 55  1  0
 27 56  1  0
M  END
>  <smiles>  (48) 
O=C(NCC(=O)N1CCCCC1C1CCNCC1)c1ccc2cc(Cl)ccc2n1

>  <score_type>  (48) 
oracle

>  <origin>  (48) 
autodockgpu

>  <m_score__min__energy>  (48) 
-8.6300000000000008

>  <m_primary>  (48) 
energy

>  <rmsd>  (48) 
3.374330396167045

>  <m_score__min__rmsd>  (48) 
3.374330396167045

>  <meeko>  (48) 
{"free_energy": -8.36, "intermolecular_energy": -9.85, "internal_energy": -1.3, "cluster_size": 20, "cluster_id": 1, "rank_in_cluster": 8}

>  <energy>  (48) 
-6.75

>  <cluster_rmsd>  (48) 
0.0

>  <cluster>  (48) 
7

$$$$

     RDKit          3D

 56 59  0  0  0  0  0  0  0  0999 V2000
  140.5090   72.5120  220.7350 O   0  0  0  0  0  0  0  0  0  0  0  0
  140.1880   72.8440  221.9060 C   0  0  0  0  0  0  0  0  0  0  0  0
  139.8250   74.2360  222.1280 N   0  0  0  0  0  0  0  0  0  0  0  0
  139.8760   75.0710  220.9810 C   0  0  0  0  0  0  0  0  0  0  0  0
  141.0990   75.6230  220.4720 C   0  0  0  0  0  0  0  0  0  0  0  0
  142.1100   74.7840  220.5230 O   0  0  0  0  0  0  0  0  0  0  0  0
  141.4410   76.8760  219.9290 N   0  0  0  0  0  0  0  0  0  0  0  0
  142.4140   77.1560  218.9330 C   0  0  0  0  0  0  0  0  0  0  0  0
  142.5820   78.5760  218.4990 C   0  0  0  0  0  0  0  0  0  0  0  0
  141.3450   79.4000  218.4890 C   0  0  0  0  0  0  0  0  0  0  0  0
  140.2120   78.7740  219.2750 C   0  0  0  0  0  0  0  0  0  0  0  0
  140.6950   78.0360  220.4740 C   0  0  2  0  0  0  0  0  0  0  0  0
  141.4660   78.8120  221.4710 C   0  0  0  0  0  0  0  0  0  0  0  0
  141.1660   78.2700  222.8520 C   0  0  0  0  0  0  0  0  0  0  0  0
  142.0750   79.0470  223.8070 C   0  0  0  0  0  0  0  0  0  0  0  0
  142.6940   80.1880  223.1660 N   0  0  0  0  0  0  0  0  0  0  0  0
  141.7930   81.0080  222.4160 C   0  0  0  0  0  0  0  0  0  0  0  0
  140.8930   80.2270  221.4790 C   0  0  0  0  0  0  0  0  0  0  0  0
  140.1650   71.9120  223.0250 C   0  0  0  0  0  0  0  0  0  0  0  0
  139.6320   70.6620  222.7840 C   0  0  0  0  0  0  0  0  0  0  0  0
  139.5820   69.7330  223.8030 C   0  0  0  0  0  0  0  0  0  0  0  0
  140.0840   70.1240  225.0430 C   0  0  0  0  0  0  0  0  0  0  0  0
  140.0480   69.2170  226.0850 C   0  0  0  0  0  0  0  0  0  0  0  0
  140.5340   69.5450  227.3540 C   0  0  0  0  0  0  0  0  0  0  0  0
  140.4730   68.3650  228.6580 Cl  0  0  0  0  0  0  0  0  0  0  0  0
  141.0590   70.8040  227.5590 C   0  0  0  0  0  0  0  0  0  0  0  0
  141.0860   71.6950  226.5060 C   0  0  0  0  0  0  0  0  0  0  0  0
  140.6120   71.3920  225.2460 C   0  0  0  0  0  0  0  0  0  0  0  0
  140.6390   72.2630  224.2210 N   0  0  0  0  0  0  0  0  0  0  0  0
  139.5710   74.4490  223.0970 H   0  0  0  0  0  0  0  0  0  0  0  0
  139.4428   74.4832  220.1583 H   0  0  0  0  0  0  0  0  0  0  0  0
  139.3596   75.9730  221.3412 H   0  0  0  0  0  0  0  0  0  0  0  0
  143.3857   76.8144  219.3192 H   0  0  0  0  0  0  0  0  0  0  0  0
  142.0482   76.6349  218.0360 H   0  0  0  0  0  0  0  0  0  0  0  0
  143.3007   79.0544  219.1806 H   0  0  0  0  0  0  0  0  0  0  0  0
  142.9193   78.5308  217.4530 H   0  0  0  0  0  0  0  0  0  0  0  0
  141.5746   80.3827  218.9268 H   0  0  0  0  0  0  0  0  0  0  0  0
  141.0136   79.4842  217.4435 H   0  0  0  0  0  0  0  0  0  0  0  0
  139.5267   79.5698  219.6020 H   0  0  0  0  0  0  0  0  0  0  0  0
  139.7056   78.0520  218.6175 H   0  0  0  0  0  0  0  0  0  0  0  0
  139.8322   77.7426  221.0900 H   0  0  0  0  0  0  0  0  0  0  0  0
  142.5388   78.7684  221.2318 H   0  0  0  0  0  0  0  0  0  0  0  0
  140.1092   78.4358  223.1081 H   0  0  0  0  0  0  0  0  0  0  0  0
  141.3457   77.1864  222.9112 H   0  0  0  0  0  0  0  0  0  0  0  0
  141.4746   79.4013  224.6579 H   0  0  0  0  0  0  0  0  0  0  0  0
  142.8762   78.3693  224.1369 H   0  0  0  0  0  0  0  0  0  0  0  0
  143.0790   80.7780  223.9360 H   0  0  0  0  0  0  0  0  0  0  0  0
  141.1594   81.5638  223.1228 H   0  0  0  0  0  0  0  0  0  0  0  0
  142.4080   81.6722  221.7910 H   0  0  0  0  0  0  0  0  0  0  0  0
  139.8578   80.2230  221.8508 H   0  0  0  0  0  0  0  0  0  0  0  0
  140.8634   80.6671  220.4713 H   0  0  0  0  0  0  0  0  0  0  0  0
  139.2490   70.4076  221.7847 H   0  0  0  0  0  0  0  0  0  0  0  0
  139.1643   68.7279  223.6437 H   0  0  0  0  0  0  0  0  0  0  0  0
  139.6278   68.2152  225.9121 H   0  0  0  0  0  0  0  0  0  0  0  0
  141.4497   71.0929  228.5459 H   0  0  0  0  0  0  0  0  0  0  0  0
  141.5062   72.6967  226.6795 H   0  0  0  0  0  0  0  0  0  0  0  0
  1  2  2  0
  2  3  1  0
  3  4  1  0
  4  5  1  0
  5  6  2  0
  5  7  1  0
  7  8  1  0
  8  9  1  0
  9 10  1  0
 10 11  1  0
 11 12  1  0
 12 13  1  0
 13 14  1  0
 14 15  1  0
 15 16  1  0
 16 17  1  0
 17 18  1  0
  2 19  1  0
 19 20  2  0
 20 21  1  0
 21 22  2  0
 22 23  1  0
 23 24  2  0
 24 25  1  0
 24 26  1  0
 26 27  2  0
 27 28  1  0
 28 29  2  0
 12  7  1  0
 18 13  1  0
 29 19  1  0
 28 22  1  0
  3 30  1  0
  4 31  1  0
  4 32  1  0
  8 33  1  0
  8 34  1  0
  9 35  1  0
  9 36  1  0
 10 37  1  0
 10 38  1  0
 11 39  1  0
 11 40  1  0
 12 41  1  1
 13 42  1  0
 14 43  1  0
 14 44  1  0
 15 45  1  0
 15 46  1  0
 16 47  1  0
 17 48  1  0
 17 49  1  0
 18 50  1  0
 18 51  1  0
 20 52  1  0
 21 53  1  0
 23 54  1  0
 26 55  1  0
 27 56  1  0
M  END
>  <smiles>  (49) 
O=C(NCC(=O)N1CCCCC1C1CCNCC1)c1ccc2cc(Cl)ccc2n1

>  <score_type>  (49) 
oracle

>  <origin>  (49) 
autodockgpu

>  <m_score__min__energy>  (49) 
-8.6300000000000008

>  <m_primary>  (49) 
energy

>  <rmsd>  (49) 
2.3620951636326852

>  <m_score__min__rmsd>  (49) 
2.3620951636326852

>  <meeko>  (49) 
{"free_energy": -8.34, "intermolecular_energy": -9.84, "internal_energy": -1.4, "cluster_size": 20, "cluster_id": 1, "rank_in_cluster": 9}

>  <energy>  (49) 
-6.59

>  <cluster_rmsd>  (49) 
0.0

>  <cluster>  (49) 
8

$$$$

     RDKit          3D

 56 59  0  0  0  0  0  0  0  0999 V2000
  139.3320   74.0620  222.3380 O   0  0  0  0  0  0  0  0  0  0  0  0
  139.5790   72.8440  222.1370 C   0  0  0  0  0  0  0  0  0  0  0  0
  139.6740   72.4030  220.7540 N   0  0  0  0  0  0  0  0  0  0  0  0
  139.4740   73.4120  219.7750 C   0  0  0  0  0  0  0  0  0  0  0  0
  140.3820   74.5090  219.5910 C   0  0  0  0  0  0  0  0  0  0  0  0
  140.1060   75.5470  220.3500 O   0  0  0  0  0  0  0  0  0  0  0  0
  141.5050   74.7040  218.7660 N   0  0  0  0  0  0  0  0  0  0  0  0
  141.5920   74.5310  217.3590 C   0  0  0  0  0  0  0  0  0  0  0  0
  142.8990   74.8240  216.6970 C   0  0  0  0  0  0  0  0  0  0  0  0
  143.6940   75.9290  217.2940 C   0  0  0  0  0  0  0  0  0  0  0  0
  143.2250   76.3090  218.6830 C   0  0  0  0  0  0  0  0  0  0  0  0
  142.7430   75.1340  219.4600 C   0  0  2  0  0  0  0  0  0  0  0  0
  143.7080   74.0320  219.6730 C   0  0  0  0  0  0  0  0  0  0  0  0
  143.0720   72.9890  220.5670 C   0  0  0  0  0  0  0  0  0  0  0  0
  144.0840   71.8450  220.6500 C   0  0  0  0  0  0  0  0  0  0  0  0
  145.3760   72.2160  220.1130 N   0  0  0  0  0  0  0  0  0  0  0  0
  145.8740   73.4740  220.5800 C   0  0  0  0  0  0  0  0  0  0  0  0
  144.8610   74.5990  220.4990 C   0  0  0  0  0  0  0  0  0  0  0  0
  139.7700   71.8780  223.2110 C   0  0  0  0  0  0  0  0  0  0  0  0
  139.3520   70.5860  222.9690 C   0  0  0  0  0  0  0  0  0  0  0  0
  139.5060   69.6240  223.9460 C   0  0  0  0  0  0  0  0  0  0  0  0
  140.0880   70.0260  225.1470 C   0  0  0  0  0  0  0  0  0  0  0  0
  140.2570   69.0870  226.1460 C   0  0  0  0  0  0  0  0  0  0  0  0
  140.8340   69.4250  227.3740 C   0  0  0  0  0  0  0  0  0  0  0  0
  141.0320   68.2030  228.6240 Cl  0  0  0  0  0  0  0  0  0  0  0  0
  141.2390   70.7260  227.5810 C   0  0  0  0  0  0  0  0  0  0  0  0
  141.0630   71.6490  226.5710 C   0  0  0  0  0  0  0  0  0  0  0  0
  140.4960   71.3380  225.3520 C   0  0  0  0  0  0  0  0  0  0  0  0
  140.3250   72.2400  224.3690 N   0  0  0  0  0  0  0  0  0  0  0  0
  139.8780   71.4040  220.6500 H   0  0  0  0  0  0  0  0  0  0  0  0
  139.4265   72.8913  218.8072 H   0  0  0  0  0  0  0  0  0  0  0  0
  138.5822   73.9250  220.1641 H   0  0  0  0  0  0  0  0  0  0  0  0
  141.3432   73.4817  217.1422 H   0  0  0  0  0  0  0  0  0  0  0  0
  140.9003   75.2801  216.9462 H   0  0  0  0  0  0  0  0  0  0  0  0
  143.5095   73.9098  216.7363 H   0  0  0  0  0  0  0  0  0  0  0  0
  142.6499   75.1527  215.6773 H   0  0  0  0  0  0  0  0  0  0  0  0
  144.7458   75.6124  217.3531 H   0  0  0  0  0  0  0  0  0  0  0  0
  143.5677   76.8118  216.6500 H   0  0  0  0  0  0  0  0  0  0  0  0
  144.0633   76.7712  219.2249 H   0  0  0  0  0  0  0  0  0  0  0  0
  142.3823   77.0074  218.5733 H   0  0  0  0  0  0  0  0  0  0  0  0
  142.5693   75.4365  220.5032 H   0  0  0  0  0  0  0  0  0  0  0  0
  144.0191   73.6135  218.7045 H   0  0  0  0  0  0  0  0  0  0  0  0
  142.8807   73.4056  221.5669 H   0  0  0  0  0  0  0  0  0  0  0  0
  142.1045   72.6482  220.1698 H   0  0  0  0  0  0  0  0  0  0  0  0
  144.2082   71.5581  221.7046 H   0  0  0  0  0  0  0  0  0  0  0  0
  143.6970   71.0085  220.0496 H   0  0  0  0  0  0  0  0  0  0  0  0
  146.0450   71.4820  220.4340 H   0  0  0  0  0  0  0  0  0  0  0  0
  146.1806   73.3579  221.6300 H   0  0  0  0  0  0  0  0  0  0  0  0
  146.7137   73.7501  219.9253 H   0  0  0  0  0  0  0  0  0  0  0  0
  144.5147   74.8809  221.5043 H   0  0  0  0  0  0  0  0  0  0  0  0
  145.2864   75.5071  220.0470 H   0  0  0  0  0  0  0  0  0  0  0  0
  138.8981   70.3239  222.0019 H   0  0  0  0  0  0  0  0  0  0  0  0
  139.1835   68.5849  223.7841 H   0  0  0  0  0  0  0  0  0  0  0  0
  139.9306   68.0511  225.9717 H   0  0  0  0  0  0  0  0  0  0  0  0
  141.6954   71.0237  228.5365 H   0  0  0  0  0  0  0  0  0  0  0  0
  141.3909   72.6843  226.7460 H   0  0  0  0  0  0  0  0  0  0  0  0
  1  2  2  0
  2  3  1  0
  3  4  1  0
  4  5  1  0
  5  6  2  0
  5  7  1  0
  7  8  1  0
  8  9  1  0
  9 10  1  0
 10 11  1  0
 11 12  1  0
 12 13  1  0
 13 14  1  0
 14 15  1  0
 15 16  1  0
 16 17  1  0
 17 18  1  0
  2 19  1  0
 19 20  2  0
 20 21  1  0
 21 22  2  0
 22 23  1  0
 23 24  2  0
 24 25  1  0
 24 26  1  0
 26 27  2  0
 27 28  1  0
 28 29  2  0
 12  7  1  0
 18 13  1  0
 29 19  1  0
 28 22  1  0
  3 30  1  0
  4 31  1  0
  4 32  1  0
  8 33  1  0
  8 34  1  0
  9 35  1  0
  9 36  1  0
 10 37  1  0
 10 38  1  0
 11 39  1  0
 11 40  1  0
 12 41  1  1
 13 42  1  0
 14 43  1  0
 14 44  1  0
 15 45  1  0
 15 46  1  0
 16 47  1  0
 17 48  1  0
 17 49  1  0
 18 50  1  0
 18 51  1  0
 20 52  1  0
 21 53  1  0
 23 54  1  0
 26 55  1  0
 27 56  1  0
M  END
>  <smiles>  (50) 
O=C(NCC(=O)N1CCCCC1C1CCNCC1)c1ccc2cc(Cl)ccc2n1

>  <score_type>  (50) 
oracle

>  <origin>  (50) 
autodockgpu

>  <m_score__min__energy>  (50) 
-8.6300000000000008

>  <m_primary>  (50) 
energy

>  <rmsd>  (50) 
2.1750238853769996

>  <m_score__min__rmsd>  (50) 
2.1750238853769996

>  <meeko>  (50) 
{"free_energy": -7.82, "intermolecular_energy": -9.31, "internal_energy": -1.54, "cluster_size": 18, "cluster_id": 2, "rank_in_cluster": 14}

>  <energy>  (50) 
-6.57

>  <cluster_rmsd>  (50) 
0.09

>  <cluster>  (50) 
8

$$$$

     RDKit          3D

 56 59  0  0  0  0  0  0  0  0999 V2000
  139.9440   74.2100  222.3160 O   0  0  0  0  0  0  0  0  0  0  0  0
  140.0060   72.9900  222.0350 C   0  0  0  0  0  0  0  0  0  0  0  0
  140.0580   72.6070  220.6760 N   0  0  0  0  0  0  0  0  0  0  0  0
  140.0450   73.5610  219.5740 C   0  0  0  0  0  0  0  0  0  0  0  0
  141.1280   73.3140  218.6170 C   0  0  0  0  0  0  0  0  0  0  0  0
  141.3090   72.0520  218.3390 O   0  0  0  0  0  0  0  0  0  0  0  0
  141.9820   74.1830  217.9640 N   0  0  0  0  0  0  0  0  0  0  0  0
  141.2940   74.9050  216.8150 C   0  0  0  0  0  0  0  0  0  0  0  0
  142.1990   75.9190  216.2140 C   0  0  0  0  0  0  0  0  0  0  0  0
  142.9380   76.7830  217.1820 C   0  0  0  0  0  0  0  0  0  0  0  0
  143.2890   76.0450  218.4540 C   0  0  0  0  0  0  0  0  0  0  0  0
  143.3290   74.5280  218.1240 C   0  0  1  0  0  0  0  0  0  0  0  0
  144.2990   73.8100  218.9240 C   0  0  0  0  0  0  0  0  0  0  0  0
  144.1520   72.3930  219.2770 C   0  0  0  0  0  0  0  0  0  0  0  0
  144.2860   72.1870  220.7900 C   0  0  0  0  0  0  0  0  0  0  0  0
  145.5250   72.6500  221.3210 N   0  0  0  0  0  0  0  0  0  0  0  0
  145.7430   74.0070  220.9570 C   0  0  0  0  0  0  0  0  0  0  0  0
  144.5690   74.6070  220.2100 C   0  0  0  0  0  0  0  0  0  0  0  0
  140.0260   71.9480  223.0860 C   0  0  0  0  0  0  0  0  0  0  0  0
  139.5550   70.6840  222.8030 C   0  0  0  0  0  0  0  0  0  0  0  0
  139.5950   69.7450  223.8290 C   0  0  0  0  0  0  0  0  0  0  0  0
  140.0900   70.0680  225.0850 C   0  0  0  0  0  0  0  0  0  0  0  0
  140.1260   69.1280  226.1020 C   0  0  0  0  0  0  0  0  0  0  0  0
  140.6250   69.4850  227.3440 C   0  0  0  0  0  0  0  0  0  0  0  0
  140.6910   68.3410  228.6530 Cl  0  0  0  0  0  0  0  0  0  0  0  0
  141.0840   70.7750  227.5570 C   0  0  0  0  0  0  0  0  0  0  0  0
  141.0610   71.7320  226.5650 C   0  0  0  0  0  0  0  0  0  0  0  0
  140.5590   71.3570  225.3350 C   0  0  0  0  0  0  0  0  0  0  0  0
  140.4990   72.2210  224.3150 N   0  0  0  0  0  0  0  0  0  0  0  0
  140.1080   71.5580  220.4890 H   0  0  0  0  0  0  0  0  0  0  0  0
  139.0822   73.4820  219.0480 H   0  0  0  0  0  0  0  0  0  0  0  0
  140.1886   74.5669  219.9954 H   0  0  0  0  0  0  0  0  0  0  0  0
  141.0117   74.1717  216.0452 H   0  0  0  0  0  0  0  0  0  0  0  0
  140.3999   75.4150  217.2029 H   0  0  0  0  0  0  0  0  0  0  0  0
  142.9414   75.3878  215.6003 H   0  0  0  0  0  0  0  0  0  0  0  0
  141.5500   76.5979  215.6414 H   0  0  0  0  0  0  0  0  0  0  0  0
  143.8668   77.1324  216.7074 H   0  0  0  0  0  0  0  0  0  0  0  0
  142.2837   77.6256  217.4502 H   0  0  0  0  0  0  0  0  0  0  0  0
  144.2727   76.3750  218.8193 H   0  0  0  0  0  0  0  0  0  0  0  0
  142.5433   76.2496  219.2364 H   0  0  0  0  0  0  0  0  0  0  0  0
  143.7887   74.1893  217.1838 H   0  0  0  0  0  0  0  0  0  0  0  0
  145.1220   73.7421  218.1974 H   0  0  0  0  0  0  0  0  0  0  0  0
  143.1611   72.0424  218.9526 H   0  0  0  0  0  0  0  0  0  0  0  0
  144.9465   71.8223  218.7739 H   0  0  0  0  0  0  0  0  0  0  0  0
  143.4694   72.7297  221.2886 H   0  0  0  0  0  0  0  0  0  0  0  0
  144.2411   71.1033  220.9734 H   0  0  0  0  0  0  0  0  0  0  0  0
  146.3220   72.0120  221.2580 H   0  0  0  0  0  0  0  0  0  0  0  0
  145.9153   74.5935  221.8715 H   0  0  0  0  0  0  0  0  0  0  0  0
  146.6140   74.0356  220.2858 H   0  0  0  0  0  0  0  0  0  0  0  0
  143.6758   74.5767  220.8512 H   0  0  0  0  0  0  0  0  0  0  0  0
  144.8045   75.6485  219.9457 H   0  0  0  0  0  0  0  0  0  0  0  0
  139.1637   70.4282  221.8073 H   0  0  0  0  0  0  0  0  0  0  0  0
  139.2268   68.7257  223.6409 H   0  0  0  0  0  0  0  0  0  0  0  0
  139.7610   68.1056  225.9246 H   0  0  0  0  0  0  0  0  0  0  0  0
  141.4788   71.0436  228.5480 H   0  0  0  0  0  0  0  0  0  0  0  0
  141.4278   72.7531  226.7463 H   0  0  0  0  0  0  0  0  0  0  0  0
  1  2  2  0
  2  3  1  0
  3  4  1  0
  4  5  1  0
  5  6  2  0
  5  7  1  0
  7  8  1  0
  8  9  1  0
  9 10  1  0
 10 11  1  0
 11 12  1  0
 12 13  1  0
 13 14  1  0
 14 15  1  0
 15 16  1  0
 16 17  1  0
 17 18  1  0
  2 19  1  0
 19 20  2  0
 20 21  1  0
 21 22  2  0
 22 23  1  0
 23 24  2  0
 24 25  1  0
 24 26  1  0
 26 27  2  0
 27 28  1  0
 28 29  2  0
 12  7  1  0
 18 13  1  0
 29 19  1  0
 28 22  1  0
  3 30  1  0
  4 31  1  0
  4 32  1  0
  8 33  1  0
  8 34  1  0
  9 35  1  0
  9 36  1  0
 10 37  1  0
 10 38  1  0
 11 39  1  0
 11 40  1  0
 12 41  1  6
 13 42  1  0
 14 43  1  0
 14 44  1  0
 15 45  1  0
 15 46  1  0
 16 47  1  0
 17 48  1  0
 17 49  1  0
 18 50  1  0
 18 51  1  0
 20 52  1  0
 21 53  1  0
 23 54  1  0
 26 55  1  0
 27 56  1  0
M  END
>  <smiles>  (51) 
O=C(NCC(=O)N1CCCCC1C1CCNCC1)c1ccc2cc(Cl)ccc2n1

>  <score_type>  (51) 
oracle

>  <origin>  (51) 
autodockgpu

>  <m_score__min__energy>  (51) 
-9.1699999999999999

>  <m_primary>  (51) 
energy

>  <rmsd>  (51) 
2.5898109265912987

>  <m_score__min__rmsd>  (51) 
2.5898109265912987

>  <meeko>  (51) 
{"free_energy": -7.75, "intermolecular_energy": -9.25, "internal_energy": -1.73, "cluster_size": 18, "cluster_id": 3, "rank_in_cluster": 17}

>  <energy>  (51) 
-9.17

>  <cluster_rmsd>  (51) 
0.0

>  <cluster>  (51) 
1

$$$$

     RDKit          3D

 56 59  0  0  0  0  0  0  0  0999 V2000
  140.8550   72.8870  221.0270 O   0  0  0  0  0  0  0  0  0  0  0  0
  140.1180   72.9870  222.0350 C   0  0  0  0  0  0  0  0  0  0  0  0
  139.2730   74.1140  222.1520 N   0  0  0  0  0  0  0  0  0  0  0  0
  139.2120   75.1740  221.1540 C   0  0  0  0  0  0  0  0  0  0  0  0
  140.2290   76.2070  221.3820 C   0  0  0  0  0  0  0  0  0  0  0  0
  141.4530   75.7890  221.2100 O   0  0  0  0  0  0  0  0  0  0  0  0
  140.1120   77.5350  221.7450 N   0  0  0  0  0  0  0  0  0  0  0  0
  138.9530   77.7650  222.7030 C   0  0  0  0  0  0  0  0  0  0  0  0
  138.9290   79.1760  223.1700 C   0  0  0  0  0  0  0  0  0  0  0  0
  140.2460   79.7440  223.5870 C   0  0  0  0  0  0  0  0  0  0  0  0
  141.3910   79.1850  222.7730 C   0  0  0  0  0  0  0  0  0  0  0  0
  140.8140   78.7000  221.4150 C   0  0  1  0  0  0  0  0  0  0  0  0
  141.7580   78.8430  220.3260 C   0  0  0  0  0  0  0  0  0  0  0  0
  142.2000   80.1460  219.8180 C   0  0  0  0  0  0  0  0  0  0  0  0
  142.0110   80.2370  218.3000 C   0  0  0  0  0  0  0  0  0  0  0  0
  142.7030   79.2210  217.5770 N   0  0  0  0  0  0  0  0  0  0  0  0
  142.3510   77.9360  218.0720 C   0  0  0  0  0  0  0  0  0  0  0  0
  141.2760   77.9950  219.1390 C   0  0  0  0  0  0  0  0  0  0  0  0
  140.1090   71.9590  223.1010 C   0  0  0  0  0  0  0  0  0  0  0  0
  139.6200   70.7000  222.8300 C   0  0  0  0  0  0  0  0  0  0  0  0
  139.6320   69.7740  223.8680 C   0  0  0  0  0  0  0  0  0  0  0  0
  140.1190   70.1060  225.1250 C   0  0  0  0  0  0  0  0  0  0  0  0
  140.1280   69.1800  226.1550 C   0  0  0  0  0  0  0  0  0  0  0  0
  140.6200   69.5450  227.3980 C   0  0  0  0  0  0  0  0  0  0  0  0
  140.6510   68.4180  228.7220 Cl  0  0  0  0  0  0  0  0  0  0  0  0
  141.0970   70.8300  227.5980 C   0  0  0  0  0  0  0  0  0  0  0  0
  141.1020   71.7730  226.5940 C   0  0  0  0  0  0  0  0  0  0  0  0
  140.6070   71.3900  225.3630 C   0  0  0  0  0  0  0  0  0  0  0  0
  140.5730   72.2410  224.3310 N   0  0  0  0  0  0  0  0  0  0  0  0
  138.6680   74.1540  223.0290 H   0  0  0  0  0  0  0  0  0  0  0  0
  139.3710   74.7335  220.1587 H   0  0  0  0  0  0  0  0  0  0  0  0
  138.2233   75.6507  221.2266 H   0  0  0  0  0  0  0  0  0  0  0  0
  138.0080   77.5393  222.1872 H   0  0  0  0  0  0  0  0  0  0  0  0
  139.0789   77.1062  223.5748 H   0  0  0  0  0  0  0  0  0  0  0  0
  138.5380   79.7965  222.3502 H   0  0  0  0  0  0  0  0  0  0  0  0
  138.3012   79.1817  224.0732 H   0  0  0  0  0  0  0  0  0  0  0  0
  140.2184   80.8359  223.4568 H   0  0  0  0  0  0  0  0  0  0  0  0
  140.4142   79.4712  224.6393 H   0  0  0  0  0  0  0  0  0  0  0  0
  142.1453   79.9671  222.6014 H   0  0  0  0  0  0  0  0  0  0  0  0
  141.8715   78.3516  223.3065 H   0  0  0  0  0  0  0  0  0  0  0  0
  140.0591   79.3096  220.8968 H   0  0  0  0  0  0  0  0  0  0  0  0
  142.6768   78.5142  220.8337 H   0  0  0  0  0  0  0  0  0  0  0  0
  141.6112   80.9392  220.3019 H   0  0  0  0  0  0  0  0  0  0  0  0
  143.2695   80.2662  220.0456 H   0  0  0  0  0  0  0  0  0  0  0  0
  140.9371   80.1522  218.0775 H   0  0  0  0  0  0  0  0  0  0  0  0
  142.4293   81.2027  217.9800 H   0  0  0  0  0  0  0  0  0  0  0  0
  143.6900   79.3920  217.3710 H   0  0  0  0  0  0  0  0  0  0  0  0
  141.9827   77.3250  217.2347 H   0  0  0  0  0  0  0  0  0  0  0  0
  143.2503   77.4983  218.5300 H   0  0  0  0  0  0  0  0  0  0  0  0
  140.3666   78.4458  218.7150 H   0  0  0  0  0  0  0  0  0  0  0  0
  141.0591   76.9750  219.4891 H   0  0  0  0  0  0  0  0  0  0  0  0
  139.2356   70.4376  221.8333 H   0  0  0  0  0  0  0  0  0  0  0  0
  139.2481   68.7588  223.6893 H   0  0  0  0  0  0  0  0  0  0  0  0
  139.7472   68.1617  225.9874 H   0  0  0  0  0  0  0  0  0  0  0  0
  141.4840   71.1061  228.5900 H   0  0  0  0  0  0  0  0  0  0  0  0
  141.4848   72.7899  226.7658 H   0  0  0  0  0  0  0  0  0  0  0  0
  1  2  2  0
  2  3  1  0
  3  4  1  0
  4  5  1  0
  5  6  2  0
  5  7  1  0
  7  8  1  0
  8  9  1  0
  9 10  1  0
 10 11  1  0
 11 12  1  0
 12 13  1  0
 13 14  1  0
 14 15  1  0
 15 16  1  0
 16 17  1  0
 17 18  1  0
  2 19  1  0
 19 20  2  0
 20 21  1  0
 21 22  2  0
 22 23  1  0
 23 24  2  0
 24 25  1  0
 24 26  1  0
 26 27  2  0
 27 28  1  0
 28 29  2  0
 12  7  1  0
 18 13  1  0
 29 19  1  0
 28 22  1  0
  3 30  1  0
  4 31  1  0
  4 32  1  0
  8 33  1  0
  8 34  1  0
  9 35  1  0
  9 36  1  0
 10 37  1  0
 10 38  1  0
 11 39  1  0
 11 40  1  0
 12 41  1  6
 13 42  1  0
 14 43  1  0
 14 44  1  0
 15 45  1  0
 15 46  1  0
 16 47  1  0
 17 48  1  0
 17 49  1  0
 18 50  1  0
 18 51  1  0
 20 52  1  0
 21 53  1  0
 23 54  1  0
 26 55  1  0
 27 56  1  0
M  END
>  <smiles>  (52) 
O=C(NCC(=O)N1CCCCC1C1CCNCC1)c1ccc2cc(Cl)ccc2n1

>  <score_type>  (52) 
oracle

>  <origin>  (52) 
autodockgpu

>  <m_score__min__energy>  (52) 
-9.1699999999999999

>  <m_primary>  (52) 
energy

>  <rmsd>  (52) 
3.3072882731448003

>  <m_score__min__rmsd>  (52) 
3.3072882731448003

>  <meeko>  (52) 
{"free_energy": -9.0, "intermolecular_energy": -10.49, "internal_energy": -1.2, "cluster_size": 4, "cluster_id": 2, "rank_in_cluster": 1}

>  <energy>  (52) 
-9.15

>  <cluster_rmsd>  (52) 
0.53

>  <cluster>  (52) 
1

$$$$

     RDKit          3D

 56 59  0  0  0  0  0  0  0  0999 V2000
  139.8160   72.7770  220.7140 O   0  0  0  0  0  0  0  0  0  0  0  0
  139.6860   73.0230  221.9360 C   0  0  0  0  0  0  0  0  0  0  0  0
  139.4030   74.3480  222.3370 N   0  0  0  0  0  0  0  0  0  0  0  0
  139.2500   75.4520  221.3980 C   0  0  0  0  0  0  0  0  0  0  0  0
  139.0750   76.7380  222.0810 C   0  0  0  0  0  0  0  0  0  0  0  0
  138.1120   76.7410  222.9620 O   0  0  0  0  0  0  0  0  0  0  0  0
  139.7490   77.9380  221.9520 N   0  0  0  0  0  0  0  0  0  0  0  0
  139.1950   79.0080  222.8800 C   0  0  0  0  0  0  0  0  0  0  0  0
  140.0160   80.2440  222.8070 C   0  0  0  0  0  0  0  0  0  0  0  0
  141.4960   80.0430  222.8480 C   0  0  0  0  0  0  0  0  0  0  0  0
  141.9160   78.7570  222.1730 C   0  0  0  0  0  0  0  0  0  0  0  0
  140.8100   78.3760  221.1510 C   0  0  1  0  0  0  0  0  0  0  0  0
  141.3370   77.6900  219.9900 C   0  0  0  0  0  0  0  0  0  0  0  0
  142.0390   76.4040  220.0720 C   0  0  0  0  0  0  0  0  0  0  0  0
  143.3980   76.4740  219.3680 C   0  0  0  0  0  0  0  0  0  0  0  0
  143.3090   76.8430  217.9930 N   0  0  0  0  0  0  0  0  0  0  0  0
  142.5850   78.0580  217.8540 C   0  0  0  0  0  0  0  0  0  0  0  0
  142.2080   78.6700  219.1880 C   0  0  0  0  0  0  0  0  0  0  0  0
  139.8220   71.9650  222.9630 C   0  0  0  0  0  0  0  0  0  0  0  0
  139.4570   70.6710  222.6620 C   0  0  0  0  0  0  0  0  0  0  0  0
  139.6010   69.7190  223.6660 C   0  0  0  0  0  0  0  0  0  0  0  0
  140.0930   70.0590  224.9180 C   0  0  0  0  0  0  0  0  0  0  0  0
  140.2340   69.1060  225.9140 C   0  0  0  0  0  0  0  0  0  0  0  0
  140.7280   69.4800  227.1530 C   0  0  0  0  0  0  0  0  0  0  0  0
  140.9220   68.3200  228.4350 Cl  0  0  0  0  0  0  0  0  0  0  0  0
  141.0750   70.8020  227.3850 C   0  0  0  0  0  0  0  0  0  0  0  0
  140.9480   71.7720  226.4150 C   0  0  0  0  0  0  0  0  0  0  0  0
  140.4540   71.3790  225.1870 C   0  0  0  0  0  0  0  0  0  0  0  0
  140.2950   72.2550  224.1880 N   0  0  0  0  0  0  0  0  0  0  0  0
  139.3040   74.5060  223.3870 H   0  0  0  0  0  0  0  0  0  0  0  0
  140.1480   75.5061  220.7650 H   0  0  0  0  0  0  0  0  0  0  0  0
  138.3484   75.2626  220.7970 H   0  0  0  0  0  0  0  0  0  0  0  0
  138.1620   79.2429  222.5840 H   0  0  0  0  0  0  0  0  0  0  0  0
  139.2197   78.6279  223.9120 H   0  0  0  0  0  0  0  0  0  0  0  0
  139.7708   80.7573  221.8656 H   0  0  0  0  0  0  0  0  0  0  0  0
  139.7672   80.8225  223.7089 H   0  0  0  0  0  0  0  0  0  0  0  0
  141.9825   80.8868  222.3368 H   0  0  0  0  0  0  0  0  0  0  0  0
  141.8002   79.9856  223.9036 H   0  0  0  0  0  0  0  0  0  0  0  0
  142.8735   78.9031  221.6516 H   0  0  0  0  0  0  0  0  0  0  0  0
  142.0455   77.9566  222.9163 H   0  0  0  0  0  0  0  0  0  0  0  0
  140.3498   79.1596  220.5311 H   0  0  0  0  0  0  0  0  0  0  0  0
  140.3946   77.3648  219.5252 H   0  0  0  0  0  0  0  0  0  0  0  0
  142.1949   76.1462  221.1299 H   0  0  0  0  0  0  0  0  0  0  0  0
  141.4259   75.6379  219.5747 H   0  0  0  0  0  0  0  0  0  0  0  0
  144.0214   77.2163  219.8879 H   0  0  0  0  0  0  0  0  0  0  0  0
  143.8331   75.4644  219.4042 H   0  0  0  0  0  0  0  0  0  0  0  0
  143.1060   76.0950  217.3260 H   0  0  0  0  0  0  0  0  0  0  0  0
  143.2068   78.7768  217.3002 H   0  0  0  0  0  0  0  0  0  0  0  0
  141.6521   77.8294  217.3178 H   0  0  0  0  0  0  0  0  0  0  0  0
  143.1223   78.8941  219.7571 H   0  0  0  0  0  0  0  0  0  0  0  0
  141.6407   79.5959  219.0124 H   0  0  0  0  0  0  0  0  0  0  0  0
  139.0679   70.4019  221.6690 H   0  0  0  0  0  0  0  0  0  0  0  0
  139.3190   68.6753  223.4632 H   0  0  0  0  0  0  0  0  0  0  0  0
  139.9555   68.0593  225.7221 H   0  0  0  0  0  0  0  0  0  0  0  0
  141.4638   71.0852  228.3742 H   0  0  0  0  0  0  0  0  0  0  0  0
  141.2288   72.8174  226.6109 H   0  0  0  0  0  0  0  0  0  0  0  0
  1  2  2  0
  2  3  1  0
  3  4  1  0
  4  5  1  0
  5  6  2  0
  5  7  1  0
  7  8  1  0
  8  9  1  0
  9 10  1  0
 10 11  1  0
 11 12  1  0
 12 13  1  0
 13 14  1  0
 14 15  1  0
 15 16  1  0
 16 17  1  0
 17 18  1  0
  2 19  1  0
 19 20  2  0
 20 21  1  0
 21 22  2  0
 22 23  1  0
 23 24  2  0
 24 25  1  0
 24 26  1  0
 26 27  2  0
 27 28  1  0
 28 29  2  0
 12  7  1  0
 18 13  1  0
 29 19  1  0
 28 22  1  0
  3 30  1  0
  4 31  1  0
  4 32  1  0
  8 33  1  0
  8 34  1  0
  9 35  1  0
  9 36  1  0
 10 37  1  0
 10 38  1  0
 11 39  1  0
 11 40  1  0
 12 41  1  6
 13 42  1  0
 14 43  1  0
 14 44  1  0
 15 45  1  0
 15 46  1  0
 16 47  1  0
 17 48  1  0
 17 49  1  0
 18 50  1  0
 18 51  1  0
 20 52  1  0
 21 53  1  0
 23 54  1  0
 26 55  1  0
 27 56  1  0
M  END
>  <smiles>  (53) 
O=C(NCC(=O)N1CCCCC1C1CCNCC1)c1ccc2cc(Cl)ccc2n1

>  <score_type>  (53) 
oracle

>  <origin>  (53) 
autodockgpu

>  <m_score__min__energy>  (53) 
-9.1699999999999999

>  <m_primary>  (53) 
energy

>  <rmsd>  (53) 
3.421207978866356

>  <m_score__min__rmsd>  (53) 
3.421207978866356

>  <meeko>  (53) 
{"free_energy": -8.37, "intermolecular_energy": -9.86, "internal_energy": -1.66, "cluster_size": 4, "cluster_id": 2, "rank_in_cluster": 4}

>  <energy>  (53) 
-9.12

>  <cluster_rmsd>  (53) 
0.14

>  <cluster>  (53) 
1

$$$$

     RDKit          3D

 56 59  0  0  0  0  0  0  0  0999 V2000
  141.0220   73.9110  221.9650 O   0  0  0  0  0  0  0  0  0  0  0  0
  140.1750   72.9870  221.9600 C   0  0  0  0  0  0  0  0  0  0  0  0
  139.2530   72.9150  220.8900 N   0  0  0  0  0  0  0  0  0  0  0  0
  139.2360   73.8630  219.7840 C   0  0  0  0  0  0  0  0  0  0  0  0
  140.4690   73.8080  218.9910 C   0  0  0  0  0  0  0  0  0  0  0  0
  140.6970   72.6430  218.4490 O   0  0  0  0  0  0  0  0  0  0  0  0
  141.4230   74.7720  218.7230 N   0  0  0  0  0  0  0  0  0  0  0  0
  140.8550   75.9280  217.9120 C   0  0  0  0  0  0  0  0  0  0  0  0
  141.8680   77.0020  217.7470 C   0  0  0  0  0  0  0  0  0  0  0  0
  142.6250   77.3760  218.9790 C   0  0  0  0  0  0  0  0  0  0  0  0
  142.8500   76.1910  219.8920 C   0  0  0  0  0  0  0  0  0  0  0  0
  142.7830   74.9060  219.0230 C   0  0  1  0  0  0  0  0  0  0  0  0
  143.6510   73.8560  219.5150 C   0  0  0  0  0  0  0  0  0  0  0  0
  144.5430   74.0310  220.6660 C   0  0  0  0  0  0  0  0  0  0  0  0
  145.9810   73.6360  220.3120 C   0  0  0  0  0  0  0  0  0  0  0  0
  146.1070   72.2920  219.8540 N   0  0  0  0  0  0  0  0  0  0  0  0
  145.2170   72.0530  218.7720 C   0  0  0  0  0  0  0  0  0  0  0  0
  144.4730   73.3010  218.3410 C   0  0  0  0  0  0  0  0  0  0  0  0
  140.1170   71.9760  223.0400 C   0  0  0  0  0  0  0  0  0  0  0  0
  139.5790   70.7340  222.7830 C   0  0  0  0  0  0  0  0  0  0  0  0
  139.5460   69.8230  223.8350 C   0  0  0  0  0  0  0  0  0  0  0  0
  140.0360   70.1540  225.0900 C   0  0  0  0  0  0  0  0  0  0  0  0
  139.9990   69.2430  226.1340 C   0  0  0  0  0  0  0  0  0  0  0  0
  140.4950   69.6070  227.3760 C   0  0  0  0  0  0  0  0  0  0  0  0
  140.4710   68.4990  228.7160 Cl  0  0  0  0  0  0  0  0  0  0  0  0
  141.0220   70.8750  227.5610 C   0  0  0  0  0  0  0  0  0  0  0  0
  141.0730   71.8020  226.5430 C   0  0  0  0  0  0  0  0  0  0  0  0
  140.5730   71.4210  225.3140 C   0  0  0  0  0  0  0  0  0  0  0  0
  140.5810   72.2580  224.2700 N   0  0  0  0  0  0  0  0  0  0  0  0
  138.5520   72.1130  220.9330 H   0  0  0  0  0  0  0  0  0  0  0  0
  138.3829   73.6297  219.1299 H   0  0  0  0  0  0  0  0  0  0  0  0
  139.1499   74.8749  220.2065 H   0  0  0  0  0  0  0  0  0  0  0  0
  140.5545   75.5597  216.9200 H   0  0  0  0  0  0  0  0  0  0  0  0
  139.9861   76.3407  218.4455 H   0  0  0  0  0  0  0  0  0  0  0  0
  142.5952   76.6671  216.9926 H   0  0  0  0  0  0  0  0  0  0  0  0
  141.3053   77.9017  217.4573 H   0  0  0  0  0  0  0  0  0  0  0  0
  143.6019   77.7865  218.6838 H   0  0  0  0  0  0  0  0  0  0  0  0
  142.0291   78.1187  219.5296 H   0  0  0  0  0  0  0  0  0  0  0  0
  143.8375   76.2688  220.3703 H   0  0  0  0  0  0  0  0  0  0  0  0
  142.0848   76.1623  220.6817 H   0  0  0  0  0  0  0  0  0  0  0  0
  143.2600   74.8960  218.0318 H   0  0  0  0  0  0  0  0  0  0  0  0
  142.8978   73.1869  219.9565 H   0  0  0  0  0  0  0  0  0  0  0  0
  144.5260   75.0860  220.9771 H   0  0  0  0  0  0  0  0  0  0  0  0
  144.1925   73.3826  221.4825 H   0  0  0  0  0  0  0  0  0  0  0  0
  146.3415   74.3087  219.5198 H   0  0  0  0  0  0  0  0  0  0  0  0
  146.5750   73.7198  221.2340 H   0  0  0  0  0  0  0  0  0  0  0  0
  146.1820   71.5650  220.5700 H   0  0  0  0  0  0  0  0  0  0  0  0
  145.7963   71.6754  217.9165 H   0  0  0  0  0  0  0  0  0  0  0  0
  144.4696   71.3209  219.1117 H   0  0  0  0  0  0  0  0  0  0  0  0
  145.1969   74.0610  218.0119 H   0  0  0  0  0  0  0  0  0  0  0  0
  143.7942   73.0484  217.5131 H   0  0  0  0  0  0  0  0  0  0  0  0
  139.1914   70.4729  221.7872 H   0  0  0  0  0  0  0  0  0  0  0  0
  139.1233   68.8213  223.6680 H   0  0  0  0  0  0  0  0  0  0  0  0
  139.5790   68.2384  225.9780 H   0  0  0  0  0  0  0  0  0  0  0  0
  141.4120   71.1503  228.5520 H   0  0  0  0  0  0  0  0  0  0  0  0
  141.4951   72.8051  226.7031 H   0  0  0  0  0  0  0  0  0  0  0  0
  1  2  2  0
  2  3  1  0
  3  4  1  0
  4  5  1  0
  5  6  2  0
  5  7  1  0
  7  8  1  0
  8  9  1  0
  9 10  1  0
 10 11  1  0
 11 12  1  0
 12 13  1  0
 13 14  1  0
 14 15  1  0
 15 16  1  0
 16 17  1  0
 17 18  1  0
  2 19  1  0
 19 20  2  0
 20 21  1  0
 21 22  2  0
 22 23  1  0
 23 24  2  0
 24 25  1  0
 24 26  1  0
 26 27  2  0
 27 28  1  0
 28 29  2  0
 12  7  1  0
 18 13  1  0
 29 19  1  0
 28 22  1  0
  3 30  1  0
  4 31  1  0
  4 32  1  0
  8 33  1  0
  8 34  1  0
  9 35  1  0
  9 36  1  0
 10 37  1  0
 10 38  1  0
 11 39  1  0
 11 40  1  0
 12 41  1  6
 13 42  1  0
 14 43  1  0
 14 44  1  0
 15 45  1  0
 15 46  1  0
 16 47  1  0
 17 48  1  0
 17 49  1  0
 18 50  1  0
 18 51  1  0
 20 52  1  0
 21 53  1  0
 23 54  1  0
 26 55  1  0
 27 56  1  0
M  END
>  <smiles>  (54) 
O=C(NCC(=O)N1CCCCC1C1CCNCC1)c1ccc2cc(Cl)ccc2n1

>  <score_type>  (54) 
oracle

>  <origin>  (54) 
autodockgpu

>  <m_score__min__energy>  (54) 
-9.1699999999999999

>  <m_primary>  (54) 
energy

>  <rmsd>  (54) 
2.313104052219646

>  <m_score__min__rmsd>  (54) 
2.313104052219646

>  <meeko>  (54) 
{"free_energy": -8.29, "intermolecular_energy": -9.79, "internal_energy": -1.61, "cluster_size": 18, "cluster_id": 3, "rank_in_cluster": 15}

>  <energy>  (54) 
-9.1

>  <cluster_rmsd>  (54) 
0.15

>  <cluster>  (54) 
1

$$$$

     RDKit          3D

 56 59  0  0  0  0  0  0  0  0999 V2000
  138.8090   72.2790  220.8000 O   0  0  0  0  0  0  0  0  0  0  0  0
  139.5340   72.4990  221.7980 C   0  0  0  0  0  0  0  0  0  0  0  0
  140.2970   73.6890  221.8360 N   0  0  0  0  0  0  0  0  0  0  0  0
  140.2860   74.6810  220.7690 C   0  0  0  0  0  0  0  0  0  0  0  0
  141.1500   75.8270  221.0710 C   0  0  0  0  0  0  0  0  0  0  0  0
  141.3890   75.9860  222.3440 O   0  0  0  0  0  0  0  0  0  0  0  0
  141.7470   76.7600  220.2440 N   0  0  0  0  0  0  0  0  0  0  0  0
  142.5400   76.1050  219.1240 C   0  0  0  0  0  0  0  0  0  0  0  0
  143.0660   77.1280  218.1830 C   0  0  0  0  0  0  0  0  0  0  0  0
  142.0980   78.1860  217.7690 C   0  0  0  0  0  0  0  0  0  0  0  0
  141.1230   78.5320  218.8720 C   0  0  0  0  0  0  0  0  0  0  0  0
  141.7880   78.1590  220.2250 C   0  0  1  0  0  0  0  0  0  0  0  0
  141.3850   79.0350  221.3050 C   0  0  0  0  0  0  0  0  0  0  0  0
  142.2120   79.2720  222.4930 C   0  0  0  0  0  0  0  0  0  0  0  0
  141.4150   79.0190  223.7770 C   0  0  0  0  0  0  0  0  0  0  0  0
  140.2420   79.8220  223.8870 N   0  0  0  0  0  0  0  0  0  0  0  0
  139.4310   79.6710  222.7290 C   0  0  0  0  0  0  0  0  0  0  0  0
  139.9740   78.6360  221.7650 C   0  0  0  0  0  0  0  0  0  0  0  0
  139.6080   71.5510  222.9320 C   0  0  0  0  0  0  0  0  0  0  0  0
  139.0480   70.2980  222.8120 C   0  0  0  0  0  0  0  0  0  0  0  0
  139.1440   69.4480  223.9090 C   0  0  0  0  0  0  0  0  0  0  0  0
  139.7790   69.8470  225.0770 C   0  0  0  0  0  0  0  0  0  0  0  0
  139.8700   68.9970  226.1670 C   0  0  0  0  0  0  0  0  0  0  0  0
  140.5100   69.4280  227.3180 C   0  0  0  0  0  0  0  0  0  0  0  0
  140.6500   68.3970  228.7120 Cl  0  0  0  0  0  0  0  0  0  0  0  0
  141.0510   70.7030  227.3680 C   0  0  0  0  0  0  0  0  0  0  0  0
  140.9770   71.5710  226.3010 C   0  0  0  0  0  0  0  0  0  0  0  0
  140.3350   71.1230  225.1640 C   0  0  0  0  0  0  0  0  0  0  0  0
  140.2150   71.9000  224.0800 N   0  0  0  0  0  0  0  0  0  0  0  0
  140.8980   73.8280  222.7060 H   0  0  0  0  0  0  0  0  0  0  0  0
  140.6374   74.2070  219.8406 H   0  0  0  0  0  0  0  0  0  0  0  0
  139.2561   75.0524  220.6630 H   0  0  0  0  0  0  0  0  0  0  0  0
  143.3826   75.5463  219.5574 H   0  0  0  0  0  0  0  0  0  0  0  0
  141.8747   75.4256  218.5710 H   0  0  0  0  0  0  0  0  0  0  0  0
  143.9215   77.6230  218.6658 H   0  0  0  0  0  0  0  0  0  0  0  0
  143.3261   76.5835  217.2633 H   0  0  0  0  0  0  0  0  0  0  0  0
  142.6590   79.0917  217.4952 H   0  0  0  0  0  0  0  0  0  0  0  0
  141.5200   77.7998  216.9165 H   0  0  0  0  0  0  0  0  0  0  0  0
  140.8984   79.6086  218.8493 H   0  0  0  0  0  0  0  0  0  0  0  0
  140.1811   77.9793  218.7406 H   0  0  0  0  0  0  0  0  0  0  0  0
  142.8529   78.3822  220.3866 H   0  0  0  0  0  0  0  0  0  0  0  0
  141.4901   80.0078  220.8023 H   0  0  0  0  0  0  0  0  0  0  0  0
  143.0788   78.5953  222.4686 H   0  0  0  0  0  0  0  0  0  0  0  0
  142.5417   80.3214  222.4865 H   0  0  0  0  0  0  0  0  0  0  0  0
  141.1155   77.9608  223.7978 H   0  0  0  0  0  0  0  0  0  0  0  0
  142.0688   79.2848  224.6207 H   0  0  0  0  0  0  0  0  0  0  0  0
  140.3620   80.7670  224.2580 H   0  0  0  0  0  0  0  0  0  0  0  0
  138.4226   79.3641  223.0434 H   0  0  0  0  0  0  0  0  0  0  0  0
  139.4174   80.6380  222.2049 H   0  0  0  0  0  0  0  0  0  0  0  0
  140.0174   77.6581  222.2669 H   0  0  0  0  0  0  0  0  0  0  0  0
  139.3119   78.5765  220.8886 H   0  0  0  0  0  0  0  0  0  0  0  0
  138.5452   69.9824  221.8860 H   0  0  0  0  0  0  0  0  0  0  0  0
  138.7081   68.4398  223.8497 H   0  0  0  0  0  0  0  0  0  0  0  0
  139.4372   67.9869  226.1192 H   0  0  0  0  0  0  0  0  0  0  0  0
  141.5552   71.0321  228.2886 H   0  0  0  0  0  0  0  0  0  0  0  0
  141.4118   72.5801  226.3528 H   0  0  0  0  0  0  0  0  0  0  0  0
  1  2  2  0
  2  3  1  0
  3  4  1  0
  4  5  1  0
  5  6  2  0
  5  7  1  0
  7  8  1  0
  8  9  1  0
  9 10  1  0
 10 11  1  0
 11 12  1  0
 12 13  1  0
 13 14  1  0
 14 15  1  0
 15 16  1  0
 16 17  1  0
 17 18  1  0
  2 19  1  0
 19 20  2  0
 20 21  1  0
 21 22  2  0
 22 23  1  0
 23 24  2  0
 24 25  1  0
 24 26  1  0
 26 27  2  0
 27 28  1  0
 28 29  2  0
 12  7  1  0
 18 13  1  0
 29 19  1  0
 28 22  1  0
  3 30  1  0
  4 31  1  0
  4 32  1  0
  8 33  1  0
  8 34  1  0
  9 35  1  0
  9 36  1  0
 10 37  1  0
 10 38  1  0
 11 39  1  0
 11 40  1  0
 12 41  1  6
 13 42  1  0
 14 43  1  0
 14 44  1  0
 15 45  1  0
 15 46  1  0
 16 47  1  0
 17 48  1  0
 17 49  1  0
 18 50  1  0
 18 51  1  0
 20 52  1  0
 21 53  1  0
 23 54  1  0
 26 55  1  0
 27 56  1  0
M  END
>  <smiles>  (55) 
O=C(NCC(=O)N1CCCCC1C1CCNCC1)c1ccc2cc(Cl)ccc2n1

>  <score_type>  (55) 
oracle

>  <origin>  (55) 
autodockgpu

>  <m_score__min__energy>  (55) 
-9.1699999999999999

>  <m_primary>  (55) 
energy

>  <rmsd>  (55) 
2.083810266470287

>  <m_score__min__rmsd>  (55) 
2.083810266470287

>  <meeko>  (55) 
{"free_energy": -7.89, "intermolecular_energy": -9.38, "internal_energy": -2.11, "cluster_size": 18, "cluster_id": 1, "rank_in_cluster": 16}

>  <energy>  (55) 
-9.08

>  <cluster_rmsd>  (55) 
0.37

>  <cluster>  (55) 
1

$$$$

     RDKit          3D

 56 59  0  0  0  0  0  0  0  0999 V2000
  141.2530   81.8660  218.8560 O   0  0  0  0  0  0  0  0  0  0  0  0
  140.7210   80.8650  219.3920 C   0  0  0  0  0  0  0  0  0  0  0  0
  139.4630   81.0170  220.0200 N   0  0  0  0  0  0  0  0  0  0  0  0
  138.7460   82.2850  220.0770 C   0  0  0  0  0  0  0  0  0  0  0  0
  138.5940   82.7720  221.4530 C   0  0  0  0  0  0  0  0  0  0  0  0
  138.7090   84.0660  221.5700 O   0  0  0  0  0  0  0  0  0  0  0  0
  138.3540   82.0980  222.6350 N   0  0  0  0  0  0  0  0  0  0  0  0
  137.2770   82.7760  223.4700 C   0  0  0  0  0  0  0  0  0  0  0  0
  136.9540   81.9640  224.6720 C   0  0  0  0  0  0  0  0  0  0  0  0
  136.7780   80.5000  224.4380 C   0  0  0  0  0  0  0  0  0  0  0  0
  137.6780   79.9850  223.3370 C   0  0  0  0  0  0  0  0  0  0  0  0
  138.8900   80.9490  223.2280 C   0  0  1  0  0  0  0  0  0  0  0  0
  140.1050   80.2730  222.8220 C   0  0  0  0  0  0  0  0  0  0  0  0
  140.4700   78.9340  223.2980 C   0  0  0  0  0  0  0  0  0  0  0  0
  141.8860   78.9260  223.8830 C   0  0  0  0  0  0  0  0  0  0  0  0
  142.8860   79.3590  222.9630 N   0  0  0  0  0  0  0  0  0  0  0  0
  142.5480   80.6310  222.4280 C   0  0  0  0  0  0  0  0  0  0  0  0
  141.2970   81.2140  223.0530 C   0  0  0  0  0  0  0  0  0  0  0  0
  141.3720   79.5360  219.3810 C   0  0  0  0  0  0  0  0  0  0  0  0
  142.3750   79.2750  218.4730 C   0  0  0  0  0  0  0  0  0  0  0  0
  142.9500   78.0080  218.5060 C   0  0  0  0  0  0  0  0  0  0  0  0
  142.5310   77.0480  219.4160 C   0  0  0  0  0  0  0  0  0  0  0  0
  143.1070   75.7890  219.4420 C   0  0  0  0  0  0  0  0  0  0  0  0
  142.6630   74.8540  220.3640 C   0  0  0  0  0  0  0  0  0  0  0  0
  143.3550   73.2590  220.4360 Cl  0  0  0  0  0  0  0  0  0  0  0  0
  141.6500   75.1870  221.2490 C   0  0  0  0  0  0  0  0  0  0  0  0
  141.0580   76.4310  221.2470 C   0  0  0  0  0  0  0  0  0  0  0  0
  141.5140   77.3480  220.3210 C   0  0  0  0  0  0  0  0  0  0  0  0
  140.9950   78.5800  220.2480 N   0  0  0  0  0  0  0  0  0  0  0  0
  139.0540   80.1370  220.4620 H   0  0  0  0  0  0  0  0  0  0  0  0
  139.3032   83.0340  219.4952 H   0  0  0  0  0  0  0  0  0  0  0  0
  137.7402   82.1243  219.6615 H   0  0  0  0  0  0  0  0  0  0  0  0
  137.6369   83.7653  223.7889 H   0  0  0  0  0  0  0  0  0  0  0  0
  136.3684   82.8787  222.8585 H   0  0  0  0  0  0  0  0  0  0  0  0
  137.7710   82.0943  225.3970 H   0  0  0  0  0  0  0  0  0  0  0  0
  135.9791   82.3295  225.0268 H   0  0  0  0  0  0  0  0  0  0  0  0
  137.0128   79.9619  225.3682 H   0  0  0  0  0  0  0  0  0  0  0  0
  135.7359   80.3303  224.1293 H   0  0  0  0  0  0  0  0  0  0  0  0
  138.0268   78.9709  223.5819 H   0  0  0  0  0  0  0  0  0  0  0  0
  137.1330   79.9421  222.3825 H   0  0  0  0  0  0  0  0  0  0  0  0
  139.3598   81.3349  224.1447 H   0  0  0  0  0  0  0  0  0  0  0  0
  139.8478   80.0425  221.7776 H   0  0  0  0  0  0  0  0  0  0  0  0
  139.7576   78.6223  224.0761 H   0  0  0  0  0  0  0  0  0  0  0  0
  140.4390   78.2388  222.4461 H   0  0  0  0  0  0  0  0  0  0  0  0
  141.9050   79.5936  224.7570 H   0  0  0  0  0  0  0  0  0  0  0  0
  142.1201   77.8842  224.1473 H   0  0  0  0  0  0  0  0  0  0  0  0
  143.2510   78.6570  222.3140 H   0  0  0  0  0  0  0  0  0  0  0  0
  143.3853   81.3217  222.6064 H   0  0  0  0  0  0  0  0  0  0  0  0
  142.3522   80.4984  221.3537 H   0  0  0  0  0  0  0  0  0  0  0  0
  141.4557   81.3418  224.1340 H   0  0  0  0  0  0  0  0  0  0  0  0
  141.0825   82.1880  222.5890 H   0  0  0  0  0  0  0  0  0  0  0  0
  142.7074   80.0364  217.7520 H   0  0  0  0  0  0  0  0  0  0  0  0
  143.7534   77.7626  217.7958 H   0  0  0  0  0  0  0  0  0  0  0  0
  143.9109   75.5328  218.7363 H   0  0  0  0  0  0  0  0  0  0  0  0
  141.3081   74.4350  221.9754 H   0  0  0  0  0  0  0  0  0  0  0  0
  140.2545   76.6835  221.9545 H   0  0  0  0  0  0  0  0  0  0  0  0
  1  2  2  0
  2  3  1  0
  3  4  1  0
  4  5  1  0
  5  6  2  0
  5  7  1  0
  7  8  1  0
  8  9  1  0
  9 10  1  0
 10 11  1  0
 11 12  1  0
 12 13  1  0
 13 14  1  0
 14 15  1  0
 15 16  1  0
 16 17  1  0
 17 18  1  0
  2 19  1  0
 19 20  2  0
 20 21  1  0
 21 22  2  0
 22 23  1  0
 23 24  2  0
 24 25  1  0
 24 26  1  0
 26 27  2  0
 27 28  1  0
 28 29  2  0
 12  7  1  0
 18 13  1  0
 29 19  1  0
 28 22  1  0
  3 30  1  0
  4 31  1  0
  4 32  1  0
  8 33  1  0
  8 34  1  0
  9 35  1  0
  9 36  1  0
 10 37  1  0
 10 38  1  0
 11 39  1  0
 11 40  1  0
 12 41  1  1
 13 42  1  0
 14 43  1  0
 14 44  1  0
 15 45  1  0
 15 46  1  0
 16 47  1  0
 17 48  1  0
 17 49  1  0
 18 50  1  0
 18 51  1  0
 20 52  1  0
 21 53  1  0
 23 54  1  0
 26 55  1  0
 27 56  1  0
M  END
>  <smiles>  (56) 
O=C(NCC(=O)N1CCCCC1C1CCNCC1)c1ccc2cc(Cl)ccc2n1

>  <score_type>  (56) 
oracle

>  <origin>  (56) 
autodockgpu

>  <m_score__min__energy>  (56) 
-9.1699999999999999

>  <m_primary>  (56) 
energy

>  <rmsd>  (56) 
9.273613945190538

>  <m_score__min__rmsd>  (56) 
9.273613945190538

>  <meeko>  (56) 
{"free_energy": -6.58, "intermolecular_energy": -8.07, "internal_energy": -2.92, "cluster_size": 5, "cluster_id": 8, "rank_in_cluster": 3}

>  <energy>  (56) 
-8.68

>  <cluster_rmsd>  (56) 
0.66

>  <cluster>  (56) 
1

$$$$

     RDKit          3D

 56 59  0  0  0  0  0  0  0  0999 V2000
  139.2980   72.1060  220.8040 O   0  0  0  0  0  0  0  0  0  0  0  0
  139.4180   72.4530  222.0020 C   0  0  0  0  0  0  0  0  0  0  0  0
  139.3670   73.8300  222.3200 N   0  0  0  0  0  0  0  0  0  0  0  0
  139.1800   74.8750  221.3210 C   0  0  0  0  0  0  0  0  0  0  0  0
  140.3900   75.6820  221.1330 C   0  0  0  0  0  0  0  0  0  0  0  0
  140.7740   76.3140  222.2080 O   0  0  0  0  0  0  0  0  0  0  0  0
  141.1840   75.8860  220.0210 N   0  0  0  0  0  0  0  0  0  0  0  0
  140.4980   76.7600  218.9810 C   0  0  0  0  0  0  0  0  0  0  0  0
  141.4210   77.0620  217.8560 C   0  0  0  0  0  0  0  0  0  0  0  0
  142.8040   77.4690  218.2440 C   0  0  0  0  0  0  0  0  0  0  0  0
  143.2720   76.7750  219.5040 C   0  0  0  0  0  0  0  0  0  0  0  0
  142.4620   75.4570  219.6450 C   0  0  1  0  0  0  0  0  0  0  0  0
  143.2230   74.4010  220.2800 C   0  0  0  0  0  0  0  0  0  0  0  0
  144.6800   74.2800  220.1530 C   0  0  0  0  0  0  0  0  0  0  0  0
  145.0760   72.8760  219.6860 C   0  0  0  0  0  0  0  0  0  0  0  0
  144.6180   71.8370  220.5490 N   0  0  0  0  0  0  0  0  0  0  0  0
  143.2150   71.9460  220.7500 C   0  0  0  0  0  0  0  0  0  0  0  0
  142.5890   73.0490  219.9210 C   0  0  0  0  0  0  0  0  0  0  0  0
  139.6090   71.4640  223.0860 C   0  0  0  0  0  0  0  0  0  0  0  0
  139.2420   70.1510  222.8840 C   0  0  0  0  0  0  0  0  0  0  0  0
  139.4410   69.2640  223.9380 C   0  0  0  0  0  0  0  0  0  0  0  0
  139.9860   69.6860  225.1430 C   0  0  0  0  0  0  0  0  0  0  0  0
  140.1800   68.7980  226.1880 C   0  0  0  0  0  0  0  0  0  0  0  0
  140.7270   69.2530  227.3780 C   0  0  0  0  0  0  0  0  0  0  0  0
  140.9890   68.1770  228.7190 Cl  0  0  0  0  0  0  0  0  0  0  0  0
  141.0730   70.5880  227.5100 C   0  0  0  0  0  0  0  0  0  0  0  0
  140.8920   71.4950  226.4880 C   0  0  0  0  0  0  0  0  0  0  0  0
  140.3470   71.0220  225.3110 C   0  0  0  0  0  0  0  0  0  0  0  0
  140.1350   71.8330  224.2680 N   0  0  0  0  0  0  0  0  0  0  0  0
  139.4760   74.0740  223.3520 H   0  0  0  0  0  0  0  0  0  0  0  0
  138.9143   74.4056  220.3623 H   0  0  0  0  0  0  0  0  0  0  0  0
  138.3798   75.5419  221.6744 H   0  0  0  0  0  0  0  0  0  0  0  0
  139.6150   76.2321  218.5916 H   0  0  0  0  0  0  0  0  0  0  0  0
  140.1989   77.7059  219.4562 H   0  0  0  0  0  0  0  0  0  0  0  0
  141.4971   76.1606  217.2302 H   0  0  0  0  0  0  0  0  0  0  0  0
  140.9876   77.9300  217.3376 H   0  0  0  0  0  0  0  0  0  0  0  0
  143.4913   77.2149  217.4236 H   0  0  0  0  0  0  0  0  0  0  0  0
  142.7952   78.5517  218.4384 H   0  0  0  0  0  0  0  0  0  0  0  0
  144.3460   76.5488  219.4304 H   0  0  0  0  0  0  0  0  0  0  0  0
  143.1143   77.4202  220.3808 H   0  0  0  0  0  0  0  0  0  0  0  0
  142.2687   74.8415  218.7541 H   0  0  0  0  0  0  0  0  0  0  0  0
  143.1476   74.7239  221.3288 H   0  0  0  0  0  0  0  0  0  0  0  0
  145.0396   75.0175  219.4203 H   0  0  0  0  0  0  0  0  0  0  0  0
  145.1338   74.4624  221.1383 H   0  0  0  0  0  0  0  0  0  0  0  0
  144.6509   72.7095  218.6852 H   0  0  0  0  0  0  0  0  0  0  0  0
  146.1752   72.8341  219.6858 H   0  0  0  0  0  0  0  0  0  0  0  0
  145.1960   71.6270  221.3660 H   0  0  0  0  0  0  0  0  0  0  0  0
  142.7450   70.9900  220.4759 H   0  0  0  0  0  0  0  0  0  0  0  0
  143.0494   72.1921  221.8093 H   0  0  0  0  0  0  0  0  0  0  0  0
  142.7547   72.8411  218.8536 H   0  0  0  0  0  0  0  0  0  0  0  0
  141.5099   73.0896  220.1304 H   0  0  0  0  0  0  0  0  0  0  0  0
  138.8096   69.8177  221.9290 H   0  0  0  0  0  0  0  0  0  0  0  0
  139.1608   68.2076  223.8137 H   0  0  0  0  0  0  0  0  0  0  0  0
  139.9022   67.7397  226.0747 H   0  0  0  0  0  0  0  0  0  0  0  0
  141.5056   70.9349  228.4600 H   0  0  0  0  0  0  0  0  0  0  0  0
  141.1705   72.5527  226.6054 H   0  0  0  0  0  0  0  0  0  0  0  0
  1  2  2  0
  2  3  1  0
  3  4  1  0
  4  5  1  0
  5  6  2  0
  5  7  1  0
  7  8  1  0
  8  9  1  0
  9 10  1  0
 10 11  1  0
 11 12  1  0
 12 13  1  0
 13 14  1  0
 14 15  1  0
 15 16  1  0
 16 17  1  0
 17 18  1  0
  2 19  1  0
 19 20  2  0
 20 21  1  0
 21 22  2  0
 22 23  1  0
 23 24  2  0
 24 25  1  0
 24 26  1  0
 26 27  2  0
 27 28  1  0
 28 29  2  0
 12  7  1  0
 18 13  1  0
 29 19  1  0
 28 22  1  0
  3 30  1  0
  4 31  1  0
  4 32  1  0
  8 33  1  0
  8 34  1  0
  9 35  1  0
  9 36  1  0
 10 37  1  0
 10 38  1  0
 11 39  1  0
 11 40  1  0
 12 41  1  6
 13 42  1  0
 14 43  1  0
 14 44  1  0
 15 45  1  0
 15 46  1  0
 16 47  1  0
 17 48  1  0
 17 49  1  0
 18 50  1  0
 18 51  1  0
 20 52  1  0
 21 53  1  0
 23 54  1  0
 26 55  1  0
 27 56  1  0
M  END
>  <smiles>  (57) 
O=C(NCC(=O)N1CCCCC1C1CCNCC1)c1ccc2cc(Cl)ccc2n1

>  <score_type>  (57) 
oracle

>  <origin>  (57) 
autodockgpu

>  <m_score__min__energy>  (57) 
-9.1699999999999999

>  <m_primary>  (57) 
energy

>  <rmsd>  (57) 
1.8461415960218974

>  <m_score__min__rmsd>  (57) 
1.8461415960218974

>  <meeko>  (57) 
{"free_energy": -8.31, "intermolecular_energy": -9.8, "internal_energy": -2.01, "cluster_size": 18, "cluster_id": 3, "rank_in_cluster": 13}

>  <energy>  (57) 
-8.66

>  <cluster_rmsd>  (57) 
0.58

>  <cluster>  (57) 
1

$$$$

     RDKit          3D

 56 59  0  0  0  0  0  0  0  0999 V2000
  140.9150   72.4810  221.1850 O   0  0  0  0  0  0  0  0  0  0  0  0
  140.1190   72.5750  222.1480 C   0  0  0  0  0  0  0  0  0  0  0  0
  139.2230   73.6670  222.1860 N   0  0  0  0  0  0  0  0  0  0  0  0
  139.1730   74.6970  221.1570 C   0  0  0  0  0  0  0  0  0  0  0  0
  140.4340   75.4390  221.0570 C   0  0  0  0  0  0  0  0  0  0  0  0
  140.8820   75.8770  222.2020 O   0  0  0  0  0  0  0  0  0  0  0  0
  141.2220   75.7520  219.9650 N   0  0  0  0  0  0  0  0  0  0  0  0
  140.5090   76.6800  218.9930 C   0  0  0  0  0  0  0  0  0  0  0  0
  141.4220   77.0960  217.8970 C   0  0  0  0  0  0  0  0  0  0  0  0
  142.7930   77.5150  218.3180 C   0  0  0  0  0  0  0  0  0  0  0  0
  143.2810   76.7420  219.5230 C   0  0  0  0  0  0  0  0  0  0  0  0
  142.5130   75.3930  219.5620 C   0  0  1  0  0  0  0  0  0  0  0  0
  143.3070   74.3170  220.1170 C   0  0  0  0  0  0  0  0  0  0  0  0
  144.7230   74.4690  220.4700 C   0  0  0  0  0  0  0  0  0  0  0  0
  145.5740   73.3760  219.8130 C   0  0  0  0  0  0  0  0  0  0  0  0
  145.1700   72.0530  220.1610 N   0  0  0  0  0  0  0  0  0  0  0  0
  143.7860   71.8730  219.8910 C   0  0  0  0  0  0  0  0  0  0  0  0
  143.1600   73.0780  219.2200 C   0  0  0  0  0  0  0  0  0  0  0  0
  140.0940   71.5750  223.2400 C   0  0  0  0  0  0  0  0  0  0  0  0
  139.5610   70.3260  223.0090 C   0  0  0  0  0  0  0  0  0  0  0  0
  139.5600   69.4270  224.0720 C   0  0  0  0  0  0  0  0  0  0  0  0
  140.0760   69.7760  225.3120 C   0  0  0  0  0  0  0  0  0  0  0  0
  140.0710   68.8760  226.3660 C   0  0  0  0  0  0  0  0  0  0  0  0
  140.5930   69.2570  227.5910 C   0  0  0  0  0  0  0  0  0  0  0  0
  140.6100   68.1640  228.9440 Cl  0  0  0  0  0  0  0  0  0  0  0  0
  141.1150   70.5320  227.7510 C   0  0  0  0  0  0  0  0  0  0  0  0
  141.1340   71.4480  226.7220 C   0  0  0  0  0  0  0  0  0  0  0  0
  140.6090   71.0490  225.5090 C   0  0  0  0  0  0  0  0  0  0  0  0
  140.5850   71.8740  224.4560 N   0  0  0  0  0  0  0  0  0  0  0  0
  138.5680   73.7030  223.0270 H   0  0  0  0  0  0  0  0  0  0  0  0
  138.9642   74.2203  220.1879 H   0  0  0  0  0  0  0  0  0  0  0  0
  138.3812   75.4102  221.4300 H   0  0  0  0  0  0  0  0  0  0  0  0
  139.6435   76.1554  218.5622 H   0  0  0  0  0  0  0  0  0  0  0  0
  140.1797   77.5769  219.5380 H   0  0  0  0  0  0  0  0  0  0  0  0
  141.5259   76.2482  217.2039 H   0  0  0  0  0  0  0  0  0  0  0  0
  140.9617   77.9877  217.4464 H   0  0  0  0  0  0  0  0  0  0  0  0
  143.4879   77.3446  217.4824 H   0  0  0  0  0  0  0  0  0  0  0  0
  142.7517   78.5792  218.5931 H   0  0  0  0  0  0  0  0  0  0  0  0
  144.3616   76.5554  219.4358 H   0  0  0  0  0  0  0  0  0  0  0  0
  143.1020   77.3137  220.4455 H   0  0  0  0  0  0  0  0  0  0  0  0
  142.3388   74.8401  218.6271 H   0  0  0  0  0  0  0  0  0  0  0  0
  142.8630   74.2610  221.1219 H   0  0  0  0  0  0  0  0  0  0  0  0
  145.0753   75.4533  220.1279 H   0  0  0  0  0  0  0  0  0  0  0  0
  144.8230   74.3817  221.5620 H   0  0  0  0  0  0  0  0  0  0  0  0
  145.5000   73.4866  218.7211 H   0  0  0  0  0  0  0  0  0  0  0  0
  146.6039   73.5057  220.1771 H   0  0  0  0  0  0  0  0  0  0  0  0
  145.5310   71.6760  221.0410 H   0  0  0  0  0  0  0  0  0  0  0  0
  143.6666   71.0011  219.2310 H   0  0  0  0  0  0  0  0  0  0  0  0
  143.2757   71.7267  220.8544 H   0  0  0  0  0  0  0  0  0  0  0  0
  143.6636   73.2622  218.2596 H   0  0  0  0  0  0  0  0  0  0  0  0
  142.0912   72.8810  219.0502 H   0  0  0  0  0  0  0  0  0  0  0  0
  139.1531   70.0503  222.0253 H   0  0  0  0  0  0  0  0  0  0  0  0
  139.1419   68.4201  223.9261 H   0  0  0  0  0  0  0  0  0  0  0  0
  139.6555   67.8665  226.2306 H   0  0  0  0  0  0  0  0  0  0  0  0
  141.5265   70.8207  228.7295 H   0  0  0  0  0  0  0  0  0  0  0  0
  141.5506   72.4565  226.8613 H   0  0  0  0  0  0  0  0  0  0  0  0
  1  2  2  0
  2  3  1  0
  3  4  1  0
  4  5  1  0
  5  6  2  0
  5  7  1  0
  7  8  1  0
  8  9  1  0
  9 10  1  0
 10 11  1  0
 11 12  1  0
 12 13  1  0
 13 14  1  0
 14 15  1  0
 15 16  1  0
 16 17  1  0
 17 18  1  0
  2 19  1  0
 19 20  2  0
 20 21  1  0
 21 22  2  0
 22 23  1  0
 23 24  2  0
 24 25  1  0
 24 26  1  0
 26 27  2  0
 27 28  1  0
 28 29  2  0
 12  7  1  0
 18 13  1  0
 29 19  1  0
 28 22  1  0
  3 30  1  0
  4 31  1  0
  4 32  1  0
  8 33  1  0
  8 34  1  0
  9 35  1  0
  9 36  1  0
 10 37  1  0
 10 38  1  0
 11 39  1  0
 11 40  1  0
 12 41  1  6
 13 42  1  0
 14 43  1  0
 14 44  1  0
 15 45  1  0
 15 46  1  0
 16 47  1  0
 17 48  1  0
 17 49  1  0
 18 50  1  0
 18 51  1  0
 20 52  1  0
 21 53  1  0
 23 54  1  0
 26 55  1  0
 27 56  1  0
M  END
>  <smiles>  (58) 
O=C(NCC(=O)N1CCCCC1C1CCNCC1)c1ccc2cc(Cl)ccc2n1

>  <score_type>  (58) 
oracle

>  <origin>  (58) 
autodockgpu

>  <m_score__min__energy>  (58) 
-9.1699999999999999

>  <m_primary>  (58) 
energy

>  <rmsd>  (58) 
1.8950324979635167

>  <m_score__min__rmsd>  (58) 
1.8950324979635167

>  <meeko>  (58) 
{"free_energy": -8.72, "intermolecular_energy": -10.22, "internal_energy": -1.69, "cluster_size": 18, "cluster_id": 3, "rank_in_cluster": 3}

>  <energy>  (58) 
-8.26

>  <cluster_rmsd>  (58) 
0.65

>  <cluster>  (58) 
1

$$$$

     RDKit          3D

 56 59  0  0  0  0  0  0  0  0999 V2000
  139.0420   72.1250  220.8610 O   0  0  0  0  0  0  0  0  0  0  0  0
  139.2870   72.4800  222.0380 C   0  0  0  0  0  0  0  0  0  0  0  0
  139.3420   73.8610  222.3340 N   0  0  0  0  0  0  0  0  0  0  0  0
  139.1250   74.9020  221.3380 C   0  0  0  0  0  0  0  0  0  0  0  0
  140.2990   75.7670  221.1780 C   0  0  0  0  0  0  0  0  0  0  0  0
  140.5750   76.4820  222.2340 O   0  0  0  0  0  0  0  0  0  0  0  0
  141.1540   75.9540  220.1080 N   0  0  0  0  0  0  0  0  0  0  0  0
  140.5510   76.8600  219.0460 C   0  0  0  0  0  0  0  0  0  0  0  0
  141.5380   77.1400  217.9710 C   0  0  0  0  0  0  0  0  0  0  0  0
  142.9140   77.4940  218.4300 C   0  0  0  0  0  0  0  0  0  0  0  0
  143.2940   76.7720  219.7040 C   0  0  0  0  0  0  0  0  0  0  0  0
  142.4330   75.4820  219.7910 C   0  0  1  0  0  0  0  0  0  0  0  0
  143.1250   74.3950  220.4510 C   0  0  0  0  0  0  0  0  0  0  0  0
  144.5860   74.2630  220.4540 C   0  0  0  0  0  0  0  0  0  0  0  0
  145.0140   72.8740  219.9690 C   0  0  0  0  0  0  0  0  0  0  0  0
  144.4700   71.8070  220.7440 N   0  0  0  0  0  0  0  0  0  0  0  0
  143.0560   71.9230  220.8200 C   0  0  0  0  0  0  0  0  0  0  0  0
  142.5170   73.0640  219.9820 C   0  0  0  0  0  0  0  0  0  0  0  0
  139.5190   71.4950  223.1180 C   0  0  0  0  0  0  0  0  0  0  0  0
  139.1900   70.1720  222.9180 C   0  0  0  0  0  0  0  0  0  0  0  0
  139.4250   69.2900  223.9680 C   0  0  0  0  0  0  0  0  0  0  0  0
  139.9710   69.7260  225.1670 C   0  0  0  0  0  0  0  0  0  0  0  0
  140.2020   68.8430  226.2090 C   0  0  0  0  0  0  0  0  0  0  0  0
  140.7470   69.3110  227.3940 C   0  0  0  0  0  0  0  0  0  0  0  0
  141.0560   68.2420  228.7300 Cl  0  0  0  0  0  0  0  0  0  0  0  0
  141.0550   70.6570  227.5250 C   0  0  0  0  0  0  0  0  0  0  0  0
  140.8370   71.5590  226.5070 C   0  0  0  0  0  0  0  0  0  0  0  0
  140.2930   71.0720  225.3350 C   0  0  0  0  0  0  0  0  0  0  0  0
  140.0460   71.8780  224.2950 N   0  0  0  0  0  0  0  0  0  0  0  0
  139.5570   74.1120  223.3480 H   0  0  0  0  0  0  0  0  0  0  0  0
  138.9003   74.4269  220.3717 H   0  0  0  0  0  0  0  0  0  0  0  0
  138.2875   75.5280  221.6797 H   0  0  0  0  0  0  0  0  0  0  0  0
  139.6707   76.3666  218.6082 H   0  0  0  0  0  0  0  0  0  0  0  0
  140.2615   77.8113  219.5162 H   0  0  0  0  0  0  0  0  0  0  0  0
  141.6131   76.2426  217.3393 H   0  0  0  0  0  0  0  0  0  0  0  0
  141.1611   78.0280  217.4425 H   0  0  0  0  0  0  0  0  0  0  0  0
  143.6314   77.2228  217.6415 H   0  0  0  0  0  0  0  0  0  0  0  0
  142.9345   78.5746  218.6348 H   0  0  0  0  0  0  0  0  0  0  0  0
  144.3618   76.5088  219.6811 H   0  0  0  0  0  0  0  0  0  0  0  0
  143.1148   77.4144  220.5788 H   0  0  0  0  0  0  0  0  0  0  0  0
  142.2619   74.8800  218.8864 H   0  0  0  0  0  0  0  0  0  0  0  0
  142.9560   74.6789  221.5002 H   0  0  0  0  0  0  0  0  0  0  0  0
  145.0172   75.0250  219.7880 H   0  0  0  0  0  0  0  0  0  0  0  0
  144.9477   74.4010  221.4836 H   0  0  0  0  0  0  0  0  0  0  0  0
  144.6824   72.7517  218.9273 H   0  0  0  0  0  0  0  0  0  0  0  0
  146.1082   72.8201  220.0681 H   0  0  0  0  0  0  0  0  0  0  0  0
  144.9690   71.5590  221.6030 H   0  0  0  0  0  0  0  0  0  0  0  0
  142.6063   70.9835  220.4662 H   0  0  0  0  0  0  0  0  0  0  0  0
  142.7955   72.1291  221.8687 H   0  0  0  0  0  0  0  0  0  0  0  0
  142.7786   72.8960  218.9269 H   0  0  0  0  0  0  0  0  0  0  0  0
  141.4235   73.1080  220.0934 H   0  0  0  0  0  0  0  0  0  0  0  0
  138.7590   69.8271  221.9666 H   0  0  0  0  0  0  0  0  0  0  0  0
  139.1731   68.2263  223.8454 H   0  0  0  0  0  0  0  0  0  0  0  0
  139.9544   67.7771  226.0965 H   0  0  0  0  0  0  0  0  0  0  0  0
  141.4867   71.0153  228.4712 H   0  0  0  0  0  0  0  0  0  0  0  0
  141.0862   72.6241  226.6230 H   0  0  0  0  0  0  0  0  0  0  0  0
  1  2  2  0
  2  3  1  0
  3  4  1  0
  4  5  1  0
  5  6  2  0
  5  7  1  0
  7  8  1  0
  8  9  1  0
  9 10  1  0
 10 11  1  0
 11 12  1  0
 12 13  1  0
 13 14  1  0
 14 15  1  0
 15 16  1  0
 16 17  1  0
 17 18  1  0
  2 19  1  0
 19 20  2  0
 20 21  1  0
 21 22  2  0
 22 23  1  0
 23 24  2  0
 24 25  1  0
 24 26  1  0
 26 27  2  0
 27 28  1  0
 28 29  2  0
 12  7  1  0
 18 13  1  0
 29 19  1  0
 28 22  1  0
  3 30  1  0
  4 31  1  0
  4 32  1  0
  8 33  1  0
  8 34  1  0
  9 35  1  0
  9 36  1  0
 10 37  1  0
 10 38  1  0
 11 39  1  0
 11 40  1  0
 12 41  1  6
 13 42  1  0
 14 43  1  0
 14 44  1  0
 15 45  1  0
 15 46  1  0
 16 47  1  0
 17 48  1  0
 17 49  1  0
 18 50  1  0
 18 51  1  0
 20 52  1  0
 21 53  1  0
 23 54  1  0
 26 55  1  0
 27 56  1  0
M  END
>  <smiles>  (59) 
O=C(NCC(=O)N1CCCCC1C1CCNCC1)c1ccc2cc(Cl)ccc2n1

>  <score_type>  (59) 
oracle

>  <origin>  (59) 
autodockgpu

>  <m_score__min__energy>  (59) 
-9.1699999999999999

>  <m_primary>  (59) 
energy

>  <rmsd>  (59) 
1.8879055928305055

>  <m_score__min__rmsd>  (59) 
1.8879055928305055

>  <meeko>  (59) 
{"free_energy": -8.3, "intermolecular_energy": -9.79, "internal_energy": -2.05, "cluster_size": 18, "cluster_id": 3, "rank_in_cluster": 14}

>  <energy>  (59) 
-8.04

>  <cluster_rmsd>  (59) 
1.77

>  <cluster>  (59) 
1

$$$$

     RDKit          3D

 56 59  0  0  0  0  0  0  0  0999 V2000
  141.0730   81.7800  219.2490 O   0  0  0  0  0  0  0  0  0  0  0  0
  140.5190   80.6860  219.5100 C   0  0  0  0  0  0  0  0  0  0  0  0
  139.1480   80.6830  219.8570 N   0  0  0  0  0  0  0  0  0  0  0  0
  138.3380   81.8930  219.9260 C   0  0  0  0  0  0  0  0  0  0  0  0
  138.3920   82.5200  221.2510 C   0  0  0  0  0  0  0  0  0  0  0  0
  138.6000   83.8080  221.2170 O   0  0  0  0  0  0  0  0  0  0  0  0
  138.2630   81.9830  222.5170 N   0  0  0  0  0  0  0  0  0  0  0  0
  137.2080   82.7070  223.3400 C   0  0  0  0  0  0  0  0  0  0  0  0
  137.0050   82.0320  224.6480 C   0  0  0  0  0  0  0  0  0  0  0  0
  136.8890   80.5440  224.5990 C   0  0  0  0  0  0  0  0  0  0  0  0
  137.7430   79.9410  223.5050 C   0  0  0  0  0  0  0  0  0  0  0  0
  138.8940   80.9370  223.2010 C   0  0  1  0  0  0  0  0  0  0  0  0
  140.1140   80.2710  222.7930 C   0  0  0  0  0  0  0  0  0  0  0  0
  140.4780   78.9240  223.2460 C   0  0  0  0  0  0  0  0  0  0  0  0
  141.8890   78.9080  223.8440 C   0  0  0  0  0  0  0  0  0  0  0  0
  142.8960   79.3590  222.9410 N   0  0  0  0  0  0  0  0  0  0  0  0
  142.5600   80.6410  222.4270 C   0  0  0  0  0  0  0  0  0  0  0  0
  141.3020   81.2100  223.0520 C   0  0  0  0  0  0  0  0  0  0  0  0
  141.2600   79.4050  219.4640 C   0  0  0  0  0  0  0  0  0  0  0  0
  142.2910   79.2450  218.5640 C   0  0  0  0  0  0  0  0  0  0  0  0
  142.9500   78.0200  218.5620 C   0  0  0  0  0  0  0  0  0  0  0  0
  142.5840   77.0020  219.4320 C   0  0  0  0  0  0  0  0  0  0  0  0
  143.2450   75.7840  219.4230 C   0  0  0  0  0  0  0  0  0  0  0  0
  142.8530   74.7890  220.3040 C   0  0  0  0  0  0  0  0  0  0  0  0
  143.6510   73.2430  220.3320 Cl  0  0  0  0  0  0  0  0  0  0  0  0
  141.8070   75.0210  221.1830 C   0  0  0  0  0  0  0  0  0  0  0  0
  141.1310   76.2210  221.2150 C   0  0  0  0  0  0  0  0  0  0  0  0
  141.5370   77.1990  220.3300 C   0  0  0  0  0  0  0  0  0  0  0  0
  140.9360   78.3950  220.2910 N   0  0  0  0  0  0  0  0  0  0  0  0
  138.7240   79.7290  220.0720 H   0  0  0  0  0  0  0  0  0  0  0  0
  138.7084   82.6105  219.1790 H   0  0  0  0  0  0  0  0  0  0  0  0
  137.2932   81.6123  219.7271 H   0  0  0  0  0  0  0  0  0  0  0  0
  137.5352   83.7425  223.5154 H   0  0  0  0  0  0  0  0  0  0  0  0
  136.2581   82.6946  222.7854 H   0  0  0  0  0  0  0  0  0  0  0  0
  137.8593   82.2831  225.2938 H   0  0  0  0  0  0  0  0  0  0  0  0
  136.0378   82.3953  225.0254 H   0  0  0  0  0  0  0  0  0  0  0  0
  137.2096   80.1314  225.5670 H   0  0  0  0  0  0  0  0  0  0  0  0
  135.8394   80.2934  224.3856 H   0  0  0  0  0  0  0  0  0  0  0  0
  138.1586   78.9797  223.8413 H   0  0  0  0  0  0  0  0  0  0  0  0
  137.1412   79.7608  222.6020 H   0  0  0  0  0  0  0  0  0  0  0  0
  139.4005   81.4497  224.0321 H   0  0  0  0  0  0  0  0  0  0  0  0
  139.8659   80.0596  221.7424 H   0  0  0  0  0  0  0  0  0  0  0  0
  139.7593   78.5954  224.0112 H   0  0  0  0  0  0  0  0  0  0  0  0
  140.4566   78.2456  222.3804 H   0  0  0  0  0  0  0  0  0  0  0  0
  141.8988   79.5600  224.7299 H   0  0  0  0  0  0  0  0  0  0  0  0
  142.1227   77.8621  224.0921 H   0  0  0  0  0  0  0  0  0  0  0  0
  143.2670   78.6710  222.2820 H   0  0  0  0  0  0  0  0  0  0  0  0
  143.3944   81.3297  222.6259 H   0  0  0  0  0  0  0  0  0  0  0  0
  142.3739   80.5285  221.3487 H   0  0  0  0  0  0  0  0  0  0  0  0
  141.4510   81.3179  224.1365 H   0  0  0  0  0  0  0  0  0  0  0  0
  141.0895   82.1921  222.6044 H   0  0  0  0  0  0  0  0  0  0  0  0
  142.5809   80.0525  217.8756 H   0  0  0  0  0  0  0  0  0  0  0  0
  143.7778   77.8546  217.8568 H   0  0  0  0  0  0  0  0  0  0  0  0
  144.0743   75.6085  218.7220 H   0  0  0  0  0  0  0  0  0  0  0  0
  141.5071   74.2219  221.8769 H   0  0  0  0  0  0  0  0  0  0  0  0
  140.3017   76.3925  221.9171 H   0  0  0  0  0  0  0  0  0  0  0  0
  1  2  2  0
  2  3  1  0
  3  4  1  0
  4  5  1  0
  5  6  2  0
  5  7  1  0
  7  8  1  0
  8  9  1  0
  9 10  1  0
 10 11  1  0
 11 12  1  0
 12 13  1  0
 13 14  1  0
 14 15  1  0
 15 16  1  0
 16 17  1  0
 17 18  1  0
  2 19  1  0
 19 20  2  0
 20 21  1  0
 21 22  2  0
 22 23  1  0
 23 24  2  0
 24 25  1  0
 24 26  1  0
 26 27  2  0
 27 28  1  0
 28 29  2  0
 12  7  1  0
 18 13  1  0
 29 19  1  0
 28 22  1  0
  3 30  1  0
  4 31  1  0
  4 32  1  0
  8 33  1  0
  8 34  1  0
  9 35  1  0
  9 36  1  0
 10 37  1  0
 10 38  1  0
 11 39  1  0
 11 40  1  0
 12 41  1  1
 13 42  1  0
 14 43  1  0
 14 44  1  0
 15 45  1  0
 15 46  1  0
 16 47  1  0
 17 48  1  0
 17 49  1  0
 18 50  1  0
 18 51  1  0
 20 52  1  0
 21 53  1  0
 23 54  1  0
 26 55  1  0
 27 56  1  0
M  END
>  <smiles>  (60) 
O=C(NCC(=O)N1CCCCC1C1CCNCC1)c1ccc2cc(Cl)ccc2n1

>  <score_type>  (60) 
oracle

>  <origin>  (60) 
autodockgpu

>  <m_score__min__energy>  (60) 
-9.1699999999999999

>  <m_primary>  (60) 
energy

>  <rmsd>  (60) 
9.181103852338927

>  <m_score__min__rmsd>  (60) 
9.181103852338927

>  <meeko>  (60) 
{"free_energy": -6.6, "intermolecular_energy": -8.09, "internal_energy": -2.92, "cluster_size": 5, "cluster_id": 8, "rank_in_cluster": 1}

>  <energy>  (60) 
-8.04

>  <cluster_rmsd>  (60) 
1.46

>  <cluster>  (60) 
1

$$$$

     RDKit          3D

 56 59  0  0  0  0  0  0  0  0999 V2000
  134.7010   68.4310  225.2570 O   0  0  0  0  0  0  0  0  0  0  0  0
  135.0760   69.6250  225.1890 C   0  0  0  0  0  0  0  0  0  0  0  0
  136.3040   69.9170  224.5520 N   0  0  0  0  0  0  0  0  0  0  0  0
  137.1620   68.8960  223.9640 C   0  0  0  0  0  0  0  0  0  0  0  0
  138.4790   68.8440  224.6080 C   0  0  0  0  0  0  0  0  0  0  0  0
  139.0950   67.7030  224.4580 O   0  0  0  0  0  0  0  0  0  0  0  0
  139.1730   69.7890  225.3400 N   0  0  0  0  0  0  0  0  0  0  0  0
  139.2860   69.4050  226.8070 C   0  0  0  0  0  0  0  0  0  0  0  0
  140.1400   70.3750  227.5410 C   0  0  0  0  0  0  0  0  0  0  0  0
  141.4140   70.7600  226.8640 C   0  0  0  0  0  0  0  0  0  0  0  0
  141.2740   70.7880  225.3580 C   0  0  0  0  0  0  0  0  0  0  0  0
  139.7730   71.0140  225.0270 C   0  0  1  0  0  0  0  0  0  0  0  0
  139.5800   71.7670  223.8050 C   0  0  0  0  0  0  0  0  0  0  0  0
  138.3450   71.7040  223.0160 C   0  0  0  0  0  0  0  0  0  0  0  0
  138.6460   71.3770  221.5490 C   0  0  0  0  0  0  0  0  0  0  0  0
  139.5250   72.3110  220.9260 N   0  0  0  0  0  0  0  0  0  0  0  0
  140.7170   72.4520  221.6860 C   0  0  0  0  0  0  0  0  0  0  0  0
  140.7700   71.5060  222.8690 C   0  0  0  0  0  0  0  0  0  0  0  0
  134.2700   70.7300  225.7550 C   0  0  0  0  0  0  0  0  0  0  0  0
  133.1480   70.4430  226.5010 C   0  0  0  0  0  0  0  0  0  0  0  0
  132.4250   71.5200  227.0050 C   0  0  0  0  0  0  0  0  0  0  0  0
  132.8210   72.8290  226.7680 C   0  0  0  0  0  0  0  0  0  0  0  0
  132.0970   73.8960  227.2720 C   0  0  0  0  0  0  0  0  0  0  0  0
  132.5190   75.1910  227.0150 C   0  0  0  0  0  0  0  0  0  0  0  0
  131.6440   76.5640  227.6260 Cl  0  0  0  0  0  0  0  0  0  0  0  0
  133.6590   75.4040  226.2570 C   0  0  0  0  0  0  0  0  0  0  0  0
  134.4000   74.3640  225.7420 C   0  0  0  0  0  0  0  0  0  0  0  0
  133.9630   73.0820  226.0090 C   0  0  0  0  0  0  0  0  0  0  0  0
  134.6210   72.0110  225.5470 N   0  0  0  0  0  0  0  0  0  0  0  0
  136.5800   70.9460  224.5220 H   0  0  0  0  0  0  0  0  0  0  0  0
  136.6743   67.9162  224.0744 H   0  0  0  0  0  0  0  0  0  0  0  0
  137.3129   69.1496  222.9043 H   0  0  0  0  0  0  0  0  0  0  0  0
  138.2819   69.3963  227.2561 H   0  0  0  0  0  0  0  0  0  0  0  0
  139.7446   68.4076  226.8766 H   0  0  0  0  0  0  0  0  0  0  0  0
  139.5515   71.2908  227.6992 H   0  0  0  0  0  0  0  0  0  0  0  0
  140.4368   69.8683  228.4711 H   0  0  0  0  0  0  0  0  0  0  0  0
  141.7114   71.7606  227.2110 H   0  0  0  0  0  0  0  0  0  0  0  0
  142.1735   70.0062  227.1190 H   0  0  0  0  0  0  0  0  0  0  0  0
  141.8771   71.6079  224.9409 H   0  0  0  0  0  0  0  0  0  0  0  0
  141.6267   69.8423  224.9208 H   0  0  0  0  0  0  0  0  0  0  0  0
  139.1892   71.7375  225.6150 H   0  0  0  0  0  0  0  0  0  0  0  0
  139.4889   72.7799  224.2243 H   0  0  0  0  0  0  0  0  0  0  0  0
  137.6919   70.9227  223.4320 H   0  0  0  0  0  0  0  0  0  0  0  0
  137.8497   72.6851  223.0617 H   0  0  0  0  0  0  0  0  0  0  0  0
  139.1080   70.3798  221.5024 H   0  0  0  0  0  0  0  0  0  0  0  0
  137.6906   71.4204  221.0056 H   0  0  0  0  0  0  0  0  0  0  0  0
  139.1020   73.1640  220.5520 H   0  0  0  0  0  0  0  0  0  0  0  0
  141.5777   72.2472  221.0324 H   0  0  0  0  0  0  0  0  0  0  0  0
  140.7414   73.4789  222.0796 H   0  0  0  0  0  0  0  0  0  0  0  0
  140.7281   70.4680  222.5074 H   0  0  0  0  0  0  0  0  0  0  0  0
  141.7067   71.6713  223.4215 H   0  0  0  0  0  0  0  0  0  0  0  0
  132.8364   69.4052  226.6905 H   0  0  0  0  0  0  0  0  0  0  0  0
  131.5216   71.3301  227.6032 H   0  0  0  0  0  0  0  0  0  0  0  0
  131.1928   73.7172  227.8724 H   0  0  0  0  0  0  0  0  0  0  0  0
  133.9824   76.4368  226.0604 H   0  0  0  0  0  0  0  0  0  0  0  0
  135.3036   74.5473  225.1421 H   0  0  0  0  0  0  0  0  0  0  0  0
  1  2  2  0
  2  3  1  0
  3  4  1  0
  4  5  1  0
  5  6  2  0
  5  7  1  0
  7  8  1  0
  8  9  1  0
  9 10  1  0
 10 11  1  0
 11 12  1  0
 12 13  1  0
 13 14  1  0
 14 15  1  0
 15 16  1  0
 16 17  1  0
 17 18  1  0
  2 19  1  0
 19 20  2  0
 20 21  1  0
 21 22  2  0
 22 23  1  0
 23 24  2  0
 24 25  1  0
 24 26  1  0
 26 27  2  0
 27 28  1  0
 28 29  2  0
 12  7  1  0
 18 13  1  0
 29 19  1  0
 28 22  1  0
  3 30  1  0
  4 31  1  0
  4 32  1  0
  8 33  1  0
  8 34  1  0
  9 35  1  0
  9 36  1  0
 10 37  1  0
 10 38  1  0
 11 39  1  0
 11 40  1  0
 12 41  1  1
 13 42  1  0
 14 43  1  0
 14 44  1  0
 15 45  1  0
 15 46  1  0
 16 47  1  0
 17 48  1  0
 17 49  1  0
 18 50  1  0
 18 51  1  0
 20 52  1  0
 21 53  1  0
 23 54  1  0
 26 55  1  0
 27 56  1  0
M  END
>  <smiles>  (61) 
O=C(NCC(=O)N1CCCCC1C1CCNCC1)c1ccc2cc(Cl)ccc2n1

>  <score_type>  (61) 
oracle

>  <origin>  (61) 
autodockgpu

>  <m_score__min__energy>  (61) 
-9.1699999999999999

>  <m_primary>  (61) 
energy

>  <rmsd>  (61) 
8.19272835784302

>  <m_score__min__rmsd>  (61) 
8.19272835784302

>  <meeko>  (61) 
{"free_energy": -7.45, "intermolecular_energy": -8.94, "internal_energy": -1.89, "cluster_size": 1, "cluster_id": 6, "rank_in_cluster": 1}

>  <energy>  (61) 
-8.03

>  <cluster_rmsd>  (61) 
1.92

>  <cluster>  (61) 
1

$$$$

     RDKit          3D

 56 59  0  0  0  0  0  0  0  0999 V2000
  136.2360   77.5480  223.0570 O   0  0  0  0  0  0  0  0  0  0  0  0
  136.5990   76.3700  223.2880 C   0  0  0  0  0  0  0  0  0  0  0  0
  137.8840   75.9590  222.8640 N   0  0  0  0  0  0  0  0  0  0  0  0
  138.8160   76.8380  222.1700 C   0  0  0  0  0  0  0  0  0  0  0  0
  140.0260   76.1300  221.7390 C   0  0  0  0  0  0  0  0  0  0  0  0
  139.9990   74.8460  221.9750 O   0  0  0  0  0  0  0  0  0  0  0  0
  141.1800   76.5860  221.1310 N   0  0  0  0  0  0  0  0  0  0  0  0
  141.9530   75.4630  220.4570 C   0  0  0  0  0  0  0  0  0  0  0  0
  143.1200   76.0020  219.7100 C   0  0  0  0  0  0  0  0  0  0  0  0
  142.8520   77.2090  218.8720 C   0  0  0  0  0  0  0  0  0  0  0  0
  141.8040   78.1090  219.4870 C   0  0  0  0  0  0  0  0  0  0  0  0
  141.7890   77.8410  221.0160 C   0  0  1  0  0  0  0  0  0  0  0  0
  141.4520   79.0210  221.7850 C   0  0  0  0  0  0  0  0  0  0  0  0
  140.9940   80.2720  221.1690 C   0  0  0  0  0  0  0  0  0  0  0  0
  141.8350   81.4600  221.6480 C   0  0  0  0  0  0  0  0  0  0  0  0
  141.8240   81.6330  223.0630 N   0  0  0  0  0  0  0  0  0  0  0  0
  142.2060   80.4270  223.7110 C   0  0  0  0  0  0  0  0  0  0  0  0
  142.6170   79.3440  222.7340 C   0  0  0  0  0  0  0  0  0  0  0  0
  135.7210   75.4060  223.9890 C   0  0  0  0  0  0  0  0  0  0  0  0
  135.7440   74.0760  223.6300 C   0  0  0  0  0  0  0  0  0  0  0  0
  134.8960   73.2150  224.3190 C   0  0  0  0  0  0  0  0  0  0  0  0
  134.0630   73.6780  225.3280 C   0  0  0  0  0  0  0  0  0  0  0  0
  133.2200   72.8150  226.0100 C   0  0  0  0  0  0  0  0  0  0  0  0
  132.4000   73.3110  227.0110 C   0  0  0  0  0  0  0  0  0  0  0  0
  131.3250   72.2680  227.8950 Cl  0  0  0  0  0  0  0  0  0  0  0  0
  132.4300   74.6620  227.3190 C   0  0  0  0  0  0  0  0  0  0  0  0
  133.2570   75.5440  226.6590 C   0  0  0  0  0  0  0  0  0  0  0  0
  134.0660   75.0300  225.6650 C   0  0  0  0  0  0  0  0  0  0  0  0
  134.9000   75.8150  224.9720 N   0  0  0  0  0  0  0  0  0  0  0  0
  138.1440   74.9480  223.0820 H   0  0  0  0  0  0  0  0  0  0  0  0
  138.3158   77.2569  221.2844 H   0  0  0  0  0  0  0  0  0  0  0  0
  139.1188   77.6307  222.8699 H   0  0  0  0  0  0  0  0  0  0  0  0
  142.3090   74.7591  221.2237 H   0  0  0  0  0  0  0  0  0  0  0  0
  141.2858   74.9506  219.7482 H   0  0  0  0  0  0  0  0  0  0  0  0
  143.8976   76.2650  220.4422 H   0  0  0  0  0  0  0  0  0  0  0  0
  143.4179   75.2097  219.0075 H   0  0  0  0  0  0  0  0  0  0  0  0
  143.7868   77.7780  218.7609 H   0  0  0  0  0  0  0  0  0  0  0  0
  142.4740   76.8668  217.8973 H   0  0  0  0  0  0  0  0  0  0  0  0
  142.0550   79.1624  219.2939 H   0  0  0  0  0  0  0  0  0  0  0  0
  140.8156   77.9031  219.0504 H   0  0  0  0  0  0  0  0  0  0  0  0
  142.7399   77.7098  221.5532 H   0  0  0  0  0  0  0  0  0  0  0  0
  140.5137   78.6785  222.2457 H   0  0  0  0  0  0  0  0  0  0  0  0
  141.0807   80.1874  220.0757 H   0  0  0  0  0  0  0  0  0  0  0  0
  139.9473   80.4435  221.4604 H   0  0  0  0  0  0  0  0  0  0  0  0
  142.8747   81.3029  221.3249 H   0  0  0  0  0  0  0  0  0  0  0  0
  141.3929   82.3664  221.2086 H   0  0  0  0  0  0  0  0  0  0  0  0
  141.0360   82.1510  223.4590 H   0  0  0  0  0  0  0  0  0  0  0  0
  143.0541   80.6394  224.3785 H   0  0  0  0  0  0  0  0  0  0  0  0
  141.3326   80.0579  224.2686 H   0  0  0  0  0  0  0  0  0  0  0  0
  143.4794   79.6919  222.1465 H   0  0  0  0  0  0  0  0  0  0  0  0
  142.8880   78.4369  223.2941 H   0  0  0  0  0  0  0  0  0  0  0  0
  136.4058   73.7100  222.8313 H   0  0  0  0  0  0  0  0  0  0  0  0
  134.8854   72.1462  224.0590 H   0  0  0  0  0  0  0  0  0  0  0  0
  133.2019   71.7443  225.7586 H   0  0  0  0  0  0  0  0  0  0  0  0
  131.7729   75.0417  228.1153 H   0  0  0  0  0  0  0  0  0  0  0  0
  133.2723   76.6141  226.9134 H   0  0  0  0  0  0  0  0  0  0  0  0
  1  2  2  0
  2  3  1  0
  3  4  1  0
  4  5  1  0
  5  6  2  0
  5  7  1  0
  7  8  1  0
  8  9  1  0
  9 10  1  0
 10 11  1  0
 11 12  1  0
 12 13  1  0
 13 14  1  0
 14 15  1  0
 15 16  1  0
 16 17  1  0
 17 18  1  0
  2 19  1  0
 19 20  2  0
 20 21  1  0
 21 22  2  0
 22 23  1  0
 23 24  2  0
 24 25  1  0
 24 26  1  0
 26 27  2  0
 27 28  1  0
 28 29  2  0
 12  7  1  0
 18 13  1  0
 29 19  1  0
 28 22  1  0
  3 30  1  0
  4 31  1  0
  4 32  1  0
  8 33  1  0
  8 34  1  0
  9 35  1  0
  9 36  1  0
 10 37  1  0
 10 38  1  0
 11 39  1  0
 11 40  1  0
 12 41  1  1
 13 42  1  0
 14 43  1  0
 14 44  1  0
 15 45  1  0
 15 46  1  0
 16 47  1  0
 17 48  1  0
 17 49  1  0
 18 50  1  0
 18 51  1  0
 20 52  1  0
 21 53  1  0
 23 54  1  0
 26 55  1  0
 27 56  1  0
M  END
>  <smiles>  (62) 
O=C(NCC(=O)N1CCCCC1C1CCNCC1)c1ccc2cc(Cl)ccc2n1

>  <score_type>  (62) 
oracle

>  <origin>  (62) 
autodockgpu

>  <m_score__min__energy>  (62) 
-9.1699999999999999

>  <m_primary>  (62) 
energy

>  <rmsd>  (62) 
5.605963586045553

>  <m_score__min__rmsd>  (62) 
5.605963586045553

>  <meeko>  (62) 
{"free_energy": -7.97, "intermolecular_energy": -9.46, "internal_energy": -1.78, "cluster_size": 2, "cluster_id": 5, "rank_in_cluster": 1}

>  <energy>  (62) 
-8.02

>  <cluster_rmsd>  (62) 
0.73

>  <cluster>  (62) 
1

$$$$

     RDKit          3D

 56 59  0  0  0  0  0  0  0  0999 V2000
  140.0850   72.3840  220.6120 O   0  0  0  0  0  0  0  0  0  0  0  0
  139.9100   72.7510  221.7980 C   0  0  0  0  0  0  0  0  0  0  0  0
  139.7160   74.1250  222.0640 N   0  0  0  0  0  0  0  0  0  0  0  0
  139.7070   75.1470  221.0250 C   0  0  0  0  0  0  0  0  0  0  0  0
  140.6320   76.2460  221.3220 C   0  0  0  0  0  0  0  0  0  0  0  0
  140.6550   76.5910  222.5800 O   0  0  0  0  0  0  0  0  0  0  0  0
  141.4770   76.9710  220.5030 N   0  0  0  0  0  0  0  0  0  0  0  0
  142.1950   76.0860  219.4960 C   0  0  0  0  0  0  0  0  0  0  0  0
  142.9980   76.9080  218.5530 C   0  0  0  0  0  0  0  0  0  0  0  0
  142.3130   78.1120  217.9950 C   0  0  0  0  0  0  0  0  0  0  0  0
  141.3530   78.7320  218.9860 C   0  0  0  0  0  0  0  0  0  0  0  0
  141.8170   78.3260  220.4110 C   0  0  1  0  0  0  0  0  0  0  0  0
  141.5280   79.3420  221.4010 C   0  0  0  0  0  0  0  0  0  0  0  0
  142.1800   79.3860  222.7150 C   0  0  0  0  0  0  0  0  0  0  0  0
  141.1430   79.4580  223.8410 C   0  0  0  0  0  0  0  0  0  0  0  0
  140.2700   80.5810  223.7420 N   0  0  0  0  0  0  0  0  0  0  0  0
  139.6560   80.6160  222.4600 C   0  0  0  0  0  0  0  0  0  0  0  0
  140.0080   79.4130  221.6100 C   0  0  0  0  0  0  0  0  0  0  0  0
  139.9010   71.7850  222.9200 C   0  0  0  0  0  0  0  0  0  0  0  0
  139.3210   70.5470  222.7500 C   0  0  0  0  0  0  0  0  0  0  0  0
  139.3370   69.6800  223.8390 C   0  0  0  0  0  0  0  0  0  0  0  0
  139.9150   70.0490  225.0460 C   0  0  0  0  0  0  0  0  0  0  0  0
  139.9260   69.1810  226.1260 C   0  0  0  0  0  0  0  0  0  0  0  0
  140.5110   69.5820  227.3170 C   0  0  0  0  0  0  0  0  0  0  0  0
  140.5500   68.5290  228.7010 Cl  0  0  0  0  0  0  0  0  0  0  0  0
  141.0760   70.8430  227.4160 C   0  0  0  0  0  0  0  0  0  0  0  0
  141.0800   71.7270  226.3590 C   0  0  0  0  0  0  0  0  0  0  0  0
  140.4930   71.3100  225.1820 C   0  0  0  0  0  0  0  0  0  0  0  0
  140.4500   72.1040  224.1050 N   0  0  0  0  0  0  0  0  0  0  0  0
  139.5730   74.3860  223.0880 H   0  0  0  0  0  0  0  0  0  0  0  0
  140.0003   74.6849  220.0708 H   0  0  0  0  0  0  0  0  0  0  0  0
  138.6911   75.5654  220.9711 H   0  0  0  0  0  0  0  0  0  0  0  0
  142.8629   75.3964  220.0329 H   0  0  0  0  0  0  0  0  0  0  0  0
  141.4447   75.5216  218.9228 H   0  0  0  0  0  0  0  0  0  0  0  0
  143.8989   77.2483  219.0846 H   0  0  0  0  0  0  0  0  0  0  0  0
  143.2063   76.2566  217.6915 H   0  0  0  0  0  0  0  0  0  0  0  0
  143.0737   78.8588  217.7236 H   0  0  0  0  0  0  0  0  0  0  0  0
  141.7333   77.7944  217.1157 H   0  0  0  0  0  0  0  0  0  0  0  0
  141.3666   79.8273  218.8856 H   0  0  0  0  0  0  0  0  0  0  0  0
  140.3274   78.3803  218.8002 H   0  0  0  0  0  0  0  0  0  0  0  0
  142.8897   78.3326  220.6544 H   0  0  0  0  0  0  0  0  0  0  0  0
  142.0065   80.2078  220.9199 H   0  0  0  0  0  0  0  0  0  0  0  0
  142.7893   78.4794  222.8447 H   0  0  0  0  0  0  0  0  0  0  0  0
  142.8117   80.2853  222.7626 H   0  0  0  0  0  0  0  0  0  0  0  0
  140.5353   78.5416  223.8132 H   0  0  0  0  0  0  0  0  0  0  0  0
  141.6983   79.5633  224.7847 H   0  0  0  0  0  0  0  0  0  0  0  0
  140.6110   81.4660  224.1250 H   0  0  0  0  0  0  0  0  0  0  0  0
  138.5645   80.6454  222.5933 H   0  0  0  0  0  0  0  0  0  0  0  0
  140.0265   81.5109  221.9386 H   0  0  0  0  0  0  0  0  0  0  0  0
  139.6670   78.4976  222.1158 H   0  0  0  0  0  0  0  0  0  0  0  0
  139.5137   79.5059  220.6317 H   0  0  0  0  0  0  0  0  0  0  0  0
  138.8639   70.2555  221.7929 H   0  0  0  0  0  0  0  0  0  0  0  0
  138.8828   68.6830  223.7412 H   0  0  0  0  0  0  0  0  0  0  0  0
  139.4742   68.1819  226.0390 H   0  0  0  0  0  0  0  0  0  0  0  0
  141.5356   71.1480  228.3677 H   0  0  0  0  0  0  0  0  0  0  0  0
  141.5331   72.7252  226.4499 H   0  0  0  0  0  0  0  0  0  0  0  0
  1  2  2  0
  2  3  1  0
  3  4  1  0
  4  5  1  0
  5  6  2  0
  5  7  1  0
  7  8  1  0
  8  9  1  0
  9 10  1  0
 10 11  1  0
 11 12  1  0
 12 13  1  0
 13 14  1  0
 14 15  1  0
 15 16  1  0
 16 17  1  0
 17 18  1  0
  2 19  1  0
 19 20  2  0
 20 21  1  0
 21 22  2  0
 22 23  1  0
 23 24  2  0
 24 25  1  0
 24 26  1  0
 26 27  2  0
 27 28  1  0
 28 29  2  0
 12  7  1  0
 18 13  1  0
 29 19  1  0
 28 22  1  0
  3 30  1  0
  4 31  1  0
  4 32  1  0
  8 33  1  0
  8 34  1  0
  9 35  1  0
  9 36  1  0
 10 37  1  0
 10 38  1  0
 11 39  1  0
 11 40  1  0
 12 41  1  6
 13 42  1  0
 14 43  1  0
 14 44  1  0
 15 45  1  0
 15 46  1  0
 16 47  1  0
 17 48  1  0
 17 49  1  0
 18 50  1  0
 18 51  1  0
 20 52  1  0
 21 53  1  0
 23 54  1  0
 26 55  1  0
 27 56  1  0
M  END
>  <smiles>  (63) 
O=C(NCC(=O)N1CCCCC1C1CCNCC1)c1ccc2cc(Cl)ccc2n1

>  <score_type>  (63) 
oracle

>  <origin>  (63) 
autodockgpu

>  <m_score__min__energy>  (63) 
-9.1699999999999999

>  <m_primary>  (63) 
energy

>  <rmsd>  (63) 
2.0934398850575717

>  <m_score__min__rmsd>  (63) 
2.0934398850575717

>  <meeko>  (63) 
{"free_energy": -8.68, "intermolecular_energy": -10.17, "internal_energy": -1.74, "cluster_size": 18, "cluster_id": 1, "rank_in_cluster": 6}

>  <energy>  (63) 
-7.96

>  <cluster_rmsd>  (63) 
0.78

>  <cluster>  (63) 
1

$$$$

     RDKit          3D

 56 59  0  0  0  0  0  0  0  0999 V2000
  139.8730   72.5210  220.7090 O   0  0  0  0  0  0  0  0  0  0  0  0
  139.7600   72.8450  221.9150 C   0  0  0  0  0  0  0  0  0  0  0  0
  139.5310   74.2020  222.2370 N   0  0  0  0  0  0  0  0  0  0  0  0
  139.4170   75.2530  221.2340 C   0  0  0  0  0  0  0  0  0  0  0  0
  138.9450   76.5170  221.8100 C   0  0  0  0  0  0  0  0  0  0  0  0
  138.6990   76.4540  223.0900 O   0  0  0  0  0  0  0  0  0  0  0  0
  138.7180   77.7520  221.2330 N   0  0  0  0  0  0  0  0  0  0  0  0
  137.9910   77.6350  219.9010 C   0  0  0  0  0  0  0  0  0  0  0  0
  137.6520   78.9790  219.3670 C   0  0  0  0  0  0  0  0  0  0  0  0
  137.0690   79.9400  220.3500 C   0  0  0  0  0  0  0  0  0  0  0  0
  137.6300   79.7450  221.7410 C   0  0  0  0  0  0  0  0  0  0  0  0
  139.0200   79.0690  221.5990 C   0  0  1  0  0  0  0  0  0  0  0  0
  139.9430   79.4690  222.6410 C   0  0  0  0  0  0  0  0  0  0  0  0
  140.1040   80.8620  223.0730 C   0  0  0  0  0  0  0  0  0  0  0  0
  141.5770   81.2820  223.0340 C   0  0  0  0  0  0  0  0  0  0  0  0
  142.4240   80.4670  223.8410 N   0  0  0  0  0  0  0  0  0  0  0  0
  142.2620   79.0960  223.4990 C   0  0  0  0  0  0  0  0  0  0  0  0
  141.3310   78.8950  222.3210 C   0  0  0  0  0  0  0  0  0  0  0  0
  139.8590   71.8460  223.0030 C   0  0  0  0  0  0  0  0  0  0  0  0
  139.4620   70.5470  222.7750 C   0  0  0  0  0  0  0  0  0  0  0  0
  139.5730   69.6510  223.8330 C   0  0  0  0  0  0  0  0  0  0  0  0
  140.0650   70.0500  225.0680 C   0  0  0  0  0  0  0  0  0  0  0  0
  140.1720   69.1530  226.1180 C   0  0  0  0  0  0  0  0  0  0  0  0
  140.6670   69.5860  227.3390 C   0  0  0  0  0  0  0  0  0  0  0  0
  140.8200   68.4980  228.6870 Cl  0  0  0  0  0  0  0  0  0  0  0  0
  141.0480   70.9090  227.4960 C   0  0  0  0  0  0  0  0  0  0  0  0
  140.9530   71.8240  226.4700 C   0  0  0  0  0  0  0  0  0  0  0  0
  140.4590   71.3730  225.2630 C   0  0  0  0  0  0  0  0  0  0  0  0
  140.3310   72.1940  224.2130 N   0  0  0  0  0  0  0  0  0  0  0  0
  139.4440   74.4260  223.2760 H   0  0  0  0  0  0  0  0  0  0  0  0
  140.4049   75.4176  220.7789 H   0  0  0  0  0  0  0  0  0  0  0  0
  138.6813   74.9270  220.4840 H   0  0  0  0  0  0  0  0  0  0  0  0
  138.6386   77.1134  219.1809 H   0  0  0  0  0  0  0  0  0  0  0  0
  137.0593   77.0709  220.0554 H   0  0  0  0  0  0  0  0  0  0  0  0
  138.5737   79.4249  218.9649 H   0  0  0  0  0  0  0  0  0  0  0  0
  136.8697   78.8122  218.6119 H   0  0  0  0  0  0  0  0  0  0  0  0
  137.2920   80.9649  220.0185 H   0  0  0  0  0  0  0  0  0  0  0  0
  135.9846   79.7609  220.3950 H   0  0  0  0  0  0  0  0  0  0  0  0
  137.7363   80.7185  222.2419 H   0  0  0  0  0  0  0  0  0  0  0  0
  136.9565   79.1179  222.3435 H   0  0  0  0  0  0  0  0  0  0  0  0
  139.7052   79.4002  220.8047 H   0  0  0  0  0  0  0  0  0  0  0  0
  139.4225   79.0549  223.5171 H   0  0  0  0  0  0  0  0  0  0  0  0
  139.5257   81.5155  222.4033 H   0  0  0  0  0  0  0  0  0  0  0  0
  139.7410   80.9524  224.1074 H   0  0  0  0  0  0  0  0  0  0  0  0
  141.9277   81.2243  221.9930 H   0  0  0  0  0  0  0  0  0  0  0  0
  141.6321   82.3038  223.4377 H   0  0  0  0  0  0  0  0  0  0  0  0
  142.4800   80.7000  224.8350 H   0  0  0  0  0  0  0  0  0  0  0  0
  143.2471   78.6776  223.2448 H   0  0  0  0  0  0  0  0  0  0  0  0
  141.8163   78.5869  224.3663 H   0  0  0  0  0  0  0  0  0  0  0  0
  141.7429   79.4089  221.4400 H   0  0  0  0  0  0  0  0  0  0  0  0
  141.2368   77.8183  222.1164 H   0  0  0  0  0  0  0  0  0  0  0  0
  139.0729   70.2310  221.7958 H   0  0  0  0  0  0  0  0  0  0  0  0
  139.2646   68.6051  223.6881 H   0  0  0  0  0  0  0  0  0  0  0  0
  139.8665   68.1047  225.9844 H   0  0  0  0  0  0  0  0  0  0  0  0
  141.4384   71.2391  228.4700 H   0  0  0  0  0  0  0  0  0  0  0  0
  141.2586   72.8717  226.6076 H   0  0  0  0  0  0  0  0  0  0  0  0
  1  2  2  0
  2  3  1  0
  3  4  1  0
  4  5  1  0
  5  6  2  0
  5  7  1  0
  7  8  1  0
  8  9  1  0
  9 10  1  0
 10 11  1  0
 11 12  1  0
 12 13  1  0
 13 14  1  0
 14 15  1  0
 15 16  1  0
 16 17  1  0
 17 18  1  0
  2 19  1  0
 19 20  2  0
 20 21  1  0
 21 22  2  0
 22 23  1  0
 23 24  2  0
 24 25  1  0
 24 26  1  0
 26 27  2  0
 27 28  1  0
 28 29  2  0
 12  7  1  0
 18 13  1  0
 29 19  1  0
 28 22  1  0
  3 30  1  0
  4 31  1  0
  4 32  1  0
  8 33  1  0
  8 34  1  0
  9 35  1  0
  9 36  1  0
 10 37  1  0
 10 38  1  0
 11 39  1  0
 11 40  1  0
 12 41  1  6
 13 42  1  0
 14 43  1  0
 14 44  1  0
 15 45  1  0
 15 46  1  0
 16 47  1  0
 17 48  1  0
 17 49  1  0
 18 50  1  0
 18 51  1  0
 20 52  1  0
 21 53  1  0
 23 54  1  0
 26 55  1  0
 27 56  1  0
M  END
>  <smiles>  (64) 
O=C(NCC(=O)N1CCCCC1C1CCNCC1)c1ccc2cc(Cl)ccc2n1

>  <score_type>  (64) 
oracle

>  <origin>  (64) 
autodockgpu

>  <m_score__min__energy>  (64) 
-9.1699999999999999

>  <m_primary>  (64) 
energy

>  <rmsd>  (64) 
2.951571806267675

>  <m_score__min__rmsd>  (64) 
2.951571806267675

>  <meeko>  (64) 
{"free_energy": -7.76, "intermolecular_energy": -9.25, "internal_energy": -2.04, "cluster_size": 18, "cluster_id": 1, "rank_in_cluster": 18}

>  <energy>  (64) 
-7.91

>  <cluster_rmsd>  (64) 
1.93

>  <cluster>  (64) 
1

$$$$

     RDKit          3D

 56 59  0  0  0  0  0  0  0  0999 V2000
  138.7780   71.1480  220.8500 O   0  0  0  0  0  0  0  0  0  0  0  0
  139.2930   71.5910  221.9030 C   0  0  0  0  0  0  0  0  0  0  0  0
  139.7230   72.9370  221.9370 N   0  0  0  0  0  0  0  0  0  0  0  0
  139.5980   73.8450  220.8030 C   0  0  0  0  0  0  0  0  0  0  0  0
  140.6480   74.8690  220.7970 C   0  0  0  0  0  0  0  0  0  0  0  0
  140.9070   75.3670  221.9760 O   0  0  0  0  0  0  0  0  0  0  0  0
  141.4030   75.3930  219.7650 N   0  0  0  0  0  0  0  0  0  0  0  0
  140.6520   76.4700  218.9980 C   0  0  0  0  0  0  0  0  0  0  0  0
  141.5300   77.0990  217.9770 C   0  0  0  0  0  0  0  0  0  0  0  0
  142.9040   77.4590  218.4370 C   0  0  0  0  0  0  0  0  0  0  0  0
  143.4350   76.4870  219.4670 C   0  0  0  0  0  0  0  0  0  0  0  0
  142.6880   75.1390  219.2720 C   0  0  1  0  0  0  0  0  0  0  0  0
  143.5120   73.9940  219.6010 C   0  0  0  0  0  0  0  0  0  0  0  0
  144.3410   73.9270  220.8090 C   0  0  0  0  0  0  0  0  0  0  0  0
  145.7910   73.5720  220.4620 C   0  0  0  0  0  0  0  0  0  0  0  0
  145.9230   72.3350  219.7640 N   0  0  0  0  0  0  0  0  0  0  0  0
  145.0920   72.3280  218.6110 C   0  0  0  0  0  0  0  0  0  0  0  0
  144.3910   73.6520  218.3880 C   0  0  0  0  0  0  0  0  0  0  0  0
  139.4590   70.7450  223.1060 C   0  0  0  0  0  0  0  0  0  0  0  0
  138.9720   69.4560  223.1070 C   0  0  0  0  0  0  0  0  0  0  0  0
  139.1530   68.7060  224.2650 C   0  0  0  0  0  0  0  0  0  0  0  0
  139.7980   69.2360  225.3740 C   0  0  0  0  0  0  0  0  0  0  0  0
  139.9740   68.4840  226.5240 C   0  0  0  0  0  0  0  0  0  0  0  0
  140.6220   69.0450  227.6140 C   0  0  0  0  0  0  0  0  0  0  0  0
  140.8660   68.1420  229.0800 Cl  0  0  0  0  0  0  0  0  0  0  0  0
  141.0860   70.3480  227.5420 C   0  0  0  0  0  0  0  0  0  0  0  0
  140.9270   71.1200  226.4120 C   0  0  0  0  0  0  0  0  0  0  0  0
  140.2790   70.5440  225.3380 C   0  0  0  0  0  0  0  0  0  0  0  0
  140.0790   71.2210  224.2000 N   0  0  0  0  0  0  0  0  0  0  0  0
  140.1560   73.2650  222.8540 H   0  0  0  0  0  0  0  0  0  0  0  0
  139.6660   73.2619  219.8727 H   0  0  0  0  0  0  0  0  0  0  0  0
  138.6273   74.3560  220.8840 H   0  0  0  0  0  0  0  0  0  0  0  0
  139.7834   76.0172  218.4974 H   0  0  0  0  0  0  0  0  0  0  0  0
  140.3240   77.2445  219.7069 H   0  0  0  0  0  0  0  0  0  0  0  0
  141.6284   76.3960  217.1367 H   0  0  0  0  0  0  0  0  0  0  0  0
  141.0451   78.0494  217.7095 H   0  0  0  0  0  0  0  0  0  0  0  0
  143.5795   77.4592  217.5688 H   0  0  0  0  0  0  0  0  0  0  0  0
  142.8536   78.4530  218.9054 H   0  0  0  0  0  0  0  0  0  0  0  0
  144.5156   76.3410  219.3225 H   0  0  0  0  0  0  0  0  0  0  0  0
  143.2719   76.8748  220.4834 H   0  0  0  0  0  0  0  0  0  0  0  0
  142.4981   74.7656  218.2549 H   0  0  0  0  0  0  0  0  0  0  0  0
  142.7261   73.2721  219.8677 H   0  0  0  0  0  0  0  0  0  0  0  0
  144.3209   74.9043  221.3135 H   0  0  0  0  0  0  0  0  0  0  0  0
  143.9370   73.1443  221.4679 H   0  0  0  0  0  0  0  0  0  0  0  0
  146.2042   74.3732  219.8316 H   0  0  0  0  0  0  0  0  0  0  0  0
  146.3344   73.4665  221.4126 H   0  0  0  0  0  0  0  0  0  0  0  0
  145.9480   71.4850  220.3320 H   0  0  0  0  0  0  0  0  0  0  0  0
  145.7132   72.1060  217.7308 H   0  0  0  0  0  0  0  0  0  0  0  0
  144.3166   71.5631  218.7648 H   0  0  0  0  0  0  0  0  0  0  0  0
  145.1427   74.4429  218.2487 H   0  0  0  0  0  0  0  0  0  0  0  0
  143.7564   73.5775  217.4926 H   0  0  0  0  0  0  0  0  0  0  0  0
  138.4608   69.0368  222.2278 H   0  0  0  0  0  0  0  0  0  0  0  0
  138.7775   67.6727  224.3023 H   0  0  0  0  0  0  0  0  0  0  0  0
  139.6025   67.4497  226.5721 H   0  0  0  0  0  0  0  0  0  0  0  0
  141.5976   70.7801  228.4146 H   0  0  0  0  0  0  0  0  0  0  0  0
  141.3013   72.1534  226.3675 H   0  0  0  0  0  0  0  0  0  0  0  0
  1  2  2  0
  2  3  1  0
  3  4  1  0
  4  5  1  0
  5  6  2  0
  5  7  1  0
  7  8  1  0
  8  9  1  0
  9 10  1  0
 10 11  1  0
 11 12  1  0
 12 13  1  0
 13 14  1  0
 14 15  1  0
 15 16  1  0
 16 17  1  0
 17 18  1  0
  2 19  1  0
 19 20  2  0
 20 21  1  0
 21 22  2  0
 22 23  1  0
 23 24  2  0
 24 25  1  0
 24 26  1  0
 26 27  2  0
 27 28  1  0
 28 29  2  0
 12  7  1  0
 18 13  1  0
 29 19  1  0
 28 22  1  0
  3 30  1  0
  4 31  1  0
  4 32  1  0
  8 33  1  0
  8 34  1  0
  9 35  1  0
  9 36  1  0
 10 37  1  0
 10 38  1  0
 11 39  1  0
 11 40  1  0
 12 41  1  6
 13 42  1  0
 14 43  1  0
 14 44  1  0
 15 45  1  0
 15 46  1  0
 16 47  1  0
 17 48  1  0
 17 49  1  0
 18 50  1  0
 18 51  1  0
 20 52  1  0
 21 53  1  0
 23 54  1  0
 26 55  1  0
 27 56  1  0
M  END
>  <smiles>  (65) 
O=C(NCC(=O)N1CCCCC1C1CCNCC1)c1ccc2cc(Cl)ccc2n1

>  <score_type>  (65) 
oracle

>  <origin>  (65) 
autodockgpu

>  <m_score__min__energy>  (65) 
-9.1699999999999999

>  <m_primary>  (65) 
energy

>  <rmsd>  (65) 
1.841215680574319

>  <m_score__min__rmsd>  (65) 
1.841215680574319

>  <meeko>  (65) 
{"free_energy": -8.37, "intermolecular_energy": -9.86, "internal_energy": -1.96, "cluster_size": 18, "cluster_id": 3, "rank_in_cluster": 12}

>  <energy>  (65) 
-7.9

>  <cluster_rmsd>  (65) 
1.63

>  <cluster>  (65) 
1

$$$$

     RDKit          3D

 56 59  0  0  0  0  0  0  0  0999 V2000
  137.6510   78.1600  222.1330 O   0  0  0  0  0  0  0  0  0  0  0  0
  138.5680   78.1940  221.2790 C   0  0  0  0  0  0  0  0  0  0  0  0
  138.6170   79.2800  220.3760 N   0  0  0  0  0  0  0  0  0  0  0  0
  137.6520   80.3720  220.3860 C   0  0  0  0  0  0  0  0  0  0  0  0
  138.0820   81.4820  221.2430 C   0  0  0  0  0  0  0  0  0  0  0  0
  138.4820   82.5350  220.5830 O   0  0  0  0  0  0  0  0  0  0  0  0
  138.1370   81.6010  222.6190 N   0  0  0  0  0  0  0  0  0  0  0  0
  136.8890   82.2590  223.1860 C   0  0  0  0  0  0  0  0  0  0  0  0
  136.9230   82.2610  224.6710 C   0  0  0  0  0  0  0  0  0  0  0  0
  137.3350   80.9770  225.3120 C   0  0  0  0  0  0  0  0  0  0  0  0
  138.3560   80.2280  224.4840 C   0  0  0  0  0  0  0  0  0  0  0  0
  139.0890   81.2630  223.5880 C   0  0  1  0  0  0  0  0  0  0  0  0
  140.4680   80.9010  223.3340 C   0  0  0  0  0  0  0  0  0  0  0  0
  141.1790   81.2770  222.1070 C   0  0  0  0  0  0  0  0  0  0  0  0
  141.8130   80.0510  221.4420 C   0  0  0  0  0  0  0  0  0  0  0  0
  142.7250   79.3520  222.2860 N   0  0  0  0  0  0  0  0  0  0  0  0
  142.0980   79.0140  223.5160 C   0  0  0  0  0  0  0  0  0  0  0  0
  140.6300   79.3880  223.5470 C   0  0  0  0  0  0  0  0  0  0  0  0
  139.5950   77.1310  221.1940 C   0  0  0  0  0  0  0  0  0  0  0  0
  139.3680   75.9130  221.7980 C   0  0  0  0  0  0  0  0  0  0  0  0
  140.3680   74.9520  221.6900 C   0  0  0  0  0  0  0  0  0  0  0  0
  141.5450   75.2100  221.0000 C   0  0  0  0  0  0  0  0  0  0  0  0
  142.5370   74.2490  220.8970 C   0  0  0  0  0  0  0  0  0  0  0  0
  143.7010   74.5390  220.2030 C   0  0  0  0  0  0  0  0  0  0  0  0
  144.9750   73.3660  220.0460 Cl  0  0  0  0  0  0  0  0  0  0  0  0
  143.8600   75.7870  219.6200 C   0  0  0  0  0  0  0  0  0  0  0  0
  142.8910   76.7630  219.7050 C   0  0  0  0  0  0  0  0  0  0  0  0
  141.7400   76.4530  220.4010 C   0  0  0  0  0  0  0  0  0  0  0  0
  140.7480   77.3410  220.5350 N   0  0  0  0  0  0  0  0  0  0  0  0
  139.4140   79.2620  219.6680 H   0  0  0  0  0  0  0  0  0  0  0  0
  137.5280   80.7449  219.3586 H   0  0  0  0  0  0  0  0  0  0  0  0
  136.7046   79.9825  220.7870 H   0  0  0  0  0  0  0  0  0  0  0  0
  136.8325   83.2966  222.8250 H   0  0  0  0  0  0  0  0  0  0  0  0
  136.0081   81.6900  222.8539 H   0  0  0  0  0  0  0  0  0  0  0  0
  137.6297   83.0406  224.9916 H   0  0  0  0  0  0  0  0  0  0  0  0
  135.8864   82.4377  224.9939 H   0  0  0  0  0  0  0  0  0  0  0  0
  137.7705   81.1968  226.2979 H   0  0  0  0  0  0  0  0  0  0  0  0
  136.4413   80.3421  225.4023 H   0  0  0  0  0  0  0  0  0  0  0  0
  139.0785   79.7261  225.1444 H   0  0  0  0  0  0  0  0  0  0  0  0
  137.8638   79.4632  223.8652 H   0  0  0  0  0  0  0  0  0  0  0  0
  139.3777   82.2379  224.0077 H   0  0  0  0  0  0  0  0  0  0  0  0
  140.9688   81.5626  224.0562 H   0  0  0  0  0  0  0  0  0  0  0  0
  140.4678   81.7388  221.4063 H   0  0  0  0  0  0  0  0  0  0  0  0
  141.9781   81.9863  222.3684 H   0  0  0  0  0  0  0  0  0  0  0  0
  141.0093   79.3591  221.1499 H   0  0  0  0  0  0  0  0  0  0  0  0
  142.3873   80.4139  220.5769 H   0  0  0  0  0  0  0  0  0  0  0  0
  143.6820   79.7090  222.3280 H   0  0  0  0  0  0  0  0  0  0  0  0
  142.1878   77.9285  223.6700 H   0  0  0  0  0  0  0  0  0  0  0  0
  142.6020   79.5813  224.3124 H   0  0  0  0  0  0  0  0  0  0  0  0
  140.0999   78.8489  222.7480 H   0  0  0  0  0  0  0  0  0  0  0  0
  140.2084   79.1142  224.5254 H   0  0  0  0  0  0  0  0  0  0  0  0
  138.4345   75.7093  222.3430 H   0  0  0  0  0  0  0  0  0  0  0  0
  140.2234   73.9683  222.1605 H   0  0  0  0  0  0  0  0  0  0  0  0
  142.4018   73.2618  221.3631 H   0  0  0  0  0  0  0  0  0  0  0  0
  144.7888   76.0048  219.0724 H   0  0  0  0  0  0  0  0  0  0  0  0
  143.0291   77.7490  219.2373 H   0  0  0  0  0  0  0  0  0  0  0  0
  1  2  2  0
  2  3  1  0
  3  4  1  0
  4  5  1  0
  5  6  2  0
  5  7  1  0
  7  8  1  0
  8  9  1  0
  9 10  1  0
 10 11  1  0
 11 12  1  0
 12 13  1  0
 13 14  1  0
 14 15  1  0
 15 16  1  0
 16 17  1  0
 17 18  1  0
  2 19  1  0
 19 20  2  0
 20 21  1  0
 21 22  2  0
 22 23  1  0
 23 24  2  0
 24 25  1  0
 24 26  1  0
 26 27  2  0
 27 28  1  0
 28 29  2  0
 12  7  1  0
 18 13  1  0
 29 19  1  0
 28 22  1  0
  3 30  1  0
  4 31  1  0
  4 32  1  0
  8 33  1  0
  8 34  1  0
  9 35  1  0
  9 36  1  0
 10 37  1  0
 10 38  1  0
 11 39  1  0
 11 40  1  0
 12 41  1  1
 13 42  1  0
 14 43  1  0
 14 44  1  0
 15 45  1  0
 15 46  1  0
 16 47  1  0
 17 48  1  0
 17 49  1  0
 18 50  1  0
 18 51  1  0
 20 52  1  0
 21 53  1  0
 23 54  1  0
 26 55  1  0
 27 56  1  0
M  END
>  <smiles>  (66) 
O=C(NCC(=O)N1CCCCC1C1CCNCC1)c1ccc2cc(Cl)ccc2n1

>  <score_type>  (66) 
oracle

>  <origin>  (66) 
autodockgpu

>  <m_score__min__energy>  (66) 
-9.1699999999999999

>  <m_primary>  (66) 
energy

>  <rmsd>  (66) 
8.110594251079384

>  <m_score__min__rmsd>  (66) 
8.110594251079384

>  <meeko>  (66) 
{"free_energy": -6.41, "intermolecular_energy": -7.91, "internal_energy": -2.96, "cluster_size": 5, "cluster_id": 8, "rank_in_cluster": 5}

>  <energy>  (66) 
-7.89

>  <cluster_rmsd>  (66) 
0.99

>  <cluster>  (66) 
1

$$$$

     RDKit          3D

 56 59  0  0  0  0  0  0  0  0999 V2000
  140.7710   72.0540  220.9800 O   0  0  0  0  0  0  0  0  0  0  0  0
  140.1580   72.3180  222.0420 C   0  0  0  0  0  0  0  0  0  0  0  0
  139.4970   73.5620  222.1560 N   0  0  0  0  0  0  0  0  0  0  0  0
  139.4890   74.5630  221.0960 C   0  0  0  0  0  0  0  0  0  0  0  0
  140.7990   75.2020  220.9300 C   0  0  0  0  0  0  0  0  0  0  0  0
  141.4080   75.4580  222.0560 O   0  0  0  0  0  0  0  0  0  0  0  0
  141.4910   75.5780  219.7940 N   0  0  0  0  0  0  0  0  0  0  0  0
  140.7140   76.5850  218.9590 C   0  0  0  0  0  0  0  0  0  0  0  0
  141.5330   77.0610  217.8140 C   0  0  0  0  0  0  0  0  0  0  0  0
  142.9460   77.4250  218.1330 C   0  0  0  0  0  0  0  0  0  0  0  0
  143.5240   76.5600  219.2320 C   0  0  0  0  0  0  0  0  0  0  0  0
  142.7300   75.2250  219.2480 C   0  0  1  0  0  0  0  0  0  0  0  0
  143.5450   74.0980  219.6520 C   0  0  0  0  0  0  0  0  0  0  0  0
  144.4010   74.1180  220.8430 C   0  0  0  0  0  0  0  0  0  0  0  0
  145.8380   73.7120  220.4950 C   0  0  0  0  0  0  0  0  0  0  0  0
  145.9370   72.4210  219.8990 N   0  0  0  0  0  0  0  0  0  0  0  0
  145.0790   72.3320  218.7690 C   0  0  0  0  0  0  0  0  0  0  0  0
  144.3910   73.6440  218.4520 C   0  0  0  0  0  0  0  0  0  0  0  0
  140.1090   71.3620  223.1720 C   0  0  0  0  0  0  0  0  0  0  0  0
  139.5680   70.1090  222.9830 C   0  0  0  0  0  0  0  0  0  0  0  0
  139.5450   69.2540  224.0800 C   0  0  0  0  0  0  0  0  0  0  0  0
  140.0460   69.6470  225.3130 C   0  0  0  0  0  0  0  0  0  0  0  0
  140.0190   68.7900  226.4010 C   0  0  0  0  0  0  0  0  0  0  0  0
  140.5270   69.2150  227.6180 C   0  0  0  0  0  0  0  0  0  0  0  0
  140.5140   68.1760  229.0130 Cl  0  0  0  0  0  0  0  0  0  0  0  0
  141.0570   70.4900  227.7340 C   0  0  0  0  0  0  0  0  0  0  0  0
  141.0980   71.3650  226.6710 C   0  0  0  0  0  0  0  0  0  0  0  0
  140.5870   70.9220  225.4670 C   0  0  0  0  0  0  0  0  0  0  0  0
  140.5850   71.7050  224.3820 N   0  0  0  0  0  0  0  0  0  0  0  0
  138.9930   73.7390  223.0780 H   0  0  0  0  0  0  0  0  0  0  0  0
  139.2097   74.0757  220.1502 H   0  0  0  0  0  0  0  0  0  0  0  0
  138.7644   75.3431  221.3725 H   0  0  0  0  0  0  0  0  0  0  0  0
  139.8002   76.1076  218.5756 H   0  0  0  0  0  0  0  0  0  0  0  0
  140.4573   77.4467  219.5926 H   0  0  0  0  0  0  0  0  0  0  0  0
  141.5526   76.2623  217.0579 H   0  0  0  0  0  0  0  0  0  0  0  0
  141.0551   77.9903  217.4705 H   0  0  0  0  0  0  0  0  0  0  0  0
  143.5570   77.3018  217.2266 H   0  0  0  0  0  0  0  0  0  0  0  0
  142.9557   78.4678  218.4831 H   0  0  0  0  0  0  0  0  0  0  0  0
  144.5873   76.3613  219.0324 H   0  0  0  0  0  0  0  0  0  0  0  0
  143.4443   77.0677  220.2045 H   0  0  0  0  0  0  0  0  0  0  0  0
  142.4581   74.7436  218.2971 H   0  0  0  0  0  0  0  0  0  0  0  0
  142.7558   73.4124  219.9943 H   0  0  0  0  0  0  0  0  0  0  0  0
  144.4066   75.1339  221.2648 H   0  0  0  0  0  0  0  0  0  0  0  0
  144.0013   73.3991  221.5734 H   0  0  0  0  0  0  0  0  0  0  0  0
  146.2481   74.4521  219.7920 H   0  0  0  0  0  0  0  0  0  0  0  0
  146.4010   73.6758  221.4393 H   0  0  0  0  0  0  0  0  0  0  0  0
  145.9630   71.6200  220.5340 H   0  0  0  0  0  0  0  0  0  0  0  0
  145.6764   72.0282  217.8967 H   0  0  0  0  0  0  0  0  0  0  0  0
  144.2968   71.5950  219.0032 H   0  0  0  0  0  0  0  0  0  0  0  0
  145.1499   74.4091  218.2312 H   0  0  0  0  0  0  0  0  0  0  0  0
  143.7351   73.5060  217.5798 H   0  0  0  0  0  0  0  0  0  0  0  0
  139.1709   69.7978  222.0055 H   0  0  0  0  0  0  0  0  0  0  0  0
  139.1208   68.2453  223.9678 H   0  0  0  0  0  0  0  0  0  0  0  0
  139.5972   67.7792  226.2995 H   0  0  0  0  0  0  0  0  0  0  0  0
  141.4578   70.8137  228.7059 H   0  0  0  0  0  0  0  0  0  0  0  0
  141.5204   72.3751  226.7768 H   0  0  0  0  0  0  0  0  0  0  0  0
  1  2  2  0
  2  3  1  0
  3  4  1  0
  4  5  1  0
  5  6  2  0
  5  7  1  0
  7  8  1  0
  8  9  1  0
  9 10  1  0
 10 11  1  0
 11 12  1  0
 12 13  1  0
 13 14  1  0
 14 15  1  0
 15 16  1  0
 16 17  1  0
 17 18  1  0
  2 19  1  0
 19 20  2  0
 20 21  1  0
 21 22  2  0
 22 23  1  0
 23 24  2  0
 24 25  1  0
 24 26  1  0
 26 27  2  0
 27 28  1  0
 28 29  2  0
 12  7  1  0
 18 13  1  0
 29 19  1  0
 28 22  1  0
  3 30  1  0
  4 31  1  0
  4 32  1  0
  8 33  1  0
  8 34  1  0
  9 35  1  0
  9 36  1  0
 10 37  1  0
 10 38  1  0
 11 39  1  0
 11 40  1  0
 12 41  1  6
 13 42  1  0
 14 43  1  0
 14 44  1  0
 15 45  1  0
 15 46  1  0
 16 47  1  0
 17 48  1  0
 17 49  1  0
 18 50  1  0
 18 51  1  0
 20 52  1  0
 21 53  1  0
 23 54  1  0
 26 55  1  0
 27 56  1  0
M  END
>  <smiles>  (67) 
O=C(NCC(=O)N1CCCCC1C1CCNCC1)c1ccc2cc(Cl)ccc2n1

>  <score_type>  (67) 
oracle

>  <origin>  (67) 
autodockgpu

>  <m_score__min__energy>  (67) 
-9.1699999999999999

>  <m_primary>  (67) 
energy

>  <rmsd>  (67) 
1.9470953687659687

>  <m_score__min__rmsd>  (67) 
1.9470953687659687

>  <meeko>  (67) 
{"free_energy": -8.8, "intermolecular_energy": -10.29, "internal_energy": -1.61, "cluster_size": 18, "cluster_id": 3, "rank_in_cluster": 1}

>  <energy>  (67) 
-7.8

>  <cluster_rmsd>  (67) 
1.38

>  <cluster>  (67) 
1

$$$$

     RDKit          3D

 56 59  0  0  0  0  0  0  0  0999 V2000
  140.1080   72.2470  220.7160 O   0  0  0  0  0  0  0  0  0  0  0  0
  139.9290   72.5820  221.9110 C   0  0  0  0  0  0  0  0  0  0  0  0
  139.6940   73.9440  222.2080 N   0  0  0  0  0  0  0  0  0  0  0  0
  139.6460   74.9870  221.1920 C   0  0  0  0  0  0  0  0  0  0  0  0
  140.4960   76.1330  221.5360 C   0  0  0  0  0  0  0  0  0  0  0  0
  140.3530   76.5440  222.7660 O   0  0  0  0  0  0  0  0  0  0  0  0
  141.4120   76.8440  220.7850 N   0  0  0  0  0  0  0  0  0  0  0  0
  142.1920   75.9470  219.8360 C   0  0  0  0  0  0  0  0  0  0  0  0
  143.0790   76.7540  218.9580 C   0  0  0  0  0  0  0  0  0  0  0  0
  142.4590   77.9690  218.3510 C   0  0  0  0  0  0  0  0  0  0  0  0
  141.4350   78.6050  219.2650 C   0  0  0  0  0  0  0  0  0  0  0  0
  141.7810   78.1920  220.7210 C   0  0  1  0  0  0  0  0  0  0  0  0
  141.4340   79.2140  221.6870 C   0  0  0  0  0  0  0  0  0  0  0  0
  140.9720   80.5530  221.3020 C   0  0  0  0  0  0  0  0  0  0  0  0
  141.8030   81.6400  221.9910 C   0  0  0  0  0  0  0  0  0  0  0  0
  141.7830   81.5560  223.4150 N   0  0  0  0  0  0  0  0  0  0  0  0
  142.1690   80.2550  223.8380 C   0  0  0  0  0  0  0  0  0  0  0  0
  142.5910   79.3670  222.6850 C   0  0  0  0  0  0  0  0  0  0  0  0
  139.9570   71.5920  223.0110 C   0  0  0  0  0  0  0  0  0  0  0  0
  139.4690   70.3210  222.7980 C   0  0  0  0  0  0  0  0  0  0  0  0
  139.5160   69.4330  223.8680 C   0  0  0  0  0  0  0  0  0  0  0  0
  140.0340   69.8120  225.0990 C   0  0  0  0  0  0  0  0  0  0  0  0
  140.0770   68.9230  226.1600 C   0  0  0  0  0  0  0  0  0  0  0  0
  140.6000   69.3350  227.3760 C   0  0  0  0  0  0  0  0  0  0  0  0
  140.6750   68.2550  228.7380 Cl  0  0  0  0  0  0  0  0  0  0  0  0
  141.0730   70.6300  227.5170 C   0  0  0  0  0  0  0  0  0  0  0  0
  141.0440   71.5360  226.4810 C   0  0  0  0  0  0  0  0  0  0  0  0
  140.5190   71.1060  225.2780 C   0  0  0  0  0  0  0  0  0  0  0  0
  140.4500   71.9210  224.2180 N   0  0  0  0  0  0  0  0  0  0  0  0
  139.5500   74.1780  223.2380 H   0  0  0  0  0  0  0  0  0  0  0  0
  139.9885   74.5660  220.2352 H   0  0  0  0  0  0  0  0  0  0  0  0
  138.6080   75.3443  221.1224 H   0  0  0  0  0  0  0  0  0  0  0  0
  142.8051   75.2473  220.4230 H   0  0  0  0  0  0  0  0  0  0  0  0
  141.4790   75.3950  219.2060 H   0  0  0  0  0  0  0  0  0  0  0  0
  143.9425   77.0788  219.5571 H   0  0  0  0  0  0  0  0  0  0  0  0
  143.3418   76.0988  218.1144 H   0  0  0  0  0  0  0  0  0  0  0  0
  143.2506   78.7032  218.1406 H   0  0  0  0  0  0  0  0  0  0  0  0
  141.9438   77.6607  217.4293 H   0  0  0  0  0  0  0  0  0  0  0  0
  141.4739   79.6999  219.1668 H   0  0  0  0  0  0  0  0  0  0  0  0
  140.4213   78.2701  219.0001 H   0  0  0  0  0  0  0  0  0  0  0  0
  142.8316   78.1803  221.0468 H   0  0  0  0  0  0  0  0  0  0  0  0
  140.4954   78.7902  222.0735 H   0  0  0  0  0  0  0  0  0  0  0  0
  141.0651   80.6659  220.2118 H   0  0  0  0  0  0  0  0  0  0  0  0
  139.9227   80.6644  221.6129 H   0  0  0  0  0  0  0  0  0  0  0  0
  142.8453   81.5487  221.6516 H   0  0  0  0  0  0  0  0  0  0  0  0
  141.3582   82.6083  221.7182 H   0  0  0  0  0  0  0  0  0  0  0  0
  140.9900   81.9910  223.8920 H   0  0  0  0  0  0  0  0  0  0  0  0
  143.0127   80.3482  224.5376 H   0  0  0  0  0  0  0  0  0  0  0  0
  141.2950   79.7875  224.3151 H   0  0  0  0  0  0  0  0  0  0  0  0
  143.4545   79.8188  222.1748 H   0  0  0  0  0  0  0  0  0  0  0  0
  142.8640   78.3754  223.0750 H   0  0  0  0  0  0  0  0  0  0  0  0
  139.0592   70.0209  221.8223 H   0  0  0  0  0  0  0  0  0  0  0  0
  139.1349   68.4096  223.7359 H   0  0  0  0  0  0  0  0  0  0  0  0
  139.6988   67.8972  226.0388 H   0  0  0  0  0  0  0  0  0  0  0  0
  141.4847   70.9439  228.4876 H   0  0  0  0  0  0  0  0  0  0  0  0
  141.4236   72.5608  226.6062 H   0  0  0  0  0  0  0  0  0  0  0  0
  1  2  2  0
  2  3  1  0
  3  4  1  0
  4  5  1  0
  5  6  2  0
  5  7  1  0
  7  8  1  0
  8  9  1  0
  9 10  1  0
 10 11  1  0
 11 12  1  0
 12 13  1  0
 13 14  1  0
 14 15  1  0
 15 16  1  0
 16 17  1  0
 17 18  1  0
  2 19  1  0
 19 20  2  0
 20 21  1  0
 21 22  2  0
 22 23  1  0
 23 24  2  0
 24 25  1  0
 24 26  1  0
 26 27  2  0
 27 28  1  0
 28 29  2  0
 12  7  1  0
 18 13  1  0
 29 19  1  0
 28 22  1  0
  3 30  1  0
  4 31  1  0
  4 32  1  0
  8 33  1  0
  8 34  1  0
  9 35  1  0
  9 36  1  0
 10 37  1  0
 10 38  1  0
 11 39  1  0
 11 40  1  0
 12 41  1  6
 13 42  1  0
 14 43  1  0
 14 44  1  0
 15 45  1  0
 15 46  1  0
 16 47  1  0
 17 48  1  0
 17 49  1  0
 18 50  1  0
 18 51  1  0
 20 52  1  0
 21 53  1  0
 23 54  1  0
 26 55  1  0
 27 56  1  0
M  END
>  <smiles>  (68) 
O=C(NCC(=O)N1CCCCC1C1CCNCC1)c1ccc2cc(Cl)ccc2n1

>  <score_type>  (68) 
oracle

>  <origin>  (68) 
autodockgpu

>  <m_score__min__energy>  (68) 
-9.1699999999999999

>  <m_primary>  (68) 
energy

>  <rmsd>  (68) 
2.0662612165505188

>  <m_score__min__rmsd>  (68) 
2.0662612165505188

>  <meeko>  (68) 
{"free_energy": -9.08, "intermolecular_energy": -10.57, "internal_energy": -1.67, "cluster_size": 18, "cluster_id": 1, "rank_in_cluster": 5}

>  <energy>  (68) 
-7.76

>  <cluster_rmsd>  (68) 
1.57

>  <cluster>  (68) 
1

$$$$

     RDKit          3D

 56 59  0  0  0  0  0  0  0  0999 V2000
  139.9060   72.5990  220.7660 O   0  0  0  0  0  0  0  0  0  0  0  0
  139.7290   72.8960  221.9710 C   0  0  0  0  0  0  0  0  0  0  0  0
  139.4020   74.2310  222.3020 N   0  0  0  0  0  0  0  0  0  0  0  0
  139.2580   75.2890  221.3100 C   0  0  0  0  0  0  0  0  0  0  0  0
  140.5310   75.9600  221.0290 C   0  0  0  0  0  0  0  0  0  0  0  0
  141.0350   76.5870  222.0560 O   0  0  0  0  0  0  0  0  0  0  0  0
  141.2810   76.0410  219.8710 N   0  0  0  0  0  0  0  0  0  0  0  0
  140.6000   76.8900  218.8080 C   0  0  0  0  0  0  0  0  0  0  0  0
  141.4830   77.0600  217.6250 C   0  0  0  0  0  0  0  0  0  0  0  0
  142.9070   77.3990  217.9220 C   0  0  0  0  0  0  0  0  0  0  0  0
  143.3920   76.7570  219.2030 C   0  0  0  0  0  0  0  0  0  0  0  0
  142.5100   75.5070  219.4670 C   0  0  1  0  0  0  0  0  0  0  0  0
  143.2350   74.4460  220.1360 C   0  0  0  0  0  0  0  0  0  0  0  0
  144.6600   74.5410  220.4720 C   0  0  0  0  0  0  0  0  0  0  0  0
  145.4320   73.3300  219.9370 C   0  0  0  0  0  0  0  0  0  0  0  0
  144.9430   72.0820  220.4250 N   0  0  0  0  0  0  0  0  0  0  0  0
  143.5490   71.9660  220.1750 C   0  0  0  0  0  0  0  0  0  0  0  0
  142.9990   73.1310  219.3770 C   0  0  0  0  0  0  0  0  0  0  0  0
  139.8520   71.8890  223.0490 C   0  0  0  0  0  0  0  0  0  0  0  0
  139.4780   70.5840  222.8100 C   0  0  0  0  0  0  0  0  0  0  0  0
  139.6110   69.6800  223.8590 C   0  0  0  0  0  0  0  0  0  0  0  0
  140.1010   70.0770  225.0950 C   0  0  0  0  0  0  0  0  0  0  0  0
  140.2310   69.1720  226.1360 C   0  0  0  0  0  0  0  0  0  0  0  0
  140.7230   69.6020  227.3580 C   0  0  0  0  0  0  0  0  0  0  0  0
  140.9030   68.5040  228.6950 Cl  0  0  0  0  0  0  0  0  0  0  0  0
  141.0800   70.9310  227.5270 C   0  0  0  0  0  0  0  0  0  0  0  0
  140.9630   71.8540  226.5110 C   0  0  0  0  0  0  0  0  0  0  0  0
  140.4710   71.4050  225.3010 C   0  0  0  0  0  0  0  0  0  0  0  0
  140.3230   72.2340  224.2600 N   0  0  0  0  0  0  0  0  0  0  0  0
  139.2640   74.4330  223.3400 H   0  0  0  0  0  0  0  0  0  0  0  0
  138.8750   74.8502  220.3768 H   0  0  0  0  0  0  0  0  0  0  0  0
  138.5622   76.0391  221.7140 H   0  0  0  0  0  0  0  0  0  0  0  0
  139.6679   76.3969  218.4948 H   0  0  0  0  0  0  0  0  0  0  0  0
  140.3838   77.8814  219.2328 H   0  0  0  0  0  0  0  0  0  0  0  0
  141.4714   76.1182  217.0567 H   0  0  0  0  0  0  0  0  0  0  0  0
  141.0795   77.9206  217.0714 H   0  0  0  0  0  0  0  0  0  0  0  0
  143.5355   77.0485  217.0901 H   0  0  0  0  0  0  0  0  0  0  0  0
  142.9761   78.4900  218.0439 H   0  0  0  0  0  0  0  0  0  0  0  0
  144.4449   76.4570  219.0966 H   0  0  0  0  0  0  0  0  0  0  0  0
  143.3178   77.4653  220.0414 H   0  0  0  0  0  0  0  0  0  0  0  0
  142.2348   74.8505  218.6284 H   0  0  0  0  0  0  0  0  0  0  0  0
  142.7961   74.5272  221.1414 H   0  0  0  0  0  0  0  0  0  0  0  0
  145.0744   75.4574  220.0264 H   0  0  0  0  0  0  0  0  0  0  0  0
  144.7611   74.5654  221.5671 H   0  0  0  0  0  0  0  0  0  0  0  0
  145.3585   73.3275  218.8395 H   0  0  0  0  0  0  0  0  0  0  0  0
  146.4706   73.4289  220.2856 H   0  0  0  0  0  0  0  0  0  0  0  0
  145.2840   71.7790  221.3400 H   0  0  0  0  0  0  0  0  0  0  0  0
  143.3683   71.0379  219.6129 H   0  0  0  0  0  0  0  0  0  0  0  0
  143.0364   71.9585  221.1482 H   0  0  0  0  0  0  0  0  0  0  0  0
  143.5067   73.1768  218.4023 H   0  0  0  0  0  0  0  0  0  0  0  0
  141.9184   72.9888  219.2285 H   0  0  0  0  0  0  0  0  0  0  0  0
  139.0901   70.2701  221.8297 H   0  0  0  0  0  0  0  0  0  0  0  0
  139.3220   68.6298  223.7056 H   0  0  0  0  0  0  0  0  0  0  0  0
  139.9456   68.1193  225.9934 H   0  0  0  0  0  0  0  0  0  0  0  0
  141.4687   71.2586  228.5025 H   0  0  0  0  0  0  0  0  0  0  0  0
  141.2497   72.9058  226.6574 H   0  0  0  0  0  0  0  0  0  0  0  0
  1  2  2  0
  2  3  1  0
  3  4  1  0
  4  5  1  0
  5  6  2  0
  5  7  1  0
  7  8  1  0
  8  9  1  0
  9 10  1  0
 10 11  1  0
 11 12  1  0
 12 13  1  0
 13 14  1  0
 14 15  1  0
 15 16  1  0
 16 17  1  0
 17 18  1  0
  2 19  1  0
 19 20  2  0
 20 21  1  0
 21 22  2  0
 22 23  1  0
 23 24  2  0
 24 25  1  0
 24 26  1  0
 26 27  2  0
 27 28  1  0
 28 29  2  0
 12  7  1  0
 18 13  1  0
 29 19  1  0
 28 22  1  0
  3 30  1  0
  4 31  1  0
  4 32  1  0
  8 33  1  0
  8 34  1  0
  9 35  1  0
  9 36  1  0
 10 37  1  0
 10 38  1  0
 11 39  1  0
 11 40  1  0
 12 41  1  6
 13 42  1  0
 14 43  1  0
 14 44  1  0
 15 45  1  0
 15 46  1  0
 16 47  1  0
 17 48  1  0
 17 49  1  0
 18 50  1  0
 18 51  1  0
 20 52  1  0
 21 53  1  0
 23 54  1  0
 26 55  1  0
 27 56  1  0
M  END
>  <smiles>  (69) 
O=C(NCC(=O)N1CCCCC1C1CCNCC1)c1ccc2cc(Cl)ccc2n1

>  <score_type>  (69) 
oracle

>  <origin>  (69) 
autodockgpu

>  <m_score__min__energy>  (69) 
-9.1699999999999999

>  <m_primary>  (69) 
energy

>  <rmsd>  (69) 
2.016232360596985

>  <m_score__min__rmsd>  (69) 
2.016232360596985

>  <meeko>  (69) 
{"free_energy": -8.44, "intermolecular_energy": -9.93, "internal_energy": -1.91, "cluster_size": 18, "cluster_id": 3, "rank_in_cluster": 10}

>  <energy>  (69) 
-9.0

>  <cluster_rmsd>  (69) 
0.0

>  <cluster>  (69) 
2

$$$$

     RDKit          3D

 56 59  0  0  0  0  0  0  0  0999 V2000
  139.0380   71.8200  220.5980 O   0  0  0  0  0  0  0  0  0  0  0  0
  139.0440   72.2420  221.7790 C   0  0  0  0  0  0  0  0  0  0  0  0
  138.7840   73.6110  222.0140 N   0  0  0  0  0  0  0  0  0  0  0  0
  138.5060   74.5660  220.9490 C   0  0  0  0  0  0  0  0  0  0  0  0
  139.6660   74.7730  220.0750 C   0  0  0  0  0  0  0  0  0  0  0  0
  139.3950   74.6600  218.8030 O   0  0  0  0  0  0  0  0  0  0  0  0
  140.9850   75.0630  220.3670 N   0  0  0  0  0  0  0  0  0  0  0  0
  141.8790   73.8370  220.2520 C   0  0  0  0  0  0  0  0  0  0  0  0
  143.3050   74.2060  220.4500 C   0  0  0  0  0  0  0  0  0  0  0  0
  143.7670   75.4250  219.7220 C   0  0  0  0  0  0  0  0  0  0  0  0
  142.6760   76.4650  219.6010 C   0  0  0  0  0  0  0  0  0  0  0  0
  141.6640   76.2240  220.7540 C   0  0  1  0  0  0  0  0  0  0  0  0
  141.0500   77.4500  221.2210 C   0  0  0  0  0  0  0  0  0  0  0  0
  141.8240   78.6420  221.5870 C   0  0  0  0  0  0  0  0  0  0  0  0
  141.4480   79.1320  222.9890 C   0  0  0  0  0  0  0  0  0  0  0  0
  140.0630   79.4410  223.1320 N   0  0  0  0  0  0  0  0  0  0  0  0
  139.2660   78.3340  222.7330 C   0  0  0  0  0  0  0  0  0  0  0  0
  140.0940   77.1170  222.3760 C   0  0  0  0  0  0  0  0  0  0  0  0
  139.3130   71.3460  222.9260 C   0  0  0  0  0  0  0  0  0  0  0  0
  138.9460   70.0190  222.8570 C   0  0  0  0  0  0  0  0  0  0  0  0
  139.2200   69.2240  223.9650 C   0  0  0  0  0  0  0  0  0  0  0  0
  139.8390   69.7450  225.0930 C   0  0  0  0  0  0  0  0  0  0  0  0
  140.1080   68.9480  226.1930 C   0  0  0  0  0  0  0  0  0  0  0  0
  140.7260   69.5010  227.3030 C   0  0  0  0  0  0  0  0  0  0  0  0
  141.0840   68.5410  228.7090 Cl  0  0  0  0  0  0  0  0  0  0  0  0
  141.0670   70.8440  227.3020 C   0  0  0  0  0  0  0  0  0  0  0  0
  140.8130   71.6620  226.2230 C   0  0  0  0  0  0  0  0  0  0  0  0
  140.1970   71.0920  225.1270 C   0  0  0  0  0  0  0  0  0  0  0  0
  139.9110   71.8130  224.0360 N   0  0  0  0  0  0  0  0  0  0  0  0
  138.8020   73.9200  223.0340 H   0  0  0  0  0  0  0  0  0  0  0  0
  137.6690   74.1880  220.3436 H   0  0  0  0  0  0  0  0  0  0  0  0
  138.2580   75.5306  221.4160 H   0  0  0  0  0  0  0  0  0  0  0  0
  141.5862   73.1035  221.0177 H   0  0  0  0  0  0  0  0  0  0  0  0
  141.7614   73.4068  219.2465 H   0  0  0  0  0  0  0  0  0  0  0  0
  143.4640   74.3743  221.5253 H   0  0  0  0  0  0  0  0  0  0  0  0
  143.8901   73.3711  220.0370 H   0  0  0  0  0  0  0  0  0  0  0  0
  144.6155   75.8634  220.2677 H   0  0  0  0  0  0  0  0  0  0  0  0
  144.0589   75.1215  218.7058 H   0  0  0  0  0  0  0  0  0  0  0  0
  143.1081   77.4730  219.6864 H   0  0  0  0  0  0  0  0  0  0  0  0
  142.1744   76.3855  218.6252 H   0  0  0  0  0  0  0  0  0  0  0  0
  142.0354   75.9758  221.7592 H   0  0  0  0  0  0  0  0  0  0  0  0
  140.5951   77.7973  220.2816 H   0  0  0  0  0  0  0  0  0  0  0  0
  142.8957   78.3948  221.5678 H   0  0  0  0  0  0  0  0  0  0  0  0
  141.5996   79.4408  220.8648 H   0  0  0  0  0  0  0  0  0  0  0  0
  141.7057   78.3453  223.7134 H   0  0  0  0  0  0  0  0  0  0  0  0
  142.0068   80.0627  223.1668 H   0  0  0  0  0  0  0  0  0  0  0  0
  139.7640   80.3710  222.8280 H   0  0  0  0  0  0  0  0  0  0  0  0
  138.5907   78.0700  223.5602 H   0  0  0  0  0  0  0  0  0  0  0  0
  138.7087   78.6327  221.8329 H   0  0  0  0  0  0  0  0  0  0  0  0
  140.6787   76.8044  223.2537 H   0  0  0  0  0  0  0  0  0  0  0  0
  139.4226   76.3032  222.0647 H   0  0  0  0  0  0  0  0  0  0  0  0
  138.4567   69.6059  221.9626 H   0  0  0  0  0  0  0  0  0  0  0  0
  138.9404   68.1603  223.9470 H   0  0  0  0  0  0  0  0  0  0  0  0
  139.8329   67.8830  226.1856 H   0  0  0  0  0  0  0  0  0  0  0  0
  141.5558   71.2703  228.1905 H   0  0  0  0  0  0  0  0  0  0  0  0
  141.0899   72.7265  226.2344 H   0  0  0  0  0  0  0  0  0  0  0  0
  1  2  2  0
  2  3  1  0
  3  4  1  0
  4  5  1  0
  5  6  2  0
  5  7  1  0
  7  8  1  0
  8  9  1  0
  9 10  1  0
 10 11  1  0
 11 12  1  0
 12 13  1  0
 13 14  1  0
 14 15  1  0
 15 16  1  0
 16 17  1  0
 17 18  1  0
  2 19  1  0
 19 20  2  0
 20 21  1  0
 21 22  2  0
 22 23  1  0
 23 24  2  0
 24 25  1  0
 24 26  1  0
 26 27  2  0
 27 28  1  0
 28 29  2  0
 12  7  1  0
 18 13  1  0
 29 19  1  0
 28 22  1  0
  3 30  1  0
  4 31  1  0
  4 32  1  0
  8 33  1  0
  8 34  1  0
  9 35  1  0
  9 36  1  0
 10 37  1  0
 10 38  1  0
 11 39  1  0
 11 40  1  0
 12 41  1  1
 13 42  1  0
 14 43  1  0
 14 44  1  0
 15 45  1  0
 15 46  1  0
 16 47  1  0
 17 48  1  0
 17 49  1  0
 18 50  1  0
 18 51  1  0
 20 52  1  0
 21 53  1  0
 23 54  1  0
 26 55  1  0
 27 56  1  0
M  END
>  <smiles>  (70) 
O=C(NCC(=O)N1CCCCC1C1CCNCC1)c1ccc2cc(Cl)ccc2n1

>  <score_type>  (70) 
oracle

>  <origin>  (70) 
autodockgpu

>  <m_score__min__energy>  (70) 
-9.1699999999999999

>  <m_primary>  (70) 
energy

>  <rmsd>  (70) 
2.098674544355863

>  <m_score__min__rmsd>  (70) 
2.098674544355863

>  <meeko>  (70) 
{"free_energy": -8.04, "intermolecular_energy": -9.53, "internal_energy": -1.75, "cluster_size": 18, "cluster_id": 1, "rank_in_cluster": 10}

>  <energy>  (70) 
-8.91

>  <cluster_rmsd>  (70) 
0.29

>  <cluster>  (70) 
2

$$$$

     RDKit          3D

 56 59  0  0  0  0  0  0  0  0999 V2000
  140.2110   72.3200  220.6500 O   0  0  0  0  0  0  0  0  0  0  0  0
  139.9830   72.6840  221.8280 C   0  0  0  0  0  0  0  0  0  0  0  0
  139.7600   74.0560  222.0840 N   0  0  0  0  0  0  0  0  0  0  0  0
  139.7790   75.0780  221.0450 C   0  0  0  0  0  0  0  0  0  0  0  0
  140.5100   76.2780  221.4630 C   0  0  0  0  0  0  0  0  0  0  0  0
  140.3100   76.6100  222.7100 O   0  0  0  0  0  0  0  0  0  0  0  0
  141.3670   77.1110  220.7690 N   0  0  0  0  0  0  0  0  0  0  0  0
  142.0200   76.4040  219.5910 C   0  0  0  0  0  0  0  0  0  0  0  0
  142.8370   77.3550  218.7930 C   0  0  0  0  0  0  0  0  0  0  0  0
  142.1940   78.6690  218.4940 C   0  0  0  0  0  0  0  0  0  0  0  0
  141.2870   79.1290  219.6130 C   0  0  0  0  0  0  0  0  0  0  0  0
  141.7660   78.4440  220.9220 C   0  0  1  0  0  0  0  0  0  0  0  0
  141.5470   79.2660  222.0930 C   0  0  0  0  0  0  0  0  0  0  0  0
  140.5400   80.3310  222.1450 C   0  0  0  0  0  0  0  0  0  0  0  0
  141.1620   81.6550  222.6010 C   0  0  0  0  0  0  0  0  0  0  0  0
  141.7920   81.5790  223.8780 N   0  0  0  0  0  0  0  0  0  0  0  0
  142.7410   80.5200  223.8980 C   0  0  0  0  0  0  0  0  0  0  0  0
  142.8940   79.8480  222.5490 C   0  0  0  0  0  0  0  0  0  0  0  0
  139.9420   71.7190  222.9490 C   0  0  0  0  0  0  0  0  0  0  0  0
  139.3530   70.4860  222.7670 C   0  0  0  0  0  0  0  0  0  0  0  0
  139.3390   69.6200  223.8550 C   0  0  0  0  0  0  0  0  0  0  0  0
  139.8960   69.9820  225.0740 C   0  0  0  0  0  0  0  0  0  0  0  0
  139.8770   69.1150  226.1540 C   0  0  0  0  0  0  0  0  0  0  0  0
  140.4420   69.5090  227.3560 C   0  0  0  0  0  0  0  0  0  0  0  0
  140.4430   68.4560  228.7410 Cl  0  0  0  0  0  0  0  0  0  0  0  0
  141.0180   70.7650  227.4670 C   0  0  0  0  0  0  0  0  0  0  0  0
  141.0510   71.6490  226.4110 C   0  0  0  0  0  0  0  0  0  0  0  0
  140.4840   71.2370  225.2220 C   0  0  0  0  0  0  0  0  0  0  0  0
  140.4710   72.0320  224.1450 N   0  0  0  0  0  0  0  0  0  0  0  0
  139.5720   74.3150  223.1010 H   0  0  0  0  0  0  0  0  0  0  0  0
  140.2625   74.6629  220.1484 H   0  0  0  0  0  0  0  0  0  0  0  0
  138.7387   75.3704  220.8394 H   0  0  0  0  0  0  0  0  0  0  0  0
  142.6683   75.5991  219.9675 H   0  0  0  0  0  0  0  0  0  0  0  0
  141.2309   75.9894  218.9465 H   0  0  0  0  0  0  0  0  0  0  0  0
  143.7655   77.5519  219.3490 H   0  0  0  0  0  0  0  0  0  0  0  0
  142.9947   76.8699  217.8184 H   0  0  0  0  0  0  0  0  0  0  0  0
  142.9812   79.4225  218.3436 H   0  0  0  0  0  0  0  0  0  0  0  0
  141.5793   78.5462  217.5901 H   0  0  0  0  0  0  0  0  0  0  0  0
  141.3474   80.2222  219.7186 H   0  0  0  0  0  0  0  0  0  0  0  0
  140.2426   78.8594  219.3974 H   0  0  0  0  0  0  0  0  0  0  0  0
  142.8432   78.3620  221.1289 H   0  0  0  0  0  0  0  0  0  0  0  0
  141.0748   78.5231  222.7527 H   0  0  0  0  0  0  0  0  0  0  0  0
  140.1055   80.4641  221.1432 H   0  0  0  0  0  0  0  0  0  0  0  0
  139.7626   80.0424  222.8678 H   0  0  0  0  0  0  0  0  0  0  0  0
  141.9150   81.9594  221.8591 H   0  0  0  0  0  0  0  0  0  0  0  0
  140.3426   82.3837  222.6880 H   0  0  0  0  0  0  0  0  0  0  0  0
  141.1900   81.6870  224.6970 H   0  0  0  0  0  0  0  0  0  0  0  0
  143.7168   80.9273  224.2012 H   0  0  0  0  0  0  0  0  0  0  0  0
  142.3788   79.7620  224.6081 H   0  0  0  0  0  0  0  0  0  0  0  0
  143.2393   80.5874  221.8113 H   0  0  0  0  0  0  0  0  0  0  0  0
  143.6279   79.0331  222.6340 H   0  0  0  0  0  0  0  0  0  0  0  0
  138.9122   70.1989  221.8009 H   0  0  0  0  0  0  0  0  0  0  0  0
  138.8770   68.6275  223.7475 H   0  0  0  0  0  0  0  0  0  0  0  0
  139.4165   68.1206  226.0580 H   0  0  0  0  0  0  0  0  0  0  0  0
  141.4623   71.0649  228.4276 H   0  0  0  0  0  0  0  0  0  0  0  0
  141.5107   72.6433  226.5113 H   0  0  0  0  0  0  0  0  0  0  0  0
  1  2  2  0
  2  3  1  0
  3  4  1  0
  4  5  1  0
  5  6  2  0
  5  7  1  0
  7  8  1  0
  8  9  1  0
  9 10  1  0
 10 11  1  0
 11 12  1  0
 12 13  1  0
 13 14  1  0
 14 15  1  0
 15 16  1  0
 16 17  1  0
 17 18  1  0
  2 19  1  0
 19 20  2  0
 20 21  1  0
 21 22  2  0
 22 23  1  0
 23 24  2  0
 24 25  1  0
 24 26  1  0
 26 27  2  0
 27 28  1  0
 28 29  2  0
 12  7  1  0
 18 13  1  0
 29 19  1  0
 28 22  1  0
  3 30  1  0
  4 31  1  0
  4 32  1  0
  8 33  1  0
  8 34  1  0
  9 35  1  0
  9 36  1  0
 10 37  1  0
 10 38  1  0
 11 39  1  0
 11 40  1  0
 12 41  1  6
 13 42  1  0
 14 43  1  0
 14 44  1  0
 15 45  1  0
 15 46  1  0
 16 47  1  0
 17 48  1  0
 17 49  1  0
 18 50  1  0
 18 51  1  0
 20 52  1  0
 21 53  1  0
 23 54  1  0
 26 55  1  0
 27 56  1  0
M  END
>  <smiles>  (71) 
O=C(NCC(=O)N1CCCCC1C1CCNCC1)c1ccc2cc(Cl)ccc2n1

>  <score_type>  (71) 
oracle

>  <origin>  (71) 
autodockgpu

>  <m_score__min__energy>  (71) 
-9.1699999999999999

>  <m_primary>  (71) 
energy

>  <rmsd>  (71) 
2.192309774962807

>  <m_score__min__rmsd>  (71) 
2.192309774962807

>  <meeko>  (71) 
{"free_energy": -9.1, "intermolecular_energy": -10.59, "internal_energy": -1.69, "cluster_size": 18, "cluster_id": 1, "rank_in_cluster": 4}

>  <energy>  (71) 
-8.41

>  <cluster_rmsd>  (71) 
1.12

>  <cluster>  (71) 
2

$$$$

     RDKit          3D

 56 59  0  0  0  0  0  0  0  0999 V2000
  140.1130   72.3110  220.6630 O   0  0  0  0  0  0  0  0  0  0  0  0
  139.9360   72.6560  221.8550 C   0  0  0  0  0  0  0  0  0  0  0  0
  139.7090   74.0220  222.1420 N   0  0  0  0  0  0  0  0  0  0  0  0
  139.6680   75.0580  221.1180 C   0  0  0  0  0  0  0  0  0  0  0  0
  140.4040   76.2610  221.5200 C   0  0  0  0  0  0  0  0  0  0  0  0
  140.1140   76.6810  222.7210 O   0  0  0  0  0  0  0  0  0  0  0  0
  141.3440   77.0200  220.8480 N   0  0  0  0  0  0  0  0  0  0  0  0
  142.0210   76.2360  219.7340 C   0  0  0  0  0  0  0  0  0  0  0  0
  142.9330   77.1120  218.9540 C   0  0  0  0  0  0  0  0  0  0  0  0
  142.3830   78.4480  218.5750 C   0  0  0  0  0  0  0  0  0  0  0  0
  141.4430   78.9970  219.6240 C   0  0  0  0  0  0  0  0  0  0  0  0
  141.8090   78.3340  220.9800 C   0  0  1  0  0  0  0  0  0  0  0  0
  141.5720   79.2090  222.1090 C   0  0  0  0  0  0  0  0  0  0  0  0
  140.6210   80.3260  222.0690 C   0  0  0  0  0  0  0  0  0  0  0  0
  141.2890   81.6320  222.5140 C   0  0  0  0  0  0  0  0  0  0  0  0
  141.8440   81.5690  223.8260 N   0  0  0  0  0  0  0  0  0  0  0  0
  142.7320   80.4650  223.9340 C   0  0  0  0  0  0  0  0  0  0  0  0
  142.9220   79.7360  222.6190 C   0  0  0  0  0  0  0  0  0  0  0  0
  139.9580   71.6750  222.9630 C   0  0  0  0  0  0  0  0  0  0  0  0
  139.4710   70.4020  222.7570 C   0  0  0  0  0  0  0  0  0  0  0  0
  139.5120   69.5220  223.8340 C   0  0  0  0  0  0  0  0  0  0  0  0
  140.0240   69.9100  225.0640 C   0  0  0  0  0  0  0  0  0  0  0  0
  140.0610   69.0290  226.1320 C   0  0  0  0  0  0  0  0  0  0  0  0
  140.5770   69.4490  227.3470 C   0  0  0  0  0  0  0  0  0  0  0  0
  140.6460   68.3800  228.7170 Cl  0  0  0  0  0  0  0  0  0  0  0  0
  141.0510   70.7450  227.4820 C   0  0  0  0  0  0  0  0  0  0  0  0
  141.0270   71.6440  226.4380 C   0  0  0  0  0  0  0  0  0  0  0  0
  140.5090   71.2060  225.2360 C   0  0  0  0  0  0  0  0  0  0  0  0
  140.4450   72.0120  224.1700 N   0  0  0  0  0  0  0  0  0  0  0  0
  139.5660   74.2640  223.1700 H   0  0  0  0  0  0  0  0  0  0  0  0
  140.1144   74.6613  220.1942 H   0  0  0  0  0  0  0  0  0  0  0  0
  138.6161   75.3404  220.9640 H   0  0  0  0  0  0  0  0  0  0  0  0
  142.6011   75.4114  220.1739 H   0  0  0  0  0  0  0  0  0  0  0  0
  141.2473   75.8411  219.0591 H   0  0  0  0  0  0  0  0  0  0  0  0
  143.8385   77.2780  219.5560 H   0  0  0  0  0  0  0  0  0  0  0  0
  143.1169   76.5844  218.0065 H   0  0  0  0  0  0  0  0  0  0  0  0
  143.2188   79.1513  218.4453 H   0  0  0  0  0  0  0  0  0  0  0  0
  141.8136   78.3264  217.6417 H   0  0  0  0  0  0  0  0  0  0  0  0
  141.5596   80.0884  219.6971 H   0  0  0  0  0  0  0  0  0  0  0  0
  140.3985   78.7779  219.3577 H   0  0  0  0  0  0  0  0  0  0  0  0
  142.8666   78.2000  221.2512 H   0  0  0  0  0  0  0  0  0  0  0  0
  141.0259   78.5169  222.7668 H   0  0  0  0  0  0  0  0  0  0  0  0
  140.2484   80.4446  221.0409 H   0  0  0  0  0  0  0  0  0  0  0  0
  139.7912   80.1047  222.7563 H   0  0  0  0  0  0  0  0  0  0  0  0
  142.0964   81.8691  221.8055 H   0  0  0  0  0  0  0  0  0  0  0  0
  140.5074   82.4059  222.5303 H   0  0  0  0  0  0  0  0  0  0  0  0
  141.2050   81.7380  224.6060 H   0  0  0  0  0  0  0  0  0  0  0  0
  143.7103   80.8326  224.2771 H   0  0  0  0  0  0  0  0  0  0  0  0
  142.2916   79.7532  224.6477 H   0  0  0  0  0  0  0  0  0  0  0  0
  143.3463   80.4283  221.8770 H   0  0  0  0  0  0  0  0  0  0  0  0
  143.6054   78.8878  222.7725 H   0  0  0  0  0  0  0  0  0  0  0  0
  139.0666   70.0945  221.7813 H   0  0  0  0  0  0  0  0  0  0  0  0
  139.1308   68.4979  223.7079 H   0  0  0  0  0  0  0  0  0  0  0  0
  139.6831   68.0025  226.0162 H   0  0  0  0  0  0  0  0  0  0  0  0
  141.4587   71.0653  228.4522 H   0  0  0  0  0  0  0  0  0  0  0  0
  141.4056   72.6698  226.5578 H   0  0  0  0  0  0  0  0  0  0  0  0
  1  2  2  0
  2  3  1  0
  3  4  1  0
  4  5  1  0
  5  6  2  0
  5  7  1  0
  7  8  1  0
  8  9  1  0
  9 10  1  0
 10 11  1  0
 11 12  1  0
 12 13  1  0
 13 14  1  0
 14 15  1  0
 15 16  1  0
 16 17  1  0
 17 18  1  0
  2 19  1  0
 19 20  2  0
 20 21  1  0
 21 22  2  0
 22 23  1  0
 23 24  2  0
 24 25  1  0
 24 26  1  0
 26 27  2  0
 27 28  1  0
 28 29  2  0
 12  7  1  0
 18 13  1  0
 29 19  1  0
 28 22  1  0
  3 30  1  0
  4 31  1  0
  4 32  1  0
  8 33  1  0
  8 34  1  0
  9 35  1  0
  9 36  1  0
 10 37  1  0
 10 38  1  0
 11 39  1  0
 11 40  1  0
 12 41  1  6
 13 42  1  0
 14 43  1  0
 14 44  1  0
 15 45  1  0
 15 46  1  0
 16 47  1  0
 17 48  1  0
 17 49  1  0
 18 50  1  0
 18 51  1  0
 20 52  1  0
 21 53  1  0
 23 54  1  0
 26 55  1  0
 27 56  1  0
M  END
>  <smiles>  (72) 
O=C(NCC(=O)N1CCCCC1C1CCNCC1)c1ccc2cc(Cl)ccc2n1

>  <score_type>  (72) 
oracle

>  <origin>  (72) 
autodockgpu

>  <m_score__min__energy>  (72) 
-9.1699999999999999

>  <m_primary>  (72) 
energy

>  <rmsd>  (72) 
2.159226508345389

>  <m_score__min__rmsd>  (72) 
2.159226508345389

>  <meeko>  (72) 
{"free_energy": -9.17, "intermolecular_energy": -10.67, "internal_energy": -1.65, "cluster_size": 18, "cluster_id": 1, "rank_in_cluster": 1}

>  <energy>  (72) 
-8.37

>  <cluster_rmsd>  (72) 
1.29

>  <cluster>  (72) 
2

$$$$

     RDKit          3D

 56 59  0  0  0  0  0  0  0  0999 V2000
  139.1760   72.1460  220.5960 O   0  0  0  0  0  0  0  0  0  0  0  0
  139.7310   72.4570  221.6760 C   0  0  0  0  0  0  0  0  0  0  0  0
  140.3540   73.7220  221.7810 N   0  0  0  0  0  0  0  0  0  0  0  0
  140.3830   74.6920  220.6940 C   0  0  0  0  0  0  0  0  0  0  0  0
  141.1000   75.9160  221.0650 C   0  0  0  0  0  0  0  0  0  0  0  0
  141.2680   76.0600  222.3510 O   0  0  0  0  0  0  0  0  0  0  0  0
  141.6240   76.9340  220.2910 N   0  0  0  0  0  0  0  0  0  0  0  0
  142.1110   76.4320  218.9400 C   0  0  0  0  0  0  0  0  0  0  0  0
  142.5530   77.5650  218.0850 C   0  0  0  0  0  0  0  0  0  0  0  0
  141.6430   78.7480  218.0550 C   0  0  0  0  0  0  0  0  0  0  0  0
  140.9420   78.9630  219.3780 C   0  0  0  0  0  0  0  0  0  0  0  0
  141.8110   78.3070  220.4850 C   0  0  1  0  0  0  0  0  0  0  0  0
  141.7200   79.0050  221.7510 C   0  0  0  0  0  0  0  0  0  0  0  0
  140.5550   78.9050  222.6360 C   0  0  0  0  0  0  0  0  0  0  0  0
  140.0250   80.2940  223.0070 C   0  0  0  0  0  0  0  0  0  0  0  0
  140.9950   81.1230  223.6430 N   0  0  0  0  0  0  0  0  0  0  0  0
  142.1700   81.2060  222.8490 C   0  0  0  0  0  0  0  0  0  0  0  0
  142.0290   80.4920  221.5200 C   0  0  0  0  0  0  0  0  0  0  0  0
  139.7510   71.5380  222.8360 C   0  0  0  0  0  0  0  0  0  0  0  0
  139.1540   70.3000  222.7370 C   0  0  0  0  0  0  0  0  0  0  0  0
  139.1990   69.4790  223.8590 C   0  0  0  0  0  0  0  0  0  0  0  0
  139.8200   69.8900  225.0300 C   0  0  0  0  0  0  0  0  0  0  0  0
  139.8600   69.0680  226.1440 C   0  0  0  0  0  0  0  0  0  0  0  0
  140.4870   69.5110  227.2980 C   0  0  0  0  0  0  0  0  0  0  0  0
  140.5630   68.5150  228.7220 Cl  0  0  0  0  0  0  0  0  0  0  0  0
  141.0670   70.7690  227.3260 C   0  0  0  0  0  0  0  0  0  0  0  0
  141.0430   71.6090  226.2340 C   0  0  0  0  0  0  0  0  0  0  0  0
  140.4140   71.1500  225.0950 C   0  0  0  0  0  0  0  0  0  0  0  0
  140.3420   71.9000  223.9890 N   0  0  0  0  0  0  0  0  0  0  0  0
  140.8130   73.9380  222.7190 H   0  0  0  0  0  0  0  0  0  0  0  0
  140.8832   74.2373  219.8263 H   0  0  0  0  0  0  0  0  0  0  0  0
  139.3444   74.9667  220.4577 H   0  0  0  0  0  0  0  0  0  0  0  0
  142.9561   75.7448  219.0937 H   0  0  0  0  0  0  0  0  0  0  0  0
  141.2823   75.9124  218.4368 H   0  0  0  0  0  0  0  0  0  0  0  0
  143.5336   77.9024  218.4518 H   0  0  0  0  0  0  0  0  0  0  0  0
  142.5708   77.1749  217.0567 H   0  0  0  0  0  0  0  0  0  0  0  0
  142.2349   79.6444  217.8179 H   0  0  0  0  0  0  0  0  0  0  0  0
  140.8735   78.5629  217.2911 H   0  0  0  0  0  0  0  0  0  0  0  0
  140.8352   80.0400  219.5747 H   0  0  0  0  0  0  0  0  0  0  0  0
  139.9381   78.5137  219.3595 H   0  0  0  0  0  0  0  0  0  0  0  0
  142.9049   78.4183  220.4526 H   0  0  0  0  0  0  0  0  0  0  0  0
  142.4533   78.4273  222.3328 H   0  0  0  0  0  0  0  0  0  0  0  0
  139.7610   78.3425  222.1230 H   0  0  0  0  0  0  0  0  0  0  0  0
  140.8595   78.3887  223.5584 H   0  0  0  0  0  0  0  0  0  0  0  0
  139.6884   80.7950  222.0874 H   0  0  0  0  0  0  0  0  0  0  0  0
  139.2057   80.1456  223.7259 H   0  0  0  0  0  0  0  0  0  0  0  0
  141.1160   81.0020  224.6520 H   0  0  0  0  0  0  0  0  0  0  0  0
  142.3910   82.2664  222.6572 H   0  0  0  0  0  0  0  0  0  0  0  0
  142.9824   80.7155  223.4053 H   0  0  0  0  0  0  0  0  0  0  0  0
  141.2094   80.9493  220.9463 H   0  0  0  0  0  0  0  0  0  0  0  0
  142.9720   80.5816  220.9608 H   0  0  0  0  0  0  0  0  0  0  0  0
  138.6620   69.9743  221.8087 H   0  0  0  0  0  0  0  0  0  0  0  0
  138.7328   68.4836  223.8172 H   0  0  0  0  0  0  0  0  0  0  0  0
  139.3974   68.0705  226.1131 H   0  0  0  0  0  0  0  0  0  0  0  0
  141.5618   71.1075  228.2483 H   0  0  0  0  0  0  0  0  0  0  0  0
  141.5068   72.6058  226.2689 H   0  0  0  0  0  0  0  0  0  0  0  0
  1  2  2  0
  2  3  1  0
  3  4  1  0
  4  5  1  0
  5  6  2  0
  5  7  1  0
  7  8  1  0
  8  9  1  0
  9 10  1  0
 10 11  1  0
 11 12  1  0
 12 13  1  0
 13 14  1  0
 14 15  1  0
 15 16  1  0
 16 17  1  0
 17 18  1  0
  2 19  1  0
 19 20  2  0
 20 21  1  0
 21 22  2  0
 22 23  1  0
 23 24  2  0
 24 25  1  0
 24 26  1  0
 26 27  2  0
 27 28  1  0
 28 29  2  0
 12  7  1  0
 18 13  1  0
 29 19  1  0
 28 22  1  0
  3 30  1  0
  4 31  1  0
  4 32  1  0
  8 33  1  0
  8 34  1  0
  9 35  1  0
  9 36  1  0
 10 37  1  0
 10 38  1  0
 11 39  1  0
 11 40  1  0
 12 41  1  6
 13 42  1  0
 14 43  1  0
 14 44  1  0
 15 45  1  0
 15 46  1  0
 16 47  1  0
 17 48  1  0
 17 49  1  0
 18 50  1  0
 18 51  1  0
 20 52  1  0
 21 53  1  0
 23 54  1  0
 26 55  1  0
 27 56  1  0
M  END
>  <smiles>  (73) 
O=C(NCC(=O)N1CCCCC1C1CCNCC1)c1ccc2cc(Cl)ccc2n1

>  <score_type>  (73) 
oracle

>  <origin>  (73) 
autodockgpu

>  <m_score__min__energy>  (73) 
-9.1699999999999999

>  <m_primary>  (73) 
energy

>  <rmsd>  (73) 
2.118834270313534

>  <m_score__min__rmsd>  (73) 
2.118834270313534

>  <meeko>  (73) 
{"free_energy": -7.96, "intermolecular_energy": -9.45, "internal_energy": -2.09, "cluster_size": 18, "cluster_id": 1, "rank_in_cluster": 13}

>  <energy>  (73) 
-8.8

>  <cluster_rmsd>  (73) 
0.0

>  <cluster>  (73) 
3

$$$$

     RDKit          3D

 56 59  0  0  0  0  0  0  0  0999 V2000
  139.1060   72.8400  220.5690 O   0  0  0  0  0  0  0  0  0  0  0  0
  139.2370   73.0600  221.7960 C   0  0  0  0  0  0  0  0  0  0  0  0
  139.1470   74.3910  222.2630 N   0  0  0  0  0  0  0  0  0  0  0  0
  138.9070   75.5310  221.3870 C   0  0  0  0  0  0  0  0  0  0  0  0
  138.4320   76.7060  222.1260 C   0  0  0  0  0  0  0  0  0  0  0  0
  138.2030   76.4770  223.3900 O   0  0  0  0  0  0  0  0  0  0  0  0
  138.1860   78.0020  221.7140 N   0  0  0  0  0  0  0  0  0  0  0  0
  136.7470   78.1940  221.2590 C   0  0  0  0  0  0  0  0  0  0  0  0
  136.4820   79.6210  220.9420 C   0  0  0  0  0  0  0  0  0  0  0  0
  136.9930   80.6130  221.9340 C   0  0  0  0  0  0  0  0  0  0  0  0
  138.2820   80.1590  222.5830 C   0  0  0  0  0  0  0  0  0  0  0  0
  138.9700   79.1570  221.6150 C   0  0  1  0  0  0  0  0  0  0  0  0
  140.4150   79.2110  221.6940 C   0  0  0  0  0  0  0  0  0  0  0  0
  141.2070   78.2720  222.4960 C   0  0  0  0  0  0  0  0  0  0  0  0
  142.1570   79.0200  223.4380 C   0  0  0  0  0  0  0  0  0  0  0  0
  143.0570   79.8960  222.7620 N   0  0  0  0  0  0  0  0  0  0  0  0
  142.3390   80.7910  221.9240 C   0  0  0  0  0  0  0  0  0  0  0  0
  140.8380   80.6420  222.0600 C   0  0  0  0  0  0  0  0  0  0  0  0
  139.4800   71.9660  222.7630 C   0  0  0  0  0  0  0  0  0  0  0  0
  139.1290   70.6750  222.4350 C   0  0  0  0  0  0  0  0  0  0  0  0
  139.3770   69.6860  223.3820 C   0  0  0  0  0  0  0  0  0  0  0  0
  139.9560   69.9890  224.6070 C   0  0  0  0  0  0  0  0  0  0  0  0
  140.1990   69.0010  225.5460 C   0  0  0  0  0  0  0  0  0  0  0  0
  140.7770   69.3380  226.7600 C   0  0  0  0  0  0  0  0  0  0  0  0
  141.1020   68.1330  227.9710 Cl  0  0  0  0  0  0  0  0  0  0  0  0
  141.1050   70.6590  227.0210 C   0  0  0  0  0  0  0  0  0  0  0  0
  140.8760   71.6640  226.1080 C   0  0  0  0  0  0  0  0  0  0  0  0
  140.2990   71.3070  224.9050 C   0  0  0  0  0  0  0  0  0  0  0  0
  140.0390   72.2190  223.9600 N   0  0  0  0  0  0  0  0  0  0  0  0
  139.2660   74.5260  223.3140 H   0  0  0  0  0  0  0  0  0  0  0  0
  139.8463   75.7894  220.8761 H   0  0  0  0  0  0  0  0  0  0  0  0
  138.1258   75.2457  220.6670 H   0  0  0  0  0  0  0  0  0  0  0  0
  136.5683   77.5853  220.3603 H   0  0  0  0  0  0  0  0  0  0  0  0
  136.0747   77.8817  222.0717 H   0  0  0  0  0  0  0  0  0  0  0  0
  136.9490   79.8434  219.9712 H   0  0  0  0  0  0  0  0  0  0  0  0
  135.3874   79.7299  220.9475 H   0  0  0  0  0  0  0  0  0  0  0  0
  137.1727   81.5685  221.4194 H   0  0  0  0  0  0  0  0  0  0  0  0
  136.2361   80.7208  222.7248 H   0  0  0  0  0  0  0  0  0  0  0  0
  138.9392   81.0239  222.7564 H   0  0  0  0  0  0  0  0  0  0  0  0
  138.0780   79.6805  223.5522 H   0  0  0  0  0  0  0  0  0  0  0  0
  138.9775   79.3637  220.5346 H   0  0  0  0  0  0  0  0  0  0  0  0
  140.6678   78.8593  220.6829 H   0  0  0  0  0  0  0  0  0  0  0  0
  140.5271   77.6464  223.0930 H   0  0  0  0  0  0  0  0  0  0  0  0
  141.8064   77.6490  221.8159 H   0  0  0  0  0  0  0  0  0  0  0  0
  141.5541   79.6146  224.1401 H   0  0  0  0  0  0  0  0  0  0  0  0
  142.7676   78.2617  223.9501 H   0  0  0  0  0  0  0  0  0  0  0  0
  143.9110   79.4780  222.3830 H   0  0  0  0  0  0  0  0  0  0  0  0
  142.6159   81.8216  222.1907 H   0  0  0  0  0  0  0  0  0  0  0  0
  142.6033   80.5554  220.8825 H   0  0  0  0  0  0  0  0  0  0  0  0
  140.5438   80.8542  223.0985 H   0  0  0  0  0  0  0  0  0  0  0  0
  140.3424   81.3496  221.3790 H   0  0  0  0  0  0  0  0  0  0  0  0
  138.6712   70.4356  221.4639 H   0  0  0  0  0  0  0  0  0  0  0  0
  139.1090   68.6435  223.1556 H   0  0  0  0  0  0  0  0  0  0  0  0
  139.9351   67.9552  225.3300 H   0  0  0  0  0  0  0  0  0  0  0  0
  141.5629   70.9127  227.9884 H   0  0  0  0  0  0  0  0  0  0  0  0
  141.1418   72.7085  226.3278 H   0  0  0  0  0  0  0  0  0  0  0  0
  1  2  2  0
  2  3  1  0
  3  4  1  0
  4  5  1  0
  5  6  2  0
  5  7  1  0
  7  8  1  0
  8  9  1  0
  9 10  1  0
 10 11  1  0
 11 12  1  0
 12 13  1  0
 13 14  1  0
 14 15  1  0
 15 16  1  0
 16 17  1  0
 17 18  1  0
  2 19  1  0
 19 20  2  0
 20 21  1  0
 21 22  2  0
 22 23  1  0
 23 24  2  0
 24 25  1  0
 24 26  1  0
 26 27  2  0
 27 28  1  0
 28 29  2  0
 12  7  1  0
 18 13  1  0
 29 19  1  0
 28 22  1  0
  3 30  1  0
  4 31  1  0
  4 32  1  0
  8 33  1  0
  8 34  1  0
  9 35  1  0
  9 36  1  0
 10 37  1  0
 10 38  1  0
 11 39  1  0
 11 40  1  0
 12 41  1  6
 13 42  1  0
 14 43  1  0
 14 44  1  0
 15 45  1  0
 15 46  1  0
 16 47  1  0
 17 48  1  0
 17 49  1  0
 18 50  1  0
 18 51  1  0
 20 52  1  0
 21 53  1  0
 23 54  1  0
 26 55  1  0
 27 56  1  0
M  END
>  <smiles>  (74) 
O=C(NCC(=O)N1CCCCC1C1CCNCC1)c1ccc2cc(Cl)ccc2n1

>  <score_type>  (74) 
oracle

>  <origin>  (74) 
autodockgpu

>  <m_score__min__energy>  (74) 
-9.1699999999999999

>  <m_primary>  (74) 
energy

>  <rmsd>  (74) 
3.4956302764415

>  <m_score__min__rmsd>  (74) 
3.4956302764415

>  <meeko>  (74) 
{"free_energy": -7.91, "intermolecular_energy": -9.4, "internal_energy": -2.05, "cluster_size": 18, "cluster_id": 1, "rank_in_cluster": 14}

>  <energy>  (74) 
-8.74

>  <cluster_rmsd>  (74) 
0.52

>  <cluster>  (74) 
3

$$$$

     RDKit          3D

 56 59  0  0  0  0  0  0  0  0999 V2000
  136.6100   71.3890  222.7740 O   0  0  0  0  0  0  0  0  0  0  0  0
  136.0960   71.3480  223.9170 C   0  0  0  0  0  0  0  0  0  0  0  0
  136.1530   70.1370  224.6450 N   0  0  0  0  0  0  0  0  0  0  0  0
  136.7840   68.9260  224.1350 C   0  0  0  0  0  0  0  0  0  0  0  0
  138.2400   68.9470  224.3080 C   0  0  0  0  0  0  0  0  0  0  0  0
  138.6820   68.0730  225.1720 O   0  0  0  0  0  0  0  0  0  0  0  0
  139.2160   69.7280  223.7180 N   0  0  0  0  0  0  0  0  0  0  0  0
  139.0250   69.8410  222.2130 C   0  0  0  0  0  0  0  0  0  0  0  0
  140.0130   70.7830  221.6270 C   0  0  0  0  0  0  0  0  0  0  0  0
  140.1980   72.0700  222.3620 C   0  0  0  0  0  0  0  0  0  0  0  0
  140.0340   71.9020  223.8570 C   0  0  0  0  0  0  0  0  0  0  0  0
  140.3340   70.4180  224.2010 C   0  0  1  0  0  0  0  0  0  0  0  0
  140.9290   70.2600  225.5120 C   0  0  0  0  0  0  0  0  0  0  0  0
  141.1880   68.9490  226.1190 C   0  0  0  0  0  0  0  0  0  0  0  0
  140.5750   68.8620  227.5210 C   0  0  0  0  0  0  0  0  0  0  0  0
  141.0500   69.8670  228.4140 N   0  0  0  0  0  0  0  0  0  0  0  0
  140.8740   71.1570  227.8450 C   0  0  0  0  0  0  0  0  0  0  0  0
  140.1440   71.1160  226.5180 C   0  0  0  0  0  0  0  0  0  0  0  0
  135.4360   72.5280  224.5190 C   0  0  0  0  0  0  0  0  0  0  0  0
  135.8050   73.7940  224.1200 C   0  0  0  0  0  0  0  0  0  0  0  0
  135.1540   74.8670  224.7210 C   0  0  0  0  0  0  0  0  0  0  0  0
  134.1730   74.6690  225.6830 C   0  0  0  0  0  0  0  0  0  0  0  0
  133.5300   75.7420  226.2780 C   0  0  0  0  0  0  0  0  0  0  0  0
  132.5560   75.5080  227.2360 C   0  0  0  0  0  0  0  0  0  0  0  0
  131.7210   76.8220  228.0120 Cl  0  0  0  0  0  0  0  0  0  0  0  0
  132.2360   74.2070  227.5880 C   0  0  0  0  0  0  0  0  0  0  0  0
  132.8580   73.1200  227.0140 C   0  0  0  0  0  0  0  0  0  0  0  0
  133.8250   73.3730  226.0620 C   0  0  0  0  0  0  0  0  0  0  0  0
  134.4810   72.3780  225.4540 N   0  0  0  0  0  0  0  0  0  0  0  0
  135.7000   70.1530  225.6100 H   0  0  0  0  0  0  0  0  0  0  0  0
  136.3753   68.0590  224.6747 H   0  0  0  0  0  0  0  0  0  0  0  0
  136.5721   68.8620  223.0575 H   0  0  0  0  0  0  0  0  0  0  0  0
  139.1576   68.8489  221.7568 H   0  0  0  0  0  0  0  0  0  0  0  0
  138.0124   70.2212  222.0128 H   0  0  0  0  0  0  0  0  0  0  0  0
  140.9864   70.2720  221.5907 H   0  0  0  0  0  0  0  0  0  0  0  0
  139.6151   71.0574  220.6389 H   0  0  0  0  0  0  0  0  0  0  0  0
  141.2086   72.4531  222.1571 H   0  0  0  0  0  0  0  0  0  0  0  0
  139.4261   72.7722  222.0139 H   0  0  0  0  0  0  0  0  0  0  0  0
  140.7387   72.5594  224.3874 H   0  0  0  0  0  0  0  0  0  0  0  0
  139.0126   72.1700  224.1650 H   0  0  0  0  0  0  0  0  0  0  0  0
  141.1752   69.9059  223.7110 H   0  0  0  0  0  0  0  0  0  0  0  0
  141.9589   70.5738  225.2866 H   0  0  0  0  0  0  0  0  0  0  0  0
  140.7477   68.1656  225.4847 H   0  0  0  0  0  0  0  0  0  0  0  0
  142.2760   68.8106  226.2031 H   0  0  0  0  0  0  0  0  0  0  0  0
  139.4835   68.9646  227.4305 H   0  0  0  0  0  0  0  0  0  0  0  0
  140.8697   67.8897  227.9427 H   0  0  0  0  0  0  0  0  0  0  0  0
  141.9350   69.6790  228.8910 H   0  0  0  0  0  0  0  0  0  0  0  0
  140.2944   71.7750  228.5466 H   0  0  0  0  0  0  0  0  0  0  0  0
  141.8734   71.5785  227.6616 H   0  0  0  0  0  0  0  0  0  0  0  0
  139.1448   70.6802  226.6653 H   0  0  0  0  0  0  0  0  0  0  0  0
  140.0508   72.1394  226.1256 H   0  0  0  0  0  0  0  0  0  0  0  0
  136.5824   73.9502  223.3576 H   0  0  0  0  0  0  0  0  0  0  0  0
  135.4222   75.8928  224.4279 H   0  0  0  0  0  0  0  0  0  0  0  0
  133.7904   76.7719  225.9924 H   0  0  0  0  0  0  0  0  0  0  0  0
  131.4609   74.0365  228.3497 H   0  0  0  0  0  0  0  0  0  0  0  0
  132.5946   72.0918  227.3027 H   0  0  0  0  0  0  0  0  0  0  0  0
  1  2  2  0
  2  3  1  0
  3  4  1  0
  4  5  1  0
  5  6  2  0
  5  7  1  0
  7  8  1  0
  8  9  1  0
  9 10  1  0
 10 11  1  0
 11 12  1  0
 12 13  1  0
 13 14  1  0
 14 15  1  0
 15 16  1  0
 16 17  1  0
 17 18  1  0
  2 19  1  0
 19 20  2  0
 20 21  1  0
 21 22  2  0
 22 23  1  0
 23 24  2  0
 24 25  1  0
 24 26  1  0
 26 27  2  0
 27 28  1  0
 28 29  2  0
 12  7  1  0
 18 13  1  0
 29 19  1  0
 28 22  1  0
  3 30  1  0
  4 31  1  0
  4 32  1  0
  8 33  1  0
  8 34  1  0
  9 35  1  0
  9 36  1  0
 10 37  1  0
 10 38  1  0
 11 39  1  0
 11 40  1  0
 12 41  1  6
 13 42  1  0
 14 43  1  0
 14 44  1  0
 15 45  1  0
 15 46  1  0
 16 47  1  0
 17 48  1  0
 17 49  1  0
 18 50  1  0
 18 51  1  0
 20 52  1  0
 21 53  1  0
 23 54  1  0
 26 55  1  0
 27 56  1  0
M  END
>  <smiles>  (75) 
O=C(NCC(=O)N1CCCCC1C1CCNCC1)c1ccc2cc(Cl)ccc2n1

>  <score_type>  (75) 
oracle

>  <origin>  (75) 
autodockgpu

>  <m_score__min__energy>  (75) 
-9.1699999999999999

>  <m_primary>  (75) 
energy

>  <rmsd>  (75) 
7.3097038480083345

>  <m_score__min__rmsd>  (75) 
7.3097038480083345

>  <meeko>  (75) 
{"free_energy": -7.33, "intermolecular_energy": -8.82, "internal_energy": -2.03, "cluster_size": 1, "cluster_id": 7, "rank_in_cluster": 1}

>  <energy>  (75) 
-8.72

>  <cluster_rmsd>  (75) 
0.55

>  <cluster>  (75) 
3

$$$$

     RDKit          3D

 56 59  0  0  0  0  0  0  0  0999 V2000
  140.4950   74.0420  222.0160 O   0  0  0  0  0  0  0  0  0  0  0  0
  140.0200   72.8920  221.8600 C   0  0  0  0  0  0  0  0  0  0  0  0
  139.4850   72.5420  220.5990 N   0  0  0  0  0  0  0  0  0  0  0  0
  139.4580   73.4520  219.4620 C   0  0  0  0  0  0  0  0  0  0  0  0
  140.7630   73.5470  218.7990 C   0  0  0  0  0  0  0  0  0  0  0  0
  141.1390   72.4440  218.2130 O   0  0  0  0  0  0  0  0  0  0  0  0
  141.6540   74.5980  218.6910 N   0  0  0  0  0  0  0  0  0  0  0  0
  141.0910   75.7430  217.8630 C   0  0  0  0  0  0  0  0  0  0  0  0
  142.0190   76.9030  217.8690 C   0  0  0  0  0  0  0  0  0  0  0  0
  142.5860   77.2740  219.1990 C   0  0  0  0  0  0  0  0  0  0  0  0
  142.8010   76.0660  220.0850 C   0  0  0  0  0  0  0  0  0  0  0  0
  142.9520   74.8260  219.1630 C   0  0  1  0  0  0  0  0  0  0  0  0
  143.8420   73.8260  219.7170 C   0  0  0  0  0  0  0  0  0  0  0  0
  144.7960   74.1140  220.7930 C   0  0  0  0  0  0  0  0  0  0  0  0
  146.2110   73.6710  220.4060 C   0  0  0  0  0  0  0  0  0  0  0  0
  146.3070   72.2850  220.0880 N   0  0  0  0  0  0  0  0  0  0  0  0
  145.3590   71.9410  219.0860 C   0  0  0  0  0  0  0  0  0  0  0  0
  144.5970   73.1430  218.5660 C   0  0  0  0  0  0  0  0  0  0  0  0
  140.0070   71.8990  222.9580 C   0  0  0  0  0  0  0  0  0  0  0  0
  139.4740   70.6470  222.7380 C   0  0  0  0  0  0  0  0  0  0  0  0
  139.4840   69.7540  223.8050 C   0  0  0  0  0  0  0  0  0  0  0  0
  140.0090   70.1110  225.0390 C   0  0  0  0  0  0  0  0  0  0  0  0
  140.0150   69.2170  226.0980 C   0  0  0  0  0  0  0  0  0  0  0  0
  140.5460   69.6060  227.3170 C   0  0  0  0  0  0  0  0  0  0  0  0
  140.5750   68.5210  228.6760 Cl  0  0  0  0  0  0  0  0  0  0  0  0
  141.0650   70.8820  227.4660 C   0  0  0  0  0  0  0  0  0  0  0  0
  141.0740   71.7930  226.4320 C   0  0  0  0  0  0  0  0  0  0  0  0
  140.5400   71.3860  225.2250 C   0  0  0  0  0  0  0  0  0  0  0  0
  140.5060   72.2060  224.1680 N   0  0  0  0  0  0  0  0  0  0  0  0
  139.0920   71.5540  220.5190 H   0  0  0  0  0  0  0  0  0  0  0  0
  138.7166   73.0891  218.7350 H   0  0  0  0  0  0  0  0  0  0  0  0
  139.1947   74.4525  219.8356 H   0  0  0  0  0  0  0  0  0  0  0  0
  140.9462   75.4021  216.8272 H   0  0  0  0  0  0  0  0  0  0  0  0
  140.1314   76.0563  218.3001 H   0  0  0  0  0  0  0  0  0  0  0  0
  142.8583   76.6674  217.1981 H   0  0  0  0  0  0  0  0  0  0  0  0
  141.4191   77.7674  217.5482 H   0  0  0  0  0  0  0  0  0  0  0  0
  143.5521   77.7767  219.0446 H   0  0  0  0  0  0  0  0  0  0  0  0
  141.8657   77.9371  219.7005 H   0  0  0  0  0  0  0  0  0  0  0  0
  143.7127   76.1995  220.6859 H   0  0  0  0  0  0  0  0  0  0  0  0
  141.9513   75.9350  220.7711 H   0  0  0  0  0  0  0  0  0  0  0  0
  143.5447   74.9046  218.2397 H   0  0  0  0  0  0  0  0  0  0  0  0
  143.1120   73.2142  220.2673 H   0  0  0  0  0  0  0  0  0  0  0  0
  144.7993   75.1961  220.9906 H   0  0  0  0  0  0  0  0  0  0  0  0
  144.4886   73.5589  221.6916 H   0  0  0  0  0  0  0  0  0  0  0  0
  146.5297   74.2523  219.5282 H   0  0  0  0  0  0  0  0  0  0  0  0
  146.8551   73.8472  221.2802 H   0  0  0  0  0  0  0  0  0  0  0  0
  146.4190   71.6380  220.8720 H   0  0  0  0  0  0  0  0  0  0  0  0
  145.8901   71.4703  218.2456 H   0  0  0  0  0  0  0  0  0  0  0  0
  144.6287   71.2553  219.5404 H   0  0  0  0  0  0  0  0  0  0  0  0
  145.3045   73.8575  218.1200 H   0  0  0  0  0  0  0  0  0  0  0  0
  143.8734   72.8106  217.8071 H   0  0  0  0  0  0  0  0  0  0  0  0
  139.0580   70.3655  221.7594 H   0  0  0  0  0  0  0  0  0  0  0  0
  139.0675   68.7452  223.6677 H   0  0  0  0  0  0  0  0  0  0  0  0
  139.6011   68.2057  225.9715 H   0  0  0  0  0  0  0  0  0  0  0  0
  141.4828   71.1770  228.4399 H   0  0  0  0  0  0  0  0  0  0  0  0
  141.4895   72.8031  226.5626 H   0  0  0  0  0  0  0  0  0  0  0  0
  1  2  2  0
  2  3  1  0
  3  4  1  0
  4  5  1  0
  5  6  2  0
  5  7  1  0
  7  8  1  0
  8  9  1  0
  9 10  1  0
 10 11  1  0
 11 12  1  0
 12 13  1  0
 13 14  1  0
 14 15  1  0
 15 16  1  0
 16 17  1  0
 17 18  1  0
  2 19  1  0
 19 20  2  0
 20 21  1  0
 21 22  2  0
 22 23  1  0
 23 24  2  0
 24 25  1  0
 24 26  1  0
 26 27  2  0
 27 28  1  0
 28 29  2  0
 12  7  1  0
 18 13  1  0
 29 19  1  0
 28 22  1  0
  3 30  1  0
  4 31  1  0
  4 32  1  0
  8 33  1  0
  8 34  1  0
  9 35  1  0
  9 36  1  0
 10 37  1  0
 10 38  1  0
 11 39  1  0
 11 40  1  0
 12 41  1  6
 13 42  1  0
 14 43  1  0
 14 44  1  0
 15 45  1  0
 15 46  1  0
 16 47  1  0
 17 48  1  0
 17 49  1  0
 18 50  1  0
 18 51  1  0
 20 52  1  0
 21 53  1  0
 23 54  1  0
 26 55  1  0
 27 56  1  0
M  END
>  <smiles>  (76) 
O=C(NCC(=O)N1CCCCC1C1CCNCC1)c1ccc2cc(Cl)ccc2n1

>  <score_type>  (76) 
oracle

>  <origin>  (76) 
autodockgpu

>  <m_score__min__energy>  (76) 
-9.1699999999999999

>  <m_primary>  (76) 
energy

>  <rmsd>  (76) 
2.4167545167447244

>  <m_score__min__rmsd>  (76) 
2.4167545167447244

>  <meeko>  (76) 
{"free_energy": -8.51, "intermolecular_energy": -10.0, "internal_energy": -1.58, "cluster_size": 18, "cluster_id": 3, "rank_in_cluster": 8}

>  <energy>  (76) 
-8.69

>  <cluster_rmsd>  (76) 
0.31

>  <cluster>  (76) 
3

$$$$

     RDKit          3D

 56 59  0  0  0  0  0  0  0  0999 V2000
  140.6850   72.9250  220.9080 O   0  0  0  0  0  0  0  0  0  0  0  0
  140.1670   73.1120  222.0340 C   0  0  0  0  0  0  0  0  0  0  0  0
  139.6260   74.3840  222.3310 N   0  0  0  0  0  0  0  0  0  0  0  0
  139.6370   75.4970  221.3910 C   0  0  0  0  0  0  0  0  0  0  0  0
  139.3180   76.7720  222.0410 C   0  0  0  0  0  0  0  0  0  0  0  0
  138.2830   76.7160  222.8340 O   0  0  0  0  0  0  0  0  0  0  0  0
  139.9210   78.0130  221.9580 N   0  0  0  0  0  0  0  0  0  0  0  0
  139.4400   78.9570  223.0490 C   0  0  0  0  0  0  0  0  0  0  0  0
  140.1950   80.2360  223.0080 C   0  0  0  0  0  0  0  0  0  0  0  0
  141.6750   80.1120  222.8550 C   0  0  0  0  0  0  0  0  0  0  0  0
  142.0630   78.9210  222.0070 C   0  0  0  0  0  0  0  0  0  0  0  0
  140.8580   78.5830  221.0880 C   0  0  1  0  0  0  0  0  0  0  0  0
  141.2680   78.0420  219.8090 C   0  0  0  0  0  0  0  0  0  0  0  0
  141.9680   76.7600  219.6720 C   0  0  0  0  0  0  0  0  0  0  0  0
  143.2540   76.9210  218.8530 C   0  0  0  0  0  0  0  0  0  0  0  0
  143.0350   77.4480  217.5470 N   0  0  0  0  0  0  0  0  0  0  0  0
  142.3070   78.6670  217.6220 C   0  0  0  0  0  0  0  0  0  0  0  0
  142.0630   79.1140  219.0480 C   0  0  0  0  0  0  0  0  0  0  0  0
  140.1080   72.0400  223.0530 C   0  0  0  0  0  0  0  0  0  0  0  0
  139.5490   70.8230  222.7320 C   0  0  0  0  0  0  0  0  0  0  0  0
  139.5160   69.8530  223.7290 C   0  0  0  0  0  0  0  0  0  0  0  0
  140.0270   70.1020  224.9950 C   0  0  0  0  0  0  0  0  0  0  0  0
  139.9900   69.1320  225.9830 C   0  0  0  0  0  0  0  0  0  0  0  0
  140.5080   69.4150  227.2370 C   0  0  0  0  0  0  0  0  0  0  0  0
  140.4850   68.2310  228.5110 Cl  0  0  0  0  0  0  0  0  0  0  0  0
  141.0570   70.6630  227.4890 C   0  0  0  0  0  0  0  0  0  0  0  0
  141.1080   71.6470  226.5270 C   0  0  0  0  0  0  0  0  0  0  0  0
  140.5870   71.3460  225.2850 C   0  0  0  0  0  0  0  0  0  0  0  0
  140.5930   72.2430  224.2910 N   0  0  0  0  0  0  0  0  0  0  0  0
  139.1990   74.4920  223.3020 H   0  0  0  0  0  0  0  0  0  0  0  0
  140.6374   75.5698  220.9394 H   0  0  0  0  0  0  0  0  0  0  0  0
  138.8677   75.3039  220.6289 H   0  0  0  0  0  0  0  0  0  0  0  0
  138.3700   79.1646  222.9008 H   0  0  0  0  0  0  0  0  0  0  0  0
  139.6048   78.4805  224.0266 H   0  0  0  0  0  0  0  0  0  0  0  0
  139.8161   80.8246  222.1595 H   0  0  0  0  0  0  0  0  0  0  0  0
  140.0345   80.7093  223.9879 H   0  0  0  0  0  0  0  0  0  0  0  0
  142.0600   81.0261  222.3795 H   0  0  0  0  0  0  0  0  0  0  0  0
  142.1077   79.9695  223.8562 H   0  0  0  0  0  0  0  0  0  0  0  0
  142.9432   79.1676  221.3951 H   0  0  0  0  0  0  0  0  0  0  0  0
  142.3150   78.0603  222.6440 H   0  0  0  0  0  0  0  0  0  0  0  0
  140.2939   79.3977  220.6105 H   0  0  0  0  0  0  0  0  0  0  0  0
  140.2836   77.7687  219.4014 H   0  0  0  0  0  0  0  0  0  0  0  0
  142.2238   76.3811  220.6725 H   0  0  0  0  0  0  0  0  0  0  0  0
  141.3061   76.0534  219.1499 H   0  0  0  0  0  0  0  0  0  0  0  0
  143.9284   77.6010  219.3941 H   0  0  0  0  0  0  0  0  0  0  0  0
  143.6855   75.9169  218.7281 H   0  0  0  0  0  0  0  0  0  0  0  0
  142.7650   76.7820  216.8190 H   0  0  0  0  0  0  0  0  0  0  0  0
  142.8767   79.4500  217.1002 H   0  0  0  0  0  0  0  0  0  0  0  0
  141.3260   78.4980  217.1539 H   0  0  0  0  0  0  0  0  0  0  0  0
  143.0289   79.2747  219.5492 H   0  0  0  0  0  0  0  0  0  0  0  0
  141.4860   80.0505  219.0379 H   0  0  0  0  0  0  0  0  0  0  0  0
  139.1450   70.6258  221.7281 H   0  0  0  0  0  0  0  0  0  0  0  0
  139.0761   68.8690  223.5093 H   0  0  0  0  0  0  0  0  0  0  0  0
  139.5528   68.1445  225.7740 H   0  0  0  0  0  0  0  0  0  0  0  0
  141.4646   70.8737  228.4887 H   0  0  0  0  0  0  0  0  0  0  0  0
  141.5463   72.6332  226.7399 H   0  0  0  0  0  0  0  0  0  0  0  0
  1  2  2  0
  2  3  1  0
  3  4  1  0
  4  5  1  0
  5  6  2  0
  5  7  1  0
  7  8  1  0
  8  9  1  0
  9 10  1  0
 10 11  1  0
 11 12  1  0
 12 13  1  0
 13 14  1  0
 14 15  1  0
 15 16  1  0
 16 17  1  0
 17 18  1  0
  2 19  1  0
 19 20  2  0
 20 21  1  0
 21 22  2  0
 22 23  1  0
 23 24  2  0
 24 25  1  0
 24 26  1  0
 26 27  2  0
 27 28  1  0
 28 29  2  0
 12  7  1  0
 18 13  1  0
 29 19  1  0
 28 22  1  0
  3 30  1  0
  4 31  1  0
  4 32  1  0
  8 33  1  0
  8 34  1  0
  9 35  1  0
  9 36  1  0
 10 37  1  0
 10 38  1  0
 11 39  1  0
 11 40  1  0
 12 41  1  6
 13 42  1  0
 14 43  1  0
 14 44  1  0
 15 45  1  0
 15 46  1  0
 16 47  1  0
 17 48  1  0
 17 49  1  0
 18 50  1  0
 18 51  1  0
 20 52  1  0
 21 53  1  0
 23 54  1  0
 26 55  1  0
 27 56  1  0
M  END
>  <smiles>  (77) 
O=C(NCC(=O)N1CCCCC1C1CCNCC1)c1ccc2cc(Cl)ccc2n1

>  <score_type>  (77) 
oracle

>  <origin>  (77) 
autodockgpu

>  <m_score__min__energy>  (77) 
-9.1699999999999999

>  <m_primary>  (77) 
energy

>  <rmsd>  (77) 
3.5005365499882872

>  <m_score__min__rmsd>  (77) 
3.5005365499882872

>  <meeko>  (77) 
{"free_energy": -8.41, "intermolecular_energy": -9.9, "internal_energy": -1.6, "cluster_size": 4, "cluster_id": 2, "rank_in_cluster": 3}

>  <energy>  (77) 
-8.66

>  <cluster_rmsd>  (77) 
0.27

>  <cluster>  (77) 
3

$$$$

     RDKit          3D

 56 59  0  0  0  0  0  0  0  0999 V2000
  138.9070   72.3670  220.6880 O   0  0  0  0  0  0  0  0  0  0  0  0
  139.5680   72.6140  221.7240 C   0  0  0  0  0  0  0  0  0  0  0  0
  140.2650   73.8410  221.8100 N   0  0  0  0  0  0  0  0  0  0  0  0
  140.2540   74.8430  220.7510 C   0  0  0  0  0  0  0  0  0  0  0  0
  141.0910   76.0020  221.0790 C   0  0  0  0  0  0  0  0  0  0  0  0
  141.3570   76.1180  222.3510 O   0  0  0  0  0  0  0  0  0  0  0  0
  141.6400   76.9840  220.2760 N   0  0  0  0  0  0  0  0  0  0  0  0
  142.4180   76.3980  219.1080 C   0  0  0  0  0  0  0  0  0  0  0  0
  142.8900   77.4740  218.1980 C   0  0  0  0  0  0  0  0  0  0  0  0
  141.8830   78.5220  217.8550 C   0  0  0  0  0  0  0  0  0  0  0  0
  140.9310   78.7950  218.9980 C   0  0  0  0  0  0  0  0  0  0  0  0
  141.6440   78.3830  220.3150 C   0  0  1  0  0  0  0  0  0  0  0  0
  141.2470   79.2030  221.4410 C   0  0  0  0  0  0  0  0  0  0  0  0
  140.9480   80.6340  221.3220 C   0  0  0  0  0  0  0  0  0  0  0  0
  141.7590   81.4510  222.3330 C   0  0  0  0  0  0  0  0  0  0  0  0
  141.5380   81.0630  223.6870 N   0  0  0  0  0  0  0  0  0  0  0  0
  141.7600   79.6680  223.8440 C   0  0  0  0  0  0  0  0  0  0  0  0
  142.2650   79.0110  222.5760 C   0  0  0  0  0  0  0  0  0  0  0  0
  139.6360   71.6590  222.8520 C   0  0  0  0  0  0  0  0  0  0  0  0
  139.0770   70.4060  222.7210 C   0  0  0  0  0  0  0  0  0  0  0  0
  139.1670   69.5500  223.8140 C   0  0  0  0  0  0  0  0  0  0  0  0
  139.7950   69.9430  224.9880 C   0  0  0  0  0  0  0  0  0  0  0  0
  139.8800   69.0860  226.0730 C   0  0  0  0  0  0  0  0  0  0  0  0
  140.5130   69.5100  227.2310 C   0  0  0  0  0  0  0  0  0  0  0  0
  140.6450   68.4710  228.6200 Cl  0  0  0  0  0  0  0  0  0  0  0  0
  141.0540   70.7850  227.2910 C   0  0  0  0  0  0  0  0  0  0  0  0
  140.9850   71.6590  226.2290 C   0  0  0  0  0  0  0  0  0  0  0  0
  140.3500   71.2170  225.0860 C   0  0  0  0  0  0  0  0  0  0  0  0
  140.2360   72.0010  224.0060 N   0  0  0  0  0  0  0  0  0  0  0  0
  140.8130   74.0030  222.7090 H   0  0  0  0  0  0  0  0  0  0  0  0
  140.6306   74.3843  219.8248 H   0  0  0  0  0  0  0  0  0  0  0  0
  139.2193   75.1961  220.6296 H   0  0  0  0  0  0  0  0  0  0  0  0
  143.2868   75.8449  219.4942 H   0  0  0  0  0  0  0  0  0  0  0  0
  141.7558   75.7240  218.5448 H   0  0  0  0  0  0  0  0  0  0  0  0
  143.7451   77.9718  218.6786 H   0  0  0  0  0  0  0  0  0  0  0  0
  143.1384   76.9759  217.2492 H   0  0  0  0  0  0  0  0  0  0  0  0
  142.4121   79.4533  217.6045 H   0  0  0  0  0  0  0  0  0  0  0  0
  141.2915   78.1561  217.0028 H   0  0  0  0  0  0  0  0  0  0  0  0
  140.6784   79.8652  219.0277 H   0  0  0  0  0  0  0  0  0  0  0  0
  140.0000   78.2236  218.8689 H   0  0  0  0  0  0  0  0  0  0  0  0
  142.7074   78.6260  220.4571 H   0  0  0  0  0  0  0  0  0  0  0  0
  140.2333   78.8093  221.6069 H   0  0  0  0  0  0  0  0  0  0  0  0
  141.1979   80.9702  220.3049 H   0  0  0  0  0  0  0  0  0  0  0  0
  139.8780   80.7863  221.5266 H   0  0  0  0  0  0  0  0  0  0  0  0
  142.8277   81.3250  222.1049 H   0  0  0  0  0  0  0  0  0  0  0  0
  141.4324   82.4972  222.2392 H   0  0  0  0  0  0  0  0  0  0  0  0
  140.7230   81.4660  224.1560 H   0  0  0  0  0  0  0  0  0  0  0  0
  142.5048   79.5173  224.6393 H   0  0  0  0  0  0  0  0  0  0  0  0
  140.7954   79.2041  224.0975 H   0  0  0  0  0  0  0  0  0  0  0  0
  143.2232   79.4672  222.2865 H   0  0  0  0  0  0  0  0  0  0  0  0
  142.4029   77.9350  222.7581 H   0  0  0  0  0  0  0  0  0  0  0  0
  138.5799   70.0954  221.7901 H   0  0  0  0  0  0  0  0  0  0  0  0
  138.7320   68.5419  223.7466 H   0  0  0  0  0  0  0  0  0  0  0  0
  139.4482   68.0759  226.0160 H   0  0  0  0  0  0  0  0  0  0  0  0
  141.5540   71.1087  228.2158 H   0  0  0  0  0  0  0  0  0  0  0  0
  141.4183   72.6683  226.2892 H   0  0  0  0  0  0  0  0  0  0  0  0
  1  2  2  0
  2  3  1  0
  3  4  1  0
  4  5  1  0
  5  6  2  0
  5  7  1  0
  7  8  1  0
  8  9  1  0
  9 10  1  0
 10 11  1  0
 11 12  1  0
 12 13  1  0
 13 14  1  0
 14 15  1  0
 15 16  1  0
 16 17  1  0
 17 18  1  0
  2 19  1  0
 19 20  2  0
 20 21  1  0
 21 22  2  0
 22 23  1  0
 23 24  2  0
 24 25  1  0
 24 26  1  0
 26 27  2  0
 27 28  1  0
 28 29  2  0
 12  7  1  0
 18 13  1  0
 29 19  1  0
 28 22  1  0
  3 30  1  0
  4 31  1  0
  4 32  1  0
  8 33  1  0
  8 34  1  0
  9 35  1  0
  9 36  1  0
 10 37  1  0
 10 38  1  0
 11 39  1  0
 11 40  1  0
 12 41  1  6
 13 42  1  0
 14 43  1  0
 14 44  1  0
 15 45  1  0
 15 46  1  0
 16 47  1  0
 17 48  1  0
 17 49  1  0
 18 50  1  0
 18 51  1  0
 20 52  1  0
 21 53  1  0
 23 54  1  0
 26 55  1  0
 27 56  1  0
M  END
>  <smiles>  (78) 
O=C(NCC(=O)N1CCCCC1C1CCNCC1)c1ccc2cc(Cl)ccc2n1

>  <score_type>  (78) 
oracle

>  <origin>  (78) 
autodockgpu

>  <m_score__min__energy>  (78) 
-9.1699999999999999

>  <m_primary>  (78) 
energy

>  <rmsd>  (78) 
2.1593910523077646

>  <m_score__min__rmsd>  (78) 
2.1593910523077646

>  <meeko>  (78) 
{"free_energy": -8.02, "intermolecular_energy": -9.51, "internal_energy": -2.11, "cluster_size": 18, "cluster_id": 1, "rank_in_cluster": 12}

>  <energy>  (78) 
-8.65

>  <cluster_rmsd>  (78) 
0.64

>  <cluster>  (78) 
3

$$$$

     RDKit          3D

 56 59  0  0  0  0  0  0  0  0999 V2000
  139.1070   71.3910  220.8440 O   0  0  0  0  0  0  0  0  0  0  0  0
  139.4260   71.8380  221.9710 C   0  0  0  0  0  0  0  0  0  0  0  0
  139.6600   73.2250  222.1120 N   0  0  0  0  0  0  0  0  0  0  0  0
  139.5470   74.1710  221.0090 C   0  0  0  0  0  0  0  0  0  0  0  0
  140.7190   75.0470  220.9100 C   0  0  0  0  0  0  0  0  0  0  0  0
  141.1500   75.4850  222.0610 O   0  0  0  0  0  0  0  0  0  0  0  0
  141.4390   75.4840  219.8140 N   0  0  0  0  0  0  0  0  0  0  0  0
  140.6740   76.5190  219.0040 C   0  0  0  0  0  0  0  0  0  0  0  0
  141.5190   77.0590  217.9070 C   0  0  0  0  0  0  0  0  0  0  0  0
  142.9170   77.4240  218.2850 C   0  0  0  0  0  0  0  0  0  0  0  0
  143.4740   76.5160  219.3580 C   0  0  0  0  0  0  0  0  0  0  0  0
  142.6990   75.1720  219.2890 C   0  0  1  0  0  0  0  0  0  0  0  0
  143.5170   74.0370  219.6640 C   0  0  0  0  0  0  0  0  0  0  0  0
  144.4000   74.0410  220.8360 C   0  0  0  0  0  0  0  0  0  0  0  0
  145.8250   73.6320  220.4510 C   0  0  0  0  0  0  0  0  0  0  0  0
  145.9040   72.3460  219.8410 N   0  0  0  0  0  0  0  0  0  0  0  0
  145.0200   72.2710  218.7300 C   0  0  0  0  0  0  0  0  0  0  0  0
  144.3330   73.5900  218.4410 C   0  0  0  0  0  0  0  0  0  0  0  0
  139.5630   70.9540  223.1510 C   0  0  0  0  0  0  0  0  0  0  0  0
  139.0930   69.6600  223.0920 C   0  0  0  0  0  0  0  0  0  0  0  0
  139.2450   68.8750  224.2310 C   0  0  0  0  0  0  0  0  0  0  0  0
  139.8450   69.3750  225.3770 C   0  0  0  0  0  0  0  0  0  0  0  0
  139.9920   68.5880  226.5080 C   0  0  0  0  0  0  0  0  0  0  0  0
  140.5950   69.1200  227.6370 C   0  0  0  0  0  0  0  0  0  0  0  0
  140.8020   68.1720  229.0800 Cl  0  0  0  0  0  0  0  0  0  0  0  0
  141.0450   70.4310  227.6230 C   0  0  0  0  0  0  0  0  0  0  0  0
  140.9140   71.2380  226.5150 C   0  0  0  0  0  0  0  0  0  0  0  0
  140.3100   70.6890  225.4010 C   0  0  0  0  0  0  0  0  0  0  0  0
  140.1400   71.4020  224.2800 N   0  0  0  0  0  0  0  0  0  0  0  0
  139.9300   73.5550  223.0890 H   0  0  0  0  0  0  0  0  0  0  0  0
  139.4441   73.6089  220.0691 H   0  0  0  0  0  0  0  0  0  0  0  0
  138.6665   74.8036  221.1948 H   0  0  0  0  0  0  0  0  0  0  0  0
  139.7785   76.0488  218.5716 H   0  0  0  0  0  0  0  0  0  0  0  0
  140.3878   77.3469  219.6694 H   0  0  0  0  0  0  0  0  0  0  0  0
  141.5711   76.2977  217.1147 H   0  0  0  0  0  0  0  0  0  0  0  0
  141.0388   77.9977  217.5934 H   0  0  0  0  0  0  0  0  0  0  0  0
  143.5558   77.3511  217.3925 H   0  0  0  0  0  0  0  0  0  0  0  0
  142.9023   78.4490  218.6841 H   0  0  0  0  0  0  0  0  0  0  0  0
  144.5453   76.3401  219.1808 H   0  0  0  0  0  0  0  0  0  0  0  0
  143.3585   76.9766  220.3503 H   0  0  0  0  0  0  0  0  0  0  0  0
  142.4622   74.7319  218.3091 H   0  0  0  0  0  0  0  0  0  0  0  0
  142.7321   73.3524  220.0179 H   0  0  0  0  0  0  0  0  0  0  0  0
  144.4203   75.0526  221.2677 H   0  0  0  0  0  0  0  0  0  0  0  0
  144.0134   73.3171  221.5685 H   0  0  0  0  0  0  0  0  0  0  0  0
  146.2220   74.3767  219.7454 H   0  0  0  0  0  0  0  0  0  0  0  0
  146.4097   73.5844  221.3815 H   0  0  0  0  0  0  0  0  0  0  0  0
  145.9410   71.5380  220.4680 H   0  0  0  0  0  0  0  0  0  0  0  0
  145.5955   71.9716  217.8416 H   0  0  0  0  0  0  0  0  0  0  0  0
  144.2393   71.5358  218.9749 H   0  0  0  0  0  0  0  0  0  0  0  0
  145.0913   74.3528  218.2105 H   0  0  0  0  0  0  0  0  0  0  0  0
  143.6570   73.4643  217.5824 H   0  0  0  0  0  0  0  0  0  0  0  0
  138.6175   69.2641  222.1825 H   0  0  0  0  0  0  0  0  0  0  0  0
  138.8818   67.8367  224.2222 H   0  0  0  0  0  0  0  0  0  0  0  0
  139.6327   67.5483  226.5098 H   0  0  0  0  0  0  0  0  0  0  0  0
  141.5220   70.8398  228.5260 H   0  0  0  0  0  0  0  0  0  0  0  0
  141.2755   72.2769  226.5171 H   0  0  0  0  0  0  0  0  0  0  0  0
  1  2  2  0
  2  3  1  0
  3  4  1  0
  4  5  1  0
  5  6  2  0
  5  7  1  0
  7  8  1  0
  8  9  1  0
  9 10  1  0
 10 11  1  0
 11 12  1  0
 12 13  1  0
 13 14  1  0
 14 15  1  0
 15 16  1  0
 16 17  1  0
 17 18  1  0
  2 19  1  0
 19 20  2  0
 20 21  1  0
 21 22  2  0
 22 23  1  0
 23 24  2  0
 24 25  1  0
 24 26  1  0
 26 27  2  0
 27 28  1  0
 28 29  2  0
 12  7  1  0
 18 13  1  0
 29 19  1  0
 28 22  1  0
  3 30  1  0
  4 31  1  0
  4 32  1  0
  8 33  1  0
  8 34  1  0
  9 35  1  0
  9 36  1  0
 10 37  1  0
 10 38  1  0
 11 39  1  0
 11 40  1  0
 12 41  1  6
 13 42  1  0
 14 43  1  0
 14 44  1  0
 15 45  1  0
 15 46  1  0
 16 47  1  0
 17 48  1  0
 17 49  1  0
 18 50  1  0
 18 51  1  0
 20 52  1  0
 21 53  1  0
 23 54  1  0
 26 55  1  0
 27 56  1  0
M  END
>  <smiles>  (79) 
O=C(NCC(=O)N1CCCCC1C1CCNCC1)c1ccc2cc(Cl)ccc2n1

>  <score_type>  (79) 
oracle

>  <origin>  (79) 
autodockgpu

>  <m_score__min__energy>  (79) 
-9.1699999999999999

>  <m_primary>  (79) 
energy

>  <rmsd>  (79) 
1.8431359674548378

>  <m_score__min__rmsd>  (79) 
1.8431359674548378

>  <meeko>  (79) 
{"free_energy": -8.59, "intermolecular_energy": -10.08, "internal_energy": -1.87, "cluster_size": 18, "cluster_id": 3, "rank_in_cluster": 7}

>  <energy>  (79) 
-8.59

>  <cluster_rmsd>  (79) 
0.49

>  <cluster>  (79) 
3

$$$$

     RDKit          3D

 56 59  0  0  0  0  0  0  0  0999 V2000
  140.0400   72.6770  220.7800 O   0  0  0  0  0  0  0  0  0  0  0  0
  139.7920   72.9520  221.9780 C   0  0  0  0  0  0  0  0  0  0  0  0
  139.4160   74.2740  222.3090 N   0  0  0  0  0  0  0  0  0  0  0  0
  139.3000   75.3430  221.3250 C   0  0  0  0  0  0  0  0  0  0  0  0
  138.6750   76.5450  221.8870 C   0  0  0  0  0  0  0  0  0  0  0  0
  138.2550   76.3970  223.1140 O   0  0  0  0  0  0  0  0  0  0  0  0
  138.4560   77.7960  221.3420 N   0  0  0  0  0  0  0  0  0  0  0  0
  137.1640   77.8520  220.5410 C   0  0  0  0  0  0  0  0  0  0  0  0
  136.8950   79.2370  220.0740 C   0  0  0  0  0  0  0  0  0  0  0  0
  137.0820   80.3130  221.0910 C   0  0  0  0  0  0  0  0  0  0  0  0
  138.1980   79.9940  222.0610 C   0  0  0  0  0  0  0  0  0  0  0  0
  139.1650   79.0030  221.3590 C   0  0  1  0  0  0  0  0  0  0  0  0
  140.5400   79.1730  221.7800 C   0  0  0  0  0  0  0  0  0  0  0  0
  141.2050   78.2660  222.7220 C   0  0  0  0  0  0  0  0  0  0  0  0
  141.8340   79.0440  223.8830 C   0  0  0  0  0  0  0  0  0  0  0  0
  142.7830   80.0230  223.4660 N   0  0  0  0  0  0  0  0  0  0  0  0
  142.2020   80.8950  222.5050 C   0  0  0  0  0  0  0  0  0  0  0  0
  140.7310   80.6150  222.2750 C   0  0  0  0  0  0  0  0  0  0  0  0
  139.8810   71.9320  223.0470 C   0  0  0  0  0  0  0  0  0  0  0  0
  139.4700   70.6410  222.7950 C   0  0  0  0  0  0  0  0  0  0  0  0
  139.5730   69.7250  223.8360 C   0  0  0  0  0  0  0  0  0  0  0  0
  140.0700   70.0960  225.0780 C   0  0  0  0  0  0  0  0  0  0  0  0
  140.1690   69.1780  226.1110 C   0  0  0  0  0  0  0  0  0  0  0  0
  140.6690   69.5820  227.3380 C   0  0  0  0  0  0  0  0  0  0  0  0
  140.8130   68.4680  228.6660 Cl  0  0  0  0  0  0  0  0  0  0  0  0
  141.0650   70.8980  227.5200 C   0  0  0  0  0  0  0  0  0  0  0  0
  140.9790   71.8330  226.5120 C   0  0  0  0  0  0  0  0  0  0  0  0
  140.4780   71.4100  225.2970 C   0  0  0  0  0  0  0  0  0  0  0  0
  140.3580   72.2520  224.2630 N   0  0  0  0  0  0  0  0  0  0  0  0
  139.2180   74.4570  223.3410 H   0  0  0  0  0  0  0  0  0  0  0  0
  140.3058   75.6025  220.9630 H   0  0  0  0  0  0  0  0  0  0  0  0
  138.6618   74.9811  220.5054 H   0  0  0  0  0  0  0  0  0  0  0  0
  137.2508   77.1873  219.6688 H   0  0  0  0  0  0  0  0  0  0  0  0
  136.3337   77.5288  221.1861 H   0  0  0  0  0  0  0  0  0  0  0  0
  137.5715   79.4468  219.2324 H   0  0  0  0  0  0  0  0  0  0  0  0
  135.8282   79.2604  219.8070 H   0  0  0  0  0  0  0  0  0  0  0  0
  137.3212   81.2531  220.5723 H   0  0  0  0  0  0  0  0  0  0  0  0
  136.1486   80.3999  221.6665 H   0  0  0  0  0  0  0  0  0  0  0  0
  138.7357   80.9153  222.3295 H   0  0  0  0  0  0  0  0  0  0  0  0
  137.7926   79.5494  222.9819 H   0  0  0  0  0  0  0  0  0  0  0  0
  139.4252   79.1570  220.3014 H   0  0  0  0  0  0  0  0  0  0  0  0
  141.0542   78.8926  220.8489 H   0  0  0  0  0  0  0  0  0  0  0  0
  140.4648   77.5578  223.1228 H   0  0  0  0  0  0  0  0  0  0  0  0
  142.0024   77.7289  222.1875 H   0  0  0  0  0  0  0  0  0  0  0  0
  141.0308   79.5520  224.4369 H   0  0  0  0  0  0  0  0  0  0  0  0
  142.3744   78.3150  224.5047 H   0  0  0  0  0  0  0  0  0  0  0  0
  143.7360   79.6970  223.2900 H   0  0  0  0  0  0  0  0  0  0  0  0
  142.3120   81.9310  222.8580 H   0  0  0  0  0  0  0  0  0  0  0  0
  142.7242   80.7327  221.5506 H   0  0  0  0  0  0  0  0  0  0  0  0
  140.1826   80.7515  223.2187 H   0  0  0  0  0  0  0  0  0  0  0  0
  140.3462   81.3109  221.5149 H   0  0  0  0  0  0  0  0  0  0  0  0
  139.0766   70.3472  221.8107 H   0  0  0  0  0  0  0  0  0  0  0  0
  139.2541   68.6851  223.6721 H   0  0  0  0  0  0  0  0  0  0  0  0
  139.8528   68.1356  225.9578 H   0  0  0  0  0  0  0  0  0  0  0  0
  141.4601   71.2051  228.4996 H   0  0  0  0  0  0  0  0  0  0  0  0
  141.2966   72.8744  226.6688 H   0  0  0  0  0  0  0  0  0  0  0  0
  1  2  2  0
  2  3  1  0
  3  4  1  0
  4  5  1  0
  5  6  2  0
  5  7  1  0
  7  8  1  0
  8  9  1  0
  9 10  1  0
 10 11  1  0
 11 12  1  0
 12 13  1  0
 13 14  1  0
 14 15  1  0
 15 16  1  0
 16 17  1  0
 17 18  1  0
  2 19  1  0
 19 20  2  0
 20 21  1  0
 21 22  2  0
 22 23  1  0
 23 24  2  0
 24 25  1  0
 24 26  1  0
 26 27  2  0
 27 28  1  0
 28 29  2  0
 12  7  1  0
 18 13  1  0
 29 19  1  0
 28 22  1  0
  3 30  1  0
  4 31  1  0
  4 32  1  0
  8 33  1  0
  8 34  1  0
  9 35  1  0
  9 36  1  0
 10 37  1  0
 10 38  1  0
 11 39  1  0
 11 40  1  0
 12 41  1  6
 13 42  1  0
 14 43  1  0
 14 44  1  0
 15 45  1  0
 15 46  1  0
 16 47  1  0
 17 48  1  0
 17 49  1  0
 18 50  1  0
 18 51  1  0
 20 52  1  0
 21 53  1  0
 23 54  1  0
 26 55  1  0
 27 56  1  0
M  END
>  <smiles>  (80) 
O=C(NCC(=O)N1CCCCC1C1CCNCC1)c1ccc2cc(Cl)ccc2n1

>  <score_type>  (80) 
oracle

>  <origin>  (80) 
autodockgpu

>  <m_score__min__energy>  (80) 
-9.1699999999999999

>  <m_primary>  (80) 
energy

>  <rmsd>  (80) 
3.1488041324738303

>  <m_score__min__rmsd>  (80) 
3.1488041324738303

>  <meeko>  (80) 
{"free_energy": -8.04, "intermolecular_energy": -9.54, "internal_energy": -1.98, "cluster_size": 18, "cluster_id": 1, "rank_in_cluster": 9}

>  <energy>  (80) 
-8.51

>  <cluster_rmsd>  (80) 
1.25

>  <cluster>  (80) 
3

$$$$

     RDKit          3D

 56 59  0  0  0  0  0  0  0  0999 V2000
  139.9410   72.5270  220.7700 O   0  0  0  0  0  0  0  0  0  0  0  0
  139.7470   72.8170  221.9740 C   0  0  0  0  0  0  0  0  0  0  0  0
  139.4130   74.1500  222.3080 N   0  0  0  0  0  0  0  0  0  0  0  0
  139.2810   75.2120  221.3200 C   0  0  0  0  0  0  0  0  0  0  0  0
  140.5600   75.8750  221.0460 C   0  0  0  0  0  0  0  0  0  0  0  0
  141.0620   76.4990  222.0770 O   0  0  0  0  0  0  0  0  0  0  0  0
  141.3180   75.9510  219.8930 N   0  0  0  0  0  0  0  0  0  0  0  0
  140.5890   76.6850  218.7780 C   0  0  0  0  0  0  0  0  0  0  0  0
  141.4740   76.8590  217.5960 C   0  0  0  0  0  0  0  0  0  0  0  0
  142.8630   77.3220  217.8880 C   0  0  0  0  0  0  0  0  0  0  0  0
  143.3770   76.7900  219.2070 C   0  0  0  0  0  0  0  0  0  0  0  0
  142.5900   75.4920  219.5320 C   0  0  1  0  0  0  0  0  0  0  0  0
  143.3840   74.5280  220.2650 C   0  0  0  0  0  0  0  0  0  0  0  0
  144.8260   74.6840  220.4850 C   0  0  0  0  0  0  0  0  0  0  0  0
  145.5890   73.4310  220.0410 C   0  0  0  0  0  0  0  0  0  0  0  0
  145.1650   72.2420  220.7030 N   0  0  0  0  0  0  0  0  0  0  0  0
  143.7600   72.0750  220.5680 C   0  0  0  0  0  0  0  0  0  0  0  0
  143.1290   73.1300  219.6820 C   0  0  0  0  0  0  0  0  0  0  0  0
  139.8560   71.8040  223.0480 C   0  0  0  0  0  0  0  0  0  0  0  0
  139.4650   70.5060  222.8040 C   0  0  0  0  0  0  0  0  0  0  0  0
  139.5860   69.5960  223.8500 C   0  0  0  0  0  0  0  0  0  0  0  0
  140.0820   69.9820  225.0880 C   0  0  0  0  0  0  0  0  0  0  0  0
  140.1990   69.0710  226.1250 C   0  0  0  0  0  0  0  0  0  0  0  0
  140.6970   69.4900  227.3490 C   0  0  0  0  0  0  0  0  0  0  0  0
  140.8620   68.3850  228.6820 Cl  0  0  0  0  0  0  0  0  0  0  0  0
  141.0720   70.8130  227.5220 C   0  0  0  0  0  0  0  0  0  0  0  0
  140.9670   71.7410  226.5100 C   0  0  0  0  0  0  0  0  0  0  0  0
  140.4690   71.3040  225.2990 C   0  0  0  0  0  0  0  0  0  0  0  0
  140.3320   72.1380  224.2610 N   0  0  0  0  0  0  0  0  0  0  0  0
  139.2600   74.3450  223.3450 H   0  0  0  0  0  0  0  0  0  0  0  0
  138.8984   74.7795  220.3838 H   0  0  0  0  0  0  0  0  0  0  0  0
  138.5894   75.9658  221.7244 H   0  0  0  0  0  0  0  0  0  0  0  0
  139.7026   76.1043  218.4829 H   0  0  0  0  0  0  0  0  0  0  0  0
  140.2904   77.6780  219.1450 H   0  0  0  0  0  0  0  0  0  0  0  0
  141.5425   75.8900  217.0799 H   0  0  0  0  0  0  0  0  0  0  0  0
  141.0139   77.6552  216.9924 H   0  0  0  0  0  0  0  0  0  0  0  0
  143.5283   76.9762  217.0831 H   0  0  0  0  0  0  0  0  0  0  0  0
  142.8469   78.4201  217.9500 H   0  0  0  0  0  0  0  0  0  0  0  0
  144.4512   76.5668  219.1278 H   0  0  0  0  0  0  0  0  0  0  0  0
  143.2364   77.5352  220.0038 H   0  0  0  0  0  0  0  0  0  0  0  0
  142.3780   74.7706  218.7291 H   0  0  0  0  0  0  0  0  0  0  0  0
  143.0125   74.7190  221.2826 H   0  0  0  0  0  0  0  0  0  0  0  0
  145.1864   75.5480  219.9074 H   0  0  0  0  0  0  0  0  0  0  0  0
  145.0015   74.8382  221.5599 H   0  0  0  0  0  0  0  0  0  0  0  0
  145.4411   73.2986  218.9591 H   0  0  0  0  0  0  0  0  0  0  0  0
  146.6462   73.5868  220.3019 H   0  0  0  0  0  0  0  0  0  0  0  0
  145.5760   72.0530  221.6210 H   0  0  0  0  0  0  0  0  0  0  0  0
  143.5635   71.0848  220.1310 H   0  0  0  0  0  0  0  0  0  0  0  0
  143.3157   72.1726  221.5695 H   0  0  0  0  0  0  0  0  0  0  0  0
  143.5678   73.0698  218.6751 H   0  0  0  0  0  0  0  0  0  0  0  0
  142.0445   72.9541  219.6280 H   0  0  0  0  0  0  0  0  0  0  0  0
  139.0731   70.2011  221.8224 H   0  0  0  0  0  0  0  0  0  0  0  0
  139.2827   68.5504  223.6928 H   0  0  0  0  0  0  0  0  0  0  0  0
  139.8990   68.0229  225.9783 H   0  0  0  0  0  0  0  0  0  0  0  0
  141.4659   71.1318  228.4983 H   0  0  0  0  0  0  0  0  0  0  0  0
  141.2678   72.7883  226.6606 H   0  0  0  0  0  0  0  0  0  0  0  0
  1  2  2  0
  2  3  1  0
  3  4  1  0
  4  5  1  0
  5  6  2  0
  5  7  1  0
  7  8  1  0
  8  9  1  0
  9 10  1  0
 10 11  1  0
 11 12  1  0
 12 13  1  0
 13 14  1  0
 14 15  1  0
 15 16  1  0
 16 17  1  0
 17 18  1  0
  2 19  1  0
 19 20  2  0
 20 21  1  0
 21 22  2  0
 22 23  1  0
 23 24  2  0
 24 25  1  0
 24 26  1  0
 26 27  2  0
 27 28  1  0
 28 29  2  0
 12  7  1  0
 18 13  1  0
 29 19  1  0
 28 22  1  0
  3 30  1  0
  4 31  1  0
  4 32  1  0
  8 33  1  0
  8 34  1  0
  9 35  1  0
  9 36  1  0
 10 37  1  0
 10 38  1  0
 11 39  1  0
 11 40  1  0
 12 41  1  6
 13 42  1  0
 14 43  1  0
 14 44  1  0
 15 45  1  0
 15 46  1  0
 16 47  1  0
 17 48  1  0
 17 49  1  0
 18 50  1  0
 18 51  1  0
 20 52  1  0
 21 53  1  0
 23 54  1  0
 26 55  1  0
 27 56  1  0
M  END
>  <smiles>  (81) 
O=C(NCC(=O)N1CCCCC1C1CCNCC1)c1ccc2cc(Cl)ccc2n1

>  <score_type>  (81) 
oracle

>  <origin>  (81) 
autodockgpu

>  <m_score__min__energy>  (81) 
-9.1699999999999999

>  <m_primary>  (81) 
energy

>  <rmsd>  (81) 
1.9574284515204954

>  <m_score__min__rmsd>  (81) 
1.9574284515204954

>  <meeko>  (81) 
{"free_energy": -8.49, "intermolecular_energy": -9.98, "internal_energy": -1.9, "cluster_size": 18, "cluster_id": 3, "rank_in_cluster": 9}

>  <energy>  (81) 
-8.49

>  <cluster_rmsd>  (81) 
0.75

>  <cluster>  (81) 
3

$$$$

     RDKit          3D

 56 59  0  0  0  0  0  0  0  0999 V2000
  136.3790   77.5860  222.9080 O   0  0  0  0  0  0  0  0  0  0  0  0
  136.7390   76.4180  223.1870 C   0  0  0  0  0  0  0  0  0  0  0  0
  138.0550   76.0160  222.8650 N   0  0  0  0  0  0  0  0  0  0  0  0
  139.0240   76.8930  222.2210 C   0  0  0  0  0  0  0  0  0  0  0  0
  140.1820   76.1540  221.7070 C   0  0  0  0  0  0  0  0  0  0  0  0
  140.1600   74.8790  221.9850 O   0  0  0  0  0  0  0  0  0  0  0  0
  141.2830   76.5740  220.9850 N   0  0  0  0  0  0  0  0  0  0  0  0
  141.8990   75.4450  220.1730 C   0  0  0  0  0  0  0  0  0  0  0  0
  143.0000   75.9540  219.3150 C   0  0  0  0  0  0  0  0  0  0  0  0
  142.7120   77.2150  218.5690 C   0  0  0  0  0  0  0  0  0  0  0  0
  141.8020   78.1420  219.3450 C   0  0  0  0  0  0  0  0  0  0  0  0
  141.9510   77.7970  220.8520 C   0  0  1  0  0  0  0  0  0  0  0  0
  141.7820   78.9530  221.7070 C   0  0  0  0  0  0  0  0  0  0  0  0
  141.8200   78.8760  223.1720 C   0  0  0  0  0  0  0  0  0  0  0  0
  140.5760   79.5250  223.7880 C   0  0  0  0  0  0  0  0  0  0  0  0
  140.4040   80.8920  223.4200 N   0  0  0  0  0  0  0  0  0  0  0  0
  140.4180   81.0280  222.0050 C   0  0  0  0  0  0  0  0  0  0  0  0
  140.5020   79.6940  221.2910 C   0  0  0  0  0  0  0  0  0  0  0  0
  135.8240   75.4570  223.8440 C   0  0  0  0  0  0  0  0  0  0  0  0
  135.7960   74.1450  223.4220 C   0  0  0  0  0  0  0  0  0  0  0  0
  134.9160   73.2860  224.0720 C   0  0  0  0  0  0  0  0  0  0  0  0
  134.1000   73.7320  225.1020 C   0  0  0  0  0  0  0  0  0  0  0  0
  133.2240   72.8710  225.7430 C   0  0  0  0  0  0  0  0  0  0  0  0
  132.4230   73.3500  226.7680 C   0  0  0  0  0  0  0  0  0  0  0  0
  131.3080   72.3090  227.6030 Cl  0  0  0  0  0  0  0  0  0  0  0  0
  132.5050   74.6830  227.1390 C   0  0  0  0  0  0  0  0  0  0  0  0
  133.3650   75.5630  226.5200 C   0  0  0  0  0  0  0  0  0  0  0  0
  134.1550   75.0660  225.5020 C   0  0  0  0  0  0  0  0  0  0  0  0
  135.0180   75.8500  224.8450 N   0  0  0  0  0  0  0  0  0  0  0  0
  138.3110   75.0130  223.1210 H   0  0  0  0  0  0  0  0  0  0  0  0
  138.5328   77.4096  221.3832 H   0  0  0  0  0  0  0  0  0  0  0  0
  139.3861   77.6082  222.9742 H   0  0  0  0  0  0  0  0  0  0  0  0
  142.2985   74.6835  220.8589 H   0  0  0  0  0  0  0  0  0  0  0  0
  141.1218   75.0086  219.5284 H   0  0  0  0  0  0  0  0  0  0  0  0
  143.8736   76.1345  219.9586 H   0  0  0  0  0  0  0  0  0  0  0  0
  143.1618   75.1829  218.5474 H   0  0  0  0  0  0  0  0  0  0  0  0
  143.6613   77.7342  218.3708 H   0  0  0  0  0  0  0  0  0  0  0  0
  142.2010   76.9449  217.6331 H   0  0  0  0  0  0  0  0  0  0  0  0
  142.0944   79.1878  219.1693 H   0  0  0  0  0  0  0  0  0  0  0  0
  140.7579   78.0163  219.0223 H   0  0  0  0  0  0  0  0  0  0  0  0
  142.9487   77.5845  221.2637 H   0  0  0  0  0  0  0  0  0  0  0  0
  142.7378   79.4634  221.5174 H   0  0  0  0  0  0  0  0  0  0  0  0
  141.8625   77.8196  223.4758 H   0  0  0  0  0  0  0  0  0  0  0  0
  142.7099   79.4154  223.5285 H   0  0  0  0  0  0  0  0  0  0  0  0
  139.6905   78.9619  223.4581 H   0  0  0  0  0  0  0  0  0  0  0  0
  140.7055   79.4986  224.8800 H   0  0  0  0  0  0  0  0  0  0  0  0
  140.9210   81.5850  223.9650 H   0  0  0  0  0  0  0  0  0  0  0  0
  139.4952   81.5378  221.6912 H   0  0  0  0  0  0  0  0  0  0  0  0
  141.3138   81.6067  221.7353 H   0  0  0  0  0  0  0  0  0  0  0  0
  139.6259   79.0838  221.5556 H   0  0  0  0  0  0  0  0  0  0  0  0
  140.5228   79.8673  220.2049 H   0  0  0  0  0  0  0  0  0  0  0  0
  136.4427   73.7920  222.6052 H   0  0  0  0  0  0  0  0  0  0  0  0
  134.8659   72.2314  223.7632 H   0  0  0  0  0  0  0  0  0  0  0  0
  133.1645   71.8150  225.4408 H   0  0  0  0  0  0  0  0  0  0  0  0
  131.8630   75.0497  227.9535 H   0  0  0  0  0  0  0  0  0  0  0  0
  133.4204   76.6187  226.8241 H   0  0  0  0  0  0  0  0  0  0  0  0
  1  2  2  0
  2  3  1  0
  3  4  1  0
  4  5  1  0
  5  6  2  0
  5  7  1  0
  7  8  1  0
  8  9  1  0
  9 10  1  0
 10 11  1  0
 11 12  1  0
 12 13  1  0
 13 14  1  0
 14 15  1  0
 15 16  1  0
 16 17  1  0
 17 18  1  0
  2 19  1  0
 19 20  2  0
 20 21  1  0
 21 22  2  0
 22 23  1  0
 23 24  2  0
 24 25  1  0
 24 26  1  0
 26 27  2  0
 27 28  1  0
 28 29  2  0
 12  7  1  0
 18 13  1  0
 29 19  1  0
 28 22  1  0
  3 30  1  0
  4 31  1  0
  4 32  1  0
  8 33  1  0
  8 34  1  0
  9 35  1  0
  9 36  1  0
 10 37  1  0
 10 38  1  0
 11 39  1  0
 11 40  1  0
 12 41  1  6
 13 42  1  0
 14 43  1  0
 14 44  1  0
 15 45  1  0
 15 46  1  0
 16 47  1  0
 17 48  1  0
 17 49  1  0
 18 50  1  0
 18 51  1  0
 20 52  1  0
 21 53  1  0
 23 54  1  0
 26 55  1  0
 27 56  1  0
M  END
>  <smiles>  (82) 
O=C(NCC(=O)N1CCCCC1C1CCNCC1)c1ccc2cc(Cl)ccc2n1

>  <score_type>  (82) 
oracle

>  <origin>  (82) 
autodockgpu

>  <m_score__min__energy>  (82) 
-9.1699999999999999

>  <m_primary>  (82) 
energy

>  <rmsd>  (82) 
5.576050571753555

>  <m_score__min__rmsd>  (82) 
5.576050571753555

>  <meeko>  (82) 
{"free_energy": -7.62, "intermolecular_energy": -9.11, "internal_energy": -1.93, "cluster_size": 2, "cluster_id": 5, "rank_in_cluster": 2}

>  <energy>  (82) 
-8.44

>  <cluster_rmsd>  (82) 
0.78

>  <cluster>  (82) 
3

$$$$

     RDKit          3D

 56 59  0  0  0  0  0  0  0  0999 V2000
  141.0130   72.6700  221.0350 O   0  0  0  0  0  0  0  0  0  0  0  0
  140.2610   72.8050  222.0300 C   0  0  0  0  0  0  0  0  0  0  0  0
  139.4670   73.9700  222.1300 N   0  0  0  0  0  0  0  0  0  0  0  0
  139.4740   75.0300  221.1300 C   0  0  0  0  0  0  0  0  0  0  0  0
  140.3610   76.1370  221.5040 C   0  0  0  0  0  0  0  0  0  0  0  0
  140.1540   76.5940  222.7090 O   0  0  0  0  0  0  0  0  0  0  0  0
  141.3680   76.7740  220.8040 N   0  0  0  0  0  0  0  0  0  0  0  0
  142.1770   75.8030  219.9580 C   0  0  0  0  0  0  0  0  0  0  0  0
  143.1690   76.5310  219.1250 C   0  0  0  0  0  0  0  0  0  0  0  0
  142.6600   77.7450  218.4220 C   0  0  0  0  0  0  0  0  0  0  0  0
  141.5980   78.4650  219.2230 C   0  0  0  0  0  0  0  0  0  0  0  0
  141.8060   78.1000  220.7180 C   0  0  1  0  0  0  0  0  0  0  0  0
  141.4320   79.1770  221.6110 C   0  0  0  0  0  0  0  0  0  0  0  0
  141.0010   80.4970  221.1350 C   0  0  0  0  0  0  0  0  0  0  0  0
  141.8170   81.6120  221.7970 C   0  0  0  0  0  0  0  0  0  0  0  0
  141.7390   81.6080  223.2210 N   0  0  0  0  0  0  0  0  0  0  0  0
  142.0930   80.3290  223.7300 C   0  0  0  0  0  0  0  0  0  0  0  0
  142.5500   79.3740  222.6470 C   0  0  0  0  0  0  0  0  0  0  0  0
  140.1850   71.7800  223.0950 C   0  0  0  0  0  0  0  0  0  0  0  0
  139.6260   70.5510  222.8210 C   0  0  0  0  0  0  0  0  0  0  0  0
  139.5770   69.6270  223.8600 C   0  0  0  0  0  0  0  0  0  0  0  0
  140.0720   69.9310  225.1200 C   0  0  0  0  0  0  0  0  0  0  0  0
  140.0190   69.0060  226.1500 C   0  0  0  0  0  0  0  0  0  0  0  0
  140.5220   69.3430  227.3970 C   0  0  0  0  0  0  0  0  0  0  0  0
  140.4780   68.2170  228.7220 Cl  0  0  0  0  0  0  0  0  0  0  0  0
  141.0710   70.5990  227.6000 C   0  0  0  0  0  0  0  0  0  0  0  0
  141.1380   71.5400  226.5960 C   0  0  0  0  0  0  0  0  0  0  0  0
  140.6320   71.1840  225.3620 C   0  0  0  0  0  0  0  0  0  0  0  0
  140.6550   72.0360  224.3290 N   0  0  0  0  0  0  0  0  0  0  0  0
  138.8480   74.0380  222.9940 H   0  0  0  0  0  0  0  0  0  0  0  0
  139.8147   74.6110  220.1717 H   0  0  0  0  0  0  0  0  0  0  0  0
  138.4514   75.4276  221.0514 H   0  0  0  0  0  0  0  0  0  0  0  0
  142.7067   75.1022  220.6201 H   0  0  0  0  0  0  0  0  0  0  0  0
  141.4910   75.2569  219.2938 H   0  0  0  0  0  0  0  0  0  0  0  0
  143.9963   76.8421  219.7799 H   0  0  0  0  0  0  0  0  0  0  0  0
  143.4661   75.8289  218.3320 H   0  0  0  0  0  0  0  0  0  0  0  0
  143.5007   78.4330  218.2490 H   0  0  0  0  0  0  0  0  0  0  0  0
  142.2066   77.4212  217.4736 H   0  0  0  0  0  0  0  0  0  0  0  0
  141.6974   79.5518  219.0853 H   0  0  0  0  0  0  0  0  0  0  0  0
  140.5938   78.1648  218.8891 H   0  0  0  0  0  0  0  0  0  0  0  0
  142.8252   78.0552  221.1293 H   0  0  0  0  0  0  0  0  0  0  0  0
  140.4734   78.7840  221.9806 H   0  0  0  0  0  0  0  0  0  0  0  0
  141.1387   80.5490  220.0449 H   0  0  0  0  0  0  0  0  0  0  0  0
  139.9415   80.6353  221.3963 H   0  0  0  0  0  0  0  0  0  0  0  0
  142.8709   81.4913  221.5061 H   0  0  0  0  0  0  0  0  0  0  0  0
  141.3951   82.5680  221.4535 H   0  0  0  0  0  0  0  0  0  0  0  0
  140.9320   82.0750  223.6410 H   0  0  0  0  0  0  0  0  0  0  0  0
  142.9093   80.4533  224.4568 H   0  0  0  0  0  0  0  0  0  0  0  0
  141.1951   79.8971  224.1960 H   0  0  0  0  0  0  0  0  0  0  0  0
  143.4392   79.7875  222.1487 H   0  0  0  0  0  0  0  0  0  0  0  0
  142.7941   78.4030  223.1025 H   0  0  0  0  0  0  0  0  0  0  0  0
  139.2345   70.3101  221.8217 H   0  0  0  0  0  0  0  0  0  0  0  0
  139.1369   68.6353  223.6788 H   0  0  0  0  0  0  0  0  0  0  0  0
  139.5810   68.0115  225.9795 H   0  0  0  0  0  0  0  0  0  0  0  0
  141.4660   70.8529  228.5948 H   0  0  0  0  0  0  0  0  0  0  0  0
  141.5765   72.5336  226.7704 H   0  0  0  0  0  0  0  0  0  0  0  0
  1  2  2  0
  2  3  1  0
  3  4  1  0
  4  5  1  0
  5  6  2  0
  5  7  1  0
  7  8  1  0
  8  9  1  0
  9 10  1  0
 10 11  1  0
 11 12  1  0
 12 13  1  0
 13 14  1  0
 14 15  1  0
 15 16  1  0
 16 17  1  0
 17 18  1  0
  2 19  1  0
 19 20  2  0
 20 21  1  0
 21 22  2  0
 22 23  1  0
 23 24  2  0
 24 25  1  0
 24 26  1  0
 26 27  2  0
 27 28  1  0
 28 29  2  0
 12  7  1  0
 18 13  1  0
 29 19  1  0
 28 22  1  0
  3 30  1  0
  4 31  1  0
  4 32  1  0
  8 33  1  0
  8 34  1  0
  9 35  1  0
  9 36  1  0
 10 37  1  0
 10 38  1  0
 11 39  1  0
 11 40  1  0
 12 41  1  6
 13 42  1  0
 14 43  1  0
 14 44  1  0
 15 45  1  0
 15 46  1  0
 16 47  1  0
 17 48  1  0
 17 49  1  0
 18 50  1  0
 18 51  1  0
 20 52  1  0
 21 53  1  0
 23 54  1  0
 26 55  1  0
 27 56  1  0
M  END
>  <smiles>  (83) 
O=C(NCC(=O)N1CCCCC1C1CCNCC1)c1ccc2cc(Cl)ccc2n1

>  <score_type>  (83) 
oracle

>  <origin>  (83) 
autodockgpu

>  <m_score__min__energy>  (83) 
-9.1699999999999999

>  <m_primary>  (83) 
energy

>  <rmsd>  (83) 
2.111428559117838

>  <m_score__min__rmsd>  (83) 
2.111428559117838

>  <meeko>  (83) 
{"free_energy": -9.15, "intermolecular_energy": -10.65, "internal_energy": -1.43, "cluster_size": 18, "cluster_id": 1, "rank_in_cluster": 2}

>  <energy>  (83) 
-8.4

>  <cluster_rmsd>  (83) 
0.62

>  <cluster>  (83) 
3

$$$$

     RDKit          3D

 56 59  0  0  0  0  0  0  0  0999 V2000
  138.8350   72.4220  220.8600 O   0  0  0  0  0  0  0  0  0  0  0  0
  139.6560   72.5760  221.7950 C   0  0  0  0  0  0  0  0  0  0  0  0
  140.5200   73.6940  221.7640 N   0  0  0  0  0  0  0  0  0  0  0  0
  140.5070   74.6850  220.6960 C   0  0  0  0  0  0  0  0  0  0  0  0
  141.1050   75.9570  221.1150 C   0  0  0  0  0  0  0  0  0  0  0  0
  141.0720   76.1550  222.4050 O   0  0  0  0  0  0  0  0  0  0  0  0
  141.6900   76.9730  220.3840 N   0  0  0  0  0  0  0  0  0  0  0  0
  142.4360   76.4460  219.1680 C   0  0  0  0  0  0  0  0  0  0  0  0
  142.9470   77.5660  218.3370 C   0  0  0  0  0  0  0  0  0  0  0  0
  141.9830   78.6780  218.0830 C   0  0  0  0  0  0  0  0  0  0  0  0
  141.0500   78.9030  219.2520 C   0  0  0  0  0  0  0  0  0  0  0  0
  141.7530   78.3640  220.5270 C   0  0  1  0  0  0  0  0  0  0  0  0
  141.3990   79.1120  221.7160 C   0  0  0  0  0  0  0  0  0  0  0  0
  140.5680   80.3210  221.6810 C   0  0  0  0  0  0  0  0  0  0  0  0
  141.2570   81.4820  222.4070 C   0  0  0  0  0  0  0  0  0  0  0  0
  141.5680   81.1970  223.7690 N   0  0  0  0  0  0  0  0  0  0  0  0
  142.3260   79.9980  223.8620 C   0  0  0  0  0  0  0  0  0  0  0  0
  142.6790   79.4230  222.5060 C   0  0  0  0  0  0  0  0  0  0  0  0
  139.7400   71.6220  222.9240 C   0  0  0  0  0  0  0  0  0  0  0  0
  139.2210   70.3530  222.7860 C   0  0  0  0  0  0  0  0  0  0  0  0
  139.3250   69.5000  223.8800 C   0  0  0  0  0  0  0  0  0  0  0  0
  139.9280   69.9110  225.0610 C   0  0  0  0  0  0  0  0  0  0  0  0
  140.0270   69.0560  226.1470 C   0  0  0  0  0  0  0  0  0  0  0  0
  140.6330   69.4990  227.3120 C   0  0  0  0  0  0  0  0  0  0  0  0
  140.7810   68.4640  228.7020 Cl  0  0  0  0  0  0  0  0  0  0  0  0
  141.1340   70.7900  227.3790 C   0  0  0  0  0  0  0  0  0  0  0  0
  141.0500   71.6620  226.3160 C   0  0  0  0  0  0  0  0  0  0  0  0
  140.4430   71.2020  225.1650 C   0  0  0  0  0  0  0  0  0  0  0  0
  140.3170   71.9820  224.0850 N   0  0  0  0  0  0  0  0  0  0  0  0
  141.2010   73.7790  222.5800 H   0  0  0  0  0  0  0  0  0  0  0  0
  141.0748   74.2912  219.8401 H   0  0  0  0  0  0  0  0  0  0  0  0
  139.4582   74.8771  220.4255 H   0  0  0  0  0  0  0  0  0  0  0  0
  143.2833   75.8301  219.5036 H   0  0  0  0  0  0  0  0  0  0  0  0
  141.7424   75.8449  218.5618 H   0  0  0  0  0  0  0  0  0  0  0  0
  143.8255   77.9902  218.8453 H   0  0  0  0  0  0  0  0  0  0  0  0
  143.1680   77.1306  217.3513 H   0  0  0  0  0  0  0  0  0  0  0  0
  142.5494   79.6028  217.8986 H   0  0  0  0  0  0  0  0  0  0  0  0
  141.3717   78.4026  217.2110 H   0  0  0  0  0  0  0  0  0  0  0  0
  140.8424   79.9774  219.3644 H   0  0  0  0  0  0  0  0  0  0  0  0
  140.0951   78.3819  219.0889 H   0  0  0  0  0  0  0  0  0  0  0  0
  142.8265   78.5524  220.6754 H   0  0  0  0  0  0  0  0  0  0  0  0
  140.6906   78.4056  222.1735 H   0  0  0  0  0  0  0  0  0  0  0  0
  140.3913   80.6059  220.6333 H   0  0  0  0  0  0  0  0  0  0  0  0
  139.6155   80.1065  222.1877 H   0  0  0  0  0  0  0  0  0  0  0  0
  142.1924   81.7172  221.8782 H   0  0  0  0  0  0  0  0  0  0  0  0
  140.5532   82.3274  222.4060 H   0  0  0  0  0  0  0  0  0  0  0  0
  140.8200   81.3350  224.4530 H   0  0  0  0  0  0  0  0  0  0  0  0
  143.2574   80.2118  224.4068 H   0  0  0  0  0  0  0  0  0  0  0  0
  141.7087   79.2546  224.3877 H   0  0  0  0  0  0  0  0  0  0  0  0
  143.2833   80.1529  221.9473 H   0  0  0  0  0  0  0  0  0  0  0  0
  143.2506   78.4937  222.6463 H   0  0  0  0  0  0  0  0  0  0  0  0
  138.7442   70.0279  221.8495 H   0  0  0  0  0  0  0  0  0  0  0  0
  138.9213   68.4793  223.8078 H   0  0  0  0  0  0  0  0  0  0  0  0
  139.6275   68.0330  226.0849 H   0  0  0  0  0  0  0  0  0  0  0  0
  141.6133   71.1283  228.3095 H   0  0  0  0  0  0  0  0  0  0  0  0
  141.4508   72.6843  226.3818 H   0  0  0  0  0  0  0  0  0  0  0  0
  1  2  2  0
  2  3  1  0
  3  4  1  0
  4  5  1  0
  5  6  2  0
  5  7  1  0
  7  8  1  0
  8  9  1  0
  9 10  1  0
 10 11  1  0
 11 12  1  0
 12 13  1  0
 13 14  1  0
 14 15  1  0
 15 16  1  0
 16 17  1  0
 17 18  1  0
  2 19  1  0
 19 20  2  0
 20 21  1  0
 21 22  2  0
 22 23  1  0
 23 24  2  0
 24 25  1  0
 24 26  1  0
 26 27  2  0
 27 28  1  0
 28 29  2  0
 12  7  1  0
 18 13  1  0
 29 19  1  0
 28 22  1  0
  3 30  1  0
  4 31  1  0
  4 32  1  0
  8 33  1  0
  8 34  1  0
  9 35  1  0
  9 36  1  0
 10 37  1  0
 10 38  1  0
 11 39  1  0
 11 40  1  0
 12 41  1  6
 13 42  1  0
 14 43  1  0
 14 44  1  0
 15 45  1  0
 15 46  1  0
 16 47  1  0
 17 48  1  0
 17 49  1  0
 18 50  1  0
 18 51  1  0
 20 52  1  0
 21 53  1  0
 23 54  1  0
 26 55  1  0
 27 56  1  0
M  END
>  <smiles>  (84) 
O=C(NCC(=O)N1CCCCC1C1CCNCC1)c1ccc2cc(Cl)ccc2n1

>  <score_type>  (84) 
oracle

>  <origin>  (84) 
autodockgpu

>  <m_score__min__energy>  (84) 
-9.1699999999999999

>  <m_primary>  (84) 
energy

>  <rmsd>  (84) 
2.231107463979676

>  <m_score__min__rmsd>  (84) 
2.231107463979676

>  <meeko>  (84) 
{"free_energy": -8.26, "intermolecular_energy": -9.75, "internal_energy": -1.85, "cluster_size": 18, "cluster_id": 1, "rank_in_cluster": 8}

>  <energy>  (84) 
-8.37

>  <cluster_rmsd>  (84) 
0.65

>  <cluster>  (84) 
3

$$$$

     RDKit          3D

 56 59  0  0  0  0  0  0  0  0999 V2000
  141.2040   81.8660  218.8170 O   0  0  0  0  0  0  0  0  0  0  0  0
  140.6910   80.8640  219.3680 C   0  0  0  0  0  0  0  0  0  0  0  0
  139.4410   81.0080  220.0140 N   0  0  0  0  0  0  0  0  0  0  0  0
  138.7120   82.2690  220.0720 C   0  0  0  0  0  0  0  0  0  0  0  0
  138.5690   82.7610  221.4460 C   0  0  0  0  0  0  0  0  0  0  0  0
  138.6730   84.0580  221.5560 O   0  0  0  0  0  0  0  0  0  0  0  0
  138.3460   82.0920  222.6340 N   0  0  0  0  0  0  0  0  0  0  0  0
  137.2760   82.7670  223.4790 C   0  0  0  0  0  0  0  0  0  0  0  0
  136.9720   81.9590  224.6880 C   0  0  0  0  0  0  0  0  0  0  0  0
  136.8000   80.4930  224.4620 C   0  0  0  0  0  0  0  0  0  0  0  0
  137.6900   79.9780  223.3530 C   0  0  0  0  0  0  0  0  0  0  0  0
  138.8960   80.9480  223.2260 C   0  0  1  0  0  0  0  0  0  0  0  0
  140.1090   80.2770  222.8090 C   0  0  0  0  0  0  0  0  0  0  0  0
  140.4780   78.9340  223.2710 C   0  0  0  0  0  0  0  0  0  0  0  0
  141.8970   78.9230  223.8500 C   0  0  0  0  0  0  0  0  0  0  0  0
  142.8920   79.3640  222.9290 N   0  0  0  0  0  0  0  0  0  0  0  0
  142.5500   80.6410  222.4060 C   0  0  0  0  0  0  0  0  0  0  0  0
  141.3010   81.2170  223.0420 C   0  0  0  0  0  0  0  0  0  0  0  0
  141.3560   79.5420  219.3580 C   0  0  0  0  0  0  0  0  0  0  0  0
  142.3600   79.2900  218.4490 C   0  0  0  0  0  0  0  0  0  0  0  0
  142.9480   78.0290  218.4820 C   0  0  0  0  0  0  0  0  0  0  0  0
  142.5400   77.0660  219.3940 C   0  0  0  0  0  0  0  0  0  0  0  0
  143.1290   75.8130  219.4210 C   0  0  0  0  0  0  0  0  0  0  0  0
  142.6960   74.8740  220.3440 C   0  0  0  0  0  0  0  0  0  0  0  0
  143.4040   73.2870  220.4170 Cl  0  0  0  0  0  0  0  0  0  0  0  0
  141.6800   75.1980  221.2300 C   0  0  0  0  0  0  0  0  0  0  0  0
  141.0760   76.4360  221.2280 C   0  0  0  0  0  0  0  0  0  0  0  0
  141.5210   77.3560  220.3000 C   0  0  0  0  0  0  0  0  0  0  0  0
  140.9890   78.5830  220.2260 N   0  0  0  0  0  0  0  0  0  0  0  0
  139.0480   80.1280  220.4690 H   0  0  0  0  0  0  0  0  0  0  0  0
  139.2559   83.0206  219.4810 H   0  0  0  0  0  0  0  0  0  0  0  0
  137.7038   82.0962  219.6675 H   0  0  0  0  0  0  0  0  0  0  0  0
  137.6343   83.7597  223.7892 H   0  0  0  0  0  0  0  0  0  0  0  0
  136.3595   82.8617  222.8782 H   0  0  0  0  0  0  0  0  0  0  0  0
  137.7973   82.0961  225.4022 H   0  0  0  0  0  0  0  0  0  0  0  0
  136.0000   82.3216  225.0537 H   0  0  0  0  0  0  0  0  0  0  0  0
  137.0478   79.9597  225.3916 H   0  0  0  0  0  0  0  0  0  0  0  0
  135.7553   80.3171  224.1660 H   0  0  0  0  0  0  0  0  0  0  0  0
  138.0468   78.9668  223.5982 H   0  0  0  0  0  0  0  0  0  0  0  0
  137.1343   79.9282  222.4050 H   0  0  0  0  0  0  0  0  0  0  0  0
  139.3750   81.3403  224.1352 H   0  0  0  0  0  0  0  0  0  0  0  0
  139.8464   80.0550  221.7641 H   0  0  0  0  0  0  0  0  0  0  0  0
  139.7695   78.6140  224.0492 H   0  0  0  0  0  0  0  0  0  0  0  0
  140.4443   78.2466  222.4129 H   0  0  0  0  0  0  0  0  0  0  0  0
  141.9192   79.5839  224.7290 H   0  0  0  0  0  0  0  0  0  0  0  0
  142.1334   77.8795  224.1056 H   0  0  0  0  0  0  0  0  0  0  0  0
  143.2540   78.6680  222.2720 H   0  0  0  0  0  0  0  0  0  0  0  0
  143.3873   81.3311  222.5865 H   0  0  0  0  0  0  0  0  0  0  0  0
  142.3495   80.5176  221.3315 H   0  0  0  0  0  0  0  0  0  0  0  0
  141.4648   81.3358  224.1232 H   0  0  0  0  0  0  0  0  0  0  0  0
  141.0831   82.1945  222.5871 H   0  0  0  0  0  0  0  0  0  0  0  0
  142.6836   80.0540  217.7268 H   0  0  0  0  0  0  0  0  0  0  0  0
  143.7525   77.7909  217.7706 H   0  0  0  0  0  0  0  0  0  0  0  0
  143.9350   75.5646  218.7148 H   0  0  0  0  0  0  0  0  0  0  0  0
  141.3459   74.4431  221.9570 H   0  0  0  0  0  0  0  0  0  0  0  0
  140.2717   76.6815  221.9371 H   0  0  0  0  0  0  0  0  0  0  0  0
  1  2  2  0
  2  3  1  0
  3  4  1  0
  4  5  1  0
  5  6  2  0
  5  7  1  0
  7  8  1  0
  8  9  1  0
  9 10  1  0
 10 11  1  0
 11 12  1  0
 12 13  1  0
 13 14  1  0
 14 15  1  0
 15 16  1  0
 16 17  1  0
 17 18  1  0
  2 19  1  0
 19 20  2  0
 20 21  1  0
 21 22  2  0
 22 23  1  0
 23 24  2  0
 24 25  1  0
 24 26  1  0
 26 27  2  0
 27 28  1  0
 28 29  2  0
 12  7  1  0
 18 13  1  0
 29 19  1  0
 28 22  1  0
  3 30  1  0
  4 31  1  0
  4 32  1  0
  8 33  1  0
  8 34  1  0
  9 35  1  0
  9 36  1  0
 10 37  1  0
 10 38  1  0
 11 39  1  0
 11 40  1  0
 12 41  1  1
 13 42  1  0
 14 43  1  0
 14 44  1  0
 15 45  1  0
 15 46  1  0
 16 47  1  0
 17 48  1  0
 17 49  1  0
 18 50  1  0
 18 51  1  0
 20 52  1  0
 21 53  1  0
 23 54  1  0
 26 55  1  0
 27 56  1  0
M  END
>  <smiles>  (85) 
O=C(NCC(=O)N1CCCCC1C1CCNCC1)c1ccc2cc(Cl)ccc2n1

>  <score_type>  (85) 
oracle

>  <origin>  (85) 
autodockgpu

>  <m_score__min__energy>  (85) 
-9.1699999999999999

>  <m_primary>  (85) 
energy

>  <rmsd>  (85) 
9.281938521339391

>  <m_score__min__rmsd>  (85) 
9.281938521339391

>  <meeko>  (85) 
{"free_energy": -6.58, "intermolecular_energy": -8.07, "internal_energy": -2.94, "cluster_size": 5, "cluster_id": 8, "rank_in_cluster": 2}

>  <energy>  (85) 
-8.31

>  <cluster_rmsd>  (85) 
0.83

>  <cluster>  (85) 
3

$$$$

     RDKit          3D

 56 59  0  0  0  0  0  0  0  0999 V2000
  140.6720   72.4620  220.6930 O   0  0  0  0  0  0  0  0  0  0  0  0
  140.1490   72.7490  221.7950 C   0  0  0  0  0  0  0  0  0  0  0  0
  139.6040   74.0410  221.9740 N   0  0  0  0  0  0  0  0  0  0  0  0
  139.6150   75.0650  220.9370 C   0  0  0  0  0  0  0  0  0  0  0  0
  140.5320   76.1650  221.2570 C   0  0  0  0  0  0  0  0  0  0  0  0
  141.7930   75.8490  221.1460 O   0  0  0  0  0  0  0  0  0  0  0  0
  140.2880   77.4660  221.6520 N   0  0  0  0  0  0  0  0  0  0  0  0
  139.1350   77.5580  222.6390 C   0  0  0  0  0  0  0  0  0  0  0  0
  138.9790   78.9480  223.1390 C   0  0  0  0  0  0  0  0  0  0  0  0
  140.2400   79.6400  223.5380 C   0  0  0  0  0  0  0  0  0  0  0  0
  141.4170   79.2180  222.6870 C   0  0  0  0  0  0  0  0  0  0  0  0
  140.8590   78.7040  221.3320 C   0  0  1  0  0  0  0  0  0  0  0  0
  141.7570   78.9640  220.2260 C   0  0  0  0  0  0  0  0  0  0  0  0
  142.1250   80.3180  219.7970 C   0  0  0  0  0  0  0  0  0  0  0  0
  141.8780   80.5040  218.2960 C   0  0  0  0  0  0  0  0  0  0  0  0
  142.5880   79.5730  217.4820 N   0  0  0  0  0  0  0  0  0  0  0  0
  142.3100   78.2420  217.8970 C   0  0  0  0  0  0  0  0  0  0  0  0
  141.2720   78.1790  218.9980 C   0  0  0  0  0  0  0  0  0  0  0  0
  140.0890   71.7740  222.9070 C   0  0  0  0  0  0  0  0  0  0  0  0
  139.5220   70.5360  222.6990 C   0  0  0  0  0  0  0  0  0  0  0  0
  139.4880   69.6600  223.7800 C   0  0  0  0  0  0  0  0  0  0  0  0
  140.0060   70.0200  225.0160 C   0  0  0  0  0  0  0  0  0  0  0  0
  139.9690   69.1430  226.0880 C   0  0  0  0  0  0  0  0  0  0  0  0
  140.4940   69.5350  227.3100 C   0  0  0  0  0  0  0  0  0  0  0  0
  140.4700   68.4700  228.6850 Cl  0  0  0  0  0  0  0  0  0  0  0  0
  141.0500   70.7970  227.4460 C   0  0  0  0  0  0  0  0  0  0  0  0
  141.1020   71.6900  226.3990 C   0  0  0  0  0  0  0  0  0  0  0  0
  140.5740   71.2810  225.1910 C   0  0  0  0  0  0  0  0  0  0  0  0
  140.5800   72.0840  224.1200 N   0  0  0  0  0  0  0  0  0  0  0  0
  139.1730   74.2360  222.9300 H   0  0  0  0  0  0  0  0  0  0  0  0
  139.9295   74.6057  219.9883 H   0  0  0  0  0  0  0  0  0  0  0  0
  138.5997   75.4815  220.8615 H   0  0  0  0  0  0  0  0  0  0  0  0
  138.2058   77.2484  222.1382 H   0  0  0  0  0  0  0  0  0  0  0  0
  139.3478   76.8978  223.4927 H   0  0  0  0  0  0  0  0  0  0  0  0
  138.5054   79.5418  222.3433 H   0  0  0  0  0  0  0  0  0  0  0  0
  138.3778   78.8697  224.0568 H   0  0  0  0  0  0  0  0  0  0  0  0
  140.0972   80.7255  223.4319 H   0  0  0  0  0  0  0  0  0  0  0  0
  140.4609   79.3653  224.5800 H   0  0  0  0  0  0  0  0  0  0  0  0
  142.0831   80.0766  222.5165 H   0  0  0  0  0  0  0  0  0  0  0  0
  141.9936   78.4283  223.1909 H   0  0  0  0  0  0  0  0  0  0  0  0
  140.0334   79.2435  220.8448 H   0  0  0  0  0  0  0  0  0  0  0  0
  142.7057   78.6424  220.6804 H   0  0  0  0  0  0  0  0  0  0  0  0
  141.5206   81.0488  220.3544 H   0  0  0  0  0  0  0  0  0  0  0  0
  143.1957   80.4707  219.9978 H   0  0  0  0  0  0  0  0  0  0  0  0
  140.8016   80.3848  218.1031 H   0  0  0  0  0  0  0  0  0  0  0  0
  142.2413   81.5078  218.0308 H   0  0  0  0  0  0  0  0  0  0  0  0
  143.5590   79.8030  217.2570 H   0  0  0  0  0  0  0  0  0  0  0  0
  141.9399   77.6732  217.0312 H   0  0  0  0  0  0  0  0  0  0  0  0
  143.2429   77.8157  218.2944 H   0  0  0  0  0  0  0  0  0  0  0  0
  140.3300   78.6162  218.6354 H   0  0  0  0  0  0  0  0  0  0  0  0
  141.1119   77.1285  219.2823 H   0  0  0  0  0  0  0  0  0  0  0  0
  139.1127   70.2513  221.7185 H   0  0  0  0  0  0  0  0  0  0  0  0
  139.0418   68.6627  223.6521 H   0  0  0  0  0  0  0  0  0  0  0  0
  139.5263   68.1429  225.9705 H   0  0  0  0  0  0  0  0  0  0  0  0
  141.4629   71.0949  228.4211 H   0  0  0  0  0  0  0  0  0  0  0  0
  141.5464   72.6889  226.5204 H   0  0  0  0  0  0  0  0  0  0  0  0
  1  2  2  0
  2  3  1  0
  3  4  1  0
  4  5  1  0
  5  6  2  0
  5  7  1  0
  7  8  1  0
  8  9  1  0
  9 10  1  0
 10 11  1  0
 11 12  1  0
 12 13  1  0
 13 14  1  0
 14 15  1  0
 15 16  1  0
 16 17  1  0
 17 18  1  0
  2 19  1  0
 19 20  2  0
 20 21  1  0
 21 22  2  0
 22 23  1  0
 23 24  2  0
 24 25  1  0
 24 26  1  0
 26 27  2  0
 27 28  1  0
 28 29  2  0
 12  7  1  0
 18 13  1  0
 29 19  1  0
 28 22  1  0
  3 30  1  0
  4 31  1  0
  4 32  1  0
  8 33  1  0
  8 34  1  0
  9 35  1  0
  9 36  1  0
 10 37  1  0
 10 38  1  0
 11 39  1  0
 11 40  1  0
 12 41  1  6
 13 42  1  0
 14 43  1  0
 14 44  1  0
 15 45  1  0
 15 46  1  0
 16 47  1  0
 17 48  1  0
 17 49  1  0
 18 50  1  0
 18 51  1  0
 20 52  1  0
 21 53  1  0
 23 54  1  0
 26 55  1  0
 27 56  1  0
M  END
>  <smiles>  (86) 
O=C(NCC(=O)N1CCCCC1C1CCNCC1)c1ccc2cc(Cl)ccc2n1

>  <score_type>  (86) 
oracle

>  <origin>  (86) 
autodockgpu

>  <m_score__min__energy>  (86) 
-9.1699999999999999

>  <m_primary>  (86) 
energy

>  <rmsd>  (86) 
3.2445118714411985

>  <m_score__min__rmsd>  (86) 
3.2445118714411985

>  <meeko>  (86) 
{"free_energy": -8.91, "intermolecular_energy": -10.4, "internal_energy": -1.28, "cluster_size": 4, "cluster_id": 2, "rank_in_cluster": 2}

>  <energy>  (86) 
-8.3

>  <cluster_rmsd>  (86) 
0.93

>  <cluster>  (86) 
3

$$$$

     RDKit          3D

 56 59  0  0  0  0  0  0  0  0999 V2000
  140.9060   72.5240  221.1420 O   0  0  0  0  0  0  0  0  0  0  0  0
  140.1380   72.6320  222.1280 C   0  0  0  0  0  0  0  0  0  0  0  0
  139.2770   73.7500  222.2010 N   0  0  0  0  0  0  0  0  0  0  0  0
  139.2320   74.7930  221.1830 C   0  0  0  0  0  0  0  0  0  0  0  0
  140.5340   75.4430  221.0010 C   0  0  0  0  0  0  0  0  0  0  0  0
  141.0660   75.8800  222.1100 O   0  0  0  0  0  0  0  0  0  0  0  0
  141.2860   75.6700  219.8640 N   0  0  0  0  0  0  0  0  0  0  0  0
  140.5150   76.4580  218.8170 C   0  0  0  0  0  0  0  0  0  0  0  0
  141.3880   76.7930  217.6610 C   0  0  0  0  0  0  0  0  0  0  0  0
  142.7460   77.3110  218.0030 C   0  0  0  0  0  0  0  0  0  0  0  0
  143.2910   76.6920  219.2710 C   0  0  0  0  0  0  0  0  0  0  0  0
  142.5840   75.3240  219.4700 C   0  0  1  0  0  0  0  0  0  0  0  0
  143.4350   74.3470  220.1170 C   0  0  0  0  0  0  0  0  0  0  0  0
  144.8310   74.6180  220.4800 C   0  0  0  0  0  0  0  0  0  0  0  0
  145.7640   73.5390  219.9210 C   0  0  0  0  0  0  0  0  0  0  0  0
  145.4400   72.2220  220.3600 N   0  0  0  0  0  0  0  0  0  0  0  0
  144.0770   71.9300  220.0830 C   0  0  0  0  0  0  0  0  0  0  0  0
  143.3870   73.0380  219.3130 C   0  0  0  0  0  0  0  0  0  0  0  0
  140.1110   71.6210  223.2090 C   0  0  0  0  0  0  0  0  0  0  0  0
  139.5800   70.3740  222.9650 C   0  0  0  0  0  0  0  0  0  0  0  0
  139.5770   69.4650  224.0180 C   0  0  0  0  0  0  0  0  0  0  0  0
  140.0890   69.8010  225.2630 C   0  0  0  0  0  0  0  0  0  0  0  0
  140.0820   68.8920  226.3080 C   0  0  0  0  0  0  0  0  0  0  0  0
  140.6000   69.2610  227.5390 C   0  0  0  0  0  0  0  0  0  0  0  0
  140.6130   68.1550  228.8810 Cl  0  0  0  0  0  0  0  0  0  0  0  0
  141.1190   70.5340  227.7130 C   0  0  0  0  0  0  0  0  0  0  0  0
  141.1400   71.4600  226.6930 C   0  0  0  0  0  0  0  0  0  0  0  0
  140.6190   71.0730  225.4750 C   0  0  0  0  0  0  0  0  0  0  0  0
  140.5980   71.9090  224.4290 N   0  0  0  0  0  0  0  0  0  0  0  0
  138.6460   73.7960  223.0590 H   0  0  0  0  0  0  0  0  0  0  0  0
  138.9235   74.3432  220.2277 H   0  0  0  0  0  0  0  0  0  0  0  0
  138.5146   75.5585  221.5139 H   0  0  0  0  0  0  0  0  0  0  0  0
  139.6654   75.8547  218.4646 H   0  0  0  0  0  0  0  0  0  0  0  0
  140.1572   77.3934  219.2719 H   0  0  0  0  0  0  0  0  0  0  0  0
  141.5159   75.8813  217.0589 H   0  0  0  0  0  0  0  0  0  0  0  0
  140.8803   77.6114  217.1296 H   0  0  0  0  0  0  0  0  0  0  0  0
  143.4317   77.0820  217.1739 H   0  0  0  0  0  0  0  0  0  0  0  0
  142.6626   78.3957  218.1655 H   0  0  0  0  0  0  0  0  0  0  0  0
  144.3769   76.5426  219.1783 H   0  0  0  0  0  0  0  0  0  0  0  0
  143.1051   77.3507  220.1321 H   0  0  0  0  0  0  0  0  0  0  0  0
  142.4167   74.6684  218.6027 H   0  0  0  0  0  0  0  0  0  0  0  0
  142.9754   74.3365  221.1163 H   0  0  0  0  0  0  0  0  0  0  0  0
  145.1257   75.5955  220.0705 H   0  0  0  0  0  0  0  0  0  0  0  0
  144.9137   74.6183  221.5769 H   0  0  0  0  0  0  0  0  0  0  0  0
  145.7060   73.5638  218.8228 H   0  0  0  0  0  0  0  0  0  0  0  0
  146.7753   73.7631  220.2913 H   0  0  0  0  0  0  0  0  0  0  0  0
  145.8060   71.9360  221.2720 H   0  0  0  0  0  0  0  0  0  0  0  0
  144.0287   71.0055  219.4888 H   0  0  0  0  0  0  0  0  0  0  0  0
  143.5577   71.8214  221.0466 H   0  0  0  0  0  0  0  0  0  0  0  0
  143.8969   73.1838  218.3493 H   0  0  0  0  0  0  0  0  0  0  0  0
  142.3370   72.7583  219.1416 H   0  0  0  0  0  0  0  0  0  0  0  0
  139.1748   70.1076  221.9777 H   0  0  0  0  0  0  0  0  0  0  0  0
  139.1602   68.4593  223.8604 H   0  0  0  0  0  0  0  0  0  0  0  0
  139.6678   67.8835  226.1616 H   0  0  0  0  0  0  0  0  0  0  0  0
  141.5267   70.8138  228.6956 H   0  0  0  0  0  0  0  0  0  0  0  0
  141.5554   72.4674  226.8434 H   0  0  0  0  0  0  0  0  0  0  0  0
  1  2  2  0
  2  3  1  0
  3  4  1  0
  4  5  1  0
  5  6  2  0
  5  7  1  0
  7  8  1  0
  8  9  1  0
  9 10  1  0
 10 11  1  0
 11 12  1  0
 12 13  1  0
 13 14  1  0
 14 15  1  0
 15 16  1  0
 16 17  1  0
 17 18  1  0
  2 19  1  0
 19 20  2  0
 20 21  1  0
 21 22  2  0
 22 23  1  0
 23 24  2  0
 24 25  1  0
 24 26  1  0
 26 27  2  0
 27 28  1  0
 28 29  2  0
 12  7  1  0
 18 13  1  0
 29 19  1  0
 28 22  1  0
  3 30  1  0
  4 31  1  0
  4 32  1  0
  8 33  1  0
  8 34  1  0
  9 35  1  0
  9 36  1  0
 10 37  1  0
 10 38  1  0
 11 39  1  0
 11 40  1  0
 12 41  1  6
 13 42  1  0
 14 43  1  0
 14 44  1  0
 15 45  1  0
 15 46  1  0
 16 47  1  0
 17 48  1  0
 17 49  1  0
 18 50  1  0
 18 51  1  0
 20 52  1  0
 21 53  1  0
 23 54  1  0
 26 55  1  0
 27 56  1  0
M  END
>  <smiles>  (87) 
O=C(NCC(=O)N1CCCCC1C1CCNCC1)c1ccc2cc(Cl)ccc2n1

>  <score_type>  (87) 
oracle

>  <origin>  (87) 
autodockgpu

>  <m_score__min__energy>  (87) 
-9.1699999999999999

>  <m_primary>  (87) 
energy

>  <rmsd>  (87) 
1.8721287396868798

>  <m_score__min__rmsd>  (87) 
1.8721287396868798

>  <meeko>  (87) 
{"free_energy": -8.74, "intermolecular_energy": -10.23, "internal_energy": -1.69, "cluster_size": 18, "cluster_id": 3, "rank_in_cluster": 2}

>  <energy>  (87) 
-8.29

>  <cluster_rmsd>  (87) 
1.09

>  <cluster>  (87) 
3

$$$$

     RDKit          3D

 56 59  0  0  0  0  0  0  0  0999 V2000
  138.1650   71.7320  221.3700 O   0  0  0  0  0  0  0  0  0  0  0  0
  139.0070   71.9910  222.2620 C   0  0  0  0  0  0  0  0  0  0  0  0
  139.7320   73.2020  222.1820 N   0  0  0  0  0  0  0  0  0  0  0  0
  139.5510   74.1730  221.1110 C   0  0  0  0  0  0  0  0  0  0  0  0
  140.7710   74.9460  220.8540 C   0  0  0  0  0  0  0  0  0  0  0  0
  141.4590   75.2180  221.9290 O   0  0  0  0  0  0  0  0  0  0  0  0
  141.3100   75.4300  219.6770 N   0  0  0  0  0  0  0  0  0  0  0  0
  140.3490   76.3550  218.9470 C   0  0  0  0  0  0  0  0  0  0  0  0
  141.0010   76.9560  217.7540 C   0  0  0  0  0  0  0  0  0  0  0  0
  142.3830   77.4810  217.9650 C   0  0  0  0  0  0  0  0  0  0  0  0
  143.1540   76.6670  218.9790 C   0  0  0  0  0  0  0  0  0  0  0  0
  142.5300   75.2450  219.0170 C   0  0  1  0  0  0  0  0  0  0  0  0
  143.5060   74.2160  219.3100 C   0  0  0  0  0  0  0  0  0  0  0  0
  143.1430   72.8150  219.5470 C   0  0  0  0  0  0  0  0  0  0  0  0
  143.7380   72.3090  220.8660 C   0  0  0  0  0  0  0  0  0  0  0  0
  145.1580   72.4160  220.9290 N   0  0  0  0  0  0  0  0  0  0  0  0
  145.5660   73.7480  220.6480 C   0  0  0  0  0  0  0  0  0  0  0  0
  144.3950   74.6920  220.4690 C   0  0  0  0  0  0  0  0  0  0  0  0
  139.2580   71.0660  223.3900 C   0  0  0  0  0  0  0  0  0  0  0  0
  138.8360   69.7570  223.3060 C   0  0  0  0  0  0  0  0  0  0  0  0
  139.0940   68.9320  224.3960 C   0  0  0  0  0  0  0  0  0  0  0  0
  139.7520   69.4100  225.5220 C   0  0  0  0  0  0  0  0  0  0  0  0
  140.0050   68.5830  226.6040 C   0  0  0  0  0  0  0  0  0  0  0  0
  140.6630   69.0930  227.7130 C   0  0  0  0  0  0  0  0  0  0  0  0
  141.0040   68.0960  229.0970 Cl  0  0  0  0  0  0  0  0  0  0  0  0
  141.0590   70.4210  227.7270 C   0  0  0  0  0  0  0  0  0  0  0  0
  140.8210   71.2660  226.6660 C   0  0  0  0  0  0  0  0  0  0  0  0
  140.1650   70.7400  225.5720 C   0  0  0  0  0  0  0  0  0  0  0  0
  139.8910   71.4900  224.4970 N   0  0  0  0  0  0  0  0  0  0  0  0
  140.4370   73.3740  222.9630 H   0  0  0  0  0  0  0  0  0  0  0  0
  139.2697   73.6385  220.1917 H   0  0  0  0  0  0  0  0  0  0  0  0
  138.7639   74.8761  221.4211 H   0  0  0  0  0  0  0  0  0  0  0  0
  139.4683   75.7796  218.6255 H   0  0  0  0  0  0  0  0  0  0  0  0
  140.0489   77.1631  219.6303 H   0  0  0  0  0  0  0  0  0  0  0  0
  141.0486   76.1850  216.9709 H   0  0  0  0  0  0  0  0  0  0  0  0
  140.3873   77.8285  217.4855 H   0  0  0  0  0  0  0  0  0  0  0  0
  142.9219   77.4554  217.0064 H   0  0  0  0  0  0  0  0  0  0  0  0
  142.2992   78.5082  218.3496 H   0  0  0  0  0  0  0  0  0  0  0  0
  144.2115   76.6041  218.6828 H   0  0  0  0  0  0  0  0  0  0  0  0
  143.1002   77.1377  219.9717 H   0  0  0  0  0  0  0  0  0  0  0  0
  142.2348   74.7569  218.0765 H   0  0  0  0  0  0  0  0  0  0  0  0
  143.9806   74.1259  218.3218 H   0  0  0  0  0  0  0  0  0  0  0  0
  142.0472   72.7297  219.5905 H   0  0  0  0  0  0  0  0  0  0  0  0
  143.5446   72.2049  218.7245 H   0  0  0  0  0  0  0  0  0  0  0  0
  143.3079   72.8973  221.6900 H   0  0  0  0  0  0  0  0  0  0  0  0
  143.4911   71.2398  220.9424 H   0  0  0  0  0  0  0  0  0  0  0  0
  145.6970   71.6580  220.5030 H   0  0  0  0  0  0  0  0  0  0  0  0
  146.1855   74.1097  221.4819 H   0  0  0  0  0  0  0  0  0  0  0  0
  146.1272   73.7313  219.7021 H   0  0  0  0  0  0  0  0  0  0  0  0
  143.8026   74.7168  221.3955 H   0  0  0  0  0  0  0  0  0  0  0  0
  144.7755   75.6987  220.2412 H   0  0  0  0  0  0  0  0  0  0  0  0
  138.3161   69.3796  222.4131 H   0  0  0  0  0  0  0  0  0  0  0  0
  138.7707   67.8810  224.3656 H   0  0  0  0  0  0  0  0  0  0  0  0
  139.6866   67.5303  226.5837 H   0  0  0  0  0  0  0  0  0  0  0  0
  141.5798   70.8124  228.6134 H   0  0  0  0  0  0  0  0  0  0  0  0
  141.1410   72.3181  226.6897 H   0  0  0  0  0  0  0  0  0  0  0  0
  1  2  2  0
  2  3  1  0
  3  4  1  0
  4  5  1  0
  5  6  2  0
  5  7  1  0
  7  8  1  0
  8  9  1  0
  9 10  1  0
 10 11  1  0
 11 12  1  0
 12 13  1  0
 13 14  1  0
 14 15  1  0
 15 16  1  0
 16 17  1  0
 17 18  1  0
  2 19  1  0
 19 20  2  0
 20 21  1  0
 21 22  2  0
 22 23  1  0
 23 24  2  0
 24 25  1  0
 24 26  1  0
 26 27  2  0
 27 28  1  0
 28 29  2  0
 12  7  1  0
 18 13  1  0
 29 19  1  0
 28 22  1  0
  3 30  1  0
  4 31  1  0
  4 32  1  0
  8 33  1  0
  8 34  1  0
  9 35  1  0
  9 36  1  0
 10 37  1  0
 10 38  1  0
 11 39  1  0
 11 40  1  0
 12 41  1  6
 13 42  1  0
 14 43  1  0
 14 44  1  0
 15 45  1  0
 15 46  1  0
 16 47  1  0
 17 48  1  0
 17 49  1  0
 18 50  1  0
 18 51  1  0
 20 52  1  0
 21 53  1  0
 23 54  1  0
 26 55  1  0
 27 56  1  0
M  END
>  <smiles>  (88) 
O=C(NCC(=O)N1CCCCC1C1CCNCC1)c1ccc2cc(Cl)ccc2n1

>  <score_type>  (88) 
oracle

>  <origin>  (88) 
autodockgpu

>  <m_score__min__energy>  (88) 
-9.1699999999999999

>  <m_primary>  (88) 
energy

>  <rmsd>  (88) 
1.7309360470514301

>  <m_score__min__rmsd>  (88) 
1.7309360470514301

>  <meeko>  (88) 
{"free_energy": -7.66, "intermolecular_energy": -9.15, "internal_energy": -2.17, "cluster_size": 18, "cluster_id": 3, "rank_in_cluster": 18}

>  <energy>  (88) 
-7.95

>  <cluster_rmsd>  (88) 
0.76

>  <cluster>  (88) 
3

$$$$

     RDKit          3D

 56 59  0  0  0  0  0  0  0  0999 V2000
  139.1580   71.3860  220.7980 O   0  0  0  0  0  0  0  0  0  0  0  0
  139.4210   71.8380  221.9370 C   0  0  0  0  0  0  0  0  0  0  0  0
  139.5770   73.2350  222.0950 N   0  0  0  0  0  0  0  0  0  0  0  0
  139.4450   74.1830  220.9970 C   0  0  0  0  0  0  0  0  0  0  0  0
  140.5790   75.1110  220.9290 C   0  0  0  0  0  0  0  0  0  0  0  0
  141.0560   75.4480  222.0960 O   0  0  0  0  0  0  0  0  0  0  0  0
  141.2230   75.6840  219.8480 N   0  0  0  0  0  0  0  0  0  0  0  0
  140.3970   76.7930  219.2140 C   0  0  0  0  0  0  0  0  0  0  0  0
  141.1650   77.4700  218.1370 C   0  0  0  0  0  0  0  0  0  0  0  0
  142.5810   77.8130  218.4660 C   0  0  0  0  0  0  0  0  0  0  0  0
  143.2140   76.7960  219.3890 C   0  0  0  0  0  0  0  0  0  0  0  0
  142.4490   75.4560  219.2130 C   0  0  1  0  0  0  0  0  0  0  0  0
  143.3000   74.3000  219.4000 C   0  0  0  0  0  0  0  0  0  0  0  0
  142.7750   72.9560  219.6640 C   0  0  0  0  0  0  0  0  0  0  0  0
  143.4230   72.3490  220.9130 C   0  0  0  0  0  0  0  0  0  0  0  0
  144.8440   72.2620  220.8340 N   0  0  0  0  0  0  0  0  0  0  0  0
  145.3990   73.5320  220.5220 C   0  0  0  0  0  0  0  0  0  0  0  0
  144.3550   74.6290  220.4670 C   0  0  0  0  0  0  0  0  0  0  0  0
  139.5720   70.9520  223.1130 C   0  0  0  0  0  0  0  0  0  0  0  0
  139.1160   69.6530  223.0520 C   0  0  0  0  0  0  0  0  0  0  0  0
  139.2800   68.8660  224.1870 C   0  0  0  0  0  0  0  0  0  0  0  0
  139.8780   69.3690  225.3340 C   0  0  0  0  0  0  0  0  0  0  0  0
  140.0370   68.5800  226.4620 C   0  0  0  0  0  0  0  0  0  0  0  0
  140.6380   69.1140  227.5900 C   0  0  0  0  0  0  0  0  0  0  0  0
  140.8600   68.1640  229.0300 Cl  0  0  0  0  0  0  0  0  0  0  0  0
  141.0730   70.4300  227.5800 C   0  0  0  0  0  0  0  0  0  0  0  0
  140.9290   71.2390  226.4750 C   0  0  0  0  0  0  0  0  0  0  0  0
  140.3280   70.6880  225.3600 C   0  0  0  0  0  0  0  0  0  0  0  0
  140.1460   71.4020  224.2430 N   0  0  0  0  0  0  0  0  0  0  0  0
  139.8020   73.5690  223.0820 H   0  0  0  0  0  0  0  0  0  0  0  0
  139.3869   73.6243  220.0512 H   0  0  0  0  0  0  0  0  0  0  0  0
  138.5335   74.7744  221.1682 H   0  0  0  0  0  0  0  0  0  0  0  0
  139.4800   76.3610  218.7867 H   0  0  0  0  0  0  0  0  0  0  0  0
  140.1456   77.5332  219.9879 H   0  0  0  0  0  0  0  0  0  0  0  0
  141.1735   76.8061  217.2600 H   0  0  0  0  0  0  0  0  0  0  0  0
  140.6568   78.4304  217.9659 H   0  0  0  0  0  0  0  0  0  0  0  0
  143.1617   77.8546  217.5327 H   0  0  0  0  0  0  0  0  0  0  0  0
  142.5827   78.7848  218.9814 H   0  0  0  0  0  0  0  0  0  0  0  0
  144.2733   76.6597  219.1258 H   0  0  0  0  0  0  0  0  0  0  0  0
  143.1578   77.1368  220.4334 H   0  0  0  0  0  0  0  0  0  0  0  0
  142.1534   75.1273  218.2057 H   0  0  0  0  0  0  0  0  0  0  0  0
  143.6584   74.1665  218.3686 H   0  0  0  0  0  0  0  0  0  0  0  0
  141.6875   73.0183  219.8171 H   0  0  0  0  0  0  0  0  0  0  0  0
  143.0065   72.3136  218.8016 H   0  0  0  0  0  0  0  0  0  0  0  0
  143.1605   72.9738  221.7795 H   0  0  0  0  0  0  0  0  0  0  0  0
  143.0417   71.3215  221.0071 H   0  0  0  0  0  0  0  0  0  0  0  0
  145.2300   71.4470  220.3510 H   0  0  0  0  0  0  0  0  0  0  0  0
  146.1409   73.7906  221.2919 H   0  0  0  0  0  0  0  0  0  0  0  0
  145.8566   73.4586  219.5244 H   0  0  0  0  0  0  0  0  0  0  0  0
  143.8655   74.7151  221.4483 H   0  0  0  0  0  0  0  0  0  0  0  0
  144.8445   75.5795  220.2085 H   0  0  0  0  0  0  0  0  0  0  0  0
  138.6417   69.2548  222.1429 H   0  0  0  0  0  0  0  0  0  0  0  0
  138.9286   67.8237  224.1753 H   0  0  0  0  0  0  0  0  0  0  0  0
  139.6883   67.5367  226.4617 H   0  0  0  0  0  0  0  0  0  0  0  0
  141.5481   70.8410  228.4830 H   0  0  0  0  0  0  0  0  0  0  0  0
  141.2785   72.2820  226.4800 H   0  0  0  0  0  0  0  0  0  0  0  0
  1  2  2  0
  2  3  1  0
  3  4  1  0
  4  5  1  0
  5  6  2  0
  5  7  1  0
  7  8  1  0
  8  9  1  0
  9 10  1  0
 10 11  1  0
 11 12  1  0
 12 13  1  0
 13 14  1  0
 14 15  1  0
 15 16  1  0
 16 17  1  0
 17 18  1  0
  2 19  1  0
 19 20  2  0
 20 21  1  0
 21 22  2  0
 22 23  1  0
 23 24  2  0
 24 25  1  0
 24 26  1  0
 26 27  2  0
 27 28  1  0
 28 29  2  0
 12  7  1  0
 18 13  1  0
 29 19  1  0
 28 22  1  0
  3 30  1  0
  4 31  1  0
  4 32  1  0
  8 33  1  0
  8 34  1  0
  9 35  1  0
  9 36  1  0
 10 37  1  0
 10 38  1  0
 11 39  1  0
 11 40  1  0
 12 41  1  6
 13 42  1  0
 14 43  1  0
 14 44  1  0
 15 45  1  0
 15 46  1  0
 16 47  1  0
 17 48  1  0
 17 49  1  0
 18 50  1  0
 18 51  1  0
 20 52  1  0
 21 53  1  0
 23 54  1  0
 26 55  1  0
 27 56  1  0
M  END
>  <smiles>  (89) 
O=C(NCC(=O)N1CCCCC1C1CCNCC1)c1ccc2cc(Cl)ccc2n1

>  <score_type>  (89) 
oracle

>  <origin>  (89) 
autodockgpu

>  <m_score__min__energy>  (89) 
-9.1699999999999999

>  <m_primary>  (89) 
energy

>  <rmsd>  (89) 
1.7871274892236584

>  <m_score__min__rmsd>  (89) 
1.7871274892236584

>  <meeko>  (89) 
{"free_energy": -7.95, "intermolecular_energy": -9.44, "internal_energy": -2.19, "cluster_size": 18, "cluster_id": 3, "rank_in_cluster": 16}

>  <energy>  (89) 
-7.75

>  <cluster_rmsd>  (89) 
1.5

>  <cluster>  (89) 
3

$$$$

     RDKit          3D

 56 59  0  0  0  0  0  0  0  0999 V2000
  140.6850   81.6430  218.8350 O   0  0  0  0  0  0  0  0  0  0  0  0
  140.2800   80.5790  219.3600 C   0  0  0  0  0  0  0  0  0  0  0  0
  138.9960   80.5580  219.9520 N   0  0  0  0  0  0  0  0  0  0  0  0
  138.1120   81.7160  219.9840 C   0  0  0  0  0  0  0  0  0  0  0  0
  138.2100   82.4530  221.2480 C   0  0  0  0  0  0  0  0  0  0  0  0
  138.3290   83.7440  221.0990 O   0  0  0  0  0  0  0  0  0  0  0  0
  138.1990   82.0160  222.5590 N   0  0  0  0  0  0  0  0  0  0  0  0
  137.2020   82.7870  223.4100 C   0  0  0  0  0  0  0  0  0  0  0  0
  137.1240   82.2140  224.7790 C   0  0  0  0  0  0  0  0  0  0  0  0
  137.0370   80.7260  224.8550 C   0  0  0  0  0  0  0  0  0  0  0  0
  137.8080   80.0510  223.7430 C   0  0  0  0  0  0  0  0  0  0  0  0
  138.9080   81.0370  223.2650 C   0  0  1  0  0  0  0  0  0  0  0  0
  140.1030   80.3590  222.8080 C   0  0  0  0  0  0  0  0  0  0  0  0
  140.4380   78.9840  223.1940 C   0  0  0  0  0  0  0  0  0  0  0  0
  141.8580   78.9040  223.7670 C   0  0  0  0  0  0  0  0  0  0  0  0
  142.8620   79.3700  222.8680 N   0  0  0  0  0  0  0  0  0  0  0  0
  142.5520   80.6820  222.4180 C   0  0  0  0  0  0  0  0  0  0  0  0
  141.3190   81.2540  223.0890 C   0  0  0  0  0  0  0  0  0  0  0  0
  141.1070   79.3510  219.3750 C   0  0  0  0  0  0  0  0  0  0  0  0
  142.2040   79.2580  218.5470 C   0  0  0  0  0  0  0  0  0  0  0  0
  142.9440   78.0800  218.5990 C   0  0  0  0  0  0  0  0  0  0  0  0
  142.5900   77.0430  219.4510 C   0  0  0  0  0  0  0  0  0  0  0  0
  143.3300   75.8730  219.4970 C   0  0  0  0  0  0  0  0  0  0  0  0
  142.9480   74.8570  220.3580 C   0  0  0  0  0  0  0  0  0  0  0  0
  143.8440   73.3690  220.4520 Cl  0  0  0  0  0  0  0  0  0  0  0  0
  141.8320   75.0210  221.1630 C   0  0  0  0  0  0  0  0  0  0  0  0
  141.0760   76.1720  221.1400 C   0  0  0  0  0  0  0  0  0  0  0  0
  141.4730   77.1730  220.2750 C   0  0  0  0  0  0  0  0  0  0  0  0
  140.7970   78.3250  220.1860 N   0  0  0  0  0  0  0  0  0  0  0  0
  138.6990   79.6320  220.3870 H   0  0  0  0  0  0  0  0  0  0  0  0
  138.3823   82.3909  219.1585 H   0  0  0  0  0  0  0  0  0  0  0  0
  137.0780   81.3544  219.8832 H   0  0  0  0  0  0  0  0  0  0  0  0
  137.5207   83.8377  223.4763 H   0  0  0  0  0  0  0  0  0  0  0  0
  136.2094   82.7174  222.9411 H   0  0  0  0  0  0  0  0  0  0  0  0
  138.0237   82.5282  225.3284 H   0  0  0  0  0  0  0  0  0  0  0  0
  136.1840   82.5911  225.2082 H   0  0  0  0  0  0  0  0  0  0  0  0
  137.4468   80.3961  225.8210 H   0  0  0  0  0  0  0  0  0  0  0  0
  135.9788   80.4440  224.7516 H   0  0  0  0  0  0  0  0  0  0  0  0
  138.2709   79.1256  224.1163 H   0  0  0  0  0  0  0  0  0  0  0  0
  137.1364   79.7906  222.9116 H   0  0  0  0  0  0  0  0  0  0  0  0
  139.4722   81.6218  224.0064 H   0  0  0  0  0  0  0  0  0  0  0  0
  139.8332   80.2016  221.7533 H   0  0  0  0  0  0  0  0  0  0  0  0
  139.7229   78.6400  223.9558 H   0  0  0  0  0  0  0  0  0  0  0  0
  140.3849   78.3463  222.2993 H   0  0  0  0  0  0  0  0  0  0  0  0
  141.8992   79.5141  224.6813 H   0  0  0  0  0  0  0  0  0  0  0  0
  142.0678   77.8423  223.9636 H   0  0  0  0  0  0  0  0  0  0  0  0
  143.2050   78.7030  222.1730 H   0  0  0  0  0  0  0  0  0  0  0  0
  143.4071   81.3394  222.6338 H   0  0  0  0  0  0  0  0  0  0  0  0
  142.3464   80.6235  221.3390 H   0  0  0  0  0  0  0  0  0  0  0  0
  141.4877   81.3085  224.1746 H   0  0  0  0  0  0  0  0  0  0  0  0
  141.1256   82.2605  222.6896 H   0  0  0  0  0  0  0  0  0  0  0  0
  142.4837   80.0807  217.8725 H   0  0  0  0  0  0  0  0  0  0  0  0
  143.8267   77.9688  217.9521 H   0  0  0  0  0  0  0  0  0  0  0  0
  144.2146   75.7514  218.8546 H   0  0  0  0  0  0  0  0  0  0  0  0
  141.5407   74.2060  221.8419 H   0  0  0  0  0  0  0  0  0  0  0  0
  140.1921   76.2893  221.7842 H   0  0  0  0  0  0  0  0  0  0  0  0
  1  2  2  0
  2  3  1  0
  3  4  1  0
  4  5  1  0
  5  6  2  0
  5  7  1  0
  7  8  1  0
  8  9  1  0
  9 10  1  0
 10 11  1  0
 11 12  1  0
 12 13  1  0
 13 14  1  0
 14 15  1  0
 15 16  1  0
 16 17  1  0
 17 18  1  0
  2 19  1  0
 19 20  2  0
 20 21  1  0
 21 22  2  0
 22 23  1  0
 23 24  2  0
 24 25  1  0
 24 26  1  0
 26 27  2  0
 27 28  1  0
 28 29  2  0
 12  7  1  0
 18 13  1  0
 29 19  1  0
 28 22  1  0
  3 30  1  0
  4 31  1  0
  4 32  1  0
  8 33  1  0
  8 34  1  0
  9 35  1  0
  9 36  1  0
 10 37  1  0
 10 38  1  0
 11 39  1  0
 11 40  1  0
 12 41  1  1
 13 42  1  0
 14 43  1  0
 14 44  1  0
 15 45  1  0
 15 46  1  0
 16 47  1  0
 17 48  1  0
 17 49  1  0
 18 50  1  0
 18 51  1  0
 20 52  1  0
 21 53  1  0
 23 54  1  0
 26 55  1  0
 27 56  1  0
M  END
>  <smiles>  (90) 
O=C(NCC(=O)N1CCCCC1C1CCNCC1)c1ccc2cc(Cl)ccc2n1

>  <score_type>  (90) 
oracle

>  <origin>  (90) 
autodockgpu

>  <m_score__min__energy>  (90) 
-9.1699999999999999

>  <m_primary>  (90) 
energy

>  <rmsd>  (90) 
9.199740050316175

>  <m_score__min__rmsd>  (90) 
9.199740050316175

>  <meeko>  (90) 
{"free_energy": -6.46, "intermolecular_energy": -7.95, "internal_energy": -2.99, "cluster_size": 5, "cluster_id": 8, "rank_in_cluster": 4}

>  <energy>  (90) 
-7.66

>  <cluster_rmsd>  (90) 
0.88

>  <cluster>  (90) 
3

$$$$

     RDKit          3D

 56 59  0  0  0  0  0  0  0  0999 V2000
  139.0740   72.1670  220.7910 O   0  0  0  0  0  0  0  0  0  0  0  0
  139.3060   72.5090  221.9750 C   0  0  0  0  0  0  0  0  0  0  0  0
  139.3570   73.8870  222.2870 N   0  0  0  0  0  0  0  0  0  0  0  0
  139.1530   74.9390  221.3000 C   0  0  0  0  0  0  0  0  0  0  0  0
  138.5480   76.1390  221.8870 C   0  0  0  0  0  0  0  0  0  0  0  0
  138.2240   76.0040  223.1440 O   0  0  0  0  0  0  0  0  0  0  0  0
  138.2650   77.3760  221.3410 N   0  0  0  0  0  0  0  0  0  0  0  0
  136.8710   77.4280  220.7360 C   0  0  0  0  0  0  0  0  0  0  0  0
  136.5500   78.8020  220.2690 C   0  0  0  0  0  0  0  0  0  0  0  0
  136.8960   79.9050  221.2140 C   0  0  0  0  0  0  0  0  0  0  0  0
  138.1380   79.5980  222.0210 C   0  0  0  0  0  0  0  0  0  0  0  0
  138.9820   78.5720  221.2160 C   0  0  1  0  0  0  0  0  0  0  0  0
  140.4050   78.7350  221.4270 C   0  0  0  0  0  0  0  0  0  0  0  0
  141.1540   77.9820  222.4400 C   0  0  0  0  0  0  0  0  0  0  0  0
  141.9570   78.9240  223.3430 C   0  0  0  0  0  0  0  0  0  0  0  0
  142.8780   79.7480  222.6310 N   0  0  0  0  0  0  0  0  0  0  0  0
  142.2100   80.4570  221.5970 C   0  0  0  0  0  0  0  0  0  0  0  0
  140.7120   80.2300  221.6060 C   0  0  0  0  0  0  0  0  0  0  0  0
  139.5230   71.5120  223.0470 C   0  0  0  0  0  0  0  0  0  0  0  0
  139.1810   70.1940  222.8330 C   0  0  0  0  0  0  0  0  0  0  0  0
  139.4040   69.3000  223.8760 C   0  0  0  0  0  0  0  0  0  0  0  0
  139.9490   69.7200  225.0810 C   0  0  0  0  0  0  0  0  0  0  0  0
  140.1670   68.8250  226.1160 C   0  0  0  0  0  0  0  0  0  0  0  0
  140.7120   69.2770  227.3070 C   0  0  0  0  0  0  0  0  0  0  0  0
  141.0040   68.1920  228.6350 Cl  0  0  0  0  0  0  0  0  0  0  0  0
  141.0330   70.6180  227.4510 C   0  0  0  0  0  0  0  0  0  0  0  0
  140.8280   71.5310  226.4410 C   0  0  0  0  0  0  0  0  0  0  0  0
  140.2840   71.0610  225.2620 C   0  0  0  0  0  0  0  0  0  0  0  0
  140.0490   71.8780  224.2290 N   0  0  0  0  0  0  0  0  0  0  0  0
  139.5590   74.1260  223.3060 H   0  0  0  0  0  0  0  0  0  0  0  0
  140.1261   75.2097  220.8644 H   0  0  0  0  0  0  0  0  0  0  0  0
  138.4646   74.5541  220.5333 H   0  0  0  0  0  0  0  0  0  0  0  0
  136.8223   76.7362  219.8822 H   0  0  0  0  0  0  0  0  0  0  0  0
  136.1411   77.1374  221.5059 H   0  0  0  0  0  0  0  0  0  0  0  0
  137.0975   78.9766  219.3310 H   0  0  0  0  0  0  0  0  0  0  0  0
  135.4559   78.8333  220.1597 H   0  0  0  0  0  0  0  0  0  0  0  0
  137.0674   80.8254  220.6365 H   0  0  0  0  0  0  0  0  0  0  0  0
  136.0577   80.0231  221.9164 H   0  0  0  0  0  0  0  0  0  0  0  0
  138.7188   80.5186  222.1797 H   0  0  0  0  0  0  0  0  0  0  0  0
  137.8668   79.1868  223.0045 H   0  0  0  0  0  0  0  0  0  0  0  0
  139.0869   78.6893  220.1273 H   0  0  0  0  0  0  0  0  0  0  0  0
  140.7825   78.2544  220.5124 H   0  0  0  0  0  0  0  0  0  0  0  0
  140.4470   77.4081  223.0572 H   0  0  0  0  0  0  0  0  0  0  0  0
  141.8547   77.3067  221.9272 H   0  0  0  0  0  0  0  0  0  0  0  0
  141.2522   79.5747  223.8815 H   0  0  0  0  0  0  0  0  0  0  0  0
  142.5472   78.2935  224.0242 H   0  0  0  0  0  0  0  0  0  0  0  0
  143.7880   79.3360  222.4080 H   0  0  0  0  0  0  0  0  0  0  0  0
  142.4038   81.5321  221.7255 H   0  0  0  0  0  0  0  0  0  0  0  0
  142.5966   80.0860  220.6363 H   0  0  0  0  0  0  0  0  0  0  0  0
  140.2973   80.5746  222.5648 H   0  0  0  0  0  0  0  0  0  0  0  0
  140.2568   80.7934  220.7781 H   0  0  0  0  0  0  0  0  0  0  0  0
  138.7495   69.8624  221.8770 H   0  0  0  0  0  0  0  0  0  0  0  0
  139.1431   68.2397  223.7426 H   0  0  0  0  0  0  0  0  0  0  0  0
  139.9091   67.7627  225.9930 H   0  0  0  0  0  0  0  0  0  0  0  0
  141.4650   70.9634  228.4019 H   0  0  0  0  0  0  0  0  0  0  0  0
  141.0872   72.5924  226.5682 H   0  0  0  0  0  0  0  0  0  0  0  0
  1  2  2  0
  2  3  1  0
  3  4  1  0
  4  5  1  0
  5  6  2  0
  5  7  1  0
  7  8  1  0
  8  9  1  0
  9 10  1  0
 10 11  1  0
 11 12  1  0
 12 13  1  0
 13 14  1  0
 14 15  1  0
 15 16  1  0
 16 17  1  0
 17 18  1  0
  2 19  1  0
 19 20  2  0
 20 21  1  0
 21 22  2  0
 22 23  1  0
 23 24  2  0
 24 25  1  0
 24 26  1  0
 26 27  2  0
 27 28  1  0
 28 29  2  0
 12  7  1  0
 18 13  1  0
 29 19  1  0
 28 22  1  0
  3 30  1  0
  4 31  1  0
  4 32  1  0
  8 33  1  0
  8 34  1  0
  9 35  1  0
  9 36  1  0
 10 37  1  0
 10 38  1  0
 11 39  1  0
 11 40  1  0
 12 41  1  6
 13 42  1  0
 14 43  1  0
 14 44  1  0
 15 45  1  0
 15 46  1  0
 16 47  1  0
 17 48  1  0
 17 49  1  0
 18 50  1  0
 18 51  1  0
 20 52  1  0
 21 53  1  0
 23 54  1  0
 26 55  1  0
 27 56  1  0
M  END
>  <smiles>  (91) 
O=C(NCC(=O)N1CCCCC1C1CCNCC1)c1ccc2cc(Cl)ccc2n1

>  <score_type>  (91) 
oracle

>  <origin>  (91) 
autodockgpu

>  <m_score__min__energy>  (91) 
-9.1699999999999999

>  <m_primary>  (91) 
energy

>  <rmsd>  (91) 
2.991329063783601

>  <m_score__min__rmsd>  (91) 
2.991329063783601

>  <meeko>  (91) 
{"free_energy": -8.03, "intermolecular_energy": -9.52, "internal_energy": -1.98, "cluster_size": 18, "cluster_id": 1, "rank_in_cluster": 11}

>  <energy>  (91) 
-8.43

>  <cluster_rmsd>  (91) 
0.0

>  <cluster>  (91) 
4

$$$$

     RDKit          3D

 56 59  0  0  0  0  0  0  0  0999 V2000
  139.8430   71.7220  220.8300 O   0  0  0  0  0  0  0  0  0  0  0  0
  139.7700   72.1200  222.0160 C   0  0  0  0  0  0  0  0  0  0  0  0
  139.6080   73.5030  222.2610 N   0  0  0  0  0  0  0  0  0  0  0  0
  139.5190   74.4980  221.2000 C   0  0  0  0  0  0  0  0  0  0  0  0
  140.8090   75.1470  220.9420 C   0  0  0  0  0  0  0  0  0  0  0  0
  141.4340   75.5280  222.0220 O   0  0  0  0  0  0  0  0  0  0  0  0
  141.4690   75.4210  219.7590 N   0  0  0  0  0  0  0  0  0  0  0  0
  140.6610   76.3390  218.8540 C   0  0  0  0  0  0  0  0  0  0  0  0
  141.4460   76.7140  217.6490 C   0  0  0  0  0  0  0  0  0  0  0  0
  142.8620   77.1190  217.8980 C   0  0  0  0  0  0  0  0  0  0  0  0
  143.4760   76.3650  219.0570 C   0  0  0  0  0  0  0  0  0  0  0  0
  142.6990   75.0310  219.2170 C   0  0  1  0  0  0  0  0  0  0  0  0
  143.5360   73.9540  219.7030 C   0  0  0  0  0  0  0  0  0  0  0  0
  144.4830   74.1160  220.8120 C   0  0  0  0  0  0  0  0  0  0  0  0
  145.8850   73.6450  220.4110 C   0  0  0  0  0  0  0  0  0  0  0  0
  145.9300   72.2850  219.9850 N   0  0  0  0  0  0  0  0  0  0  0  0
  144.9860   72.0620  218.9460 C   0  0  0  0  0  0  0  0  0  0  0  0
  144.2830   73.3320  218.5120 C   0  0  0  0  0  0  0  0  0  0  0  0
  139.8480   71.1830  223.1600 C   0  0  0  0  0  0  0  0  0  0  0  0
  139.4130   69.8840  223.0090 C   0  0  0  0  0  0  0  0  0  0  0  0
  139.5060   69.0480  224.1170 C   0  0  0  0  0  0  0  0  0  0  0  0
  140.0170   69.5040  225.3240 C   0  0  0  0  0  0  0  0  0  0  0  0
  140.1050   68.6660  226.4240 C   0  0  0  0  0  0  0  0  0  0  0  0
  140.6190   69.1540  227.6150 C   0  0  0  0  0  0  0  0  0  0  0  0
  140.7510   68.1420  229.0230 Cl  0  0  0  0  0  0  0  0  0  0  0  0
  141.0390   70.4730  227.6930 C   0  0  0  0  0  0  0  0  0  0  0  0
  140.9630   71.3300  226.6170 C   0  0  0  0  0  0  0  0  0  0  0  0
  140.4480   70.8240  225.4400 C   0  0  0  0  0  0  0  0  0  0  0  0
  140.3370   71.5860  224.3460 N   0  0  0  0  0  0  0  0  0  0  0  0
  139.5530   73.7900  223.2860 H   0  0  0  0  0  0  0  0  0  0  0  0
  139.1800   74.0036  220.2777 H   0  0  0  0  0  0  0  0  0  0  0  0
  138.8082   75.2734  221.5218 H   0  0  0  0  0  0  0  0  0  0  0  0
  139.7435   75.8199  218.5399 H   0  0  0  0  0  0  0  0  0  0  0  0
  140.4107   77.2537  219.4114 H   0  0  0  0  0  0  0  0  0  0  0  0
  141.4565   75.8487  216.9699 H   0  0  0  0  0  0  0  0  0  0  0  0
  140.9491   77.6025  217.2323 H   0  0  0  0  0  0  0  0  0  0  0  0
  143.4526   76.9182  216.9919 H   0  0  0  0  0  0  0  0  0  0  0  0
  142.8679   78.1897  218.1502 H   0  0  0  0  0  0  0  0  0  0  0  0
  144.5364   76.1584  218.8498 H   0  0  0  0  0  0  0  0  0  0  0  0
  143.4137   76.9601  219.9800 H   0  0  0  0  0  0  0  0  0  0  0  0
  142.4103   74.4612  218.3215 H   0  0  0  0  0  0  0  0  0  0  0  0
  142.7716   73.3329  220.1928 H   0  0  0  0  0  0  0  0  0  0  0  0
  144.5276   75.1782  221.0945 H   0  0  0  0  0  0  0  0  0  0  0  0
  144.1376   73.5056  221.6594 H   0  0  0  0  0  0  0  0  0  0  0  0
  146.2426   74.2796  219.5868 H   0  0  0  0  0  0  0  0  0  0  0  0
  146.5201   73.7241  221.3056 H   0  0  0  0  0  0  0  0  0  0  0  0
  146.0010   71.5740  220.7170 H   0  0  0  0  0  0  0  0  0  0  0  0
  145.5116   71.6367  218.0784 H   0  0  0  0  0  0  0  0  0  0  0  0
  144.2202   71.3747  219.3349 H   0  0  0  0  0  0  0  0  0  0  0  0
  145.0268   74.0489  218.1341 H   0  0  0  0  0  0  0  0  0  0  0  0
  143.5599   73.0910  217.7189 H   0  0  0  0  0  0  0  0  0  0  0  0
  139.0089   69.5231  222.0517 H   0  0  0  0  0  0  0  0  0  0  0  0
  139.1677   68.0045  224.0348 H   0  0  0  0  0  0  0  0  0  0  0  0
  139.7693   67.6209  226.3525 H   0  0  0  0  0  0  0  0  0  0  0  0
  141.4458   70.8471  228.6441 H   0  0  0  0  0  0  0  0  0  0  0  0
  141.2989   72.3747  226.6925 H   0  0  0  0  0  0  0  0  0  0  0  0
  1  2  2  0
  2  3  1  0
  3  4  1  0
  4  5  1  0
  5  6  2  0
  5  7  1  0
  7  8  1  0
  8  9  1  0
  9 10  1  0
 10 11  1  0
 11 12  1  0
 12 13  1  0
 13 14  1  0
 14 15  1  0
 15 16  1  0
 16 17  1  0
 17 18  1  0
  2 19  1  0
 19 20  2  0
 20 21  1  0
 21 22  2  0
 22 23  1  0
 23 24  2  0
 24 25  1  0
 24 26  1  0
 26 27  2  0
 27 28  1  0
 28 29  2  0
 12  7  1  0
 18 13  1  0
 29 19  1  0
 28 22  1  0
  3 30  1  0
  4 31  1  0
  4 32  1  0
  8 33  1  0
  8 34  1  0
  9 35  1  0
  9 36  1  0
 10 37  1  0
 10 38  1  0
 11 39  1  0
 11 40  1  0
 12 41  1  6
 13 42  1  0
 14 43  1  0
 14 44  1  0
 15 45  1  0
 15 46  1  0
 16 47  1  0
 17 48  1  0
 17 49  1  0
 18 50  1  0
 18 51  1  0
 20 52  1  0
 21 53  1  0
 23 54  1  0
 26 55  1  0
 27 56  1  0
M  END
>  <smiles>  (92) 
O=C(NCC(=O)N1CCCCC1C1CCNCC1)c1ccc2cc(Cl)ccc2n1

>  <score_type>  (92) 
oracle

>  <origin>  (92) 
autodockgpu

>  <m_score__min__energy>  (92) 
-9.1699999999999999

>  <m_primary>  (92) 
energy

>  <rmsd>  (92) 
1.8535111368066581

>  <m_score__min__rmsd>  (92) 
1.8535111368066581

>  <meeko>  (92) 
{"free_energy": -8.69, "intermolecular_energy": -10.18, "internal_energy": -1.7, "cluster_size": 18, "cluster_id": 3, "rank_in_cluster": 4}

>  <energy>  (92) 
-7.97

>  <cluster_rmsd>  (92) 
0.0

>  <cluster>  (92) 
5

$$$$

     RDKit          3D

 56 59  0  0  0  0  0  0  0  0999 V2000
  140.0280   72.7350  220.7660 O   0  0  0  0  0  0  0  0  0  0  0  0
  139.8410   73.0070  221.9750 C   0  0  0  0  0  0  0  0  0  0  0  0
  139.5560   74.3440  222.3360 N   0  0  0  0  0  0  0  0  0  0  0  0
  139.4670   75.4310  221.3700 C   0  0  0  0  0  0  0  0  0  0  0  0
  138.7840   76.6060  221.9220 C   0  0  0  0  0  0  0  0  0  0  0  0
  138.2500   76.4030  223.0950 O   0  0  0  0  0  0  0  0  0  0  0  0
  138.6100   77.8800  221.4150 N   0  0  0  0  0  0  0  0  0  0  0  0
  137.7370   77.8850  220.1690 C   0  0  0  0  0  0  0  0  0  0  0  0
  137.4670   79.2760  219.7210 C   0  0  0  0  0  0  0  0  0  0  0  0
  137.0840   80.2410  220.7940 C   0  0  0  0  0  0  0  0  0  0  0  0
  137.7710   79.9370  222.1070 C   0  0  0  0  0  0  0  0  0  0  0  0
  139.0700   79.1480  221.7890 C   0  0  1  0  0  0  0  0  0  0  0  0
  140.1330   79.4200  222.7340 C   0  0  0  0  0  0  0  0  0  0  0  0
  140.2090   80.6600  223.5150 C   0  0  0  0  0  0  0  0  0  0  0  0
  141.5790   81.3270  223.3560 C   0  0  0  0  0  0  0  0  0  0  0  0
  142.6680   80.4920  223.7430 N   0  0  0  0  0  0  0  0  0  0  0  0
  142.6070   79.2500  223.0530 C   0  0  0  0  0  0  0  0  0  0  0  0
  141.4840   79.2000  222.0370 C   0  0  0  0  0  0  0  0  0  0  0  0
  139.9090   71.9680  223.0280 C   0  0  0  0  0  0  0  0  0  0  0  0
  139.4810   70.6880  222.7520 C   0  0  0  0  0  0  0  0  0  0  0  0
  139.5640   69.7530  223.7790 C   0  0  0  0  0  0  0  0  0  0  0  0
  140.0590   70.0970  225.0290 C   0  0  0  0  0  0  0  0  0  0  0  0
  140.1380   69.1610  226.0480 C   0  0  0  0  0  0  0  0  0  0  0  0
  140.6360   69.5380  227.2850 C   0  0  0  0  0  0  0  0  0  0  0  0
  140.7550   68.4000  228.5950 Cl  0  0  0  0  0  0  0  0  0  0  0  0
  141.0490   70.8450  227.4900 C   0  0  0  0  0  0  0  0  0  0  0  0
  140.9830   71.7980  226.4980 C   0  0  0  0  0  0  0  0  0  0  0  0
  140.4840   71.4020  225.2730 C   0  0  0  0  0  0  0  0  0  0  0  0
  140.3820   72.2620  224.2520 N   0  0  0  0  0  0  0  0  0  0  0  0
  139.4080   74.5240  223.3760 H   0  0  0  0  0  0  0  0  0  0  0  0
  140.4842   75.7214  221.0682 H   0  0  0  0  0  0  0  0  0  0  0  0
  138.8822   75.0725  220.5100 H   0  0  0  0  0  0  0  0  0  0  0  0
  138.2531   77.3405  219.3645 H   0  0  0  0  0  0  0  0  0  0  0  0
  136.7795   77.3984  220.4067 H   0  0  0  0  0  0  0  0  0  0  0  0
  138.3770   79.6564  219.2339 H   0  0  0  0  0  0  0  0  0  0  0  0
  136.5958   79.2110  219.0525 H   0  0  0  0  0  0  0  0  0  0  0  0
  137.3637   81.2557  220.4744 H   0  0  0  0  0  0  0  0  0  0  0  0
  135.9988   80.1565  220.9529 H   0  0  0  0  0  0  0  0  0  0  0  0
  138.0197   80.8747  222.6255 H   0  0  0  0  0  0  0  0  0  0  0  0
  137.1112   79.3458  222.7590 H   0  0  0  0  0  0  0  0  0  0  0  0
  139.6937   79.4517  220.9353 H   0  0  0  0  0  0  0  0  0  0  0  0
  139.8602   78.7092  223.5280 H   0  0  0  0  0  0  0  0  0  0  0  0
  139.4291   81.3529  223.1663 H   0  0  0  0  0  0  0  0  0  0  0  0
  140.0603   80.4145  224.5769 H   0  0  0  0  0  0  0  0  0  0  0  0
  141.7109   81.6034  222.2995 H   0  0  0  0  0  0  0  0  0  0  0  0
  141.5910   82.2026  224.0217 H   0  0  0  0  0  0  0  0  0  0  0  0
  142.9000   80.4670  224.7390 H   0  0  0  0  0  0  0  0  0  0  0  0
  143.5617   79.0905  222.5304 H   0  0  0  0  0  0  0  0  0  0  0  0
  142.4154   78.4646  223.7989 H   0  0  0  0  0  0  0  0  0  0  0  0
  141.6382   79.9878  221.2849 H   0  0  0  0  0  0  0  0  0  0  0  0
  141.4820   78.2137  221.5500 H   0  0  0  0  0  0  0  0  0  0  0  0
  139.0897   70.4163  221.7605 H   0  0  0  0  0  0  0  0  0  0  0  0
  139.2307   68.7207  223.5965 H   0  0  0  0  0  0  0  0  0  0  0  0
  139.8077   68.1260  225.8761 H   0  0  0  0  0  0  0  0  0  0  0  0
  141.4422   71.1304  228.4769 H   0  0  0  0  0  0  0  0  0  0  0  0
  141.3142   72.8320  226.6743 H   0  0  0  0  0  0  0  0  0  0  0  0
  1  2  2  0
  2  3  1  0
  3  4  1  0
  4  5  1  0
  5  6  2  0
  5  7  1  0
  7  8  1  0
  8  9  1  0
  9 10  1  0
 10 11  1  0
 11 12  1  0
 12 13  1  0
 13 14  1  0
 14 15  1  0
 15 16  1  0
 16 17  1  0
 17 18  1  0
  2 19  1  0
 19 20  2  0
 20 21  1  0
 21 22  2  0
 22 23  1  0
 23 24  2  0
 24 25  1  0
 24 26  1  0
 26 27  2  0
 27 28  1  0
 28 29  2  0
 12  7  1  0
 18 13  1  0
 29 19  1  0
 28 22  1  0
  3 30  1  0
  4 31  1  0
  4 32  1  0
  8 33  1  0
  8 34  1  0
  9 35  1  0
  9 36  1  0
 10 37  1  0
 10 38  1  0
 11 39  1  0
 11 40  1  0
 12 41  1  6
 13 42  1  0
 14 43  1  0
 14 44  1  0
 15 45  1  0
 15 46  1  0
 16 47  1  0
 17 48  1  0
 17 49  1  0
 18 50  1  0
 18 51  1  0
 20 52  1  0
 21 53  1  0
 23 54  1  0
 26 55  1  0
 27 56  1  0
M  END
>  <smiles>  (93) 
O=C(NCC(=O)N1CCCCC1C1CCNCC1)c1ccc2cc(Cl)ccc2n1

>  <score_type>  (93) 
oracle

>  <origin>  (93) 
autodockgpu

>  <m_score__min__energy>  (93) 
-9.1699999999999999

>  <m_primary>  (93) 
energy

>  <rmsd>  (93) 
3.153170418652709

>  <m_score__min__rmsd>  (93) 
3.153170418652709

>  <meeko>  (93) 
{"free_energy": -7.9, "intermolecular_energy": -9.39, "internal_energy": -1.96, "cluster_size": 18, "cluster_id": 1, "rank_in_cluster": 15}

>  <energy>  (93) 
-7.62

>  <cluster_rmsd>  (93) 
0.61

>  <cluster>  (93) 
5

$$$$

     RDKit          3D

 56 59  0  0  0  0  0  0  0  0999 V2000
  138.5540   73.2740  221.4740 O   0  0  0  0  0  0  0  0  0  0  0  0
  139.6740   72.8970  221.8930 C   0  0  0  0  0  0  0  0  0  0  0  0
  140.8380   73.4580  221.3200 N   0  0  0  0  0  0  0  0  0  0  0  0
  140.8060   74.4590  220.2620 C   0  0  0  0  0  0  0  0  0  0  0  0
  142.0030   75.3070  220.2660 C   0  0  0  0  0  0  0  0  0  0  0  0
  143.0280   74.7700  220.8700 O   0  0  0  0  0  0  0  0  0  0  0  0
  142.2280   76.5670  219.7450 N   0  0  0  0  0  0  0  0  0  0  0  0
  142.8300   76.5090  218.3490 C   0  0  0  0  0  0  0  0  0  0  0  0
  142.9450   77.8720  217.7690 C   0  0  0  0  0  0  0  0  0  0  0  0
  141.7470   78.7490  217.9300 C   0  0  0  0  0  0  0  0  0  0  0  0
  141.0180   78.4860  219.2290 C   0  0  0  0  0  0  0  0  0  0  0  0
  142.0360   77.8680  220.2250 C   0  0  1  0  0  0  0  0  0  0  0  0
  141.7610   78.2330  221.5990 C   0  0  0  0  0  0  0  0  0  0  0  0
  140.5600   77.7950  222.3180 C   0  0  0  0  0  0  0  0  0  0  0  0
  139.8230   78.9880  222.9360 C   0  0  0  0  0  0  0  0  0  0  0  0
  140.6250   79.7490  223.8360 N   0  0  0  0  0  0  0  0  0  0  0  0
  141.8320   80.1510  223.2030 C   0  0  0  0  0  0  0  0  0  0  0  0
  141.8830   79.7580  221.7400 C   0  0  0  0  0  0  0  0  0  0  0  0
  139.8060   71.8870  222.9670 C   0  0  0  0  0  0  0  0  0  0  0  0
  139.4050   70.5900  222.7360 C   0  0  0  0  0  0  0  0  0  0  0  0
  139.5480   69.6830  223.7820 C   0  0  0  0  0  0  0  0  0  0  0  0
  140.0750   70.0700  225.0060 C   0  0  0  0  0  0  0  0  0  0  0  0
  140.2140   69.1620  226.0430 C   0  0  0  0  0  0  0  0  0  0  0  0
  140.7430   69.5830  227.2530 C   0  0  0  0  0  0  0  0  0  0  0  0
  140.9370   68.4810  228.5850 Cl  0  0  0  0  0  0  0  0  0  0  0  0
  141.1260   70.9050  227.4130 C   0  0  0  0  0  0  0  0  0  0  0  0
  141.0000   71.8310  226.4010 C   0  0  0  0  0  0  0  0  0  0  0  0
  140.4710   71.3920  225.2040 C   0  0  0  0  0  0  0  0  0  0  0  0
  140.3120   72.2230  224.1670 N   0  0  0  0  0  0  0  0  0  0  0  0
  141.7660   73.1040  221.7090 H   0  0  0  0  0  0  0  0  0  0  0  0
  140.7381   73.9464  219.2911 H   0  0  0  0  0  0  0  0  0  0  0  0
  139.9331   75.1057  220.4348 H   0  0  0  0  0  0  0  0  0  0  0  0
  143.8305   76.0553  218.4059 H   0  0  0  0  0  0  0  0  0  0  0  0
  142.1729   75.9054  217.7056 H   0  0  0  0  0  0  0  0  0  0  0  0
  143.7975   78.3731  218.2507 H   0  0  0  0  0  0  0  0  0  0  0  0
  143.0661   77.7268  216.6854 H   0  0  0  0  0  0  0  0  0  0  0  0
  142.0720   79.7997  217.9124 H   0  0  0  0  0  0  0  0  0  0  0  0
  141.0547   78.5307  217.1035 H   0  0  0  0  0  0  0  0  0  0  0  0
  140.6227   79.4291  219.6343 H   0  0  0  0  0  0  0  0  0  0  0  0
  140.1743   77.7996  219.0651 H   0  0  0  0  0  0  0  0  0  0  0  0
  143.0583   78.2708  220.2763 H   0  0  0  0  0  0  0  0  0  0  0  0
  142.5214   77.6215  222.1067 H   0  0  0  0  0  0  0  0  0  0  0  0
  139.8873   77.2817  221.6151 H   0  0  0  0  0  0  0  0  0  0  0  0
  140.8649   77.1147  223.1269 H   0  0  0  0  0  0  0  0  0  0  0  0
  139.4888   79.6496  222.1232 H   0  0  0  0  0  0  0  0  0  0  0  0
  138.9817   78.5823  223.5170 H   0  0  0  0  0  0  0  0  0  0  0  0
  140.6880   79.4090  224.7980 H   0  0  0  0  0  0  0  0  0  0  0  0
  141.9211   81.2449  223.2771 H   0  0  0  0  0  0  0  0  0  0  0  0
  142.6617   79.6404  223.7138 H   0  0  0  0  0  0  0  0  0  0  0  0
  141.0522   80.2406  221.2044 H   0  0  0  0  0  0  0  0  0  0  0  0
  142.8429   80.0837  221.3127 H   0  0  0  0  0  0  0  0  0  0  0  0
  138.9889   70.2835  221.7650 H   0  0  0  0  0  0  0  0  0  0  0  0
  139.2369   68.6381  223.6354 H   0  0  0  0  0  0  0  0  0  0  0  0
  139.9068   68.1145  225.9071 H   0  0  0  0  0  0  0  0  0  0  0  0
  141.5440   71.2252  228.3788 H   0  0  0  0  0  0  0  0  0  0  0  0
  141.3083   72.8776  226.5410 H   0  0  0  0  0  0  0  0  0  0  0  0
  1  2  2  0
  2  3  1  0
  3  4  1  0
  4  5  1  0
  5  6  2  0
  5  7  1  0
  7  8  1  0
  8  9  1  0
  9 10  1  0
 10 11  1  0
 11 12  1  0
 12 13  1  0
 13 14  1  0
 14 15  1  0
 15 16  1  0
 16 17  1  0
 17 18  1  0
  2 19  1  0
 19 20  2  0
 20 21  1  0
 21 22  2  0
 22 23  1  0
 23 24  2  0
 24 25  1  0
 24 26  1  0
 26 27  2  0
 27 28  1  0
 28 29  2  0
 12  7  1  0
 18 13  1  0
 29 19  1  0
 28 22  1  0
  3 30  1  0
  4 31  1  0
  4 32  1  0
  8 33  1  0
  8 34  1  0
  9 35  1  0
  9 36  1  0
 10 37  1  0
 10 38  1  0
 11 39  1  0
 11 40  1  0
 12 41  1  6
 13 42  1  0
 14 43  1  0
 14 44  1  0
 15 45  1  0
 15 46  1  0
 16 47  1  0
 17 48  1  0
 17 49  1  0
 18 50  1  0
 18 51  1  0
 20 52  1  0
 21 53  1  0
 23 54  1  0
 26 55  1  0
 27 56  1  0
M  END
>  <smiles>  (94) 
O=C(NCC(=O)N1CCCCC1C1CCNCC1)c1ccc2cc(Cl)ccc2n1

>  <score_type>  (94) 
oracle

>  <origin>  (94) 
autodockgpu

>  <m_score__min__energy>  (94) 
-9.1699999999999999

>  <m_primary>  (94) 
energy

>  <rmsd>  (94) 
2.4140466886904286

>  <m_score__min__rmsd>  (94) 
2.4140466886904286

>  <meeko>  (94) 
{"free_energy": -7.8, "intermolecular_energy": -9.3, "internal_energy": -1.84, "cluster_size": 18, "cluster_id": 1, "rank_in_cluster": 17}

>  <energy>  (94) 
-7.45

>  <cluster_rmsd>  (94) 
0.0

>  <cluster>  (94) 
6

$$$$

     RDKit          3D

 56 59  0  0  0  0  0  0  0  0999 V2000
  138.5770   71.4240  221.0340 O   0  0  0  0  0  0  0  0  0  0  0  0
  139.2230   71.8020  222.0390 C   0  0  0  0  0  0  0  0  0  0  0  0
  139.7680   73.1060  222.0470 N   0  0  0  0  0  0  0  0  0  0  0  0
  139.6160   74.0420  220.9410 C   0  0  0  0  0  0  0  0  0  0  0  0
  140.7410   74.9800  220.8520 C   0  0  0  0  0  0  0  0  0  0  0  0
  141.1210   75.4590  222.0050 O   0  0  0  0  0  0  0  0  0  0  0  0
  141.4600   75.4390  219.7650 N   0  0  0  0  0  0  0  0  0  0  0  0
  140.6870   76.4770  218.9650 C   0  0  0  0  0  0  0  0  0  0  0  0
  141.5310   77.0390  217.8790 C   0  0  0  0  0  0  0  0  0  0  0  0
  142.9230   77.4140  218.2670 C   0  0  0  0  0  0  0  0  0  0  0  0
  143.4860   76.4980  219.3300 C   0  0  0  0  0  0  0  0  0  0  0  0
  142.7250   75.1470  219.2410 C   0  0  1  0  0  0  0  0  0  0  0  0
  143.5540   74.0160  219.6030 C   0  0  0  0  0  0  0  0  0  0  0  0
  144.3940   73.9950  220.8050 C   0  0  0  0  0  0  0  0  0  0  0  0
  145.8410   73.6290  220.4580 C   0  0  0  0  0  0  0  0  0  0  0  0
  145.9690   72.3680  219.8050 N   0  0  0  0  0  0  0  0  0  0  0  0
  145.1270   72.3160  218.6610 C   0  0  0  0  0  0  0  0  0  0  0  0
  144.4210   73.6300  218.3950 C   0  0  0  0  0  0  0  0  0  0  0  0
  139.4280   70.9210  223.2120 C   0  0  0  0  0  0  0  0  0  0  0  0
  138.9820   69.6180  223.1730 C   0  0  0  0  0  0  0  0  0  0  0  0
  139.1980   68.8370  224.3040 C   0  0  0  0  0  0  0  0  0  0  0  0
  139.8360   69.3500  225.4240 C   0  0  0  0  0  0  0  0  0  0  0  0
  140.0460   68.5660  226.5470 C   0  0  0  0  0  0  0  0  0  0  0  0
  140.6860   69.1100  227.6500 C   0  0  0  0  0  0  0  0  0  0  0  0
  140.9730   68.1680  229.0830 Cl  0  0  0  0  0  0  0  0  0  0  0  0
  141.1080   70.4300  227.6180 C   0  0  0  0  0  0  0  0  0  0  0  0
  140.9130   71.2340  226.5160 C   0  0  0  0  0  0  0  0  0  0  0  0
  140.2740   70.6730  225.4280 C   0  0  0  0  0  0  0  0  0  0  0  0
  140.0420   71.3810  224.3160 N   0  0  0  0  0  0  0  0  0  0  0  0
  140.3110   73.3790  222.9230 H   0  0  0  0  0  0  0  0  0  0  0  0
  139.5533   73.4734  220.0014 H   0  0  0  0  0  0  0  0  0  0  0  0
  138.7009   74.6268  221.1160 H   0  0  0  0  0  0  0  0  0  0  0  0
  139.7980   76.0034  218.5229 H   0  0  0  0  0  0  0  0  0  0  0  0
  140.3892   77.2933  219.6396 H   0  0  0  0  0  0  0  0  0  0  0  0
  141.5945   76.2880  217.0778 H   0  0  0  0  0  0  0  0  0  0  0  0
  141.0423   77.9765  217.5752 H   0  0  0  0  0  0  0  0  0  0  0  0
  143.5659   77.3599  217.3760 H   0  0  0  0  0  0  0  0  0  0  0  0
  142.8956   78.4333  218.6796 H   0  0  0  0  0  0  0  0  0  0  0  0
  144.5596   76.3355  219.1541 H   0  0  0  0  0  0  0  0  0  0  0  0
  143.3627   76.9444  220.3278 H   0  0  0  0  0  0  0  0  0  0  0  0
  142.4953   74.7167  218.2551 H   0  0  0  0  0  0  0  0  0  0  0  0
  142.7723   73.3026  219.9030 H   0  0  0  0  0  0  0  0  0  0  0  0
  144.3771   74.9904  221.2730 H   0  0  0  0  0  0  0  0  0  0  0  0
  143.9972   73.2371  221.4964 H   0  0  0  0  0  0  0  0  0  0  0  0
  146.2472   74.4070  219.7949 H   0  0  0  0  0  0  0  0  0  0  0  0
  146.3929   73.5588  221.4070 H   0  0  0  0  0  0  0  0  0  0  0  0
  146.0010   71.5390  220.4040 H   0  0  0  0  0  0  0  0  0  0  0  0
  145.7402   72.0620  217.7838 H   0  0  0  0  0  0  0  0  0  0  0  0
  144.3547   71.5561  218.8509 H   0  0  0  0  0  0  0  0  0  0  0  0
  145.1697   74.4162  218.2182 H   0  0  0  0  0  0  0  0  0  0  0  0
  143.7775   73.5208  217.5096 H   0  0  0  0  0  0  0  0  0  0  0  0
  138.4761   69.2120  222.2846 H   0  0  0  0  0  0  0  0  0  0  0  0
  138.8560   67.7915  224.3103 H   0  0  0  0  0  0  0  0  0  0  0  0
  139.7074   67.5195  226.5633 H   0  0  0  0  0  0  0  0  0  0  0  0
  141.6145   70.8489  228.5001 H   0  0  0  0  0  0  0  0  0  0  0  0
  141.2526   72.2802  226.5035 H   0  0  0  0  0  0  0  0  0  0  0  0
  1  2  2  0
  2  3  1  0
  3  4  1  0
  4  5  1  0
  5  6  2  0
  5  7  1  0
  7  8  1  0
  8  9  1  0
  9 10  1  0
 10 11  1  0
 11 12  1  0
 12 13  1  0
 13 14  1  0
 14 15  1  0
 15 16  1  0
 16 17  1  0
 17 18  1  0
  2 19  1  0
 19 20  2  0
 20 21  1  0
 21 22  2  0
 22 23  1  0
 23 24  2  0
 24 25  1  0
 24 26  1  0
 26 27  2  0
 27 28  1  0
 28 29  2  0
 12  7  1  0
 18 13  1  0
 29 19  1  0
 28 22  1  0
  3 30  1  0
  4 31  1  0
  4 32  1  0
  8 33  1  0
  8 34  1  0
  9 35  1  0
  9 36  1  0
 10 37  1  0
 10 38  1  0
 11 39  1  0
 11 40  1  0
 12 41  1  6
 13 42  1  0
 14 43  1  0
 14 44  1  0
 15 45  1  0
 15 46  1  0
 16 47  1  0
 17 48  1  0
 17 49  1  0
 18 50  1  0
 18 51  1  0
 20 52  1  0
 21 53  1  0
 23 54  1  0
 26 55  1  0
 27 56  1  0
M  END
>  <smiles>  (95) 
O=C(NCC(=O)N1CCCCC1C1CCNCC1)c1ccc2cc(Cl)ccc2n1

>  <score_type>  (95) 
oracle

>  <origin>  (95) 
autodockgpu

>  <m_score__min__energy>  (95) 
-9.1699999999999999

>  <m_primary>  (95) 
energy

>  <rmsd>  (95) 
1.8538613310366896

>  <m_score__min__rmsd>  (95) 
1.8538613310366896

>  <meeko>  (95) 
{"free_energy": -8.4, "intermolecular_energy": -9.89, "internal_energy": -1.94, "cluster_size": 18, "cluster_id": 3, "rank_in_cluster": 11}

>  <energy>  (95) 
-7.33

>  <cluster_rmsd>  (95) 
0.0

>  <cluster>  (95) 
7

$$$$

     RDKit          3D

 56 59  0  0  0  0  0  0  0  0999 V2000
  140.0330   72.5650  220.7440 O   0  0  0  0  0  0  0  0  0  0  0  0
  139.8780   72.8860  221.9460 C   0  0  0  0  0  0  0  0  0  0  0  0
  139.6520   74.2450  222.2630 N   0  0  0  0  0  0  0  0  0  0  0  0
  139.5870   75.3010  221.2610 C   0  0  0  0  0  0  0  0  0  0  0  0
  140.6140   76.3270  221.4720 C   0  0  0  0  0  0  0  0  0  0  0  0
  140.7630   76.6750  222.7200 O   0  0  0  0  0  0  0  0  0  0  0  0
  141.4430   76.9810  220.5810 N   0  0  0  0  0  0  0  0  0  0  0  0
  142.0470   76.0310  219.5580 C   0  0  0  0  0  0  0  0  0  0  0  0
  142.8320   76.7810  218.5420 C   0  0  0  0  0  0  0  0  0  0  0  0
  142.1790   78.0070  217.9930 C   0  0  0  0  0  0  0  0  0  0  0  0
  141.3200   78.7060  219.0230 C   0  0  0  0  0  0  0  0  0  0  0  0
  141.8510   78.3120  220.4280 C   0  0  1  0  0  0  0  0  0  0  0  0
  141.6820   79.3690  221.4030 C   0  0  0  0  0  0  0  0  0  0  0  0
  142.4140   79.4080  222.6740 C   0  0  0  0  0  0  0  0  0  0  0  0
  141.4540   79.5690  223.8570 C   0  0  0  0  0  0  0  0  0  0  0  0
  140.6420   80.7390  223.7770 N   0  0  0  0  0  0  0  0  0  0  0  0
  139.9530   80.7780  222.5340 C   0  0  0  0  0  0  0  0  0  0  0  0
  140.1840   79.5350  221.6990 C   0  0  0  0  0  0  0  0  0  0  0  0
  139.9250   71.8830  223.0330 C   0  0  0  0  0  0  0  0  0  0  0  0
  139.4820   70.6000  222.7970 C   0  0  0  0  0  0  0  0  0  0  0  0
  139.5450   69.6990  223.8560 C   0  0  0  0  0  0  0  0  0  0  0  0
  140.0350   70.0790  225.0980 C   0  0  0  0  0  0  0  0  0  0  0  0
  140.0940   69.1770  226.1480 C   0  0  0  0  0  0  0  0  0  0  0  0
  140.5870   69.5900  227.3760 C   0  0  0  0  0  0  0  0  0  0  0  0
  140.6810   68.4950  228.7240 Cl  0  0  0  0  0  0  0  0  0  0  0  0
  141.0160   70.8980  227.5400 C   0  0  0  0  0  0  0  0  0  0  0  0
  140.9700   71.8170  226.5150 C   0  0  0  0  0  0  0  0  0  0  0  0
  140.4750   71.3860  225.3010 C   0  0  0  0  0  0  0  0  0  0  0  0
  140.3920   72.2120  224.2500 N   0  0  0  0  0  0  0  0  0  0  0  0
  139.5280   74.4670  223.2990 H   0  0  0  0  0  0  0  0  0  0  0  0
  139.7308   74.8548  220.2659 H   0  0  0  0  0  0  0  0  0  0  0  0
  138.6028   75.7854  221.3433 H   0  0  0  0  0  0  0  0  0  0  0  0
  142.7095   75.3197  220.0730 H   0  0  0  0  0  0  0  0  0  0  0  0
  141.2321   75.4949  219.0495 H   0  0  0  0  0  0  0  0  0  0  0  0
  143.7827   77.0834  219.0055 H   0  0  0  0  0  0  0  0  0  0  0  0
  142.9488   76.0965  217.6889 H   0  0  0  0  0  0  0  0  0  0  0  0
  142.9603   78.7024  217.6524 H   0  0  0  0  0  0  0  0  0  0  0  0
  141.5273   77.6994  217.1619 H   0  0  0  0  0  0  0  0  0  0  0  0
  141.3873   79.7958  218.8893 H   0  0  0  0  0  0  0  0  0  0  0  0
  140.2670   78.4080  218.9121 H   0  0  0  0  0  0  0  0  0  0  0  0
  142.9356   78.2637  220.6047 H   0  0  0  0  0  0  0  0  0  0  0  0
  142.1795   80.1925  220.8697 H   0  0  0  0  0  0  0  0  0  0  0  0
  142.9775   78.4708  222.7932 H   0  0  0  0  0  0  0  0  0  0  0  0
  143.0974   80.2698  222.6580 H   0  0  0  0  0  0  0  0  0  0  0  0
  140.7944   78.6894  223.8921 H   0  0  0  0  0  0  0  0  0  0  0  0
  142.0707   79.6651  224.7628 H   0  0  0  0  0  0  0  0  0  0  0  0
  141.0560   81.6120  224.1130 H   0  0  0  0  0  0  0  0  0  0  0  0
  138.8752   80.8740  222.7318 H   0  0  0  0  0  0  0  0  0  0  0  0
  140.3400   81.6368  221.9660 H   0  0  0  0  0  0  0  0  0  0  0  0
  139.8222   78.6543  222.2498 H   0  0  0  0  0  0  0  0  0  0  0  0
  139.6379   79.6327  220.7491 H   0  0  0  0  0  0  0  0  0  0  0  0
  139.0945   70.3000  221.8122 H   0  0  0  0  0  0  0  0  0  0  0  0
  139.1997   68.6654  223.7058 H   0  0  0  0  0  0  0  0  0  0  0  0
  139.7522   68.1408  226.0082 H   0  0  0  0  0  0  0  0  0  0  0  0
  141.4055   71.2119  228.5197 H   0  0  0  0  0  0  0  0  0  0  0  0
  141.3137   72.8521  226.6582 H   0  0  0  0  0  0  0  0  0  0  0  0
  1  2  2  0
  2  3  1  0
  3  4  1  0
  4  5  1  0
  5  6  2  0
  5  7  1  0
  7  8  1  0
  8  9  1  0
  9 10  1  0
 10 11  1  0
 11 12  1  0
 12 13  1  0
 13 14  1  0
 14 15  1  0
 15 16  1  0
 16 17  1  0
 17 18  1  0
  2 19  1  0
 19 20  2  0
 20 21  1  0
 21 22  2  0
 22 23  1  0
 23 24  2  0
 24 25  1  0
 24 26  1  0
 26 27  2  0
 27 28  1  0
 28 29  2  0
 12  7  1  0
 18 13  1  0
 29 19  1  0
 28 22  1  0
  3 30  1  0
  4 31  1  0
  4 32  1  0
  8 33  1  0
  8 34  1  0
  9 35  1  0
  9 36  1  0
 10 37  1  0
 10 38  1  0
 11 39  1  0
 11 40  1  0
 12 41  1  6
 13 42  1  0
 14 43  1  0
 14 44  1  0
 15 45  1  0
 15 46  1  0
 16 47  1  0
 17 48  1  0
 17 49  1  0
 18 50  1  0
 18 51  1  0
 20 52  1  0
 21 53  1  0
 23 54  1  0
 26 55  1  0
 27 56  1  0
M  END
>  <smiles>  (96) 
O=C(NCC(=O)N1CCCCC1C1CCNCC1)c1ccc2cc(Cl)ccc2n1

>  <score_type>  (96) 
oracle

>  <origin>  (96) 
autodockgpu

>  <m_score__min__energy>  (96) 
-9.1699999999999999

>  <m_primary>  (96) 
energy

>  <rmsd>  (96) 
2.076070946439109

>  <m_score__min__rmsd>  (96) 
2.076070946439109

>  <meeko>  (96) 
{"free_energy": -8.66, "intermolecular_energy": -10.15, "internal_energy": -1.73, "cluster_size": 18, "cluster_id": 1, "rank_in_cluster": 7}

>  <energy>  (96) 
-6.6

>  <cluster_rmsd>  (96) 
0.0

>  <cluster>  (96) 
8

$$$$

     RDKit          3D

 56 59  0  0  0  0  0  0  0  0999 V2000
  139.9160   71.7510  220.7430 O   0  0  0  0  0  0  0  0  0  0  0  0
  139.8150   72.1440  221.9290 C   0  0  0  0  0  0  0  0  0  0  0  0
  139.6270   73.5230  222.1740 N   0  0  0  0  0  0  0  0  0  0  0  0
  139.5420   74.5200  221.1140 C   0  0  0  0  0  0  0  0  0  0  0  0
  140.8290   75.1830  220.8750 C   0  0  0  0  0  0  0  0  0  0  0  0
  141.4600   75.5190  221.9670 O   0  0  0  0  0  0  0  0  0  0  0  0
  141.4800   75.5100  219.7010 N   0  0  0  0  0  0  0  0  0  0  0  0
  140.6830   76.4980  218.8630 C   0  0  0  0  0  0  0  0  0  0  0  0
  141.4620   76.9240  217.6710 C   0  0  0  0  0  0  0  0  0  0  0  0
  142.8900   77.2800  217.9220 C   0  0  0  0  0  0  0  0  0  0  0  0
  143.5010   76.4450  219.0260 C   0  0  0  0  0  0  0  0  0  0  0  0
  142.6920   75.1220  219.1200 C   0  0  1  0  0  0  0  0  0  0  0  0
  143.5090   73.9990  219.5290 C   0  0  0  0  0  0  0  0  0  0  0  0
  144.3100   74.0000  220.7590 C   0  0  0  0  0  0  0  0  0  0  0  0
  145.7680   73.6290  220.4660 C   0  0  0  0  0  0  0  0  0  0  0  0
  145.9170   72.3570  219.8400 N   0  0  0  0  0  0  0  0  0  0  0  0
  145.1140   72.2840  218.6700 C   0  0  0  0  0  0  0  0  0  0  0  0
  144.4170   73.5930  218.3580 C   0  0  0  0  0  0  0  0  0  0  0  0
  139.8860   71.2050  223.0710 C   0  0  0  0  0  0  0  0  0  0  0  0
  139.4310   69.9130  222.9220 C   0  0  0  0  0  0  0  0  0  0  0  0
  139.5180   69.0750  224.0290 C   0  0  0  0  0  0  0  0  0  0  0  0
  140.0430   69.5220  225.2330 C   0  0  0  0  0  0  0  0  0  0  0  0
  140.1260   68.6830  226.3320 C   0  0  0  0  0  0  0  0  0  0  0  0
  140.6540   69.1620  227.5200 C   0  0  0  0  0  0  0  0  0  0  0  0
  140.7790   68.1470  228.9260 Cl  0  0  0  0  0  0  0  0  0  0  0  0
  141.0930   70.4740  227.5970 C   0  0  0  0  0  0  0  0  0  0  0  0
  141.0240   71.3330  226.5220 C   0  0  0  0  0  0  0  0  0  0  0  0
  140.4940   70.8360  225.3480 C   0  0  0  0  0  0  0  0  0  0  0  0
  140.3880   71.6010  224.2540 N   0  0  0  0  0  0  0  0  0  0  0  0
  139.5480   73.8070  223.1990 H   0  0  0  0  0  0  0  0  0  0  0  0
  139.2206   74.0245  220.1860 H   0  0  0  0  0  0  0  0  0  0  0  0
  138.8190   75.2872  221.4280 H   0  0  0  0  0  0  0  0  0  0  0  0
  139.7491   76.0200  218.5322 H   0  0  0  0  0  0  0  0  0  0  0  0
  140.4617   77.3841  219.4761 H   0  0  0  0  0  0  0  0  0  0  0  0
  141.4425   76.0998  216.9427 H   0  0  0  0  0  0  0  0  0  0  0  0
  140.9819   77.8472  217.3144 H   0  0  0  0  0  0  0  0  0  0  0  0
  143.4632   77.1188  216.9971 H   0  0  0  0  0  0  0  0  0  0  0  0
  142.9255   78.3336  218.2361 H   0  0  0  0  0  0  0  0  0  0  0  0
  144.5529   76.2251  218.7911 H   0  0  0  0  0  0  0  0  0  0  0  0
  143.4666   76.9866  219.9828 H   0  0  0  0  0  0  0  0  0  0  0  0
  142.3758   74.6113  218.1985 H   0  0  0  0  0  0  0  0  0  0  0  0
  142.7174   73.2907  219.8149 H   0  0  0  0  0  0  0  0  0  0  0  0
  144.2776   75.0035  221.2084 H   0  0  0  0  0  0  0  0  0  0  0  0
  143.8910   73.2541  221.4504 H   0  0  0  0  0  0  0  0  0  0  0  0
  146.1957   74.3955  219.8029 H   0  0  0  0  0  0  0  0  0  0  0  0
  146.2888   73.5761  221.4335 H   0  0  0  0  0  0  0  0  0  0  0  0
  145.9300   71.5390  220.4540 H   0  0  0  0  0  0  0  0  0  0  0  0
  145.7562   72.0152  217.8183 H   0  0  0  0  0  0  0  0  0  0  0  0
  144.3361   71.5267  218.8469 H   0  0  0  0  0  0  0  0  0  0  0  0
  145.1712   74.3767  218.1935 H   0  0  0  0  0  0  0  0  0  0  0  0
  143.8040   73.4681  217.4532 H   0  0  0  0  0  0  0  0  0  0  0  0
  139.0160   69.5587  221.9669 H   0  0  0  0  0  0  0  0  0  0  0  0
  139.1634   68.0369  223.9481 H   0  0  0  0  0  0  0  0  0  0  0  0
  139.7749   67.6429  226.2620 H   0  0  0  0  0  0  0  0  0  0  0  0
  141.5098   70.8413  228.5464 H   0  0  0  0  0  0  0  0  0  0  0  0
  141.3767   72.3723  226.5961 H   0  0  0  0  0  0  0  0  0  0  0  0
  1  2  2  0
  2  3  1  0
  3  4  1  0
  4  5  1  0
  5  6  2  0
  5  7  1  0
  7  8  1  0
  8  9  1  0
  9 10  1  0
 10 11  1  0
 11 12  1  0
 12 13  1  0
 13 14  1  0
 14 15  1  0
 15 16  1  0
 16 17  1  0
 17 18  1  0
  2 19  1  0
 19 20  2  0
 20 21  1  0
 21 22  2  0
 22 23  1  0
 23 24  2  0
 24 25  1  0
 24 26  1  0
 26 27  2  0
 27 28  1  0
 28 29  2  0
 12  7  1  0
 18 13  1  0
 29 19  1  0
 28 22  1  0
  3 30  1  0
  4 31  1  0
  4 32  1  0
  8 33  1  0
  8 34  1  0
  9 35  1  0
  9 36  1  0
 10 37  1  0
 10 38  1  0
 11 39  1  0
 11 40  1  0
 12 41  1  6
 13 42  1  0
 14 43  1  0
 14 44  1  0
 15 45  1  0
 15 46  1  0
 16 47  1  0
 17 48  1  0
 17 49  1  0
 18 50  1  0
 18 51  1  0
 20 52  1  0
 21 53  1  0
 23 54  1  0
 26 55  1  0
 27 56  1  0
M  END
>  <smiles>  (97) 
O=C(NCC(=O)N1CCCCC1C1CCNCC1)c1ccc2cc(Cl)ccc2n1

>  <score_type>  (97) 
oracle

>  <origin>  (97) 
autodockgpu

>  <m_score__min__energy>  (97) 
-9.1699999999999999

>  <m_primary>  (97) 
energy

>  <rmsd>  (97) 
1.8882302285669499

>  <m_score__min__rmsd>  (97) 
1.8882302285669499

>  <meeko>  (97) 
{"free_energy": -8.66, "intermolecular_energy": -10.15, "internal_energy": -1.69, "cluster_size": 18, "cluster_id": 3, "rank_in_cluster": 5}

>  <energy>  (97) 
-6.58

>  <cluster_rmsd>  (97) 
0.26

>  <cluster>  (97) 
8

$$$$

     RDKit          3D

 56 59  0  0  0  0  0  0  0  0999 V2000
  140.1840   72.3290  220.6460 O   0  0  0  0  0  0  0  0  0  0  0  0
  139.9700   72.6940  221.8270 C   0  0  0  0  0  0  0  0  0  0  0  0
  139.7550   74.0670  222.0870 N   0  0  0  0  0  0  0  0  0  0  0  0
  139.7680   75.0890  221.0480 C   0  0  0  0  0  0  0  0  0  0  0  0
  140.4810   76.2980  221.4710 C   0  0  0  0  0  0  0  0  0  0  0  0
  140.2310   76.6550  222.7020 O   0  0  0  0  0  0  0  0  0  0  0  0
  141.3660   77.1170  220.7950 N   0  0  0  0  0  0  0  0  0  0  0  0
  142.0210   76.4050  219.6220 C   0  0  0  0  0  0  0  0  0  0  0  0
  142.8690   77.3450  218.8430 C   0  0  0  0  0  0  0  0  0  0  0  0
  142.2590   78.6750  218.5450 C   0  0  0  0  0  0  0  0  0  0  0  0
  141.3460   79.1460  219.6550 C   0  0  0  0  0  0  0  0  0  0  0  0
  141.7920   78.4400  220.9650 C   0  0  1  0  0  0  0  0  0  0  0  0
  141.5740   79.2580  222.1400 C   0  0  0  0  0  0  0  0  0  0  0  0
  140.5510   80.3080  222.2040 C   0  0  0  0  0  0  0  0  0  0  0  0
  141.1590   81.6410  222.6540 C   0  0  0  0  0  0  0  0  0  0  0  0
  141.8040   81.5720  223.9240 N   0  0  0  0  0  0  0  0  0  0  0  0
  142.7680   80.5280  223.9320 C   0  0  0  0  0  0  0  0  0  0  0  0
  142.9170   79.8590  222.5800 C   0  0  0  0  0  0  0  0  0  0  0  0
  139.9360   71.7280  222.9470 C   0  0  0  0  0  0  0  0  0  0  0  0
  139.3480   70.4950  222.7680 C   0  0  0  0  0  0  0  0  0  0  0  0
  139.3410   69.6270  223.8560 C   0  0  0  0  0  0  0  0  0  0  0  0
  139.9040   69.9900  225.0710 C   0  0  0  0  0  0  0  0  0  0  0  0
  139.8930   69.1220  226.1510 C   0  0  0  0  0  0  0  0  0  0  0  0
  140.4630   69.5160  227.3510 C   0  0  0  0  0  0  0  0  0  0  0  0
  140.4730   68.4620  228.7340 Cl  0  0  0  0  0  0  0  0  0  0  0  0
  141.0370   70.7730  227.4590 C   0  0  0  0  0  0  0  0  0  0  0  0
  141.0640   71.6580  226.4040 C   0  0  0  0  0  0  0  0  0  0  0  0
  140.4910   71.2460  225.2170 C   0  0  0  0  0  0  0  0  0  0  0  0
  140.4710   72.0410  224.1410 N   0  0  0  0  0  0  0  0  0  0  0  0
  139.5800   74.3260  223.1060 H   0  0  0  0  0  0  0  0  0  0  0  0
  140.2627   74.6800  220.1547 H   0  0  0  0  0  0  0  0  0  0  0  0
  138.7255   75.3682  220.8351 H   0  0  0  0  0  0  0  0  0  0  0  0
  142.6471   75.5842  220.0019 H   0  0  0  0  0  0  0  0  0  0  0  0
  141.2331   76.0110  218.9632 H   0  0  0  0  0  0  0  0  0  0  0  0
  143.7934   77.5178  219.4136 H   0  0  0  0  0  0  0  0  0  0  0  0
  143.0295   76.8641  217.8668 H   0  0  0  0  0  0  0  0  0  0  0  0
  143.0644   79.4123  218.4118 H   0  0  0  0  0  0  0  0  0  0  0  0
  141.6551   78.5726  217.6313 H   0  0  0  0  0  0  0  0  0  0  0  0
  141.4285   80.2368  219.7705 H   0  0  0  0  0  0  0  0  0  0  0  0
  140.2990   78.9012  219.4227 H   0  0  0  0  0  0  0  0  0  0  0  0
  142.8641   78.3324  221.1865 H   0  0  0  0  0  0  0  0  0  0  0  0
  141.1207   78.5085  222.8054 H   0  0  0  0  0  0  0  0  0  0  0  0
  140.1033   80.4352  221.2073 H   0  0  0  0  0  0  0  0  0  0  0  0
  139.7858   80.0075  222.9349 H   0  0  0  0  0  0  0  0  0  0  0  0
  141.8993   81.9568  221.9042 H   0  0  0  0  0  0  0  0  0  0  0  0
  140.3307   82.3584  222.7503 H   0  0  0  0  0  0  0  0  0  0  0  0
  141.2090   81.6700  224.7500 H   0  0  0  0  0  0  0  0  0  0  0  0
  143.7408   80.9495  224.2252 H   0  0  0  0  0  0  0  0  0  0  0  0
  142.4243   79.7639  224.6447 H   0  0  0  0  0  0  0  0  0  0  0  0
  143.2429   80.6038  221.8390 H   0  0  0  0  0  0  0  0  0  0  0  0
  143.6645   79.0556  222.6553 H   0  0  0  0  0  0  0  0  0  0  0  0
  138.9021   70.2081  221.8042 H   0  0  0  0  0  0  0  0  0  0  0  0
  138.8801   68.6338  223.7505 H   0  0  0  0  0  0  0  0  0  0  0  0
  139.4347   68.1265  226.0564 H   0  0  0  0  0  0  0  0  0  0  0  0
  141.4852   71.0733  228.4176 H   0  0  0  0  0  0  0  0  0  0  0  0
  141.5233   72.6526  226.5029 H   0  0  0  0  0  0  0  0  0  0  0  0
  1  2  2  0
  2  3  1  0
  3  4  1  0
  4  5  1  0
  5  6  2  0
  5  7  1  0
  7  8  1  0
  8  9  1  0
  9 10  1  0
 10 11  1  0
 11 12  1  0
 12 13  1  0
 13 14  1  0
 14 15  1  0
 15 16  1  0
 16 17  1  0
 17 18  1  0
  2 19  1  0
 19 20  2  0
 20 21  1  0
 21 22  2  0
 22 23  1  0
 23 24  2  0
 24 25  1  0
 24 26  1  0
 26 27  2  0
 27 28  1  0
 28 29  2  0
 12  7  1  0
 18 13  1  0
 29 19  1  0
 28 22  1  0
  3 30  1  0
  4 31  1  0
  4 32  1  0
  8 33  1  0
  8 34  1  0
  9 35  1  0
  9 36  1  0
 10 37  1  0
 10 38  1  0
 11 39  1  0
 11 40  1  0
 12 41  1  6
 13 42  1  0
 14 43  1  0
 14 44  1  0
 15 45  1  0
 15 46  1  0
 16 47  1  0
 17 48  1  0
 17 49  1  0
 18 50  1  0
 18 51  1  0
 20 52  1  0
 21 53  1  0
 23 54  1  0
 26 55  1  0
 27 56  1  0
M  END
>  <smiles>  (98) 
O=C(NCC(=O)N1CCCCC1C1CCNCC1)c1ccc2cc(Cl)ccc2n1

>  <score_type>  (98) 
oracle

>  <origin>  (98) 
autodockgpu

>  <m_score__min__energy>  (98) 
-9.1699999999999999

>  <m_primary>  (98) 
energy

>  <rmsd>  (98) 
2.2082501159614902

>  <m_score__min__rmsd>  (98) 
2.2082501159614902

>  <meeko>  (98) 
{"free_energy": -9.12, "intermolecular_energy": -10.61, "internal_energy": -1.69, "cluster_size": 18, "cluster_id": 1, "rank_in_cluster": 3}

>  <energy>  (98) 
-6.58

>  <cluster_rmsd>  (98) 
0.27

>  <cluster>  (98) 
8

$$$$

     RDKit          3D

 56 59  0  0  0  0  0  0  0  0999 V2000
  140.3630   72.2600  220.7270 O   0  0  0  0  0  0  0  0  0  0  0  0
  139.8900   72.5250  221.8580 C   0  0  0  0  0  0  0  0  0  0  0  0
  139.2960   73.7910  222.0670 N   0  0  0  0  0  0  0  0  0  0  0  0
  139.2010   74.8110  221.0300 C   0  0  0  0  0  0  0  0  0  0  0  0
  140.4400   75.5850  220.9010 C   0  0  0  0  0  0  0  0  0  0  0  0
  140.8160   76.1660  222.0080 O   0  0  0  0  0  0  0  0  0  0  0  0
  141.2700   75.8010  219.8180 N   0  0  0  0  0  0  0  0  0  0  0  0
  140.5820   76.6030  218.7230 C   0  0  0  0  0  0  0  0  0  0  0  0
  141.5350   76.9250  217.6290 C   0  0  0  0  0  0  0  0  0  0  0  0
  142.8750   77.4210  218.0610 C   0  0  0  0  0  0  0  0  0  0  0  0
  143.3250   76.7920  219.3610 C   0  0  0  0  0  0  0  0  0  0  0  0
  142.5850   75.4340  219.5100 C   0  0  1  0  0  0  0  0  0  0  0  0
  143.3760   74.4430  220.2090 C   0  0  0  0  0  0  0  0  0  0  0  0
  144.8100   74.6060  220.4720 C   0  0  0  0  0  0  0  0  0  0  0  0
  145.6000   73.3890  219.9800 C   0  0  0  0  0  0  0  0  0  0  0  0
  145.1790   72.1600  220.5670 N   0  0  0  0  0  0  0  0  0  0  0  0
  143.7790   71.9820  220.3890 C   0  0  0  0  0  0  0  0  0  0  0  0
  143.1540   73.0750  219.5460 C   0  0  0  0  0  0  0  0  0  0  0  0
  139.9380   71.5510  222.9710 C   0  0  0  0  0  0  0  0  0  0  0  0
  139.4840   70.2660  222.7740 C   0  0  0  0  0  0  0  0  0  0  0  0
  139.5490   69.3930  223.8560 C   0  0  0  0  0  0  0  0  0  0  0  0
  140.0520   69.8020  225.0830 C   0  0  0  0  0  0  0  0  0  0  0  0
  140.1130   68.9290  226.1570 C   0  0  0  0  0  0  0  0  0  0  0  0
  140.6200   69.3700  227.3690 C   0  0  0  0  0  0  0  0  0  0  0  0
  140.7170   68.3120  228.7450 Cl  0  0  0  0  0  0  0  0  0  0  0  0
  141.0590   70.6790  227.4940 C   0  0  0  0  0  0  0  0  0  0  0  0
  141.0120   71.5700  226.4460 C   0  0  0  0  0  0  0  0  0  0  0  0
  140.5040   71.1110  225.2470 C   0  0  0  0  0  0  0  0  0  0  0  0
  140.4190   71.9090  224.1750 N   0  0  0  0  0  0  0  0  0  0  0  0
  138.9110   73.9680  223.0450 H   0  0  0  0  0  0  0  0  0  0  0  0
  138.9877   74.3205  220.0688 H   0  0  0  0  0  0  0  0  0  0  0  0
  138.3959   75.5057  221.3115 H   0  0  0  0  0  0  0  0  0  0  0  0
  139.7483   76.0137  218.3136 H   0  0  0  0  0  0  0  0  0  0  0  0
  140.2092   77.5434  219.1550 H   0  0  0  0  0  0  0  0  0  0  0  0
  141.6883   76.0119  217.0351 H   0  0  0  0  0  0  0  0  0  0  0  0
  141.0768   77.7521  217.0669 H   0  0  0  0  0  0  0  0  0  0  0  0
  143.6104   77.1820  217.2786 H   0  0  0  0  0  0  0  0  0  0  0  0
  142.7982   78.5067  218.2199 H   0  0  0  0  0  0  0  0  0  0  0  0
  144.4122   76.6259  219.3402 H   0  0  0  0  0  0  0  0  0  0  0  0
  143.0924   77.4525  220.2093 H   0  0  0  0  0  0  0  0  0  0  0  0
  142.4650   74.7811  218.6329 H   0  0  0  0  0  0  0  0  0  0  0  0
  142.9792   74.5743  221.2265 H   0  0  0  0  0  0  0  0  0  0  0  0
  145.1716   75.5045  219.9504 H   0  0  0  0  0  0  0  0  0  0  0  0
  144.9583   74.7048  221.5575 H   0  0  0  0  0  0  0  0  0  0  0  0
  145.4784   73.3131  218.8894 H   0  0  0  0  0  0  0  0  0  0  0  0
  146.6485   73.5445  220.2742 H   0  0  0  0  0  0  0  0  0  0  0  0
  145.5700   71.9270  221.4830 H   0  0  0  0  0  0  0  0  0  0  0  0
  143.6071   71.0144  219.8948 H   0  0  0  0  0  0  0  0  0  0  0  0
  143.3099   72.0194  221.3832 H   0  0  0  0  0  0  0  0  0  0  0  0
  143.6167   73.0747  218.5481 H   0  0  0  0  0  0  0  0  0  0  0  0
  142.0736   72.8885  219.4568 H   0  0  0  0  0  0  0  0  0  0  0  0
  139.0860   69.9426  221.8009 H   0  0  0  0  0  0  0  0  0  0  0  0
  139.1947   68.3585  223.7362 H   0  0  0  0  0  0  0  0  0  0  0  0
  139.7613   67.8924  226.0484 H   0  0  0  0  0  0  0  0  0  0  0  0
  141.4578   71.0165  228.4620 H   0  0  0  0  0  0  0  0  0  0  0  0
  141.3648   72.6057  226.5591 H   0  0  0  0  0  0  0  0  0  0  0  0
  1  2  2  0
  2  3  1  0
  3  4  1  0
  4  5  1  0
  5  6  2  0
  5  7  1  0
  7  8  1  0
  8  9  1  0
  9 10  1  0
 10 11  1  0
 11 12  1  0
 12 13  1  0
 13 14  1  0
 14 15  1  0
 15 16  1  0
 16 17  1  0
 17 18  1  0
  2 19  1  0
 19 20  2  0
 20 21  1  0
 21 22  2  0
 22 23  1  0
 23 24  2  0
 24 25  1  0
 24 26  1  0
 26 27  2  0
 27 28  1  0
 28 29  2  0
 12  7  1  0
 18 13  1  0
 29 19  1  0
 28 22  1  0
  3 30  1  0
  4 31  1  0
  4 32  1  0
  8 33  1  0
  8 34  1  0
  9 35  1  0
  9 36  1  0
 10 37  1  0
 10 38  1  0
 11 39  1  0
 11 40  1  0
 12 41  1  6
 13 42  1  0
 14 43  1  0
 14 44  1  0
 15 45  1  0
 15 46  1  0
 16 47  1  0
 17 48  1  0
 17 49  1  0
 18 50  1  0
 18 51  1  0
 20 52  1  0
 21 53  1  0
 23 54  1  0
 26 55  1  0
 27 56  1  0
M  END
>  <smiles>  (99) 
O=C(NCC(=O)N1CCCCC1C1CCNCC1)c1ccc2cc(Cl)ccc2n1

>  <score_type>  (99) 
oracle

>  <origin>  (99) 
autodockgpu

>  <m_score__min__energy>  (99) 
-9.1699999999999999

>  <m_primary>  (99) 
energy

>  <rmsd>  (99) 
1.868387344909154

>  <m_score__min__rmsd>  (99) 
1.868387344909154

>  <meeko>  (99) 
{"free_energy": -8.65, "intermolecular_energy": -10.14, "internal_energy": -1.81, "cluster_size": 18, "cluster_id": 3, "rank_in_cluster": 6}

>  <energy>  (99) 
-6.46

>  <cluster_rmsd>  (99) 
0.21

>  <cluster>  (99) 
8

$$$$

     RDKit          3D

 56 59  0  0  0  0  0  0  0  0999 V2000
  140.5470   74.2660  221.0120 O   0  0  0  0  0  0  0  0  0  0  0  0
  139.7250   74.0220  221.9260 C   0  0  0  0  0  0  0  0  0  0  0  0
  138.8330   75.0420  222.3300 N   0  0  0  0  0  0  0  0  0  0  0  0
  138.8170   76.3720  221.7350 C   0  0  0  0  0  0  0  0  0  0  0  0
  137.8990   77.2780  222.4330 C   0  0  0  0  0  0  0  0  0  0  0  0
  137.0020   76.6660  223.1560 O   0  0  0  0  0  0  0  0  0  0  0  0
  137.8220   78.6580  222.4530 N   0  0  0  0  0  0  0  0  0  0  0  0
  136.3860   79.1520  222.3670 C   0  0  0  0  0  0  0  0  0  0  0  0
  136.3270   80.6290  222.5160 C   0  0  0  0  0  0  0  0  0  0  0  0
  137.1530   81.2030  223.6190 C   0  0  0  0  0  0  0  0  0  0  0  0
  138.4280   80.4220  223.8450 C   0  0  0  0  0  0  0  0  0  0  0  0
  138.7700   79.6850  222.5210 C   0  0  1  0  0  0  0  0  0  0  0  0
  140.1970   79.5380  222.3200 C   0  0  0  0  0  0  0  0  0  0  0  0
  140.9900   78.4860  222.9660 C   0  0  0  0  0  0  0  0  0  0  0  0
  142.1980   79.0800  223.6990 C   0  0  0  0  0  0  0  0  0  0  0  0
  143.0640   79.8330  222.8530 N   0  0  0  0  0  0  0  0  0  0  0  0
  142.3300   80.8330  222.1580 C   0  0  0  0  0  0  0  0  0  0  0  0
  140.8760   80.8910  222.5820 C   0  0  0  0  0  0  0  0  0  0  0  0
  139.6640   72.6990  222.5880 C   0  0  0  0  0  0  0  0  0  0  0  0
  138.9060   71.6920  222.0320 C   0  0  0  0  0  0  0  0  0  0  0  0
  138.8830   70.4700  222.6980 C   0  0  0  0  0  0  0  0  0  0  0  0
  139.5950   70.2760  223.8740 C   0  0  0  0  0  0  0  0  0  0  0  0
  139.5660   69.0570  224.5320 C   0  0  0  0  0  0  0  0  0  0  0  0
  140.2880   68.8970  225.7040 C   0  0  0  0  0  0  0  0  0  0  0  0
  140.2830   67.3870  226.5670 Cl  0  0  0  0  0  0  0  0  0  0  0  0
  141.0300   69.9550  226.2050 C   0  0  0  0  0  0  0  0  0  0  0  0
  141.0780   71.1780  225.5730 C   0  0  0  0  0  0  0  0  0  0  0  0
  140.3520   71.3170  224.4070 C   0  0  0  0  0  0  0  0  0  0  0  0
  140.3400   72.4710  223.7280 N   0  0  0  0  0  0  0  0  0  0  0  0
  138.1550   74.7850  223.1120 H   0  0  0  0  0  0  0  0  0  0  0  0
  139.8324   76.7926  221.7794 H   0  0  0  0  0  0  0  0  0  0  0  0
  138.4706   76.2738  220.6956 H   0  0  0  0  0  0  0  0  0  0  0  0
  135.9657   78.8709  221.3901 H   0  0  0  0  0  0  0  0  0  0  0  0
  135.8053   78.6919  223.1801 H   0  0  0  0  0  0  0  0  0  0  0  0
  136.6669   81.0776  221.5709 H   0  0  0  0  0  0  0  0  0  0  0  0
  135.2828   80.8626  222.7713 H   0  0  0  0  0  0  0  0  0  0  0  0
  137.4140   82.2404  223.3629 H   0  0  0  0  0  0  0  0  0  0  0  0
  136.5600   81.1556  224.5442 H   0  0  0  0  0  0  0  0  0  0  0  0
  139.2449   81.1077  224.1141 H   0  0  0  0  0  0  0  0  0  0  0  0
  138.2983   79.7009  224.6655 H   0  0  0  0  0  0  0  0  0  0  0  0
  138.6437   80.2063  221.5606 H   0  0  0  0  0  0  0  0  0  0  0  0
  140.2007   79.1711  221.2830 H   0  0  0  0  0  0  0  0  0  0  0  0
  140.3571   77.9518  223.6899 H   0  0  0  0  0  0  0  0  0  0  0  0
  141.3551   77.7965  222.1906 H   0  0  0  0  0  0  0  0  0  0  0  0
  141.8300   79.7413  224.4973 H   0  0  0  0  0  0  0  0  0  0  0  0
  142.7840   78.2363  224.0924 H   0  0  0  0  0  0  0  0  0  0  0  0
  143.7630   79.3080  222.3220 H   0  0  0  0  0  0  0  0  0  0  0  0
  142.7935   81.8109  222.3552 H   0  0  0  0  0  0  0  0  0  0  0  0
  142.3545   80.5801  221.0877 H   0  0  0  0  0  0  0  0  0  0  0  0
  140.8188   81.1254  223.6552 H   0  0  0  0  0  0  0  0  0  0  0  0
  140.3618   81.6711  222.0014 H   0  0  0  0  0  0  0  0  0  0  0  0
  138.3423   71.8472  221.1003 H   0  0  0  0  0  0  0  0  0  0  0  0
  138.2890   69.6417  222.2844 H   0  0  0  0  0  0  0  0  0  0  0  0
  138.9744   68.2226  224.1272 H   0  0  0  0  0  0  0  0  0  0  0  0
  141.5982   69.8137  227.1362 H   0  0  0  0  0  0  0  0  0  0  0  0
  141.6707   72.0101  225.9808 H   0  0  0  0  0  0  0  0  0  0  0  0
  1  2  2  0
  2  3  1  0
  3  4  1  0
  4  5  1  0
  5  6  2  0
  5  7  1  0
  7  8  1  0
  8  9  1  0
  9 10  1  0
 10 11  1  0
 11 12  1  0
 12 13  1  0
 13 14  1  0
 14 15  1  0
 15 16  1  0
 16 17  1  0
 17 18  1  0
  2 19  1  0
 19 20  2  0
 20 21  1  0
 21 22  2  0
 22 23  1  0
 23 24  2  0
 24 25  1  0
 24 26  1  0
 26 27  2  0
 27 28  1  0
 28 29  2  0
 12  7  1  0
 18 13  1  0
 29 19  1  0
 28 22  1  0
  3 30  1  0
  4 31  1  0
  4 32  1  0
  8 33  1  0
  8 34  1  0
  9 35  1  0
  9 36  1  0
 10 37  1  0
 10 38  1  0
 11 39  1  0
 11 40  1  0
 12 41  1  6
 13 42  1  0
 14 43  1  0
 14 44  1  0
 15 45  1  0
 15 46  1  0
 16 47  1  0
 17 48  1  0
 17 49  1  0
 18 50  1  0
 18 51  1  0
 20 52  1  0
 21 53  1  0
 23 54  1  0
 26 55  1  0
 27 56  1  0
M  END
>  <smiles>  (100) 
O=C(NCC(=O)N1CCCCC1C1CCNCC1)c1ccc2cc(Cl)ccc2n1

>  <score_type>  (100) 
oracle

>  <origin>  (100) 
autodockgpu

>  <m_score__min__energy>  (100) 
-9.1699999999999999

>  <m_primary>  (100) 
energy

>  <rmsd>  (100) 
4.468620973193625

>  <m_score__min__rmsd>  (100) 
4.468620973193625

>  <meeko>  (100) 
{"free_energy": -8.43, "intermolecular_energy": -9.92, "internal_energy": -1.81, "cluster_size": 1, "cluster_id": 4, "rank_in_cluster": 1}

>  <energy>  (100) 
-6.41

>  <cluster_rmsd>  (100) 
1.55

>  <cluster>  (100) 
8

$$$$
