
     RDKit          3D

 54 58  0  0  0  0  0  0  0  0999 V2000
  138.6770   70.3160  221.4130 O   0  0  0  0  0  0  0  0  0  0  0  0
  138.9050   71.1750  222.3150 C   0  0  0  0  0  0  0  0  0  0  0  0
  138.6160   72.5480  222.0500 N   0  0  0  0  0  0  0  0  0  0  0  0
  138.0720   72.8540  220.7370 C   0  0  0  0  0  0  0  0  0  0  0  0
  139.1020   72.7560  219.7020 C   0  0  0  0  0  0  0  0  0  0  0  0
  138.9530   72.1630  218.5950 O   0  0  0  0  0  0  0  0  0  0  0  0
  140.3690   73.3620  219.9330 N   0  0  0  0  0  0  0  0  0  0  0  0
  141.2870   73.8600  218.9090 C   0  0  0  0  0  0  0  0  0  0  0  0
  142.5620   73.1680  219.4120 C   0  0  0  0  0  0  0  0  0  0  0  0
  142.5350   73.6300  220.8630 C   0  0  0  0  0  0  0  0  0  0  0  0
  141.0380   73.6270  221.1930 C   0  0  1  0  0  0  0  0  0  0  0  0
  140.6600   74.9460  221.7590 C   0  0  0  0  0  0  0  0  0  0  0  0
  141.4090   76.0610  221.7850 N   0  0  0  0  0  0  0  0  0  0  0  0
  140.7170   77.0630  222.3860 C   0  0  0  0  0  0  0  0  0  0  0  0
  141.1520   78.4350  222.6250 C   0  0  0  0  0  0  0  0  0  0  0  0
  142.2140   79.0160  221.9630 C   0  0  0  0  0  0  0  0  0  0  0  0
  142.5610   80.3220  222.2480 C   0  0  0  0  0  0  0  0  0  0  0  0
  141.8740   81.0810  223.1850 C   0  0  0  0  0  0  0  0  0  0  0  0
  140.8110   80.4880  223.8430 C   0  0  0  0  0  0  0  0  0  0  0  0
  140.4700   79.1820  223.5530 C   0  0  0  0  0  0  0  0  0  0  0  0
  139.4990   76.4850  222.7230 C   0  0  0  0  0  0  0  0  0  0  0  0
  139.5210   75.2270  222.3270 O   0  0  0  0  0  0  0  0  0  0  0  0
  139.4550   70.7970  223.6170 C   0  0  0  0  0  0  0  0  0  0  0  0
  140.2300   71.7160  224.2880 C   0  0  0  0  0  0  0  0  0  0  0  0
  140.7960   71.4640  225.5160 C   0  0  0  0  0  0  0  0  0  0  0  0
  140.5600   70.2230  226.0790 C   0  0  0  0  0  0  0  0  0  0  0  0
  141.1230   69.9490  227.3220 C   0  0  0  0  0  0  0  0  0  0  0  0
  140.9080   68.7240  227.9120 C   0  0  0  0  0  0  0  0  0  0  0  0
  141.4460   68.4320  229.1230 F   0  0  0  0  0  0  0  0  0  0  0  0
  140.1250   67.8190  227.2190 C   0  0  0  0  0  0  0  0  0  0  0  0
  139.5670   68.0900  225.9890 C   0  0  0  0  0  0  0  0  0  0  0  0
  139.7860   69.3200  225.4000 C   0  0  0  0  0  0  0  0  0  0  0  0
  139.2510   69.6150  224.1930 N   0  0  0  0  0  0  0  0  0  0  0  0
  138.8030   73.2430  222.7860 H   0  0  0  0  0  0  0  0  0  0  0  0
  137.2646   72.1427  220.5084 H   0  0  0  0  0  0  0  0  0  0  0  0
  137.6882   73.8848  220.7503 H   0  0  0  0  0  0  0  0  0  0  0  0
  141.0039   73.5291  217.8989 H   0  0  0  0  0  0  0  0  0  0  0  0
  141.3417   74.9532  218.7995 H   0  0  0  0  0  0  0  0  0  0  0  0
  142.4966   72.0732  219.3275 H   0  0  0  0  0  0  0  0  0  0  0  0
  143.4801   73.4120  218.8574 H   0  0  0  0  0  0  0  0  0  0  0  0
  143.0850   72.9320  221.5113 H   0  0  0  0  0  0  0  0  0  0  0  0
  143.0128   74.6087  221.0172 H   0  0  0  0  0  0  0  0  0  0  0  0
  140.7596   72.8715  221.9425 H   0  0  0  0  0  0  0  0  0  0  0  0
  142.7801   78.4432  221.2137 H   0  0  0  0  0  0  0  0  0  0  0  0
  143.4097   80.7754  221.7149 H   0  0  0  0  0  0  0  0  0  0  0  0
  142.1651   82.1203  223.3977 H   0  0  0  0  0  0  0  0  0  0  0  0
  140.2403   81.0545  224.5936 H   0  0  0  0  0  0  0  0  0  0  0  0
  139.6224   78.7242  224.0840 H   0  0  0  0  0  0  0  0  0  0  0  0
  138.6631   76.9883  223.2309 H   0  0  0  0  0  0  0  0  0  0  0  0
  140.4045   72.6964  223.8208 H   0  0  0  0  0  0  0  0  0  0  0  0
  141.4108   72.2182  226.0290 H   0  0  0  0  0  0  0  0  0  0  0  0
  141.7366   70.7074  227.8303 H   0  0  0  0  0  0  0  0  0  0  0  0
  139.9385   66.8342  227.6722 H   0  0  0  0  0  0  0  0  0  0  0  0
  138.9521   67.3331  225.4801 H   0  0  0  0  0  0  0  0  0  0  0  0
  1  2  2  0
  2  3  1  0
  3  4  1  0
  4  5  1  0
  5  6  2  0
  5  7  1  0
  7  8  1  0
  8  9  1  0
  9 10  1  0
 10 11  1  0
 11 12  1  0
 12 13  2  0
 13 14  1  0
 14 15  1  0
 15 16  2  0
 16 17  1  0
 17 18  2  0
 18 19  1  0
 19 20  2  0
 14 21  2  0
 21 22  1  0
  2 23  1  0
 23 24  2  0
 24 25  1  0
 25 26  2  0
 26 27  1  0
 27 28  2  0
 28 29  1  0
 28 30  1  0
 30 31  2  0
 31 32  1  0
 32 33  2  0
 11  7  1  0
 22 12  1  0
 33 23  1  0
 20 15  1  0
 32 26  1  0
  3 34  1  0
  4 35  1  0
  4 36  1  0
  8 37  1  0
  8 38  1  0
  9 39  1  0
  9 40  1  0
 10 41  1  0
 10 42  1  0
 11 43  1  1
 16 44  1  0
 17 45  1  0
 18 46  1  0
 19 47  1  0
 20 48  1  0
 21 49  1  0
 24 50  1  0
 25 51  1  0
 27 52  1  0
 30 53  1  0
 31 54  1  0
M  END
>  <smiles>  (1) 
O=C(NCC(=O)N1CCC[C@H]1c1nc(-c2ccccc2)co1)c1ccc2cc(F)ccc2n1

>  <score_type>  (1) 
oracle

>  <origin>  (1) 
autodockgpu

>  <m_score__min__energy>  (1) 
-9.1799999999999997

>  <m_primary>  (1) 
energy

>  <rmsd>  (1) 
3.5505340063600177

>  <m_score__min__rmsd>  (1) 
3.5505340063600177

>  <meeko>  (1) 
{"free_energy": -8.77, "intermolecular_energy": -10.56, "internal_energy": -2.51, "cluster_size": 12, "cluster_id": 3, "rank_in_cluster": 7}

>  <energy>  (1) 
-9.18

>  <cluster_rmsd>  (1) 
0.0

>  <cluster>  (1) 
1

$$$$

     RDKit          3D

 54 58  0  0  0  0  0  0  0  0999 V2000
  139.0450   74.9920  222.6930 O   0  0  0  0  0  0  0  0  0  0  0  0
  139.9660   75.4240  221.9380 C   0  0  0  0  0  0  0  0  0  0  0  0
  139.9210   76.7820  221.5000 N   0  0  0  0  0  0  0  0  0  0  0  0
  138.7970   77.5770  221.9680 C   0  0  0  0  0  0  0  0  0  0  0  0
  139.2480   78.8480  222.5370 C   0  0  0  0  0  0  0  0  0  0  0  0
  138.4880   79.7070  223.0670 O   0  0  0  0  0  0  0  0  0  0  0  0
  140.6370   79.1610  222.5040 N   0  0  0  0  0  0  0  0  0  0  0  0
  141.6690   78.6020  223.3750 C   0  0  0  0  0  0  0  0  0  0  0  0
  142.3270   79.9220  223.8010 C   0  0  0  0  0  0  0  0  0  0  0  0
  142.5750   80.5260  222.4260 C   0  0  0  0  0  0  0  0  0  0  0  0
  141.3450   80.0780  221.6300 C   0  0  1  0  0  0  0  0  0  0  0  0
  141.7890   79.4220  220.3740 C   0  0  0  0  0  0  0  0  0  0  0  0
  141.8520   78.1030  220.1280 N   0  0  0  0  0  0  0  0  0  0  0  0
  142.3070   77.8950  218.8650 C   0  0  0  0  0  0  0  0  0  0  0  0
  142.5270   76.6190  218.1920 C   0  0  0  0  0  0  0  0  0  0  0  0
  143.6820   76.3210  217.4980 C   0  0  0  0  0  0  0  0  0  0  0  0
  143.8110   75.0890  216.8880 C   0  0  0  0  0  0  0  0  0  0  0  0
  142.8110   74.1280  216.9470 C   0  0  0  0  0  0  0  0  0  0  0  0
  141.6570   74.4380  217.6440 C   0  0  0  0  0  0  0  0  0  0  0  0
  141.5360   75.6710  218.2510 C   0  0  0  0  0  0  0  0  0  0  0  0
  142.5140   79.1720  218.3600 C   0  0  0  0  0  0  0  0  0  0  0  0
  142.1900   80.0400  219.2990 O   0  0  0  0  0  0  0  0  0  0  0  0
  141.0700   74.5670  221.5040 C   0  0  0  0  0  0  0  0  0  0  0  0
  140.8470   73.2120  221.4160 C   0  0  0  0  0  0  0  0  0  0  0  0
  141.8130   72.3170  221.0210 C   0  0  0  0  0  0  0  0  0  0  0  0
  143.0580   72.8300  220.7030 C   0  0  0  0  0  0  0  0  0  0  0  0
  144.0490   71.9410  220.3000 C   0  0  0  0  0  0  0  0  0  0  0  0
  145.3000   72.4170  219.9760 C   0  0  0  0  0  0  0  0  0  0  0  0
  146.2850   71.5710  219.5800 F   0  0  0  0  0  0  0  0  0  0  0  0
  145.4990   73.7820  220.0720 C   0  0  0  0  0  0  0  0  0  0  0  0
  144.5180   74.6620  220.4710 C   0  0  0  0  0  0  0  0  0  0  0  0
  143.2640   74.1810  220.7960 C   0  0  0  0  0  0  0  0  0  0  0  0
  142.2810   75.0210  221.1900 N   0  0  0  0  0  0  0  0  0  0  0  0
  140.6710   77.1280  220.8870 H   0  0  0  0  0  0  0  0  0  0  0  0
  138.1249   77.7812  221.1215 H   0  0  0  0  0  0  0  0  0  0  0  0
  138.2725   77.0110  222.7520 H   0  0  0  0  0  0  0  0  0  0  0  0
  141.2423   78.0547  224.2285 H   0  0  0  0  0  0  0  0  0  0  0  0
  142.3353   77.8562  222.9169 H   0  0  0  0  0  0  0  0  0  0  0  0
  141.6503   80.5423  224.4070 H   0  0  0  0  0  0  0  0  0  0  0  0
  143.2179   79.8199  224.4381 H   0  0  0  0  0  0  0  0  0  0  0  0
  142.6336   81.6231  222.4801 H   0  0  0  0  0  0  0  0  0  0  0  0
  143.5255   80.2050  221.9750 H   0  0  0  0  0  0  0  0  0  0  0  0
  140.6901   80.9113  221.3356 H   0  0  0  0  0  0  0  0  0  0  0  0
  144.4942   77.0598  217.4312 H   0  0  0  0  0  0  0  0  0  0  0  0
  144.7359   74.8617  216.3376 H   0  0  0  0  0  0  0  0  0  0  0  0
  142.9323   73.1515  216.4554 H   0  0  0  0  0  0  0  0  0  0  0  0
  140.8398   73.7050  217.7139 H   0  0  0  0  0  0  0  0  0  0  0  0
  140.6125   75.9027  218.8019 H   0  0  0  0  0  0  0  0  0  0  0  0
  142.8835   79.4168  217.3532 H   0  0  0  0  0  0  0  0  0  0  0  0
  139.8493   72.8269  221.6737 H   0  0  0  0  0  0  0  0  0  0  0  0
  141.6049   71.2386  220.9603 H   0  0  0  0  0  0  0  0  0  0  0  0
  143.8346   70.8637  220.2404 H   0  0  0  0  0  0  0  0  0  0  0  0
  146.4903   74.1849  219.8170 H   0  0  0  0  0  0  0  0  0  0  0  0
  144.7309   75.7396  220.5306 H   0  0  0  0  0  0  0  0  0  0  0  0
  1  2  2  0
  2  3  1  0
  3  4  1  0
  4  5  1  0
  5  6  2  0
  5  7  1  0
  7  8  1  0
  8  9  1  0
  9 10  1  0
 10 11  1  0
 11 12  1  0
 12 13  2  0
 13 14  1  0
 14 15  1  0
 15 16  2  0
 16 17  1  0
 17 18  2  0
 18 19  1  0
 19 20  2  0
 14 21  2  0
 21 22  1  0
  2 23  1  0
 23 24  2  0
 24 25  1  0
 25 26  2  0
 26 27  1  0
 27 28  2  0
 28 29  1  0
 28 30  1  0
 30 31  2  0
 31 32  1  0
 32 33  2  0
 11  7  1  0
 22 12  1  0
 33 23  1  0
 20 15  1  0
 32 26  1  0
  3 34  1  0
  4 35  1  0
  4 36  1  0
  8 37  1  0
  8 38  1  0
  9 39  1  0
  9 40  1  0
 10 41  1  0
 10 42  1  0
 11 43  1  6
 16 44  1  0
 17 45  1  0
 18 46  1  0
 19 47  1  0
 20 48  1  0
 21 49  1  0
 24 50  1  0
 25 51  1  0
 27 52  1  0
 30 53  1  0
 31 54  1  0
M  END
>  <smiles>  (2) 
O=C(NCC(=O)N1CCC[C@H]1c1nc(-c2ccccc2)co1)c1ccc2cc(F)ccc2n1

>  <score_type>  (2) 
oracle

>  <origin>  (2) 
autodockgpu

>  <m_score__min__energy>  (2) 
-9.1799999999999997

>  <m_primary>  (2) 
energy

>  <rmsd>  (2) 
6.804576334052966

>  <m_score__min__rmsd>  (2) 
6.804576334052966

>  <meeko>  (2) 
{"free_energy": -6.6, "intermolecular_energy": -8.39, "internal_energy": -4.26, "cluster_size": 20, "cluster_id": 5, "rank_in_cluster": 20}

>  <energy>  (2) 
-9.09

>  <cluster_rmsd>  (2) 
0.24

>  <cluster>  (2) 
1

$$$$

     RDKit          3D

 54 58  0  0  0  0  0  0  0  0999 V2000
  140.9490   72.4500  222.6450 O   0  0  0  0  0  0  0  0  0  0  0  0
  140.0250   71.9550  223.3560 C   0  0  0  0  0  0  0  0  0  0  0  0
  138.6720   72.0880  222.9210 N   0  0  0  0  0  0  0  0  0  0  0  0
  138.4610   72.7950  221.6680 C   0  0  0  0  0  0  0  0  0  0  0  0
  138.7560   74.2220  221.8100 C   0  0  0  0  0  0  0  0  0  0  0  0
  139.9200   74.7160  221.8260 O   0  0  0  0  0  0  0  0  0  0  0  0
  137.6750   75.1390  221.9390 N   0  0  0  0  0  0  0  0  0  0  0  0
  136.4940   74.9660  222.7840 C   0  0  0  0  0  0  0  0  0  0  0  0
  135.4280   75.2900  221.7270 C   0  0  0  0  0  0  0  0  0  0  0  0
  135.9660   76.6280  221.2380 C   0  0  0  0  0  0  0  0  0  0  0  0
  137.4840   76.4230  221.2910 C   0  0  1  0  0  0  0  0  0  0  0  0
  138.1000   77.5340  222.0600 C   0  0  0  0  0  0  0  0  0  0  0  0
  139.3960   77.8870  222.0760 N   0  0  0  0  0  0  0  0  0  0  0  0
  139.5690   78.9520  222.9000 C   0  0  0  0  0  0  0  0  0  0  0  0
  140.8110   79.6530  223.2090 C   0  0  0  0  0  0  0  0  0  0  0  0
  140.8490   80.8800  223.8400 C   0  0  0  0  0  0  0  0  0  0  0  0
  142.0680   81.4760  224.0960 C   0  0  0  0  0  0  0  0  0  0  0  0
  143.2700   80.8820  223.7380 C   0  0  0  0  0  0  0  0  0  0  0  0
  143.2200   79.6520  223.1050 C   0  0  0  0  0  0  0  0  0  0  0  0
  141.9980   79.0630  222.8530 C   0  0  0  0  0  0  0  0  0  0  0  0
  138.2950   79.2230  223.3840 C   0  0  0  0  0  0  0  0  0  0  0  0
  137.4630   78.3500  222.8520 O   0  0  0  0  0  0  0  0  0  0  0  0
  140.3090   71.2550  224.6090 C   0  0  0  0  0  0  0  0  0  0  0  0
  140.6990   72.0000  225.6980 C   0  0  0  0  0  0  0  0  0  0  0  0
  140.9910   71.4450  226.9210 C   0  0  0  0  0  0  0  0  0  0  0  0
  140.8790   70.0700  227.0340 C   0  0  0  0  0  0  0  0  0  0  0  0
  141.1700   69.4880  228.2650 C   0  0  0  0  0  0  0  0  0  0  0  0
  141.0680   68.1240  228.4130 C   0  0  0  0  0  0  0  0  0  0  0  0
  141.3460   67.5310  229.6020 F   0  0  0  0  0  0  0  0  0  0  0  0
  140.6730   67.3960  227.3050 C   0  0  0  0  0  0  0  0  0  0  0  0
  140.3860   67.9720  226.0870 C   0  0  0  0  0  0  0  0  0  0  0  0
  140.4890   69.3420  225.9420 C   0  0  0  0  0  0  0  0  0  0  0  0
  140.2130   69.9360  224.7590 N   0  0  0  0  0  0  0  0  0  0  0  0
  137.9250   71.6850  223.5020 H   0  0  0  0  0  0  0  0  0  0  0  0
  139.1206   72.3669  220.8988 H   0  0  0  0  0  0  0  0  0  0  0  0
  137.4055   72.6843  221.3786 H   0  0  0  0  0  0  0  0  0  0  0  0
  136.4024   73.9391  223.1674 H   0  0  0  0  0  0  0  0  0  0  0  0
  136.4638   75.5708  223.7023 H   0  0  0  0  0  0  0  0  0  0  0  0
  135.4031   74.5385  220.9241 H   0  0  0  0  0  0  0  0  0  0  0  0
  134.3911   75.3057  222.0940 H   0  0  0  0  0  0  0  0  0  0  0  0
  135.6302   76.8391  220.2120 H   0  0  0  0  0  0  0  0  0  0  0  0
  135.6205   77.4823  221.8387 H   0  0  0  0  0  0  0  0  0  0  0  0
  137.9579   76.4263  220.2983 H   0  0  0  0  0  0  0  0  0  0  0  0
  139.9149   81.3795  224.1368 H   0  0  0  0  0  0  0  0  0  0  0  0
  142.0869   82.4535  224.6001 H   0  0  0  0  0  0  0  0  0  0  0  0
  144.2313   81.3727  223.9504 H   0  0  0  0  0  0  0  0  0  0  0  0
  144.1497   79.1467  222.8044 H   0  0  0  0  0  0  0  0  0  0  0  0
  141.9742   78.0857  222.3488 H   0  0  0  0  0  0  0  0  0  0  0  0
  138.0277   80.0252  224.0876 H   0  0  0  0  0  0  0  0  0  0  0  0
  140.7810   73.0911  225.5845 H   0  0  0  0  0  0  0  0  0  0  0  0
  141.3005   72.0671  227.7738 H   0  0  0  0  0  0  0  0  0  0  0  0
  141.4796   70.1150  229.1141 H   0  0  0  0  0  0  0  0  0  0  0  0
  140.5837   66.3039  227.4012 H   0  0  0  0  0  0  0  0  0  0  0  0
  140.0773   67.3461  225.2367 H   0  0  0  0  0  0  0  0  0  0  0  0
  1  2  2  0
  2  3  1  0
  3  4  1  0
  4  5  1  0
  5  6  2  0
  5  7  1  0
  7  8  1  0
  8  9  1  0
  9 10  1  0
 10 11  1  0
 11 12  1  0
 12 13  2  0
 13 14  1  0
 14 15  1  0
 15 16  2  0
 16 17  1  0
 17 18  2  0
 18 19  1  0
 19 20  2  0
 14 21  2  0
 21 22  1  0
  2 23  1  0
 23 24  2  0
 24 25  1  0
 25 26  2  0
 26 27  1  0
 27 28  2  0
 28 29  1  0
 28 30  1  0
 30 31  2  0
 31 32  1  0
 32 33  2  0
 11  7  1  0
 22 12  1  0
 33 23  1  0
 20 15  1  0
 32 26  1  0
  3 34  1  0
  4 35  1  0
  4 36  1  0
  8 37  1  0
  8 38  1  0
  9 39  1  0
  9 40  1  0
 10 41  1  0
 10 42  1  0
 11 43  1  6
 16 44  1  0
 17 45  1  0
 18 46  1  0
 19 47  1  0
 20 48  1  0
 21 49  1  0
 24 50  1  0
 25 51  1  0
 27 52  1  0
 30 53  1  0
 31 54  1  0
M  END
>  <smiles>  (3) 
O=C(NCC(=O)N1CCC[C@H]1c1nc(-c2ccccc2)co1)c1ccc2cc(F)ccc2n1

>  <score_type>  (3) 
oracle

>  <origin>  (3) 
autodockgpu

>  <m_score__min__energy>  (3) 
-9.1799999999999997

>  <m_primary>  (3) 
energy

>  <rmsd>  (3) 
3.9432896390502123

>  <m_score__min__rmsd>  (3) 
3.9432896390502123

>  <meeko>  (3) 
{"free_energy": -8.94, "intermolecular_energy": -10.73, "internal_energy": -1.48, "cluster_size": 6, "cluster_id": 2, "rank_in_cluster": 1}

>  <energy>  (3) 
-9.08

>  <cluster_rmsd>  (3) 
0.24

>  <cluster>  (3) 
1

$$$$

     RDKit          3D

 54 58  0  0  0  0  0  0  0  0999 V2000
  138.9730   70.8060  221.4330 O   0  0  0  0  0  0  0  0  0  0  0  0
  138.7140   71.3640  222.5400 C   0  0  0  0  0  0  0  0  0  0  0  0
  137.8270   72.4830  222.5590 N   0  0  0  0  0  0  0  0  0  0  0  0
  137.2800   72.8990  221.2780 C   0  0  0  0  0  0  0  0  0  0  0  0
  138.0330   74.0240  220.7210 C   0  0  0  0  0  0  0  0  0  0  0  0
  137.5230   75.1280  220.3770 O   0  0  0  0  0  0  0  0  0  0  0  0
  139.4400   73.8900  220.5460 N   0  0  0  0  0  0  0  0  0  0  0  0
  140.1170   73.3990  219.3470 C   0  0  0  0  0  0  0  0  0  0  0  0
  141.0380   72.3760  220.0270 C   0  0  0  0  0  0  0  0  0  0  0  0
  141.6680   73.2770  221.0810 C   0  0  0  0  0  0  0  0  0  0  0  0
  140.5090   74.1980  221.4770 C   0  0  1  0  0  0  0  0  0  0  0  0
  140.9510   75.6120  221.3720 C   0  0  0  0  0  0  0  0  0  0  0  0
  140.9770   76.5270  222.3540 N   0  0  0  0  0  0  0  0  0  0  0  0
  141.4450   77.7060  221.8680 C   0  0  0  0  0  0  0  0  0  0  0  0
  141.6350   78.9600  222.5890 C   0  0  0  0  0  0  0  0  0  0  0  0
  142.8760   79.5150  222.8260 C   0  0  0  0  0  0  0  0  0  0  0  0
  142.9680   80.7070  223.5170 C   0  0  0  0  0  0  0  0  0  0  0  0
  141.8470   81.3750  223.9880 C   0  0  0  0  0  0  0  0  0  0  0  0
  140.6080   80.8100  223.7450 C   0  0  0  0  0  0  0  0  0  0  0  0
  140.5230   79.6190  223.0540 C   0  0  0  0  0  0  0  0  0  0  0  0
  141.7020   77.4470  220.5270 C   0  0  0  0  0  0  0  0  0  0  0  0
  141.3900   76.1880  220.2890 O   0  0  0  0  0  0  0  0  0  0  0  0
  139.3010   70.8940  223.7950 C   0  0  0  0  0  0  0  0  0  0  0  0
  140.2080   71.7080  224.4360 C   0  0  0  0  0  0  0  0  0  0  0  0
  140.8190   71.3630  225.6180 C   0  0  0  0  0  0  0  0  0  0  0  0
  140.4900   70.1370  226.1660 C   0  0  0  0  0  0  0  0  0  0  0  0
  141.0980   69.7700  227.3630 C   0  0  0  0  0  0  0  0  0  0  0  0
  140.7930   68.5570  227.9380 C   0  0  0  0  0  0  0  0  0  0  0  0
  141.3720   68.1750  229.1040 F   0  0  0  0  0  0  0  0  0  0  0  0
  139.8790   67.7570  227.2760 C   0  0  0  0  0  0  0  0  0  0  0  0
  139.2770   68.1200  226.0910 C   0  0  0  0  0  0  0  0  0  0  0  0
  139.5860   69.3380  225.5180 C   0  0  0  0  0  0  0  0  0  0  0  0
  139.0110   69.7220  224.3550 N   0  0  0  0  0  0  0  0  0  0  0  0
  137.6200   72.9330  223.4610 H   0  0  0  0  0  0  0  0  0  0  0  0
  137.3269   72.0533  220.5762 H   0  0  0  0  0  0  0  0  0  0  0  0
  136.2387   73.2187  221.4312 H   0  0  0  0  0  0  0  0  0  0  0  0
  139.4203   72.9267  218.6388 H   0  0  0  0  0  0  0  0  0  0  0  0
  140.6141   74.1596  218.7271 H   0  0  0  0  0  0  0  0  0  0  0  0
  140.4713   71.5484  220.4786 H   0  0  0  0  0  0  0  0  0  0  0  0
  141.7474   71.8646  219.3598 H   0  0  0  0  0  0  0  0  0  0  0  0
  142.0212   72.6917  221.9428 H   0  0  0  0  0  0  0  0  0  0  0  0
  142.5518   73.8212  220.7168 H   0  0  0  0  0  0  0  0  0  0  0  0
  140.1707   74.0499  222.5132 H   0  0  0  0  0  0  0  0  0  0  0  0
  143.7856   79.0114  222.4670 H   0  0  0  0  0  0  0  0  0  0  0  0
  143.9621   81.1409  223.6999 H   0  0  0  0  0  0  0  0  0  0  0  0
  141.9405   82.3236  224.5371 H   0  0  0  0  0  0  0  0  0  0  0  0
  139.6943   81.3083  224.1012 H   0  0  0  0  0  0  0  0  0  0  0  0
  139.5306   79.1820  222.8690 H   0  0  0  0  0  0  0  0  0  0  0  0
  142.0962   78.1656  219.7933 H   0  0  0  0  0  0  0  0  0  0  0  0
  140.4549   72.6788  223.9814 H   0  0  0  0  0  0  0  0  0  0  0  0
  141.5398   72.0344  226.1076 H   0  0  0  0  0  0  0  0  0  0  0  0
  141.8185   70.4457  227.8471 H   0  0  0  0  0  0  0  0  0  0  0  0
  139.6201   66.7832  227.7173 H   0  0  0  0  0  0  0  0  0  0  0  0
  138.5564   67.4454  225.6055 H   0  0  0  0  0  0  0  0  0  0  0  0
  1  2  2  0
  2  3  1  0
  3  4  1  0
  4  5  1  0
  5  6  2  0
  5  7  1  0
  7  8  1  0
  8  9  1  0
  9 10  1  0
 10 11  1  0
 11 12  1  0
 12 13  2  0
 13 14  1  0
 14 15  1  0
 15 16  2  0
 16 17  1  0
 17 18  2  0
 18 19  1  0
 19 20  2  0
 14 21  2  0
 21 22  1  0
  2 23  1  0
 23 24  2  0
 24 25  1  0
 25 26  2  0
 26 27  1  0
 27 28  2  0
 28 29  1  0
 28 30  1  0
 30 31  2  0
 31 32  1  0
 32 33  2  0
 11  7  1  0
 22 12  1  0
 33 23  1  0
 20 15  1  0
 32 26  1  0
  3 34  1  0
  4 35  1  0
  4 36  1  0
  8 37  1  0
  8 38  1  0
  9 39  1  0
  9 40  1  0
 10 41  1  0
 10 42  1  0
 11 43  1  1
 16 44  1  0
 17 45  1  0
 18 46  1  0
 19 47  1  0
 20 48  1  0
 21 49  1  0
 24 50  1  0
 25 51  1  0
 27 52  1  0
 30 53  1  0
 31 54  1  0
M  END
>  <smiles>  (4) 
O=C(NCC(=O)N1CCC[C@H]1c1nc(-c2ccccc2)co1)c1ccc2cc(F)ccc2n1

>  <score_type>  (4) 
oracle

>  <origin>  (4) 
autodockgpu

>  <m_score__min__energy>  (4) 
-9.1799999999999997

>  <m_primary>  (4) 
energy

>  <rmsd>  (4) 
3.457809190075629

>  <m_score__min__rmsd>  (4) 
3.457809190075629

>  <meeko>  (4) 
{"free_energy": -8.74, "intermolecular_energy": -10.53, "internal_energy": -1.96, "cluster_size": 6, "cluster_id": 2, "rank_in_cluster": 2}

>  <energy>  (4) 
-8.86

>  <cluster_rmsd>  (4) 
0.58

>  <cluster>  (4) 
1

$$$$

     RDKit          3D

 54 58  0  0  0  0  0  0  0  0999 V2000
  138.4650   70.5490  221.0930 O   0  0  0  0  0  0  0  0  0  0  0  0
  138.7490   71.3090  222.0660 C   0  0  0  0  0  0  0  0  0  0  0  0
  138.6240   72.7210  221.9000 N   0  0  0  0  0  0  0  0  0  0  0  0
  138.1700   73.1830  220.5980 C   0  0  0  0  0  0  0  0  0  0  0  0
  139.2040   72.9930  219.5790 C   0  0  0  0  0  0  0  0  0  0  0  0
  139.1350   72.1560  218.6340 O   0  0  0  0  0  0  0  0  0  0  0  0
  140.3790   73.7950  219.6340 N   0  0  0  0  0  0  0  0  0  0  0  0
  140.9820   74.5200  218.5170 C   0  0  0  0  0  0  0  0  0  0  0  0
  142.4260   74.0290  218.7000 C   0  0  0  0  0  0  0  0  0  0  0  0
  142.6170   74.3730  220.1710 C   0  0  0  0  0  0  0  0  0  0  0  0
  141.2370   74.0810  220.7700 C   0  0  1  0  0  0  0  0  0  0  0  0
  140.7750   75.2690  221.5320 C   0  0  0  0  0  0  0  0  0  0  0  0
  141.4250   76.4330  221.6890 N   0  0  0  0  0  0  0  0  0  0  0  0
  140.6790   77.2740  222.4520 C   0  0  0  0  0  0  0  0  0  0  0  0
  141.0060   78.6340  222.8680 C   0  0  0  0  0  0  0  0  0  0  0  0
  140.0510   79.5660  223.2210 C   0  0  0  0  0  0  0  0  0  0  0  0
  140.4450   80.8330  223.6040 C   0  0  0  0  0  0  0  0  0  0  0  0
  141.7800   81.2090  223.6460 C   0  0  0  0  0  0  0  0  0  0  0  0
  142.7290   80.2670  223.2890 C   0  0  0  0  0  0  0  0  0  0  0  0
  142.3270   79.0030  222.9080 C   0  0  0  0  0  0  0  0  0  0  0  0
  139.5340   76.5450  222.7480 C   0  0  0  0  0  0  0  0  0  0  0  0
  139.6450   75.3620  222.1760 O   0  0  0  0  0  0  0  0  0  0  0  0
  139.2010   70.7760  223.3510 C   0  0  0  0  0  0  0  0  0  0  0  0
  139.0550   69.4270  223.5850 C   0  0  0  0  0  0  0  0  0  0  0  0
  139.4440   68.8230  224.7560 C   0  0  0  0  0  0  0  0  0  0  0  0
  140.0060   69.6310  225.7290 C   0  0  0  0  0  0  0  0  0  0  0  0
  140.4080   69.0380  226.9220 C   0  0  0  0  0  0  0  0  0  0  0  0
  140.9710   69.8120  227.9110 C   0  0  0  0  0  0  0  0  0  0  0  0
  141.3710   69.2590  229.0840 F   0  0  0  0  0  0  0  0  0  0  0  0
  141.1080   71.1630  227.6530 C   0  0  0  0  0  0  0  0  0  0  0  0
  140.7110   71.7510  226.4720 C   0  0  0  0  0  0  0  0  0  0  0  0
  140.1450   70.9700  225.4820 C   0  0  0  0  0  0  0  0  0  0  0  0
  139.7460   71.5180  224.3120 N   0  0  0  0  0  0  0  0  0  0  0  0
  138.8560   73.3340  222.6930 H   0  0  0  0  0  0  0  0  0  0  0  0
  137.2728   72.6161  220.3089 H   0  0  0  0  0  0  0  0  0  0  0  0
  137.9438   74.2572  220.6688 H   0  0  0  0  0  0  0  0  0  0  0  0
  140.5589   74.2186  217.5474 H   0  0  0  0  0  0  0  0  0  0  0  0
  140.8390   75.6107  218.5152 H   0  0  0  0  0  0  0  0  0  0  0  0
  142.5198   72.9488  218.5146 H   0  0  0  0  0  0  0  0  0  0  0  0
  143.1637   74.4705  218.0138 H   0  0  0  0  0  0  0  0  0  0  0  0
  143.3901   73.7386  220.6291 H   0  0  0  0  0  0  0  0  0  0  0  0
  142.9535   75.4072  220.3362 H   0  0  0  0  0  0  0  0  0  0  0  0
  141.2386   73.2353  221.4735 H   0  0  0  0  0  0  0  0  0  0  0  0
  138.9836   79.3014  223.1974 H   0  0  0  0  0  0  0  0  0  0  0  0
  139.6759   81.5676  223.8848 H   0  0  0  0  0  0  0  0  0  0  0  0
  142.0746   82.2233  223.9532 H   0  0  0  0  0  0  0  0  0  0  0  0
  143.7983   80.5245  223.3088 H   0  0  0  0  0  0  0  0  0  0  0  0
  143.0927   78.2651  222.6264 H   0  0  0  0  0  0  0  0  0  0  0  0
  138.6841   76.8934  223.3532 H   0  0  0  0  0  0  0  0  0  0  0  0
  138.6059   68.8038  222.7976 H   0  0  0  0  0  0  0  0  0  0  0  0
  139.3142   67.7421  224.9137 H   0  0  0  0  0  0  0  0  0  0  0  0
  140.2765   67.9565  227.0737 H   0  0  0  0  0  0  0  0  0  0  0  0
  141.5564   71.8005  228.4293 H   0  0  0  0  0  0  0  0  0  0  0  0
  140.8433   72.8322  226.3184 H   0  0  0  0  0  0  0  0  0  0  0  0
  1  2  2  0
  2  3  1  0
  3  4  1  0
  4  5  1  0
  5  6  2  0
  5  7  1  0
  7  8  1  0
  8  9  1  0
  9 10  1  0
 10 11  1  0
 11 12  1  0
 12 13  2  0
 13 14  1  0
 14 15  1  0
 15 16  2  0
 16 17  1  0
 17 18  2  0
 18 19  1  0
 19 20  2  0
 14 21  2  0
 21 22  1  0
  2 23  1  0
 23 24  2  0
 24 25  1  0
 25 26  2  0
 26 27  1  0
 27 28  2  0
 28 29  1  0
 28 30  1  0
 30 31  2  0
 31 32  1  0
 32 33  2  0
 11  7  1  0
 22 12  1  0
 33 23  1  0
 20 15  1  0
 32 26  1  0
  3 34  1  0
  4 35  1  0
  4 36  1  0
  8 37  1  0
  8 38  1  0
  9 39  1  0
  9 40  1  0
 10 41  1  0
 10 42  1  0
 11 43  1  1
 16 44  1  0
 17 45  1  0
 18 46  1  0
 19 47  1  0
 20 48  1  0
 21 49  1  0
 24 50  1  0
 25 51  1  0
 27 52  1  0
 30 53  1  0
 31 54  1  0
M  END
>  <smiles>  (5) 
O=C(NCC(=O)N1CCC[C@H]1c1nc(-c2ccccc2)co1)c1ccc2cc(F)ccc2n1

>  <score_type>  (5) 
oracle

>  <origin>  (5) 
autodockgpu

>  <m_score__min__energy>  (5) 
-9.1799999999999997

>  <m_primary>  (5) 
energy

>  <rmsd>  (5) 
2.635691311908114

>  <m_score__min__rmsd>  (5) 
2.635691311908114

>  <meeko>  (5) 
{"free_energy": -8.51, "intermolecular_energy": -10.3, "internal_energy": -2.59, "cluster_size": 12, "cluster_id": 3, "rank_in_cluster": 10}

>  <energy>  (5) 
-7.9

>  <cluster_rmsd>  (5) 
1.98

>  <cluster>  (5) 
1

$$$$

     RDKit          3D

 54 58  0  0  0  0  0  0  0  0999 V2000
  138.9540   74.8010  221.5760 O   0  0  0  0  0  0  0  0  0  0  0  0
  140.1410   75.2430  221.5990 C   0  0  0  0  0  0  0  0  0  0  0  0
  140.3650   76.6000  221.9840 N   0  0  0  0  0  0  0  0  0  0  0  0
  139.1870   77.3790  222.3270 C   0  0  0  0  0  0  0  0  0  0  0  0
  139.5570   78.6720  222.9050 C   0  0  0  0  0  0  0  0  0  0  0  0
  138.7810   79.4050  223.5820 O   0  0  0  0  0  0  0  0  0  0  0  0
  140.8800   79.1600  222.7060 N   0  0  0  0  0  0  0  0  0  0  0  0
  142.0600   78.8030  223.4910 C   0  0  0  0  0  0  0  0  0  0  0  0
  142.5700   80.2240  223.7690 C   0  0  0  0  0  0  0  0  0  0  0  0
  142.5960   80.7570  222.3430 C   0  0  0  0  0  0  0  0  0  0  0  0
  141.3660   80.0980  221.7100 C   0  0  1  0  0  0  0  0  0  0  0  0
  141.7690   79.4190  220.4530 C   0  0  0  0  0  0  0  0  0  0  0  0
  141.8080   78.0960  220.2240 N   0  0  0  0  0  0  0  0  0  0  0  0
  142.2280   77.8640  218.9530 C   0  0  0  0  0  0  0  0  0  0  0  0
  142.4130   76.5770  218.2920 C   0  0  0  0  0  0  0  0  0  0  0  0
  141.4070   75.6400  218.1650 C   0  0  0  0  0  0  0  0  0  0  0  0
  141.6660   74.4450  217.5240 C   0  0  0  0  0  0  0  0  0  0  0  0
  142.9150   74.1460  216.9970 C   0  0  0  0  0  0  0  0  0  0  0  0
  143.9160   75.0920  217.1300 C   0  0  0  0  0  0  0  0  0  0  0  0
  143.6490   76.2840  217.7710 C   0  0  0  0  0  0  0  0  0  0  0  0
  142.4410   79.1310  218.4250 C   0  0  0  0  0  0  0  0  0  0  0  0
  142.1520   80.0160  219.3600 O   0  0  0  0  0  0  0  0  0  0  0  0
  141.2830   74.4020  221.2410 C   0  0  0  0  0  0  0  0  0  0  0  0
  141.0800   73.0450  221.1210 C   0  0  0  0  0  0  0  0  0  0  0  0
  142.0820   72.1650  220.7900 C   0  0  0  0  0  0  0  0  0  0  0  0
  143.3430   72.6920  220.5740 C   0  0  0  0  0  0  0  0  0  0  0  0
  144.3710   71.8170  220.2370 C   0  0  0  0  0  0  0  0  0  0  0  0
  145.6370   72.3090  220.0140 C   0  0  0  0  0  0  0  0  0  0  0  0
  146.6580   71.4760  219.6850 F   0  0  0  0  0  0  0  0  0  0  0  0
  145.8160   73.6740  220.1390 C   0  0  0  0  0  0  0  0  0  0  0  0
  144.7980   74.5410  220.4720 C   0  0  0  0  0  0  0  0  0  0  0  0
  143.5280   74.0440  220.6960 C   0  0  0  0  0  0  0  0  0  0  0  0
  142.5090   74.8700  221.0240 N   0  0  0  0  0  0  0  0  0  0  0  0
  141.3300   76.9550  222.0010 H   0  0  0  0  0  0  0  0  0  0  0  0
  138.5924   77.5496  221.4174 H   0  0  0  0  0  0  0  0  0  0  0  0
  138.6037   76.8185  223.0724 H   0  0  0  0  0  0  0  0  0  0  0  0
  141.7989   78.2659  224.4148 H   0  0  0  0  0  0  0  0  0  0  0  0
  142.7736   78.1203  223.0065 H   0  0  0  0  0  0  0  0  0  0  0  0
  141.8779   80.7920  224.4081 H   0  0  0  0  0  0  0  0  0  0  0  0
  143.5249   80.2839  224.3117 H   0  0  0  0  0  0  0  0  0  0  0  0
  142.5092   81.8535  222.3285 H   0  0  0  0  0  0  0  0  0  0  0  0
  143.5322   80.5313  221.8114 H   0  0  0  0  0  0  0  0  0  0  0  0
  140.5774   80.8161  221.4409 H   0  0  0  0  0  0  0  0  0  0  0  0
  140.4056   75.8443  218.5719 H   0  0  0  0  0  0  0  0  0  0  0  0
  140.8568   73.7061  217.4278 H   0  0  0  0  0  0  0  0  0  0  0  0
  143.1028   73.1880  216.4901 H   0  0  0  0  0  0  0  0  0  0  0  0
  144.9201   74.8945  216.7265 H   0  0  0  0  0  0  0  0  0  0  0  0
  144.4551   77.0262  217.8681 H   0  0  0  0  0  0  0  0  0  0  0  0
  142.7894   79.3569  217.4064 H   0  0  0  0  0  0  0  0  0  0  0  0
  140.0697   72.6476  221.2982 H   0  0  0  0  0  0  0  0  0  0  0  0
  141.8895   71.0857  220.7004 H   0  0  0  0  0  0  0  0  0  0  0  0
  144.1731   70.7385  220.1493 H   0  0  0  0  0  0  0  0  0  0  0  0
  146.8199   74.0883  219.9642 H   0  0  0  0  0  0  0  0  0  0  0  0
  144.9946   75.6198  220.5588 H   0  0  0  0  0  0  0  0  0  0  0  0
  1  2  2  0
  2  3  1  0
  3  4  1  0
  4  5  1  0
  5  6  2  0
  5  7  1  0
  7  8  1  0
  8  9  1  0
  9 10  1  0
 10 11  1  0
 11 12  1  0
 12 13  2  0
 13 14  1  0
 14 15  1  0
 15 16  2  0
 16 17  1  0
 17 18  2  0
 18 19  1  0
 19 20  2  0
 14 21  2  0
 21 22  1  0
  2 23  1  0
 23 24  2  0
 24 25  1  0
 25 26  2  0
 26 27  1  0
 27 28  2  0
 28 29  1  0
 28 30  1  0
 30 31  2  0
 31 32  1  0
 32 33  2  0
 11  7  1  0
 22 12  1  0
 33 23  1  0
 20 15  1  0
 32 26  1  0
  3 34  1  0
  4 35  1  0
  4 36  1  0
  8 37  1  0
  8 38  1  0
  9 39  1  0
  9 40  1  0
 10 41  1  0
 10 42  1  0
 11 43  1  6
 16 44  1  0
 17 45  1  0
 18 46  1  0
 19 47  1  0
 20 48  1  0
 21 49  1  0
 24 50  1  0
 25 51  1  0
 27 52  1  0
 30 53  1  0
 31 54  1  0
M  END
>  <smiles>  (6) 
O=C(NCC(=O)N1CCC[C@H]1c1nc(-c2ccccc2)co1)c1ccc2cc(F)ccc2n1

>  <score_type>  (6) 
oracle

>  <origin>  (6) 
autodockgpu

>  <m_score__min__energy>  (6) 
-9.1799999999999997

>  <m_primary>  (6) 
energy

>  <rmsd>  (6) 
6.781870772791405

>  <m_score__min__rmsd>  (6) 
6.781870772791405

>  <meeko>  (6) 
{"free_energy": -6.88, "intermolecular_energy": -8.67, "internal_energy": -4.2, "cluster_size": 20, "cluster_id": 5, "rank_in_cluster": 9}

>  <energy>  (6) 
-8.94

>  <cluster_rmsd>  (6) 
0.0

>  <cluster>  (6) 
2

$$$$

     RDKit          3D

 54 58  0  0  0  0  0  0  0  0999 V2000
  136.7530   70.6760  221.5940 O   0  0  0  0  0  0  0  0  0  0  0  0
  137.4290   71.3790  222.4020 C   0  0  0  0  0  0  0  0  0  0  0  0
  137.5220   72.7870  222.1810 N   0  0  0  0  0  0  0  0  0  0  0  0
  136.8160   73.3090  221.0230 C   0  0  0  0  0  0  0  0  0  0  0  0
  136.7320   74.7700  221.0690 C   0  0  0  0  0  0  0  0  0  0  0  0
  135.7640   75.4480  220.6190 O   0  0  0  0  0  0  0  0  0  0  0  0
  137.8020   75.5020  221.6580 N   0  0  0  0  0  0  0  0  0  0  0  0
  137.8400   76.0290  223.0210 C   0  0  0  0  0  0  0  0  0  0  0  0
  138.2720   77.4630  222.6830 C   0  0  0  0  0  0  0  0  0  0  0  0
  139.4940   77.1560  221.8290 C   0  0  0  0  0  0  0  0  0  0  0  0
  139.0720   75.8920  221.0730 C   0  0  1  0  0  0  0  0  0  0  0  0
  140.1110   74.8460  221.2500 C   0  0  0  0  0  0  0  0  0  0  0  0
  141.3040   74.7790  220.6370 N   0  0  0  0  0  0  0  0  0  0  0  0
  141.9750   73.6760  221.0610 C   0  0  0  0  0  0  0  0  0  0  0  0
  143.3000   73.2210  220.6530 C   0  0  0  0  0  0  0  0  0  0  0  0
  143.5390   71.9690  220.1250 C   0  0  0  0  0  0  0  0  0  0  0  0
  144.8250   71.6180  219.7640 C   0  0  0  0  0  0  0  0  0  0  0  0
  145.8970   72.4850  219.9140 C   0  0  0  0  0  0  0  0  0  0  0  0
  145.6460   73.7380  220.4460 C   0  0  0  0  0  0  0  0  0  0  0  0
  144.3580   74.0820  220.8040 C   0  0  0  0  0  0  0  0  0  0  0  0
  141.1110   73.0780  221.9710 C   0  0  0  0  0  0  0  0  0  0  0  0
  140.0210   73.8160  222.0430 O   0  0  0  0  0  0  0  0  0  0  0  0
  138.1160   70.7870  223.5500 C   0  0  0  0  0  0  0  0  0  0  0  0
  137.8650   69.4670  223.8490 C   0  0  0  0  0  0  0  0  0  0  0  0
  138.4550   68.8120  224.9040 C   0  0  0  0  0  0  0  0  0  0  0  0
  139.3370   69.5380  225.6850 C   0  0  0  0  0  0  0  0  0  0  0  0
  139.9450   68.8930  226.7580 C   0  0  0  0  0  0  0  0  0  0  0  0
  140.8280   69.5850  227.5560 C   0  0  0  0  0  0  0  0  0  0  0  0
  141.4350   68.9800  228.6090 F   0  0  0  0  0  0  0  0  0  0  0  0
  141.0650   70.9080  227.2350 C   0  0  0  0  0  0  0  0  0  0  0  0
  140.4630   71.5470  226.1730 C   0  0  0  0  0  0  0  0  0  0  0  0
  139.5770   70.8500  225.3750 C   0  0  0  0  0  0  0  0  0  0  0  0
  138.9710   71.4500  224.3250 N   0  0  0  0  0  0  0  0  0  0  0  0
  138.0720   73.3540  222.8400 H   0  0  0  0  0  0  0  0  0  0  0  0
  137.3520   73.0089  220.1105 H   0  0  0  0  0  0  0  0  0  0  0  0
  135.7945   72.9009  221.0244 H   0  0  0  0  0  0  0  0  0  0  0  0
  136.8546   75.9946  223.5087 H   0  0  0  0  0  0  0  0  0  0  0  0
  138.4812   75.4861  223.7310 H   0  0  0  0  0  0  0  0  0  0  0  0
  137.4991   78.0026  222.1161 H   0  0  0  0  0  0  0  0  0  0  0  0
  138.4554   78.1157  223.5493 H   0  0  0  0  0  0  0  0  0  0  0  0
  139.7083   77.9806  221.1333 H   0  0  0  0  0  0  0  0  0  0  0  0
  140.4141   77.0244  222.4173 H   0  0  0  0  0  0  0  0  0  0  0  0
  138.9651   76.0499  219.9897 H   0  0  0  0  0  0  0  0  0  0  0  0
  142.7119   71.2560  219.9926 H   0  0  0  0  0  0  0  0  0  0  0  0
  145.0050   70.6176  219.3436 H   0  0  0  0  0  0  0  0  0  0  0  0
  146.9140   72.1865  219.6197 H   0  0  0  0  0  0  0  0  0  0  0  0
  146.4684   74.4556  220.5827 H   0  0  0  0  0  0  0  0  0  0  0  0
  144.1731   75.0813  221.2251 H   0  0  0  0  0  0  0  0  0  0  0  0
  141.3030   72.1517  222.5324 H   0  0  0  0  0  0  0  0  0  0  0  0
  137.1597   68.9104  223.2144 H   0  0  0  0  0  0  0  0  0  0  0  0
  138.2353   67.7557  225.1182 H   0  0  0  0  0  0  0  0  0  0  0  0
  139.7213   67.8365  226.9672 H   0  0  0  0  0  0  0  0  0  0  0  0
  141.7690   71.4792  227.8580 H   0  0  0  0  0  0  0  0  0  0  0  0
  140.6862   72.6034  225.9625 H   0  0  0  0  0  0  0  0  0  0  0  0
  1  2  2  0
  2  3  1  0
  3  4  1  0
  4  5  1  0
  5  6  2  0
  5  7  1  0
  7  8  1  0
  8  9  1  0
  9 10  1  0
 10 11  1  0
 11 12  1  0
 12 13  2  0
 13 14  1  0
 14 15  1  0
 15 16  2  0
 16 17  1  0
 17 18  2  0
 18 19  1  0
 19 20  2  0
 14 21  2  0
 21 22  1  0
  2 23  1  0
 23 24  2  0
 24 25  1  0
 25 26  2  0
 26 27  1  0
 27 28  2  0
 28 29  1  0
 28 30  1  0
 30 31  2  0
 31 32  1  0
 32 33  2  0
 11  7  1  0
 22 12  1  0
 33 23  1  0
 20 15  1  0
 32 26  1  0
  3 34  1  0
  4 35  1  0
  4 36  1  0
  8 37  1  0
  8 38  1  0
  9 39  1  0
  9 40  1  0
 10 41  1  0
 10 42  1  0
 11 43  1  6
 16 44  1  0
 17 45  1  0
 18 46  1  0
 19 47  1  0
 20 48  1  0
 21 49  1  0
 24 50  1  0
 25 51  1  0
 27 52  1  0
 30 53  1  0
 31 54  1  0
M  END
>  <smiles>  (7) 
O=C(NCC(=O)N1CCC[C@H]1c1nc(-c2ccccc2)co1)c1ccc2cc(F)ccc2n1

>  <score_type>  (7) 
oracle

>  <origin>  (7) 
autodockgpu

>  <m_score__min__energy>  (7) 
-9.1799999999999997

>  <m_primary>  (7) 
energy

>  <rmsd>  (7) 
5.4189260801930486

>  <m_score__min__rmsd>  (7) 
5.4189260801930486

>  <meeko>  (7) 
{"free_energy": -7.9, "intermolecular_energy": -9.69, "internal_energy": -2.87, "cluster_size": 5, "cluster_id": 1, "rank_in_cluster": 5}

>  <energy>  (7) 
-8.74

>  <cluster_rmsd>  (7) 
1.77

>  <cluster>  (7) 
2

$$$$

     RDKit          3D

 54 58  0  0  0  0  0  0  0  0999 V2000
  138.7600   70.3820  221.4330 O   0  0  0  0  0  0  0  0  0  0  0  0
  138.9690   71.2280  222.3530 C   0  0  0  0  0  0  0  0  0  0  0  0
  138.6970   72.6070  222.0970 N   0  0  0  0  0  0  0  0  0  0  0  0
  138.1900   72.9330  220.7750 C   0  0  0  0  0  0  0  0  0  0  0  0
  139.2190   72.7400  219.7520 C   0  0  0  0  0  0  0  0  0  0  0  0
  139.1360   71.9160  218.7970 O   0  0  0  0  0  0  0  0  0  0  0  0
  140.4060   73.5250  219.8130 N   0  0  0  0  0  0  0  0  0  0  0  0
  141.0690   74.1770  218.6860 C   0  0  0  0  0  0  0  0  0  0  0  0
  142.4940   73.6730  218.9570 C   0  0  0  0  0  0  0  0  0  0  0  0
  142.6290   74.0940  220.4140 C   0  0  0  0  0  0  0  0  0  0  0  0
  141.2200   73.8590  220.9680 C   0  0  1  0  0  0  0  0  0  0  0  0
  140.7490   75.0940  221.6440 C   0  0  0  0  0  0  0  0  0  0  0  0
  141.4230   76.2460  221.7860 N   0  0  0  0  0  0  0  0  0  0  0  0
  140.6580   77.1430  222.4620 C   0  0  0  0  0  0  0  0  0  0  0  0
  141.0000   78.5120  222.8330 C   0  0  0  0  0  0  0  0  0  0  0  0
  142.2800   79.0210  222.7460 C   0  0  0  0  0  0  0  0  0  0  0  0
  142.5180   80.3300  223.1170 C   0  0  0  0  0  0  0  0  0  0  0  0
  141.5090   81.1620  223.5800 C   0  0  0  0  0  0  0  0  0  0  0  0
  140.2290   80.6410  223.6630 C   0  0  0  0  0  0  0  0  0  0  0  0
  139.9990   79.3320  223.2900 C   0  0  0  0  0  0  0  0  0  0  0  0
  139.4760   76.4600  222.7200 C   0  0  0  0  0  0  0  0  0  0  0  0
  139.5860   75.2490  222.2120 O   0  0  0  0  0  0  0  0  0  0  0  0
  139.4810   70.8300  223.6640 C   0  0  0  0  0  0  0  0  0  0  0  0
  140.2430   71.7340  224.3680 C   0  0  0  0  0  0  0  0  0  0  0  0
  140.7740   71.4630  225.6060 C   0  0  0  0  0  0  0  0  0  0  0  0
  140.5150   70.2160  226.1470 C   0  0  0  0  0  0  0  0  0  0  0  0
  141.0440   69.9230  227.4000 C   0  0  0  0  0  0  0  0  0  0  0  0
  140.8050   68.6910  227.9680 C   0  0  0  0  0  0  0  0  0  0  0  0
  141.3090   68.3790  229.1890 F   0  0  0  0  0  0  0  0  0  0  0  0
  140.0360   67.8000  227.2420 C   0  0  0  0  0  0  0  0  0  0  0  0
  139.5130   68.0910  226.0010 C   0  0  0  0  0  0  0  0  0  0  0  0
  139.7550   69.3270  225.4350 C   0  0  0  0  0  0  0  0  0  0  0  0
  139.2540   69.6410  224.2180 N   0  0  0  0  0  0  0  0  0  0  0  0
  138.8680   73.2900  222.8470 H   0  0  0  0  0  0  0  0  0  0  0  0
  137.3325   72.2822  220.5489 H   0  0  0  0  0  0  0  0  0  0  0  0
  137.8862   73.9902  220.7689 H   0  0  0  0  0  0  0  0  0  0  0  0
  140.6814   73.8299  217.7168 H   0  0  0  0  0  0  0  0  0  0  0  0
  140.9470   75.2682  218.6192 H   0  0  0  0  0  0  0  0  0  0  0  0
  142.5752   72.5829  218.8345 H   0  0  0  0  0  0  0  0  0  0  0  0
  143.2683   74.0637  218.2803 H   0  0  0  0  0  0  0  0  0  0  0  0
  143.3697   73.4727  220.9388 H   0  0  0  0  0  0  0  0  0  0  0  0
  142.9778   75.1299  220.5371 H   0  0  0  0  0  0  0  0  0  0  0  0
  141.1755   73.0538  221.7161 H   0  0  0  0  0  0  0  0  0  0  0  0
  143.1043   78.3890  222.3840 H   0  0  0  0  0  0  0  0  0  0  0  0
  143.5416   80.7260  223.0429 H   0  0  0  0  0  0  0  0  0  0  0  0
  141.7191   82.2016  223.8716 H   0  0  0  0  0  0  0  0  0  0  0  0
  139.3997   81.2668  224.0243 H   0  0  0  0  0  0  0  0  0  0  0  0
  138.9768   78.9319  223.3616 H   0  0  0  0  0  0  0  0  0  0  0  0
  138.6017   76.8599  223.2545 H   0  0  0  0  0  0  0  0  0  0  0  0
  140.4360   72.7194  223.9188 H   0  0  0  0  0  0  0  0  0  0  0  0
  141.3799   72.2065  226.1447 H   0  0  0  0  0  0  0  0  0  0  0  0
  141.6493   70.6705  227.9337 H   0  0  0  0  0  0  0  0  0  0  0  0
  139.8318   66.8104  227.6766 H   0  0  0  0  0  0  0  0  0  0  0  0
  138.9076   67.3448  225.4655 H   0  0  0  0  0  0  0  0  0  0  0  0
  1  2  2  0
  2  3  1  0
  3  4  1  0
  4  5  1  0
  5  6  2  0
  5  7  1  0
  7  8  1  0
  8  9  1  0
  9 10  1  0
 10 11  1  0
 11 12  1  0
 12 13  2  0
 13 14  1  0
 14 15  1  0
 15 16  2  0
 16 17  1  0
 17 18  2  0
 18 19  1  0
 19 20  2  0
 14 21  2  0
 21 22  1  0
  2 23  1  0
 23 24  2  0
 24 25  1  0
 25 26  2  0
 26 27  1  0
 27 28  2  0
 28 29  1  0
 28 30  1  0
 30 31  2  0
 31 32  1  0
 32 33  2  0
 11  7  1  0
 22 12  1  0
 33 23  1  0
 20 15  1  0
 32 26  1  0
  3 34  1  0
  4 35  1  0
  4 36  1  0
  8 37  1  0
  8 38  1  0
  9 39  1  0
  9 40  1  0
 10 41  1  0
 10 42  1  0
 11 43  1  1
 16 44  1  0
 17 45  1  0
 18 46  1  0
 19 47  1  0
 20 48  1  0
 21 49  1  0
 24 50  1  0
 25 51  1  0
 27 52  1  0
 30 53  1  0
 31 54  1  0
M  END
>  <smiles>  (8) 
O=C(NCC(=O)N1CCC[C@H]1c1nc(-c2ccccc2)co1)c1ccc2cc(F)ccc2n1

>  <score_type>  (8) 
oracle

>  <origin>  (8) 
autodockgpu

>  <m_score__min__energy>  (8) 
-9.1799999999999997

>  <m_primary>  (8) 
energy

>  <rmsd>  (8) 
3.424063732792767

>  <m_score__min__rmsd>  (8) 
3.424063732792767

>  <meeko>  (8) 
{"free_energy": -8.91, "intermolecular_energy": -10.7, "internal_energy": -2.49, "cluster_size": 12, "cluster_id": 3, "rank_in_cluster": 5}

>  <energy>  (8) 
-8.63

>  <cluster_rmsd>  (8) 
1.79

>  <cluster>  (8) 
2

$$$$

     RDKit          3D

 54 58  0  0  0  0  0  0  0  0999 V2000
  137.7660   69.6780  221.9660 O   0  0  0  0  0  0  0  0  0  0  0  0
  137.9810   70.3730  223.0030 C   0  0  0  0  0  0  0  0  0  0  0  0
  137.5120   71.7220  223.0390 N   0  0  0  0  0  0  0  0  0  0  0  0
  136.8110   72.1970  221.8580 C   0  0  0  0  0  0  0  0  0  0  0  0
  137.2170   73.5610  221.5150 C   0  0  0  0  0  0  0  0  0  0  0  0
  136.4400   74.5580  221.4970 O   0  0  0  0  0  0  0  0  0  0  0  0
  138.5770   73.8090  221.1740 N   0  0  0  0  0  0  0  0  0  0  0  0
  139.2070   73.5330  219.8840 C   0  0  0  0  0  0  0  0  0  0  0  0
  140.4400   72.7810  220.4060 C   0  0  0  0  0  0  0  0  0  0  0  0
  140.9360   73.8020  221.4220 C   0  0  0  0  0  0  0  0  0  0  0  0
  139.6340   74.3750  221.9910 C   0  0  1  0  0  0  0  0  0  0  0  0
  139.6740   75.8570  221.9020 C   0  0  0  0  0  0  0  0  0  0  0  0
  140.4970   76.6860  222.5640 N   0  0  0  0  0  0  0  0  0  0  0  0
  140.2280   77.9720  222.2170 C   0  0  0  0  0  0  0  0  0  0  0  0
  140.8820   79.1850  222.6960 C   0  0  0  0  0  0  0  0  0  0  0  0
  140.5300   80.4500  222.2730 C   0  0  0  0  0  0  0  0  0  0  0  0
  141.2000   81.5470  222.7770 C   0  0  0  0  0  0  0  0  0  0  0  0
  142.2260   81.4240  223.7030 C   0  0  0  0  0  0  0  0  0  0  0  0
  142.5710   80.1510  224.1190 C   0  0  0  0  0  0  0  0  0  0  0  0
  141.8970   79.0590  223.6120 C   0  0  0  0  0  0  0  0  0  0  0  0
  139.1880   77.8690  221.3010 C   0  0  0  0  0  0  0  0  0  0  0  0
  138.9000   76.5910  221.1530 O   0  0  0  0  0  0  0  0  0  0  0  0
  138.6950   69.8310  224.1590 C   0  0  0  0  0  0  0  0  0  0  0  0
  138.8320   68.4640  224.2570 C   0  0  0  0  0  0  0  0  0  0  0  0
  139.4830   67.8500  225.3010 C   0  0  0  0  0  0  0  0  0  0  0  0
  140.0140   68.6660  226.2830 C   0  0  0  0  0  0  0  0  0  0  0  0
  140.6780   68.0630  227.3480 C   0  0  0  0  0  0  0  0  0  0  0  0
  141.2190   68.8450  228.3420 C   0  0  0  0  0  0  0  0  0  0  0  0
  141.8710   68.2830  229.3920 F   0  0  0  0  0  0  0  0  0  0  0  0
  141.0700   70.2140  228.2210 C   0  0  0  0  0  0  0  0  0  0  0  0
  140.4130   70.8110  227.1670 C   0  0  0  0  0  0  0  0  0  0  0  0
  139.8700   70.0230  226.1710 C   0  0  0  0  0  0  0  0  0  0  0  0
  139.2210   70.5810  225.1240 N   0  0  0  0  0  0  0  0  0  0  0  0
  137.6890   72.2820  223.8840 H   0  0  0  0  0  0  0  0  0  0  0  0
  137.0397   71.5312  221.0128 H   0  0  0  0  0  0  0  0  0  0  0  0
  135.7316   72.1974  222.0699 H   0  0  0  0  0  0  0  0  0  0  0  0
  138.5770   72.9032  219.2387 H   0  0  0  0  0  0  0  0  0  0  0  0
  139.4080   74.4074  219.2476 H   0  0  0  0  0  0  0  0  0  0  0  0
  140.1694   71.8262  220.8805 H   0  0  0  0  0  0  0  0  0  0  0  0
  141.1714   72.4858  219.6392 H   0  0  0  0  0  0  0  0  0  0  0  0
  141.5338   73.3194  222.2092 H   0  0  0  0  0  0  0  0  0  0  0  0
  141.5940   74.5673  220.9846 H   0  0  0  0  0  0  0  0  0  0  0  0
  139.4760   74.1259  223.0507 H   0  0  0  0  0  0  0  0  0  0  0  0
  139.7213   80.5837  221.5394 H   0  0  0  0  0  0  0  0  0  0  0  0
  140.9110   82.5511  222.4332 H   0  0  0  0  0  0  0  0  0  0  0  0
  142.7479   82.3101  224.0935 H   0  0  0  0  0  0  0  0  0  0  0  0
  143.3796   80.0096  224.8512 H   0  0  0  0  0  0  0  0  0  0  0  0
  142.1826   78.0531  223.9533 H   0  0  0  0  0  0  0  0  0  0  0  0
  138.6921   78.7069  220.7892 H   0  0  0  0  0  0  0  0  0  0  0  0
  138.4011   67.8349  223.4642 H   0  0  0  0  0  0  0  0  0  0  0  0
  139.5775   66.7553  225.3528 H   0  0  0  0  0  0  0  0  0  0  0  0
  140.7694   66.9678  227.3942 H   0  0  0  0  0  0  0  0  0  0  0  0
  141.4966   70.8581  229.0041 H   0  0  0  0  0  0  0  0  0  0  0  0
  140.3217   71.9062  227.1193 H   0  0  0  0  0  0  0  0  0  0  0  0
  1  2  2  0
  2  3  1  0
  3  4  1  0
  4  5  1  0
  5  6  2  0
  5  7  1  0
  7  8  1  0
  8  9  1  0
  9 10  1  0
 10 11  1  0
 11 12  1  0
 12 13  2  0
 13 14  1  0
 14 15  1  0
 15 16  2  0
 16 17  1  0
 17 18  2  0
 18 19  1  0
 19 20  2  0
 14 21  2  0
 21 22  1  0
  2 23  1  0
 23 24  2  0
 24 25  1  0
 25 26  2  0
 26 27  1  0
 27 28  2  0
 28 29  1  0
 28 30  1  0
 30 31  2  0
 31 32  1  0
 32 33  2  0
 11  7  1  0
 22 12  1  0
 33 23  1  0
 20 15  1  0
 32 26  1  0
  3 34  1  0
  4 35  1  0
  4 36  1  0
  8 37  1  0
  8 38  1  0
  9 39  1  0
  9 40  1  0
 10 41  1  0
 10 42  1  0
 11 43  1  1
 16 44  1  0
 17 45  1  0
 18 46  1  0
 19 47  1  0
 20 48  1  0
 21 49  1  0
 24 50  1  0
 25 51  1  0
 27 52  1  0
 30 53  1  0
 31 54  1  0
M  END
>  <smiles>  (9) 
O=C(NCC(=O)N1CCC[C@H]1c1nc(-c2ccccc2)co1)c1ccc2cc(F)ccc2n1

>  <score_type>  (9) 
oracle

>  <origin>  (9) 
autodockgpu

>  <m_score__min__energy>  (9) 
-9.1799999999999997

>  <m_primary>  (9) 
energy

>  <rmsd>  (9) 
3.0361149719764113

>  <m_score__min__rmsd>  (9) 
3.0361149719764113

>  <meeko>  (9) 
{"free_energy": -8.48, "intermolecular_energy": -10.27, "internal_energy": -1.9, "cluster_size": 6, "cluster_id": 2, "rank_in_cluster": 5}

>  <energy>  (9) 
-8.58

>  <cluster_rmsd>  (9) 
1.08

>  <cluster>  (9) 
2

$$$$

     RDKit          3D

 54 58  0  0  0  0  0  0  0  0999 V2000
  139.0260   70.3530  221.3390 O   0  0  0  0  0  0  0  0  0  0  0  0
  139.1500   71.1990  222.2730 C   0  0  0  0  0  0  0  0  0  0  0  0
  138.8260   72.5660  222.0150 N   0  0  0  0  0  0  0  0  0  0  0  0
  138.3690   72.8810  220.6720 C   0  0  0  0  0  0  0  0  0  0  0  0
  139.4350   72.6790  219.6890 C   0  0  0  0  0  0  0  0  0  0  0  0
  139.4990   71.7030  218.8890 O   0  0  0  0  0  0  0  0  0  0  0  0
  140.4860   73.6370  219.6080 N   0  0  0  0  0  0  0  0  0  0  0  0
  140.8540   74.4170  218.4280 C   0  0  0  0  0  0  0  0  0  0  0  0
  142.3630   74.1340  218.4490 C   0  0  0  0  0  0  0  0  0  0  0  0
  142.6660   74.5290  219.8880 C   0  0  0  0  0  0  0  0  0  0  0  0
  141.4160   74.0610  220.6390 C   0  0  1  0  0  0  0  0  0  0  0  0
  140.8800   75.1880  221.4450 C   0  0  0  0  0  0  0  0  0  0  0  0
  141.4380   76.3970  221.6170 N   0  0  0  0  0  0  0  0  0  0  0  0
  140.6470   77.1550  222.4210 C   0  0  0  0  0  0  0  0  0  0  0  0
  140.8740   78.5260  222.8640 C   0  0  0  0  0  0  0  0  0  0  0  0
  139.8560   79.3700  223.2590 C   0  0  0  0  0  0  0  0  0  0  0  0
  140.1560   80.6550  223.6650 C   0  0  0  0  0  0  0  0  0  0  0  0
  141.4580   81.1360  223.6920 C   0  0  0  0  0  0  0  0  0  0  0  0
  142.4700   80.2810  223.2940 C   0  0  0  0  0  0  0  0  0  0  0  0
  142.1620   78.9980  222.8890 C   0  0  0  0  0  0  0  0  0  0  0  0
  139.5740   76.3270  222.7260 C   0  0  0  0  0  0  0  0  0  0  0  0
  139.7650   75.1720  222.1190 O   0  0  0  0  0  0  0  0  0  0  0  0
  139.6170   70.8130  223.6050 C   0  0  0  0  0  0  0  0  0  0  0  0
  140.3190   71.7400  224.3430 C   0  0  0  0  0  0  0  0  0  0  0  0
  140.8030   71.4820  225.6030 C   0  0  0  0  0  0  0  0  0  0  0  0
  140.5610   70.2250  226.1300 C   0  0  0  0  0  0  0  0  0  0  0  0
  141.0430   69.9450  227.4050 C   0  0  0  0  0  0  0  0  0  0  0  0
  140.8200   68.7040  227.9590 C   0  0  0  0  0  0  0  0  0  0  0  0
  141.2790   68.4050  229.2000 F   0  0  0  0  0  0  0  0  0  0  0  0
  140.1130   67.7920  227.1990 C   0  0  0  0  0  0  0  0  0  0  0  0
  139.6350   68.0690  225.9360 C   0  0  0  0  0  0  0  0  0  0  0  0
  139.8620   69.3150  225.3830 C   0  0  0  0  0  0  0  0  0  0  0  0
  139.4050   69.6160  224.1470 N   0  0  0  0  0  0  0  0  0  0  0  0
  138.9290   73.2500  222.7770 H   0  0  0  0  0  0  0  0  0  0  0  0
  137.5200   72.2287  220.4197 H   0  0  0  0  0  0  0  0  0  0  0  0
  138.0669   73.9384  220.6459 H   0  0  0  0  0  0  0  0  0  0  0  0
  140.3721   74.0416  217.5132 H   0  0  0  0  0  0  0  0  0  0  0  0
  140.5608   75.4772  218.4386 H   0  0  0  0  0  0  0  0  0  0  0  0
  142.5855   73.0738  218.2578 H   0  0  0  0  0  0  0  0  0  0  0  0
  142.9513   74.6601  217.6827 H   0  0  0  0  0  0  0  0  0  0  0  0
  143.5659   74.0163  220.2585 H   0  0  0  0  0  0  0  0  0  0  0  0
  142.8712   75.6027  220.0108 H   0  0  0  0  0  0  0  0  0  0  0  0
  141.6136   73.2374  221.3409 H   0  0  0  0  0  0  0  0  0  0  0  0
  138.8128   79.0213  223.2504 H   0  0  0  0  0  0  0  0  0  0  0  0
  139.3367   81.3193  223.9772 H   0  0  0  0  0  0  0  0  0  0  0  0
  141.6776   82.1630  224.0191 H   0  0  0  0  0  0  0  0  0  0  0  0
  143.5157   80.6222  223.3003 H   0  0  0  0  0  0  0  0  0  0  0  0
  142.9780   78.3304  222.5752 H   0  0  0  0  0  0  0  0  0  0  0  0
  138.7157   76.5889  223.3622 H   0  0  0  0  0  0  0  0  0  0  0  0
  140.5005   72.7321  223.9039 H   0  0  0  0  0  0  0  0  0  0  0  0
  141.3598   72.2430  226.1695 H   0  0  0  0  0  0  0  0  0  0  0  0
  141.5987   70.7101  227.9669 H   0  0  0  0  0  0  0  0  0  0  0  0
  139.9220   66.7951  227.6230 H   0  0  0  0  0  0  0  0  0  0  0  0
  139.0780   67.3052  225.3735 H   0  0  0  0  0  0  0  0  0  0  0  0
  1  2  2  0
  2  3  1  0
  3  4  1  0
  4  5  1  0
  5  6  2  0
  5  7  1  0
  7  8  1  0
  8  9  1  0
  9 10  1  0
 10 11  1  0
 11 12  1  0
 12 13  2  0
 13 14  1  0
 14 15  1  0
 15 16  2  0
 16 17  1  0
 17 18  2  0
 18 19  1  0
 19 20  2  0
 14 21  2  0
 21 22  1  0
  2 23  1  0
 23 24  2  0
 24 25  1  0
 25 26  2  0
 26 27  1  0
 27 28  2  0
 28 29  1  0
 28 30  1  0
 30 31  2  0
 31 32  1  0
 32 33  2  0
 11  7  1  0
 22 12  1  0
 33 23  1  0
 20 15  1  0
 32 26  1  0
  3 34  1  0
  4 35  1  0
  4 36  1  0
  8 37  1  0
  8 38  1  0
  9 39  1  0
  9 40  1  0
 10 41  1  0
 10 42  1  0
 11 43  1  1
 16 44  1  0
 17 45  1  0
 18 46  1  0
 19 47  1  0
 20 48  1  0
 21 49  1  0
 24 50  1  0
 25 51  1  0
 27 52  1  0
 30 53  1  0
 31 54  1  0
M  END
>  <smiles>  (10) 
O=C(NCC(=O)N1CCC[C@H]1c1nc(-c2ccccc2)co1)c1ccc2cc(F)ccc2n1

>  <score_type>  (10) 
oracle

>  <origin>  (10) 
autodockgpu

>  <m_score__min__energy>  (10) 
-9.1799999999999997

>  <m_primary>  (10) 
energy

>  <rmsd>  (10) 
3.16889434264665

>  <m_score__min__rmsd>  (10) 
3.16889434264665

>  <meeko>  (10) 
{"free_energy": -8.83, "intermolecular_energy": -10.62, "internal_energy": -2.41, "cluster_size": 12, "cluster_id": 3, "rank_in_cluster": 6}

>  <energy>  (10) 
-8.48

>  <cluster_rmsd>  (10) 
1.75

>  <cluster>  (10) 
2

$$$$

     RDKit          3D

 54 58  0  0  0  0  0  0  0  0999 V2000
  141.2200   73.1100  221.4320 O   0  0  0  0  0  0  0  0  0  0  0  0
  140.2600   73.0560  222.2580 C   0  0  0  0  0  0  0  0  0  0  0  0
  139.3340   74.1410  222.3110 N   0  0  0  0  0  0  0  0  0  0  0  0
  139.5710   75.2420  221.3930 C   0  0  0  0  0  0  0  0  0  0  0  0
  139.5940   76.5240  222.1000 C   0  0  0  0  0  0  0  0  0  0  0  0
  138.8010   76.8450  223.0300 O   0  0  0  0  0  0  0  0  0  0  0  0
  140.5690   77.4940  221.7310 N   0  0  0  0  0  0  0  0  0  0  0  0
  141.4020   78.2710  222.6470 C   0  0  0  0  0  0  0  0  0  0  0  0
  141.1400   79.6600  222.0470 C   0  0  0  0  0  0  0  0  0  0  0  0
  141.4790   79.3660  220.5920 C   0  0  0  0  0  0  0  0  0  0  0  0
  140.9630   77.9350  220.4060 C   0  0  1  0  0  0  0  0  0  0  0  0
  142.0470   77.0950  219.8370 C   0  0  0  0  0  0  0  0  0  0  0  0
  142.5850   75.9910  220.3800 N   0  0  0  0  0  0  0  0  0  0  0  0
  143.5520   75.5030  219.5600 C   0  0  0  0  0  0  0  0  0  0  0  0
  144.3870   74.3240  219.7630 C   0  0  0  0  0  0  0  0  0  0  0  0
  145.2470   74.1820  220.8330 C   0  0  0  0  0  0  0  0  0  0  0  0
  146.0030   73.0320  220.9510 C   0  0  0  0  0  0  0  0  0  0  0  0
  145.9290   72.0020  220.0240 C   0  0  0  0  0  0  0  0  0  0  0  0
  145.0640   72.1550  218.9550 C   0  0  0  0  0  0  0  0  0  0  0  0
  144.3120   73.3070  218.8440 C   0  0  0  0  0  0  0  0  0  0  0  0
  143.5660   76.3810  218.4840 C   0  0  0  0  0  0  0  0  0  0  0  0
  142.6520   77.3070  218.7020 O   0  0  0  0  0  0  0  0  0  0  0  0
  140.0800   71.9140  223.1550 C   0  0  0  0  0  0  0  0  0  0  0  0
  139.4330   70.8000  222.6700 C   0  0  0  0  0  0  0  0  0  0  0  0
  139.2100   69.6740  223.4260 C   0  0  0  0  0  0  0  0  0  0  0  0
  139.6670   69.6880  224.7320 C   0  0  0  0  0  0  0  0  0  0  0  0
  139.4510   68.5580  225.5140 C   0  0  0  0  0  0  0  0  0  0  0  0
  139.8940   68.5370  226.8170 C   0  0  0  0  0  0  0  0  0  0  0  0
  139.6960   67.4470  227.6010 F   0  0  0  0  0  0  0  0  0  0  0  0
  140.5420   69.6670  227.2810 C   0  0  0  0  0  0  0  0  0  0  0  0
  140.7550   70.7870  226.5070 C   0  0  0  0  0  0  0  0  0  0  0  0
  140.3100   70.8030  225.2000 C   0  0  0  0  0  0  0  0  0  0  0  0
  140.5050   71.8880  224.4160 N   0  0  0  0  0  0  0  0  0  0  0  0
  138.5560   74.0920  222.9830 H   0  0  0  0  0  0  0  0  0  0  0  0
  140.5389   75.0904  220.8929 H   0  0  0  0  0  0  0  0  0  0  0  0
  138.7540   75.2643  220.6568 H   0  0  0  0  0  0  0  0  0  0  0  0
  141.0579   78.1955  223.6891 H   0  0  0  0  0  0  0  0  0  0  0  0
  142.4566   77.9663  222.7172 H   0  0  0  0  0  0  0  0  0  0  0  0
  140.0920   79.9705  222.1706 H   0  0  0  0  0  0  0  0  0  0  0  0
  141.7059   80.4848  222.5047 H   0  0  0  0  0  0  0  0  0  0  0  0
  140.9635   80.0641  219.9161 H   0  0  0  0  0  0  0  0  0  0  0  0
  142.5493   79.4763  220.3632 H   0  0  0  0  0  0  0  0  0  0  0  0
  140.1136   77.8666  219.7104 H   0  0  0  0  0  0  0  0  0  0  0  0
  145.3298   74.9790  221.5866 H   0  0  0  0  0  0  0  0  0  0  0  0
  146.6857   72.9293  221.8074 H   0  0  0  0  0  0  0  0  0  0  0  0
  146.5385   71.0931  220.1355 H   0  0  0  0  0  0  0  0  0  0  0  0
  144.9761   71.3624  218.1973 H   0  0  0  0  0  0  0  0  0  0  0  0
  143.6284   73.4140  217.9889 H   0  0  0  0  0  0  0  0  0  0  0  0
  144.2236   76.3158  217.6046 H   0  0  0  0  0  0  0  0  0  0  0  0
  139.0779   70.8115  221.6289 H   0  0  0  0  0  0  0  0  0  0  0  0
  138.6900   68.7984  223.0102 H   0  0  0  0  0  0  0  0  0  0  0  0
  138.9290   67.6859  225.0933 H   0  0  0  0  0  0  0  0  0  0  0  0
  140.9054   69.6721  228.3192 H   0  0  0  0  0  0  0  0  0  0  0  0
  141.2750   71.6607  226.9267 H   0  0  0  0  0  0  0  0  0  0  0  0
  1  2  2  0
  2  3  1  0
  3  4  1  0
  4  5  1  0
  5  6  2  0
  5  7  1  0
  7  8  1  0
  8  9  1  0
  9 10  1  0
 10 11  1  0
 11 12  1  0
 12 13  2  0
 13 14  1  0
 14 15  1  0
 15 16  2  0
 16 17  1  0
 17 18  2  0
 18 19  1  0
 19 20  2  0
 14 21  2  0
 21 22  1  0
  2 23  1  0
 23 24  2  0
 24 25  1  0
 25 26  2  0
 26 27  1  0
 27 28  2  0
 28 29  1  0
 28 30  1  0
 30 31  2  0
 31 32  1  0
 32 33  2  0
 11  7  1  0
 22 12  1  0
 33 23  1  0
 20 15  1  0
 32 26  1  0
  3 34  1  0
  4 35  1  0
  4 36  1  0
  8 37  1  0
  8 38  1  0
  9 39  1  0
  9 40  1  0
 10 41  1  0
 10 42  1  0
 11 43  1  6
 16 44  1  0
 17 45  1  0
 18 46  1  0
 19 47  1  0
 20 48  1  0
 21 49  1  0
 24 50  1  0
 25 51  1  0
 27 52  1  0
 30 53  1  0
 31 54  1  0
M  END
>  <smiles>  (11) 
O=C(NCC(=O)N1CCC[C@H]1c1nc(-c2ccccc2)co1)c1ccc2cc(F)ccc2n1

>  <score_type>  (11) 
oracle

>  <origin>  (11) 
autodockgpu

>  <m_score__min__energy>  (11) 
-9.1799999999999997

>  <m_primary>  (11) 
energy

>  <rmsd>  (11) 
5.494168108422983

>  <m_score__min__rmsd>  (11) 
5.494168108422983

>  <meeko>  (11) 
{"free_energy": -8.86, "intermolecular_energy": -10.65, "internal_energy": -1.96, "cluster_size": 5, "cluster_id": 1, "rank_in_cluster": 4}

>  <energy>  (11) 
-8.31

>  <cluster_rmsd>  (11) 
1.66

>  <cluster>  (11) 
2

$$$$

     RDKit          3D

 54 58  0  0  0  0  0  0  0  0999 V2000
  140.3020   74.0330  221.9210 O   0  0  0  0  0  0  0  0  0  0  0  0
  140.6030   75.2500  221.7420 C   0  0  0  0  0  0  0  0  0  0  0  0
  141.8760   75.5710  221.1800 N   0  0  0  0  0  0  0  0  0  0  0  0
  142.7400   74.4500  220.8510 C   0  0  0  0  0  0  0  0  0  0  0  0
  143.0900   74.4500  219.4290 C   0  0  0  0  0  0  0  0  0  0  0  0
  144.1080   73.8840  218.9400 O   0  0  0  0  0  0  0  0  0  0  0  0
  142.2380   75.1290  218.5120 N   0  0  0  0  0  0  0  0  0  0  0  0
  140.9430   74.6570  218.0240 C   0  0  0  0  0  0  0  0  0  0  0  0
  141.1890   74.8730  216.5240 C   0  0  0  0  0  0  0  0  0  0  0  0
  141.6340   76.3290  216.5570 C   0  0  0  0  0  0  0  0  0  0  0  0
  142.4360   76.4110  217.8600 C   0  0  1  0  0  0  0  0  0  0  0  0
  141.9230   77.5390  218.6790 C   0  0  0  0  0  0  0  0  0  0  0  0
  142.4240   77.9880  219.8410 N   0  0  0  0  0  0  0  0  0  0  0  0
  141.6810   79.0360  220.2840 C   0  0  0  0  0  0  0  0  0  0  0  0
  141.8720   79.8180  221.5010 C   0  0  0  0  0  0  0  0  0  0  0  0
  142.5820   79.3590  222.5910 C   0  0  0  0  0  0  0  0  0  0  0  0
  142.7160   80.1640  223.7040 C   0  0  0  0  0  0  0  0  0  0  0  0
  142.1560   81.4320  223.7700 C   0  0  0  0  0  0  0  0  0  0  0  0
  141.4450   81.8830  222.6720 C   0  0  0  0  0  0  0  0  0  0  0  0
  141.3160   81.0720  221.5620 C   0  0  0  0  0  0  0  0  0  0  0  0
  140.6970   79.1930  219.3160 C   0  0  0  0  0  0  0  0  0  0  0  0
  140.8900   78.2770  218.3860 O   0  0  0  0  0  0  0  0  0  0  0  0
  139.6830   76.3310  222.0960 C   0  0  0  0  0  0  0  0  0  0  0  0
  138.3750   76.2370  221.6760 C   0  0  0  0  0  0  0  0  0  0  0  0
  137.4290   77.1950  221.9530 C   0  0  0  0  0  0  0  0  0  0  0  0
  137.8370   78.2930  222.6890 C   0  0  0  0  0  0  0  0  0  0  0  0
  136.8930   79.2740  222.9800 C   0  0  0  0  0  0  0  0  0  0  0  0
  137.2650   80.3800  223.7100 C   0  0  0  0  0  0  0  0  0  0  0  0
  136.3650   81.3510  224.0080 F   0  0  0  0  0  0  0  0  0  0  0  0
  138.5830   80.4510  224.1210 C   0  0  0  0  0  0  0  0  0  0  0  0
  139.5170   79.4810  223.8330 C   0  0  0  0  0  0  0  0  0  0  0  0
  139.1410   78.3720  223.1000 C   0  0  0  0  0  0  0  0  0  0  0  0
  140.0350   77.4030  222.8020 N   0  0  0  0  0  0  0  0  0  0  0  0
  142.1160   76.5610  221.0370 H   0  0  0  0  0  0  0  0  0  0  0  0
  143.6617   74.5204  221.4473 H   0  0  0  0  0  0  0  0  0  0  0  0
  142.2018   73.5177  221.0770 H   0  0  0  0  0  0  0  0  0  0  0  0
  140.7655   73.5995  218.2692 H   0  0  0  0  0  0  0  0  0  0  0  0
  140.0574   75.1555  218.4449 H   0  0  0  0  0  0  0  0  0  0  0  0
  141.9770   74.2105  216.1366 H   0  0  0  0  0  0  0  0  0  0  0  0
  140.3310   74.6575  215.8702 H   0  0  0  0  0  0  0  0  0  0  0  0
  142.2642   76.5702  215.6883 H   0  0  0  0  0  0  0  0  0  0  0  0
  140.7963   77.0408  216.5164 H   0  0  0  0  0  0  0  0  0  0  0  0
  143.5078   76.5999  217.7000 H   0  0  0  0  0  0  0  0  0  0  0  0
  143.0382   78.3582  222.5732 H   0  0  0  0  0  0  0  0  0  0  0  0
  143.2853   79.7882  224.5670 H   0  0  0  0  0  0  0  0  0  0  0  0
  142.2736   82.0585  224.6665 H   0  0  0  0  0  0  0  0  0  0  0  0
  140.9851   82.8822  222.6833 H   0  0  0  0  0  0  0  0  0  0  0  0
  140.7480   81.4435  220.6963 H   0  0  0  0  0  0  0  0  0  0  0  0
  139.8974   79.9483  219.3235 H   0  0  0  0  0  0  0  0  0  0  0  0
  138.0734   75.3549  221.0921 H   0  0  0  0  0  0  0  0  0  0  0  0
  136.3908   77.0928  221.6040 H   0  0  0  0  0  0  0  0  0  0  0  0
  135.8562   79.1659  222.6287 H   0  0  0  0  0  0  0  0  0  0  0  0
  138.9014   81.3257  224.7071 H   0  0  0  0  0  0  0  0  0  0  0  0
  140.5541   79.5883  224.1837 H   0  0  0  0  0  0  0  0  0  0  0  0
  1  2  2  0
  2  3  1  0
  3  4  1  0
  4  5  1  0
  5  6  2  0
  5  7  1  0
  7  8  1  0
  8  9  1  0
  9 10  1  0
 10 11  1  0
 11 12  1  0
 12 13  2  0
 13 14  1  0
 14 15  1  0
 15 16  2  0
 16 17  1  0
 17 18  2  0
 18 19  1  0
 19 20  2  0
 14 21  2  0
 21 22  1  0
  2 23  1  0
 23 24  2  0
 24 25  1  0
 25 26  2  0
 26 27  1  0
 27 28  2  0
 28 29  1  0
 28 30  1  0
 30 31  2  0
 31 32  1  0
 32 33  2  0
 11  7  1  0
 22 12  1  0
 33 23  1  0
 20 15  1  0
 32 26  1  0
  3 34  1  0
  4 35  1  0
  4 36  1  0
  8 37  1  0
  8 38  1  0
  9 39  1  0
  9 40  1  0
 10 41  1  0
 10 42  1  0
 11 43  1  6
 16 44  1  0
 17 45  1  0
 18 46  1  0
 19 47  1  0
 20 48  1  0
 21 49  1  0
 24 50  1  0
 25 51  1  0
 27 52  1  0
 30 53  1  0
 31 54  1  0
M  END
>  <smiles>  (12) 
O=C(NCC(=O)N1CCC[C@H]1c1nc(-c2ccccc2)co1)c1ccc2cc(F)ccc2n1

>  <score_type>  (12) 
oracle

>  <origin>  (12) 
autodockgpu

>  <m_score__min__energy>  (12) 
-9.1799999999999997

>  <m_primary>  (12) 
energy

>  <rmsd>  (12) 
6.372373272170569

>  <m_score__min__rmsd>  (12) 
6.372373272170569

>  <meeko>  (12) 
{"free_energy": -6.62, "intermolecular_energy": -8.41, "internal_energy": -4.06, "cluster_size": 5, "cluster_id": 6, "rank_in_cluster": 1}

>  <energy>  (12) 
-8.93

>  <cluster_rmsd>  (12) 
0.0

>  <cluster>  (12) 
3

$$$$

     RDKit          3D

 54 58  0  0  0  0  0  0  0  0999 V2000
  138.8620   74.7550  222.3380 O   0  0  0  0  0  0  0  0  0  0  0  0
  139.9490   75.2510  221.9180 C   0  0  0  0  0  0  0  0  0  0  0  0
  140.0850   76.6710  221.8630 N   0  0  0  0  0  0  0  0  0  0  0  0
  138.9400   77.4490  222.3060 C   0  0  0  0  0  0  0  0  0  0  0  0
  139.3530   78.7620  222.8060 C   0  0  0  0  0  0  0  0  0  0  0  0
  138.5790   79.5980  223.3530 O   0  0  0  0  0  0  0  0  0  0  0  0
  140.7180   79.1470  222.6780 N   0  0  0  0  0  0  0  0  0  0  0  0
  141.8300   78.6690  223.4980 C   0  0  0  0  0  0  0  0  0  0  0  0
  142.4390   80.0350  223.8480 C   0  0  0  0  0  0  0  0  0  0  0  0
  142.5700   80.6100  222.4440 C   0  0  0  0  0  0  0  0  0  0  0  0
  141.3200   80.0740  221.7380 C   0  0  1  0  0  0  0  0  0  0  0  0
  141.7220   79.4060  220.4740 C   0  0  0  0  0  0  0  0  0  0  0  0
  141.7930   78.0850  220.2450 N   0  0  0  0  0  0  0  0  0  0  0  0
  142.1990   77.8640  218.9670 C   0  0  0  0  0  0  0  0  0  0  0  0
  142.4090   76.5820  218.3030 C   0  0  0  0  0  0  0  0  0  0  0  0
  143.5900   76.2390  217.6780 C   0  0  0  0  0  0  0  0  0  0  0  0
  143.7070   75.0040  217.0720 C   0  0  0  0  0  0  0  0  0  0  0  0
  142.6680   74.0840  217.0680 C   0  0  0  0  0  0  0  0  0  0  0  0
  141.4880   74.4380  217.6960 C   0  0  0  0  0  0  0  0  0  0  0  0
  141.3790   75.6740  218.3000 C   0  0  0  0  0  0  0  0  0  0  0  0
  142.3710   79.1360  218.4370 C   0  0  0  0  0  0  0  0  0  0  0  0
  142.0730   80.0130  219.3760 O   0  0  0  0  0  0  0  0  0  0  0  0
  141.0640   74.4070  221.4860 C   0  0  0  0  0  0  0  0  0  0  0  0
  140.8560   73.0490  221.3950 C   0  0  0  0  0  0  0  0  0  0  0  0
  141.8330   72.1660  221.0010 C   0  0  0  0  0  0  0  0  0  0  0  0
  143.0730   72.6930  220.6890 C   0  0  0  0  0  0  0  0  0  0  0  0
  144.0760   71.8160  220.2880 C   0  0  0  0  0  0  0  0  0  0  0  0
  145.3220   72.3060  219.9690 C   0  0  0  0  0  0  0  0  0  0  0  0
  146.3180   71.4720  219.5750 F   0  0  0  0  0  0  0  0  0  0  0  0
  145.5070   73.6730  220.0680 C   0  0  0  0  0  0  0  0  0  0  0  0
  144.5140   74.5420  220.4650 C   0  0  0  0  0  0  0  0  0  0  0  0
  143.2650   74.0460  220.7840 C   0  0  0  0  0  0  0  0  0  0  0  0
  142.2710   74.8740  221.1770 N   0  0  0  0  0  0  0  0  0  0  0  0
  140.9700   77.0690  221.5210 H   0  0  0  0  0  0  0  0  0  0  0  0
  138.2514   77.5878  221.4595 H   0  0  0  0  0  0  0  0  0  0  0  0
  138.4448   76.9050  223.1238 H   0  0  0  0  0  0  0  0  0  0  0  0
  141.4863   78.1250  224.3901 H   0  0  0  0  0  0  0  0  0  0  0  0
  142.5074   77.9464  223.0194 H   0  0  0  0  0  0  0  0  0  0  0  0
  141.7668   80.6361  224.4779 H   0  0  0  0  0  0  0  0  0  0  0  0
  143.3708   79.9999  224.4316 H   0  0  0  0  0  0  0  0  0  0  0  0
  142.5719   81.7098  222.4651 H   0  0  0  0  0  0  0  0  0  0  0  0
  143.5075   80.3262  221.9435 H   0  0  0  0  0  0  0  0  0  0  0  0
  140.6036   80.8623  221.4634 H   0  0  0  0  0  0  0  0  0  0  0  0
  144.4333   76.9451  217.6625 H   0  0  0  0  0  0  0  0  0  0  0  0
  144.6534   74.7410  216.5769 H   0  0  0  0  0  0  0  0  0  0  0  0
  142.7796   73.1042  216.5807 H   0  0  0  0  0  0  0  0  0  0  0  0
  140.6400   73.7376  217.7140 H   0  0  0  0  0  0  0  0  0  0  0  0
  140.4343   75.9410  218.7962 H   0  0  0  0  0  0  0  0  0  0  0  0
  142.6984   79.3710  217.4135 H   0  0  0  0  0  0  0  0  0  0  0  0
  139.8620   72.6523  221.6494 H   0  0  0  0  0  0  0  0  0  0  0  0
  141.6368   71.0856  220.9366 H   0  0  0  0  0  0  0  0  0  0  0  0
  143.8742   70.7364  220.2262 H   0  0  0  0  0  0  0  0  0  0  0  0
  146.4950   74.0867  219.8176 H   0  0  0  0  0  0  0  0  0  0  0  0
  144.7144   75.6218  220.5273 H   0  0  0  0  0  0  0  0  0  0  0  0
  1  2  2  0
  2  3  1  0
  3  4  1  0
  4  5  1  0
  5  6  2  0
  5  7  1  0
  7  8  1  0
  8  9  1  0
  9 10  1  0
 10 11  1  0
 11 12  1  0
 12 13  2  0
 13 14  1  0
 14 15  1  0
 15 16  2  0
 16 17  1  0
 17 18  2  0
 18 19  1  0
 19 20  2  0
 14 21  2  0
 21 22  1  0
  2 23  1  0
 23 24  2  0
 24 25  1  0
 25 26  2  0
 26 27  1  0
 27 28  2  0
 28 29  1  0
 28 30  1  0
 30 31  2  0
 31 32  1  0
 32 33  2  0
 11  7  1  0
 22 12  1  0
 33 23  1  0
 20 15  1  0
 32 26  1  0
  3 34  1  0
  4 35  1  0
  4 36  1  0
  8 37  1  0
  8 38  1  0
  9 39  1  0
  9 40  1  0
 10 41  1  0
 10 42  1  0
 11 43  1  6
 16 44  1  0
 17 45  1  0
 18 46  1  0
 19 47  1  0
 20 48  1  0
 21 49  1  0
 24 50  1  0
 25 51  1  0
 27 52  1  0
 30 53  1  0
 31 54  1  0
M  END
>  <smiles>  (13) 
O=C(NCC(=O)N1CCC[C@H]1c1nc(-c2ccccc2)co1)c1ccc2cc(F)ccc2n1

>  <score_type>  (13) 
oracle

>  <origin>  (13) 
autodockgpu

>  <m_score__min__energy>  (13) 
-9.1799999999999997

>  <m_primary>  (13) 
energy

>  <rmsd>  (13) 
6.781044151777277

>  <m_score__min__rmsd>  (13) 
6.781044151777277

>  <meeko>  (13) 
{"free_energy": -6.83, "intermolecular_energy": -8.62, "internal_energy": -4.26, "cluster_size": 20, "cluster_id": 5, "rank_in_cluster": 13}

>  <energy>  (13) 
-8.93

>  <cluster_rmsd>  (13) 
0.67

>  <cluster>  (13) 
3

$$$$

     RDKit          3D

 54 58  0  0  0  0  0  0  0  0999 V2000
  141.8200   77.7900  217.3550 O   0  0  0  0  0  0  0  0  0  0  0  0
  141.9520   78.0490  218.5880 C   0  0  0  0  0  0  0  0  0  0  0  0
  142.8860   77.2910  219.3570 N   0  0  0  0  0  0  0  0  0  0  0  0
  143.6260   76.2620  218.6470 C   0  0  0  0  0  0  0  0  0  0  0  0
  142.8630   75.0150  218.5740 C   0  0  0  0  0  0  0  0  0  0  0  0
  142.4570   74.4830  217.5020 O   0  0  0  0  0  0  0  0  0  0  0  0
  142.5430   74.3340  219.7830 N   0  0  0  0  0  0  0  0  0  0  0  0
  143.4950   73.7100  220.7000 C   0  0  0  0  0  0  0  0  0  0  0  0
  142.8000   72.3480  220.8350 C   0  0  0  0  0  0  0  0  0  0  0  0
  141.4030   72.8220  221.2130 C   0  0  0  0  0  0  0  0  0  0  0  0
  141.2420   74.0990  220.3820 C   0  0  1  0  0  0  0  0  0  0  0  0
  140.8290   75.2130  221.2740 C   0  0  0  0  0  0  0  0  0  0  0  0
  141.4510   76.3910  221.4380 N   0  0  0  0  0  0  0  0  0  0  0  0
  140.7700   77.1470  222.3380 C   0  0  0  0  0  0  0  0  0  0  0  0
  141.0940   78.4890  222.8090 C   0  0  0  0  0  0  0  0  0  0  0  0
  142.3570   79.0370  222.7190 C   0  0  0  0  0  0  0  0  0  0  0  0
  142.5790   80.3160  223.1890 C   0  0  0  0  0  0  0  0  0  0  0  0
  141.5690   81.0800  223.7550 C   0  0  0  0  0  0  0  0  0  0  0  0
  140.3060   80.5210  223.8420 C   0  0  0  0  0  0  0  0  0  0  0  0
  140.0920   79.2420  223.3690 C   0  0  0  0  0  0  0  0  0  0  0  0
  139.6930   76.3500  222.7090 C   0  0  0  0  0  0  0  0  0  0  0  0
  139.7790   75.2140  222.0460 O   0  0  0  0  0  0  0  0  0  0  0  0
  141.1720   79.1010  219.2410 C   0  0  0  0  0  0  0  0  0  0  0  0
  139.8350   78.8720  219.4730 C   0  0  0  0  0  0  0  0  0  0  0  0
  139.0110   79.7910  220.0780 C   0  0  0  0  0  0  0  0  0  0  0  0
  139.5780   80.9930  220.4610 C   0  0  0  0  0  0  0  0  0  0  0  0
  138.7600   81.9370  221.0760 C   0  0  0  0  0  0  0  0  0  0  0  0
  139.2920   83.1440  221.4700 C   0  0  0  0  0  0  0  0  0  0  0  0
  138.5170   84.0820  222.0710 F   0  0  0  0  0  0  0  0  0  0  0  0
  140.6370   83.3510  221.2260 C   0  0  0  0  0  0  0  0  0  0  0  0
  141.4470   82.4170  220.6180 C   0  0  0  0  0  0  0  0  0  0  0  0
  140.9090   81.2070  220.2230 C   0  0  0  0  0  0  0  0  0  0  0  0
  141.6790   80.2700  219.6240 N   0  0  0  0  0  0  0  0  0  0  0  0
  142.9890   77.5050  220.3580 H   0  0  0  0  0  0  0  0  0  0  0  0
  143.8384   76.6127  217.6263 H   0  0  0  0  0  0  0  0  0  0  0  0
  144.5608   76.0664  219.1929 H   0  0  0  0  0  0  0  0  0  0  0  0
  144.5001   73.6233  220.2616 H   0  0  0  0  0  0  0  0  0  0  0  0
  143.6855   74.2500  221.6392 H   0  0  0  0  0  0  0  0  0  0  0  0
  142.8024   71.7892  219.8875 H   0  0  0  0  0  0  0  0  0  0  0  0
  143.2678   71.6494  221.5443 H   0  0  0  0  0  0  0  0  0  0  0  0
  140.6437   72.0740  220.9413 H   0  0  0  0  0  0  0  0  0  0  0  0
  141.2761   72.9862  222.2932 H   0  0  0  0  0  0  0  0  0  0  0  0
  140.4700   74.0155  219.6029 H   0  0  0  0  0  0  0  0  0  0  0  0
  143.1813   78.4589  222.2759 H   0  0  0  0  0  0  0  0  0  0  0  0
  143.5898   80.7431  223.1121 H   0  0  0  0  0  0  0  0  0  0  0  0
  141.7657   82.0978  224.1230 H   0  0  0  0  0  0  0  0  0  0  0  0
  139.4774   81.0926  224.2855 H   0  0  0  0  0  0  0  0  0  0  0  0
  139.0828   78.8108  223.4434 H   0  0  0  0  0  0  0  0  0  0  0  0
  138.9069   76.6201  223.4295 H   0  0  0  0  0  0  0  0  0  0  0  0
  139.4058   77.9089  219.1598 H   0  0  0  0  0  0  0  0  0  0  0  0
  137.9454   79.5793  220.2503 H   0  0  0  0  0  0  0  0  0  0  0  0
  137.6952   81.7197  221.2460 H   0  0  0  0  0  0  0  0  0  0  0  0
  141.0825   84.3089  221.5325 H   0  0  0  0  0  0  0  0  0  0  0  0
  142.5123   82.6325  220.4485 H   0  0  0  0  0  0  0  0  0  0  0  0
  1  2  2  0
  2  3  1  0
  3  4  1  0
  4  5  1  0
  5  6  2  0
  5  7  1  0
  7  8  1  0
  8  9  1  0
  9 10  1  0
 10 11  1  0
 11 12  1  0
 12 13  2  0
 13 14  1  0
 14 15  1  0
 15 16  2  0
 16 17  1  0
 17 18  2  0
 18 19  1  0
 19 20  2  0
 14 21  2  0
 21 22  1  0
  2 23  1  0
 23 24  2  0
 24 25  1  0
 25 26  2  0
 26 27  1  0
 27 28  2  0
 28 29  1  0
 28 30  1  0
 30 31  2  0
 31 32  1  0
 32 33  2  0
 11  7  1  0
 22 12  1  0
 33 23  1  0
 20 15  1  0
 32 26  1  0
  3 34  1  0
  4 35  1  0
  4 36  1  0
  8 37  1  0
  8 38  1  0
  9 39  1  0
  9 40  1  0
 10 41  1  0
 10 42  1  0
 11 43  1  6
 16 44  1  0
 17 45  1  0
 18 46  1  0
 19 47  1  0
 20 48  1  0
 21 49  1  0
 24 50  1  0
 25 51  1  0
 27 52  1  0
 30 53  1  0
 31 54  1  0
M  END
>  <smiles>  (14) 
O=C(NCC(=O)N1CCC[C@H]1c1nc(-c2ccccc2)co1)c1ccc2cc(F)ccc2n1

>  <score_type>  (14) 
oracle

>  <origin>  (14) 
autodockgpu

>  <m_score__min__energy>  (14) 
-9.1799999999999997

>  <m_primary>  (14) 
energy

>  <rmsd>  (14) 
8.59474848975222

>  <m_score__min__rmsd>  (14) 
8.59474848975222

>  <meeko>  (14) 
{"free_energy": -6.46, "intermolecular_energy": -8.25, "internal_energy": -4.25, "cluster_size": 5, "cluster_id": 6, "rank_in_cluster": 4}

>  <energy>  (14) 
-8.92

>  <cluster_rmsd>  (14) 
0.11

>  <cluster>  (14) 
3

$$$$

     RDKit          3D

 54 58  0  0  0  0  0  0  0  0999 V2000
  137.7140   70.5840  222.1490 O   0  0  0  0  0  0  0  0  0  0  0  0
  138.5150   71.0900  222.9900 C   0  0  0  0  0  0  0  0  0  0  0  0
  138.9470   72.4380  222.8090 N   0  0  0  0  0  0  0  0  0  0  0  0
  138.4200   73.1370  221.6490 C   0  0  0  0  0  0  0  0  0  0  0  0
  138.6800   74.5750  221.7340 C   0  0  0  0  0  0  0  0  0  0  0  0
  139.8100   75.1130  221.5540 O   0  0  0  0  0  0  0  0  0  0  0  0
  137.6000   75.4520  222.0400 N   0  0  0  0  0  0  0  0  0  0  0  0
  136.5800   75.2390  223.0650 C   0  0  0  0  0  0  0  0  0  0  0  0
  135.3440   75.5190  222.1970 C   0  0  0  0  0  0  0  0  0  0  0  0
  135.7460   76.8740  221.6300 C   0  0  0  0  0  0  0  0  0  0  0  0
  137.2590   76.7260  221.4340 C   0  0  1  0  0  0  0  0  0  0  0  0
  137.9500   77.8610  222.0960 C   0  0  0  0  0  0  0  0  0  0  0  0
  139.2740   78.0710  222.1700 N   0  0  0  0  0  0  0  0  0  0  0  0
  139.5180   79.2180  222.8560 C   0  0  0  0  0  0  0  0  0  0  0  0
  140.8110   79.8170  223.1680 C   0  0  0  0  0  0  0  0  0  0  0  0
  140.9460   81.0260  223.8190 C   0  0  0  0  0  0  0  0  0  0  0  0
  142.2080   81.5240  224.0770 C   0  0  0  0  0  0  0  0  0  0  0  0
  143.3590   80.8470  223.7000 C   0  0  0  0  0  0  0  0  0  0  0  0
  143.2120   79.6360  223.0470 C   0  0  0  0  0  0  0  0  0  0  0  0
  141.9480   79.1450  222.7940 C   0  0  0  0  0  0  0  0  0  0  0  0
  138.2560   79.6910  223.1940 C   0  0  0  0  0  0  0  0  0  0  0  0
  137.3630   78.8460  222.7170 O   0  0  0  0  0  0  0  0  0  0  0  0
  139.0080   70.3270  224.1380 C   0  0  0  0  0  0  0  0  0  0  0  0
  138.8300   68.9620  224.1380 C   0  0  0  0  0  0  0  0  0  0  0  0
  139.2520   68.1520  225.1650 C   0  0  0  0  0  0  0  0  0  0  0  0
  139.8830   68.7620  226.2350 C   0  0  0  0  0  0  0  0  0  0  0  0
  140.3180   67.9580  227.2840 C   0  0  0  0  0  0  0  0  0  0  0  0
  140.9500   68.5330  228.3640 C   0  0  0  0  0  0  0  0  0  0  0  0
  141.3850   67.7720  229.4000 F   0  0  0  0  0  0  0  0  0  0  0  0
  141.1180   69.9050  228.3400 C   0  0  0  0  0  0  0  0  0  0  0  0
  140.6870   70.7010  227.3020 C   0  0  0  0  0  0  0  0  0  0  0  0
  140.0530   70.1210  226.2200 C   0  0  0  0  0  0  0  0  0  0  0  0
  139.6190   70.8760  225.1850 N   0  0  0  0  0  0  0  0  0  0  0  0
  139.5990   72.8440  223.4950 H   0  0  0  0  0  0  0  0  0  0  0  0
  138.8987   72.7389  220.7422 H   0  0  0  0  0  0  0  0  0  0  0  0
  137.3316   72.9814  221.6134 H   0  0  0  0  0  0  0  0  0  0  0  0
  136.5904   74.2109  223.4561 H   0  0  0  0  0  0  0  0  0  0  0  0
  136.6774   75.8463  223.9769 H   0  0  0  0  0  0  0  0  0  0  0  0
  135.2161   74.7640  221.4073 H   0  0  0  0  0  0  0  0  0  0  0  0
  134.3809   75.4976  222.7281 H   0  0  0  0  0  0  0  0  0  0  0  0
  135.2399   77.0688  220.6730 H   0  0  0  0  0  0  0  0  0  0  0  0
  135.4721   77.7169  222.2816 H   0  0  0  0  0  0  0  0  0  0  0  0
  137.5646   76.7438  220.3774 H   0  0  0  0  0  0  0  0  0  0  0  0
  140.0542   81.5896  224.1305 H   0  0  0  0  0  0  0  0  0  0  0  0
  142.3038   82.4881  224.5980 H   0  0  0  0  0  0  0  0  0  0  0  0
  144.3561   81.2597  223.9134 H   0  0  0  0  0  0  0  0  0  0  0  0
  144.0991   79.0674  222.7311 H   0  0  0  0  0  0  0  0  0  0  0  0
  141.8476   78.1808  222.2742 H   0  0  0  0  0  0  0  0  0  0  0  0
  138.0398   80.6091  223.7600 H   0  0  0  0  0  0  0  0  0  0  0  0
  138.3270   68.4983  223.2766 H   0  0  0  0  0  0  0  0  0  0  0  0
  139.0947   67.0637  225.1376 H   0  0  0  0  0  0  0  0  0  0  0  0
  140.1581   66.8702  227.2508 H   0  0  0  0  0  0  0  0  0  0  0  0
  141.6210   70.3849  229.1925 H   0  0  0  0  0  0  0  0  0  0  0  0
  140.8461   71.7890  227.3341 H   0  0  0  0  0  0  0  0  0  0  0  0
  1  2  2  0
  2  3  1  0
  3  4  1  0
  4  5  1  0
  5  6  2  0
  5  7  1  0
  7  8  1  0
  8  9  1  0
  9 10  1  0
 10 11  1  0
 11 12  1  0
 12 13  2  0
 13 14  1  0
 14 15  1  0
 15 16  2  0
 16 17  1  0
 17 18  2  0
 18 19  1  0
 19 20  2  0
 14 21  2  0
 21 22  1  0
  2 23  1  0
 23 24  2  0
 24 25  1  0
 25 26  2  0
 26 27  1  0
 27 28  2  0
 28 29  1  0
 28 30  1  0
 30 31  2  0
 31 32  1  0
 32 33  2  0
 11  7  1  0
 22 12  1  0
 33 23  1  0
 20 15  1  0
 32 26  1  0
  3 34  1  0
  4 35  1  0
  4 36  1  0
  8 37  1  0
  8 38  1  0
  9 39  1  0
  9 40  1  0
 10 41  1  0
 10 42  1  0
 11 43  1  6
 16 44  1  0
 17 45  1  0
 18 46  1  0
 19 47  1  0
 20 48  1  0
 21 49  1  0
 24 50  1  0
 25 51  1  0
 27 52  1  0
 30 53  1  0
 31 54  1  0
M  END
>  <smiles>  (15) 
O=C(NCC(=O)N1CCC[C@H]1c1nc(-c2ccccc2)co1)c1ccc2cc(F)ccc2n1

>  <score_type>  (15) 
oracle

>  <origin>  (15) 
autodockgpu

>  <m_score__min__energy>  (15) 
-9.1799999999999997

>  <m_primary>  (15) 
energy

>  <rmsd>  (15) 
3.479703165613211

>  <m_score__min__rmsd>  (15) 
3.479703165613211

>  <meeko>  (15) 
{"free_energy": -8.58, "intermolecular_energy": -10.37, "internal_energy": -1.71, "cluster_size": 6, "cluster_id": 2, "rank_in_cluster": 4}

>  <energy>  (15) 
-8.91

>  <cluster_rmsd>  (15) 
0.65

>  <cluster>  (15) 
3

$$$$

     RDKit          3D

 54 58  0  0  0  0  0  0  0  0999 V2000
  138.7890   74.8870  222.0530 O   0  0  0  0  0  0  0  0  0  0  0  0
  139.9630   75.3410  221.9090 C   0  0  0  0  0  0  0  0  0  0  0  0
  140.2010   76.7290  222.1490 N   0  0  0  0  0  0  0  0  0  0  0  0
  139.0520   77.5240  222.5490 C   0  0  0  0  0  0  0  0  0  0  0  0
  139.4650   78.8290  223.0660 C   0  0  0  0  0  0  0  0  0  0  0  0
  138.7160   79.6150  223.7140 O   0  0  0  0  0  0  0  0  0  0  0  0
  140.8000   79.2680  222.8350 N   0  0  0  0  0  0  0  0  0  0  0  0
  141.9860   78.8550  223.5840 C   0  0  0  0  0  0  0  0  0  0  0  0
  142.5580   80.2520  223.8640 C   0  0  0  0  0  0  0  0  0  0  0  0
  142.5670   80.8020  222.4440 C   0  0  0  0  0  0  0  0  0  0  0  0
  141.2950   80.1990  221.8380 C   0  0  1  0  0  0  0  0  0  0  0  0
  141.6370   79.5200  220.5620 C   0  0  0  0  0  0  0  0  0  0  0  0
  141.6980   78.1970  220.3400 N   0  0  0  0  0  0  0  0  0  0  0  0
  142.0430   77.9650  219.0470 C   0  0  0  0  0  0  0  0  0  0  0  0
  142.2210   76.6780  218.3840 C   0  0  0  0  0  0  0  0  0  0  0  0
  141.2310   75.7200  218.3160 C   0  0  0  0  0  0  0  0  0  0  0  0
  141.4820   74.5260  217.6690 C   0  0  0  0  0  0  0  0  0  0  0  0
  142.7070   74.2510  217.0770 C   0  0  0  0  0  0  0  0  0  0  0  0
  143.6930   75.2190  217.1510 C   0  0  0  0  0  0  0  0  0  0  0  0
  143.4340   76.4090  217.8000 C   0  0  0  0  0  0  0  0  0  0  0  0
  142.1880   79.2340  218.4980 C   0  0  0  0  0  0  0  0  0  0  0  0
  141.9350   80.1180  219.4430 O   0  0  0  0  0  0  0  0  0  0  0  0
  141.0760   74.4830  221.5040 C   0  0  0  0  0  0  0  0  0  0  0  0
  140.8680   73.1230  221.4610 C   0  0  0  0  0  0  0  0  0  0  0  0
  141.8440   72.2270  221.0950 C   0  0  0  0  0  0  0  0  0  0  0  0
  143.0830   72.7420  220.7600 C   0  0  0  0  0  0  0  0  0  0  0  0
  144.0840   71.8510  220.3860 C   0  0  0  0  0  0  0  0  0  0  0  0
  145.3290   72.3300  220.0450 C   0  0  0  0  0  0  0  0  0  0  0  0
  146.3230   71.4820  219.6770 F   0  0  0  0  0  0  0  0  0  0  0  0
  145.5140   73.6990  220.0960 C   0  0  0  0  0  0  0  0  0  0  0  0
  144.5230   74.5820  220.4660 C   0  0  0  0  0  0  0  0  0  0  0  0
  143.2750   74.0970  220.8070 C   0  0  0  0  0  0  0  0  0  0  0  0
  142.2820   74.9390  221.1740 N   0  0  0  0  0  0  0  0  0  0  0  0
  141.1560   77.0930  222.0310 H   0  0  0  0  0  0  0  0  0  0  0  0
  138.3986   77.6741  221.6769 H   0  0  0  0  0  0  0  0  0  0  0  0
  138.5177   76.9869  223.3465 H   0  0  0  0  0  0  0  0  0  0  0  0
  141.7288   78.3170  224.5083 H   0  0  0  0  0  0  0  0  0  0  0  0
  142.6591   78.1509  223.0730 H   0  0  0  0  0  0  0  0  0  0  0  0
  141.9057   80.8381  224.5281 H   0  0  0  0  0  0  0  0  0  0  0  0
  143.5288   80.2681  224.3811 H   0  0  0  0  0  0  0  0  0  0  0  0
  142.5230   81.9011  222.4446 H   0  0  0  0  0  0  0  0  0  0  0  0
  143.4790   80.5473  221.8842 H   0  0  0  0  0  0  0  0  0  0  0  0
  140.5283   80.9509  221.5998 H   0  0  0  0  0  0  0  0  0  0  0  0
  140.2483   75.9058  218.7740 H   0  0  0  0  0  0  0  0  0  0  0  0
  140.6857   73.7687  217.6213 H   0  0  0  0  0  0  0  0  0  0  0  0
  142.8882   73.2942  216.5654 H   0  0  0  0  0  0  0  0  0  0  0  0
  144.6780   75.0409  216.6949 H   0  0  0  0  0  0  0  0  0  0  0  0
  144.2276   77.1690  217.8512 H   0  0  0  0  0  0  0  0  0  0  0  0
  142.4651   79.4607  217.4579 H   0  0  0  0  0  0  0  0  0  0  0  0
  139.8749   72.7353  221.7320 H   0  0  0  0  0  0  0  0  0  0  0  0
  141.6477   71.1450  221.0696 H   0  0  0  0  0  0  0  0  0  0  0  0
  143.8819   70.7700  220.3629 H   0  0  0  0  0  0  0  0  0  0  0  0
  146.5012   74.1035  219.8279 H   0  0  0  0  0  0  0  0  0  0  0  0
  144.7236   75.6633  220.4897 H   0  0  0  0  0  0  0  0  0  0  0  0
  1  2  2  0
  2  3  1  0
  3  4  1  0
  4  5  1  0
  5  6  2  0
  5  7  1  0
  7  8  1  0
  8  9  1  0
  9 10  1  0
 10 11  1  0
 11 12  1  0
 12 13  2  0
 13 14  1  0
 14 15  1  0
 15 16  2  0
 16 17  1  0
 17 18  2  0
 18 19  1  0
 19 20  2  0
 14 21  2  0
 21 22  1  0
  2 23  1  0
 23 24  2  0
 24 25  1  0
 25 26  2  0
 26 27  1  0
 27 28  2  0
 28 29  1  0
 28 30  1  0
 30 31  2  0
 31 32  1  0
 32 33  2  0
 11  7  1  0
 22 12  1  0
 33 23  1  0
 20 15  1  0
 32 26  1  0
  3 34  1  0
  4 35  1  0
  4 36  1  0
  8 37  1  0
  8 38  1  0
  9 39  1  0
  9 40  1  0
 10 41  1  0
 10 42  1  0
 11 43  1  6
 16 44  1  0
 17 45  1  0
 18 46  1  0
 19 47  1  0
 20 48  1  0
 21 49  1  0
 24 50  1  0
 25 51  1  0
 27 52  1  0
 30 53  1  0
 31 54  1  0
M  END
>  <smiles>  (16) 
O=C(NCC(=O)N1CCC[C@H]1c1nc(-c2ccccc2)co1)c1ccc2cc(F)ccc2n1

>  <score_type>  (16) 
oracle

>  <origin>  (16) 
autodockgpu

>  <m_score__min__energy>  (16) 
-9.1799999999999997

>  <m_primary>  (16) 
energy

>  <rmsd>  (16) 
6.712767587909825

>  <m_score__min__rmsd>  (16) 
6.712767587909825

>  <meeko>  (16) 
{"free_energy": -6.89, "intermolecular_energy": -8.68, "internal_energy": -4.19, "cluster_size": 20, "cluster_id": 5, "rank_in_cluster": 6}

>  <energy>  (16) 
-8.91

>  <cluster_rmsd>  (16) 
0.67

>  <cluster>  (16) 
3

$$$$

     RDKit          3D

 54 58  0  0  0  0  0  0  0  0999 V2000
  138.9220   74.9730  221.5510 O   0  0  0  0  0  0  0  0  0  0  0  0
  140.1250   75.3670  221.5830 C   0  0  0  0  0  0  0  0  0  0  0  0
  140.4010   76.7110  221.9800 N   0  0  0  0  0  0  0  0  0  0  0  0
  139.2540   77.5340  222.3240 C   0  0  0  0  0  0  0  0  0  0  0  0
  139.6640   78.7350  223.0540 C   0  0  0  0  0  0  0  0  0  0  0  0
  138.9520   79.3320  223.9110 O   0  0  0  0  0  0  0  0  0  0  0  0
  140.9510   79.2880  222.7990 N   0  0  0  0  0  0  0  0  0  0  0  0
  142.1760   79.0030  223.5430 C   0  0  0  0  0  0  0  0  0  0  0  0
  142.6210   80.4520  223.7850 C   0  0  0  0  0  0  0  0  0  0  0  0
  142.5660   80.9670  222.3530 C   0  0  0  0  0  0  0  0  0  0  0  0
  141.3490   80.2370  221.7750 C   0  0  1  0  0  0  0  0  0  0  0  0
  141.7390   79.5630  220.5110 C   0  0  0  0  0  0  0  0  0  0  0  0
  141.7870   78.2410  220.2800 N   0  0  0  0  0  0  0  0  0  0  0  0
  142.1900   78.0140  219.0020 C   0  0  0  0  0  0  0  0  0  0  0  0
  142.3770   76.7300  218.3370 C   0  0  0  0  0  0  0  0  0  0  0  0
  141.3580   75.8160  218.1590 C   0  0  0  0  0  0  0  0  0  0  0  0
  141.6200   74.6220  217.5170 C   0  0  0  0  0  0  0  0  0  0  0  0
  142.8820   74.3020  217.0390 C   0  0  0  0  0  0  0  0  0  0  0  0
  143.8960   75.2250  217.2230 C   0  0  0  0  0  0  0  0  0  0  0  0
  143.6270   76.4160  217.8650 C   0  0  0  0  0  0  0  0  0  0  0  0
  142.3840   79.2840  218.4730 C   0  0  0  0  0  0  0  0  0  0  0  0
  142.1020   80.1650  219.4130 O   0  0  0  0  0  0  0  0  0  0  0  0
  141.2350   74.4840  221.2220 C   0  0  0  0  0  0  0  0  0  0  0  0
  140.9790   73.1380  221.0900 C   0  0  0  0  0  0  0  0  0  0  0  0
  141.9460   72.2210  220.7550 C   0  0  0  0  0  0  0  0  0  0  0  0
  143.2280   72.7000  220.5490 C   0  0  0  0  0  0  0  0  0  0  0  0
  144.2220   71.7870  220.2090 C   0  0  0  0  0  0  0  0  0  0  0  0
  145.5080   72.2300  219.9950 C   0  0  0  0  0  0  0  0  0  0  0  0
  146.4960   71.3600  219.6630 F   0  0  0  0  0  0  0  0  0  0  0  0
  145.7400   73.5850  220.1330 C   0  0  0  0  0  0  0  0  0  0  0  0
  144.7560   74.4890  220.4700 C   0  0  0  0  0  0  0  0  0  0  0  0
  143.4670   74.0410  220.6840 C   0  0  0  0  0  0  0  0  0  0  0  0
  142.4800   74.9050  221.0150 N   0  0  0  0  0  0  0  0  0  0  0  0
  141.3800   77.0270  222.0030 H   0  0  0  0  0  0  0  0  0  0  0  0
  138.7379   77.8343  221.4002 H   0  0  0  0  0  0  0  0  0  0  0  0
  138.5843   76.9461  222.9689 H   0  0  0  0  0  0  0  0  0  0  0  0
  141.9776   78.4657  224.4821 H   0  0  0  0  0  0  0  0  0  0  0  0
  142.9058   78.3515  223.0400 H   0  0  0  0  0  0  0  0  0  0  0  0
  141.9245   80.9918  224.4434 H   0  0  0  0  0  0  0  0  0  0  0  0
  143.5912   80.5684  224.2902 H   0  0  0  0  0  0  0  0  0  0  0  0
  142.4218   82.0573  222.3295 H   0  0  0  0  0  0  0  0  0  0  0  0
  143.4921   80.7831  221.7887 H   0  0  0  0  0  0  0  0  0  0  0  0
  140.5145   80.9100  221.5286 H   0  0  0  0  0  0  0  0  0  0  0  0
  140.3449   76.0372  218.5259 H   0  0  0  0  0  0  0  0  0  0  0  0
  140.8008   73.9008  217.3801 H   0  0  0  0  0  0  0  0  0  0  0  0
  143.0706   73.3452  216.5300 H   0  0  0  0  0  0  0  0  0  0  0  0
  144.9116   75.0103  216.8592 H   0  0  0  0  0  0  0  0  0  0  0  0
  144.4435   77.1399  218.0036 H   0  0  0  0  0  0  0  0  0  0  0  0
  142.7148   79.5143  217.4495 H   0  0  0  0  0  0  0  0  0  0  0  0
  139.9530   72.7799  221.2605 H   0  0  0  0  0  0  0  0  0  0  0  0
  141.7110   71.1511  220.6548 H   0  0  0  0  0  0  0  0  0  0  0  0
  143.9817   70.7180  220.1118 H   0  0  0  0  0  0  0  0  0  0  0  0
  146.7602   73.9606  219.9656 H   0  0  0  0  0  0  0  0  0  0  0  0
  144.9950   75.5583  220.5678 H   0  0  0  0  0  0  0  0  0  0  0  0
  1  2  2  0
  2  3  1  0
  3  4  1  0
  4  5  1  0
  5  6  2  0
  5  7  1  0
  7  8  1  0
  8  9  1  0
  9 10  1  0
 10 11  1  0
 11 12  1  0
 12 13  2  0
 13 14  1  0
 14 15  1  0
 15 16  2  0
 16 17  1  0
 17 18  2  0
 18 19  1  0
 19 20  2  0
 14 21  2  0
 21 22  1  0
  2 23  1  0
 23 24  2  0
 24 25  1  0
 25 26  2  0
 26 27  1  0
 27 28  2  0
 28 29  1  0
 28 30  1  0
 30 31  2  0
 31 32  1  0
 32 33  2  0
 11  7  1  0
 22 12  1  0
 33 23  1  0
 20 15  1  0
 32 26  1  0
  3 34  1  0
  4 35  1  0
  4 36  1  0
  8 37  1  0
  8 38  1  0
  9 39  1  0
  9 40  1  0
 10 41  1  0
 10 42  1  0
 11 43  1  6
 16 44  1  0
 17 45  1  0
 18 46  1  0
 19 47  1  0
 20 48  1  0
 21 49  1  0
 24 50  1  0
 25 51  1  0
 27 52  1  0
 30 53  1  0
 31 54  1  0
M  END
>  <smiles>  (17) 
O=C(NCC(=O)N1CCC[C@H]1c1nc(-c2ccccc2)co1)c1ccc2cc(F)ccc2n1

>  <score_type>  (17) 
oracle

>  <origin>  (17) 
autodockgpu

>  <m_score__min__energy>  (17) 
-9.1799999999999997

>  <m_primary>  (17) 
energy

>  <rmsd>  (17) 
6.7797476890624715

>  <m_score__min__rmsd>  (17) 
6.7797476890624715

>  <meeko>  (17) 
{"free_energy": -6.91, "intermolecular_energy": -8.7, "internal_energy": -4.15, "cluster_size": 20, "cluster_id": 5, "rank_in_cluster": 4}

>  <energy>  (17) 
-8.83

>  <cluster_rmsd>  (17) 
0.8

>  <cluster>  (17) 
3

$$$$

     RDKit          3D

 54 58  0  0  0  0  0  0  0  0999 V2000
  138.4220   70.3560  221.5030 O   0  0  0  0  0  0  0  0  0  0  0  0
  138.7040   71.2030  222.4030 C   0  0  0  0  0  0  0  0  0  0  0  0
  138.4420   72.5850  222.1570 N   0  0  0  0  0  0  0  0  0  0  0  0
  137.8610   72.9150  220.8660 C   0  0  0  0  0  0  0  0  0  0  0  0
  138.8090   72.6650  219.7790 C   0  0  0  0  0  0  0  0  0  0  0  0
  138.5560   71.9740  218.7510 O   0  0  0  0  0  0  0  0  0  0  0  0
  140.1140   73.2280  219.8620 N   0  0  0  0  0  0  0  0  0  0  0  0
  140.9260   73.6910  218.7380 C   0  0  0  0  0  0  0  0  0  0  0  0
  142.2260   72.9580  219.0990 C   0  0  0  0  0  0  0  0  0  0  0  0
  142.3780   73.4260  220.5400 C   0  0  0  0  0  0  0  0  0  0  0  0
  140.9290   73.4740  221.0370 C   0  0  1  0  0  0  0  0  0  0  0  0
  140.6620   74.8080  221.6330 C   0  0  0  0  0  0  0  0  0  0  0  0
  141.4420   75.8980  221.5600 N   0  0  0  0  0  0  0  0  0  0  0  0
  140.8570   76.9250  222.2300 C   0  0  0  0  0  0  0  0  0  0  0  0
  141.3590   78.2830  222.4040 C   0  0  0  0  0  0  0  0  0  0  0  0
  141.4260   79.2010  221.3750 C   0  0  0  0  0  0  0  0  0  0  0  0
  141.9150   80.4680  221.6240 C   0  0  0  0  0  0  0  0  0  0  0  0
  142.3460   80.8580  222.8840 C   0  0  0  0  0  0  0  0  0  0  0  0
  142.2750   79.9310  223.9080 C   0  0  0  0  0  0  0  0  0  0  0  0
  141.7850   78.6660  223.6510 C   0  0  0  0  0  0  0  0  0  0  0  0
  139.6710   76.3870  222.7140 C   0  0  0  0  0  0  0  0  0  0  0  0
  139.6070   75.1270  222.3290 O   0  0  0  0  0  0  0  0  0  0  0  0
  139.2890   70.8010  223.6820 C   0  0  0  0  0  0  0  0  0  0  0  0
  140.1200   71.6890  224.3260 C   0  0  0  0  0  0  0  0  0  0  0  0
  140.7220   71.4140  225.5300 C   0  0  0  0  0  0  0  0  0  0  0  0
  140.4650   70.1790  226.0990 C   0  0  0  0  0  0  0  0  0  0  0  0
  141.0650   69.8810  227.3180 C   0  0  0  0  0  0  0  0  0  0  0  0
  140.8300   68.6610  227.9120 C   0  0  0  0  0  0  0  0  0  0  0  0
  141.4030   68.3450  229.1010 F   0  0  0  0  0  0  0  0  0  0  0  0
  139.9920   67.7860  227.2470 C   0  0  0  0  0  0  0  0  0  0  0  0
  139.3970   68.0810  226.0390 C   0  0  0  0  0  0  0  0  0  0  0  0
  139.6360   69.3060  225.4460 C   0  0  0  0  0  0  0  0  0  0  0  0
  139.0660   69.6240  224.2620 N   0  0  0  0  0  0  0  0  0  0  0  0
  138.6730   73.2690  222.8910 H   0  0  0  0  0  0  0  0  0  0  0  0
  136.9637   72.2986  220.7083 H   0  0  0  0  0  0  0  0  0  0  0  0
  137.6026   73.9842  220.8636 H   0  0  0  0  0  0  0  0  0  0  0  0
  140.5198   73.3664  217.7687 H   0  0  0  0  0  0  0  0  0  0  0  0
  141.0042   74.7813  218.6151 H   0  0  0  0  0  0  0  0  0  0  0  0
  142.1152   71.8657  219.0306 H   0  0  0  0  0  0  0  0  0  0  0  0
  143.0832   73.1686  218.4426 H   0  0  0  0  0  0  0  0  0  0  0  0
  142.9747   72.7126  221.1273 H   0  0  0  0  0  0  0  0  0  0  0  0
  142.9017   74.3890  220.6318 H   0  0  0  0  0  0  0  0  0  0  0  0
  140.7115   72.7307  221.8182 H   0  0  0  0  0  0  0  0  0  0  0  0
  141.0922   78.9250  220.3639 H   0  0  0  0  0  0  0  0  0  0  0  0
  141.9645   81.1915  220.7969 H   0  0  0  0  0  0  0  0  0  0  0  0
  142.7320   81.8724  223.0628 H   0  0  0  0  0  0  0  0  0  0  0  0
  142.6071   80.2001  224.9216 H   0  0  0  0  0  0  0  0  0  0  0  0
  141.7343   77.9393  224.4752 H   0  0  0  0  0  0  0  0  0  0  0  0
  138.9173   76.9187  223.3134 H   0  0  0  0  0  0  0  0  0  0  0  0
  140.3112   72.6644  223.8549 H   0  0  0  0  0  0  0  0  0  0  0  0
  141.3809   72.1451  226.0212 H   0  0  0  0  0  0  0  0  0  0  0  0
  141.7234   70.6156  227.8047 H   0  0  0  0  0  0  0  0  0  0  0  0
  139.7899   66.8061  227.7041 H   0  0  0  0  0  0  0  0  0  0  0  0
  138.7378   67.3477  225.5514 H   0  0  0  0  0  0  0  0  0  0  0  0
  1  2  2  0
  2  3  1  0
  3  4  1  0
  4  5  1  0
  5  6  2  0
  5  7  1  0
  7  8  1  0
  8  9  1  0
  9 10  1  0
 10 11  1  0
 11 12  1  0
 12 13  2  0
 13 14  1  0
 14 15  1  0
 15 16  2  0
 16 17  1  0
 17 18  2  0
 18 19  1  0
 19 20  2  0
 14 21  2  0
 21 22  1  0
  2 23  1  0
 23 24  2  0
 24 25  1  0
 25 26  2  0
 26 27  1  0
 27 28  2  0
 28 29  1  0
 28 30  1  0
 30 31  2  0
 31 32  1  0
 32 33  2  0
 11  7  1  0
 22 12  1  0
 33 23  1  0
 20 15  1  0
 32 26  1  0
  3 34  1  0
  4 35  1  0
  4 36  1  0
  8 37  1  0
  8 38  1  0
  9 39  1  0
  9 40  1  0
 10 41  1  0
 10 42  1  0
 11 43  1  1
 16 44  1  0
 17 45  1  0
 18 46  1  0
 19 47  1  0
 20 48  1  0
 21 49  1  0
 24 50  1  0
 25 51  1  0
 27 52  1  0
 30 53  1  0
 31 54  1  0
M  END
>  <smiles>  (18) 
O=C(NCC(=O)N1CCC[C@H]1c1nc(-c2ccccc2)co1)c1ccc2cc(F)ccc2n1

>  <score_type>  (18) 
oracle

>  <origin>  (18) 
autodockgpu

>  <m_score__min__energy>  (18) 
-9.1799999999999997

>  <m_primary>  (18) 
energy

>  <rmsd>  (18) 
3.542609714062122

>  <m_score__min__rmsd>  (18) 
3.542609714062122

>  <meeko>  (18) 
{"free_energy": -8.93, "intermolecular_energy": -10.72, "internal_energy": -2.53, "cluster_size": 12, "cluster_id": 3, "rank_in_cluster": 1}

>  <energy>  (18) 
-8.77

>  <cluster_rmsd>  (18) 
0.5

>  <cluster>  (18) 
3

$$$$

     RDKit          3D

 54 58  0  0  0  0  0  0  0  0999 V2000
  138.7980   74.8510  222.0870 O   0  0  0  0  0  0  0  0  0  0  0  0
  139.9670   75.3100  221.9190 C   0  0  0  0  0  0  0  0  0  0  0  0
  140.2020   76.7000  222.1410 N   0  0  0  0  0  0  0  0  0  0  0  0
  139.0570   77.4940  222.5530 C   0  0  0  0  0  0  0  0  0  0  0  0
  139.4740   78.8010  223.0640 C   0  0  0  0  0  0  0  0  0  0  0  0
  138.7300   79.5890  223.7140 O   0  0  0  0  0  0  0  0  0  0  0  0
  140.8090   79.2380  222.8260 N   0  0  0  0  0  0  0  0  0  0  0  0
  141.9970   78.8260  223.5700 C   0  0  0  0  0  0  0  0  0  0  0  0
  142.5730   80.2240  223.8420 C   0  0  0  0  0  0  0  0  0  0  0  0
  142.5750   80.7680  222.4190 C   0  0  0  0  0  0  0  0  0  0  0  0
  141.3000   80.1640  221.8220 C   0  0  1  0  0  0  0  0  0  0  0  0
  141.6350   79.4790  220.5470 C   0  0  0  0  0  0  0  0  0  0  0  0
  141.7110   78.1550  220.3350 N   0  0  0  0  0  0  0  0  0  0  0  0
  142.0430   77.9180  219.0400 C   0  0  0  0  0  0  0  0  0  0  0  0
  142.2310   76.6280  218.3850 C   0  0  0  0  0  0  0  0  0  0  0  0
  141.2460   75.6640  218.3190 C   0  0  0  0  0  0  0  0  0  0  0  0
  141.5060   74.4680  217.6790 C   0  0  0  0  0  0  0  0  0  0  0  0
  142.7340   74.1950  217.0940 C   0  0  0  0  0  0  0  0  0  0  0  0
  143.7150   75.1690  217.1660 C   0  0  0  0  0  0  0  0  0  0  0  0
  143.4480   76.3620  217.8070 C   0  0  0  0  0  0  0  0  0  0  0  0
  142.1640   79.1830  218.4790 C   0  0  0  0  0  0  0  0  0  0  0  0
  141.9110   80.0720  219.4200 O   0  0  0  0  0  0  0  0  0  0  0  0
  141.0770   74.4520  221.5020 C   0  0  0  0  0  0  0  0  0  0  0  0
  140.8610   73.0950  221.4320 C   0  0  0  0  0  0  0  0  0  0  0  0
  141.8330   72.2000  221.0540 C   0  0  0  0  0  0  0  0  0  0  0  0
  143.0760   72.7140  220.7330 C   0  0  0  0  0  0  0  0  0  0  0  0
  144.0740   71.8240  220.3470 C   0  0  0  0  0  0  0  0  0  0  0  0
  145.3230   72.3020  220.0200 C   0  0  0  0  0  0  0  0  0  0  0  0
  146.3140   71.4550  219.6400 F   0  0  0  0  0  0  0  0  0  0  0  0
  145.5150   73.6690  220.0960 C   0  0  0  0  0  0  0  0  0  0  0  0
  144.5280   74.5500  220.4790 C   0  0  0  0  0  0  0  0  0  0  0  0
  143.2760   74.0670  220.8060 C   0  0  0  0  0  0  0  0  0  0  0  0
  142.2870   74.9070  221.1850 N   0  0  0  0  0  0  0  0  0  0  0  0
  141.1530   77.0680  222.0020 H   0  0  0  0  0  0  0  0  0  0  0  0
  138.3935   77.6421  221.6882 H   0  0  0  0  0  0  0  0  0  0  0  0
  138.5328   76.9572  223.3574 H   0  0  0  0  0  0  0  0  0  0  0  0
  141.7435   78.2919  224.4976 H   0  0  0  0  0  0  0  0  0  0  0  0
  142.6664   78.1188  223.0584 H   0  0  0  0  0  0  0  0  0  0  0  0
  141.9252   80.8138  224.5072 H   0  0  0  0  0  0  0  0  0  0  0  0
  143.5464   80.2409  224.3541 H   0  0  0  0  0  0  0  0  0  0  0  0
  142.5320   81.8672  222.4151 H   0  0  0  0  0  0  0  0  0  0  0  0
  143.4839   80.5098  221.8557 H   0  0  0  0  0  0  0  0  0  0  0  0
  140.5328   80.9155  221.5840 H   0  0  0  0  0  0  0  0  0  0  0  0
  140.2608   75.8467  218.7728 H   0  0  0  0  0  0  0  0  0  0  0  0
  140.7133   73.7068  217.6316 H   0  0  0  0  0  0  0  0  0  0  0  0
  142.9220   73.2358  216.5894 H   0  0  0  0  0  0  0  0  0  0  0  0
  144.7026   74.9931  216.7146 H   0  0  0  0  0  0  0  0  0  0  0  0
  144.2376   77.1263  217.8566 H   0  0  0  0  0  0  0  0  0  0  0  0
  142.4250   79.4045  217.4336 H   0  0  0  0  0  0  0  0  0  0  0  0
  139.8641   72.7085  221.6906 H   0  0  0  0  0  0  0  0  0  0  0  0
  141.6307   71.1197  221.0087 H   0  0  0  0  0  0  0  0  0  0  0  0
  143.8660   70.7447  220.3034 H   0  0  0  0  0  0  0  0  0  0  0  0
  146.5050   74.0730  219.8378 H   0  0  0  0  0  0  0  0  0  0  0  0
  144.7351   75.6294  220.5241 H   0  0  0  0  0  0  0  0  0  0  0  0
  1  2  2  0
  2  3  1  0
  3  4  1  0
  4  5  1  0
  5  6  2  0
  5  7  1  0
  7  8  1  0
  8  9  1  0
  9 10  1  0
 10 11  1  0
 11 12  1  0
 12 13  2  0
 13 14  1  0
 14 15  1  0
 15 16  2  0
 16 17  1  0
 17 18  2  0
 18 19  1  0
 19 20  2  0
 14 21  2  0
 21 22  1  0
  2 23  1  0
 23 24  2  0
 24 25  1  0
 25 26  2  0
 26 27  1  0
 27 28  2  0
 28 29  1  0
 28 30  1  0
 30 31  2  0
 31 32  1  0
 32 33  2  0
 11  7  1  0
 22 12  1  0
 33 23  1  0
 20 15  1  0
 32 26  1  0
  3 34  1  0
  4 35  1  0
  4 36  1  0
  8 37  1  0
  8 38  1  0
  9 39  1  0
  9 40  1  0
 10 41  1  0
 10 42  1  0
 11 43  1  6
 16 44  1  0
 17 45  1  0
 18 46  1  0
 19 47  1  0
 20 48  1  0
 21 49  1  0
 24 50  1  0
 25 51  1  0
 27 52  1  0
 30 53  1  0
 31 54  1  0
M  END
>  <smiles>  (19) 
O=C(NCC(=O)N1CCC[C@H]1c1nc(-c2ccccc2)co1)c1ccc2cc(F)ccc2n1

>  <score_type>  (19) 
oracle

>  <origin>  (19) 
autodockgpu

>  <m_score__min__energy>  (19) 
-9.1799999999999997

>  <m_primary>  (19) 
energy

>  <rmsd>  (19) 
6.713510318992162

>  <m_score__min__rmsd>  (19) 
6.713510318992162

>  <meeko>  (19) 
{"free_energy": -6.86, "intermolecular_energy": -8.65, "internal_energy": -4.21, "cluster_size": 20, "cluster_id": 5, "rank_in_cluster": 10}

>  <energy>  (19) 
-8.7

>  <cluster_rmsd>  (19) 
0.87

>  <cluster>  (19) 
3

$$$$

     RDKit          3D

 54 58  0  0  0  0  0  0  0  0999 V2000
  138.9150   74.7730  222.3530 O   0  0  0  0  0  0  0  0  0  0  0  0
  139.9810   75.2660  221.8800 C   0  0  0  0  0  0  0  0  0  0  0  0
  140.0910   76.6850  221.7590 N   0  0  0  0  0  0  0  0  0  0  0  0
  138.9460   77.4640  222.2000 C   0  0  0  0  0  0  0  0  0  0  0  0
  139.3650   78.7540  222.7510 C   0  0  0  0  0  0  0  0  0  0  0  0
  138.5920   79.5750  223.3240 O   0  0  0  0  0  0  0  0  0  0  0  0
  140.7330   79.1350  222.6470 N   0  0  0  0  0  0  0  0  0  0  0  0
  141.8310   78.6450  223.4800 C   0  0  0  0  0  0  0  0  0  0  0  0
  142.4400   80.0050  223.8500 C   0  0  0  0  0  0  0  0  0  0  0  0
  142.5950   80.5920  222.4530 C   0  0  0  0  0  0  0  0  0  0  0  0
  141.3530   80.0670  221.7240 C   0  0  1  0  0  0  0  0  0  0  0  0
  141.7710   79.4080  220.4610 C   0  0  0  0  0  0  0  0  0  0  0  0
  141.8500   78.0880  220.2250 N   0  0  0  0  0  0  0  0  0  0  0  0
  142.2710   77.8760  218.9500 C   0  0  0  0  0  0  0  0  0  0  0  0
  142.4930   76.5990  218.2810 C   0  0  0  0  0  0  0  0  0  0  0  0
  143.6740   76.2750  217.6440 C   0  0  0  0  0  0  0  0  0  0  0  0
  143.8030   75.0430  217.0340 C   0  0  0  0  0  0  0  0  0  0  0  0
  142.7780   74.1070  217.0380 C   0  0  0  0  0  0  0  0  0  0  0  0
  141.5990   74.4420  217.6790 C   0  0  0  0  0  0  0  0  0  0  0  0
  141.4770   75.6760  218.2860 C   0  0  0  0  0  0  0  0  0  0  0  0
  142.4420   79.1530  218.4290 C   0  0  0  0  0  0  0  0  0  0  0  0
  142.1310   80.0230  219.3700 O   0  0  0  0  0  0  0  0  0  0  0  0
  141.0970   74.4220  221.4540 C   0  0  0  0  0  0  0  0  0  0  0  0
  140.8870   73.0650  221.3560 C   0  0  0  0  0  0  0  0  0  0  0  0
  141.8650   72.1810  220.9670 C   0  0  0  0  0  0  0  0  0  0  0  0
  143.1090   72.7060  220.6660 C   0  0  0  0  0  0  0  0  0  0  0  0
  144.1130   71.8280  220.2700 C   0  0  0  0  0  0  0  0  0  0  0  0
  145.3620   72.3170  219.9630 C   0  0  0  0  0  0  0  0  0  0  0  0
  146.3590   71.4820  219.5740 F   0  0  0  0  0  0  0  0  0  0  0  0
  145.5490   73.6820  220.0680 C   0  0  0  0  0  0  0  0  0  0  0  0
  144.5560   74.5520  220.4610 C   0  0  0  0  0  0  0  0  0  0  0  0
  143.3030   74.0580  220.7680 C   0  0  0  0  0  0  0  0  0  0  0  0
  142.3080   74.8870  221.1560 N   0  0  0  0  0  0  0  0  0  0  0  0
  140.9590   77.0810  221.3740 H   0  0  0  0  0  0  0  0  0  0  0  0
  138.2794   77.6393  221.3427 H   0  0  0  0  0  0  0  0  0  0  0  0
  138.4240   76.9013  222.9879 H   0  0  0  0  0  0  0  0  0  0  0  0
  141.4716   78.0952  224.3624 H   0  0  0  0  0  0  0  0  0  0  0  0
  142.5124   77.9233  223.0058 H   0  0  0  0  0  0  0  0  0  0  0  0
  141.7608   80.6036  224.4748 H   0  0  0  0  0  0  0  0  0  0  0  0
  143.3629   79.9607  224.4470 H   0  0  0  0  0  0  0  0  0  0  0  0
  142.6011   81.6916  222.4837 H   0  0  0  0  0  0  0  0  0  0  0  0
  143.5389   80.3091  221.9641 H   0  0  0  0  0  0  0  0  0  0  0  0
  140.6440   80.8606  221.4455 H   0  0  0  0  0  0  0  0  0  0  0  0
  144.5067   76.9934  217.6225 H   0  0  0  0  0  0  0  0  0  0  0  0
  144.7482   74.7954  216.5288 H   0  0  0  0  0  0  0  0  0  0  0  0
  142.8995   73.1301  216.5471 H   0  0  0  0  0  0  0  0  0  0  0  0
  140.7623   73.7284  217.7050 H   0  0  0  0  0  0  0  0  0  0  0  0
  140.5330   75.9283  218.7911 H   0  0  0  0  0  0  0  0  0  0  0  0
  142.7780   79.3956  217.4100 H   0  0  0  0  0  0  0  0  0  0  0  0
  139.8900   72.6697  221.6004 H   0  0  0  0  0  0  0  0  0  0  0  0
  141.6668   71.1012  220.8979 H   0  0  0  0  0  0  0  0  0  0  0  0
  143.9095   70.7491  220.2027 H   0  0  0  0  0  0  0  0  0  0  0  0
  146.5397   74.0942  219.8258 H   0  0  0  0  0  0  0  0  0  0  0  0
  144.7590   75.6309  220.5298 H   0  0  0  0  0  0  0  0  0  0  0  0
  1  2  2  0
  2  3  1  0
  3  4  1  0
  4  5  1  0
  5  6  2  0
  5  7  1  0
  7  8  1  0
  8  9  1  0
  9 10  1  0
 10 11  1  0
 11 12  1  0
 12 13  2  0
 13 14  1  0
 14 15  1  0
 15 16  2  0
 16 17  1  0
 17 18  2  0
 18 19  1  0
 19 20  2  0
 14 21  2  0
 21 22  1  0
  2 23  1  0
 23 24  2  0
 24 25  1  0
 25 26  2  0
 26 27  1  0
 27 28  2  0
 28 29  1  0
 28 30  1  0
 30 31  2  0
 31 32  1  0
 32 33  2  0
 11  7  1  0
 22 12  1  0
 33 23  1  0
 20 15  1  0
 32 26  1  0
  3 34  1  0
  4 35  1  0
  4 36  1  0
  8 37  1  0
  8 38  1  0
  9 39  1  0
  9 40  1  0
 10 41  1  0
 10 42  1  0
 11 43  1  6
 16 44  1  0
 17 45  1  0
 18 46  1  0
 19 47  1  0
 20 48  1  0
 21 49  1  0
 24 50  1  0
 25 51  1  0
 27 52  1  0
 30 53  1  0
 31 54  1  0
M  END
>  <smiles>  (20) 
O=C(NCC(=O)N1CCC[C@H]1c1nc(-c2ccccc2)co1)c1ccc2cc(F)ccc2n1

>  <score_type>  (20) 
oracle

>  <origin>  (20) 
autodockgpu

>  <m_score__min__energy>  (20) 
-9.1799999999999997

>  <m_primary>  (20) 
energy

>  <rmsd>  (20) 
6.796117675293218

>  <m_score__min__rmsd>  (20) 
6.796117675293218

>  <meeko>  (20) 
{"free_energy": -6.83, "intermolecular_energy": -8.62, "internal_energy": -4.25, "cluster_size": 20, "cluster_id": 5, "rank_in_cluster": 14}

>  <energy>  (20) 
-8.55

>  <cluster_rmsd>  (20) 
1.2

>  <cluster>  (20) 
3

$$$$

     RDKit          3D

 54 58  0  0  0  0  0  0  0  0999 V2000
  138.9800   74.8980  221.7210 O   0  0  0  0  0  0  0  0  0  0  0  0
  140.1730   75.3230  221.6820 C   0  0  0  0  0  0  0  0  0  0  0  0
  140.4300   76.6910  222.0000 N   0  0  0  0  0  0  0  0  0  0  0  0
  139.2760   77.5020  222.3520 C   0  0  0  0  0  0  0  0  0  0  0  0
  139.6800   78.7130  223.0680 C   0  0  0  0  0  0  0  0  0  0  0  0
  138.9620   79.3220  223.9110 O   0  0  0  0  0  0  0  0  0  0  0  0
  140.9680   79.2650  222.8140 N   0  0  0  0  0  0  0  0  0  0  0  0
  142.1930   78.9730  223.5570 C   0  0  0  0  0  0  0  0  0  0  0  0
  142.6420   80.4200  223.8040 C   0  0  0  0  0  0  0  0  0  0  0  0
  142.5880   80.9410  222.3750 C   0  0  0  0  0  0  0  0  0  0  0  0
  141.3690   80.2160  221.7940 C   0  0  1  0  0  0  0  0  0  0  0  0
  141.7570   79.5460  220.5270 C   0  0  0  0  0  0  0  0  0  0  0  0
  141.8620   78.2250  220.3100 N   0  0  0  0  0  0  0  0  0  0  0  0
  142.2410   78.0020  219.0240 C   0  0  0  0  0  0  0  0  0  0  0  0
  142.4720   76.7200  218.3680 C   0  0  0  0  0  0  0  0  0  0  0  0
  143.6910   76.3510  217.8380 C   0  0  0  0  0  0  0  0  0  0  0  0
  143.8260   75.1180  217.2330 C   0  0  0  0  0  0  0  0  0  0  0  0
  142.7690   74.2240  217.1360 C   0  0  0  0  0  0  0  0  0  0  0  0
  141.5510   74.6040  217.6700 C   0  0  0  0  0  0  0  0  0  0  0  0
  141.4240   75.8380  218.2740 C   0  0  0  0  0  0  0  0  0  0  0  0
  142.3580   79.2730  218.4760 C   0  0  0  0  0  0  0  0  0  0  0  0
  142.0590   80.1510  219.4130 O   0  0  0  0  0  0  0  0  0  0  0  0
  141.2890   74.4500  221.3180 C   0  0  0  0  0  0  0  0  0  0  0  0
  141.0520   73.0970  221.2160 C   0  0  0  0  0  0  0  0  0  0  0  0
  142.0270   72.1890  220.8820 C   0  0  0  0  0  0  0  0  0  0  0  0
  143.2970   72.6830  220.6430 C   0  0  0  0  0  0  0  0  0  0  0  0
  144.2990   71.7790  220.3030 C   0  0  0  0  0  0  0  0  0  0  0  0
  145.5740   72.2360  220.0570 C   0  0  0  0  0  0  0  0  0  0  0  0
  146.5690   71.3760  219.7240 F   0  0  0  0  0  0  0  0  0  0  0  0
  145.7870   73.5980  220.1650 C   0  0  0  0  0  0  0  0  0  0  0  0
  144.7960   74.4930  220.5010 C   0  0  0  0  0  0  0  0  0  0  0  0
  143.5180   74.0300  220.7470 C   0  0  0  0  0  0  0  0  0  0  0  0
  142.5240   74.8850  221.0790 N   0  0  0  0  0  0  0  0  0  0  0  0
  141.4000   77.0310  221.9660 H   0  0  0  0  0  0  0  0  0  0  0  0
  138.7449   77.7889  221.4324 H   0  0  0  0  0  0  0  0  0  0  0  0
  138.6213   76.9105  223.0089 H   0  0  0  0  0  0  0  0  0  0  0  0
  141.9933   78.4328  224.4942 H   0  0  0  0  0  0  0  0  0  0  0  0
  142.9207   78.3210  223.0517 H   0  0  0  0  0  0  0  0  0  0  0  0
  141.9473   80.9591  224.4648 H   0  0  0  0  0  0  0  0  0  0  0  0
  143.6129   80.5315  224.3089 H   0  0  0  0  0  0  0  0  0  0  0  0
  142.4463   82.0317  222.3562 H   0  0  0  0  0  0  0  0  0  0  0  0
  143.5136   80.7575  221.8097 H   0  0  0  0  0  0  0  0  0  0  0  0
  140.5363   80.8921  221.5500 H   0  0  0  0  0  0  0  0  0  0  0  0
  144.5501   77.0354  217.8972 H   0  0  0  0  0  0  0  0  0  0  0  0
  144.8029   74.8347  216.8142 H   0  0  0  0  0  0  0  0  0  0  0  0
  142.8957   73.2452  216.6503 H   0  0  0  0  0  0  0  0  0  0  0  0
  140.6872   73.9253  217.6134 H   0  0  0  0  0  0  0  0  0  0  0  0
  140.4491   76.1252  218.6949 H   0  0  0  0  0  0  0  0  0  0  0  0
  142.6492   79.5062  217.4412 H   0  0  0  0  0  0  0  0  0  0  0  0
  140.0348   72.7265  221.4111 H   0  0  0  0  0  0  0  0  0  0  0  0
  141.8072   71.1138  220.8076 H   0  0  0  0  0  0  0  0  0  0  0  0
  144.0733   70.7048  220.2312 H   0  0  0  0  0  0  0  0  0  0  0  0
  146.7983   73.9857  219.9729 H   0  0  0  0  0  0  0  0  0  0  0  0
  145.0201   75.5675  220.5729 H   0  0  0  0  0  0  0  0  0  0  0  0
  1  2  2  0
  2  3  1  0
  3  4  1  0
  4  5  1  0
  5  6  2  0
  5  7  1  0
  7  8  1  0
  8  9  1  0
  9 10  1  0
 10 11  1  0
 11 12  1  0
 12 13  2  0
 13 14  1  0
 14 15  1  0
 15 16  2  0
 16 17  1  0
 17 18  2  0
 18 19  1  0
 19 20  2  0
 14 21  2  0
 21 22  1  0
  2 23  1  0
 23 24  2  0
 24 25  1  0
 25 26  2  0
 26 27  1  0
 27 28  2  0
 28 29  1  0
 28 30  1  0
 30 31  2  0
 31 32  1  0
 32 33  2  0
 11  7  1  0
 22 12  1  0
 33 23  1  0
 20 15  1  0
 32 26  1  0
  3 34  1  0
  4 35  1  0
  4 36  1  0
  8 37  1  0
  8 38  1  0
  9 39  1  0
  9 40  1  0
 10 41  1  0
 10 42  1  0
 11 43  1  6
 16 44  1  0
 17 45  1  0
 18 46  1  0
 19 47  1  0
 20 48  1  0
 21 49  1  0
 24 50  1  0
 25 51  1  0
 27 52  1  0
 30 53  1  0
 31 54  1  0
M  END
>  <smiles>  (21) 
O=C(NCC(=O)N1CCC[C@H]1c1nc(-c2ccccc2)co1)c1ccc2cc(F)ccc2n1

>  <score_type>  (21) 
oracle

>  <origin>  (21) 
autodockgpu

>  <m_score__min__energy>  (21) 
-9.1799999999999997

>  <m_primary>  (21) 
energy

>  <rmsd>  (21) 
6.840380545438476

>  <m_score__min__rmsd>  (21) 
6.840380545438476

>  <meeko>  (21) 
{"free_energy": -6.94, "intermolecular_energy": -8.73, "internal_energy": -4.17, "cluster_size": 20, "cluster_id": 5, "rank_in_cluster": 2}

>  <energy>  (21) 
-8.51

>  <cluster_rmsd>  (21) 
0.95

>  <cluster>  (21) 
3

$$$$

     RDKit          3D

 54 58  0  0  0  0  0  0  0  0999 V2000
  141.6330   78.5020  216.9620 O   0  0  0  0  0  0  0  0  0  0  0  0
  141.8640   78.5980  218.2040 C   0  0  0  0  0  0  0  0  0  0  0  0
  142.7890   77.6910  218.8070 N   0  0  0  0  0  0  0  0  0  0  0  0
  143.4040   76.7120  217.9270 C   0  0  0  0  0  0  0  0  0  0  0  0
  142.7350   75.4140  218.0300 C   0  0  0  0  0  0  0  0  0  0  0  0
  142.1980   74.8040  217.0620 O   0  0  0  0  0  0  0  0  0  0  0  0
  142.6720   74.7720  219.3000 N   0  0  0  0  0  0  0  0  0  0  0  0
  143.8110   74.3120  220.0920 C   0  0  0  0  0  0  0  0  0  0  0  0
  143.3080   72.8910  220.3830 C   0  0  0  0  0  0  0  0  0  0  0  0
  141.9330   73.2280  220.9420 C   0  0  0  0  0  0  0  0  0  0  0  0
  141.5050   74.4290  220.0920 C   0  0  1  0  0  0  0  0  0  0  0  0
  141.0940   75.5400  220.9880 C   0  0  0  0  0  0  0  0  0  0  0  0
  141.7410   76.6990  221.1910 N   0  0  0  0  0  0  0  0  0  0  0  0
  141.0510   77.4580  222.0820 C   0  0  0  0  0  0  0  0  0  0  0  0
  141.3950   78.7840  222.5840 C   0  0  0  0  0  0  0  0  0  0  0  0
  142.6270   79.3720  222.3840 C   0  0  0  0  0  0  0  0  0  0  0  0
  142.8710   80.6310  222.8930 C   0  0  0  0  0  0  0  0  0  0  0  0
  141.9130   81.3370  223.6070 C   0  0  0  0  0  0  0  0  0  0  0  0
  140.6810   80.7390  223.8020 C   0  0  0  0  0  0  0  0  0  0  0  0
  140.4450   79.4790  223.2900 C   0  0  0  0  0  0  0  0  0  0  0  0
  139.9430   76.6850  222.4060 C   0  0  0  0  0  0  0  0  0  0  0  0
  140.0200   75.5570  221.7270 O   0  0  0  0  0  0  0  0  0  0  0  0
  141.2090   79.6090  219.0330 C   0  0  0  0  0  0  0  0  0  0  0  0
  141.8660   80.7990  219.2510 C   0  0  0  0  0  0  0  0  0  0  0  0
  141.3420   81.8160  220.0130 C   0  0  0  0  0  0  0  0  0  0  0  0
  140.0960   81.6070  220.5760 C   0  0  0  0  0  0  0  0  0  0  0  0
  139.5480   82.6250  221.3510 C   0  0  0  0  0  0  0  0  0  0  0  0
  138.3090   82.4510  221.9250 C   0  0  0  0  0  0  0  0  0  0  0  0
  137.7520   83.4280  222.6860 F   0  0  0  0  0  0  0  0  0  0  0  0
  137.6680   81.2490  221.6920 C   0  0  0  0  0  0  0  0  0  0  0  0
  138.2100   80.2410  220.9250 C   0  0  0  0  0  0  0  0  0  0  0  0
  139.4540   80.4190  220.3500 C   0  0  0  0  0  0  0  0  0  0  0  0
  140.0120   79.4480  219.5920 N   0  0  0  0  0  0  0  0  0  0  0  0
  142.9720   77.7730  219.8160 H   0  0  0  0  0  0  0  0  0  0  0  0
  143.3357   77.0696  216.8890 H   0  0  0  0  0  0  0  0  0  0  0  0
  144.4553   76.5869  218.2256 H   0  0  0  0  0  0  0  0  0  0  0  0
  144.7474   74.3126  219.5148 H   0  0  0  0  0  0  0  0  0  0  0  0
  144.0670   74.9230  220.9701 H   0  0  0  0  0  0  0  0  0  0  0  0
  143.2427   72.2824  219.4690 H   0  0  0  0  0  0  0  0  0  0  0  0
  143.9504   72.2904  221.0437 H   0  0  0  0  0  0  0  0  0  0  0  0
  141.2369   72.3856  220.8162 H   0  0  0  0  0  0  0  0  0  0  0  0
  141.9421   73.4399  222.0214 H   0  0  0  0  0  0  0  0  0  0  0  0
  140.6456   74.2153  219.4396 H   0  0  0  0  0  0  0  0  0  0  0  0
  143.4095   78.8406  221.8225 H   0  0  0  0  0  0  0  0  0  0  0  0
  143.8569   81.0900  222.7275 H   0  0  0  0  0  0  0  0  0  0  0  0
  142.1265   82.3400  224.0051 H   0  0  0  0  0  0  0  0  0  0  0  0
  139.8936   81.2647  224.3621 H   0  0  0  0  0  0  0  0  0  0  0  0
  139.4609   79.0156  223.4535 H   0  0  0  0  0  0  0  0  0  0  0  0
  139.1420   76.9647  223.1061 H   0  0  0  0  0  0  0  0  0  0  0  0
  142.8563   80.9427  218.7942 H   0  0  0  0  0  0  0  0  0  0  0  0
  141.8906   82.7567  220.1685 H   0  0  0  0  0  0  0  0  0  0  0  0
  140.1017   83.5631  221.5039 H   0  0  0  0  0  0  0  0  0  0  0  0
  136.6765   81.0893  222.1409 H   0  0  0  0  0  0  0  0  0  0  0  0
  137.6572   79.3024  220.7716 H   0  0  0  0  0  0  0  0  0  0  0  0
  1  2  2  0
  2  3  1  0
  3  4  1  0
  4  5  1  0
  5  6  2  0
  5  7  1  0
  7  8  1  0
  8  9  1  0
  9 10  1  0
 10 11  1  0
 11 12  1  0
 12 13  2  0
 13 14  1  0
 14 15  1  0
 15 16  2  0
 16 17  1  0
 17 18  2  0
 18 19  1  0
 19 20  2  0
 14 21  2  0
 21 22  1  0
  2 23  1  0
 23 24  2  0
 24 25  1  0
 25 26  2  0
 26 27  1  0
 27 28  2  0
 28 29  1  0
 28 30  1  0
 30 31  2  0
 31 32  1  0
 32 33  2  0
 11  7  1  0
 22 12  1  0
 33 23  1  0
 20 15  1  0
 32 26  1  0
  3 34  1  0
  4 35  1  0
  4 36  1  0
  8 37  1  0
  8 38  1  0
  9 39  1  0
  9 40  1  0
 10 41  1  0
 10 42  1  0
 11 43  1  6
 16 44  1  0
 17 45  1  0
 18 46  1  0
 19 47  1  0
 20 48  1  0
 21 49  1  0
 24 50  1  0
 25 51  1  0
 27 52  1  0
 30 53  1  0
 31 54  1  0
M  END
>  <smiles>  (22) 
O=C(NCC(=O)N1CCC[C@H]1c1nc(-c2ccccc2)co1)c1ccc2cc(F)ccc2n1

>  <score_type>  (22) 
oracle

>  <origin>  (22) 
autodockgpu

>  <m_score__min__energy>  (22) 
-9.1799999999999997

>  <m_primary>  (22) 
energy

>  <rmsd>  (22) 
8.715584098728485

>  <m_score__min__rmsd>  (22) 
8.715584098728485

>  <meeko>  (22) 
{"free_energy": -6.19, "intermolecular_energy": -7.98, "internal_energy": -4.2, "cluster_size": 5, "cluster_id": 6, "rank_in_cluster": 5}

>  <energy>  (22) 
-8.5

>  <cluster_rmsd>  (22) 
0.68

>  <cluster>  (22) 
3

$$$$

     RDKit          3D

 54 58  0  0  0  0  0  0  0  0999 V2000
  138.8850   70.3970  221.3500 O   0  0  0  0  0  0  0  0  0  0  0  0
  139.0250   71.2350  222.2900 C   0  0  0  0  0  0  0  0  0  0  0  0
  138.6850   72.6020  222.0540 N   0  0  0  0  0  0  0  0  0  0  0  0
  138.1950   72.9280  220.7250 C   0  0  0  0  0  0  0  0  0  0  0  0
  139.2380   72.7390  219.7150 C   0  0  0  0  0  0  0  0  0  0  0  0
  139.1630   71.9260  218.7490 O   0  0  0  0  0  0  0  0  0  0  0  0
  140.4290   73.5130  219.8040 N   0  0  0  0  0  0  0  0  0  0  0  0
  141.1230   74.1610  218.6920 C   0  0  0  0  0  0  0  0  0  0  0  0
  142.5370   73.6450  218.9940 C   0  0  0  0  0  0  0  0  0  0  0  0
  142.6440   74.0620  220.4540 C   0  0  0  0  0  0  0  0  0  0  0  0
  141.2210   73.8380  220.9770 C   0  0  1  0  0  0  0  0  0  0  0  0
  140.7450   75.0770  221.6440 C   0  0  0  0  0  0  0  0  0  0  0  0
  141.4150   76.2330  221.7780 N   0  0  0  0  0  0  0  0  0  0  0  0
  140.6470   77.1320  222.4480 C   0  0  0  0  0  0  0  0  0  0  0  0
  140.9840   78.5040  222.8090 C   0  0  0  0  0  0  0  0  0  0  0  0
  142.2580   79.0230  222.7010 C   0  0  0  0  0  0  0  0  0  0  0  0
  142.4920   80.3340  223.0640 C   0  0  0  0  0  0  0  0  0  0  0  0
  141.4830   81.1600  223.5390 C   0  0  0  0  0  0  0  0  0  0  0  0
  140.2100   80.6300  223.6430 C   0  0  0  0  0  0  0  0  0  0  0  0
  139.9830   79.3180  223.2780 C   0  0  0  0  0  0  0  0  0  0  0  0
  139.4680   76.4460  222.7120 C   0  0  0  0  0  0  0  0  0  0  0  0
  139.5820   75.2310  222.2120 O   0  0  0  0  0  0  0  0  0  0  0  0
  139.5250   70.8380  223.6060 C   0  0  0  0  0  0  0  0  0  0  0  0
  140.2880   71.7400  224.3120 C   0  0  0  0  0  0  0  0  0  0  0  0
  140.8090   71.4700  225.5560 C   0  0  0  0  0  0  0  0  0  0  0  0
  140.5380   70.2270  226.0980 C   0  0  0  0  0  0  0  0  0  0  0  0
  141.0560   69.9340  227.3570 C   0  0  0  0  0  0  0  0  0  0  0  0
  140.8050   68.7060  227.9270 C   0  0  0  0  0  0  0  0  0  0  0  0
  141.2980   68.3950  229.1530 F   0  0  0  0  0  0  0  0  0  0  0  0
  140.0360   67.8180  227.1990 C   0  0  0  0  0  0  0  0  0  0  0  0
  139.5240   68.1070  225.9530 C   0  0  0  0  0  0  0  0  0  0  0  0
  139.7770   69.3400  225.3840 C   0  0  0  0  0  0  0  0  0  0  0  0
  139.2870   69.6530  224.1630 N   0  0  0  0  0  0  0  0  0  0  0  0
  138.8010   73.2780  222.8210 H   0  0  0  0  0  0  0  0  0  0  0  0
  137.3424   72.2751  220.4868 H   0  0  0  0  0  0  0  0  0  0  0  0
  137.8889   73.9845  220.7161 H   0  0  0  0  0  0  0  0  0  0  0  0
  140.7542   73.8182  217.7140 H   0  0  0  0  0  0  0  0  0  0  0  0
  141.0117   75.2532  218.6238 H   0  0  0  0  0  0  0  0  0  0  0  0
  142.6117   72.5544  218.8713 H   0  0  0  0  0  0  0  0  0  0  0  0
  143.3291   74.0309  218.3354 H   0  0  0  0  0  0  0  0  0  0  0  0
  143.3678   73.4334  220.9934 H   0  0  0  0  0  0  0  0  0  0  0  0
  142.9989   75.0947  220.5868 H   0  0  0  0  0  0  0  0  0  0  0  0
  141.1542   73.0321  221.7227 H   0  0  0  0  0  0  0  0  0  0  0  0
  143.0815   78.3962  222.3282 H   0  0  0  0  0  0  0  0  0  0  0  0
  143.5115   80.7372  222.9738 H   0  0  0  0  0  0  0  0  0  0  0  0
  141.6892   82.2024  223.8235 H   0  0  0  0  0  0  0  0  0  0  0  0
  139.3818   81.2511  224.0150 H   0  0  0  0  0  0  0  0  0  0  0  0
  138.9649   78.9109  223.3660 H   0  0  0  0  0  0  0  0  0  0  0  0
  138.5928   76.8462  223.2448 H   0  0  0  0  0  0  0  0  0  0  0  0
  140.4905   72.7224  223.8605 H   0  0  0  0  0  0  0  0  0  0  0  0
  141.4155   72.2114  226.0968 H   0  0  0  0  0  0  0  0  0  0  0  0
  141.6621   70.6792  227.8930 H   0  0  0  0  0  0  0  0  0  0  0  0
  139.8221   66.8315  227.6361 H   0  0  0  0  0  0  0  0  0  0  0  0
  138.9188   67.3620  225.4157 H   0  0  0  0  0  0  0  0  0  0  0  0
  1  2  2  0
  2  3  1  0
  3  4  1  0
  4  5  1  0
  5  6  2  0
  5  7  1  0
  7  8  1  0
  8  9  1  0
  9 10  1  0
 10 11  1  0
 11 12  1  0
 12 13  2  0
 13 14  1  0
 14 15  1  0
 15 16  2  0
 16 17  1  0
 17 18  2  0
 18 19  1  0
 19 20  2  0
 14 21  2  0
 21 22  1  0
  2 23  1  0
 23 24  2  0
 24 25  1  0
 25 26  2  0
 26 27  1  0
 27 28  2  0
 28 29  1  0
 28 30  1  0
 30 31  2  0
 31 32  1  0
 32 33  2  0
 11  7  1  0
 22 12  1  0
 33 23  1  0
 20 15  1  0
 32 26  1  0
  3 34  1  0
  4 35  1  0
  4 36  1  0
  8 37  1  0
  8 38  1  0
  9 39  1  0
  9 40  1  0
 10 41  1  0
 10 42  1  0
 11 43  1  1
 16 44  1  0
 17 45  1  0
 18 46  1  0
 19 47  1  0
 20 48  1  0
 21 49  1  0
 24 50  1  0
 25 51  1  0
 27 52  1  0
 30 53  1  0
 31 54  1  0
M  END
>  <smiles>  (23) 
O=C(NCC(=O)N1CCC[C@H]1c1nc(-c2ccccc2)co1)c1ccc2cc(F)ccc2n1

>  <score_type>  (23) 
oracle

>  <origin>  (23) 
autodockgpu

>  <m_score__min__energy>  (23) 
-9.1799999999999997

>  <m_primary>  (23) 
energy

>  <rmsd>  (23) 
3.4312519449270322

>  <m_score__min__rmsd>  (23) 
3.4312519449270322

>  <meeko>  (23) 
{"free_energy": -8.93, "intermolecular_energy": -10.72, "internal_energy": -2.49, "cluster_size": 12, "cluster_id": 3, "rank_in_cluster": 2}

>  <energy>  (23) 
-8.49

>  <cluster_rmsd>  (23) 
0.67

>  <cluster>  (23) 
3

$$$$

     RDKit          3D

 54 58  0  0  0  0  0  0  0  0999 V2000
  138.9020   74.6880  222.3500 O   0  0  0  0  0  0  0  0  0  0  0  0
  139.9880   75.1980  221.9400 C   0  0  0  0  0  0  0  0  0  0  0  0
  140.1300   76.6190  221.9510 N   0  0  0  0  0  0  0  0  0  0  0  0
  138.9940   77.3810  222.4420 C   0  0  0  0  0  0  0  0  0  0  0  0
  139.3610   78.7760  222.6910 C   0  0  0  0  0  0  0  0  0  0  0  0
  138.5410   79.6920  222.9840 O   0  0  0  0  0  0  0  0  0  0  0  0
  140.7310   79.1530  222.6030 N   0  0  0  0  0  0  0  0  0  0  0  0
  141.8150   78.6740  223.4600 C   0  0  0  0  0  0  0  0  0  0  0  0
  142.4210   80.0380  223.8190 C   0  0  0  0  0  0  0  0  0  0  0  0
  142.5980   80.6040  222.4170 C   0  0  0  0  0  0  0  0  0  0  0  0
  141.3670   80.0710  221.6760 C   0  0  1  0  0  0  0  0  0  0  0  0
  141.8040   79.3920  220.4300 C   0  0  0  0  0  0  0  0  0  0  0  0
  141.8250   78.0710  220.1920 N   0  0  0  0  0  0  0  0  0  0  0  0
  142.2880   77.8390  218.9360 C   0  0  0  0  0  0  0  0  0  0  0  0
  142.4720   76.5530  218.2730 C   0  0  0  0  0  0  0  0  0  0  0  0
  141.4980   75.5760  218.2330 C   0  0  0  0  0  0  0  0  0  0  0  0
  141.7540   74.3850  217.5830 C   0  0  0  0  0  0  0  0  0  0  0  0
  142.9670   74.1300  216.9610 C   0  0  0  0  0  0  0  0  0  0  0  0
  143.9380   75.1150  217.0070 C   0  0  0  0  0  0  0  0  0  0  0  0
  143.6740   76.3030  217.6590 C   0  0  0  0  0  0  0  0  0  0  0  0
  142.5460   79.1050  218.4270 C   0  0  0  0  0  0  0  0  0  0  0  0
  142.2400   79.9890  219.3560 O   0  0  0  0  0  0  0  0  0  0  0  0
  141.0930   74.3700  221.4580 C   0  0  0  0  0  0  0  0  0  0  0  0
  140.8600   73.0300  221.2490 C   0  0  0  0  0  0  0  0  0  0  0  0
  141.8260   72.1620  220.7980 C   0  0  0  0  0  0  0  0  0  0  0  0
  143.0830   72.6870  220.5520 C   0  0  0  0  0  0  0  0  0  0  0  0
  144.0750   71.8250  220.0950 C   0  0  0  0  0  0  0  0  0  0  0  0
  145.3360   72.3140  219.8400 C   0  0  0  0  0  0  0  0  0  0  0  0
  146.3220   71.4950  219.3930 F   0  0  0  0  0  0  0  0  0  0  0  0
  145.5460   73.6630  220.0560 C   0  0  0  0  0  0  0  0  0  0  0  0
  144.5630   74.5170  220.5090 C   0  0  0  0  0  0  0  0  0  0  0  0
  143.2990   74.0230  220.7650 C   0  0  0  0  0  0  0  0  0  0  0  0
  142.3150   74.8360  221.2090 N   0  0  0  0  0  0  0  0  0  0  0  0
  141.0130   77.0280  221.6170 H   0  0  0  0  0  0  0  0  0  0  0  0
  138.1898   77.3498  221.6922 H   0  0  0  0  0  0  0  0  0  0  0  0
  138.6580   76.9345  223.3895 H   0  0  0  0  0  0  0  0  0  0  0  0
  141.4410   78.1382  224.3449 H   0  0  0  0  0  0  0  0  0  0  0  0
  142.5023   77.9442  223.0072 H   0  0  0  0  0  0  0  0  0  0  0  0
  141.7337   80.6469  224.4247 H   0  0  0  0  0  0  0  0  0  0  0  0
  143.3348   80.0007  224.4302 H   0  0  0  0  0  0  0  0  0  0  0  0
  142.6056   81.7039  222.4321 H   0  0  0  0  0  0  0  0  0  0  0  0
  143.5487   80.3120  221.9470 H   0  0  0  0  0  0  0  0  0  0  0  0
  140.6643   80.8617  221.3744 H   0  0  0  0  0  0  0  0  0  0  0  0
  140.5242   75.7450  218.7158 H   0  0  0  0  0  0  0  0  0  0  0  0
  140.9704   73.6134  217.5577 H   0  0  0  0  0  0  0  0  0  0  0  0
  143.1515   73.1750  216.4473 H   0  0  0  0  0  0  0  0  0  0  0  0
  144.9143   74.9524  216.5270 H   0  0  0  0  0  0  0  0  0  0  0  0
  144.4550   77.0771  217.6875 H   0  0  0  0  0  0  0  0  0  0  0  0
  142.9373   79.3308  217.4240 H   0  0  0  0  0  0  0  0  0  0  0  0
  139.8537   72.6349  221.4523 H   0  0  0  0  0  0  0  0  0  0  0  0
  141.6092   71.0953  220.6393 H   0  0  0  0  0  0  0  0  0  0  0  0
  143.8528   70.7591  219.9385 H   0  0  0  0  0  0  0  0  0  0  0  0
  146.5462   74.0753  219.8568 H   0  0  0  0  0  0  0  0  0  0  0  0
  144.7837   75.5832  220.6653 H   0  0  0  0  0  0  0  0  0  0  0  0
  1  2  2  0
  2  3  1  0
  3  4  1  0
  4  5  1  0
  5  6  2  0
  5  7  1  0
  7  8  1  0
  8  9  1  0
  9 10  1  0
 10 11  1  0
 11 12  1  0
 12 13  2  0
 13 14  1  0
 14 15  1  0
 15 16  2  0
 16 17  1  0
 17 18  2  0
 18 19  1  0
 19 20  2  0
 14 21  2  0
 21 22  1  0
  2 23  1  0
 23 24  2  0
 24 25  1  0
 25 26  2  0
 26 27  1  0
 27 28  2  0
 28 29  1  0
 28 30  1  0
 30 31  2  0
 31 32  1  0
 32 33  2  0
 11  7  1  0
 22 12  1  0
 33 23  1  0
 20 15  1  0
 32 26  1  0
  3 34  1  0
  4 35  1  0
  4 36  1  0
  8 37  1  0
  8 38  1  0
  9 39  1  0
  9 40  1  0
 10 41  1  0
 10 42  1  0
 11 43  1  6
 16 44  1  0
 17 45  1  0
 18 46  1  0
 19 47  1  0
 20 48  1  0
 21 49  1  0
 24 50  1  0
 25 51  1  0
 27 52  1  0
 30 53  1  0
 31 54  1  0
M  END
>  <smiles>  (24) 
O=C(NCC(=O)N1CCC[C@H]1c1nc(-c2ccccc2)co1)c1ccc2cc(F)ccc2n1

>  <score_type>  (24) 
oracle

>  <origin>  (24) 
autodockgpu

>  <m_score__min__energy>  (24) 
-9.1799999999999997

>  <m_primary>  (24) 
energy

>  <rmsd>  (24) 
6.743970157472006

>  <m_score__min__rmsd>  (24) 
6.743970157472006

>  <meeko>  (24) 
{"free_energy": -6.74, "intermolecular_energy": -8.53, "internal_energy": -4.26, "cluster_size": 20, "cluster_id": 5, "rank_in_cluster": 19}

>  <energy>  (24) 
-6.96

>  <cluster_rmsd>  (24) 
0.0

>  <cluster>  (24) 
4

$$$$

     RDKit          3D

 54 58  0  0  0  0  0  0  0  0999 V2000
  138.7510   70.4380  221.4000 O   0  0  0  0  0  0  0  0  0  0  0  0
  138.9720   71.2830  222.3180 C   0  0  0  0  0  0  0  0  0  0  0  0
  138.7100   72.6640  222.0640 N   0  0  0  0  0  0  0  0  0  0  0  0
  138.1980   72.9940  220.7450 C   0  0  0  0  0  0  0  0  0  0  0  0
  139.2360   72.8480  219.7230 C   0  0  0  0  0  0  0  0  0  0  0  0
  139.1460   72.0970  218.7100 O   0  0  0  0  0  0  0  0  0  0  0  0
  140.4410   73.5950  219.8560 N   0  0  0  0  0  0  0  0  0  0  0  0
  141.1920   74.2220  218.7690 C   0  0  0  0  0  0  0  0  0  0  0  0
  142.5810   73.6750  219.1280 C   0  0  0  0  0  0  0  0  0  0  0  0
  142.6400   74.0970  220.5900 C   0  0  0  0  0  0  0  0  0  0  0  0
  141.1930   73.9080  221.0570 C   0  0  1  0  0  0  0  0  0  0  0  0
  140.7210   75.1600  221.7010 C   0  0  0  0  0  0  0  0  0  0  0  0
  141.4060   76.3070  221.8410 N   0  0  0  0  0  0  0  0  0  0  0  0
  140.6360   77.2240  222.4830 C   0  0  0  0  0  0  0  0  0  0  0  0
  140.9850   78.5950  222.8400 C   0  0  0  0  0  0  0  0  0  0  0  0
  140.1070   79.4620  223.4560 C   0  0  0  0  0  0  0  0  0  0  0  0
  140.5180   80.7450  223.7600 C   0  0  0  0  0  0  0  0  0  0  0  0
  141.7950   81.2000  223.4660 C   0  0  0  0  0  0  0  0  0  0  0  0
  142.6680   80.3220  222.8480 C   0  0  0  0  0  0  0  0  0  0  0  0
  142.2500   79.0410  222.5470 C   0  0  0  0  0  0  0  0  0  0  0  0
  139.4390   76.5600  222.7220 C   0  0  0  0  0  0  0  0  0  0  0  0
  139.5460   75.3380  222.2370 O   0  0  0  0  0  0  0  0  0  0  0  0
  139.4890   70.8810  223.6260 C   0  0  0  0  0  0  0  0  0  0  0  0
  140.2620   71.7800  224.3260 C   0  0  0  0  0  0  0  0  0  0  0  0
  140.7980   71.5050  225.5610 C   0  0  0  0  0  0  0  0  0  0  0  0
  140.5330   70.2590  226.1030 C   0  0  0  0  0  0  0  0  0  0  0  0
  141.0660   69.9620  227.3540 C   0  0  0  0  0  0  0  0  0  0  0  0
  140.8220   68.7320  227.9230 C   0  0  0  0  0  0  0  0  0  0  0  0
  141.3300   68.4170  229.1410 F   0  0  0  0  0  0  0  0  0  0  0  0
  140.0420   67.8470  227.2010 C   0  0  0  0  0  0  0  0  0  0  0  0
  139.5140   68.1410  225.9640 C   0  0  0  0  0  0  0  0  0  0  0  0
  139.7620   69.3760  225.3960 C   0  0  0  0  0  0  0  0  0  0  0  0
  139.2570   69.6940  224.1820 N   0  0  0  0  0  0  0  0  0  0  0  0
  138.8910   73.3460  222.8130 H   0  0  0  0  0  0  0  0  0  0  0  0
  137.3616   72.3207  220.5059 H   0  0  0  0  0  0  0  0  0  0  0  0
  137.8621   74.0414  220.7535 H   0  0  0  0  0  0  0  0  0  0  0  0
  140.8536   73.8830  217.7787 H   0  0  0  0  0  0  0  0  0  0  0  0
  141.1084   75.3161  218.6920 H   0  0  0  0  0  0  0  0  0  0  0  0
  142.6353   72.5824  219.0127 H   0  0  0  0  0  0  0  0  0  0  0  0
  143.4070   74.0391  218.4994 H   0  0  0  0  0  0  0  0  0  0  0  0
  143.3274   73.4549  221.1602 H   0  0  0  0  0  0  0  0  0  0  0  0
  143.0131   75.1219  220.7325 H   0  0  0  0  0  0  0  0  0  0  0  0
  141.0774   73.1072  221.8022 H   0  0  0  0  0  0  0  0  0  0  0  0
  139.0866   79.1340  223.7034 H   0  0  0  0  0  0  0  0  0  0  0  0
  139.8096   81.4283  224.2512 H   0  0  0  0  0  0  0  0  0  0  0  0
  142.1038   82.2257  223.7161 H   0  0  0  0  0  0  0  0  0  0  0  0
  143.6899   80.6431  222.5978 H   0  0  0  0  0  0  0  0  0  0  0  0
  142.9547   78.3541  222.0555 H   0  0  0  0  0  0  0  0  0  0  0  0
  138.5567   76.9799  223.2272 H   0  0  0  0  0  0  0  0  0  0  0  0
  140.4596   72.7640  223.8757 H   0  0  0  0  0  0  0  0  0  0  0  0
  141.4120   72.2440  226.0966 H   0  0  0  0  0  0  0  0  0  0  0  0
  141.6785   70.7055  227.8850 H   0  0  0  0  0  0  0  0  0  0  0  0
  139.8331   66.8589  227.6369 H   0  0  0  0  0  0  0  0  0  0  0  0
  138.9000   67.3991  225.4324 H   0  0  0  0  0  0  0  0  0  0  0  0
  1  2  2  0
  2  3  1  0
  3  4  1  0
  4  5  1  0
  5  6  2  0
  5  7  1  0
  7  8  1  0
  8  9  1  0
  9 10  1  0
 10 11  1  0
 11 12  1  0
 12 13  2  0
 13 14  1  0
 14 15  1  0
 15 16  2  0
 16 17  1  0
 17 18  2  0
 18 19  1  0
 19 20  2  0
 14 21  2  0
 21 22  1  0
  2 23  1  0
 23 24  2  0
 24 25  1  0
 25 26  2  0
 26 27  1  0
 27 28  2  0
 28 29  1  0
 28 30  1  0
 30 31  2  0
 31 32  1  0
 32 33  2  0
 11  7  1  0
 22 12  1  0
 33 23  1  0
 20 15  1  0
 32 26  1  0
  3 34  1  0
  4 35  1  0
  4 36  1  0
  8 37  1  0
  8 38  1  0
  9 39  1  0
  9 40  1  0
 10 41  1  0
 10 42  1  0
 11 43  1  1
 16 44  1  0
 17 45  1  0
 18 46  1  0
 19 47  1  0
 20 48  1  0
 21 49  1  0
 24 50  1  0
 25 51  1  0
 27 52  1  0
 30 53  1  0
 31 54  1  0
M  END
>  <smiles>  (25) 
O=C(NCC(=O)N1CCC[C@H]1c1nc(-c2ccccc2)co1)c1ccc2cc(F)ccc2n1

>  <score_type>  (25) 
oracle

>  <origin>  (25) 
autodockgpu

>  <m_score__min__energy>  (25) 
-9.1799999999999997

>  <m_primary>  (25) 
energy

>  <rmsd>  (25) 
3.25186427520128

>  <m_score__min__rmsd>  (25) 
3.25186427520128

>  <meeko>  (25) 
{"free_energy": -8.91, "intermolecular_energy": -10.7, "internal_energy": -2.5, "cluster_size": 12, "cluster_id": 3, "rank_in_cluster": 4}

>  <energy>  (25) 
-6.94

>  <cluster_rmsd>  (25) 
0.0

>  <cluster>  (25) 
5

$$$$

     RDKit          3D

 54 58  0  0  0  0  0  0  0  0999 V2000
  138.5580   75.8420  221.7030 O   0  0  0  0  0  0  0  0  0  0  0  0
  139.7820   76.1270  221.8600 C   0  0  0  0  0  0  0  0  0  0  0  0
  140.7690   75.1620  221.4950 N   0  0  0  0  0  0  0  0  0  0  0  0
  140.2780   73.9030  220.9590 C   0  0  0  0  0  0  0  0  0  0  0  0
  141.3010   72.8600  221.0370 C   0  0  0  0  0  0  0  0  0  0  0  0
  141.1710   71.7720  221.6670 O   0  0  0  0  0  0  0  0  0  0  0  0
  142.5400   73.0600  220.3630 N   0  0  0  0  0  0  0  0  0  0  0  0
  143.1000   72.2070  219.3160 C   0  0  0  0  0  0  0  0  0  0  0  0
  144.5080   72.0430  219.9070 C   0  0  0  0  0  0  0  0  0  0  0  0
  144.8560   73.5100  220.1200 C   0  0  0  0  0  0  0  0  0  0  0  0
  143.5150   74.1200  220.5410 C   0  0  1  0  0  0  0  0  0  0  0  0
  143.2220   75.2960  219.6830 C   0  0  0  0  0  0  0  0  0  0  0  0
  142.8160   76.5110  220.0850 N   0  0  0  0  0  0  0  0  0  0  0  0
  142.6550   77.3210  219.0060 C   0  0  0  0  0  0  0  0  0  0  0  0
  142.2280   78.7150  218.9880 C   0  0  0  0  0  0  0  0  0  0  0  0
  141.1960   79.1990  219.7660 C   0  0  0  0  0  0  0  0  0  0  0  0
  140.8540   80.5350  219.6890 C   0  0  0  0  0  0  0  0  0  0  0  0
  141.5160   81.4190  218.8500 C   0  0  0  0  0  0  0  0  0  0  0  0
  142.5490   80.9230  218.0740 C   0  0  0  0  0  0  0  0  0  0  0  0
  142.8850   79.5870  218.1560 C   0  0  0  0  0  0  0  0  0  0  0  0
  142.9900   76.5180  217.9220 C   0  0  0  0  0  0  0  0  0  0  0  0
  143.3190   75.3270  218.3830 O   0  0  0  0  0  0  0  0  0  0  0  0
  140.2080   77.4160  222.4060 C   0  0  0  0  0  0  0  0  0  0  0  0
  139.2410   78.2750  222.8770 C   0  0  0  0  0  0  0  0  0  0  0  0
  139.5290   79.5090  223.4090 C   0  0  0  0  0  0  0  0  0  0  0  0
  140.8610   79.8800  223.4610 C   0  0  0  0  0  0  0  0  0  0  0  0
  141.1740   81.1260  223.9970 C   0  0  0  0  0  0  0  0  0  0  0  0
  142.4900   81.5260  224.0640 C   0  0  0  0  0  0  0  0  0  0  0  0
  142.8220   82.7360  224.5820 F   0  0  0  0  0  0  0  0  0  0  0  0
  143.4430   80.6460  223.5850 C   0  0  0  0  0  0  0  0  0  0  0  0
  143.1330   79.4130  223.0550 C   0  0  0  0  0  0  0  0  0  0  0  0
  141.8120   79.0150  222.9890 C   0  0  0  0  0  0  0  0  0  0  0  0
  141.4770   77.8100  222.4740 N   0  0  0  0  0  0  0  0  0  0  0  0
  141.7620   75.3990  221.6250 H   0  0  0  0  0  0  0  0  0  0  0  0
  139.3975   73.5859  221.5371 H   0  0  0  0  0  0  0  0  0  0  0  0
  140.0141   74.0537  219.9018 H   0  0  0  0  0  0  0  0  0  0  0  0
  142.5689   71.2474  219.2315 H   0  0  0  0  0  0  0  0  0  0  0  0
  143.0490   72.6030  218.2910 H   0  0  0  0  0  0  0  0  0  0  0  0
  144.4944   71.4818  220.8530 H   0  0  0  0  0  0  0  0  0  0  0  0
  145.2166   71.4766  219.2849 H   0  0  0  0  0  0  0  0  0  0  0  0
  145.6105   73.6272  220.9118 H   0  0  0  0  0  0  0  0  0  0  0  0
  145.2912   73.9878  219.2298 H   0  0  0  0  0  0  0  0  0  0  0  0
  143.5086   74.4789  221.5808 H   0  0  0  0  0  0  0  0  0  0  0  0
  140.6496   78.5255  220.4427 H   0  0  0  0  0  0  0  0  0  0  0  0
  140.0297   80.9101  220.3134 H   0  0  0  0  0  0  0  0  0  0  0  0
  141.2293   82.4799  218.8029 H   0  0  0  0  0  0  0  0  0  0  0  0
  143.0997   81.5906  217.3950 H   0  0  0  0  0  0  0  0  0  0  0  0
  143.7082   79.2076  217.5328 H   0  0  0  0  0  0  0  0  0  0  0  0
  142.9821   76.8225  216.8650 H   0  0  0  0  0  0  0  0  0  0  0  0
  138.1886   77.9590  222.8251 H   0  0  0  0  0  0  0  0  0  0  0  0
  138.7341   80.1738  223.7779 H   0  0  0  0  0  0  0  0  0  0  0  0
  140.3752   81.7869  224.3647 H   0  0  0  0  0  0  0  0  0  0  0  0
  144.5006   80.9453  223.6294 H   0  0  0  0  0  0  0  0  0  0  0  0
  143.9308   78.7509  222.6874 H   0  0  0  0  0  0  0  0  0  0  0  0
  1  2  2  0
  2  3  1  0
  3  4  1  0
  4  5  1  0
  5  6  2  0
  5  7  1  0
  7  8  1  0
  8  9  1  0
  9 10  1  0
 10 11  1  0
 11 12  1  0
 12 13  2  0
 13 14  1  0
 14 15  1  0
 15 16  2  0
 16 17  1  0
 17 18  2  0
 18 19  1  0
 19 20  2  0
 14 21  2  0
 21 22  1  0
  2 23  1  0
 23 24  2  0
 24 25  1  0
 25 26  2  0
 26 27  1  0
 27 28  2  0
 28 29  1  0
 28 30  1  0
 30 31  2  0
 31 32  1  0
 32 33  2  0
 11  7  1  0
 22 12  1  0
 33 23  1  0
 20 15  1  0
 32 26  1  0
  3 34  1  0
  4 35  1  0
  4 36  1  0
  8 37  1  0
  8 38  1  0
  9 39  1  0
  9 40  1  0
 10 41  1  0
 10 42  1  0
 11 43  1  1
 16 44  1  0
 17 45  1  0
 18 46  1  0
 19 47  1  0
 20 48  1  0
 21 49  1  0
 24 50  1  0
 25 51  1  0
 27 52  1  0
 30 53  1  0
 31 54  1  0
M  END
>  <smiles>  (26) 
O=C(NCC(=O)N1CCC[C@H]1c1nc(-c2ccccc2)co1)c1ccc2cc(F)ccc2n1

>  <score_type>  (26) 
oracle

>  <origin>  (26) 
autodockgpu

>  <m_score__min__energy>  (26) 
-9.1799999999999997

>  <m_primary>  (26) 
energy

>  <rmsd>  (26) 
7.226174981976422

>  <m_score__min__rmsd>  (26) 
7.226174981976422

>  <meeko>  (26) 
{"free_energy": -6.96, "intermolecular_energy": -8.75, "internal_energy": -3.75, "cluster_size": 1, "cluster_id": 4, "rank_in_cluster": 1}

>  <energy>  (26) 
-6.94

>  <cluster_rmsd>  (26) 
0.9

>  <cluster>  (26) 
5

$$$$

     RDKit          3D

 54 58  0  0  0  0  0  0  0  0999 V2000
  136.9490   74.9150  220.4490 O   0  0  0  0  0  0  0  0  0  0  0  0
  137.8450   75.0140  221.3400 C   0  0  0  0  0  0  0  0  0  0  0  0
  138.0340   73.9310  222.2510 N   0  0  0  0  0  0  0  0  0  0  0  0
  137.1660   72.7790  222.0790 C   0  0  0  0  0  0  0  0  0  0  0  0
  137.3000   71.8430  223.1970 C   0  0  0  0  0  0  0  0  0  0  0  0
  136.3630   71.5260  223.9840 O   0  0  0  0  0  0  0  0  0  0  0  0
  138.5640   71.2330  223.4340 N   0  0  0  0  0  0  0  0  0  0  0  0
  138.8700   69.8080  223.3200 C   0  0  0  0  0  0  0  0  0  0  0  0
  139.5680   69.6310  224.6760 C   0  0  0  0  0  0  0  0  0  0  0  0
  140.5890   70.7560  224.5750 C   0  0  0  0  0  0  0  0  0  0  0  0
  139.8150   71.8510  223.8330 C   0  0  1  0  0  0  0  0  0  0  0  0
  140.6110   72.3050  222.6650 C   0  0  0  0  0  0  0  0  0  0  0  0
  140.7290   73.5610  222.2030 N   0  0  0  0  0  0  0  0  0  0  0  0
  141.5440   73.5740  221.1170 C   0  0  0  0  0  0  0  0  0  0  0  0
  141.9410   74.7230  220.3090 C   0  0  0  0  0  0  0  0  0  0  0  0
  141.0790   75.3810  219.4560 C   0  0  0  0  0  0  0  0  0  0  0  0
  141.5350   76.4610  218.7270 C   0  0  0  0  0  0  0  0  0  0  0  0
  142.8430   76.9140  218.8200 C   0  0  0  0  0  0  0  0  0  0  0  0
  143.6990   76.2470  219.6780 C   0  0  0  0  0  0  0  0  0  0  0  0
  143.2360   75.1690  220.4040 C   0  0  0  0  0  0  0  0  0  0  0  0
  141.9130   72.2460  220.9480 C   0  0  0  0  0  0  0  0  0  0  0  0
  141.3300   71.5370  221.8950 O   0  0  0  0  0  0  0  0  0  0  0  0
  138.6860   76.2050  221.4570 C   0  0  0  0  0  0  0  0  0  0  0  0
  138.4480   77.2570  220.6010 C   0  0  0  0  0  0  0  0  0  0  0  0
  139.1780   78.4210  220.6240 C   0  0  0  0  0  0  0  0  0  0  0  0
  140.1920   78.5140  221.5610 C   0  0  0  0  0  0  0  0  0  0  0  0
  140.9420   79.6860  221.6010 C   0  0  0  0  0  0  0  0  0  0  0  0
  141.9580   79.8120  222.5210 C   0  0  0  0  0  0  0  0  0  0  0  0
  142.7050   80.9440  222.5810 F   0  0  0  0  0  0  0  0  0  0  0  0
  142.1770   78.7430  223.3700 C   0  0  0  0  0  0  0  0  0  0  0  0
  141.4350   77.5830  223.3310 C   0  0  0  0  0  0  0  0  0  0  0  0
  140.4160   77.4600  222.4060 C   0  0  0  0  0  0  0  0  0  0  0  0
  139.6700   76.3340  222.3440 N   0  0  0  0  0  0  0  0  0  0  0  0
  138.7630   74.0160  222.9730 H   0  0  0  0  0  0  0  0  0  0  0  0
  136.1223   73.1217  222.0211 H   0  0  0  0  0  0  0  0  0  0  0  0
  137.4558   72.2598  221.1536 H   0  0  0  0  0  0  0  0  0  0  0  0
  137.9624   69.1923  223.2349 H   0  0  0  0  0  0  0  0  0  0  0  0
  139.4505   69.5079  222.4351 H   0  0  0  0  0  0  0  0  0  0  0  0
  138.8752   69.7786  225.5176 H   0  0  0  0  0  0  0  0  0  0  0  0
  139.9867   68.6311  224.8626 H   0  0  0  0  0  0  0  0  0  0  0  0
  140.9015   71.0983  225.5726 H   0  0  0  0  0  0  0  0  0  0  0  0
  141.5172   70.4574  224.0658 H   0  0  0  0  0  0  0  0  0  0  0  0
  139.6237   72.7417  224.4494 H   0  0  0  0  0  0  0  0  0  0  0  0
  140.0355   75.0473  219.3575 H   0  0  0  0  0  0  0  0  0  0  0  0
  140.8390   76.9790  218.0508 H   0  0  0  0  0  0  0  0  0  0  0  0
  143.1884   77.7760  218.2304 H   0  0  0  0  0  0  0  0  0  0  0  0
  144.7440   76.5746  219.7809 H   0  0  0  0  0  0  0  0  0  0  0  0
  143.9283   74.6489  221.0824 H   0  0  0  0  0  0  0  0  0  0  0  0
  142.5754   71.8541  220.1621 H   0  0  0  0  0  0  0  0  0  0  0  0
  137.6362   77.1612  219.8649 H   0  0  0  0  0  0  0  0  0  0  0  0
  138.9651   79.2446  219.9266 H   0  0  0  0  0  0  0  0  0  0  0  0
  140.7240   80.5065  220.9016 H   0  0  0  0  0  0  0  0  0  0  0  0
  142.9838   78.8227  224.1135 H   0  0  0  0  0  0  0  0  0  0  0  0
  141.6518   76.7619  224.0301 H   0  0  0  0  0  0  0  0  0  0  0  0
  1  2  2  0
  2  3  1  0
  3  4  1  0
  4  5  1  0
  5  6  2  0
  5  7  1  0
  7  8  1  0
  8  9  1  0
  9 10  1  0
 10 11  1  0
 11 12  1  0
 12 13  2  0
 13 14  1  0
 14 15  1  0
 15 16  2  0
 16 17  1  0
 17 18  2  0
 18 19  1  0
 19 20  2  0
 14 21  2  0
 21 22  1  0
  2 23  1  0
 23 24  2  0
 24 25  1  0
 25 26  2  0
 26 27  1  0
 27 28  2  0
 28 29  1  0
 28 30  1  0
 30 31  2  0
 31 32  1  0
 32 33  2  0
 11  7  1  0
 22 12  1  0
 33 23  1  0
 20 15  1  0
 32 26  1  0
  3 34  1  0
  4 35  1  0
  4 36  1  0
  8 37  1  0
  8 38  1  0
  9 39  1  0
  9 40  1  0
 10 41  1  0
 10 42  1  0
 11 43  1  1
 16 44  1  0
 17 45  1  0
 18 46  1  0
 19 47  1  0
 20 48  1  0
 21 49  1  0
 24 50  1  0
 25 51  1  0
 27 52  1  0
 30 53  1  0
 31 54  1  0
M  END
>  <smiles>  (27) 
O=C(NCC(=O)N1CCC[C@H]1c1nc(-c2ccccc2)co1)c1ccc2cc(F)ccc2n1

>  <score_type>  (27) 
oracle

>  <origin>  (27) 
autodockgpu

>  <m_score__min__energy>  (27) 
-9.1799999999999997

>  <m_primary>  (27) 
energy

>  <rmsd>  (27) 
7.878661387320115

>  <m_score__min__rmsd>  (27) 
7.878661387320115

>  <meeko>  (27) 
{"free_energy": -6.41, "intermolecular_energy": -8.2, "internal_energy": -4.09, "cluster_size": 1, "cluster_id": 7, "rank_in_cluster": 1}

>  <energy>  (27) 
-6.91

>  <cluster_rmsd>  (27) 
0.98

>  <cluster>  (27) 
5

$$$$

     RDKit          3D

 54 58  0  0  0  0  0  0  0  0999 V2000
  138.1550   70.5870  221.2430 O   0  0  0  0  0  0  0  0  0  0  0  0
  138.5280   71.3620  222.1730 C   0  0  0  0  0  0  0  0  0  0  0  0
  138.4460   72.7730  221.9720 N   0  0  0  0  0  0  0  0  0  0  0  0
  137.9300   73.2150  220.6870 C   0  0  0  0  0  0  0  0  0  0  0  0
  136.6660   73.9380  220.8460 C   0  0  0  0  0  0  0  0  0  0  0  0
  135.6790   73.8380  220.0630 O   0  0  0  0  0  0  0  0  0  0  0  0
  136.5140   74.8220  221.9520 N   0  0  0  0  0  0  0  0  0  0  0  0
  136.1610   74.4410  223.3180 C   0  0  0  0  0  0  0  0  0  0  0  0
  135.0310   75.4590  223.5370 C   0  0  0  0  0  0  0  0  0  0  0  0
  135.7700   76.7310  223.1460 C   0  0  0  0  0  0  0  0  0  0  0  0
  136.6670   76.2650  221.9940 C   0  0  1  0  0  0  0  0  0  0  0  0
  138.0680   76.6690  222.2720 C   0  0  0  0  0  0  0  0  0  0  0  0
  138.5190   77.9100  222.5160 N   0  0  0  0  0  0  0  0  0  0  0  0
  139.8610   77.8760  222.7240 C   0  0  0  0  0  0  0  0  0  0  0  0
  140.7500   78.9940  223.0210 C   0  0  0  0  0  0  0  0  0  0  0  0
  140.3040   80.2070  223.5030 C   0  0  0  0  0  0  0  0  0  0  0  0
  141.2130   81.2150  223.7580 C   0  0  0  0  0  0  0  0  0  0  0  0
  142.5740   81.0520  223.5440 C   0  0  0  0  0  0  0  0  0  0  0  0
  143.0110   79.8320  223.0590 C   0  0  0  0  0  0  0  0  0  0  0  0
  142.0970   78.8300  222.8070 C   0  0  0  0  0  0  0  0  0  0  0  0
  140.1950   76.5340  222.5910 C   0  0  0  0  0  0  0  0  0  0  0  0
  139.0920   75.8640  222.3230 O   0  0  0  0  0  0  0  0  0  0  0  0
  139.0390   70.8470  223.4440 C   0  0  0  0  0  0  0  0  0  0  0  0
  138.8890   69.5050  223.7110 C   0  0  0  0  0  0  0  0  0  0  0  0
  139.3310   68.9190  224.8730 C   0  0  0  0  0  0  0  0  0  0  0  0
  139.9520   69.7380  225.7990 C   0  0  0  0  0  0  0  0  0  0  0  0
  140.4070   69.1630  226.9820 C   0  0  0  0  0  0  0  0  0  0  0  0
  141.0300   69.9490  227.9250 C   0  0  0  0  0  0  0  0  0  0  0  0
  141.4840   69.4130  229.0870 F   0  0  0  0  0  0  0  0  0  0  0  0
  141.1700   71.2930  227.6330 C   0  0  0  0  0  0  0  0  0  0  0  0
  140.7200   71.8620  226.4630 C   0  0  0  0  0  0  0  0  0  0  0  0
  140.0950   71.0710  225.5190 C   0  0  0  0  0  0  0  0  0  0  0  0
  139.6420   71.6010  224.3600 N   0  0  0  0  0  0  0  0  0  0  0  0
  138.7510   73.3980  222.7300 H   0  0  0  0  0  0  0  0  0  0  0  0
  138.6671   73.8802  220.2136 H   0  0  0  0  0  0  0  0  0  0  0  0
  137.7491   72.3294  220.0601 H   0  0  0  0  0  0  0  0  0  0  0  0
  135.8046   73.4023  223.3822 H   0  0  0  0  0  0  0  0  0  0  0  0
  136.9796   74.4621  224.0525 H   0  0  0  0  0  0  0  0  0  0  0  0
  134.1696   75.2652  222.8809 H   0  0  0  0  0  0  0  0  0  0  0  0
  134.5883   75.4620  224.5440 H   0  0  0  0  0  0  0  0  0  0  0  0
  135.0685   77.5094  222.8114 H   0  0  0  0  0  0  0  0  0  0  0  0
  136.3306   77.1812  223.9785 H   0  0  0  0  0  0  0  0  0  0  0  0
  136.3974   76.7099  221.0248 H   0  0  0  0  0  0  0  0  0  0  0  0
  139.2312   80.3704  223.6831 H   0  0  0  0  0  0  0  0  0  0  0  0
  140.8461   82.1779  224.1431 H   0  0  0  0  0  0  0  0  0  0  0  0
  143.2830   81.8666  223.7532 H   0  0  0  0  0  0  0  0  0  0  0  0
  144.0821   79.6619  222.8753 H   0  0  0  0  0  0  0  0  0  0  0  0
  142.4595   77.8658  222.4212 H   0  0  0  0  0  0  0  0  0  0  0  0
  141.2032   76.1057  222.6917 H   0  0  0  0  0  0  0  0  0  0  0  0
  138.3927   68.8727  222.9601 H   0  0  0  0  0  0  0  0  0  0  0  0
  139.1965   67.8432  225.0590 H   0  0  0  0  0  0  0  0  0  0  0  0
  140.2696   68.0866  227.1624 H   0  0  0  0  0  0  0  0  0  0  0  0
  141.6655   71.9397  228.3721 H   0  0  0  0  0  0  0  0  0  0  0  0
  140.8571   72.9382  226.2814 H   0  0  0  0  0  0  0  0  0  0  0  0
  1  2  2  0
  2  3  1  0
  3  4  1  0
  4  5  1  0
  5  6  2  0
  5  7  1  0
  7  8  1  0
  8  9  1  0
  9 10  1  0
 10 11  1  0
 11 12  1  0
 12 13  2  0
 13 14  1  0
 14 15  1  0
 15 16  2  0
 16 17  1  0
 17 18  2  0
 18 19  1  0
 19 20  2  0
 14 21  2  0
 21 22  1  0
  2 23  1  0
 23 24  2  0
 24 25  1  0
 25 26  2  0
 26 27  1  0
 27 28  2  0
 28 29  1  0
 28 30  1  0
 30 31  2  0
 31 32  1  0
 32 33  2  0
 11  7  1  0
 22 12  1  0
 33 23  1  0
 20 15  1  0
 32 26  1  0
  3 34  1  0
  4 35  1  0
  4 36  1  0
  8 37  1  0
  8 38  1  0
  9 39  1  0
  9 40  1  0
 10 41  1  0
 10 42  1  0
 11 43  1  6
 16 44  1  0
 17 45  1  0
 18 46  1  0
 19 47  1  0
 20 48  1  0
 21 49  1  0
 24 50  1  0
 25 51  1  0
 27 52  1  0
 30 53  1  0
 31 54  1  0
M  END
>  <smiles>  (28) 
O=C(NCC(=O)N1CCC[C@H]1c1nc(-c2ccccc2)co1)c1ccc2cc(F)ccc2n1

>  <score_type>  (28) 
oracle

>  <origin>  (28) 
autodockgpu

>  <m_score__min__energy>  (28) 
-9.1799999999999997

>  <m_primary>  (28) 
energy

>  <rmsd>  (28) 
3.806425650729518

>  <m_score__min__rmsd>  (28) 
3.806425650729518

>  <meeko>  (28) 
{"free_energy": -8.31, "intermolecular_energy": -10.1, "internal_energy": -2.25, "cluster_size": 6, "cluster_id": 2, "rank_in_cluster": 6}

>  <energy>  (28) 
-6.91

>  <cluster_rmsd>  (28) 
0.91

>  <cluster>  (28) 
5

$$$$

     RDKit          3D

 54 58  0  0  0  0  0  0  0  0999 V2000
  138.8070   74.7810  222.2480 O   0  0  0  0  0  0  0  0  0  0  0  0
  139.9370   75.2700  221.9490 C   0  0  0  0  0  0  0  0  0  0  0  0
  140.1200   76.6840  222.0240 N   0  0  0  0  0  0  0  0  0  0  0  0
  138.9700   77.4650  222.4480 C   0  0  0  0  0  0  0  0  0  0  0  0
  139.3650   78.8180  222.8400 C   0  0  0  0  0  0  0  0  0  0  0  0
  138.5760   79.6920  223.3000 O   0  0  0  0  0  0  0  0  0  0  0  0
  140.7300   79.2030  222.7050 N   0  0  0  0  0  0  0  0  0  0  0  0
  141.8460   78.7220  223.5180 C   0  0  0  0  0  0  0  0  0  0  0  0
  142.4590   80.0870  223.8650 C   0  0  0  0  0  0  0  0  0  0  0  0
  142.5830   80.6640  222.4620 C   0  0  0  0  0  0  0  0  0  0  0  0
  141.3280   80.1310  221.7630 C   0  0  1  0  0  0  0  0  0  0  0  0
  141.7210   79.4630  220.4960 C   0  0  0  0  0  0  0  0  0  0  0  0
  141.8190   78.1430  220.2730 N   0  0  0  0  0  0  0  0  0  0  0  0
  142.2060   77.9230  218.9890 C   0  0  0  0  0  0  0  0  0  0  0  0
  142.4340   76.6420  218.3290 C   0  0  0  0  0  0  0  0  0  0  0  0
  143.6220   76.3110  217.7120 C   0  0  0  0  0  0  0  0  0  0  0  0
  143.7560   75.0760  217.1100 C   0  0  0  0  0  0  0  0  0  0  0  0
  142.7280   74.1440  217.1010 C   0  0  0  0  0  0  0  0  0  0  0  0
  141.5400   74.4860  217.7230 C   0  0  0  0  0  0  0  0  0  0  0  0
  141.4140   75.7220  218.3230 C   0  0  0  0  0  0  0  0  0  0  0  0
  142.3360   79.1960  218.4480 C   0  0  0  0  0  0  0  0  0  0  0  0
  142.0360   80.0710  219.3870 O   0  0  0  0  0  0  0  0  0  0  0  0
  141.0540   74.4230  221.5280 C   0  0  0  0  0  0  0  0  0  0  0  0
  140.8550   73.0620  221.4720 C   0  0  0  0  0  0  0  0  0  0  0  0
  141.8350   72.1770  221.0910 C   0  0  0  0  0  0  0  0  0  0  0  0
  143.0690   72.7050  220.7550 C   0  0  0  0  0  0  0  0  0  0  0  0
  144.0740   71.8240  220.3670 C   0  0  0  0  0  0  0  0  0  0  0  0
  145.3140   72.3160  220.0250 C   0  0  0  0  0  0  0  0  0  0  0  0
  146.3120   71.4790  219.6430 F   0  0  0  0  0  0  0  0  0  0  0  0
  145.4900   73.6860  220.0890 C   0  0  0  0  0  0  0  0  0  0  0  0
  144.4940   74.5570  220.4740 C   0  0  0  0  0  0  0  0  0  0  0  0
  143.2520   74.0610  220.8160 C   0  0  0  0  0  0  0  0  0  0  0  0
  142.2550   74.8910  221.1970 N   0  0  0  0  0  0  0  0  0  0  0  0
  141.0400   77.0750  221.7790 H   0  0  0  0  0  0  0  0  0  0  0  0
  138.2524   77.5274  221.6167 H   0  0  0  0  0  0  0  0  0  0  0  0
  138.5138   76.9695  223.3177 H   0  0  0  0  0  0  0  0  0  0  0  0
  141.5067   78.1780  224.4118 H   0  0  0  0  0  0  0  0  0  0  0  0
  142.5192   77.9984  223.0352 H   0  0  0  0  0  0  0  0  0  0  0  0
  141.7914   80.6884  224.4995 H   0  0  0  0  0  0  0  0  0  0  0  0
  143.3944   80.0494  224.4425 H   0  0  0  0  0  0  0  0  0  0  0  0
  142.5868   81.7638  222.4849 H   0  0  0  0  0  0  0  0  0  0  0  0
  143.5172   80.3799  221.9555 H   0  0  0  0  0  0  0  0  0  0  0  0
  140.6119   80.9215  221.4940 H   0  0  0  0  0  0  0  0  0  0  0  0
  144.4575   77.0264  217.6996 H   0  0  0  0  0  0  0  0  0  0  0  0
  144.7085   74.8225  216.6216 H   0  0  0  0  0  0  0  0  0  0  0  0
  142.8533   73.1651  216.6152 H   0  0  0  0  0  0  0  0  0  0  0  0
  140.7002   73.7758  217.7390 H   0  0  0  0  0  0  0  0  0  0  0  0
  140.4638   75.9796  218.8136 H   0  0  0  0  0  0  0  0  0  0  0  0
  142.6367   79.4323  217.4166 H   0  0  0  0  0  0  0  0  0  0  0  0
  139.8662   72.6646  221.7447 H   0  0  0  0  0  0  0  0  0  0  0  0
  141.6462   71.0939  221.0547 H   0  0  0  0  0  0  0  0  0  0  0  0
  143.8793   70.7419  220.3337 H   0  0  0  0  0  0  0  0  0  0  0  0
  146.4726   74.1006  219.8196 H   0  0  0  0  0  0  0  0  0  0  0  0
  144.6872   75.6394  220.5085 H   0  0  0  0  0  0  0  0  0  0  0  0
  1  2  2  0
  2  3  1  0
  3  4  1  0
  4  5  1  0
  5  6  2  0
  5  7  1  0
  7  8  1  0
  8  9  1  0
  9 10  1  0
 10 11  1  0
 11 12  1  0
 12 13  2  0
 13 14  1  0
 14 15  1  0
 15 16  2  0
 16 17  1  0
 17 18  2  0
 18 19  1  0
 19 20  2  0
 14 21  2  0
 21 22  1  0
  2 23  1  0
 23 24  2  0
 24 25  1  0
 25 26  2  0
 26 27  1  0
 27 28  2  0
 28 29  1  0
 28 30  1  0
 30 31  2  0
 31 32  1  0
 32 33  2  0
 11  7  1  0
 22 12  1  0
 33 23  1  0
 20 15  1  0
 32 26  1  0
  3 34  1  0
  4 35  1  0
  4 36  1  0
  8 37  1  0
  8 38  1  0
  9 39  1  0
  9 40  1  0
 10 41  1  0
 10 42  1  0
 11 43  1  6
 16 44  1  0
 17 45  1  0
 18 46  1  0
 19 47  1  0
 20 48  1  0
 21 49  1  0
 24 50  1  0
 25 51  1  0
 27 52  1  0
 30 53  1  0
 31 54  1  0
M  END
>  <smiles>  (29) 
O=C(NCC(=O)N1CCC[C@H]1c1nc(-c2ccccc2)co1)c1ccc2cc(F)ccc2n1

>  <score_type>  (29) 
oracle

>  <origin>  (29) 
autodockgpu

>  <m_score__min__energy>  (29) 
-9.1799999999999997

>  <m_primary>  (29) 
energy

>  <rmsd>  (29) 
6.77423268166866

>  <m_score__min__rmsd>  (29) 
6.77423268166866

>  <meeko>  (29) 
{"free_energy": -6.85, "intermolecular_energy": -8.64, "internal_energy": -4.22, "cluster_size": 20, "cluster_id": 5, "rank_in_cluster": 12}

>  <energy>  (29) 
-6.9

>  <cluster_rmsd>  (29) 
0.96

>  <cluster>  (29) 
5

$$$$

     RDKit          3D

 54 58  0  0  0  0  0  0  0  0999 V2000
  138.9670   74.8820  222.3740 O   0  0  0  0  0  0  0  0  0  0  0  0
  140.0100   75.3390  221.8200 C   0  0  0  0  0  0  0  0  0  0  0  0
  140.1090   76.7450  221.5870 N   0  0  0  0  0  0  0  0  0  0  0  0
  138.9790   77.5530  222.0140 C   0  0  0  0  0  0  0  0  0  0  0  0
  139.4210   78.7040  222.8050 C   0  0  0  0  0  0  0  0  0  0  0  0
  138.6880   79.3450  223.6100 O   0  0  0  0  0  0  0  0  0  0  0  0
  140.7670   79.1500  222.6760 N   0  0  0  0  0  0  0  0  0  0  0  0
  141.9020   78.7130  223.4860 C   0  0  0  0  0  0  0  0  0  0  0  0
  142.4520   80.1010  223.8470 C   0  0  0  0  0  0  0  0  0  0  0  0
  142.5520   80.6960  222.4490 C   0  0  0  0  0  0  0  0  0  0  0  0
  141.3240   80.1130  221.7430 C   0  0  1  0  0  0  0  0  0  0  0  0
  141.7490   79.4750  220.4710 C   0  0  0  0  0  0  0  0  0  0  0  0
  141.8600   78.1600  220.2220 N   0  0  0  0  0  0  0  0  0  0  0  0
  142.2770   77.9700  218.9430 C   0  0  0  0  0  0  0  0  0  0  0  0
  142.5270   76.7060  218.2610 C   0  0  0  0  0  0  0  0  0  0  0  0
  143.7100   76.4190  217.6100 C   0  0  0  0  0  0  0  0  0  0  0  0
  143.8660   75.1960  216.9880 C   0  0  0  0  0  0  0  0  0  0  0  0
  142.8670   74.2330  216.9930 C   0  0  0  0  0  0  0  0  0  0  0  0
  141.6850   74.5310  217.6480 C   0  0  0  0  0  0  0  0  0  0  0  0
  141.5370   75.7550  218.2670 C   0  0  0  0  0  0  0  0  0  0  0  0
  142.4110   79.2550  218.4320 C   0  0  0  0  0  0  0  0  0  0  0  0
  142.0840   80.1090  219.3820 O   0  0  0  0  0  0  0  0  0  0  0  0
  141.1120   74.4660  221.4150 C   0  0  0  0  0  0  0  0  0  0  0  0
  140.8760   73.1120  221.3390 C   0  0  0  0  0  0  0  0  0  0  0  0
  141.8390   72.2030  220.9700 C   0  0  0  0  0  0  0  0  0  0  0  0
  143.0940   72.6990  220.6660 C   0  0  0  0  0  0  0  0  0  0  0  0
  144.0820   71.7950  220.2890 C   0  0  0  0  0  0  0  0  0  0  0  0
  145.3420   72.2550  219.9790 C   0  0  0  0  0  0  0  0  0  0  0  0
  146.3250   71.3940  219.6090 F   0  0  0  0  0  0  0  0  0  0  0  0
  145.5550   73.6180  220.0610 C   0  0  0  0  0  0  0  0  0  0  0  0
  144.5760   74.5140  220.4340 C   0  0  0  0  0  0  0  0  0  0  0  0
  143.3130   74.0490  220.7450 C   0  0  0  0  0  0  0  0  0  0  0  0
  142.3320   74.9040  221.1140 N   0  0  0  0  0  0  0  0  0  0  0  0
  140.9580   77.1110  221.1360 H   0  0  0  0  0  0  0  0  0  0  0  0
  138.4395   77.9136  221.1258 H   0  0  0  0  0  0  0  0  0  0  0  0
  138.3223   76.9311  222.6400 H   0  0  0  0  0  0  0  0  0  0  0  0
  141.5865   78.1457  224.3740 H   0  0  0  0  0  0  0  0  0  0  0  0
  142.6081   78.0254  222.9975 H   0  0  0  0  0  0  0  0  0  0  0  0
  141.7568   80.6656  224.4856 H   0  0  0  0  0  0  0  0  0  0  0  0
  143.3871   80.1006  224.4262 H   0  0  0  0  0  0  0  0  0  0  0  0
  142.5058   81.7945  222.4818 H   0  0  0  0  0  0  0  0  0  0  0  0
  143.4990   80.4593  221.9419 H   0  0  0  0  0  0  0  0  0  0  0  0
  140.5731   80.8725  221.4796 H   0  0  0  0  0  0  0  0  0  0  0  0
  144.5230   77.1596  217.5869 H   0  0  0  0  0  0  0  0  0  0  0  0
  144.8127   74.9782  216.4720 H   0  0  0  0  0  0  0  0  0  0  0  0
  143.0100   73.2640  216.4924 H   0  0  0  0  0  0  0  0  0  0  0  0
  140.8674   73.7955  217.6750 H   0  0  0  0  0  0  0  0  0  0  0  0
  140.5917   75.9769  218.7839 H   0  0  0  0  0  0  0  0  0  0  0  0
  142.7335   79.5146  217.4129 H   0  0  0  0  0  0  0  0  0  0  0  0
  139.8704   72.7402  221.5849 H   0  0  0  0  0  0  0  0  0  0  0  0
  141.6207   71.1261  220.9186 H   0  0  0  0  0  0  0  0  0  0  0  0
  143.8578   70.7193  220.2389 H   0  0  0  0  0  0  0  0  0  0  0  0
  146.5545   74.0069  219.8167 H   0  0  0  0  0  0  0  0  0  0  0  0
  144.7987   75.5901  220.4836 H   0  0  0  0  0  0  0  0  0  0  0  0
  1  2  2  0
  2  3  1  0
  3  4  1  0
  4  5  1  0
  5  6  2  0
  5  7  1  0
  7  8  1  0
  8  9  1  0
  9 10  1  0
 10 11  1  0
 11 12  1  0
 12 13  2  0
 13 14  1  0
 14 15  1  0
 15 16  2  0
 16 17  1  0
 17 18  2  0
 18 19  1  0
 19 20  2  0
 14 21  2  0
 21 22  1  0
  2 23  1  0
 23 24  2  0
 24 25  1  0
 25 26  2  0
 26 27  1  0
 27 28  2  0
 28 29  1  0
 28 30  1  0
 30 31  2  0
 31 32  1  0
 32 33  2  0
 11  7  1  0
 22 12  1  0
 33 23  1  0
 20 15  1  0
 32 26  1  0
  3 34  1  0
  4 35  1  0
  4 36  1  0
  8 37  1  0
  8 38  1  0
  9 39  1  0
  9 40  1  0
 10 41  1  0
 10 42  1  0
 11 43  1  6
 16 44  1  0
 17 45  1  0
 18 46  1  0
 19 47  1  0
 20 48  1  0
 21 49  1  0
 24 50  1  0
 25 51  1  0
 27 52  1  0
 30 53  1  0
 31 54  1  0
M  END
>  <smiles>  (30) 
O=C(NCC(=O)N1CCC[C@H]1c1nc(-c2ccccc2)co1)c1ccc2cc(F)ccc2n1

>  <score_type>  (30) 
oracle

>  <origin>  (30) 
autodockgpu

>  <m_score__min__energy>  (30) 
-9.1799999999999997

>  <m_primary>  (30) 
energy

>  <rmsd>  (30) 
6.79474219259214

>  <m_score__min__rmsd>  (30) 
6.79474219259214

>  <meeko>  (30) 
{"free_energy": -6.85, "intermolecular_energy": -8.64, "internal_energy": -4.17, "cluster_size": 20, "cluster_id": 5, "rank_in_cluster": 11}

>  <energy>  (30) 
-6.89

>  <cluster_rmsd>  (30) 
1.01

>  <cluster>  (30) 
5

$$$$

     RDKit          3D

 54 58  0  0  0  0  0  0  0  0999 V2000
  138.8020   74.7590  222.1470 O   0  0  0  0  0  0  0  0  0  0  0  0
  139.9590   75.2400  221.9580 C   0  0  0  0  0  0  0  0  0  0  0  0
  140.1760   76.6310  222.1950 N   0  0  0  0  0  0  0  0  0  0  0  0
  139.0280   77.3990  222.6450 C   0  0  0  0  0  0  0  0  0  0  0  0
  139.3640   78.8160  222.7920 C   0  0  0  0  0  0  0  0  0  0  0  0
  138.5250   79.7330  223.0210 O   0  0  0  0  0  0  0  0  0  0  0  0
  140.7260   79.2160  222.6740 N   0  0  0  0  0  0  0  0  0  0  0  0
  141.8310   78.7750  223.5240 C   0  0  0  0  0  0  0  0  0  0  0  0
  142.4180   80.1580  223.8430 C   0  0  0  0  0  0  0  0  0  0  0  0
  142.5630   80.6950  222.4260 C   0  0  0  0  0  0  0  0  0  0  0  0
  141.3310   80.1230  221.7170 C   0  0  1  0  0  0  0  0  0  0  0  0
  141.7600   79.4240  220.4790 C   0  0  0  0  0  0  0  0  0  0  0  0
  141.7700   78.0990  220.2600 N   0  0  0  0  0  0  0  0  0  0  0  0
  142.2300   77.8470  219.0060 C   0  0  0  0  0  0  0  0  0  0  0  0
  142.4030   76.5500  218.3600 C   0  0  0  0  0  0  0  0  0  0  0  0
  141.4180   75.5850  218.3280 C   0  0  0  0  0  0  0  0  0  0  0  0
  141.6630   74.3830  217.6940 C   0  0  0  0  0  0  0  0  0  0  0  0
  142.8760   74.1060  217.0810 C   0  0  0  0  0  0  0  0  0  0  0  0
  143.8580   75.0810  217.1200 C   0  0  0  0  0  0  0  0  0  0  0  0
  143.6050   76.2800  217.7550 C   0  0  0  0  0  0  0  0  0  0  0  0
  142.4980   79.1040  218.4790 C   0  0  0  0  0  0  0  0  0  0  0  0
  142.2010   80.0030  219.3970 O   0  0  0  0  0  0  0  0  0  0  0  0
  141.0720   74.4070  221.5030 C   0  0  0  0  0  0  0  0  0  0  0  0
  140.8630   73.0520  221.3770 C   0  0  0  0  0  0  0  0  0  0  0  0
  141.8390   72.1790  220.9590 C   0  0  0  0  0  0  0  0  0  0  0  0
  143.0790   72.7140  220.6580 C   0  0  0  0  0  0  0  0  0  0  0  0
  144.0810   71.8460  220.2320 C   0  0  0  0  0  0  0  0  0  0  0  0
  145.3270   72.3450  219.9230 C   0  0  0  0  0  0  0  0  0  0  0  0
  146.3210   71.5200  219.5060 F   0  0  0  0  0  0  0  0  0  0  0  0
  145.5120   73.7080  220.0570 C   0  0  0  0  0  0  0  0  0  0  0  0
  144.5200   74.5670  220.4780 C   0  0  0  0  0  0  0  0  0  0  0  0
  143.2720   74.0630  220.7870 C   0  0  0  0  0  0  0  0  0  0  0  0
  142.2790   74.8820  221.2030 N   0  0  0  0  0  0  0  0  0  0  0  0
  141.1180   77.0160  222.0390 H   0  0  0  0  0  0  0  0  0  0  0  0
  138.2171   77.2970  221.9088 H   0  0  0  0  0  0  0  0  0  0  0  0
  138.7127   77.0122  223.6253 H   0  0  0  0  0  0  0  0  0  0  0  0
  141.4802   78.2527  224.4263 H   0  0  0  0  0  0  0  0  0  0  0  0
  142.5240   78.0471  223.0770 H   0  0  0  0  0  0  0  0  0  0  0  0
  141.7293   80.7682  224.4457 H   0  0  0  0  0  0  0  0  0  0  0  0
  143.3416   80.1509  224.4404 H   0  0  0  0  0  0  0  0  0  0  0  0
  142.5505   81.7949  222.4161 H   0  0  0  0  0  0  0  0  0  0  0  0
  143.5116   80.4098  221.9477 H   0  0  0  0  0  0  0  0  0  0  0  0
  140.6097   80.8942  221.4088 H   0  0  0  0  0  0  0  0  0  0  0  0
  140.4441   75.7716  218.8042 H   0  0  0  0  0  0  0  0  0  0  0  0
  140.8705   73.6204  217.6745 H   0  0  0  0  0  0  0  0  0  0  0  0
  143.0520   73.1427  216.5800 H   0  0  0  0  0  0  0  0  0  0  0  0
  144.8348   74.9011  216.6473 H   0  0  0  0  0  0  0  0  0  0  0  0
  144.3942   77.0459  217.7770 H   0  0  0  0  0  0  0  0  0  0  0  0
  142.8894   79.3129  217.4724 H   0  0  0  0  0  0  0  0  0  0  0  0
  139.8691   72.6495  221.6221 H   0  0  0  0  0  0  0  0  0  0  0  0
  141.6425   71.1006  220.8676 H   0  0  0  0  0  0  0  0  0  0  0  0
  143.8787   70.7685  220.1428 H   0  0  0  0  0  0  0  0  0  0  0  0
  146.4997   74.1279  219.8158 H   0  0  0  0  0  0  0  0  0  0  0  0
  144.7206   75.6449  220.5671 H   0  0  0  0  0  0  0  0  0  0  0  0
  1  2  2  0
  2  3  1  0
  3  4  1  0
  4  5  1  0
  5  6  2  0
  5  7  1  0
  7  8  1  0
  8  9  1  0
  9 10  1  0
 10 11  1  0
 11 12  1  0
 12 13  2  0
 13 14  1  0
 14 15  1  0
 15 16  2  0
 16 17  1  0
 17 18  2  0
 18 19  1  0
 19 20  2  0
 14 21  2  0
 21 22  1  0
  2 23  1  0
 23 24  2  0
 24 25  1  0
 25 26  2  0
 26 27  1  0
 27 28  2  0
 28 29  1  0
 28 30  1  0
 30 31  2  0
 31 32  1  0
 32 33  2  0
 11  7  1  0
 22 12  1  0
 33 23  1  0
 20 15  1  0
 32 26  1  0
  3 34  1  0
  4 35  1  0
  4 36  1  0
  8 37  1  0
  8 38  1  0
  9 39  1  0
  9 40  1  0
 10 41  1  0
 10 42  1  0
 11 43  1  6
 16 44  1  0
 17 45  1  0
 18 46  1  0
 19 47  1  0
 20 48  1  0
 21 49  1  0
 24 50  1  0
 25 51  1  0
 27 52  1  0
 30 53  1  0
 31 54  1  0
M  END
>  <smiles>  (31) 
O=C(NCC(=O)N1CCC[C@H]1c1nc(-c2ccccc2)co1)c1ccc2cc(F)ccc2n1

>  <score_type>  (31) 
oracle

>  <origin>  (31) 
autodockgpu

>  <m_score__min__energy>  (31) 
-9.1799999999999997

>  <m_primary>  (31) 
energy

>  <rmsd>  (31) 
6.7363370086010494

>  <m_score__min__rmsd>  (31) 
6.7363370086010494

>  <meeko>  (31) 
{"free_energy": -6.78, "intermolecular_energy": -8.56, "internal_energy": -4.2, "cluster_size": 20, "cluster_id": 5, "rank_in_cluster": 17}

>  <energy>  (31) 
-6.89

>  <cluster_rmsd>  (31) 
0.99

>  <cluster>  (31) 
5

$$$$

     RDKit          3D

 54 58  0  0  0  0  0  0  0  0999 V2000
  138.8790   70.4160  221.3510 O   0  0  0  0  0  0  0  0  0  0  0  0
  139.0840   71.2720  222.2620 C   0  0  0  0  0  0  0  0  0  0  0  0
  138.8490   72.6510  221.9800 N   0  0  0  0  0  0  0  0  0  0  0  0
  138.3820   72.9690  220.6410 C   0  0  0  0  0  0  0  0  0  0  0  0
  139.4400   72.7670  219.6500 C   0  0  0  0  0  0  0  0  0  0  0  0
  139.5860   71.7180  218.9590 O   0  0  0  0  0  0  0  0  0  0  0  0
  140.3830   73.8100  219.4290 N   0  0  0  0  0  0  0  0  0  0  0  0
  140.4870   74.6410  218.2300 C   0  0  0  0  0  0  0  0  0  0  0  0
  141.9960   74.4850  217.9940 C   0  0  0  0  0  0  0  0  0  0  0  0
  142.5020   74.8760  219.3760 C   0  0  0  0  0  0  0  0  0  0  0  0
  141.4350   74.2900  220.3070 C   0  0  1  0  0  0  0  0  0  0  0  0
  140.9530   75.3530  221.2260 C   0  0  0  0  0  0  0  0  0  0  0  0
  141.4820   76.5750  221.3980 N   0  0  0  0  0  0  0  0  0  0  0  0
  140.7610   77.2590  222.3250 C   0  0  0  0  0  0  0  0  0  0  0  0
  140.9860   78.6150  222.8120 C   0  0  0  0  0  0  0  0  0  0  0  0
  139.9620   79.4710  223.1640 C   0  0  0  0  0  0  0  0  0  0  0  0
  140.2610   80.7400  223.6170 C   0  0  0  0  0  0  0  0  0  0  0  0
  141.5670   81.1940  223.7330 C   0  0  0  0  0  0  0  0  0  0  0  0
  142.5860   80.3280  223.3770 C   0  0  0  0  0  0  0  0  0  0  0  0
  142.2790   79.0610  222.9250 C   0  0  0  0  0  0  0  0  0  0  0  0
  139.7610   76.3720  222.7030 C   0  0  0  0  0  0  0  0  0  0  0  0
  139.9240   75.2570  222.0190 O   0  0  0  0  0  0  0  0  0  0  0  0
  139.5560   70.8820  223.5910 C   0  0  0  0  0  0  0  0  0  0  0  0
  140.2760   71.8000  224.3220 C   0  0  0  0  0  0  0  0  0  0  0  0
  140.7660   71.5390  225.5790 C   0  0  0  0  0  0  0  0  0  0  0  0
  140.5110   70.2870  226.1100 C   0  0  0  0  0  0  0  0  0  0  0  0
  140.9990   70.0030  227.3820 C   0  0  0  0  0  0  0  0  0  0  0  0
  140.7610   68.7670  227.9410 C   0  0  0  0  0  0  0  0  0  0  0  0
  141.2260   68.4640  229.1800 F   0  0  0  0  0  0  0  0  0  0  0  0
  140.0360   67.8630  227.1890 C   0  0  0  0  0  0  0  0  0  0  0  0
  139.5530   68.1440  225.9300 C   0  0  0  0  0  0  0  0  0  0  0  0
  139.7930   69.3850  225.3720 C   0  0  0  0  0  0  0  0  0  0  0  0
  139.3310   69.6900  224.1380 N   0  0  0  0  0  0  0  0  0  0  0  0
  139.0170   73.3420  222.7240 H   0  0  0  0  0  0  0  0  0  0  0  0
  137.5301   72.3184  220.3941 H   0  0  0  0  0  0  0  0  0  0  0  0
  138.0812   74.0268  220.6189 H   0  0  0  0  0  0  0  0  0  0  0  0
  139.8912   74.2442  217.3948 H   0  0  0  0  0  0  0  0  0  0  0  0
  140.1165   75.6725  218.3233 H   0  0  0  0  0  0  0  0  0  0  0  0
  142.2670   73.4511  217.7341 H   0  0  0  0  0  0  0  0  0  0  0  0
  142.4050   75.0734  217.1594 H   0  0  0  0  0  0  0  0  0  0  0  0
  143.4889   74.4334  219.5764 H   0  0  0  0  0  0  0  0  0  0  0  0
  142.6388   75.9605  219.4988 H   0  0  0  0  0  0  0  0  0  0  0  0
  141.8109   73.4723  220.9395 H   0  0  0  0  0  0  0  0  0  0  0  0
  138.9148   79.1440  223.0840 H   0  0  0  0  0  0  0  0  0  0  0  0
  139.4370   81.4135  223.8952 H   0  0  0  0  0  0  0  0  0  0  0  0
  141.7853   82.2091  224.0961 H   0  0  0  0  0  0  0  0  0  0  0  0
  143.6356   80.6481  223.4540 H   0  0  0  0  0  0  0  0  0  0  0  0
  143.0999   78.3843  222.6453 H   0  0  0  0  0  0  0  0  0  0  0  0
  138.9712   76.5661  223.4436 H   0  0  0  0  0  0  0  0  0  0  0  0
  140.4680   72.7885  223.8792 H   0  0  0  0  0  0  0  0  0  0  0  0
  141.3370   72.2938  226.1396 H   0  0  0  0  0  0  0  0  0  0  0  0
  141.5711   70.7608  227.9374 H   0  0  0  0  0  0  0  0  0  0  0  0
  139.8345   66.8698  227.6167 H   0  0  0  0  0  0  0  0  0  0  0  0
  138.9811   67.3868  225.3736 H   0  0  0  0  0  0  0  0  0  0  0  0
  1  2  2  0
  2  3  1  0
  3  4  1  0
  4  5  1  0
  5  6  2  0
  5  7  1  0
  7  8  1  0
  8  9  1  0
  9 10  1  0
 10 11  1  0
 11 12  1  0
 12 13  2  0
 13 14  1  0
 14 15  1  0
 15 16  2  0
 16 17  1  0
 17 18  2  0
 18 19  1  0
 19 20  2  0
 14 21  2  0
 21 22  1  0
  2 23  1  0
 23 24  2  0
 24 25  1  0
 25 26  2  0
 26 27  1  0
 27 28  2  0
 28 29  1  0
 28 30  1  0
 30 31  2  0
 31 32  1  0
 32 33  2  0
 11  7  1  0
 22 12  1  0
 33 23  1  0
 20 15  1  0
 32 26  1  0
  3 34  1  0
  4 35  1  0
  4 36  1  0
  8 37  1  0
  8 38  1  0
  9 39  1  0
  9 40  1  0
 10 41  1  0
 10 42  1  0
 11 43  1  1
 16 44  1  0
 17 45  1  0
 18 46  1  0
 19 47  1  0
 20 48  1  0
 21 49  1  0
 24 50  1  0
 25 51  1  0
 27 52  1  0
 30 53  1  0
 31 54  1  0
M  END
>  <smiles>  (32) 
O=C(NCC(=O)N1CCC[C@H]1c1nc(-c2ccccc2)co1)c1ccc2cc(F)ccc2n1

>  <score_type>  (32) 
oracle

>  <origin>  (32) 
autodockgpu

>  <m_score__min__energy>  (32) 
-9.1799999999999997

>  <m_primary>  (32) 
energy

>  <rmsd>  (32) 
3.066992448003943

>  <m_score__min__rmsd>  (32) 
3.066992448003943

>  <meeko>  (32) 
{"free_energy": -8.7, "intermolecular_energy": -10.49, "internal_energy": -2.35, "cluster_size": 12, "cluster_id": 3, "rank_in_cluster": 8}

>  <energy>  (32) 
-6.88

>  <cluster_rmsd>  (32) 
0.98

>  <cluster>  (32) 
5

$$$$

     RDKit          3D

 54 58  0  0  0  0  0  0  0  0999 V2000
  138.8370   74.8020  222.1670 O   0  0  0  0  0  0  0  0  0  0  0  0
  139.9920   75.2790  221.9580 C   0  0  0  0  0  0  0  0  0  0  0  0
  140.2110   76.6740  222.1680 N   0  0  0  0  0  0  0  0  0  0  0  0
  139.0670   77.4500  222.6160 C   0  0  0  0  0  0  0  0  0  0  0  0
  139.4230   78.8580  222.8020 C   0  0  0  0  0  0  0  0  0  0  0  0
  138.5980   79.7770  223.0700 O   0  0  0  0  0  0  0  0  0  0  0  0
  140.7880   79.2440  222.6780 N   0  0  0  0  0  0  0  0  0  0  0  0
  141.8940   78.7860  223.5170 C   0  0  0  0  0  0  0  0  0  0  0  0
  142.4970   80.1600  223.8440 C   0  0  0  0  0  0  0  0  0  0  0  0
  142.6390   80.7070  222.4300 C   0  0  0  0  0  0  0  0  0  0  0  0
  141.3960   80.1540  221.7240 C   0  0  1  0  0  0  0  0  0  0  0  0
  141.8100   79.4600  220.4780 C   0  0  0  0  0  0  0  0  0  0  0  0
  141.8450   78.1350  220.2630 N   0  0  0  0  0  0  0  0  0  0  0  0
  142.2780   77.8890  218.9990 C   0  0  0  0  0  0  0  0  0  0  0  0
  142.4650   76.5950  218.3520 C   0  0  0  0  0  0  0  0  0  0  0  0
  143.6420   76.2200  217.7370 C   0  0  0  0  0  0  0  0  0  0  0  0
  143.7370   74.9750  217.1480 C   0  0  0  0  0  0  0  0  0  0  0  0
  142.6800   74.0760  217.1500 C   0  0  0  0  0  0  0  0  0  0  0  0
  141.5040   74.4610  217.7700 C   0  0  0  0  0  0  0  0  0  0  0  0
  141.4180   75.7070  218.3570 C   0  0  0  0  0  0  0  0  0  0  0  0
  142.5040   79.1500  218.4610 C   0  0  0  0  0  0  0  0  0  0  0  0
  142.2090   80.0450  219.3840 O   0  0  0  0  0  0  0  0  0  0  0  0
  141.1010   74.4380  221.5070 C   0  0  0  0  0  0  0  0  0  0  0  0
  140.8880   73.0830  221.3950 C   0  0  0  0  0  0  0  0  0  0  0  0
  141.8590   72.2030  220.9820 C   0  0  0  0  0  0  0  0  0  0  0  0
  143.1000   72.7310  220.6710 C   0  0  0  0  0  0  0  0  0  0  0  0
  144.0970   71.8560  220.2500 C   0  0  0  0  0  0  0  0  0  0  0  0
  145.3430   72.3480  219.9320 C   0  0  0  0  0  0  0  0  0  0  0  0
  146.3340   71.5160  219.5200 F   0  0  0  0  0  0  0  0  0  0  0  0
  145.5330   73.7120  220.0520 C   0  0  0  0  0  0  0  0  0  0  0  0
  144.5460   74.5780  220.4690 C   0  0  0  0  0  0  0  0  0  0  0  0
  143.2970   74.0810  220.7870 C   0  0  0  0  0  0  0  0  0  0  0  0
  142.3080   74.9060  221.1980 N   0  0  0  0  0  0  0  0  0  0  0  0
  141.1510   77.0560  221.9970 H   0  0  0  0  0  0  0  0  0  0  0  0
  138.2678   77.3782  221.8636 H   0  0  0  0  0  0  0  0  0  0  0  0
  138.7280   77.0457  223.5812 H   0  0  0  0  0  0  0  0  0  0  0  0
  141.5439   78.2597  224.4172 H   0  0  0  0  0  0  0  0  0  0  0  0
  142.5771   78.0555  223.0590 H   0  0  0  0  0  0  0  0  0  0  0  0
  141.8182   80.7723  224.4558 H   0  0  0  0  0  0  0  0  0  0  0  0
  143.4239   80.1387  224.4359 H   0  0  0  0  0  0  0  0  0  0  0  0
  142.6385   81.8070  222.4290 H   0  0  0  0  0  0  0  0  0  0  0  0
  143.5814   80.4153  221.9434 H   0  0  0  0  0  0  0  0  0  0  0  0
  140.6810   80.9354  221.4270 H   0  0  0  0  0  0  0  0  0  0  0  0
  144.4993   76.9089  217.7162 H   0  0  0  0  0  0  0  0  0  0  0  0
  144.6805   74.6865  216.6617 H   0  0  0  0  0  0  0  0  0  0  0  0
  142.7737   73.0888  216.6740 H   0  0  0  0  0  0  0  0  0  0  0  0
  140.6425   73.7775  217.7948 H   0  0  0  0  0  0  0  0  0  0  0  0
  140.4771   75.9991  218.8463 H   0  0  0  0  0  0  0  0  0  0  0  0
  142.8653   79.3642  217.4444 H   0  0  0  0  0  0  0  0  0  0  0  0
  139.8939   72.6859  221.6480 H   0  0  0  0  0  0  0  0  0  0  0  0
  141.6585   71.1244  220.9019 H   0  0  0  0  0  0  0  0  0  0  0  0
  143.8909   70.7783  220.1718 H   0  0  0  0  0  0  0  0  0  0  0  0
  146.5209   74.1263  219.8022 H   0  0  0  0  0  0  0  0  0  0  0  0
  144.7508   75.6559  220.5480 H   0  0  0  0  0  0  0  0  0  0  0  0
  1  2  2  0
  2  3  1  0
  3  4  1  0
  4  5  1  0
  5  6  2  0
  5  7  1  0
  7  8  1  0
  8  9  1  0
  9 10  1  0
 10 11  1  0
 11 12  1  0
 12 13  2  0
 13 14  1  0
 14 15  1  0
 15 16  2  0
 16 17  1  0
 17 18  2  0
 18 19  1  0
 19 20  2  0
 14 21  2  0
 21 22  1  0
  2 23  1  0
 23 24  2  0
 24 25  1  0
 25 26  2  0
 26 27  1  0
 27 28  2  0
 28 29  1  0
 28 30  1  0
 30 31  2  0
 31 32  1  0
 32 33  2  0
 11  7  1  0
 22 12  1  0
 33 23  1  0
 20 15  1  0
 32 26  1  0
  3 34  1  0
  4 35  1  0
  4 36  1  0
  8 37  1  0
  8 38  1  0
  9 39  1  0
  9 40  1  0
 10 41  1  0
 10 42  1  0
 11 43  1  6
 16 44  1  0
 17 45  1  0
 18 46  1  0
 19 47  1  0
 20 48  1  0
 21 49  1  0
 24 50  1  0
 25 51  1  0
 27 52  1  0
 30 53  1  0
 31 54  1  0
M  END
>  <smiles>  (33) 
O=C(NCC(=O)N1CCC[C@H]1c1nc(-c2ccccc2)co1)c1ccc2cc(F)ccc2n1

>  <score_type>  (33) 
oracle

>  <origin>  (33) 
autodockgpu

>  <m_score__min__energy>  (33) 
-9.1799999999999997

>  <m_primary>  (33) 
energy

>  <rmsd>  (33) 
6.816658529841478

>  <m_score__min__rmsd>  (33) 
6.816658529841478

>  <meeko>  (33) 
{"free_energy": -6.77, "intermolecular_energy": -8.56, "internal_energy": -4.22, "cluster_size": 20, "cluster_id": 5, "rank_in_cluster": 18}

>  <energy>  (33) 
-6.88

>  <cluster_rmsd>  (33) 
0.9

>  <cluster>  (33) 
5

$$$$

     RDKit          3D

 54 58  0  0  0  0  0  0  0  0999 V2000
  139.7000   74.8870  222.2460 O   0  0  0  0  0  0  0  0  0  0  0  0
  140.8230   75.2120  221.7570 C   0  0  0  0  0  0  0  0  0  0  0  0
  141.1930   76.5910  221.7330 N   0  0  0  0  0  0  0  0  0  0  0  0
  140.2310   77.5300  222.2860 C   0  0  0  0  0  0  0  0  0  0  0  0
  140.9030   78.6590  222.9300 C   0  0  0  0  0  0  0  0  0  0  0  0
  141.0770   78.7750  224.1770 O   0  0  0  0  0  0  0  0  0  0  0  0
  141.4060   79.7150  222.1170 N   0  0  0  0  0  0  0  0  0  0  0  0
  142.5040   80.6180  222.4570 C   0  0  0  0  0  0  0  0  0  0  0  0
  141.8010   81.9420  222.1260 C   0  0  0  0  0  0  0  0  0  0  0  0
  141.3340   81.6250  220.7120 C   0  0  0  0  0  0  0  0  0  0  0  0
  140.9690   80.1390  220.7990 C   0  0  1  0  0  0  0  0  0  0  0  0
  141.6670   79.4000  219.7160 C   0  0  0  0  0  0  0  0  0  0  0  0
  141.7040   78.0700  219.5370 N   0  0  0  0  0  0  0  0  0  0  0  0
  142.4420   77.7770  218.4350 C   0  0  0  0  0  0  0  0  0  0  0  0
  142.7390   76.4620  217.8800 C   0  0  0  0  0  0  0  0  0  0  0  0
  143.8770   76.1900  217.1470 C   0  0  0  0  0  0  0  0  0  0  0  0
  144.0830   74.9160  216.6560 C   0  0  0  0  0  0  0  0  0  0  0  0
  143.1790   73.8860  216.8750 C   0  0  0  0  0  0  0  0  0  0  0  0
  142.0420   74.1690  217.6100 C   0  0  0  0  0  0  0  0  0  0  0  0
  141.8430   75.4450  218.0970 C   0  0  0  0  0  0  0  0  0  0  0  0
  142.8500   79.0160  217.9560 C   0  0  0  0  0  0  0  0  0  0  0  0
  142.3610   79.9440  218.7560 O   0  0  0  0  0  0  0  0  0  0  0  0
  141.7450   74.2130  221.2170 C   0  0  0  0  0  0  0  0  0  0  0  0
  141.2720   72.9380  221.0040 C   0  0  0  0  0  0  0  0  0  0  0  0
  142.0520   71.9230  220.5020 C   0  0  0  0  0  0  0  0  0  0  0  0
  143.3690   72.2260  220.2050 C   0  0  0  0  0  0  0  0  0  0  0  0
  144.1750   71.2120  219.6950 C   0  0  0  0  0  0  0  0  0  0  0  0
  145.4910   71.4790  219.3880 C   0  0  0  0  0  0  0  0  0  0  0  0
  146.2980   70.5090  218.8890 F   0  0  0  0  0  0  0  0  0  0  0  0
  145.9420   72.7670  219.6090 C   0  0  0  0  0  0  0  0  0  0  0  0
  145.1440   73.7700  220.1140 C   0  0  0  0  0  0  0  0  0  0  0  0
  143.8250   73.4990  220.4210 C   0  0  0  0  0  0  0  0  0  0  0  0
  143.0180   74.4630  220.9180 N   0  0  0  0  0  0  0  0  0  0  0  0
  142.1060   76.8500  221.3350 H   0  0  0  0  0  0  0  0  0  0  0  0
  139.5919   77.9084  221.4746 H   0  0  0  0  0  0  0  0  0  0  0  0
  139.6284   77.0060  223.0425 H   0  0  0  0  0  0  0  0  0  0  0  0
  142.7863   80.5499  223.5180 H   0  0  0  0  0  0  0  0  0  0  0  0
  143.4576   80.4350  221.9401 H   0  0  0  0  0  0  0  0  0  0  0  0
  140.9571   82.1401  222.8032 H   0  0  0  0  0  0  0  0  0  0  0  0
  142.4242   82.8430  222.2247 H   0  0  0  0  0  0  0  0  0  0  0  0
  140.4587   82.2325  220.4385 H   0  0  0  0  0  0  0  0  0  0  0  0
  142.0914   81.8428  219.9446 H   0  0  0  0  0  0  0  0  0  0  0  0
  139.8937   79.9472  220.6691 H   0  0  0  0  0  0  0  0  0  0  0  0
  144.6148   76.9831  216.9554 H   0  0  0  0  0  0  0  0  0  0  0  0
  144.9927   74.7109  216.0726 H   0  0  0  0  0  0  0  0  0  0  0  0
  143.3609   72.8769  216.4768 H   0  0  0  0  0  0  0  0  0  0  0  0
  141.2999   73.3809  217.8055 H   0  0  0  0  0  0  0  0  0  0  0  0
  140.9339   75.6544  218.6798 H   0  0  0  0  0  0  0  0  0  0  0  0
  143.4717   79.1921  217.0658 H   0  0  0  0  0  0  0  0  0  0  0  0
  140.2213   72.7210  221.2466 H   0  0  0  0  0  0  0  0  0  0  0  0
  141.6462   70.9130  220.3433 H   0  0  0  0  0  0  0  0  0  0  0  0
  143.7636   70.2040  219.5382 H   0  0  0  0  0  0  0  0  0  0  0  0
  146.9895   73.0025  219.3698 H   0  0  0  0  0  0  0  0  0  0  0  0
  145.5540   74.7785  220.2714 H   0  0  0  0  0  0  0  0  0  0  0  0
  1  2  2  0
  2  3  1  0
  3  4  1  0
  4  5  1  0
  5  6  2  0
  5  7  1  0
  7  8  1  0
  8  9  1  0
  9 10  1  0
 10 11  1  0
 11 12  1  0
 12 13  2  0
 13 14  1  0
 14 15  1  0
 15 16  2  0
 16 17  1  0
 17 18  2  0
 18 19  1  0
 19 20  2  0
 14 21  2  0
 21 22  1  0
  2 23  1  0
 23 24  2  0
 24 25  1  0
 25 26  2  0
 26 27  1  0
 27 28  2  0
 28 29  1  0
 28 30  1  0
 30 31  2  0
 31 32  1  0
 32 33  2  0
 11  7  1  0
 22 12  1  0
 33 23  1  0
 20 15  1  0
 32 26  1  0
  3 34  1  0
  4 35  1  0
  4 36  1  0
  8 37  1  0
  8 38  1  0
  9 39  1  0
  9 40  1  0
 10 41  1  0
 10 42  1  0
 11 43  1  1
 16 44  1  0
 17 45  1  0
 18 46  1  0
 19 47  1  0
 20 48  1  0
 21 49  1  0
 24 50  1  0
 25 51  1  0
 27 52  1  0
 30 53  1  0
 31 54  1  0
M  END
>  <smiles>  (34) 
O=C(NCC(=O)N1CCC[C@H]1c1nc(-c2ccccc2)co1)c1ccc2cc(F)ccc2n1

>  <score_type>  (34) 
oracle

>  <origin>  (34) 
autodockgpu

>  <m_score__min__energy>  (34) 
-9.1799999999999997

>  <m_primary>  (34) 
energy

>  <rmsd>  (34) 
7.057127727377665

>  <m_score__min__rmsd>  (34) 
7.057127727377665

>  <meeko>  (34) 
{"free_energy": -6.94, "intermolecular_energy": -8.73, "internal_energy": -3.86, "cluster_size": 20, "cluster_id": 5, "rank_in_cluster": 1}

>  <energy>  (34) 
-6.86

>  <cluster_rmsd>  (34) 
1.0

>  <cluster>  (34) 
5

$$$$

     RDKit          3D

 54 58  0  0  0  0  0  0  0  0999 V2000
  141.3050   72.6720  221.6810 O   0  0  0  0  0  0  0  0  0  0  0  0
  140.3290   72.6950  222.4890 C   0  0  0  0  0  0  0  0  0  0  0  0
  139.3410   73.7170  222.3500 N   0  0  0  0  0  0  0  0  0  0  0  0
  139.5400   74.6680  221.2690 C   0  0  0  0  0  0  0  0  0  0  0  0
  139.2250   76.0310  221.6990 C   0  0  0  0  0  0  0  0  0  0  0  0
  138.1060   76.4000  222.1570 O   0  0  0  0  0  0  0  0  0  0  0  0
  140.2350   77.0320  221.6040 N   0  0  0  0  0  0  0  0  0  0  0  0
  140.9490   77.6450  222.7230 C   0  0  0  0  0  0  0  0  0  0  0  0
  140.7560   79.1140  222.3180 C   0  0  0  0  0  0  0  0  0  0  0  0
  141.2690   79.0420  220.8860 C   0  0  0  0  0  0  0  0  0  0  0  0
  140.7830   77.6650  220.4190 C   0  0  1  0  0  0  0  0  0  0  0  0
  141.9320   76.9060  219.8620 C   0  0  0  0  0  0  0  0  0  0  0  0
  142.4370   75.7490  220.3210 N   0  0  0  0  0  0  0  0  0  0  0  0
  143.4840   75.3680  219.5450 C   0  0  0  0  0  0  0  0  0  0  0  0
  144.3180   74.1790  219.6860 C   0  0  0  0  0  0  0  0  0  0  0  0
  144.2960   73.1300  218.7910 C   0  0  0  0  0  0  0  0  0  0  0  0
  145.1180   72.0400  218.9980 C   0  0  0  0  0  0  0  0  0  0  0  0
  145.9760   71.9590  220.0860 C   0  0  0  0  0  0  0  0  0  0  0  0
  145.9900   73.0170  220.9780 C   0  0  0  0  0  0  0  0  0  0  0  0
  145.1650   74.1030  220.7640 C   0  0  0  0  0  0  0  0  0  0  0  0
  143.5820   76.3680  218.5850 C   0  0  0  0  0  0  0  0  0  0  0  0
  142.6350   77.2550  218.8220 O   0  0  0  0  0  0  0  0  0  0  0  0
  140.1910   71.7050  223.5570 C   0  0  0  0  0  0  0  0  0  0  0  0
  139.5820   70.5070  223.2600 C   0  0  0  0  0  0  0  0  0  0  0  0
  139.4000   69.5080  224.1870 C   0  0  0  0  0  0  0  0  0  0  0  0
  139.8600   69.7450  225.4700 C   0  0  0  0  0  0  0  0  0  0  0  0
  139.6850   68.7460  226.4230 C   0  0  0  0  0  0  0  0  0  0  0  0
  140.1320   68.9480  227.7100 C   0  0  0  0  0  0  0  0  0  0  0  0
  139.9740   67.9910  228.6590 F   0  0  0  0  0  0  0  0  0  0  0  0
  140.7410   70.1590  227.9840 C   0  0  0  0  0  0  0  0  0  0  0  0
  140.9130   71.1480  227.0400 C   0  0  0  0  0  0  0  0  0  0  0  0
  140.4640   70.9420  225.7500 C   0  0  0  0  0  0  0  0  0  0  0  0
  140.6200   71.8940  224.8030 N   0  0  0  0  0  0  0  0  0  0  0  0
  138.5510   73.7320  223.0090 H   0  0  0  0  0  0  0  0  0  0  0  0
  140.5902   74.6278  220.9444 H   0  0  0  0  0  0  0  0  0  0  0  0
  138.8677   74.3998  220.4407 H   0  0  0  0  0  0  0  0  0  0  0  0
  140.4820   77.4148  223.6920 H   0  0  0  0  0  0  0  0  0  0  0  0
  141.9884   77.3169  222.8713 H   0  0  0  0  0  0  0  0  0  0  0  0
  139.6996   79.4175  222.3619 H   0  0  0  0  0  0  0  0  0  0  0  0
  141.2595   79.8500  222.9620 H   0  0  0  0  0  0  0  0  0  0  0  0
  140.8372   79.8444  220.2698 H   0  0  0  0  0  0  0  0  0  0  0  0
  142.3589   79.1685  220.8073 H   0  0  0  0  0  0  0  0  0  0  0  0
  140.0241   77.7172  219.6244 H   0  0  0  0  0  0  0  0  0  0  0  0
  143.6279   73.1614  217.9177 H   0  0  0  0  0  0  0  0  0  0  0  0
  145.0920   71.2092  218.2775 H   0  0  0  0  0  0  0  0  0  0  0  0
  146.6237   71.0824  220.2344 H   0  0  0  0  0  0  0  0  0  0  0  0
  146.6555   72.9927  221.8535 H   0  0  0  0  0  0  0  0  0  0  0  0
  145.1869   74.9362  221.4819 H   0  0  0  0  0  0  0  0  0  0  0  0
  144.3199   76.4121  217.7704 H   0  0  0  0  0  0  0  0  0  0  0  0
  139.2242   70.3410  222.2331 H   0  0  0  0  0  0  0  0  0  0  0  0
  138.9094   68.5604  223.9198 H   0  0  0  0  0  0  0  0  0  0  0  0
  139.1927   67.8009  226.1501 H   0  0  0  0  0  0  0  0  0  0  0  0
  141.1060   70.3417  229.0055 H   0  0  0  0  0  0  0  0  0  0  0  0
  141.4040   72.0941  227.3116 H   0  0  0  0  0  0  0  0  0  0  0  0
  1  2  2  0
  2  3  1  0
  3  4  1  0
  4  5  1  0
  5  6  2  0
  5  7  1  0
  7  8  1  0
  8  9  1  0
  9 10  1  0
 10 11  1  0
 11 12  1  0
 12 13  2  0
 13 14  1  0
 14 15  1  0
 15 16  2  0
 16 17  1  0
 17 18  2  0
 18 19  1  0
 19 20  2  0
 14 21  2  0
 21 22  1  0
  2 23  1  0
 23 24  2  0
 24 25  1  0
 25 26  2  0
 26 27  1  0
 27 28  2  0
 28 29  1  0
 28 30  1  0
 30 31  2  0
 31 32  1  0
 32 33  2  0
 11  7  1  0
 22 12  1  0
 33 23  1  0
 20 15  1  0
 32 26  1  0
  3 34  1  0
  4 35  1  0
  4 36  1  0
  8 37  1  0
  8 38  1  0
  9 39  1  0
  9 40  1  0
 10 41  1  0
 10 42  1  0
 11 43  1  6
 16 44  1  0
 17 45  1  0
 18 46  1  0
 19 47  1  0
 20 48  1  0
 21 49  1  0
 24 50  1  0
 25 51  1  0
 27 52  1  0
 30 53  1  0
 31 54  1  0
M  END
>  <smiles>  (35) 
O=C(NCC(=O)N1CCC[C@H]1c1nc(-c2ccccc2)co1)c1ccc2cc(F)ccc2n1

>  <score_type>  (35) 
oracle

>  <origin>  (35) 
autodockgpu

>  <m_score__min__energy>  (35) 
-9.1799999999999997

>  <m_primary>  (35) 
energy

>  <rmsd>  (35) 
5.431394910579165

>  <m_score__min__rmsd>  (35) 
5.431394910579165

>  <meeko>  (35) 
{"free_energy": -9.18, "intermolecular_energy": -10.97, "internal_energy": -1.89, "cluster_size": 5, "cluster_id": 1, "rank_in_cluster": 1}

>  <energy>  (35) 
-6.85

>  <cluster_rmsd>  (35) 
0.95

>  <cluster>  (35) 
5

$$$$

     RDKit          3D

 54 58  0  0  0  0  0  0  0  0999 V2000
  138.8710   74.7290  222.3430 O   0  0  0  0  0  0  0  0  0  0  0  0
  139.9730   75.2340  221.9740 C   0  0  0  0  0  0  0  0  0  0  0  0
  140.1280   76.6530  222.0070 N   0  0  0  0  0  0  0  0  0  0  0  0
  138.9840   77.4190  222.4740 C   0  0  0  0  0  0  0  0  0  0  0  0
  139.3420   78.8210  222.6970 C   0  0  0  0  0  0  0  0  0  0  0  0
  138.5160   79.7390  222.9640 O   0  0  0  0  0  0  0  0  0  0  0  0
  140.7120   79.2020  222.6140 N   0  0  0  0  0  0  0  0  0  0  0  0
  141.7930   78.7310  223.4780 C   0  0  0  0  0  0  0  0  0  0  0  0
  142.3920   80.0990  223.8350 C   0  0  0  0  0  0  0  0  0  0  0  0
  142.5750   80.6590  222.4310 C   0  0  0  0  0  0  0  0  0  0  0  0
  141.3490   80.1190  221.6870 C   0  0  1  0  0  0  0  0  0  0  0  0
  141.7940   79.4360  220.4450 C   0  0  0  0  0  0  0  0  0  0  0  0
  141.8180   78.1140  220.2130 N   0  0  0  0  0  0  0  0  0  0  0  0
  142.2890   77.8780  218.9600 C   0  0  0  0  0  0  0  0  0  0  0  0
  142.4790   76.5900  218.3020 C   0  0  0  0  0  0  0  0  0  0  0  0
  141.5230   75.5950  218.2990 C   0  0  0  0  0  0  0  0  0  0  0  0
  141.7820   74.4040  217.6510 C   0  0  0  0  0  0  0  0  0  0  0  0
  142.9820   74.1660  216.9960 C   0  0  0  0  0  0  0  0  0  0  0  0
  143.9340   75.1700  217.0050 C   0  0  0  0  0  0  0  0  0  0  0  0
  143.6670   76.3590  217.6550 C   0  0  0  0  0  0  0  0  0  0  0  0
  142.5490   79.1430  218.4480 C   0  0  0  0  0  0  0  0  0  0  0  0
  142.2370   80.0300  219.3730 O   0  0  0  0  0  0  0  0  0  0  0  0
  141.0850   74.4020  221.5140 C   0  0  0  0  0  0  0  0  0  0  0  0
  140.8760   73.0470  221.3870 C   0  0  0  0  0  0  0  0  0  0  0  0
  141.8510   72.1750  220.9640 C   0  0  0  0  0  0  0  0  0  0  0  0
  143.0900   72.7100  220.6600 C   0  0  0  0  0  0  0  0  0  0  0  0
  144.0900   71.8430  220.2300 C   0  0  0  0  0  0  0  0  0  0  0  0
  145.3340   72.3420  219.9180 C   0  0  0  0  0  0  0  0  0  0  0  0
  146.3280   71.5180  219.4960 F   0  0  0  0  0  0  0  0  0  0  0  0
  145.5200   73.7050  220.0530 C   0  0  0  0  0  0  0  0  0  0  0  0
  144.5300   74.5640  220.4780 C   0  0  0  0  0  0  0  0  0  0  0  0
  143.2820   74.0590  220.7910 C   0  0  0  0  0  0  0  0  0  0  0  0
  142.2910   74.8770  221.2110 N   0  0  0  0  0  0  0  0  0  0  0  0
  141.0240   77.0580  221.7050 H   0  0  0  0  0  0  0  0  0  0  0  0
  138.1856   77.3681  221.7191 H   0  0  0  0  0  0  0  0  0  0  0  0
  138.6431   76.9902  223.4279 H   0  0  0  0  0  0  0  0  0  0  0  0
  141.4166   78.1971  224.3630 H   0  0  0  0  0  0  0  0  0  0  0  0
  142.4855   78.0023  223.0314 H   0  0  0  0  0  0  0  0  0  0  0  0
  141.6990   80.7081  224.4339 H   0  0  0  0  0  0  0  0  0  0  0  0
  143.3021   80.0681  224.4520 H   0  0  0  0  0  0  0  0  0  0  0  0
  142.5797   81.7589  222.4408 H   0  0  0  0  0  0  0  0  0  0  0  0
  143.5289   80.3676  221.9671 H   0  0  0  0  0  0  0  0  0  0  0  0
  140.6452   80.9066  221.3799 H   0  0  0  0  0  0  0  0  0  0  0  0
  140.5610   75.7498  218.8095 H   0  0  0  0  0  0  0  0  0  0  0  0
  141.0123   73.6182  217.6539 H   0  0  0  0  0  0  0  0  0  0  0  0
  143.1703   73.2098  216.4860 H   0  0  0  0  0  0  0  0  0  0  0  0
  144.8985   75.0220  216.4971 H   0  0  0  0  0  0  0  0  0  0  0  0
  144.4332   77.1483  217.6540 H   0  0  0  0  0  0  0  0  0  0  0  0
  142.9456   79.3659  217.4465 H   0  0  0  0  0  0  0  0  0  0  0  0
  139.8832   72.6437  221.6354 H   0  0  0  0  0  0  0  0  0  0  0  0
  141.6541   71.0968  220.8711 H   0  0  0  0  0  0  0  0  0  0  0  0
  143.8874   70.7656  220.1400 H   0  0  0  0  0  0  0  0  0  0  0  0
  146.5071   74.1247  219.8091 H   0  0  0  0  0  0  0  0  0  0  0  0
  144.7310   75.6418  220.5674 H   0  0  0  0  0  0  0  0  0  0  0  0
  1  2  2  0
  2  3  1  0
  3  4  1  0
  4  5  1  0
  5  6  2  0
  5  7  1  0
  7  8  1  0
  8  9  1  0
  9 10  1  0
 10 11  1  0
 11 12  1  0
 12 13  2  0
 13 14  1  0
 14 15  1  0
 15 16  2  0
 16 17  1  0
 17 18  2  0
 18 19  1  0
 19 20  2  0
 14 21  2  0
 21 22  1  0
  2 23  1  0
 23 24  2  0
 24 25  1  0
 25 26  2  0
 26 27  1  0
 27 28  2  0
 28 29  1  0
 28 30  1  0
 30 31  2  0
 31 32  1  0
 32 33  2  0
 11  7  1  0
 22 12  1  0
 33 23  1  0
 20 15  1  0
 32 26  1  0
  3 34  1  0
  4 35  1  0
  4 36  1  0
  8 37  1  0
  8 38  1  0
  9 39  1  0
  9 40  1  0
 10 41  1  0
 10 42  1  0
 11 43  1  6
 16 44  1  0
 17 45  1  0
 18 46  1  0
 19 47  1  0
 20 48  1  0
 21 49  1  0
 24 50  1  0
 25 51  1  0
 27 52  1  0
 30 53  1  0
 31 54  1  0
M  END
>  <smiles>  (36) 
O=C(NCC(=O)N1CCC[C@H]1c1nc(-c2ccccc2)co1)c1ccc2cc(F)ccc2n1

>  <score_type>  (36) 
oracle

>  <origin>  (36) 
autodockgpu

>  <m_score__min__energy>  (36) 
-9.1799999999999997

>  <m_primary>  (36) 
energy

>  <rmsd>  (36) 
6.733450406017564

>  <m_score__min__rmsd>  (36) 
6.733450406017564

>  <meeko>  (36) 
{"free_energy": -6.79, "intermolecular_energy": -8.58, "internal_energy": -4.22, "cluster_size": 20, "cluster_id": 5, "rank_in_cluster": 16}

>  <energy>  (36) 
-6.85

>  <cluster_rmsd>  (36) 
1.01

>  <cluster>  (36) 
5

$$$$

     RDKit          3D

 54 58  0  0  0  0  0  0  0  0999 V2000
  138.8430   74.9170  221.8250 O   0  0  0  0  0  0  0  0  0  0  0  0
  140.0370   75.3390  221.7790 C   0  0  0  0  0  0  0  0  0  0  0  0
  140.3000   76.7020  222.1120 N   0  0  0  0  0  0  0  0  0  0  0  0
  139.1520   77.5120  222.4850 C   0  0  0  0  0  0  0  0  0  0  0  0
  139.5720   78.7760  223.0930 C   0  0  0  0  0  0  0  0  0  0  0  0
  138.8420   79.4920  223.8360 O   0  0  0  0  0  0  0  0  0  0  0  0
  140.8900   79.2540  222.8460 N   0  0  0  0  0  0  0  0  0  0  0  0
  142.0960   78.8810  223.5830 C   0  0  0  0  0  0  0  0  0  0  0  0
  142.6290   80.2970  223.8490 C   0  0  0  0  0  0  0  0  0  0  0  0
  142.6050   80.8380  222.4260 C   0  0  0  0  0  0  0  0  0  0  0  0
  141.3460   80.1940  221.8380 C   0  0  1  0  0  0  0  0  0  0  0  0
  141.6940   79.5180  220.5620 C   0  0  0  0  0  0  0  0  0  0  0  0
  141.7560   78.1960  220.3370 N   0  0  0  0  0  0  0  0  0  0  0  0
  142.1080   77.9670  219.0450 C   0  0  0  0  0  0  0  0  0  0  0  0
  142.2900   76.6820  218.3790 C   0  0  0  0  0  0  0  0  0  0  0  0
  141.2850   75.7440  218.2590 C   0  0  0  0  0  0  0  0  0  0  0  0
  141.5400   74.5510  217.6130 C   0  0  0  0  0  0  0  0  0  0  0  0
  142.7840   74.2550  217.0740 C   0  0  0  0  0  0  0  0  0  0  0  0
  143.7850   75.2020  217.2000 C   0  0  0  0  0  0  0  0  0  0  0  0
  143.5220   76.3930  217.8470 C   0  0  0  0  0  0  0  0  0  0  0  0
  142.2550   79.2370  218.5000 C   0  0  0  0  0  0  0  0  0  0  0  0
  141.9980   80.1190  219.4460 O   0  0  0  0  0  0  0  0  0  0  0  0
  141.1470   74.4670  221.3940 C   0  0  0  0  0  0  0  0  0  0  0  0
  140.9160   73.1120  221.3210 C   0  0  0  0  0  0  0  0  0  0  0  0
  141.8870   72.2050  220.9710 C   0  0  0  0  0  0  0  0  0  0  0  0
  143.1460   72.7030  220.6840 C   0  0  0  0  0  0  0  0  0  0  0  0
  144.1420   71.8000  220.3270 C   0  0  0  0  0  0  0  0  0  0  0  0
  145.4060   72.2620  220.0350 C   0  0  0  0  0  0  0  0  0  0  0  0
  146.3960   71.4030  219.6840 F   0  0  0  0  0  0  0  0  0  0  0  0
  145.6130   73.6270  220.1150 C   0  0  0  0  0  0  0  0  0  0  0  0
  144.6260   74.5210  220.4680 C   0  0  0  0  0  0  0  0  0  0  0  0
  143.3600   74.0540  220.7610 C   0  0  0  0  0  0  0  0  0  0  0  0
  142.3710   74.9070  221.1110 N   0  0  0  0  0  0  0  0  0  0  0  0
  141.2710   77.0410  222.0730 H   0  0  0  0  0  0  0  0  0  0  0  0
  138.5567   77.7268  221.5853 H   0  0  0  0  0  0  0  0  0  0  0  0
  138.5548   76.9528  223.2203 H   0  0  0  0  0  0  0  0  0  0  0  0
  141.8658   78.3407  224.5131 H   0  0  0  0  0  0  0  0  0  0  0  0
  142.7841   78.1945  223.0679 H   0  0  0  0  0  0  0  0  0  0  0  0
  141.9669   80.8671  224.5173 H   0  0  0  0  0  0  0  0  0  0  0  0
  143.6045   80.3457  224.3549 H   0  0  0  0  0  0  0  0  0  0  0  0
  142.5279   81.9353  222.4207 H   0  0  0  0  0  0  0  0  0  0  0  0
  143.5179   80.6071  221.8574 H   0  0  0  0  0  0  0  0  0  0  0  0
  140.5545   80.9213  221.6043 H   0  0  0  0  0  0  0  0  0  0  0  0
  140.2871   75.9457  218.6755 H   0  0  0  0  0  0  0  0  0  0  0  0
  140.7310   73.8112  217.5226 H   0  0  0  0  0  0  0  0  0  0  0  0
  142.9684   73.2985  216.5631 H   0  0  0  0  0  0  0  0  0  0  0  0
  144.7855   75.0069  216.7866 H   0  0  0  0  0  0  0  0  0  0  0  0
  144.3277   77.1361  217.9394 H   0  0  0  0  0  0  0  0  0  0  0  0
  142.5364   79.4662  217.4616 H   0  0  0  0  0  0  0  0  0  0  0  0
  139.9079   72.7382  221.5535 H   0  0  0  0  0  0  0  0  0  0  0  0
  141.6725   71.1273  220.9209 H   0  0  0  0  0  0  0  0  0  0  0  0
  143.9213   70.7235  220.2782 H   0  0  0  0  0  0  0  0  0  0  0  0
  146.6151   74.0182  219.8855 H   0  0  0  0  0  0  0  0  0  0  0  0
  144.8447   75.5980  220.5160 H   0  0  0  0  0  0  0  0  0  0  0  0
  1  2  2  0
  2  3  1  0
  3  4  1  0
  4  5  1  0
  5  6  2  0
  5  7  1  0
  7  8  1  0
  8  9  1  0
  9 10  1  0
 10 11  1  0
 11 12  1  0
 12 13  2  0
 13 14  1  0
 14 15  1  0
 15 16  2  0
 16 17  1  0
 17 18  2  0
 18 19  1  0
 19 20  2  0
 14 21  2  0
 21 22  1  0
  2 23  1  0
 23 24  2  0
 24 25  1  0
 25 26  2  0
 26 27  1  0
 27 28  2  0
 28 29  1  0
 28 30  1  0
 30 31  2  0
 31 32  1  0
 32 33  2  0
 11  7  1  0
 22 12  1  0
 33 23  1  0
 20 15  1  0
 32 26  1  0
  3 34  1  0
  4 35  1  0
  4 36  1  0
  8 37  1  0
  8 38  1  0
  9 39  1  0
  9 40  1  0
 10 41  1  0
 10 42  1  0
 11 43  1  6
 16 44  1  0
 17 45  1  0
 18 46  1  0
 19 47  1  0
 20 48  1  0
 21 49  1  0
 24 50  1  0
 25 51  1  0
 27 52  1  0
 30 53  1  0
 31 54  1  0
M  END
>  <smiles>  (37) 
O=C(NCC(=O)N1CCC[C@H]1c1nc(-c2ccccc2)co1)c1ccc2cc(F)ccc2n1

>  <score_type>  (37) 
oracle

>  <origin>  (37) 
autodockgpu

>  <m_score__min__energy>  (37) 
-9.1799999999999997

>  <m_primary>  (37) 
energy

>  <rmsd>  (37) 
6.736217179997864

>  <m_score__min__rmsd>  (37) 
6.736217179997864

>  <meeko>  (37) 
{"free_energy": -6.9, "intermolecular_energy": -8.69, "internal_energy": -4.18, "cluster_size": 20, "cluster_id": 5, "rank_in_cluster": 5}

>  <energy>  (37) 
-6.83

>  <cluster_rmsd>  (37) 
0.99

>  <cluster>  (37) 
5

$$$$

     RDKit          3D

 54 58  0  0  0  0  0  0  0  0999 V2000
  138.6130   70.3500  221.4200 O   0  0  0  0  0  0  0  0  0  0  0  0
  138.8150   71.1940  222.3430 C   0  0  0  0  0  0  0  0  0  0  0  0
  138.4870   72.5640  222.1100 N   0  0  0  0  0  0  0  0  0  0  0  0
  137.9360   72.8850  220.8040 C   0  0  0  0  0  0  0  0  0  0  0  0
  138.9110   72.6330  219.7410 C   0  0  0  0  0  0  0  0  0  0  0  0
  138.7010   71.9000  218.7340 O   0  0  0  0  0  0  0  0  0  0  0  0
  140.1930   73.2470  219.8260 N   0  0  0  0  0  0  0  0  0  0  0  0
  140.9800   73.7600  218.7050 C   0  0  0  0  0  0  0  0  0  0  0  0
  142.3100   73.0730  219.0470 C   0  0  0  0  0  0  0  0  0  0  0  0
  142.4520   73.5220  220.4950 C   0  0  0  0  0  0  0  0  0  0  0  0
  141.0060   73.5060  221.0000 C   0  0  1  0  0  0  0  0  0  0  0  0
  140.6900   74.8180  221.6190 C   0  0  0  0  0  0  0  0  0  0  0  0
  141.4560   75.9200  221.6160 N   0  0  0  0  0  0  0  0  0  0  0  0
  140.8240   76.9190  222.2850 C   0  0  0  0  0  0  0  0  0  0  0  0
  141.2960   78.2790  222.5210 C   0  0  0  0  0  0  0  0  0  0  0  0
  141.7940   78.7060  223.7350 C   0  0  0  0  0  0  0  0  0  0  0  0
  142.2210   80.0120  223.8740 C   0  0  0  0  0  0  0  0  0  0  0  0
  142.1690   80.9210  222.8270 C   0  0  0  0  0  0  0  0  0  0  0  0
  141.6680   80.4820  221.6140 C   0  0  0  0  0  0  0  0  0  0  0  0
  141.2430   79.1760  221.4830 C   0  0  0  0  0  0  0  0  0  0  0  0
  139.6240   76.3510  222.6950 C   0  0  0  0  0  0  0  0  0  0  0  0
  139.5980   75.1020  222.2720 O   0  0  0  0  0  0  0  0  0  0  0  0
  139.3740   70.8010  223.6370 C   0  0  0  0  0  0  0  0  0  0  0  0
  140.1930   71.6940  224.2900 C   0  0  0  0  0  0  0  0  0  0  0  0
  140.7720   71.4270  225.5080 C   0  0  0  0  0  0  0  0  0  0  0  0
  140.5020   70.1970  226.0810 C   0  0  0  0  0  0  0  0  0  0  0  0
  141.0780   69.9080  227.3150 C   0  0  0  0  0  0  0  0  0  0  0  0
  140.8300   68.6930  227.9130 C   0  0  0  0  0  0  0  0  0  0  0  0
  141.3790   68.3860  229.1160 F   0  0  0  0  0  0  0  0  0  0  0  0
  140.0040   67.8140  227.2380 C   0  0  0  0  0  0  0  0  0  0  0  0
  139.4340   68.1000  226.0170 C   0  0  0  0  0  0  0  0  0  0  0  0
  139.6850   69.3200  225.4190 C   0  0  0  0  0  0  0  0  0  0  0  0
  139.1390   69.6290  224.2210 N   0  0  0  0  0  0  0  0  0  0  0  0
  138.6530   73.2460  222.8620 H   0  0  0  0  0  0  0  0  0  0  0  0
  137.0451   72.2643  220.6281 H   0  0  0  0  0  0  0  0  0  0  0  0
  137.6737   73.9532  220.7898 H   0  0  0  0  0  0  0  0  0  0  0  0
  140.5811   73.4354  217.7326 H   0  0  0  0  0  0  0  0  0  0  0  0
  141.0146   74.8544  218.5997 H   0  0  0  0  0  0  0  0  0  0  0  0
  142.2419   71.9785  218.9604 H   0  0  0  0  0  0  0  0  0  0  0  0
  143.1544   73.3286  218.3900 H   0  0  0  0  0  0  0  0  0  0  0  0
  143.0790   72.8222  221.0669 H   0  0  0  0  0  0  0  0  0  0  0  0
  142.9388   74.5028  220.6005 H   0  0  0  0  0  0  0  0  0  0  0  0
  140.8235   72.7422  221.7702 H   0  0  0  0  0  0  0  0  0  0  0  0
  141.8505   78.0112  224.5859 H   0  0  0  0  0  0  0  0  0  0  0  0
  142.6151   80.3423  224.8464 H   0  0  0  0  0  0  0  0  0  0  0  0
  142.5149   81.9571  222.9569 H   0  0  0  0  0  0  0  0  0  0  0  0
  141.6089   81.1709  220.7585 H   0  0  0  0  0  0  0  0  0  0  0  0
  140.8477   78.8416  220.5125 H   0  0  0  0  0  0  0  0  0  0  0  0
  138.8341   76.8548  223.2714 H   0  0  0  0  0  0  0  0  0  0  0  0
  140.3934   72.6659  223.8155 H   0  0  0  0  0  0  0  0  0  0  0  0
  141.4228   72.1607  226.0062 H   0  0  0  0  0  0  0  0  0  0  0  0
  141.7272   70.6458  227.8091 H   0  0  0  0  0  0  0  0  0  0  0  0
  139.7913   66.8380  227.6986 H   0  0  0  0  0  0  0  0  0  0  0  0
  138.7843   67.3631  225.5221 H   0  0  0  0  0  0  0  0  0  0  0  0
  1  2  2  0
  2  3  1  0
  3  4  1  0
  4  5  1  0
  5  6  2  0
  5  7  1  0
  7  8  1  0
  8  9  1  0
  9 10  1  0
 10 11  1  0
 11 12  1  0
 12 13  2  0
 13 14  1  0
 14 15  1  0
 15 16  2  0
 16 17  1  0
 17 18  2  0
 18 19  1  0
 19 20  2  0
 14 21  2  0
 21 22  1  0
  2 23  1  0
 23 24  2  0
 24 25  1  0
 25 26  2  0
 26 27  1  0
 27 28  2  0
 28 29  1  0
 28 30  1  0
 30 31  2  0
 31 32  1  0
 32 33  2  0
 11  7  1  0
 22 12  1  0
 33 23  1  0
 20 15  1  0
 32 26  1  0
  3 34  1  0
  4 35  1  0
  4 36  1  0
  8 37  1  0
  8 38  1  0
  9 39  1  0
  9 40  1  0
 10 41  1  0
 10 42  1  0
 11 43  1  1
 16 44  1  0
 17 45  1  0
 18 46  1  0
 19 47  1  0
 20 48  1  0
 21 49  1  0
 24 50  1  0
 25 51  1  0
 27 52  1  0
 30 53  1  0
 31 54  1  0
M  END
>  <smiles>  (38) 
O=C(NCC(=O)N1CCC[C@H]1c1nc(-c2ccccc2)co1)c1ccc2cc(F)ccc2n1

>  <score_type>  (38) 
oracle

>  <origin>  (38) 
autodockgpu

>  <m_score__min__energy>  (38) 
-9.1799999999999997

>  <m_primary>  (38) 
energy

>  <rmsd>  (38) 
3.35039782347152

>  <m_score__min__rmsd>  (38) 
3.35039782347152

>  <meeko>  (38) 
{"free_energy": -8.92, "intermolecular_energy": -10.71, "internal_energy": -2.52, "cluster_size": 12, "cluster_id": 3, "rank_in_cluster": 3}

>  <energy>  (38) 
-6.83

>  <cluster_rmsd>  (38) 
0.97

>  <cluster>  (38) 
5

$$$$

     RDKit          3D

 54 58  0  0  0  0  0  0  0  0999 V2000
  139.7230   74.8940  222.2900 O   0  0  0  0  0  0  0  0  0  0  0  0
  140.8390   75.2340  221.7960 C   0  0  0  0  0  0  0  0  0  0  0  0
  141.2010   76.6150  221.7920 N   0  0  0  0  0  0  0  0  0  0  0  0
  140.2390   77.5390  222.3700 C   0  0  0  0  0  0  0  0  0  0  0  0
  140.9080   78.7010  222.9570 C   0  0  0  0  0  0  0  0  0  0  0  0
  141.1200   78.8590  224.1930 O   0  0  0  0  0  0  0  0  0  0  0  0
  141.3610   79.7410  222.0960 N   0  0  0  0  0  0  0  0  0  0  0  0
  142.4140   80.7100  222.3930 C   0  0  0  0  0  0  0  0  0  0  0  0
  141.6490   81.9830  222.0020 C   0  0  0  0  0  0  0  0  0  0  0  0
  141.2010   81.5780  220.6040 C   0  0  0  0  0  0  0  0  0  0  0  0
  140.9070   80.0830  220.7600 C   0  0  1  0  0  0  0  0  0  0  0  0
  141.6410   79.3290  219.7120 C   0  0  0  0  0  0  0  0  0  0  0  0
  141.6560   77.9980  219.5320 N   0  0  0  0  0  0  0  0  0  0  0  0
  142.4420   77.6890  218.4680 C   0  0  0  0  0  0  0  0  0  0  0  0
  142.7360   76.3670  217.9250 C   0  0  0  0  0  0  0  0  0  0  0  0
  143.9150   76.0620  217.2780 C   0  0  0  0  0  0  0  0  0  0  0  0
  144.1150   74.7840  216.7940 C   0  0  0  0  0  0  0  0  0  0  0  0
  143.1630   73.7850  216.9340 C   0  0  0  0  0  0  0  0  0  0  0  0
  141.9830   74.1020  217.5840 C   0  0  0  0  0  0  0  0  0  0  0  0
  141.7920   75.3810  218.0660 C   0  0  0  0  0  0  0  0  0  0  0  0
  142.9030   78.9190  218.0140 C   0  0  0  0  0  0  0  0  0  0  0  0
  142.3960   79.8570  218.7900 O   0  0  0  0  0  0  0  0  0  0  0  0
  141.7620   74.2500  221.2300 C   0  0  0  0  0  0  0  0  0  0  0  0
  141.2880   72.9820  220.9770 C   0  0  0  0  0  0  0  0  0  0  0  0
  142.0680   71.9820  220.4480 C   0  0  0  0  0  0  0  0  0  0  0  0
  143.3860   72.2910  220.1650 C   0  0  0  0  0  0  0  0  0  0  0  0
  144.1930   71.2920  219.6280 C   0  0  0  0  0  0  0  0  0  0  0  0
  145.5100   71.5650  219.3350 C   0  0  0  0  0  0  0  0  0  0  0  0
  146.3180   70.6080  218.8100 F   0  0  0  0  0  0  0  0  0  0  0  0
  145.9620   72.8440  219.5960 C   0  0  0  0  0  0  0  0  0  0  0  0
  145.1640   73.8340  220.1280 C   0  0  0  0  0  0  0  0  0  0  0  0
  143.8430   73.5560  220.4220 C   0  0  0  0  0  0  0  0  0  0  0  0
  143.0360   74.5070  220.9440 N   0  0  0  0  0  0  0  0  0  0  0  0
  142.1080   76.8870  221.3890 H   0  0  0  0  0  0  0  0  0  0  0  0
  139.5517   77.8808  221.5821 H   0  0  0  0  0  0  0  0  0  0  0  0
  139.6879   77.0158  223.1653 H   0  0  0  0  0  0  0  0  0  0  0  0
  142.6979   80.7043  223.4557 H   0  0  0  0  0  0  0  0  0  0  0  0
  143.3758   80.5491  221.8840 H   0  0  0  0  0  0  0  0  0  0  0  0
  140.7952   82.1715  222.6694 H   0  0  0  0  0  0  0  0  0  0  0  0
  142.2276   82.9168  222.0593 H   0  0  0  0  0  0  0  0  0  0  0  0
  140.2985   82.1296  220.3021 H   0  0  0  0  0  0  0  0  0  0  0  0
  141.9492   81.7954  219.8275 H   0  0  0  0  0  0  0  0  0  0  0  0
  139.8421   79.8348  220.6399 H   0  0  0  0  0  0  0  0  0  0  0  0
  144.6906   76.8311  217.1483 H   0  0  0  0  0  0  0  0  0  0  0  0
  145.0597   74.5509  216.2810 H   0  0  0  0  0  0  0  0  0  0  0  0
  143.3402   72.7730  216.5409 H   0  0  0  0  0  0  0  0  0  0  0  0
  141.2018   73.3389  217.7157 H   0  0  0  0  0  0  0  0  0  0  0  0
  140.8497   75.6185  218.5814 H   0  0  0  0  0  0  0  0  0  0  0  0
  143.5735   79.0816  217.1573 H   0  0  0  0  0  0  0  0  0  0  0  0
  140.2361   72.7593  221.2092 H   0  0  0  0  0  0  0  0  0  0  0  0
  141.6612   70.9779  220.2576 H   0  0  0  0  0  0  0  0  0  0  0  0
  143.7806   70.2899  219.4388 H   0  0  0  0  0  0  0  0  0  0  0  0
  147.0109   73.0844  219.3679 H   0  0  0  0  0  0  0  0  0  0  0  0
  145.5753   74.8366  220.3168 H   0  0  0  0  0  0  0  0  0  0  0  0
  1  2  2  0
  2  3  1  0
  3  4  1  0
  4  5  1  0
  5  6  2  0
  5  7  1  0
  7  8  1  0
  8  9  1  0
  9 10  1  0
 10 11  1  0
 11 12  1  0
 12 13  2  0
 13 14  1  0
 14 15  1  0
 15 16  2  0
 16 17  1  0
 17 18  2  0
 18 19  1  0
 19 20  2  0
 14 21  2  0
 21 22  1  0
  2 23  1  0
 23 24  2  0
 24 25  1  0
 25 26  2  0
 26 27  1  0
 27 28  2  0
 28 29  1  0
 28 30  1  0
 30 31  2  0
 31 32  1  0
 32 33  2  0
 11  7  1  0
 22 12  1  0
 33 23  1  0
 20 15  1  0
 32 26  1  0
  3 34  1  0
  4 35  1  0
  4 36  1  0
  8 37  1  0
  8 38  1  0
  9 39  1  0
  9 40  1  0
 10 41  1  0
 10 42  1  0
 11 43  1  1
 16 44  1  0
 17 45  1  0
 18 46  1  0
 19 47  1  0
 20 48  1  0
 21 49  1  0
 24 50  1  0
 25 51  1  0
 27 52  1  0
 30 53  1  0
 31 54  1  0
M  END
>  <smiles>  (39) 
O=C(NCC(=O)N1CCC[C@H]1c1nc(-c2ccccc2)co1)c1ccc2cc(F)ccc2n1

>  <score_type>  (39) 
oracle

>  <origin>  (39) 
autodockgpu

>  <m_score__min__energy>  (39) 
-9.1799999999999997

>  <m_primary>  (39) 
energy

>  <rmsd>  (39) 
7.081090782276918

>  <m_score__min__rmsd>  (39) 
7.081090782276918

>  <meeko>  (39) 
{"free_energy": -6.82, "intermolecular_energy": -8.61, "internal_energy": -3.94, "cluster_size": 20, "cluster_id": 5, "rank_in_cluster": 15}

>  <energy>  (39) 
-6.82

>  <cluster_rmsd>  (39) 
0.1

>  <cluster>  (39) 
5

$$$$

     RDKit          3D

 54 58  0  0  0  0  0  0  0  0999 V2000
  138.3780   70.5240  221.1460 O   0  0  0  0  0  0  0  0  0  0  0  0
  138.5570   71.3230  222.1130 C   0  0  0  0  0  0  0  0  0  0  0  0
  138.2800   72.7110  221.9230 N   0  0  0  0  0  0  0  0  0  0  0  0
  137.8030   73.1020  220.6070 C   0  0  0  0  0  0  0  0  0  0  0  0
  138.8360   72.9010  219.5880 C   0  0  0  0  0  0  0  0  0  0  0  0
  138.6400   72.3510  218.4670 O   0  0  0  0  0  0  0  0  0  0  0  0
  140.1610   73.3480  219.8560 N   0  0  0  0  0  0  0  0  0  0  0  0
  141.1540   73.7470  218.8600 C   0  0  0  0  0  0  0  0  0  0  0  0
  142.3260   72.9000  219.3770 C   0  0  0  0  0  0  0  0  0  0  0  0
  142.3220   73.3400  220.8350 C   0  0  0  0  0  0  0  0  0  0  0  0
  140.8290   73.5110  221.1340 C   0  0  1  0  0  0  0  0  0  0  0  0
  140.5980   74.8580  221.7150 C   0  0  0  0  0  0  0  0  0  0  0  0
  141.4510   75.8960  221.7170 N   0  0  0  0  0  0  0  0  0  0  0  0
  140.8780   76.9570  222.3440 C   0  0  0  0  0  0  0  0  0  0  0  0
  141.4510   78.2800  222.5690 C   0  0  0  0  0  0  0  0  0  0  0  0
  141.7820   78.7560  223.8210 C   0  0  0  0  0  0  0  0  0  0  0  0
  142.3200   80.0210  223.9480 C   0  0  0  0  0  0  0  0  0  0  0  0
  142.5430   80.8410  222.8510 C   0  0  0  0  0  0  0  0  0  0  0  0
  142.2070   80.3540  221.6000 C   0  0  0  0  0  0  0  0  0  0  0  0
  141.6700   79.0880  221.4820 C   0  0  0  0  0  0  0  0  0  0  0  0
  139.6230   76.4960  222.7220 C   0  0  0  0  0  0  0  0  0  0  0  0
  139.5110   75.2440  222.3230 O   0  0  0  0  0  0  0  0  0  0  0  0
  139.0400   70.8600  223.4140 C   0  0  0  0  0  0  0  0  0  0  0  0
  138.6860   69.5960  223.8280 C   0  0  0  0  0  0  0  0  0  0  0  0
  139.0840   69.0630  225.0310 C   0  0  0  0  0  0  0  0  0  0  0  0
  139.8760   69.8550  225.8430 C   0  0  0  0  0  0  0  0  0  0  0  0
  140.2900   69.3330  227.0650 C   0  0  0  0  0  0  0  0  0  0  0  0
  141.0790   70.0940  227.8980 C   0  0  0  0  0  0  0  0  0  0  0  0
  141.4960   69.6090  229.0950 F   0  0  0  0  0  0  0  0  0  0  0  0
  141.4220   71.3600  227.4600 C   0  0  0  0  0  0  0  0  0  0  0  0
  141.0120   71.8770  226.2500 C   0  0  0  0  0  0  0  0  0  0  0  0
  140.2200   71.1100  225.4170 C   0  0  0  0  0  0  0  0  0  0  0  0
  139.8030   71.5910  224.2240 N   0  0  0  0  0  0  0  0  0  0  0  0
  138.4280   73.3560  222.7110 H   0  0  0  0  0  0  0  0  0  0  0  0
  136.9223   72.4953  220.3497 H   0  0  0  0  0  0  0  0  0  0  0  0
  137.5434   74.1706  220.6338 H   0  0  0  0  0  0  0  0  0  0  0  0
  140.8559   73.4670  217.8388 H   0  0  0  0  0  0  0  0  0  0  0  0
  141.3412   74.8272  218.7703 H   0  0  0  0  0  0  0  0  0  0  0  0
  142.1324   71.8223  219.2720 H   0  0  0  0  0  0  0  0  0  0  0  0
  143.2788   73.0409  218.8456 H   0  0  0  0  0  0  0  0  0  0  0  0
  142.7702   72.5715  221.4820 H   0  0  0  0  0  0  0  0  0  0  0  0
  142.9096   74.2520  221.0162 H   0  0  0  0  0  0  0  0  0  0  0  0
  140.4466   72.7825  221.8641 H   0  0  0  0  0  0  0  0  0  0  0  0
  141.6183   78.1318  224.7119 H   0  0  0  0  0  0  0  0  0  0  0  0
  142.5802   80.3907  224.9508 H   0  0  0  0  0  0  0  0  0  0  0  0
  142.9732   81.8462  222.9719 H   0  0  0  0  0  0  0  0  0  0  0  0
  142.3670   80.9725  220.7045 H   0  0  0  0  0  0  0  0  0  0  0  0
  141.4084   78.7137  220.4813 H   0  0  0  0  0  0  0  0  0  0  0  0
  138.8571   77.0740  223.2598 H   0  0  0  0  0  0  0  0  0  0  0  0
  138.0557   68.9842  223.1658 H   0  0  0  0  0  0  0  0  0  0  0  0
  138.7852   68.0490  225.3353 H   0  0  0  0  0  0  0  0  0  0  0  0
  139.9885   68.3181  227.3636 H   0  0  0  0  0  0  0  0  0  0  0  0
  142.0529   71.9850  228.1091 H   0  0  0  0  0  0  0  0  0  0  0  0
  141.3127   72.8917  225.9499 H   0  0  0  0  0  0  0  0  0  0  0  0
  1  2  2  0
  2  3  1  0
  3  4  1  0
  4  5  1  0
  5  6  2  0
  5  7  1  0
  7  8  1  0
  8  9  1  0
  9 10  1  0
 10 11  1  0
 11 12  1  0
 12 13  2  0
 13 14  1  0
 14 15  1  0
 15 16  2  0
 16 17  1  0
 17 18  2  0
 18 19  1  0
 19 20  2  0
 14 21  2  0
 21 22  1  0
  2 23  1  0
 23 24  2  0
 24 25  1  0
 25 26  2  0
 26 27  1  0
 27 28  2  0
 28 29  1  0
 28 30  1  0
 30 31  2  0
 31 32  1  0
 32 33  2  0
 11  7  1  0
 22 12  1  0
 33 23  1  0
 20 15  1  0
 32 26  1  0
  3 34  1  0
  4 35  1  0
  4 36  1  0
  8 37  1  0
  8 38  1  0
  9 39  1  0
  9 40  1  0
 10 41  1  0
 10 42  1  0
 11 43  1  1
 16 44  1  0
 17 45  1  0
 18 46  1  0
 19 47  1  0
 20 48  1  0
 21 49  1  0
 24 50  1  0
 25 51  1  0
 27 52  1  0
 30 53  1  0
 31 54  1  0
M  END
>  <smiles>  (40) 
O=C(NCC(=O)N1CCC[C@H]1c1nc(-c2ccccc2)co1)c1ccc2cc(F)ccc2n1

>  <score_type>  (40) 
oracle

>  <origin>  (40) 
autodockgpu

>  <m_score__min__energy>  (40) 
-9.1799999999999997

>  <m_primary>  (40) 
energy

>  <rmsd>  (40) 
2.9341690879558877

>  <m_score__min__rmsd>  (40) 
2.9341690879558877

>  <meeko>  (40) 
{"free_energy": -8.5, "intermolecular_energy": -10.29, "internal_energy": -2.65, "cluster_size": 12, "cluster_id": 3, "rank_in_cluster": 11}

>  <energy>  (40) 
-6.79

>  <cluster_rmsd>  (40) 
0.98

>  <cluster>  (40) 
5

$$$$

     RDKit          3D

 54 58  0  0  0  0  0  0  0  0999 V2000
  141.3290   72.8620  221.7240 O   0  0  0  0  0  0  0  0  0  0  0  0
  140.3200   72.7810  222.4850 C   0  0  0  0  0  0  0  0  0  0  0  0
  139.2660   73.7340  222.3380 N   0  0  0  0  0  0  0  0  0  0  0  0
  139.4410   74.7390  221.3030 C   0  0  0  0  0  0  0  0  0  0  0  0
  139.1130   76.0760  221.8030 C   0  0  0  0  0  0  0  0  0  0  0  0
  138.0420   76.3750  222.4040 O   0  0  0  0  0  0  0  0  0  0  0  0
  140.0510   77.1300  221.6110 N   0  0  0  0  0  0  0  0  0  0  0  0
  140.7460   77.8690  222.6640 C   0  0  0  0  0  0  0  0  0  0  0  0
  140.4470   79.2890  222.1600 C   0  0  0  0  0  0  0  0  0  0  0  0
  140.9320   79.1460  220.7240 C   0  0  0  0  0  0  0  0  0  0  0  0
  140.5310   77.7100  220.3700 C   0  0  1  0  0  0  0  0  0  0  0  0
  141.7150   76.9890  219.8390 C   0  0  0  0  0  0  0  0  0  0  0  0
  142.2790   75.8780  220.3410 N   0  0  0  0  0  0  0  0  0  0  0  0
  143.3440   75.5210  219.5760 C   0  0  0  0  0  0  0  0  0  0  0  0
  144.2370   74.3820  219.7610 C   0  0  0  0  0  0  0  0  0  0  0  0
  144.1810   73.2440  218.9820 C   0  0  0  0  0  0  0  0  0  0  0  0
  145.0650   72.2110  219.2230 C   0  0  0  0  0  0  0  0  0  0  0  0
  146.0170   72.2730  220.2300 C   0  0  0  0  0  0  0  0  0  0  0  0
  146.0630   73.4180  221.0060 C   0  0  0  0  0  0  0  0  0  0  0  0
  145.1770   74.4470  220.7590 C   0  0  0  0  0  0  0  0  0  0  0  0
  143.3890   76.4860  218.5780 C   0  0  0  0  0  0  0  0  0  0  0  0
  142.3990   77.3320  218.7830 O   0  0  0  0  0  0  0  0  0  0  0  0
  140.2090   71.7420  223.5080 C   0  0  0  0  0  0  0  0  0  0  0  0
  139.6060   70.5520  223.1650 C   0  0  0  0  0  0  0  0  0  0  0  0
  139.4490   69.5100  224.0480 C   0  0  0  0  0  0  0  0  0  0  0  0
  139.9270   69.6920  225.3330 C   0  0  0  0  0  0  0  0  0  0  0  0
  139.7780   68.6480  226.2420 C   0  0  0  0  0  0  0  0  0  0  0  0
  140.2430   68.7950  227.5290 C   0  0  0  0  0  0  0  0  0  0  0  0
  140.1100   67.7930  228.4350 F   0  0  0  0  0  0  0  0  0  0  0  0
  140.8450   69.9980  227.8490 C   0  0  0  0  0  0  0  0  0  0  0  0
  140.9930   71.0310  226.9500 C   0  0  0  0  0  0  0  0  0  0  0  0
  140.5240   70.8800  225.6590 C   0  0  0  0  0  0  0  0  0  0  0  0
  140.6560   71.8770  224.7540 N   0  0  0  0  0  0  0  0  0  0  0  0
  138.4490   73.6650  222.9590 H   0  0  0  0  0  0  0  0  0  0  0  0
  140.4881   74.7287  220.9660 H   0  0  0  0  0  0  0  0  0  0  0  0
  138.7633   74.5026  220.4694 H   0  0  0  0  0  0  0  0  0  0  0  0
  140.3160   77.6806  223.6588 H   0  0  0  0  0  0  0  0  0  0  0  0
  141.8080   77.6210  222.8080 H   0  0  0  0  0  0  0  0  0  0  0  0
  139.3740   79.5260  222.2102 H   0  0  0  0  0  0  0  0  0  0  0  0
  140.9146   80.1011  222.7361 H   0  0  0  0  0  0  0  0  0  0  0  0
  140.4332   79.8706  220.0636 H   0  0  0  0  0  0  0  0  0  0  0  0
  142.0088   79.3381  220.6075 H   0  0  0  0  0  0  0  0  0  0  0  0
  139.7540   77.6547  219.5933 H   0  0  0  0  0  0  0  0  0  0  0  0
  143.4378   73.1606  218.1753 H   0  0  0  0  0  0  0  0  0  0  0  0
  145.0126   71.3090  218.5956 H   0  0  0  0  0  0  0  0  0  0  0  0
  146.7127   71.4393  220.4060 H   0  0  0  0  0  0  0  0  0  0  0  0
  146.8021   73.5075  221.8157 H   0  0  0  0  0  0  0  0  0  0  0  0
  145.2259   75.3509  221.3839 H   0  0  0  0  0  0  0  0  0  0  0  0
  144.1224   76.5356  217.7597 H   0  0  0  0  0  0  0  0  0  0  0  0
  139.2330   70.4298  222.1374 H   0  0  0  0  0  0  0  0  0  0  0  0
  138.9634   68.5706  223.7451 H   0  0  0  0  0  0  0  0  0  0  0  0
  139.2914   67.7110  225.9333 H   0  0  0  0  0  0  0  0  0  0  0  0
  141.2245   70.1369  228.8721 H   0  0  0  0  0  0  0  0  0  0  0  0
  141.4803   71.9681  227.2571 H   0  0  0  0  0  0  0  0  0  0  0  0
  1  2  2  0
  2  3  1  0
  3  4  1  0
  4  5  1  0
  5  6  2  0
  5  7  1  0
  7  8  1  0
  8  9  1  0
  9 10  1  0
 10 11  1  0
 11 12  1  0
 12 13  2  0
 13 14  1  0
 14 15  1  0
 15 16  2  0
 16 17  1  0
 17 18  2  0
 18 19  1  0
 19 20  2  0
 14 21  2  0
 21 22  1  0
  2 23  1  0
 23 24  2  0
 24 25  1  0
 25 26  2  0
 26 27  1  0
 27 28  2  0
 28 29  1  0
 28 30  1  0
 30 31  2  0
 31 32  1  0
 32 33  2  0
 11  7  1  0
 22 12  1  0
 33 23  1  0
 20 15  1  0
 32 26  1  0
  3 34  1  0
  4 35  1  0
  4 36  1  0
  8 37  1  0
  8 38  1  0
  9 39  1  0
  9 40  1  0
 10 41  1  0
 10 42  1  0
 11 43  1  6
 16 44  1  0
 17 45  1  0
 18 46  1  0
 19 47  1  0
 20 48  1  0
 21 49  1  0
 24 50  1  0
 25 51  1  0
 27 52  1  0
 30 53  1  0
 31 54  1  0
M  END
>  <smiles>  (41) 
O=C(NCC(=O)N1CCC[C@H]1c1nc(-c2ccccc2)co1)c1ccc2cc(F)ccc2n1

>  <score_type>  (41) 
oracle

>  <origin>  (41) 
autodockgpu

>  <m_score__min__energy>  (41) 
-9.1799999999999997

>  <m_primary>  (41) 
energy

>  <rmsd>  (41) 
5.33013768595087

>  <m_score__min__rmsd>  (41) 
5.33013768595087

>  <meeko>  (41) 
{"free_energy": -9.08, "intermolecular_energy": -10.87, "internal_energy": -1.92, "cluster_size": 5, "cluster_id": 1, "rank_in_cluster": 3}

>  <energy>  (41) 
-6.78

>  <cluster_rmsd>  (41) 
1.0

>  <cluster>  (41) 
5

$$$$

     RDKit          3D

 54 58  0  0  0  0  0  0  0  0999 V2000
  137.6200   70.0520  221.7390 O   0  0  0  0  0  0  0  0  0  0  0  0
  137.8430   70.7270  222.7880 C   0  0  0  0  0  0  0  0  0  0  0  0
  137.4080   72.0860  222.8390 N   0  0  0  0  0  0  0  0  0  0  0  0
  136.7290   72.5950  221.6590 C   0  0  0  0  0  0  0  0  0  0  0  0
  137.6880   72.9930  220.6270 C   0  0  0  0  0  0  0  0  0  0  0  0
  137.3730   73.4900  219.5080 O   0  0  0  0  0  0  0  0  0  0  0  0
  139.0790   72.8170  220.8760 N   0  0  0  0  0  0  0  0  0  0  0  0
  140.0000   72.0010  220.0880 C   0  0  0  0  0  0  0  0  0  0  0  0
  140.6380   71.2220  221.2480 C   0  0  0  0  0  0  0  0  0  0  0  0
  141.0440   72.3920  222.1340 C   0  0  0  0  0  0  0  0  0  0  0  0
  139.8950   73.3850  221.9330 C   0  0  1  0  0  0  0  0  0  0  0  0
  140.4540   74.7090  221.5570 C   0  0  0  0  0  0  0  0  0  0  0  0
  140.5800   75.7880  222.3460 N   0  0  0  0  0  0  0  0  0  0  0  0
  141.1360   76.8070  221.6410 C   0  0  0  0  0  0  0  0  0  0  0  0
  141.4490   78.1530  222.1080 C   0  0  0  0  0  0  0  0  0  0  0  0
  141.5600   78.4830  223.4430 C   0  0  0  0  0  0  0  0  0  0  0  0
  141.8600   79.7820  223.8010 C   0  0  0  0  0  0  0  0  0  0  0  0
  142.0560   80.7810  222.8570 C   0  0  0  0  0  0  0  0  0  0  0  0
  141.9430   80.4400  221.5210 C   0  0  0  0  0  0  0  0  0  0  0  0
  141.6430   79.1390  221.1720 C   0  0  0  0  0  0  0  0  0  0  0  0
  141.3380   76.2770  220.3730 C   0  0  0  0  0  0  0  0  0  0  0  0
  140.9150   75.0280  220.3810 O   0  0  0  0  0  0  0  0  0  0  0  0
  138.5340   70.1520  223.9420 C   0  0  0  0  0  0  0  0  0  0  0  0
  138.5380   68.7820  224.0820 C   0  0  0  0  0  0  0  0  0  0  0  0
  139.1560   68.1380  225.1270 C   0  0  0  0  0  0  0  0  0  0  0  0
  139.7940   68.9270  226.0680 C   0  0  0  0  0  0  0  0  0  0  0  0
  140.4260   68.2930  227.1340 C   0  0  0  0  0  0  0  0  0  0  0  0
  141.0710   69.0470  228.0880 C   0  0  0  0  0  0  0  0  0  0  0  0
  141.6950   68.4550  229.1380 F   0  0  0  0  0  0  0  0  0  0  0  0
  141.0540   70.4200  227.9250 C   0  0  0  0  0  0  0  0  0  0  0  0
  140.4280   71.0470  226.8700 C   0  0  0  0  0  0  0  0  0  0  0  0
  139.7810   70.2870  225.9150 C   0  0  0  0  0  0  0  0  0  0  0  0
  139.1590   70.8750  224.8670 N   0  0  0  0  0  0  0  0  0  0  0  0
  137.5920   72.6310  223.6920 H   0  0  0  0  0  0  0  0  0  0  0  0
  136.0731   71.8095  221.2556 H   0  0  0  0  0  0  0  0  0  0  0  0
  136.1422   73.4791  221.9489 H   0  0  0  0  0  0  0  0  0  0  0  0
  139.4735   71.3414  219.3824 H   0  0  0  0  0  0  0  0  0  0  0  0
  140.6941   72.5497  219.4344 H   0  0  0  0  0  0  0  0  0  0  0  0
  139.9144   70.5602  221.7464 H   0  0  0  0  0  0  0  0  0  0  0  0
  141.4538   70.5405  220.9651 H   0  0  0  0  0  0  0  0  0  0  0  0
  141.1213   72.0834  223.1870 H   0  0  0  0  0  0  0  0  0  0  0  0
  142.0295   72.8092  221.8797 H   0  0  0  0  0  0  0  0  0  0  0  0
  139.2933   73.5433  222.8401 H   0  0  0  0  0  0  0  0  0  0  0  0
  141.4104   77.7160  224.2171 H   0  0  0  0  0  0  0  0  0  0  0  0
  141.9465   80.0337  224.8683 H   0  0  0  0  0  0  0  0  0  0  0  0
  142.2936   81.8109  223.1617 H   0  0  0  0  0  0  0  0  0  0  0  0
  142.0914   81.2016  220.7413 H   0  0  0  0  0  0  0  0  0  0  0  0
  141.5562   78.8826  220.1058 H   0  0  0  0  0  0  0  0  0  0  0  0
  141.7743   76.8063  219.5131 H   0  0  0  0  0  0  0  0  0  0  0  0
  138.0229   68.1754  223.3226 H   0  0  0  0  0  0  0  0  0  0  0  0
  139.1440   67.0413  225.2119 H   0  0  0  0  0  0  0  0  0  0  0  0
  140.4100   67.1960  227.2135 H   0  0  0  0  0  0  0  0  0  0  0  0
  141.5653   71.0421  228.6744 H   0  0  0  0  0  0  0  0  0  0  0  0
  140.4432   72.1439  226.7888 H   0  0  0  0  0  0  0  0  0  0  0  0
  1  2  2  0
  2  3  1  0
  3  4  1  0
  4  5  1  0
  5  6  2  0
  5  7  1  0
  7  8  1  0
  8  9  1  0
  9 10  1  0
 10 11  1  0
 11 12  1  0
 12 13  2  0
 13 14  1  0
 14 15  1  0
 15 16  2  0
 16 17  1  0
 17 18  2  0
 18 19  1  0
 19 20  2  0
 14 21  2  0
 21 22  1  0
  2 23  1  0
 23 24  2  0
 24 25  1  0
 25 26  2  0
 26 27  1  0
 27 28  2  0
 28 29  1  0
 28 30  1  0
 30 31  2  0
 31 32  1  0
 32 33  2  0
 11  7  1  0
 22 12  1  0
 33 23  1  0
 20 15  1  0
 32 26  1  0
  3 34  1  0
  4 35  1  0
  4 36  1  0
  8 37  1  0
  8 38  1  0
  9 39  1  0
  9 40  1  0
 10 41  1  0
 10 42  1  0
 11 43  1  1
 16 44  1  0
 17 45  1  0
 18 46  1  0
 19 47  1  0
 20 48  1  0
 21 49  1  0
 24 50  1  0
 25 51  1  0
 27 52  1  0
 30 53  1  0
 31 54  1  0
M  END
>  <smiles>  (42) 
O=C(NCC(=O)N1CCC[C@H]1c1nc(-c2ccccc2)co1)c1ccc2cc(F)ccc2n1

>  <score_type>  (42) 
oracle

>  <origin>  (42) 
autodockgpu

>  <m_score__min__energy>  (42) 
-9.1799999999999997

>  <m_primary>  (42) 
energy

>  <rmsd>  (42) 
3.32822041553539

>  <m_score__min__rmsd>  (42) 
3.32822041553539

>  <meeko>  (42) 
{"free_energy": -8.55, "intermolecular_energy": -10.34, "internal_energy": -2.25, "cluster_size": 12, "cluster_id": 3, "rank_in_cluster": 9}

>  <energy>  (42) 
-6.77

>  <cluster_rmsd>  (42) 
0.99

>  <cluster>  (42) 
5

$$$$

     RDKit          3D

 54 58  0  0  0  0  0  0  0  0999 V2000
  138.8770   74.8130  222.3300 O   0  0  0  0  0  0  0  0  0  0  0  0
  139.9920   75.2910  221.9630 C   0  0  0  0  0  0  0  0  0  0  0  0
  140.1660   76.7080  221.9520 N   0  0  0  0  0  0  0  0  0  0  0  0
  139.0250   77.5050  222.3730 C   0  0  0  0  0  0  0  0  0  0  0  0
  139.4550   78.7680  222.9750 C   0  0  0  0  0  0  0  0  0  0  0  0
  138.7150   79.5190  223.6720 O   0  0  0  0  0  0  0  0  0  0  0  0
  140.7970   79.2030  222.7770 N   0  0  0  0  0  0  0  0  0  0  0  0
  141.9610   78.7910  223.5580 C   0  0  0  0  0  0  0  0  0  0  0  0
  142.5300   80.1890  223.8440 C   0  0  0  0  0  0  0  0  0  0  0  0
  142.5770   80.7290  222.4210 C   0  0  0  0  0  0  0  0  0  0  0  0
  141.3200   80.1260  221.7860 C   0  0  1  0  0  0  0  0  0  0  0  0
  141.6930   79.4380  220.5240 C   0  0  0  0  0  0  0  0  0  0  0  0
  141.7870   78.1140  220.3210 N   0  0  0  0  0  0  0  0  0  0  0  0
  142.1530   77.8730  219.0350 C   0  0  0  0  0  0  0  0  0  0  0  0
  142.3700   76.5820  218.3920 C   0  0  0  0  0  0  0  0  0  0  0  0
  141.4140   75.5870  218.3540 C   0  0  0  0  0  0  0  0  0  0  0  0
  141.7000   74.3920  217.7230 C   0  0  0  0  0  0  0  0  0  0  0  0
  142.9260   74.1510  217.1210 C   0  0  0  0  0  0  0  0  0  0  0  0
  143.8780   75.1540  217.1660 C   0  0  0  0  0  0  0  0  0  0  0  0
  143.5840   76.3460  217.7980 C   0  0  0  0  0  0  0  0  0  0  0  0
  142.2750   79.1370  218.4710 C   0  0  0  0  0  0  0  0  0  0  0  0
  141.9900   80.0280  219.4010 O   0  0  0  0  0  0  0  0  0  0  0  0
  141.1000   74.4290  221.5510 C   0  0  0  0  0  0  0  0  0  0  0  0
  140.8900   73.0690  221.5190 C   0  0  0  0  0  0  0  0  0  0  0  0
  141.8620   72.1700  221.1490 C   0  0  0  0  0  0  0  0  0  0  0  0
  143.0970   72.6830  220.7960 C   0  0  0  0  0  0  0  0  0  0  0  0
  144.0940   71.7880  220.4170 C   0  0  0  0  0  0  0  0  0  0  0  0
  145.3350   72.2640  220.0600 C   0  0  0  0  0  0  0  0  0  0  0  0
  146.3250   71.4140  219.6870 F   0  0  0  0  0  0  0  0  0  0  0  0
  145.5210   73.6340  220.0990 C   0  0  0  0  0  0  0  0  0  0  0  0
  144.5350   74.5190  220.4740 C   0  0  0  0  0  0  0  0  0  0  0  0
  143.2900   74.0380  220.8320 C   0  0  0  0  0  0  0  0  0  0  0  0
  142.3020   74.8830  221.2040 N   0  0  0  0  0  0  0  0  0  0  0  0
  141.0730   77.0910  221.6530 H   0  0  0  0  0  0  0  0  0  0  0  0
  138.3954   77.7209  221.4972 H   0  0  0  0  0  0  0  0  0  0  0  0
  138.4604   76.9348  223.1254 H   0  0  0  0  0  0  0  0  0  0  0  0
  141.6785   78.2595  224.4787 H   0  0  0  0  0  0  0  0  0  0  0  0
  142.6448   78.0816  223.0690 H   0  0  0  0  0  0  0  0  0  0  0  0
  141.8625   80.7813  224.4871 H   0  0  0  0  0  0  0  0  0  0  0  0
  143.4870   80.2061  224.3861 H   0  0  0  0  0  0  0  0  0  0  0  0
  142.5363   81.8282  222.4130 H   0  0  0  0  0  0  0  0  0  0  0  0
  143.5024   80.4675  221.8869 H   0  0  0  0  0  0  0  0  0  0  0  0
  140.5617   80.8780  221.5224 H   0  0  0  0  0  0  0  0  0  0  0  0
  140.4315   75.7446  218.8229 H   0  0  0  0  0  0  0  0  0  0  0  0
  140.9306   73.6062  217.6971 H   0  0  0  0  0  0  0  0  0  0  0  0
  143.1349   73.1925  216.6234 H   0  0  0  0  0  0  0  0  0  0  0  0
  144.8634   75.0027  216.7010 H   0  0  0  0  0  0  0  0  0  0  0  0
  144.3505   77.1345  217.8262 H   0  0  0  0  0  0  0  0  0  0  0  0
  142.5594   79.3562  217.4312 H   0  0  0  0  0  0  0  0  0  0  0  0
  139.8993   72.6840  221.8024 H   0  0  0  0  0  0  0  0  0  0  0  0
  141.6657   71.0878  221.1343 H   0  0  0  0  0  0  0  0  0  0  0  0
  143.8910   70.7070  220.4030 H   0  0  0  0  0  0  0  0  0  0  0  0
  146.5050   74.0364  219.8165 H   0  0  0  0  0  0  0  0  0  0  0  0
  144.7368   75.6002  220.4885 H   0  0  0  0  0  0  0  0  0  0  0  0
  1  2  2  0
  2  3  1  0
  3  4  1  0
  4  5  1  0
  5  6  2  0
  5  7  1  0
  7  8  1  0
  8  9  1  0
  9 10  1  0
 10 11  1  0
 11 12  1  0
 12 13  2  0
 13 14  1  0
 14 15  1  0
 15 16  2  0
 16 17  1  0
 17 18  2  0
 18 19  1  0
 19 20  2  0
 14 21  2  0
 21 22  1  0
  2 23  1  0
 23 24  2  0
 24 25  1  0
 25 26  2  0
 26 27  1  0
 27 28  2  0
 28 29  1  0
 28 30  1  0
 30 31  2  0
 31 32  1  0
 32 33  2  0
 11  7  1  0
 22 12  1  0
 33 23  1  0
 20 15  1  0
 32 26  1  0
  3 34  1  0
  4 35  1  0
  4 36  1  0
  8 37  1  0
  8 38  1  0
  9 39  1  0
  9 40  1  0
 10 41  1  0
 10 42  1  0
 11 43  1  6
 16 44  1  0
 17 45  1  0
 18 46  1  0
 19 47  1  0
 20 48  1  0
 21 49  1  0
 24 50  1  0
 25 51  1  0
 27 52  1  0
 30 53  1  0
 31 54  1  0
M  END
>  <smiles>  (43) 
O=C(NCC(=O)N1CCC[C@H]1c1nc(-c2ccccc2)co1)c1ccc2cc(F)ccc2n1

>  <score_type>  (43) 
oracle

>  <origin>  (43) 
autodockgpu

>  <m_score__min__energy>  (43) 
-9.1799999999999997

>  <m_primary>  (43) 
energy

>  <rmsd>  (43) 
6.711998123613914

>  <m_score__min__rmsd>  (43) 
6.711998123613914

>  <meeko>  (43) 
{"free_energy": -6.91, "intermolecular_energy": -8.7, "internal_energy": -4.19, "cluster_size": 20, "cluster_id": 5, "rank_in_cluster": 3}

>  <energy>  (43) 
-6.74

>  <cluster_rmsd>  (43) 
0.96

>  <cluster>  (43) 
5

$$$$

     RDKit          3D

 54 58  0  0  0  0  0  0  0  0999 V2000
  138.1730   70.0500  221.6960 O   0  0  0  0  0  0  0  0  0  0  0  0
  138.1570   70.8260  222.6970 C   0  0  0  0  0  0  0  0  0  0  0  0
  137.3770   72.0200  222.6320 N   0  0  0  0  0  0  0  0  0  0  0  0
  136.6480   72.2530  221.3960 C   0  0  0  0  0  0  0  0  0  0  0  0
  137.3600   73.1960  220.5320 C   0  0  0  0  0  0  0  0  0  0  0  0
  136.8270   73.8490  219.5900 O   0  0  0  0  0  0  0  0  0  0  0  0
  138.7510   73.4120  220.7480 N   0  0  0  0  0  0  0  0  0  0  0  0
  139.8090   73.2850  219.7480 C   0  0  0  0  0  0  0  0  0  0  0  0
  140.7650   72.3990  220.5600 C   0  0  0  0  0  0  0  0  0  0  0  0
  140.8550   73.2350  221.8290 C   0  0  0  0  0  0  0  0  0  0  0  0
  139.4360   73.7960  221.9680 C   0  0  1  0  0  0  0  0  0  0  0  0
  139.5070   75.2710  222.1270 C   0  0  0  0  0  0  0  0  0  0  0  0
  140.6130   76.0150  222.2900 N   0  0  0  0  0  0  0  0  0  0  0  0
  140.2710   77.3250  222.3990 C   0  0  0  0  0  0  0  0  0  0  0  0
  141.1560   78.4700  222.5860 C   0  0  0  0  0  0  0  0  0  0  0  0
  141.7470   78.7780  223.7950 C   0  0  0  0  0  0  0  0  0  0  0  0
  142.5730   79.8800  223.8870 C   0  0  0  0  0  0  0  0  0  0  0  0
  142.8340   80.7000  222.7980 C   0  0  0  0  0  0  0  0  0  0  0  0
  142.2360   80.3830  221.5920 C   0  0  0  0  0  0  0  0  0  0  0  0
  141.4120   79.2790  221.5070 C   0  0  0  0  0  0  0  0  0  0  0  0
  138.8860   77.3280  222.2920 C   0  0  0  0  0  0  0  0  0  0  0  0
  138.4860   76.0810  222.1320 O   0  0  0  0  0  0  0  0  0  0  0  0
  138.9150   70.5310  223.9130 C   0  0  0  0  0  0  0  0  0  0  0  0
  139.7650   71.4970  224.4020 C   0  0  0  0  0  0  0  0  0  0  0  0
  140.5240   71.3240  225.5340 C   0  0  0  0  0  0  0  0  0  0  0  0
  140.4100   70.1130  226.1930 C   0  0  0  0  0  0  0  0  0  0  0  0
  141.1700   69.9190  227.3430 C   0  0  0  0  0  0  0  0  0  0  0  0
  141.0810   68.7260  228.0240 C   0  0  0  0  0  0  0  0  0  0  0  0
  141.8120   68.5100  229.1470 F   0  0  0  0  0  0  0  0  0  0  0  0
  140.2210   67.7710  227.5140 C   0  0  0  0  0  0  0  0  0  0  0  0
  139.4680   67.9640  226.3770 C   0  0  0  0  0  0  0  0  0  0  0  0
  139.5610   69.1620  225.6950 C   0  0  0  0  0  0  0  0  0  0  0  0
  138.8340   69.3800  224.5760 N   0  0  0  0  0  0  0  0  0  0  0  0
  137.3670   72.6480  223.4480 H   0  0  0  0  0  0  0  0  0  0  0  0
  136.5294   71.2977  220.8637 H   0  0  0  0  0  0  0  0  0  0  0  0
  135.6663   72.6819  221.6458 H   0  0  0  0  0  0  0  0  0  0  0  0
  139.4584   72.7886  218.8311 H   0  0  0  0  0  0  0  0  0  0  0  0
  140.2298   74.2276  219.3679 H   0  0  0  0  0  0  0  0  0  0  0  0
  140.3393   71.4032  220.7527 H   0  0  0  0  0  0  0  0  0  0  0  0
  141.7264   72.1756  220.0744 H   0  0  0  0  0  0  0  0  0  0  0  0
  141.1213   72.6121  222.6956 H   0  0  0  0  0  0  0  0  0  0  0  0
  141.6289   74.0153  221.7822 H   0  0  0  0  0  0  0  0  0  0  0  0
  138.9006   73.4094  222.8477 H   0  0  0  0  0  0  0  0  0  0  0  0
  141.5610   78.1498  224.6786 H   0  0  0  0  0  0  0  0  0  0  0  0
  143.0396   80.1160  224.8548 H   0  0  0  0  0  0  0  0  0  0  0  0
  143.4953   81.5740  222.8912 H   0  0  0  0  0  0  0  0  0  0  0  0
  142.4162   81.0077  220.7047 H   0  0  0  0  0  0  0  0  0  0  0  0
  140.9441   79.0390  220.5408 H   0  0  0  0  0  0  0  0  0  0  0  0
  138.2365   78.2148  222.3334 H   0  0  0  0  0  0  0  0  0  0  0  0
  139.8400   72.4519  223.8612 H   0  0  0  0  0  0  0  0  0  0  0  0
  141.1943   72.1152  225.9010 H   0  0  0  0  0  0  0  0  0  0  0  0
  141.8378   70.7144  227.7055 H   0  0  0  0  0  0  0  0  0  0  0  0
  140.1339   66.8101  228.0422 H   0  0  0  0  0  0  0  0  0  0  0  0
  138.7978   67.1705  226.0147 H   0  0  0  0  0  0  0  0  0  0  0  0
  1  2  2  0
  2  3  1  0
  3  4  1  0
  4  5  1  0
  5  6  2  0
  5  7  1  0
  7  8  1  0
  8  9  1  0
  9 10  1  0
 10 11  1  0
 11 12  1  0
 12 13  2  0
 13 14  1  0
 14 15  1  0
 15 16  2  0
 16 17  1  0
 17 18  2  0
 18 19  1  0
 19 20  2  0
 14 21  2  0
 21 22  1  0
  2 23  1  0
 23 24  2  0
 24 25  1  0
 25 26  2  0
 26 27  1  0
 27 28  2  0
 28 29  1  0
 28 30  1  0
 30 31  2  0
 31 32  1  0
 32 33  2  0
 11  7  1  0
 22 12  1  0
 33 23  1  0
 20 15  1  0
 32 26  1  0
  3 34  1  0
  4 35  1  0
  4 36  1  0
  8 37  1  0
  8 38  1  0
  9 39  1  0
  9 40  1  0
 10 41  1  0
 10 42  1  0
 11 43  1  1
 16 44  1  0
 17 45  1  0
 18 46  1  0
 19 47  1  0
 20 48  1  0
 21 49  1  0
 24 50  1  0
 25 51  1  0
 27 52  1  0
 30 53  1  0
 31 54  1  0
M  END
>  <smiles>  (44) 
O=C(NCC(=O)N1CCC[C@H]1c1nc(-c2ccccc2)co1)c1ccc2cc(F)ccc2n1

>  <score_type>  (44) 
oracle

>  <origin>  (44) 
autodockgpu

>  <m_score__min__energy>  (44) 
-9.1799999999999997

>  <m_primary>  (44) 
energy

>  <rmsd>  (44) 
3.5741136764180985

>  <m_score__min__rmsd>  (44) 
3.5741136764180985

>  <meeko>  (44) 
{"free_energy": -8.63, "intermolecular_energy": -10.42, "internal_energy": -1.94, "cluster_size": 6, "cluster_id": 2, "rank_in_cluster": 3}

>  <energy>  (44) 
-6.6

>  <cluster_rmsd>  (44) 
1.02

>  <cluster>  (44) 
5

$$$$

     RDKit          3D

 54 58  0  0  0  0  0  0  0  0999 V2000
  141.3550   73.0480  221.7680 O   0  0  0  0  0  0  0  0  0  0  0  0
  140.3060   72.8970  222.4620 C   0  0  0  0  0  0  0  0  0  0  0  0
  139.2060   73.7820  222.2510 N   0  0  0  0  0  0  0  0  0  0  0  0
  139.3820   74.8060  221.2350 C   0  0  0  0  0  0  0  0  0  0  0  0
  139.2060   76.1460  221.7970 C   0  0  0  0  0  0  0  0  0  0  0  0
  138.1560   76.5500  222.3740 O   0  0  0  0  0  0  0  0  0  0  0  0
  140.2770   77.0780  221.6990 N   0  0  0  0  0  0  0  0  0  0  0  0
  141.0670   77.6050  222.8110 C   0  0  0  0  0  0  0  0  0  0  0  0
  140.9630   79.0960  222.4590 C   0  0  0  0  0  0  0  0  0  0  0  0
  141.4230   79.0370  221.0090 C   0  0  0  0  0  0  0  0  0  0  0  0
  140.8310   77.7130  220.5170 C   0  0  1  0  0  0  0  0  0  0  0  0
  141.9060   76.8970  219.8970 C   0  0  0  0  0  0  0  0  0  0  0  0
  142.5590   75.8630  220.4520 N   0  0  0  0  0  0  0  0  0  0  0  0
  143.4720   75.3740  219.5720 C   0  0  0  0  0  0  0  0  0  0  0  0
  144.3920   74.2590  219.7640 C   0  0  0  0  0  0  0  0  0  0  0  0
  145.2460   74.1610  220.8440 C   0  0  0  0  0  0  0  0  0  0  0  0
  146.0870   73.0710  220.9500 C   0  0  0  0  0  0  0  0  0  0  0  0
  146.1060   72.0580  220.0020 C   0  0  0  0  0  0  0  0  0  0  0  0
  145.2460   72.1670  218.9230 C   0  0  0  0  0  0  0  0  0  0  0  0
  144.4090   73.2590  218.8240 C   0  0  0  0  0  0  0  0  0  0  0  0
  143.3300   76.1780  218.4480 C   0  0  0  0  0  0  0  0  0  0  0  0
  142.3860   77.0650  218.6970 O   0  0  0  0  0  0  0  0  0  0  0  0
  140.1960   71.8430  223.4710 C   0  0  0  0  0  0  0  0  0  0  0  0
  139.5120   70.6950  223.1410 C   0  0  0  0  0  0  0  0  0  0  0  0
  139.3480   69.6440  224.0120 C   0  0  0  0  0  0  0  0  0  0  0  0
  139.9050   69.7730  225.2710 C   0  0  0  0  0  0  0  0  0  0  0  0
  139.7500   68.7200  226.1680 C   0  0  0  0  0  0  0  0  0  0  0  0
  140.2930   68.8150  227.4290 C   0  0  0  0  0  0  0  0  0  0  0  0
  140.1560   67.8030  228.3230 F   0  0  0  0  0  0  0  0  0  0  0  0
  140.9750   69.9780  227.7370 C   0  0  0  0  0  0  0  0  0  0  0  0
  141.1280   71.0210  226.8500 C   0  0  0  0  0  0  0  0  0  0  0  0
  140.5820   70.9220  225.5850 C   0  0  0  0  0  0  0  0  0  0  0  0
  140.7170   71.9290  224.6920 N   0  0  0  0  0  0  0  0  0  0  0  0
  138.3560   73.6560  222.8180 H   0  0  0  0  0  0  0  0  0  0  0  0
  140.3951   74.7236  220.8145 H   0  0  0  0  0  0  0  0  0  0  0  0
  138.6235   74.6543  220.4529 H   0  0  0  0  0  0  0  0  0  0  0  0
  140.6166   77.3751  223.7879 H   0  0  0  0  0  0  0  0  0  0  0  0
  142.0858   77.2028  222.9127 H   0  0  0  0  0  0  0  0  0  0  0  0
  139.9321   79.4691  222.5488 H   0  0  0  0  0  0  0  0  0  0  0  0
  141.5367   79.7742  223.1078 H   0  0  0  0  0  0  0  0  0  0  0  0
  141.0267   79.8862  220.4330 H   0  0  0  0  0  0  0  0  0  0  0  0
  142.5158   79.0930  220.8969 H   0  0  0  0  0  0  0  0  0  0  0  0
  140.0530   77.8436  219.7504 H   0  0  0  0  0  0  0  0  0  0  0  0
  145.2565   74.9457  221.6148 H   0  0  0  0  0  0  0  0  0  0  0  0
  146.7641   73.0035  221.8143 H   0  0  0  0  0  0  0  0  0  0  0  0
  146.7823   71.1966  220.1046 H   0  0  0  0  0  0  0  0  0  0  0  0
  145.2300   71.3865  218.1481 H   0  0  0  0  0  0  0  0  0  0  0  0
  143.7309   73.3309  217.9608 H   0  0  0  0  0  0  0  0  0  0  0  0
  143.9043   76.0903  217.5139 H   0  0  0  0  0  0  0  0  0  0  0  0
  139.0765   70.6148  222.1341 H   0  0  0  0  0  0  0  0  0  0  0  0
  138.7967   68.7382  223.7195 H   0  0  0  0  0  0  0  0  0  0  0  0
  139.1966   67.8170  225.8707 H   0  0  0  0  0  0  0  0  0  0  0  0
  141.4171   70.0750  228.7396 H   0  0  0  0  0  0  0  0  0  0  0  0
  141.6803   71.9249  227.1466 H   0  0  0  0  0  0  0  0  0  0  0  0
  1  2  2  0
  2  3  1  0
  3  4  1  0
  4  5  1  0
  5  6  2  0
  5  7  1  0
  7  8  1  0
  8  9  1  0
  9 10  1  0
 10 11  1  0
 11 12  1  0
 12 13  2  0
 13 14  1  0
 14 15  1  0
 15 16  2  0
 16 17  1  0
 17 18  2  0
 18 19  1  0
 19 20  2  0
 14 21  2  0
 21 22  1  0
  2 23  1  0
 23 24  2  0
 24 25  1  0
 25 26  2  0
 26 27  1  0
 27 28  2  0
 28 29  1  0
 28 30  1  0
 30 31  2  0
 31 32  1  0
 32 33  2  0
 11  7  1  0
 22 12  1  0
 33 23  1  0
 20 15  1  0
 32 26  1  0
  3 34  1  0
  4 35  1  0
  4 36  1  0
  8 37  1  0
  8 38  1  0
  9 39  1  0
  9 40  1  0
 10 41  1  0
 10 42  1  0
 11 43  1  6
 16 44  1  0
 17 45  1  0
 18 46  1  0
 19 47  1  0
 20 48  1  0
 21 49  1  0
 24 50  1  0
 25 51  1  0
 27 52  1  0
 30 53  1  0
 31 54  1  0
M  END
>  <smiles>  (45) 
O=C(NCC(=O)N1CCC[C@H]1c1nc(-c2ccccc2)co1)c1ccc2cc(F)ccc2n1

>  <score_type>  (45) 
oracle

>  <origin>  (45) 
autodockgpu

>  <m_score__min__energy>  (45) 
-9.1799999999999997

>  <m_primary>  (45) 
energy

>  <rmsd>  (45) 
5.457296262138734

>  <m_score__min__rmsd>  (45) 
5.457296262138734

>  <meeko>  (45) 
{"free_energy": -9.09, "intermolecular_energy": -10.88, "internal_energy": -1.91, "cluster_size": 5, "cluster_id": 1, "rank_in_cluster": 2}

>  <energy>  (45) 
-6.62

>  <cluster_rmsd>  (45) 
0.0

>  <cluster>  (45) 
6

$$$$

     RDKit          3D

 54 58  0  0  0  0  0  0  0  0999 V2000
  140.3330   74.0410  221.9640 O   0  0  0  0  0  0  0  0  0  0  0  0
  140.6590   75.2390  221.7110 C   0  0  0  0  0  0  0  0  0  0  0  0
  141.9300   75.4970  221.1130 N   0  0  0  0  0  0  0  0  0  0  0  0
  142.7630   74.3390  220.8360 C   0  0  0  0  0  0  0  0  0  0  0  0
  143.1530   74.2920  219.4250 C   0  0  0  0  0  0  0  0  0  0  0  0
  144.1600   73.6730  218.9790 O   0  0  0  0  0  0  0  0  0  0  0  0
  142.3580   74.9860  218.4690 N   0  0  0  0  0  0  0  0  0  0  0  0
  141.1290   74.4940  217.8500 C   0  0  0  0  0  0  0  0  0  0  0  0
  141.4940   74.7910  216.3880 C   0  0  0  0  0  0  0  0  0  0  0  0
  141.8790   76.2580  216.5250 C   0  0  0  0  0  0  0  0  0  0  0  0
  142.5630   76.3030  217.8950 C   0  0  1  0  0  0  0  0  0  0  0  0
  141.9400   77.3730  218.7160 C   0  0  0  0  0  0  0  0  0  0  0  0
  142.4850   78.0070  219.7670 N   0  0  0  0  0  0  0  0  0  0  0  0
  141.6070   78.9220  220.2550 C   0  0  0  0  0  0  0  0  0  0  0  0
  141.7890   79.8250  221.3860 C   0  0  0  0  0  0  0  0  0  0  0  0
  141.2220   81.0810  221.4480 C   0  0  0  0  0  0  0  0  0  0  0  0
  141.4440   81.8740  222.5560 C   0  0  0  0  0  0  0  0  0  0  0  0
  142.2270   81.4510  223.6210 C   0  0  0  0  0  0  0  0  0  0  0  0
  142.7920   80.1900  223.5480 C   0  0  0  0  0  0  0  0  0  0  0  0
  142.5640   79.4030  222.4370 C   0  0  0  0  0  0  0  0  0  0  0  0
  140.4940   78.8010  219.4320 C   0  0  0  0  0  0  0  0  0  0  0  0
  140.7480   77.8670  218.5370 O   0  0  0  0  0  0  0  0  0  0  0  0
  139.7700   76.3600  222.0170 C   0  0  0  0  0  0  0  0  0  0  0  0
  138.5100   76.3620  221.4620 C   0  0  0  0  0  0  0  0  0  0  0  0
  137.5960   77.3650  221.6820 C   0  0  0  0  0  0  0  0  0  0  0  0
  137.9870   78.4080  222.5030 C   0  0  0  0  0  0  0  0  0  0  0  0
  137.0760   79.4330  222.7390 C   0  0  0  0  0  0  0  0  0  0  0  0
  137.4310   80.4860  223.5510 C   0  0  0  0  0  0  0  0  0  0  0  0
  136.5610   81.4980  223.7980 F   0  0  0  0  0  0  0  0  0  0  0  0
  138.7010   80.4610  224.0970 C   0  0  0  0  0  0  0  0  0  0  0  0
  139.6030   79.4460  223.8640 C   0  0  0  0  0  0  0  0  0  0  0  0
  139.2430   78.3910  223.0480 C   0  0  0  0  0  0  0  0  0  0  0  0
  140.1070   77.3810  222.8010 N   0  0  0  0  0  0  0  0  0  0  0  0
  142.1910   76.4710  220.9100 H   0  0  0  0  0  0  0  0  0  0  0  0
  143.6693   74.3922  221.4571 H   0  0  0  0  0  0  0  0  0  0  0  0
  142.1862   73.4316  221.0682 H   0  0  0  0  0  0  0  0  0  0  0  0
  140.9721   73.4203  218.0307 H   0  0  0  0  0  0  0  0  0  0  0  0
  140.1921   74.9405  218.2145 H   0  0  0  0  0  0  0  0  0  0  0  0
  142.3368   74.1751  216.0411 H   0  0  0  0  0  0  0  0  0  0  0  0
  140.7036   74.5785  215.6531 H   0  0  0  0  0  0  0  0  0  0  0  0
  142.5715   76.5621  215.7263 H   0  0  0  0  0  0  0  0  0  0  0  0
  141.0218   76.9426  216.4436 H   0  0  0  0  0  0  0  0  0  0  0  0
  143.6369   76.5340  217.8376 H   0  0  0  0  0  0  0  0  0  0  0  0
  140.5973   81.4481  220.6203 H   0  0  0  0  0  0  0  0  0  0  0  0
  140.9856   82.8731  222.5961 H   0  0  0  0  0  0  0  0  0  0  0  0
  142.3931   82.0976  224.4953 H   0  0  0  0  0  0  0  0  0  0  0  0
  143.4194   79.8167  224.3708 H   0  0  0  0  0  0  0  0  0  0  0  0
  143.0194   78.4027  222.3926 H   0  0  0  0  0  0  0  0  0  0  0  0
  139.5639   79.3827  219.5131 H   0  0  0  0  0  0  0  0  0  0  0  0
  138.2214   75.5223  220.8126 H   0  0  0  0  0  0  0  0  0  0  0  0
  136.5959   77.3395  221.2247 H   0  0  0  0  0  0  0  0  0  0  0  0
  136.0773   79.4018  222.2790 H   0  0  0  0  0  0  0  0  0  0  0  0
  139.0062   81.2923  224.7495 H   0  0  0  0  0  0  0  0  0  0  0  0
  140.6018   79.4754  224.3240 H   0  0  0  0  0  0  0  0  0  0  0  0
  1  2  2  0
  2  3  1  0
  3  4  1  0
  4  5  1  0
  5  6  2  0
  5  7  1  0
  7  8  1  0
  8  9  1  0
  9 10  1  0
 10 11  1  0
 11 12  1  0
 12 13  2  0
 13 14  1  0
 14 15  1  0
 15 16  2  0
 16 17  1  0
 17 18  2  0
 18 19  1  0
 19 20  2  0
 14 21  2  0
 21 22  1  0
  2 23  1  0
 23 24  2  0
 24 25  1  0
 25 26  2  0
 26 27  1  0
 27 28  2  0
 28 29  1  0
 28 30  1  0
 30 31  2  0
 31 32  1  0
 32 33  2  0
 11  7  1  0
 22 12  1  0
 33 23  1  0
 20 15  1  0
 32 26  1  0
  3 34  1  0
  4 35  1  0
  4 36  1  0
  8 37  1  0
  8 38  1  0
  9 39  1  0
  9 40  1  0
 10 41  1  0
 10 42  1  0
 11 43  1  6
 16 44  1  0
 17 45  1  0
 18 46  1  0
 19 47  1  0
 20 48  1  0
 21 49  1  0
 24 50  1  0
 25 51  1  0
 27 52  1  0
 30 53  1  0
 31 54  1  0
M  END
>  <smiles>  (46) 
O=C(NCC(=O)N1CCC[C@H]1c1nc(-c2ccccc2)co1)c1ccc2cc(F)ccc2n1

>  <score_type>  (46) 
oracle

>  <origin>  (46) 
autodockgpu

>  <m_score__min__energy>  (46) 
-9.1799999999999997

>  <m_primary>  (46) 
energy

>  <rmsd>  (46) 
6.448852313334903

>  <m_score__min__rmsd>  (46) 
6.448852313334903

>  <meeko>  (46) 
{"free_energy": -6.52, "intermolecular_energy": -8.31, "internal_energy": -4.18, "cluster_size": 5, "cluster_id": 6, "rank_in_cluster": 3}

>  <energy>  (46) 
-6.58

>  <cluster_rmsd>  (46) 
0.18

>  <cluster>  (46) 
6

$$$$

     RDKit          3D

 54 58  0  0  0  0  0  0  0  0999 V2000
  138.8100   74.8690  222.0420 O   0  0  0  0  0  0  0  0  0  0  0  0
  139.9840   75.3190  221.8880 C   0  0  0  0  0  0  0  0  0  0  0  0
  140.2270   76.7080  222.1140 N   0  0  0  0  0  0  0  0  0  0  0  0
  139.0820   77.5090  222.5130 C   0  0  0  0  0  0  0  0  0  0  0  0
  139.5040   78.7970  223.0660 C   0  0  0  0  0  0  0  0  0  0  0  0
  138.7660   79.5610  223.7510 O   0  0  0  0  0  0  0  0  0  0  0  0
  140.8360   79.2430  222.8310 N   0  0  0  0  0  0  0  0  0  0  0  0
  142.0260   78.8370  223.5770 C   0  0  0  0  0  0  0  0  0  0  0  0
  142.5920   80.2380  223.8520 C   0  0  0  0  0  0  0  0  0  0  0  0
  142.5940   80.7840  222.4310 C   0  0  0  0  0  0  0  0  0  0  0  0
  141.3240   80.1740  221.8300 C   0  0  1  0  0  0  0  0  0  0  0  0
  141.6650   79.4940  220.5550 C   0  0  0  0  0  0  0  0  0  0  0  0
  141.7280   78.1710  220.3340 N   0  0  0  0  0  0  0  0  0  0  0  0
  142.0720   77.9390  219.0410 C   0  0  0  0  0  0  0  0  0  0  0  0
  142.2520   76.6510  218.3790 C   0  0  0  0  0  0  0  0  0  0  0  0
  141.2580   75.6970  218.2990 C   0  0  0  0  0  0  0  0  0  0  0  0
  141.5110   74.5030  217.6540 C   0  0  0  0  0  0  0  0  0  0  0  0
  142.7410   74.2230  217.0760 C   0  0  0  0  0  0  0  0  0  0  0  0
  143.7300   75.1860  217.1620 C   0  0  0  0  0  0  0  0  0  0  0  0
  143.4700   76.3770  217.8080 C   0  0  0  0  0  0  0  0  0  0  0  0
  142.2140   79.2070  218.4910 C   0  0  0  0  0  0  0  0  0  0  0  0
  141.9600   80.0920  219.4350 O   0  0  0  0  0  0  0  0  0  0  0  0
  141.0930   74.4540  221.4830 C   0  0  0  0  0  0  0  0  0  0  0  0
  140.8730   73.0960  221.4280 C   0  0  0  0  0  0  0  0  0  0  0  0
  141.8440   72.1950  221.0620 C   0  0  0  0  0  0  0  0  0  0  0  0
  143.0900   72.7020  220.7400 C   0  0  0  0  0  0  0  0  0  0  0  0
  144.0860   71.8050  220.3660 C   0  0  0  0  0  0  0  0  0  0  0  0
  145.3370   72.2760  220.0380 C   0  0  0  0  0  0  0  0  0  0  0  0
  146.3270   71.4230  219.6710 F   0  0  0  0  0  0  0  0  0  0  0  0
  145.5340   73.6430  220.1010 C   0  0  0  0  0  0  0  0  0  0  0  0
  144.5480   74.5310  220.4700 C   0  0  0  0  0  0  0  0  0  0  0  0
  143.2930   74.0550  220.7990 C   0  0  0  0  0  0  0  0  0  0  0  0
  142.3050   74.9030  221.1660 N   0  0  0  0  0  0  0  0  0  0  0  0
  141.1820   77.0690  221.9870 H   0  0  0  0  0  0  0  0  0  0  0  0
  138.4450   77.6873  221.6341 H   0  0  0  0  0  0  0  0  0  0  0  0
  138.5274   76.9615  223.2893 H   0  0  0  0  0  0  0  0  0  0  0  0
  141.7743   78.2998  224.5033 H   0  0  0  0  0  0  0  0  0  0  0  0
  142.7009   78.1348  223.0656 H   0  0  0  0  0  0  0  0  0  0  0  0
  141.9387   80.8225  224.5165 H   0  0  0  0  0  0  0  0  0  0  0  0
  143.5641   80.2604  224.3663 H   0  0  0  0  0  0  0  0  0  0  0  0
  142.5448   81.8829  222.4289 H   0  0  0  0  0  0  0  0  0  0  0  0
  143.5056   80.5318  221.8694 H   0  0  0  0  0  0  0  0  0  0  0  0
  140.5533   80.9219  221.5919 H   0  0  0  0  0  0  0  0  0  0  0  0
  140.2710   75.8867  218.7461 H   0  0  0  0  0  0  0  0  0  0  0  0
  140.7118   73.7493  217.5964 H   0  0  0  0  0  0  0  0  0  0  0  0
  142.9236   73.2658  216.5657 H   0  0  0  0  0  0  0  0  0  0  0  0
  144.7194   75.0031  216.7174 H   0  0  0  0  0  0  0  0  0  0  0  0
  144.2664   77.1334  217.8676 H   0  0  0  0  0  0  0  0  0  0  0  0
  142.4899   79.4330  217.4504 H   0  0  0  0  0  0  0  0  0  0  0  0
  139.8746   72.7149  221.6889 H   0  0  0  0  0  0  0  0  0  0  0  0
  141.6387   71.1149  221.0266 H   0  0  0  0  0  0  0  0  0  0  0  0
  143.8748   70.7260  220.3327 H   0  0  0  0  0  0  0  0  0  0  0  0
  146.5268   74.0408  219.8438 H   0  0  0  0  0  0  0  0  0  0  0  0
  144.7577   75.6103  220.5026 H   0  0  0  0  0  0  0  0  0  0  0  0
  1  2  2  0
  2  3  1  0
  3  4  1  0
  4  5  1  0
  5  6  2  0
  5  7  1  0
  7  8  1  0
  8  9  1  0
  9 10  1  0
 10 11  1  0
 11 12  1  0
 12 13  2  0
 13 14  1  0
 14 15  1  0
 15 16  2  0
 16 17  1  0
 17 18  2  0
 18 19  1  0
 19 20  2  0
 14 21  2  0
 21 22  1  0
  2 23  1  0
 23 24  2  0
 24 25  1  0
 25 26  2  0
 26 27  1  0
 27 28  2  0
 28 29  1  0
 28 30  1  0
 30 31  2  0
 31 32  1  0
 32 33  2  0
 11  7  1  0
 22 12  1  0
 33 23  1  0
 20 15  1  0
 32 26  1  0
  3 34  1  0
  4 35  1  0
  4 36  1  0
  8 37  1  0
  8 38  1  0
  9 39  1  0
  9 40  1  0
 10 41  1  0
 10 42  1  0
 11 43  1  6
 16 44  1  0
 17 45  1  0
 18 46  1  0
 19 47  1  0
 20 48  1  0
 21 49  1  0
 24 50  1  0
 25 51  1  0
 27 52  1  0
 30 53  1  0
 31 54  1  0
M  END
>  <smiles>  (47) 
O=C(NCC(=O)N1CCC[C@H]1c1nc(-c2ccccc2)co1)c1ccc2cc(F)ccc2n1

>  <score_type>  (47) 
oracle

>  <origin>  (47) 
autodockgpu

>  <m_score__min__energy>  (47) 
-9.1799999999999997

>  <m_primary>  (47) 
energy

>  <rmsd>  (47) 
6.713969570394499

>  <m_score__min__rmsd>  (47) 
6.713969570394499

>  <meeko>  (47) 
{"free_energy": -6.89, "intermolecular_energy": -8.68, "internal_energy": -4.19, "cluster_size": 20, "cluster_id": 5, "rank_in_cluster": 7}

>  <energy>  (47) 
-6.52

>  <cluster_rmsd>  (47) 
0.23

>  <cluster>  (47) 
6

$$$$

     RDKit          3D

 54 58  0  0  0  0  0  0  0  0999 V2000
  140.3430   74.1320  221.9790 O   0  0  0  0  0  0  0  0  0  0  0  0
  140.6220   75.3470  221.7490 C   0  0  0  0  0  0  0  0  0  0  0  0
  141.8780   75.6650  221.1490 N   0  0  0  0  0  0  0  0  0  0  0  0
  142.7520   74.5450  220.8420 C   0  0  0  0  0  0  0  0  0  0  0  0
  143.1440   74.5510  219.4310 C   0  0  0  0  0  0  0  0  0  0  0  0
  144.1910   74.0080  218.9750 O   0  0  0  0  0  0  0  0  0  0  0  0
  142.3040   75.2060  218.4870 N   0  0  0  0  0  0  0  0  0  0  0  0
  140.9880   74.7520  218.0420 C   0  0  0  0  0  0  0  0  0  0  0  0
  141.2210   74.8740  216.5290 C   0  0  0  0  0  0  0  0  0  0  0  0
  141.7150   76.3130  216.4740 C   0  0  0  0  0  0  0  0  0  0  0  0
  142.5370   76.4410  217.7600 C   0  0  1  0  0  0  0  0  0  0  0  0
  142.0740   77.6300  218.5190 C   0  0  0  0  0  0  0  0  0  0  0  0
  142.4680   78.0120  219.7450 N   0  0  0  0  0  0  0  0  0  0  0  0
  141.8200   79.1520  220.0990 C   0  0  0  0  0  0  0  0  0  0  0  0
  141.9470   79.9060  221.3420 C   0  0  0  0  0  0  0  0  0  0  0  0
  141.4470   81.1810  221.5060 C   0  0  0  0  0  0  0  0  0  0  0  0
  141.6100   81.8260  222.7160 C   0  0  0  0  0  0  0  0  0  0  0  0
  142.2660   81.2330  223.7860 C   0  0  0  0  0  0  0  0  0  0  0  0
  142.7640   79.9540  223.6100 C   0  0  0  0  0  0  0  0  0  0  0  0
  142.5970   79.3160  222.3980 C   0  0  0  0  0  0  0  0  0  0  0  0
  141.0070   79.4370  219.0090 C   0  0  0  0  0  0  0  0  0  0  0  0
  141.1990   78.5010  218.1010 O   0  0  0  0  0  0  0  0  0  0  0  0
  139.6940   76.4260  222.0840 C   0  0  0  0  0  0  0  0  0  0  0  0
  138.4010   76.3420  221.6170 C   0  0  0  0  0  0  0  0  0  0  0  0
  137.4490   77.3000  221.8710 C   0  0  0  0  0  0  0  0  0  0  0  0
  137.8340   78.3880  222.6340 C   0  0  0  0  0  0  0  0  0  0  0  0
  136.8830   79.3680  222.9040 C   0  0  0  0  0  0  0  0  0  0  0  0
  137.2320   80.4640  223.6600 C   0  0  0  0  0  0  0  0  0  0  0  0
  136.3250   81.4350  223.9370 F   0  0  0  0  0  0  0  0  0  0  0  0
  138.5350   80.5260  224.1180 C   0  0  0  0  0  0  0  0  0  0  0  0
  139.4760   79.5560  223.8520 C   0  0  0  0  0  0  0  0  0  0  0  0
  139.1220   78.4570  223.0920 C   0  0  0  0  0  0  0  0  0  0  0  0
  140.0240   77.4880  222.8140 N   0  0  0  0  0  0  0  0  0  0  0  0
  142.1000   76.6530  220.9640 H   0  0  0  0  0  0  0  0  0  0  0  0
  143.6555   74.6133  221.4658 H   0  0  0  0  0  0  0  0  0  0  0  0
  142.2080   73.6115  221.0486 H   0  0  0  0  0  0  0  0  0  0  0  0
  140.7784   73.7168  218.3493 H   0  0  0  0  0  0  0  0  0  0  0  0
  140.1254   75.3037  218.4439 H   0  0  0  0  0  0  0  0  0  0  0  0
  141.9810   74.1639  216.1710 H   0  0  0  0  0  0  0  0  0  0  0  0
  140.3476   74.6513  215.8984 H   0  0  0  0  0  0  0  0  0  0  0  0
  142.3408   76.4830  215.5855 H   0  0  0  0  0  0  0  0  0  0  0  0
  140.9012   77.0496  216.4031 H   0  0  0  0  0  0  0  0  0  0  0  0
  143.6122   76.5831  217.5764 H   0  0  0  0  0  0  0  0  0  0  0  0
  140.9220   81.6806  220.6785 H   0  0  0  0  0  0  0  0  0  0  0  0
  141.2070   82.8425  222.8359 H   0  0  0  0  0  0  0  0  0  0  0  0
  142.3861   81.7626  224.7426 H   0  0  0  0  0  0  0  0  0  0  0  0
  143.2907   79.4482  224.4326 H   0  0  0  0  0  0  0  0  0  0  0  0
  142.9985   78.2995  222.2733 H   0  0  0  0  0  0  0  0  0  0  0  0
  140.3229   80.2937  218.9194 H   0  0  0  0  0  0  0  0  0  0  0  0
  138.1172   75.4677  221.0128 H   0  0  0  0  0  0  0  0  0  0  0  0
  136.4237   77.2057  221.4838 H   0  0  0  0  0  0  0  0  0  0  0  0
  135.8588   79.2671  222.5156 H   0  0  0  0  0  0  0  0  0  0  0  0
  138.8351   81.3930  224.7249 H   0  0  0  0  0  0  0  0  0  0  0  0
  140.5002   79.6550  224.2409 H   0  0  0  0  0  0  0  0  0  0  0  0
  1  2  2  0
  2  3  1  0
  3  4  1  0
  4  5  1  0
  5  6  2  0
  5  7  1  0
  7  8  1  0
  8  9  1  0
  9 10  1  0
 10 11  1  0
 11 12  1  0
 12 13  2  0
 13 14  1  0
 14 15  1  0
 15 16  2  0
 16 17  1  0
 17 18  2  0
 18 19  1  0
 19 20  2  0
 14 21  2  0
 21 22  1  0
  2 23  1  0
 23 24  2  0
 24 25  1  0
 25 26  2  0
 26 27  1  0
 27 28  2  0
 28 29  1  0
 28 30  1  0
 30 31  2  0
 31 32  1  0
 32 33  2  0
 11  7  1  0
 22 12  1  0
 33 23  1  0
 20 15  1  0
 32 26  1  0
  3 34  1  0
  4 35  1  0
  4 36  1  0
  8 37  1  0
  8 38  1  0
  9 39  1  0
  9 40  1  0
 10 41  1  0
 10 42  1  0
 11 43  1  6
 16 44  1  0
 17 45  1  0
 18 46  1  0
 19 47  1  0
 20 48  1  0
 21 49  1  0
 24 50  1  0
 25 51  1  0
 27 52  1  0
 30 53  1  0
 31 54  1  0
M  END
>  <smiles>  (48) 
O=C(NCC(=O)N1CCC[C@H]1c1nc(-c2ccccc2)co1)c1ccc2cc(F)ccc2n1

>  <score_type>  (48) 
oracle

>  <origin>  (48) 
autodockgpu

>  <m_score__min__energy>  (48) 
-9.1799999999999997

>  <m_primary>  (48) 
energy

>  <rmsd>  (48) 
6.4644134735719705

>  <m_score__min__rmsd>  (48) 
6.4644134735719705

>  <meeko>  (48) 
{"free_energy": -6.58, "intermolecular_energy": -8.37, "internal_energy": -4.01, "cluster_size": 5, "cluster_id": 6, "rank_in_cluster": 2}

>  <energy>  (48) 
-6.46

>  <cluster_rmsd>  (48) 
1.81

>  <cluster>  (48) 
6

$$$$

     RDKit          3D

 54 58  0  0  0  0  0  0  0  0999 V2000
  138.8570   74.8060  222.3340 O   0  0  0  0  0  0  0  0  0  0  0  0
  139.9590   75.2940  221.9440 C   0  0  0  0  0  0  0  0  0  0  0  0
  140.1150   76.7130  221.9180 N   0  0  0  0  0  0  0  0  0  0  0  0
  138.9730   77.4990  222.3520 C   0  0  0  0  0  0  0  0  0  0  0  0
  139.3930   78.7990  222.8780 C   0  0  0  0  0  0  0  0  0  0  0  0
  138.6310   79.6140  223.4710 O   0  0  0  0  0  0  0  0  0  0  0  0
  140.7520   79.1960  222.7230 N   0  0  0  0  0  0  0  0  0  0  0  0
  141.8830   78.7350  223.5270 C   0  0  0  0  0  0  0  0  0  0  0  0
  142.4850   80.1090  223.8550 C   0  0  0  0  0  0  0  0  0  0  0  0
  142.5870   80.6730  222.4440 C   0  0  0  0  0  0  0  0  0  0  0  0
  141.3290   80.1200  221.7650 C   0  0  1  0  0  0  0  0  0  0  0  0
  141.7150   79.4440  220.5000 C   0  0  0  0  0  0  0  0  0  0  0  0
  141.8200   78.1220  220.2880 N   0  0  0  0  0  0  0  0  0  0  0  0
  142.1970   77.8940  219.0030 C   0  0  0  0  0  0  0  0  0  0  0  0
  142.4270   76.6090  218.3520 C   0  0  0  0  0  0  0  0  0  0  0  0
  141.4770   75.6100  218.2940 C   0  0  0  0  0  0  0  0  0  0  0  0
  141.7750   74.4220  217.6580 C   0  0  0  0  0  0  0  0  0  0  0  0
  143.0100   74.1910  217.0680 C   0  0  0  0  0  0  0  0  0  0  0  0
  143.9560   75.1990  217.1320 C   0  0  0  0  0  0  0  0  0  0  0  0
  143.6490   76.3840  217.7690 C   0  0  0  0  0  0  0  0  0  0  0  0
  142.3130   79.1630  218.4490 C   0  0  0  0  0  0  0  0  0  0  0  0
  142.0150   80.0450  219.3830 O   0  0  0  0  0  0  0  0  0  0  0  0
  141.0710   74.4420  221.5190 C   0  0  0  0  0  0  0  0  0  0  0  0
  140.8600   73.0840  221.4500 C   0  0  0  0  0  0  0  0  0  0  0  0
  141.8340   72.1940  221.0640 C   0  0  0  0  0  0  0  0  0  0  0  0
  143.0740   72.7140  220.7370 C   0  0  0  0  0  0  0  0  0  0  0  0
  144.0730   71.8290  220.3440 C   0  0  0  0  0  0  0  0  0  0  0  0
  145.3180   72.3140  220.0110 C   0  0  0  0  0  0  0  0  0  0  0  0
  146.3110   71.4720  219.6250 F   0  0  0  0  0  0  0  0  0  0  0  0
  145.5050   73.6810  220.0890 C   0  0  0  0  0  0  0  0  0  0  0  0
  144.5150   74.5570  220.4780 C   0  0  0  0  0  0  0  0  0  0  0  0
  143.2670   74.0680  220.8110 C   0  0  0  0  0  0  0  0  0  0  0  0
  142.2760   74.9030  221.1970 N   0  0  0  0  0  0  0  0  0  0  0  0
  141.0120   77.1040  221.6000 H   0  0  0  0  0  0  0  0  0  0  0  0
  138.3013   77.6587  221.4957 H   0  0  0  0  0  0  0  0  0  0  0  0
  138.4570   76.9498  223.1533 H   0  0  0  0  0  0  0  0  0  0  0  0
  141.5603   78.1952  224.4295 H   0  0  0  0  0  0  0  0  0  0  0  0
  142.5586   78.0149  223.0423 H   0  0  0  0  0  0  0  0  0  0  0  0
  141.8180   80.7094  224.4911 H   0  0  0  0  0  0  0  0  0  0  0  0
  143.4267   80.0874  224.4230 H   0  0  0  0  0  0  0  0  0  0  0  0
  142.5799   81.7729  222.4556 H   0  0  0  0  0  0  0  0  0  0  0  0
  143.5181   80.3931  221.9296 H   0  0  0  0  0  0  0  0  0  0  0  0
  140.6009   80.8997  221.4966 H   0  0  0  0  0  0  0  0  0  0  0  0
  140.4881   75.7596  218.7519 H   0  0  0  0  0  0  0  0  0  0  0  0
  141.0095   73.6331  217.6174 H   0  0  0  0  0  0  0  0  0  0  0  0
  143.2297   73.2374  216.5657 H   0  0  0  0  0  0  0  0  0  0  0  0
  144.9475   75.0564  216.6775 H   0  0  0  0  0  0  0  0  0  0  0  0
  144.4107   77.1765  217.8110 H   0  0  0  0  0  0  0  0  0  0  0  0
  142.6027   79.3918  217.4128 H   0  0  0  0  0  0  0  0  0  0  0  0
  139.8669   72.6928  221.7158 H   0  0  0  0  0  0  0  0  0  0  0  0
  141.6358   71.1130  221.0170 H   0  0  0  0  0  0  0  0  0  0  0  0
  143.8696   70.7489  220.2996 H   0  0  0  0  0  0  0  0  0  0  0  0
  146.4923   74.0897  219.8278 H   0  0  0  0  0  0  0  0  0  0  0  0
  144.7171   75.6373  220.5229 H   0  0  0  0  0  0  0  0  0  0  0  0
  1  2  2  0
  2  3  1  0
  3  4  1  0
  4  5  1  0
  5  6  2  0
  5  7  1  0
  7  8  1  0
  8  9  1  0
  9 10  1  0
 10 11  1  0
 11 12  1  0
 12 13  2  0
 13 14  1  0
 14 15  1  0
 15 16  2  0
 16 17  1  0
 17 18  2  0
 18 19  1  0
 19 20  2  0
 14 21  2  0
 21 22  1  0
  2 23  1  0
 23 24  2  0
 24 25  1  0
 25 26  2  0
 26 27  1  0
 27 28  2  0
 28 29  1  0
 28 30  1  0
 30 31  2  0
 31 32  1  0
 32 33  2  0
 11  7  1  0
 22 12  1  0
 33 23  1  0
 20 15  1  0
 32 26  1  0
  3 34  1  0
  4 35  1  0
  4 36  1  0
  8 37  1  0
  8 38  1  0
  9 39  1  0
  9 40  1  0
 10 41  1  0
 10 42  1  0
 11 43  1  6
 16 44  1  0
 17 45  1  0
 18 46  1  0
 19 47  1  0
 20 48  1  0
 21 49  1  0
 24 50  1  0
 25 51  1  0
 27 52  1  0
 30 53  1  0
 31 54  1  0
M  END
>  <smiles>  (49) 
O=C(NCC(=O)N1CCC[C@H]1c1nc(-c2ccccc2)co1)c1ccc2cc(F)ccc2n1

>  <score_type>  (49) 
oracle

>  <origin>  (49) 
autodockgpu

>  <m_score__min__energy>  (49) 
-9.1799999999999997

>  <m_primary>  (49) 
energy

>  <rmsd>  (49) 
6.718596413817815

>  <m_score__min__rmsd>  (49) 
6.718596413817815

>  <meeko>  (49) 
{"free_energy": -6.88, "intermolecular_energy": -8.67, "internal_energy": -4.21, "cluster_size": 20, "cluster_id": 5, "rank_in_cluster": 8}

>  <energy>  (49) 
-6.19

>  <cluster_rmsd>  (49) 
1.83

>  <cluster>  (49) 
6

$$$$

     RDKit          3D

 54 58  0  0  0  0  0  0  0  0999 V2000
  137.8590   70.4870  221.4140 O   0  0  0  0  0  0  0  0  0  0  0  0
  138.3280   71.2440  222.3150 C   0  0  0  0  0  0  0  0  0  0  0  0
  138.3140   72.6570  222.1050 N   0  0  0  0  0  0  0  0  0  0  0  0
  137.7510   73.1200  220.8480 C   0  0  0  0  0  0  0  0  0  0  0  0
  138.6270   72.7910  219.7230 C   0  0  0  0  0  0  0  0  0  0  0  0
  138.3270   71.9940  218.7890 O   0  0  0  0  0  0  0  0  0  0  0  0
  139.9120   73.4000  219.6510 N   0  0  0  0  0  0  0  0  0  0  0  0
  140.5330   73.9680  218.4550 C   0  0  0  0  0  0  0  0  0  0  0  0
  141.8930   73.2660  218.5680 C   0  0  0  0  0  0  0  0  0  0  0  0
  142.2460   73.6430  220.0000 C   0  0  0  0  0  0  0  0  0  0  0  0
  140.8870   73.6000  220.7070 C   0  0  1  0  0  0  0  0  0  0  0  0
  140.6720   74.8800  221.4300 C   0  0  0  0  0  0  0  0  0  0  0  0
  141.4430   75.9780  221.3770 N   0  0  0  0  0  0  0  0  0  0  0  0
  140.9190   76.9440  222.1760 C   0  0  0  0  0  0  0  0  0  0  0  0
  141.4340   78.2880  222.4140 C   0  0  0  0  0  0  0  0  0  0  0  0
  141.6490   79.2040  221.4040 C   0  0  0  0  0  0  0  0  0  0  0  0
  142.1400   80.4560  221.7150 C   0  0  0  0  0  0  0  0  0  0  0  0
  142.4280   80.8340  223.0190 C   0  0  0  0  0  0  0  0  0  0  0  0
  142.2090   79.9080  224.0230 C   0  0  0  0  0  0  0  0  0  0  0  0
  141.7190   78.6580  223.7050 C   0  0  0  0  0  0  0  0  0  0  0  0
  139.7800   76.3600  222.7170 C   0  0  0  0  0  0  0  0  0  0  0  0
  139.6830   75.1350  222.2390 O   0  0  0  0  0  0  0  0  0  0  0  0
  138.8810   70.7090  223.5590 C   0  0  0  0  0  0  0  0  0  0  0  0
  138.7470   69.3610  223.8040 C   0  0  0  0  0  0  0  0  0  0  0  0
  139.2280   68.7550  224.9400 C   0  0  0  0  0  0  0  0  0  0  0  0
  139.8720   69.5610  225.8630 C   0  0  0  0  0  0  0  0  0  0  0  0
  140.3670   68.9660  227.0200 C   0  0  0  0  0  0  0  0  0  0  0  0
  141.0140   69.7380  227.9580 C   0  0  0  0  0  0  0  0  0  0  0  0
  141.5060   69.1830  229.0950 F   0  0  0  0  0  0  0  0  0  0  0  0
  141.1360   71.0880  227.6890 C   0  0  0  0  0  0  0  0  0  0  0  0
  140.6460   71.6770  226.5440 C   0  0  0  0  0  0  0  0  0  0  0  0
  139.9980   70.8990  225.6040 C   0  0  0  0  0  0  0  0  0  0  0  0
  139.5070   71.4490  224.4710 N   0  0  0  0  0  0  0  0  0  0  0  0
  138.6960   73.2680  222.8400 H   0  0  0  0  0  0  0  0  0  0  0  0
  136.7735   72.6396  220.6941 H   0  0  0  0  0  0  0  0  0  0  0  0
  137.6423   74.2135  220.8967 H   0  0  0  0  0  0  0  0  0  0  0  0
  139.9964   73.6916  217.5354 H   0  0  0  0  0  0  0  0  0  0  0  0
  140.5593   75.0663  218.3995 H   0  0  0  0  0  0  0  0  0  0  0  0
  141.8057   72.1771  218.4390 H   0  0  0  0  0  0  0  0  0  0  0  0
  142.6354   73.5542  217.8092 H   0  0  0  0  0  0  0  0  0  0  0  0
  142.9449   72.9165  220.4402 H   0  0  0  0  0  0  0  0  0  0  0  0
  142.7492   74.6177  220.0824 H   0  0  0  0  0  0  0  0  0  0  0  0
  140.8121   72.7981  221.4562 H   0  0  0  0  0  0  0  0  0  0  0  0
  141.4307   78.9382  220.3592 H   0  0  0  0  0  0  0  0  0  0  0  0
  142.3086   81.1780  220.9024 H   0  0  0  0  0  0  0  0  0  0  0  0
  142.8177   81.8372  223.2467 H   0  0  0  0  0  0  0  0  0  0  0  0
  142.4245   80.1670  225.0701 H   0  0  0  0  0  0  0  0  0  0  0  0
  141.5508   77.9323  224.5144 H   0  0  0  0  0  0  0  0  0  0  0  0
  139.0816   76.8363  223.4208 H   0  0  0  0  0  0  0  0  0  0  0  0
  138.2313   68.7404  223.0563 H   0  0  0  0  0  0  0  0  0  0  0  0
  139.1063   67.6748  225.1087 H   0  0  0  0  0  0  0  0  0  0  0  0
  140.2419   67.8855  227.1836 H   0  0  0  0  0  0  0  0  0  0  0  0
  141.6496   71.7236  228.4253 H   0  0  0  0  0  0  0  0  0  0  0  0
  140.7696   72.7576  226.3796 H   0  0  0  0  0  0  0  0  0  0  0  0
  1  2  2  0
  2  3  1  0
  3  4  1  0
  4  5  1  0
  5  6  2  0
  5  7  1  0
  7  8  1  0
  8  9  1  0
  9 10  1  0
 10 11  1  0
 11 12  1  0
 12 13  2  0
 13 14  1  0
 14 15  1  0
 15 16  2  0
 16 17  1  0
 17 18  2  0
 18 19  1  0
 19 20  2  0
 14 21  2  0
 21 22  1  0
  2 23  1  0
 23 24  2  0
 24 25  1  0
 25 26  2  0
 26 27  1  0
 27 28  2  0
 28 29  1  0
 28 30  1  0
 30 31  2  0
 31 32  1  0
 32 33  2  0
 11  7  1  0
 22 12  1  0
 33 23  1  0
 20 15  1  0
 32 26  1  0
  3 34  1  0
  4 35  1  0
  4 36  1  0
  8 37  1  0
  8 38  1  0
  9 39  1  0
  9 40  1  0
 10 41  1  0
 10 42  1  0
 11 43  1  1
 16 44  1  0
 17 45  1  0
 18 46  1  0
 19 47  1  0
 20 48  1  0
 21 49  1  0
 24 50  1  0
 25 51  1  0
 27 52  1  0
 30 53  1  0
 31 54  1  0
M  END
>  <smiles>  (50) 
O=C(NCC(=O)N1CCC[C@H]1c1nc(-c2ccccc2)co1)c1ccc2cc(F)ccc2n1

>  <score_type>  (50) 
oracle

>  <origin>  (50) 
autodockgpu

>  <m_score__min__energy>  (50) 
-9.1799999999999997

>  <m_primary>  (50) 
energy

>  <rmsd>  (50) 
2.9751163416745974

>  <m_score__min__rmsd>  (50) 
2.9751163416745974

>  <meeko>  (50) 
{"free_energy": -8.49, "intermolecular_energy": -10.28, "internal_energy": -2.67, "cluster_size": 12, "cluster_id": 3, "rank_in_cluster": 12}

>  <energy>  (50) 
-6.41

>  <cluster_rmsd>  (50) 
0.0

>  <cluster>  (50) 
7

$$$$
