
     RDKit          3D

 49 52  0  0  0  0  0  0  0  0999 V2000
  139.2520   71.5680  221.0450 O   0  0  0  0  0  0  0  0  0  0  0  0
  139.4410   72.0620  222.1860 C   0  0  0  0  0  0  0  0  0  0  0  0
  139.3940   73.4790  222.2880 N   0  0  0  0  0  0  0  0  0  0  0  0
  139.1410   74.2570  221.1190 C   0  0  0  0  0  0  0  0  0  0  0  0
  139.4370   75.7130  221.3340 C   0  0  0  0  0  0  0  0  0  0  0  0
  138.6270   76.4620  221.9440 O   0  0  0  0  0  0  0  0  0  0  0  0
  140.6610   76.2360  220.8310 N   0  0  0  0  0  0  0  0  0  0  0  0
  141.7030   75.3030  220.5050 C   0  0  0  0  0  0  0  0  0  0  0  0
  142.5400   75.6980  219.3330 C   0  0  0  0  0  0  0  0  0  0  0  0
  142.9660   77.1280  219.3930 C   0  0  0  0  0  0  0  0  0  0  0  0
  141.7310   77.9920  219.4670 C   0  0  0  0  0  0  0  0  0  0  0  0
  140.8600   77.6380  220.6500 C   0  0  2  0  0  0  0  0  0  0  0  0
  141.3050   78.3500  221.8860 C   0  0  0  0  0  0  0  0  0  0  0  0
  141.4310   77.8440  223.1680 C   0  0  0  0  0  0  0  0  0  0  0  0
  141.8590   78.7910  224.0150 N   0  0  0  0  0  0  0  0  0  0  0  0
  142.0270   79.9230  223.3450 C   0  0  0  0  0  0  0  0  0  0  0  0
  142.5760   81.4250  224.0580 Cl  0  0  0  0  0  0  0  0  0  0  0  0
  141.6900   79.6850  222.0080 C   0  0  0  0  0  0  0  0  0  0  0  0
  139.6970   71.2570  223.3760 C   0  0  0  0  0  0  0  0  0  0  0  0
  139.4040   69.8950  223.2810 C   0  0  0  0  0  0  0  0  0  0  0  0
  139.6030   69.0350  224.3320 C   0  0  0  0  0  0  0  0  0  0  0  0
  140.1090   69.5710  225.4980 C   0  0  0  0  0  0  0  0  0  0  0  0
  140.3080   68.7030  226.5510 C   0  0  0  0  0  0  0  0  0  0  0  0
  140.8200   69.2490  227.7320 C   0  0  0  0  0  0  0  0  0  0  0  0
  141.0780   68.1630  229.0780 Cl  0  0  0  0  0  0  0  0  0  0  0  0
  141.1040   70.5970  227.8060 C   0  0  0  0  0  0  0  0  0  0  0  0
  140.9030   71.4590  226.7470 C   0  0  0  0  0  0  0  0  0  0  0  0
  140.3900   70.9200  225.5630 C   0  0  0  0  0  0  0  0  0  0  0  0
  140.1890   71.7590  224.5180 N   0  0  0  0  0  0  0  0  0  0  0  0
  139.5530   73.8930  223.2550 H   0  0  0  0  0  0  0  0  0  0  0  0
  139.7741   73.8835  220.3006 H   0  0  0  0  0  0  0  0  0  0  0  0
  138.0731   74.1614  220.8733 H   0  0  0  0  0  0  0  0  0  0  0  0
  142.3618   75.2033  221.3803 H   0  0  0  0  0  0  0  0  0  0  0  0
  141.2063   74.3601  220.2326 H   0  0  0  0  0  0  0  0  0  0  0  0
  143.4377   75.0627  219.3100 H   0  0  0  0  0  0  0  0  0  0  0  0
  141.9303   75.5677  218.4267 H   0  0  0  0  0  0  0  0  0  0  0  0
  143.5883   77.2928  220.2850 H   0  0  0  0  0  0  0  0  0  0  0  0
  143.5529   77.3846  218.4987 H   0  0  0  0  0  0  0  0  0  0  0  0
  142.0390   79.0443  219.5555 H   0  0  0  0  0  0  0  0  0  0  0  0
  141.1444   77.8236  218.5518 H   0  0  0  0  0  0  0  0  0  0  0  0
  139.8519   78.0102  220.4152 H   0  0  0  0  0  0  0  0  0  0  0  0
  141.2098   76.8050  223.4535 H   0  0  0  0  0  0  0  0  0  0  0  0
  142.0330   78.6580  225.0400 H   0  0  0  0  0  0  0  0  0  0  0  0
  141.7230   80.4235  221.1934 H   0  0  0  0  0  0  0  0  0  0  0  0
  139.0020   69.4999  222.3364 H   0  0  0  0  0  0  0  0  0  0  0  0
  139.3689   67.9635  224.2481 H   0  0  0  0  0  0  0  0  0  0  0  0
  140.0749   67.6314  226.4658 H   0  0  0  0  0  0  0  0  0  0  0  0
  141.5067   71.0009  228.7466 H   0  0  0  0  0  0  0  0  0  0  0  0
  141.1377   72.5304  226.8312 H   0  0  0  0  0  0  0  0  0  0  0  0
  1  2  2  0
  2  3  1  0
  3  4  1  0
  4  5  1  0
  5  6  2  0
  5  7  1  0
  7  8  1  0
  8  9  1  0
  9 10  1  0
 10 11  1  0
 11 12  1  0
 12 13  1  0
 13 14  2  0
 14 15  1  0
 15 16  1  0
 16 17  1  0
 16 18  2  0
  2 19  1  0
 19 20  2  0
 20 21  1  0
 21 22  2  0
 22 23  1  0
 23 24  2  0
 24 25  1  0
 24 26  1  0
 26 27  2  0
 27 28  1  0
 28 29  2  0
 12  7  1  0
 18 13  1  0
 29 19  1  0
 28 22  1  0
  3 30  1  0
  4 31  1  0
  4 32  1  0
  8 33  1  0
  8 34  1  0
  9 35  1  0
  9 36  1  0
 10 37  1  0
 10 38  1  0
 11 39  1  0
 11 40  1  0
 12 41  1  6
 14 42  1  0
 15 43  1  0
 18 44  1  0
 20 45  1  0
 21 46  1  0
 23 47  1  0
 26 48  1  0
 27 49  1  0
M  END
>  <smiles>  (1) 
O=C(NCC(=O)N1CCCC[C@@H]1c1c[nH]c(Cl)c1)c1ccc2cc(Cl)ccc2n1

>  <score_type>  (1) 
oracle

>  <origin>  (1) 
autodockgpu

>  <m_score__min__energy>  (1) 
-8.9000000000000004

>  <m_primary>  (1) 
energy

>  <rmsd>  (1) 
1.8430725195297635

>  <m_score__min__rmsd>  (1) 
1.8430725195297635

>  <meeko>  (1) 
{"free_energy": -8.64, "intermolecular_energy": -10.13, "internal_energy": -1.43, "cluster_size": 23, "cluster_id": 1, "rank_in_cluster": 7}

>  <energy>  (1) 
-8.9

>  <cluster_rmsd>  (1) 
0.0

>  <cluster>  (1) 
1

$$$$

     RDKit          3D

 49 52  0  0  0  0  0  0  0  0999 V2000
  138.7850   71.7350  221.0100 O   0  0  0  0  0  0  0  0  0  0  0  0
  139.1180   72.2050  222.1280 C   0  0  0  0  0  0  0  0  0  0  0  0
  139.1940   73.6200  222.2320 N   0  0  0  0  0  0  0  0  0  0  0  0
  138.8960   74.4240  221.0910 C   0  0  0  0  0  0  0  0  0  0  0  0
  139.8540   74.1780  219.9610 C   0  0  0  0  0  0  0  0  0  0  0  0
  139.4740   73.6400  218.8860 O   0  0  0  0  0  0  0  0  0  0  0  0
  141.2120   74.5670  220.1290 N   0  0  0  0  0  0  0  0  0  0  0  0
  142.1320   73.5870  220.6360 C   0  0  0  0  0  0  0  0  0  0  0  0
  143.5120   73.6880  220.0760 C   0  0  0  0  0  0  0  0  0  0  0  0
  144.0230   75.0920  220.0700 C   0  0  0  0  0  0  0  0  0  0  0  0
  143.0700   75.9430  219.2670 C   0  0  0  0  0  0  0  0  0  0  0  0
  141.6610   75.8840  219.8080 C   0  0  2  0  0  0  0  0  0  0  0  0
  141.4570   76.8760  220.9060 C   0  0  0  0  0  0  0  0  0  0  0  0
  140.8810   76.6740  222.1490 C   0  0  0  0  0  0  0  0  0  0  0  0
  140.8760   77.8080  222.8640 N   0  0  0  0  0  0  0  0  0  0  0  0
  141.4290   78.7730  222.1420 C   0  0  0  0  0  0  0  0  0  0  0  0
  141.6300   80.4260  222.6850 Cl  0  0  0  0  0  0  0  0  0  0  0  0
  141.8060   78.2270  220.9100 C   0  0  0  0  0  0  0  0  0  0  0  0
  139.4190   71.3740  223.2890 C   0  0  0  0  0  0  0  0  0  0  0  0
  139.0730   70.0240  223.1950 C   0  0  0  0  0  0  0  0  0  0  0  0
  139.3060   69.1430  224.2210 C   0  0  0  0  0  0  0  0  0  0  0  0
  139.9020   69.6450  225.3600 C   0  0  0  0  0  0  0  0  0  0  0  0
  140.1350   68.7550  226.3880 C   0  0  0  0  0  0  0  0  0  0  0  0
  140.7370   69.2660  227.5410 C   0  0  0  0  0  0  0  0  0  0  0  0
  141.0400   68.1520  228.8550 Cl  0  0  0  0  0  0  0  0  0  0  0  0
  141.0720   70.6020  227.6150 C   0  0  0  0  0  0  0  0  0  0  0  0
  140.8360   71.4860  226.5810 C   0  0  0  0  0  0  0  0  0  0  0  0
  140.2330   70.9830  225.4250 C   0  0  0  0  0  0  0  0  0  0  0  0
  139.9970   71.8430  224.4050 N   0  0  0  0  0  0  0  0  0  0  0  0
  139.4750   74.0140  223.1790 H   0  0  0  0  0  0  0  0  0  0  0  0
  137.8768   74.1908  220.7491 H   0  0  0  0  0  0  0  0  0  0  0  0
  138.9857   75.4795  221.3875 H   0  0  0  0  0  0  0  0  0  0  0  0
  142.1943   73.7061  221.7278 H   0  0  0  0  0  0  0  0  0  0  0  0
  141.7418   72.6042  220.3331 H   0  0  0  0  0  0  0  0  0  0  0  0
  144.1868   73.0691  220.6856 H   0  0  0  0  0  0  0  0  0  0  0  0
  143.4771   73.3394  219.0333 H   0  0  0  0  0  0  0  0  0  0  0  0
  144.0804   75.4707  221.1012 H   0  0  0  0  0  0  0  0  0  0  0  0
  145.0278   75.1263  219.6236 H   0  0  0  0  0  0  0  0  0  0  0  0
  143.4170   76.9865  219.2946 H   0  0  0  0  0  0  0  0  0  0  0  0
  143.0541   75.5545  218.2380 H   0  0  0  0  0  0  0  0  0  0  0  0
  140.9996   76.1848  218.9821 H   0  0  0  0  0  0  0  0  0  0  0  0
  140.4812   75.7121  222.5023 H   0  0  0  0  0  0  0  0  0  0  0  0
  140.4940   77.9160  223.8340 H   0  0  0  0  0  0  0  0  0  0  0  0
  142.2935   78.7694  220.0865 H   0  0  0  0  0  0  0  0  0  0  0  0
  138.6003   69.6566  222.2722 H   0  0  0  0  0  0  0  0  0  0  0  0
  139.0294   68.0815  224.1390 H   0  0  0  0  0  0  0  0  0  0  0  0
  139.8599   67.6933  226.3041 H   0  0  0  0  0  0  0  0  0  0  0  0
  141.5458   70.9779  228.5338 H   0  0  0  0  0  0  0  0  0  0  0  0
  141.1125   72.5474  226.6641 H   0  0  0  0  0  0  0  0  0  0  0  0
  1  2  2  0
  2  3  1  0
  3  4  1  0
  4  5  1  0
  5  6  2  0
  5  7  1  0
  7  8  1  0
  8  9  1  0
  9 10  1  0
 10 11  1  0
 11 12  1  0
 12 13  1  0
 13 14  2  0
 14 15  1  0
 15 16  1  0
 16 17  1  0
 16 18  2  0
  2 19  1  0
 19 20  2  0
 20 21  1  0
 21 22  2  0
 22 23  1  0
 23 24  2  0
 24 25  1  0
 24 26  1  0
 26 27  2  0
 27 28  1  0
 28 29  2  0
 12  7  1  0
 18 13  1  0
 29 19  1  0
 28 22  1  0
  3 30  1  0
  4 31  1  0
  4 32  1  0
  8 33  1  0
  8 34  1  0
  9 35  1  0
  9 36  1  0
 10 37  1  0
 10 38  1  0
 11 39  1  0
 11 40  1  0
 12 41  1  6
 14 42  1  0
 15 43  1  0
 18 44  1  0
 20 45  1  0
 21 46  1  0
 23 47  1  0
 26 48  1  0
 27 49  1  0
M  END
>  <smiles>  (2) 
O=C(NCC(=O)N1CCCC[C@@H]1c1c[nH]c(Cl)c1)c1ccc2cc(Cl)ccc2n1

>  <score_type>  (2) 
oracle

>  <origin>  (2) 
autodockgpu

>  <m_score__min__energy>  (2) 
-8.9000000000000004

>  <m_primary>  (2) 
energy

>  <rmsd>  (2) 
2.3111093913652256

>  <m_score__min__rmsd>  (2) 
2.3111093913652256

>  <meeko>  (2) 
{"free_energy": -8.14, "intermolecular_energy": -9.64, "internal_energy": -1.59, "cluster_size": 23, "cluster_id": 1, "rank_in_cluster": 19}

>  <energy>  (2) 
-8.86

>  <cluster_rmsd>  (2) 
0.16

>  <cluster>  (2) 
1

$$$$

     RDKit          3D

 49 52  0  0  0  0  0  0  0  0999 V2000
  138.5580   71.4120  221.2020 O   0  0  0  0  0  0  0  0  0  0  0  0
  139.0110   71.9210  222.2600 C   0  0  0  0  0  0  0  0  0  0  0  0
  139.1890   73.3310  222.2690 N   0  0  0  0  0  0  0  0  0  0  0  0
  138.8530   74.0870  221.1060 C   0  0  0  0  0  0  0  0  0  0  0  0
  139.7730   73.7940  219.9570 C   0  0  0  0  0  0  0  0  0  0  0  0
  139.3270   73.4020  218.8440 O   0  0  0  0  0  0  0  0  0  0  0  0
  141.1720   73.9700  220.1490 N   0  0  0  0  0  0  0  0  0  0  0  0
  141.8520   73.0390  221.0060 C   0  0  0  0  0  0  0  0  0  0  0  0
  143.2500   72.7250  220.5890 C   0  0  0  0  0  0  0  0  0  0  0  0
  144.0300   73.9500  220.2390 C   0  0  0  0  0  0  0  0  0  0  0  0
  143.3060   74.6770  219.1330 C   0  0  0  0  0  0  0  0  0  0  0  0
  141.8890   75.0310  219.5180 C   0  0  2  0  0  0  0  0  0  0  0  0
  141.8340   76.3250  220.2630 C   0  0  0  0  0  0  0  0  0  0  0  0
  142.5110   77.5010  219.9910 C   0  0  0  0  0  0  0  0  0  0  0  0
  142.2020   78.4490  220.8860 N   0  0  0  0  0  0  0  0  0  0  0  0
  141.3360   77.9510  221.7580 C   0  0  0  0  0  0  0  0  0  0  0  0
  140.6600   78.8430  223.1040 Cl  0  0  0  0  0  0  0  0  0  0  0  0
  141.0810   76.6220  221.3990 C   0  0  0  0  0  0  0  0  0  0  0  0
  139.3500   71.1380  223.4440 C   0  0  0  0  0  0  0  0  0  0  0  0
  139.0250   69.7810  223.4080 C   0  0  0  0  0  0  0  0  0  0  0  0
  139.2940   68.9420  224.4600 C   0  0  0  0  0  0  0  0  0  0  0  0
  139.9050   69.4950  225.5670 C   0  0  0  0  0  0  0  0  0  0  0  0
  140.1740   68.6480  226.6210 C   0  0  0  0  0  0  0  0  0  0  0  0
  140.7910   69.2110  227.7420 C   0  0  0  0  0  0  0  0  0  0  0  0
  141.1400   68.1510  229.0890 Cl  0  0  0  0  0  0  0  0  0  0  0  0
  141.1050   70.5540  227.7590 C   0  0  0  0  0  0  0  0  0  0  0  0
  140.8330   71.3960  226.6990 C   0  0  0  0  0  0  0  0  0  0  0  0
  140.2150   70.8390  225.5750 C   0  0  0  0  0  0  0  0  0  0  0  0
  139.9430   71.6570  224.5300 N   0  0  0  0  0  0  0  0  0  0  0  0
  139.5710   73.7570  223.1650 H   0  0  0  0  0  0  0  0  0  0  0  0
  137.8233   73.8403  220.8078 H   0  0  0  0  0  0  0  0  0  0  0  0
  138.9515   75.1538  221.3553 H   0  0  0  0  0  0  0  0  0  0  0  0
  141.8827   73.4641  222.0201 H   0  0  0  0  0  0  0  0  0  0  0  0
  141.2893   72.0953  220.9535 H   0  0  0  0  0  0  0  0  0  0  0  0
  143.7575   72.2078  221.4166 H   0  0  0  0  0  0  0  0  0  0  0  0
  143.1974   72.0934  219.6900 H   0  0  0  0  0  0  0  0  0  0  0  0
  144.1120   74.6025  221.1207 H   0  0  0  0  0  0  0  0  0  0  0  0
  145.0417   73.6718  219.9088 H   0  0  0  0  0  0  0  0  0  0  0  0
  143.8522   75.6031  218.9004 H   0  0  0  0  0  0  0  0  0  0  0  0
  143.2629   74.0090  218.2601 H   0  0  0  0  0  0  0  0  0  0  0  0
  141.3411   75.1841  218.5765 H   0  0  0  0  0  0  0  0  0  0  0  0
  143.2093   77.6390  219.1523 H   0  0  0  0  0  0  0  0  0  0  0  0
  142.5840   79.4250  220.8970 H   0  0  0  0  0  0  0  0  0  0  0  0
  140.4037   75.9312  221.9225 H   0  0  0  0  0  0  0  0  0  0  0  0
  138.5389   69.3721  222.5099 H   0  0  0  0  0  0  0  0  0  0  0  0
  139.0337   67.8739  224.4225 H   0  0  0  0  0  0  0  0  0  0  0  0
  139.9153   67.5796  226.5817 H   0  0  0  0  0  0  0  0  0  0  0  0
  141.5917   70.9710  228.6530 H   0  0  0  0  0  0  0  0  0  0  0  0
  141.0925   72.4643  226.7372 H   0  0  0  0  0  0  0  0  0  0  0  0
  1  2  2  0
  2  3  1  0
  3  4  1  0
  4  5  1  0
  5  6  2  0
  5  7  1  0
  7  8  1  0
  8  9  1  0
  9 10  1  0
 10 11  1  0
 11 12  1  0
 12 13  1  0
 13 14  2  0
 14 15  1  0
 15 16  1  0
 16 17  1  0
 16 18  2  0
  2 19  1  0
 19 20  2  0
 20 21  1  0
 21 22  2  0
 22 23  1  0
 23 24  2  0
 24 25  1  0
 24 26  1  0
 26 27  2  0
 27 28  1  0
 28 29  2  0
 12  7  1  0
 18 13  1  0
 29 19  1  0
 28 22  1  0
  3 30  1  0
  4 31  1  0
  4 32  1  0
  8 33  1  0
  8 34  1  0
  9 35  1  0
  9 36  1  0
 10 37  1  0
 10 38  1  0
 11 39  1  0
 11 40  1  0
 12 41  1  6
 14 42  1  0
 15 43  1  0
 18 44  1  0
 20 45  1  0
 21 46  1  0
 23 47  1  0
 26 48  1  0
 27 49  1  0
M  END
>  <smiles>  (3) 
O=C(NCC(=O)N1CCCC[C@@H]1c1c[nH]c(Cl)c1)c1ccc2cc(Cl)ccc2n1

>  <score_type>  (3) 
oracle

>  <origin>  (3) 
autodockgpu

>  <m_score__min__energy>  (3) 
-8.9000000000000004

>  <m_primary>  (3) 
energy

>  <rmsd>  (3) 
2.5730959636784556

>  <m_score__min__rmsd>  (3) 
2.5730959636784556

>  <meeko>  (3) 
{"free_energy": -7.9, "intermolecular_energy": -9.39, "internal_energy": -1.69, "cluster_size": 23, "cluster_id": 1, "rank_in_cluster": 23}

>  <energy>  (3) 
-8.78

>  <cluster_rmsd>  (3) 
0.27

>  <cluster>  (3) 
1

$$$$

     RDKit          3D

 49 52  0  0  0  0  0  0  0  0999 V2000
  139.0210   71.8240  220.8760 O   0  0  0  0  0  0  0  0  0  0  0  0
  139.2220   72.2790  222.0310 C   0  0  0  0  0  0  0  0  0  0  0  0
  139.1600   73.6900  222.1860 N   0  0  0  0  0  0  0  0  0  0  0  0
  138.8790   74.5070  221.0500 C   0  0  0  0  0  0  0  0  0  0  0  0
  139.5180   75.8620  221.1570 C   0  0  0  0  0  0  0  0  0  0  0  0
  138.8770   76.8550  221.5960 O   0  0  0  0  0  0  0  0  0  0  0  0
  140.8730   76.0040  220.7490 N   0  0  0  0  0  0  0  0  0  0  0  0
  141.8160   75.0210  221.2050 C   0  0  0  0  0  0  0  0  0  0  0  0
  142.8970   74.7020  220.2260 C   0  0  0  0  0  0  0  0  0  0  0  0
  143.5020   75.9290  219.6250 C   0  0  0  0  0  0  0  0  0  0  0  0
  142.4070   76.7210  218.9540 C   0  0  0  0  0  0  0  0  0  0  0  0
  141.2970   77.0810  219.9130 C   0  0  2  0  0  0  0  0  0  0  0  0
  141.6060   78.3380  220.6570 C   0  0  0  0  0  0  0  0  0  0  0  0
  141.7660   79.6170  220.1520 C   0  0  0  0  0  0  0  0  0  0  0  0
  142.0380   80.4890  221.1340 N   0  0  0  0  0  0  0  0  0  0  0  0
  142.0670   79.8390  222.2890 C   0  0  0  0  0  0  0  0  0  0  0  0
  142.3880   80.5870  223.8400 Cl  0  0  0  0  0  0  0  0  0  0  0  0
  141.8010   78.4890  222.0310 C   0  0  0  0  0  0  0  0  0  0  0  0
  139.5060   71.4340  223.1860 C   0  0  0  0  0  0  0  0  0  0  0  0
  139.1600   70.0860  223.0730 C   0  0  0  0  0  0  0  0  0  0  0  0
  139.3790   69.1920  224.0910 C   0  0  0  0  0  0  0  0  0  0  0  0
  139.9610   69.6790  225.2430 C   0  0  0  0  0  0  0  0  0  0  0  0
  140.1790   68.7770  226.2630 C   0  0  0  0  0  0  0  0  0  0  0  0
  140.7680   69.2730  227.4300 C   0  0  0  0  0  0  0  0  0  0  0  0
  141.0530   68.1430  228.7340 Cl  0  0  0  0  0  0  0  0  0  0  0  0
  141.1050   70.6080  227.5230 C   0  0  0  0  0  0  0  0  0  0  0  0
  140.8830   71.5040  226.4970 C   0  0  0  0  0  0  0  0  0  0  0  0
  140.2940   71.0150  225.3270 C   0  0  0  0  0  0  0  0  0  0  0  0
  140.0720   71.8880  224.3150 N   0  0  0  0  0  0  0  0  0  0  0  0
  139.3290   74.0700  223.1650 H   0  0  0  0  0  0  0  0  0  0  0  0
  139.2607   74.0049  220.1488 H   0  0  0  0  0  0  0  0  0  0  0  0
  137.7896   74.6494  220.9962 H   0  0  0  0  0  0  0  0  0  0  0  0
  142.2859   75.3964  222.1260 H   0  0  0  0  0  0  0  0  0  0  0  0
  141.2493   74.0911  221.3607 H   0  0  0  0  0  0  0  0  0  0  0  0
  143.6860   74.1361  220.7430 H   0  0  0  0  0  0  0  0  0  0  0  0
  142.4484   74.1156  219.4106 H   0  0  0  0  0  0  0  0  0  0  0  0
  143.9701   76.5367  220.4134 H   0  0  0  0  0  0  0  0  0  0  0  0
  144.2709   75.6496  218.8897 H   0  0  0  0  0  0  0  0  0  0  0  0
  142.8380   77.6474  218.5464 H   0  0  0  0  0  0  0  0  0  0  0  0
  141.9769   76.0966  218.1570 H   0  0  0  0  0  0  0  0  0  0  0  0
  140.4104   77.2882  219.2958 H   0  0  0  0  0  0  0  0  0  0  0  0
  141.6814   79.8825  219.0879 H   0  0  0  0  0  0  0  0  0  0  0  0
  142.2010   81.5160  221.0090 H   0  0  0  0  0  0  0  0  0  0  0  0
  141.7538   77.6860  222.7813 H   0  0  0  0  0  0  0  0  0  0  0  0
  138.6982   69.7300  222.1403 H   0  0  0  0  0  0  0  0  0  0  0  0
  139.1022   68.1320  223.9925 H   0  0  0  0  0  0  0  0  0  0  0  0
  139.9025   67.7170  226.1632 H   0  0  0  0  0  0  0  0  0  0  0  0
  141.5688   70.9724  228.4515 H   0  0  0  0  0  0  0  0  0  0  0  0
  141.1593   72.5641  226.5961 H   0  0  0  0  0  0  0  0  0  0  0  0
  1  2  2  0
  2  3  1  0
  3  4  1  0
  4  5  1  0
  5  6  2  0
  5  7  1  0
  7  8  1  0
  8  9  1  0
  9 10  1  0
 10 11  1  0
 11 12  1  0
 12 13  1  0
 13 14  2  0
 14 15  1  0
 15 16  1  0
 16 17  1  0
 16 18  2  0
  2 19  1  0
 19 20  2  0
 20 21  1  0
 21 22  2  0
 22 23  1  0
 23 24  2  0
 24 25  1  0
 24 26  1  0
 26 27  2  0
 27 28  1  0
 28 29  2  0
 12  7  1  0
 18 13  1  0
 29 19  1  0
 28 22  1  0
  3 30  1  0
  4 31  1  0
  4 32  1  0
  8 33  1  0
  8 34  1  0
  9 35  1  0
  9 36  1  0
 10 37  1  0
 10 38  1  0
 11 39  1  0
 11 40  1  0
 12 41  1  6
 14 42  1  0
 15 43  1  0
 18 44  1  0
 20 45  1  0
 21 46  1  0
 23 47  1  0
 26 48  1  0
 27 49  1  0
M  END
>  <smiles>  (4) 
O=C(NCC(=O)N1CCCC[C@@H]1c1c[nH]c(Cl)c1)c1ccc2cc(Cl)ccc2n1

>  <score_type>  (4) 
oracle

>  <origin>  (4) 
autodockgpu

>  <m_score__min__energy>  (4) 
-8.9000000000000004

>  <m_primary>  (4) 
energy

>  <rmsd>  (4) 
2.074551051612986

>  <m_score__min__rmsd>  (4) 
2.074551051612986

>  <meeko>  (4) 
{"free_energy": -8.57, "intermolecular_energy": -10.06, "internal_energy": -1.52, "cluster_size": 23, "cluster_id": 1, "rank_in_cluster": 8}

>  <energy>  (4) 
-8.76

>  <cluster_rmsd>  (4) 
0.38

>  <cluster>  (4) 
1

$$$$

     RDKit          3D

 49 52  0  0  0  0  0  0  0  0999 V2000
  138.2770   71.4680  220.8560 O   0  0  0  0  0  0  0  0  0  0  0  0
  138.6880   71.9930  221.9230 C   0  0  0  0  0  0  0  0  0  0  0  0
  138.7760   73.4100  221.9490 N   0  0  0  0  0  0  0  0  0  0  0  0
  138.4030   74.1560  220.7900 C   0  0  0  0  0  0  0  0  0  0  0  0
  139.3750   73.9720  219.6620 C   0  0  0  0  0  0  0  0  0  0  0  0
  139.3010   72.9800  218.8880 O   0  0  0  0  0  0  0  0  0  0  0  0
  140.3930   74.9500  219.4810 N   0  0  0  0  0  0  0  0  0  0  0  0
  140.4790   75.5990  218.2020 C   0  0  0  0  0  0  0  0  0  0  0  0
  140.9040   77.0280  218.2630 C   0  0  0  0  0  0  0  0  0  0  0  0
  142.0830   77.2340  219.1580 C   0  0  0  0  0  0  0  0  0  0  0  0
  141.7280   76.7370  220.5370 C   0  0  0  0  0  0  0  0  0  0  0  0
  141.3060   75.2860  220.5260 C   0  0  2  0  0  0  0  0  0  0  0  0
  142.4860   74.3740  220.6140 C   0  0  0  0  0  0  0  0  0  0  0  0
  142.5050   73.0210  220.9080 C   0  0  0  0  0  0  0  0  0  0  0  0
  143.7590   72.5460  220.8930 N   0  0  0  0  0  0  0  0  0  0  0  0
  144.5900   73.5370  220.6010 C   0  0  0  0  0  0  0  0  0  0  0  0
  146.3280   73.3680  220.4750 Cl  0  0  0  0  0  0  0  0  0  0  0  0
  143.8290   74.6980  220.4180 C   0  0  0  0  0  0  0  0  0  0  0  0
  139.0650   71.2200  223.1020 C   0  0  0  0  0  0  0  0  0  0  0  0
  138.7080   69.8700  223.1030 C   0  0  0  0  0  0  0  0  0  0  0  0
  139.0090   69.0410  224.1550 C   0  0  0  0  0  0  0  0  0  0  0  0
  139.6850   69.5960  225.2220 C   0  0  0  0  0  0  0  0  0  0  0  0
  139.9850   68.7590  226.2760 C   0  0  0  0  0  0  0  0  0  0  0  0
  140.6680   69.3230  227.3570 C   0  0  0  0  0  0  0  0  0  0  0  0
  141.0570   68.2760  228.7030 Cl  0  0  0  0  0  0  0  0  0  0  0  0
  141.0130   70.6600  227.3370 C   0  0  0  0  0  0  0  0  0  0  0  0
  140.7090   71.4910  226.2780 C   0  0  0  0  0  0  0  0  0  0  0  0
  140.0250   70.9330  225.1940 C   0  0  0  0  0  0  0  0  0  0  0  0
  139.7220   71.7410  224.1490 N   0  0  0  0  0  0  0  0  0  0  0  0
  139.1230   73.8500  222.8530 H   0  0  0  0  0  0  0  0  0  0  0  0
  137.4084   73.8227  220.4588 H   0  0  0  0  0  0  0  0  0  0  0  0
  138.3975   75.2220  221.0612 H   0  0  0  0  0  0  0  0  0  0  0  0
  141.2062   75.0499  217.5858 H   0  0  0  0  0  0  0  0  0  0  0  0
  139.4643   75.5912  217.7773 H   0  0  0  0  0  0  0  0  0  0  0  0
  141.1680   77.3617  217.2486 H   0  0  0  0  0  0  0  0  0  0  0  0
  140.0656   77.6100  218.6734 H   0  0  0  0  0  0  0  0  0  0  0  0
  142.9455   76.6715  218.7712 H   0  0  0  0  0  0  0  0  0  0  0  0
  142.3449   78.3016  219.1974 H   0  0  0  0  0  0  0  0  0  0  0  0
  142.6060   76.8463  221.1906 H   0  0  0  0  0  0  0  0  0  0  0  0
  140.8805   77.3339  220.9049 H   0  0  0  0  0  0  0  0  0  0  0  0
  140.7156   75.1288  221.4408 H   0  0  0  0  0  0  0  0  0  0  0  0
  141.6116   72.4170  221.1247 H   0  0  0  0  0  0  0  0  0  0  0  0
  144.0370   71.5540  221.0840 H   0  0  0  0  0  0  0  0  0  0  0  0
  144.2219   75.6934  220.1637 H   0  0  0  0  0  0  0  0  0  0  0  0
  138.1701   69.4590  222.2359 H   0  0  0  0  0  0  0  0  0  0  0  0
  138.7232   67.9788  224.1476 H   0  0  0  0  0  0  0  0  0  0  0  0
  139.6999   67.6966  226.2664 H   0  0  0  0  0  0  0  0  0  0  0  0
  141.5516   71.0793  228.1996 H   0  0  0  0  0  0  0  0  0  0  0  0
  140.9944   72.5533  226.2865 H   0  0  0  0  0  0  0  0  0  0  0  0
  1  2  2  0
  2  3  1  0
  3  4  1  0
  4  5  1  0
  5  6  2  0
  5  7  1  0
  7  8  1  0
  8  9  1  0
  9 10  1  0
 10 11  1  0
 11 12  1  0
 12 13  1  0
 13 14  2  0
 14 15  1  0
 15 16  1  0
 16 17  1  0
 16 18  2  0
  2 19  1  0
 19 20  2  0
 20 21  1  0
 21 22  2  0
 22 23  1  0
 23 24  2  0
 24 25  1  0
 24 26  1  0
 26 27  2  0
 27 28  1  0
 28 29  2  0
 12  7  1  0
 18 13  1  0
 29 19  1  0
 28 22  1  0
  3 30  1  0
  4 31  1  0
  4 32  1  0
  8 33  1  0
  8 34  1  0
  9 35  1  0
  9 36  1  0
 10 37  1  0
 10 38  1  0
 11 39  1  0
 11 40  1  0
 12 41  1  1
 14 42  1  0
 15 43  1  0
 18 44  1  0
 20 45  1  0
 21 46  1  0
 23 47  1  0
 26 48  1  0
 27 49  1  0
M  END
>  <smiles>  (5) 
O=C(NCC(=O)N1CCCC[C@@H]1c1c[nH]c(Cl)c1)c1ccc2cc(Cl)ccc2n1

>  <score_type>  (5) 
oracle

>  <origin>  (5) 
autodockgpu

>  <m_score__min__energy>  (5) 
-8.9000000000000004

>  <m_primary>  (5) 
energy

>  <rmsd>  (5) 
1.6784048421635311

>  <m_score__min__rmsd>  (5) 
1.6784048421635311

>  <meeko>  (5) 
{"free_energy": -7.52, "intermolecular_energy": -9.01, "internal_energy": -1.64, "cluster_size": 9, "cluster_id": 3, "rank_in_cluster": 9}

>  <energy>  (5) 
-8.73

>  <cluster_rmsd>  (5) 
1.25

>  <cluster>  (5) 
1

$$$$

     RDKit          3D

 49 52  0  0  0  0  0  0  0  0999 V2000
  139.5040   71.8630  220.7050 O   0  0  0  0  0  0  0  0  0  0  0  0
  139.3560   72.2760  221.8840 C   0  0  0  0  0  0  0  0  0  0  0  0
  138.9180   73.6180  222.0450 N   0  0  0  0  0  0  0  0  0  0  0  0
  138.6730   74.4180  220.8880 C   0  0  0  0  0  0  0  0  0  0  0  0
  139.2010   75.8140  221.0430 C   0  0  0  0  0  0  0  0  0  0  0  0
  138.4540   76.7590  221.4160 O   0  0  0  0  0  0  0  0  0  0  0  0
  140.5740   76.0530  220.7580 N   0  0  0  0  0  0  0  0  0  0  0  0
  141.4580   74.9210  220.7250 C   0  0  0  0  0  0  0  0  0  0  0  0
  142.5560   75.0250  219.7190 C   0  0  0  0  0  0  0  0  0  0  0  0
  143.2340   76.3560  219.7500 C   0  0  0  0  0  0  0  0  0  0  0  0
  142.1980   77.4240  219.5030 C   0  0  0  0  0  0  0  0  0  0  0  0
  141.0720   77.3680  220.5100 C   0  0  2  0  0  0  0  0  0  0  0  0
  141.4110   78.1290  221.7490 C   0  0  0  0  0  0  0  0  0  0  0  0
  141.3900   77.6870  223.0610 C   0  0  0  0  0  0  0  0  0  0  0  0
  141.7600   78.6630  223.9010 N   0  0  0  0  0  0  0  0  0  0  0  0
  142.0310   79.7550  223.1990 C   0  0  0  0  0  0  0  0  0  0  0  0
  142.5530   81.2760  223.8920 Cl  0  0  0  0  0  0  0  0  0  0  0  0
  141.8240   79.4590  221.8470 C   0  0  0  0  0  0  0  0  0  0  0  0
  139.6080   71.4500  223.0600 C   0  0  0  0  0  0  0  0  0  0  0  0
  139.2740   70.0980  222.9550 C   0  0  0  0  0  0  0  0  0  0  0  0
  139.4660   69.2200  223.9930 C   0  0  0  0  0  0  0  0  0  0  0  0
  140.0080   69.7280  225.1560 C   0  0  0  0  0  0  0  0  0  0  0  0
  140.1980   68.8430  226.1960 C   0  0  0  0  0  0  0  0  0  0  0  0
  140.7460   69.3590  227.3730 C   0  0  0  0  0  0  0  0  0  0  0  0
  140.9960   68.2510  228.7030 Cl  0  0  0  0  0  0  0  0  0  0  0  0
  141.0710   70.6980  227.4580 C   0  0  0  0  0  0  0  0  0  0  0  0
  140.8770   71.5780  226.4120 C   0  0  0  0  0  0  0  0  0  0  0  0
  140.3290   71.0680  225.2310 C   0  0  0  0  0  0  0  0  0  0  0  0
  140.1340   71.9240  224.1990 N   0  0  0  0  0  0  0  0  0  0  0  0
  138.7940   73.9640  223.0430 H   0  0  0  0  0  0  0  0  0  0  0  0
  139.1623   73.9481  220.0221 H   0  0  0  0  0  0  0  0  0  0  0  0
  137.5841   74.4822  220.7458 H   0  0  0  0  0  0  0  0  0  0  0  0
  141.9128   74.8106  221.7205 H   0  0  0  0  0  0  0  0  0  0  0  0
  140.8469   74.0539  220.4341 H   0  0  0  0  0  0  0  0  0  0  0  0
  143.3017   74.2439  219.9283 H   0  0  0  0  0  0  0  0  0  0  0  0
  142.1094   74.8997  218.7216 H   0  0  0  0  0  0  0  0  0  0  0  0
  143.7012   76.5121  220.7335 H   0  0  0  0  0  0  0  0  0  0  0  0
  144.0146   76.4006  218.9763 H   0  0  0  0  0  0  0  0  0  0  0  0
  142.6824   78.4095  219.5671 H   0  0  0  0  0  0  0  0  0  0  0  0
  141.7683   77.2545  218.5047 H   0  0  0  0  0  0  0  0  0  0  0  0
  140.2166   77.8817  220.0469 H   0  0  0  0  0  0  0  0  0  0  0  0
  141.1073   76.6705  223.3721 H   0  0  0  0  0  0  0  0  0  0  0  0
  141.8240   78.5790  224.9440 H   0  0  0  0  0  0  0  0  0  0  0  0
  141.9628   80.1545  221.0062 H   0  0  0  0  0  0  0  0  0  0  0  0
  138.8446   69.7257  222.0132 H   0  0  0  0  0  0  0  0  0  0  0  0
  139.1991   68.1568  223.9014 H   0  0  0  0  0  0  0  0  0  0  0  0
  139.9305   67.7800  226.1033 H   0  0  0  0  0  0  0  0  0  0  0  0
  141.5014   71.0788  228.3959 H   0  0  0  0  0  0  0  0  0  0  0  0
  141.1437   72.6412  226.5043 H   0  0  0  0  0  0  0  0  0  0  0  0
  1  2  2  0
  2  3  1  0
  3  4  1  0
  4  5  1  0
  5  6  2  0
  5  7  1  0
  7  8  1  0
  8  9  1  0
  9 10  1  0
 10 11  1  0
 11 12  1  0
 12 13  1  0
 13 14  2  0
 14 15  1  0
 15 16  1  0
 16 17  1  0
 16 18  2  0
  2 19  1  0
 19 20  2  0
 20 21  1  0
 21 22  2  0
 22 23  1  0
 23 24  2  0
 24 25  1  0
 24 26  1  0
 26 27  2  0
 27 28  1  0
 28 29  2  0
 12  7  1  0
 18 13  1  0
 29 19  1  0
 28 22  1  0
  3 30  1  0
  4 31  1  0
  4 32  1  0
  8 33  1  0
  8 34  1  0
  9 35  1  0
  9 36  1  0
 10 37  1  0
 10 38  1  0
 11 39  1  0
 11 40  1  0
 12 41  1  6
 14 42  1  0
 15 43  1  0
 18 44  1  0
 20 45  1  0
 21 46  1  0
 23 47  1  0
 26 48  1  0
 27 49  1  0
M  END
>  <smiles>  (6) 
O=C(NCC(=O)N1CCCC[C@@H]1c1c[nH]c(Cl)c1)c1ccc2cc(Cl)ccc2n1

>  <score_type>  (6) 
oracle

>  <origin>  (6) 
autodockgpu

>  <m_score__min__energy>  (6) 
-8.9000000000000004

>  <m_primary>  (6) 
energy

>  <rmsd>  (6) 
1.89228734206193

>  <m_score__min__rmsd>  (6) 
1.89228734206193

>  <meeko>  (6) 
{"free_energy": -8.78, "intermolecular_energy": -10.27, "internal_energy": -1.44, "cluster_size": 23, "cluster_id": 1, "rank_in_cluster": 3}

>  <energy>  (6) 
-8.68

>  <cluster_rmsd>  (6) 
1.28

>  <cluster>  (6) 
1

$$$$

     RDKit          3D

 49 52  0  0  0  0  0  0  0  0999 V2000
  138.4220   71.6840  220.8750 O   0  0  0  0  0  0  0  0  0  0  0  0
  138.8180   72.1890  221.9570 C   0  0  0  0  0  0  0  0  0  0  0  0
  138.9000   73.6060  222.0140 N   0  0  0  0  0  0  0  0  0  0  0  0
  138.5390   74.3740  220.8660 C   0  0  0  0  0  0  0  0  0  0  0  0
  139.5770   74.2960  219.7840 C   0  0  0  0  0  0  0  0  0  0  0  0
  139.2570   74.0830  218.5840 O   0  0  0  0  0  0  0  0  0  0  0  0
  140.9430   74.4690  220.1440 N   0  0  0  0  0  0  0  0  0  0  0  0
  141.6070   73.3740  220.7960 C   0  0  0  0  0  0  0  0  0  0  0  0
  143.0500   73.2310  220.4430 C   0  0  0  0  0  0  0  0  0  0  0  0
  143.7810   74.5340  220.4910 C   0  0  0  0  0  0  0  0  0  0  0  0
  143.1060   75.4940  219.5430 C   0  0  0  0  0  0  0  0  0  0  0  0
  141.6430   75.6830  219.8720 C   0  0  2  0  0  0  0  0  0  0  0  0
  141.4510   76.7370  220.9130 C   0  0  0  0  0  0  0  0  0  0  0  0
  140.8720   76.6120  222.1640 C   0  0  0  0  0  0  0  0  0  0  0  0
  140.8800   77.7850  222.8140 N   0  0  0  0  0  0  0  0  0  0  0  0
  141.4460   78.7010  222.0400 C   0  0  0  0  0  0  0  0  0  0  0  0
  141.6670   80.3790  222.4900 Cl  0  0  0  0  0  0  0  0  0  0  0  0
  141.8170   78.0820  220.8410 C   0  0  0  0  0  0  0  0  0  0  0  0
  139.1830   71.3930  223.1250 C   0  0  0  0  0  0  0  0  0  0  0  0
  138.8380   70.0400  223.0900 C   0  0  0  0  0  0  0  0  0  0  0  0
  139.1290   69.1900  224.1280 C   0  0  0  0  0  0  0  0  0  0  0  0
  139.7820   69.7270  225.2180 C   0  0  0  0  0  0  0  0  0  0  0  0
  140.0720   68.8690  226.2580 C   0  0  0  0  0  0  0  0  0  0  0  0
  140.7320   69.4150  227.3630 C   0  0  0  0  0  0  0  0  0  0  0  0
  141.1090   68.3420  228.6910 Cl  0  0  0  0  0  0  0  0  0  0  0  0
  141.0650   70.7550  227.3780 C   0  0  0  0  0  0  0  0  0  0  0  0
  140.7720   71.6070  226.3330 C   0  0  0  0  0  0  0  0  0  0  0  0
  140.1100   71.0670  225.2260 C   0  0  0  0  0  0  0  0  0  0  0  0
  139.8170   71.8960  224.1950 N   0  0  0  0  0  0  0  0  0  0  0  0
  139.2340   74.0280  222.9310 H   0  0  0  0  0  0  0  0  0  0  0  0
  137.5855   73.9938  220.4706 H   0  0  0  0  0  0  0  0  0  0  0  0
  138.4520   75.4258  221.1762 H   0  0  0  0  0  0  0  0  0  0  0  0
  141.5318   73.5240  221.8831 H   0  0  0  0  0  0  0  0  0  0  0  0
  141.1074   72.4553  220.4548 H   0  0  0  0  0  0  0  0  0  0  0  0
  143.5203   72.5359  221.1541 H   0  0  0  0  0  0  0  0  0  0  0  0
  143.1067   72.8528  219.4116 H   0  0  0  0  0  0  0  0  0  0  0  0
  143.7516   74.9390  221.5133 H   0  0  0  0  0  0  0  0  0  0  0  0
  144.8313   74.3891  220.1978 H   0  0  0  0  0  0  0  0  0  0  0  0
  143.6123   76.4686  219.6048 H   0  0  0  0  0  0  0  0  0  0  0  0
  143.1737   75.0729  218.5290 H   0  0  0  0  0  0  0  0  0  0  0  0
  141.1642   76.0532  218.9534 H   0  0  0  0  0  0  0  0  0  0  0  0
  140.4606   75.6763  222.5704 H   0  0  0  0  0  0  0  0  0  0  0  0
  140.5000   77.9510  223.7770 H   0  0  0  0  0  0  0  0  0  0  0  0
  142.3117   78.5710  219.9889 H   0  0  0  0  0  0  0  0  0  0  0  0
  138.3181   69.6441  222.2051 H   0  0  0  0  0  0  0  0  0  0  0  0
  138.8531   68.1258  224.0921 H   0  0  0  0  0  0  0  0  0  0  0  0
  139.7969   67.8046  226.2199 H   0  0  0  0  0  0  0  0  0  0  0  0
  141.5850   71.1597  228.2588 H   0  0  0  0  0  0  0  0  0  0  0  0
  141.0488   72.6710  226.3693 H   0  0  0  0  0  0  0  0  0  0  0  0
  1  2  2  0
  2  3  1  0
  3  4  1  0
  4  5  1  0
  5  6  2  0
  5  7  1  0
  7  8  1  0
  8  9  1  0
  9 10  1  0
 10 11  1  0
 11 12  1  0
 12 13  1  0
 13 14  2  0
 14 15  1  0
 15 16  1  0
 16 17  1  0
 16 18  2  0
  2 19  1  0
 19 20  2  0
 20 21  1  0
 21 22  2  0
 22 23  1  0
 23 24  2  0
 24 25  1  0
 24 26  1  0
 26 27  2  0
 27 28  1  0
 28 29  2  0
 12  7  1  0
 18 13  1  0
 29 19  1  0
 28 22  1  0
  3 30  1  0
  4 31  1  0
  4 32  1  0
  8 33  1  0
  8 34  1  0
  9 35  1  0
  9 36  1  0
 10 37  1  0
 10 38  1  0
 11 39  1  0
 11 40  1  0
 12 41  1  6
 14 42  1  0
 15 43  1  0
 18 44  1  0
 20 45  1  0
 21 46  1  0
 23 47  1  0
 26 48  1  0
 27 49  1  0
M  END
>  <smiles>  (7) 
O=C(NCC(=O)N1CCCC[C@@H]1c1c[nH]c(Cl)c1)c1ccc2cc(Cl)ccc2n1

>  <score_type>  (7) 
oracle

>  <origin>  (7) 
autodockgpu

>  <m_score__min__energy>  (7) 
-8.9000000000000004

>  <m_primary>  (7) 
energy

>  <rmsd>  (7) 
2.3543204518841865

>  <m_score__min__rmsd>  (7) 
2.3543204518841865

>  <meeko>  (7) 
{"free_energy": -7.92, "intermolecular_energy": -9.42, "internal_energy": -1.71, "cluster_size": 23, "cluster_id": 1, "rank_in_cluster": 22}

>  <energy>  (7) 
-8.64

>  <cluster_rmsd>  (7) 
0.43

>  <cluster>  (7) 
1

$$$$

     RDKit          3D

 49 52  0  0  0  0  0  0  0  0999 V2000
  134.8130   68.2830  224.6640 O   0  0  0  0  0  0  0  0  0  0  0  0
  135.1000   69.4200  224.2090 C   0  0  0  0  0  0  0  0  0  0  0  0
  135.9000   69.4600  223.0360 N   0  0  0  0  0  0  0  0  0  0  0  0
  136.3320   68.2360  222.4410 C   0  0  0  0  0  0  0  0  0  0  0  0
  137.8010   67.9990  222.6400 C   0  0  0  0  0  0  0  0  0  0  0  0
  138.3190   66.8730  222.4090 O   0  0  0  0  0  0  0  0  0  0  0  0
  138.6040   69.0800  223.0980 N   0  0  0  0  0  0  0  0  0  0  0  0
  139.5640   69.6350  222.1840 C   0  0  0  0  0  0  0  0  0  0  0  0
  139.7680   71.1070  222.3240 C   0  0  0  0  0  0  0  0  0  0  0  0
  139.9330   71.5270  223.7480 C   0  0  0  0  0  0  0  0  0  0  0  0
  138.7090   71.0960  224.5170 C   0  0  0  0  0  0  0  0  0  0  0  0
  138.4720   69.6070  224.4180 C   0  0  2  0  0  0  0  0  0  0  0  0
  139.2550   68.8600  225.4480 C   0  0  0  0  0  0  0  0  0  0  0  0
  139.5250   67.5040  225.5040 C   0  0  0  0  0  0  0  0  0  0  0  0
  140.2620   67.2070  226.5840 N   0  0  0  0  0  0  0  0  0  0  0  0
  140.4980   68.3210  227.2620 C   0  0  0  0  0  0  0  0  0  0  0  0
  141.4250   68.4010  228.7460 Cl  0  0  0  0  0  0  0  0  0  0  0  0
  139.8840   69.3780  226.5820 C   0  0  0  0  0  0  0  0  0  0  0  0
  134.6510   70.6650  224.8250 C   0  0  0  0  0  0  0  0  0  0  0  0
  133.6780   70.5520  225.8200 C   0  0  0  0  0  0  0  0  0  0  0  0
  133.1780   71.6510  226.4730 C   0  0  0  0  0  0  0  0  0  0  0  0
  133.6780   72.8840  226.1070 C   0  0  0  0  0  0  0  0  0  0  0  0
  133.1730   73.9850  226.7660 C   0  0  0  0  0  0  0  0  0  0  0  0
  133.6790   75.2330  226.3920 C   0  0  0  0  0  0  0  0  0  0  0  0
  133.0500   76.6400  227.2180 Cl  0  0  0  0  0  0  0  0  0  0  0  0
  134.6410   75.3230  225.4070 C   0  0  0  0  0  0  0  0  0  0  0  0
  135.1420   74.2170  224.7520 C   0  0  0  0  0  0  0  0  0  0  0  0
  134.6390   72.9650  225.1200 C   0  0  0  0  0  0  0  0  0  0  0  0
  135.1250   71.8720  224.4830 N   0  0  0  0  0  0  0  0  0  0  0  0
  136.1390   70.4230  222.6540 H   0  0  0  0  0  0  0  0  0  0  0  0
  135.7738   67.4043  222.8955 H   0  0  0  0  0  0  0  0  0  0  0  0
  136.1426   68.2998  221.3593 H   0  0  0  0  0  0  0  0  0  0  0  0
  140.5295   69.1360  222.3539 H   0  0  0  0  0  0  0  0  0  0  0  0
  139.1675   69.4675  221.1717 H   0  0  0  0  0  0  0  0  0  0  0  0
  140.6709   71.3931  221.7646 H   0  0  0  0  0  0  0  0  0  0  0  0
  138.8724   71.6085  221.9284 H   0  0  0  0  0  0  0  0  0  0  0  0
  140.8271   71.0492  224.1749 H   0  0  0  0  0  0  0  0  0  0  0  0
  140.0519   72.6189  223.8084 H   0  0  0  0  0  0  0  0  0  0  0  0
  138.8420   71.3646  225.5754 H   0  0  0  0  0  0  0  0  0  0  0  0
  137.8377   71.6078  224.0824 H   0  0  0  0  0  0  0  0  0  0  0  0
  137.4090   69.4472  224.6514 H   0  0  0  0  0  0  0  0  0  0  0  0
  139.1811   66.7684  224.7620 H   0  0  0  0  0  0  0  0  0  0  0  0
  140.5960   66.2490  226.8490 H   0  0  0  0  0  0  0  0  0  0  0  0
  139.8948   70.4346  226.8877 H   0  0  0  0  0  0  0  0  0  0  0  0
  133.3014   69.5539  226.0882 H   0  0  0  0  0  0  0  0  0  0  0  0
  132.4109   71.5529  227.2553 H   0  0  0  0  0  0  0  0  0  0  0  0
  132.4075   73.8857  227.5497 H   0  0  0  0  0  0  0  0  0  0  0  0
  135.0241   76.3170  225.1328 H   0  0  0  0  0  0  0  0  0  0  0  0
  135.9086   74.3162  223.9694 H   0  0  0  0  0  0  0  0  0  0  0  0
  1  2  2  0
  2  3  1  0
  3  4  1  0
  4  5  1  0
  5  6  2  0
  5  7  1  0
  7  8  1  0
  8  9  1  0
  9 10  1  0
 10 11  1  0
 11 12  1  0
 12 13  1  0
 13 14  2  0
 14 15  1  0
 15 16  1  0
 16 17  1  0
 16 18  2  0
  2 19  1  0
 19 20  2  0
 20 21  1  0
 21 22  2  0
 22 23  1  0
 23 24  2  0
 24 25  1  0
 24 26  1  0
 26 27  2  0
 27 28  1  0
 28 29  2  0
 12  7  1  0
 18 13  1  0
 29 19  1  0
 28 22  1  0
  3 30  1  0
  4 31  1  0
  4 32  1  0
  8 33  1  0
  8 34  1  0
  9 35  1  0
  9 36  1  0
 10 37  1  0
 10 38  1  0
 11 39  1  0
 11 40  1  0
 12 41  1  1
 14 42  1  0
 15 43  1  0
 18 44  1  0
 20 45  1  0
 21 46  1  0
 23 47  1  0
 26 48  1  0
 27 49  1  0
M  END
>  <smiles>  (8) 
O=C(NCC(=O)N1CCCC[C@@H]1c1c[nH]c(Cl)c1)c1ccc2cc(Cl)ccc2n1

>  <score_type>  (8) 
oracle

>  <origin>  (8) 
autodockgpu

>  <m_score__min__energy>  (8) 
-8.9000000000000004

>  <m_primary>  (8) 
energy

>  <rmsd>  (8) 
7.322451284730924

>  <m_score__min__rmsd>  (8) 
7.322451284730924

>  <meeko>  (8) 
{"free_energy": -7.58, "intermolecular_energy": -9.07, "internal_energy": -2.0, "cluster_size": 2, "cluster_id": 8, "rank_in_cluster": 1}

>  <energy>  (8) 
-8.57

>  <cluster_rmsd>  (8) 
1.26

>  <cluster>  (8) 
1

$$$$

     RDKit          3D

 49 52  0  0  0  0  0  0  0  0999 V2000
  138.9010   71.5400  220.8460 O   0  0  0  0  0  0  0  0  0  0  0  0
  139.1200   72.0340  221.9810 C   0  0  0  0  0  0  0  0  0  0  0  0
  139.0540   73.4490  222.0900 N   0  0  0  0  0  0  0  0  0  0  0  0
  138.7490   74.2270  220.9320 C   0  0  0  0  0  0  0  0  0  0  0  0
  139.1230   75.6700  221.1060 C   0  0  0  0  0  0  0  0  0  0  0  0
  138.2870   76.5170  221.5220 O   0  0  0  0  0  0  0  0  0  0  0  0
  140.4520   76.0670  220.7890 N   0  0  0  0  0  0  0  0  0  0  0  0
  141.4800   75.0650  220.8420 C   0  0  0  0  0  0  0  0  0  0  0  0
  142.5560   75.2320  219.8210 C   0  0  0  0  0  0  0  0  0  0  0  0
  143.0480   76.6400  219.7360 C   0  0  0  0  0  0  0  0  0  0  0  0
  141.8780   77.5360  219.4110 C   0  0  0  0  0  0  0  0  0  0  0  0
  140.7680   77.4120  220.4290 C   0  0  2  0  0  0  0  0  0  0  0  0
  140.9990   78.3130  221.5980 C   0  0  0  0  0  0  0  0  0  0  0  0
  140.1200   78.6380  222.6170 C   0  0  0  0  0  0  0  0  0  0  0  0
  140.6910   79.4800  223.4910 N   0  0  0  0  0  0  0  0  0  0  0  0
  141.9300   79.7350  223.0940 C   0  0  0  0  0  0  0  0  0  0  0  0
  143.0440   80.7900  223.9390 Cl  0  0  0  0  0  0  0  0  0  0  0  0
  142.1600   79.0220  221.9120 C   0  0  0  0  0  0  0  0  0  0  0  0
  139.4290   71.2290  223.1590 C   0  0  0  0  0  0  0  0  0  0  0  0
  139.1080   69.8720  223.0880 C   0  0  0  0  0  0  0  0  0  0  0  0
  139.3510   69.0140  224.1310 C   0  0  0  0  0  0  0  0  0  0  0  0
  139.9320   69.5460  225.2640 C   0  0  0  0  0  0  0  0  0  0  0  0
  140.1750   68.6800  226.3080 C   0  0  0  0  0  0  0  0  0  0  0  0
  140.7630   69.2210  227.4550 C   0  0  0  0  0  0  0  0  0  0  0  0
  141.0780   68.1370  228.7900 Cl  0  0  0  0  0  0  0  0  0  0  0  0
  141.0740   70.5650  227.5060 C   0  0  0  0  0  0  0  0  0  0  0  0
  140.8280   71.4260  226.4560 C   0  0  0  0  0  0  0  0  0  0  0  0
  140.2390   70.8910  225.3050 C   0  0  0  0  0  0  0  0  0  0  0  0
  139.9940   71.7280  224.2690 N   0  0  0  0  0  0  0  0  0  0  0  0
  139.2390   73.8630  223.0520 H   0  0  0  0  0  0  0  0  0  0  0  0
  139.3029   73.8181  220.0741 H   0  0  0  0  0  0  0  0  0  0  0  0
  137.6626   74.1765  220.7668 H   0  0  0  0  0  0  0  0  0  0  0  0
  141.9433   75.0996  221.8391 H   0  0  0  0  0  0  0  0  0  0  0  0
  140.9919   74.1024  220.6296 H   0  0  0  0  0  0  0  0  0  0  0  0
  143.3999   74.5786  220.0872 H   0  0  0  0  0  0  0  0  0  0  0  0
  142.1326   74.9654  218.8414 H   0  0  0  0  0  0  0  0  0  0  0  0
  143.4878   76.9384  220.6991 H   0  0  0  0  0  0  0  0  0  0  0  0
  143.8168   76.7246  218.9538 H   0  0  0  0  0  0  0  0  0  0  0  0
  142.2253   78.5795  219.3900 H   0  0  0  0  0  0  0  0  0  0  0  0
  141.4774   77.2294  218.4335 H   0  0  0  0  0  0  0  0  0  0  0  0
  139.8514   77.7646  219.9335 H   0  0  0  0  0  0  0  0  0  0  0  0
  139.0914   78.2568  222.6989 H   0  0  0  0  0  0  0  0  0  0  0  0
  140.2320   79.8730  224.3470 H   0  0  0  0  0  0  0  0  0  0  0  0
  143.0940   79.0204  221.3309 H   0  0  0  0  0  0  0  0  0  0  0  0
  138.6471   69.4794  222.1696 H   0  0  0  0  0  0  0  0  0  0  0  0
  139.0934   67.9465  224.0666 H   0  0  0  0  0  0  0  0  0  0  0  0
  139.9182   67.6125  226.2418 H   0  0  0  0  0  0  0  0  0  0  0  0
  141.5364   70.9657  228.4201 H   0  0  0  0  0  0  0  0  0  0  0  0
  141.0854   72.4935  226.5214 H   0  0  0  0  0  0  0  0  0  0  0  0
  1  2  2  0
  2  3  1  0
  3  4  1  0
  4  5  1  0
  5  6  2  0
  5  7  1  0
  7  8  1  0
  8  9  1  0
  9 10  1  0
 10 11  1  0
 11 12  1  0
 12 13  1  0
 13 14  2  0
 14 15  1  0
 15 16  1  0
 16 17  1  0
 16 18  2  0
  2 19  1  0
 19 20  2  0
 20 21  1  0
 21 22  2  0
 22 23  1  0
 23 24  2  0
 24 25  1  0
 24 26  1  0
 26 27  2  0
 27 28  1  0
 28 29  2  0
 12  7  1  0
 18 13  1  0
 29 19  1  0
 28 22  1  0
  3 30  1  0
  4 31  1  0
  4 32  1  0
  8 33  1  0
  8 34  1  0
  9 35  1  0
  9 36  1  0
 10 37  1  0
 10 38  1  0
 11 39  1  0
 11 40  1  0
 12 41  1  6
 14 42  1  0
 15 43  1  0
 18 44  1  0
 20 45  1  0
 21 46  1  0
 23 47  1  0
 26 48  1  0
 27 49  1  0
M  END
>  <smiles>  (9) 
O=C(NCC(=O)N1CCCC[C@@H]1c1c[nH]c(Cl)c1)c1ccc2cc(Cl)ccc2n1

>  <score_type>  (9) 
oracle

>  <origin>  (9) 
autodockgpu

>  <m_score__min__energy>  (9) 
-8.9000000000000004

>  <m_primary>  (9) 
energy

>  <rmsd>  (9) 
1.8585520065296115

>  <m_score__min__rmsd>  (9) 
1.8585520065296115

>  <meeko>  (9) 
{"free_energy": -8.54, "intermolecular_energy": -10.03, "internal_energy": -1.41, "cluster_size": 23, "cluster_id": 1, "rank_in_cluster": 9}

>  <energy>  (9) 
-8.54

>  <cluster_rmsd>  (9) 
0.71

>  <cluster>  (9) 
1

$$$$

     RDKit          3D

 49 52  0  0  0  0  0  0  0  0999 V2000
  139.7310   72.4100  220.8710 O   0  0  0  0  0  0  0  0  0  0  0  0
  139.7020   72.7720  222.0750 C   0  0  0  0  0  0  0  0  0  0  0  0
  139.5100   74.1570  222.3250 N   0  0  0  0  0  0  0  0  0  0  0  0
  139.3610   75.0530  221.2250 C   0  0  0  0  0  0  0  0  0  0  0  0
  138.6350   76.3090  221.6120 C   0  0  0  0  0  0  0  0  0  0  0  0
  137.3760   76.3650  221.6060 O   0  0  0  0  0  0  0  0  0  0  0  0
  139.4040   77.4450  221.9880 N   0  0  0  0  0  0  0  0  0  0  0  0
  138.6980   78.6560  222.3050 C   0  0  0  0  0  0  0  0  0  0  0  0
  139.3290   79.4730  223.3830 C   0  0  0  0  0  0  0  0  0  0  0  0
  140.8020   79.6310  223.1910 C   0  0  0  0  0  0  0  0  0  0  0  0
  141.4270   78.2580  223.1440 C   0  0  0  0  0  0  0  0  0  0  0  0
  140.8290   77.3990  222.0540 C   0  0  2  0  0  0  0  0  0  0  0  0
  141.5030   77.6370  220.7420 C   0  0  0  0  0  0  0  0  0  0  0  0
  141.7690   78.8450  220.1210 C   0  0  0  0  0  0  0  0  0  0  0  0
  142.3910   78.6530  218.9490 N   0  0  0  0  0  0  0  0  0  0  0  0
  142.5530   77.3510  218.7570 C   0  0  0  0  0  0  0  0  0  0  0  0
  143.3210   76.6440  217.3500 Cl  0  0  0  0  0  0  0  0  0  0  0  0
  142.0100   76.6820  219.8600 C   0  0  0  0  0  0  0  0  0  0  0  0
  139.8540   71.8460  223.1930 C   0  0  0  0  0  0  0  0  0  0  0  0
  139.4500   70.5280  222.9700 C   0  0  0  0  0  0  0  0  0  0  0  0
  139.5440   69.5650  223.9430 C   0  0  0  0  0  0  0  0  0  0  0  0
  140.0580   69.9520  225.1640 C   0  0  0  0  0  0  0  0  0  0  0  0
  140.1510   68.9810  226.1390 C   0  0  0  0  0  0  0  0  0  0  0  0
  140.6710   69.3750  227.3760 C   0  0  0  0  0  0  0  0  0  0  0  0
  140.7960   68.1570  228.6240 Cl  0  0  0  0  0  0  0  0  0  0  0  0
  141.0650   70.6820  227.5770 C   0  0  0  0  0  0  0  0  0  0  0  0
  140.9690   71.6480  226.5960 C   0  0  0  0  0  0  0  0  0  0  0  0
  140.4490   71.2610  225.3570 C   0  0  0  0  0  0  0  0  0  0  0  0
  140.3510   72.2020  224.3870 N   0  0  0  0  0  0  0  0  0  0  0  0
  139.4850   74.4580  223.3450 H   0  0  0  0  0  0  0  0  0  0  0  0
  140.3592   75.3221  220.8494 H   0  0  0  0  0  0  0  0  0  0  0  0
  138.7668   74.5436  220.4521 H   0  0  0  0  0  0  0  0  0  0  0  0
  138.6434   79.2709  221.3945 H   0  0  0  0  0  0  0  0  0  0  0  0
  137.7083   78.3540  222.6783 H   0  0  0  0  0  0  0  0  0  0  0  0
  138.8646   80.4702  223.3879 H   0  0  0  0  0  0  0  0  0  0  0  0
  139.1699   78.9490  224.3370 H   0  0  0  0  0  0  0  0  0  0  0  0
  140.9988   80.1611  222.2475 H   0  0  0  0  0  0  0  0  0  0  0  0
  141.2307   80.2129  224.0202 H   0  0  0  0  0  0  0  0  0  0  0  0
  142.5060   78.3655  222.9592 H   0  0  0  0  0  0  0  0  0  0  0  0
  141.2347   77.7648  224.1082 H   0  0  0  0  0  0  0  0  0  0  0  0
  141.0371   76.3555  222.3328 H   0  0  0  0  0  0  0  0  0  0  0  0
  141.5055   79.8301  220.5336 H   0  0  0  0  0  0  0  0  0  0  0  0
  142.6980   79.4080  218.2910 H   0  0  0  0  0  0  0  0  0  0  0  0
  141.9869   75.5920  220.0062 H   0  0  0  0  0  0  0  0  0  0  0  0
  139.0443   70.2536  221.9850 H   0  0  0  0  0  0  0  0  0  0  0  0
  139.2235   68.5292  223.7578 H   0  0  0  0  0  0  0  0  0  0  0  0
  139.8312   67.9452  225.9524 H   0  0  0  0  0  0  0  0  0  0  0  0
  141.4721   70.9655  228.5588 H   0  0  0  0  0  0  0  0  0  0  0  0
  141.2896   72.6837  226.7818 H   0  0  0  0  0  0  0  0  0  0  0  0
  1  2  2  0
  2  3  1  0
  3  4  1  0
  4  5  1  0
  5  6  2  0
  5  7  1  0
  7  8  1  0
  8  9  1  0
  9 10  1  0
 10 11  1  0
 11 12  1  0
 12 13  1  0
 13 14  2  0
 14 15  1  0
 15 16  1  0
 16 17  1  0
 16 18  2  0
  2 19  1  0
 19 20  2  0
 20 21  1  0
 21 22  2  0
 22 23  1  0
 23 24  2  0
 24 25  1  0
 24 26  1  0
 26 27  2  0
 27 28  1  0
 28 29  2  0
 12  7  1  0
 18 13  1  0
 29 19  1  0
 28 22  1  0
  3 30  1  0
  4 31  1  0
  4 32  1  0
  8 33  1  0
  8 34  1  0
  9 35  1  0
  9 36  1  0
 10 37  1  0
 10 38  1  0
 11 39  1  0
 11 40  1  0
 12 41  1  1
 14 42  1  0
 15 43  1  0
 18 44  1  0
 20 45  1  0
 21 46  1  0
 23 47  1  0
 26 48  1  0
 27 49  1  0
M  END
>  <smiles>  (10) 
O=C(NCC(=O)N1CCCC[C@@H]1c1c[nH]c(Cl)c1)c1ccc2cc(Cl)ccc2n1

>  <score_type>  (10) 
oracle

>  <origin>  (10) 
autodockgpu

>  <m_score__min__energy>  (10) 
-8.9000000000000004

>  <m_primary>  (10) 
energy

>  <rmsd>  (10) 
3.411605841402867

>  <m_score__min__rmsd>  (10) 
3.411605841402867

>  <meeko>  (10) 
{"free_energy": -8.26, "intermolecular_energy": -9.75, "internal_energy": -1.38, "cluster_size": 6, "cluster_id": 2, "rank_in_cluster": 4}

>  <energy>  (10) 
-8.53

>  <cluster_rmsd>  (10) 
1.62

>  <cluster>  (10) 
1

$$$$

     RDKit          3D

 49 52  0  0  0  0  0  0  0  0999 V2000
  139.7450   71.8000  220.5680 O   0  0  0  0  0  0  0  0  0  0  0  0
  139.5920   72.2670  221.7260 C   0  0  0  0  0  0  0  0  0  0  0  0
  139.2410   73.6400  221.8230 N   0  0  0  0  0  0  0  0  0  0  0  0
  139.0810   74.4080  220.6310 C   0  0  0  0  0  0  0  0  0  0  0  0
  139.8330   75.7060  220.6890 C   0  0  0  0  0  0  0  0  0  0  0  0
  141.0540   75.7700  220.3810 O   0  0  0  0  0  0  0  0  0  0  0  0
  139.1340   76.8740  221.1030 N   0  0  0  0  0  0  0  0  0  0  0  0
  138.2720   77.5120  220.1480 C   0  0  0  0  0  0  0  0  0  0  0  0
  137.0460   78.1270  220.7370 C   0  0  0  0  0  0  0  0  0  0  0  0
  137.3440   78.9340  221.9590 C   0  0  0  0  0  0  0  0  0  0  0  0
  138.0160   78.0380  222.9700 C   0  0  0  0  0  0  0  0  0  0  0  0
  139.2730   77.4050  222.4210 C   0  0  2  0  0  0  0  0  0  0  0  0
  140.4540   78.3040  222.5890 C   0  0  0  0  0  0  0  0  0  0  0  0
  141.6530   78.2840  221.8970 C   0  0  0  0  0  0  0  0  0  0  0  0
  142.4720   79.2530  222.3310 N   0  0  0  0  0  0  0  0  0  0  0  0
  141.8640   79.9280  223.2970 C   0  0  0  0  0  0  0  0  0  0  0  0
  142.5700   81.2830  224.1540 Cl  0  0  0  0  0  0  0  0  0  0  0  0
  140.5980   79.3630  223.4860 C   0  0  0  0  0  0  0  0  0  0  0  0
  139.7570   71.4720  222.9380 C   0  0  0  0  0  0  0  0  0  0  0  0
  139.3160   70.1480  222.8810 C   0  0  0  0  0  0  0  0  0  0  0  0
  139.4180   69.3010  223.9560 C   0  0  0  0  0  0  0  0  0  0  0  0
  139.9790   69.8110  225.1090 C   0  0  0  0  0  0  0  0  0  0  0  0
  140.0800   68.9570  226.1860 C   0  0  0  0  0  0  0  0  0  0  0  0
  140.6480   69.4760  227.3540 C   0  0  0  0  0  0  0  0  0  0  0  0
  140.7840   68.4060  228.7300 Cl  0  0  0  0  0  0  0  0  0  0  0  0
  141.0780   70.7860  227.3910 C   0  0  0  0  0  0  0  0  0  0  0  0
  140.9740   71.6350  226.3080 C   0  0  0  0  0  0  0  0  0  0  0  0
  140.4070   71.1230  225.1380 C   0  0  0  0  0  0  0  0  0  0  0  0
  140.3000   71.9490  224.0690 N   0  0  0  0  0  0  0  0  0  0  0  0
  139.1120   74.0310  222.8040 H   0  0  0  0  0  0  0  0  0  0  0  0
  139.4527   73.8208  219.7784 H   0  0  0  0  0  0  0  0  0  0  0  0
  138.0118   74.6412  220.5199 H   0  0  0  0  0  0  0  0  0  0  0  0
  138.8449   78.3034  219.6426 H   0  0  0  0  0  0  0  0  0  0  0  0
  137.9287   76.7249  219.4606 H   0  0  0  0  0  0  0  0  0  0  0  0
  136.5835   78.7829  219.9847 H   0  0  0  0  0  0  0  0  0  0  0  0
  136.3696   77.3109  221.0309 H   0  0  0  0  0  0  0  0  0  0  0  0
  138.0126   79.7680  221.6994 H   0  0  0  0  0  0  0  0  0  0  0  0
  136.4128   79.3437  222.3774 H   0  0  0  0  0  0  0  0  0  0  0  0
  138.2775   78.6359  223.8555 H   0  0  0  0  0  0  0  0  0  0  0  0
  137.3143   77.2307  223.2267 H   0  0  0  0  0  0  0  0  0  0  0  0
  139.4638   76.5130  223.0358 H   0  0  0  0  0  0  0  0  0  0  0  0
  141.9005   77.5692  221.0984 H   0  0  0  0  0  0  0  0  0  0  0  0
  143.4360   79.4440  221.9670 H   0  0  0  0  0  0  0  0  0  0  0  0
  139.8457   79.6963  224.2161 H   0  0  0  0  0  0  0  0  0  0  0  0
  138.8736   69.7729  221.9464 H   0  0  0  0  0  0  0  0  0  0  0  0
  139.0675   68.2598  223.9009 H   0  0  0  0  0  0  0  0  0  0  0  0
  139.7302   67.9156  226.1296 H   0  0  0  0  0  0  0  0  0  0  0  0
  141.5219   71.1696  228.3215 H   0  0  0  0  0  0  0  0  0  0  0  0
  141.3245   72.6762  226.3637 H   0  0  0  0  0  0  0  0  0  0  0  0
  1  2  2  0
  2  3  1  0
  3  4  1  0
  4  5  1  0
  5  6  2  0
  5  7  1  0
  7  8  1  0
  8  9  1  0
  9 10  1  0
 10 11  1  0
 11 12  1  0
 12 13  1  0
 13 14  2  0
 14 15  1  0
 15 16  1  0
 16 17  1  0
 16 18  2  0
  2 19  1  0
 19 20  2  0
 20 21  1  0
 21 22  2  0
 22 23  1  0
 23 24  2  0
 24 25  1  0
 24 26  1  0
 26 27  2  0
 27 28  1  0
 28 29  2  0
 12  7  1  0
 18 13  1  0
 29 19  1  0
 28 22  1  0
  3 30  1  0
  4 31  1  0
  4 32  1  0
  8 33  1  0
  8 34  1  0
  9 35  1  0
  9 36  1  0
 10 37  1  0
 10 38  1  0
 11 39  1  0
 11 40  1  0
 12 41  1  1
 14 42  1  0
 15 43  1  0
 18 44  1  0
 20 45  1  0
 21 46  1  0
 23 47  1  0
 26 48  1  0
 27 49  1  0
M  END
>  <smiles>  (11) 
O=C(NCC(=O)N1CCCC[C@@H]1c1c[nH]c(Cl)c1)c1ccc2cc(Cl)ccc2n1

>  <score_type>  (11) 
oracle

>  <origin>  (11) 
autodockgpu

>  <m_score__min__energy>  (11) 
-8.9000000000000004

>  <m_primary>  (11) 
energy

>  <rmsd>  (11) 
2.8970036568239617

>  <m_score__min__rmsd>  (11) 
2.8970036568239617

>  <meeko>  (11) 
{"free_energy": -8.53, "intermolecular_energy": -10.02, "internal_energy": -1.28, "cluster_size": 23, "cluster_id": 1, "rank_in_cluster": 10}

>  <energy>  (11) 
-8.5

>  <cluster_rmsd>  (11) 
1.63

>  <cluster>  (11) 
1

$$$$

     RDKit          3D

 49 52  0  0  0  0  0  0  0  0999 V2000
  141.7420   78.9730  217.0660 O   0  0  0  0  0  0  0  0  0  0  0  0
  142.2310   78.4950  218.1220 C   0  0  0  0  0  0  0  0  0  0  0  0
  142.2380   79.3370  219.2660 N   0  0  0  0  0  0  0  0  0  0  0  0
  141.7030   80.6570  219.1670 C   0  0  0  0  0  0  0  0  0  0  0  0
  141.1480   81.1410  220.4750 C   0  0  0  0  0  0  0  0  0  0  0  0
  140.4800   82.2080  220.5480 O   0  0  0  0  0  0  0  0  0  0  0  0
  141.3920   80.3650  221.6420 N   0  0  0  0  0  0  0  0  0  0  0  0
  142.6790   80.4850  222.2690 C   0  0  0  0  0  0  0  0  0  0  0  0
  142.6520   80.3700  223.7580 C   0  0  0  0  0  0  0  0  0  0  0  0
  141.8260   79.2170  224.2250 C   0  0  0  0  0  0  0  0  0  0  0  0
  140.4250   79.3860  223.6910 C   0  0  0  0  0  0  0  0  0  0  0  0
  140.4010   79.4910  222.1830 C   0  0  2  0  0  0  0  0  0  0  0  0
  140.3710   78.1410  221.5440 C   0  0  0  0  0  0  0  0  0  0  0  0
  139.8020   77.7780  220.3350 C   0  0  0  0  0  0  0  0  0  0  0  0
  139.9790   76.4700  220.0970 N   0  0  0  0  0  0  0  0  0  0  0  0
  140.6500   75.9370  221.1090 C   0  0  0  0  0  0  0  0  0  0  0  0
  141.1030   74.2490  221.2180 Cl  0  0  0  0  0  0  0  0  0  0  0  0
  140.9130   76.9530  222.0350 C   0  0  0  0  0  0  0  0  0  0  0  0
  142.7730   77.1430  218.2120 C   0  0  0  0  0  0  0  0  0  0  0  0
  142.6850   76.3580  217.0610 C   0  0  0  0  0  0  0  0  0  0  0  0
  143.1600   75.0710  217.0220 C   0  0  0  0  0  0  0  0  0  0  0  0
  143.7360   74.5760  218.1740 C   0  0  0  0  0  0  0  0  0  0  0  0
  144.2130   73.2830  218.1300 C   0  0  0  0  0  0  0  0  0  0  0  0
  144.7950   72.7840  219.2980 C   0  0  0  0  0  0  0  0  0  0  0  0
  145.4050   71.1450  219.2600 Cl  0  0  0  0  0  0  0  0  0  0  0  0
  144.8740   73.5750  220.4260 C   0  0  0  0  0  0  0  0  0  0  0  0
  144.3950   74.8690  220.4620 C   0  0  0  0  0  0  0  0  0  0  0  0
  143.8110   75.3750  219.2970 C   0  0  0  0  0  0  0  0  0  0  0  0
  143.3370   76.6440  219.3230 N   0  0  0  0  0  0  0  0  0  0  0  0
  142.6510   78.9280  220.1570 H   0  0  0  0  0  0  0  0  0  0  0  0
  142.5028   81.3407  218.8464 H   0  0  0  0  0  0  0  0  0  0  0  0
  140.8802   80.6351  218.4373 H   0  0  0  0  0  0  0  0  0  0  0  0
  143.3297   79.6908  221.8742 H   0  0  0  0  0  0  0  0  0  0  0  0
  143.0481   81.4952  222.0384 H   0  0  0  0  0  0  0  0  0  0  0  0
  143.6819   80.2366  224.1207 H   0  0  0  0  0  0  0  0  0  0  0  0
  142.2000   81.2899  224.1573 H   0  0  0  0  0  0  0  0  0  0  0  0
  142.2555   78.2764  223.8496 H   0  0  0  0  0  0  0  0  0  0  0  0
  141.8096   79.1853  225.3244 H   0  0  0  0  0  0  0  0  0  0  0  0
  139.8219   78.5181  223.9959 H   0  0  0  0  0  0  0  0  0  0  0  0
  140.0156   80.3203  224.1026 H   0  0  0  0  0  0  0  0  0  0  0  0
  139.4544   79.9864  221.9212 H   0  0  0  0  0  0  0  0  0  0  0  0
  139.2756   78.4694  219.6605 H   0  0  0  0  0  0  0  0  0  0  0  0
  139.6420   75.9540  219.2500 H   0  0  0  0  0  0  0  0  0  0  0  0
  141.4536   76.8351  222.9857 H   0  0  0  0  0  0  0  0  0  0  0  0
  142.2213   76.7835  216.1588 H   0  0  0  0  0  0  0  0  0  0  0  0
  143.0847   74.4597  216.1106 H   0  0  0  0  0  0  0  0  0  0  0  0
  144.1388   72.6728  217.2178 H   0  0  0  0  0  0  0  0  0  0  0  0
  145.3370   73.1577  221.3324 H   0  0  0  0  0  0  0  0  0  0  0  0
  144.4700   75.4796  221.3739 H   0  0  0  0  0  0  0  0  0  0  0  0
  1  2  2  0
  2  3  1  0
  3  4  1  0
  4  5  1  0
  5  6  2  0
  5  7  1  0
  7  8  1  0
  8  9  1  0
  9 10  1  0
 10 11  1  0
 11 12  1  0
 12 13  1  0
 13 14  2  0
 14 15  1  0
 15 16  1  0
 16 17  1  0
 16 18  2  0
  2 19  1  0
 19 20  2  0
 20 21  1  0
 21 22  2  0
 22 23  1  0
 23 24  2  0
 24 25  1  0
 24 26  1  0
 26 27  2  0
 27 28  1  0
 28 29  2  0
 12  7  1  0
 18 13  1  0
 29 19  1  0
 28 22  1  0
  3 30  1  0
  4 31  1  0
  4 32  1  0
  8 33  1  0
  8 34  1  0
  9 35  1  0
  9 36  1  0
 10 37  1  0
 10 38  1  0
 11 39  1  0
 11 40  1  0
 12 41  1  1
 14 42  1  0
 15 43  1  0
 18 44  1  0
 20 45  1  0
 21 46  1  0
 23 47  1  0
 26 48  1  0
 27 49  1  0
M  END
>  <smiles>  (12) 
O=C(NCC(=O)N1CCCC[C@@H]1c1c[nH]c(Cl)c1)c1ccc2cc(Cl)ccc2n1

>  <score_type>  (12) 
oracle

>  <origin>  (12) 
autodockgpu

>  <m_score__min__energy>  (12) 
-8.9000000000000004

>  <m_primary>  (12) 
energy

>  <rmsd>  (12) 
8.380787452438005

>  <m_score__min__rmsd>  (12) 
8.380787452438005

>  <meeko>  (12) 
{"free_energy": -6.64, "intermolecular_energy": -8.13, "internal_energy": -2.77, "cluster_size": 5, "cluster_id": 9, "rank_in_cluster": 1}

>  <energy>  (12) 
-8.46

>  <cluster_rmsd>  (12) 
1.71

>  <cluster>  (12) 
1

$$$$

     RDKit          3D

 49 52  0  0  0  0  0  0  0  0999 V2000
  140.2620   72.4310  220.9670 O   0  0  0  0  0  0  0  0  0  0  0  0
  139.6640   72.5970  222.0610 C   0  0  0  0  0  0  0  0  0  0  0  0
  138.8010   73.7210  222.1580 N   0  0  0  0  0  0  0  0  0  0  0  0
  138.6550   74.5900  221.0350 C   0  0  0  0  0  0  0  0  0  0  0  0
  138.2140   75.9670  221.4400 C   0  0  0  0  0  0  0  0  0  0  0  0
  137.0040   76.2200  221.6900 O   0  0  0  0  0  0  0  0  0  0  0  0
  139.1980   76.9910  221.5370 N   0  0  0  0  0  0  0  0  0  0  0  0
  138.8690   78.2870  221.0120 C   0  0  0  0  0  0  0  0  0  0  0  0
  139.4570   79.4280  221.7740 C   0  0  0  0  0  0  0  0  0  0  0  0
  140.9030   79.2190  222.0870 C   0  0  0  0  0  0  0  0  0  0  0  0
  141.0410   77.9400  222.8740 C   0  0  0  0  0  0  0  0  0  0  0  0
  140.4730   76.7520  222.1330 C   0  0  2  0  0  0  0  0  0  0  0  0
  141.4770   76.1620  221.1970 C   0  0  0  0  0  0  0  0  0  0  0  0
  142.0990   76.7630  220.1160 C   0  0  0  0  0  0  0  0  0  0  0  0
  142.9420   75.9120  219.5160 N   0  0  0  0  0  0  0  0  0  0  0  0
  142.9100   74.7520  220.1570 C   0  0  0  0  0  0  0  0  0  0  0  0
  143.8570   73.3470  219.7130 Cl  0  0  0  0  0  0  0  0  0  0  0  0
  142.0040   74.8700  221.2170 C   0  0  0  0  0  0  0  0  0  0  0  0
  139.8200   71.7000  223.2020 C   0  0  0  0  0  0  0  0  0  0  0  0
  139.4000   70.3810  223.0210 C   0  0  0  0  0  0  0  0  0  0  0  0
  139.4960   69.4450  224.0200 C   0  0  0  0  0  0  0  0  0  0  0  0
  140.0300   69.8590  225.2230 C   0  0  0  0  0  0  0  0  0  0  0  0
  140.1250   68.9150  226.2230 C   0  0  0  0  0  0  0  0  0  0  0  0
  140.6640   69.3370  227.4420 C   0  0  0  0  0  0  0  0  0  0  0  0
  140.7920   68.1530  228.7220 Cl  0  0  0  0  0  0  0  0  0  0  0  0
  141.0740   70.6450  227.6020 C   0  0  0  0  0  0  0  0  0  0  0  0
  140.9760   71.5840  226.5960 C   0  0  0  0  0  0  0  0  0  0  0  0
  140.4370   71.1690  225.3740 C   0  0  0  0  0  0  0  0  0  0  0  0
  140.3360   72.0840  224.3800 N   0  0  0  0  0  0  0  0  0  0  0  0
  138.2970   73.8570  223.0850 H   0  0  0  0  0  0  0  0  0  0  0  0
  139.6223   74.6654  220.5168 H   0  0  0  0  0  0  0  0  0  0  0  0
  137.8818   74.1664  220.3772 H   0  0  0  0  0  0  0  0  0  0  0  0
  139.2336   78.3411  219.9756 H   0  0  0  0  0  0  0  0  0  0  0  0
  137.7763   78.3885  221.0878 H   0  0  0  0  0  0  0  0  0  0  0  0
  139.3543   80.3440  221.1737 H   0  0  0  0  0  0  0  0  0  0  0  0
  138.9156   79.5086  222.7281 H   0  0  0  0  0  0  0  0  0  0  0  0
  141.4781   79.1437  221.1523 H   0  0  0  0  0  0  0  0  0  0  0  0
  141.2886   80.0662  222.6731 H   0  0  0  0  0  0  0  0  0  0  0  0
  142.1079   77.7581  223.0709 H   0  0  0  0  0  0  0  0  0  0  0  0
  140.4762   78.0563  223.8107 H   0  0  0  0  0  0  0  0  0  0  0  0
  140.2606   75.9852  222.8926 H   0  0  0  0  0  0  0  0  0  0  0  0
  141.9245   77.8000  219.7931 H   0  0  0  0  0  0  0  0  0  0  0  0
  143.5300   76.1270  218.6760 H   0  0  0  0  0  0  0  0  0  0  0  0
  141.7511   74.0810  221.9406 H   0  0  0  0  0  0  0  0  0  0  0  0
  138.9797   70.0832  222.0490 H   0  0  0  0  0  0  0  0  0  0  0  0
  139.1613   68.4082  223.8681 H   0  0  0  0  0  0  0  0  0  0  0  0
  139.7922   67.8779  226.0690 H   0  0  0  0  0  0  0  0  0  0  0  0
  141.4959   70.9512  228.5706 H   0  0  0  0  0  0  0  0  0  0  0  0
  141.3095   72.6209  226.7494 H   0  0  0  0  0  0  0  0  0  0  0  0
  1  2  2  0
  2  3  1  0
  3  4  1  0
  4  5  1  0
  5  6  2  0
  5  7  1  0
  7  8  1  0
  8  9  1  0
  9 10  1  0
 10 11  1  0
 11 12  1  0
 12 13  1  0
 13 14  2  0
 14 15  1  0
 15 16  1  0
 16 17  1  0
 16 18  2  0
  2 19  1  0
 19 20  2  0
 20 21  1  0
 21 22  2  0
 22 23  1  0
 23 24  2  0
 24 25  1  0
 24 26  1  0
 26 27  2  0
 27 28  1  0
 28 29  2  0
 12  7  1  0
 18 13  1  0
 29 19  1  0
 28 22  1  0
  3 30  1  0
  4 31  1  0
  4 32  1  0
  8 33  1  0
  8 34  1  0
  9 35  1  0
  9 36  1  0
 10 37  1  0
 10 38  1  0
 11 39  1  0
 11 40  1  0
 12 41  1  1
 14 42  1  0
 15 43  1  0
 18 44  1  0
 20 45  1  0
 21 46  1  0
 23 47  1  0
 26 48  1  0
 27 49  1  0
M  END
>  <smiles>  (13) 
O=C(NCC(=O)N1CCCC[C@@H]1c1c[nH]c(Cl)c1)c1ccc2cc(Cl)ccc2n1

>  <score_type>  (13) 
oracle

>  <origin>  (13) 
autodockgpu

>  <m_score__min__energy>  (13) 
-8.9000000000000004

>  <m_primary>  (13) 
energy

>  <rmsd>  (13) 
2.928066509835008

>  <m_score__min__rmsd>  (13) 
2.928066509835008

>  <meeko>  (13) 
{"free_energy": -7.92, "intermolecular_energy": -9.42, "internal_energy": -1.6, "cluster_size": 1, "cluster_id": 5, "rank_in_cluster": 1}

>  <energy>  (13) 
-8.45

>  <cluster_rmsd>  (13) 
1.3

>  <cluster>  (13) 
1

$$$$

     RDKit          3D

 49 52  0  0  0  0  0  0  0  0999 V2000
  140.3140   72.0270  220.9430 O   0  0  0  0  0  0  0  0  0  0  0  0
  139.7710   72.2900  222.0470 C   0  0  0  0  0  0  0  0  0  0  0  0
  138.9890   73.4740  222.1120 N   0  0  0  0  0  0  0  0  0  0  0  0
  138.8590   74.2920  220.9500 C   0  0  0  0  0  0  0  0  0  0  0  0
  139.3310   75.6970  221.1920 C   0  0  0  0  0  0  0  0  0  0  0  0
  138.5670   76.5670  221.6900 O   0  0  0  0  0  0  0  0  0  0  0  0
  140.6700   76.0290  220.8450 N   0  0  0  0  0  0  0  0  0  0  0  0
  141.6220   74.9580  220.7460 C   0  0  0  0  0  0  0  0  0  0  0  0
  142.6590   75.1500  219.6900 C   0  0  0  0  0  0  0  0  0  0  0  0
  143.2500   76.5220  219.7150 C   0  0  0  0  0  0  0  0  0  0  0  0
  142.1370   77.5250  219.5400 C   0  0  0  0  0  0  0  0  0  0  0  0
  141.0690   77.3780  220.5990 C   0  0  2  0  0  0  0  0  0  0  0  0
  141.4200   78.1390  221.8360 C   0  0  0  0  0  0  0  0  0  0  0  0
  141.4040   77.6990  223.1480 C   0  0  0  0  0  0  0  0  0  0  0  0
  141.7850   78.6740  223.9850 N   0  0  0  0  0  0  0  0  0  0  0  0
  142.0580   79.7630  223.2790 C   0  0  0  0  0  0  0  0  0  0  0  0
  142.5940   81.2820  223.9670 Cl  0  0  0  0  0  0  0  0  0  0  0  0
  141.8420   79.4660  221.9290 C   0  0  0  0  0  0  0  0  0  0  0  0
  139.9090   71.4450  223.2280 C   0  0  0  0  0  0  0  0  0  0  0  0
  139.4970   70.1170  223.0970 C   0  0  0  0  0  0  0  0  0  0  0  0
  139.5790   69.2250  224.1380 C   0  0  0  0  0  0  0  0  0  0  0  0
  140.0890   69.6940  225.3310 C   0  0  0  0  0  0  0  0  0  0  0  0
  140.1690   68.7950  226.3730 C   0  0  0  0  0  0  0  0  0  0  0  0
  140.6850   69.2720  227.5810 C   0  0  0  0  0  0  0  0  0  0  0  0
  140.7940   68.1450  228.9140 Cl  0  0  0  0  0  0  0  0  0  0  0  0
  141.0880   70.5870  227.6910 C   0  0  0  0  0  0  0  0  0  0  0  0
  141.0040   71.4810  226.6440 C   0  0  0  0  0  0  0  0  0  0  0  0
  140.4880   71.0110  225.4320 C   0  0  0  0  0  0  0  0  0  0  0  0
  140.4030   71.8810  224.3970 N   0  0  0  0  0  0  0  0  0  0  0  0
  138.5300   73.6920  223.0460 H   0  0  0  0  0  0  0  0  0  0  0  0
  139.4566   73.8521  220.1380 H   0  0  0  0  0  0  0  0  0  0  0  0
  137.7926   74.3343  220.6833 H   0  0  0  0  0  0  0  0  0  0  0  0
  142.1323   74.8607  221.7156 H   0  0  0  0  0  0  0  0  0  0  0  0
  141.0539   74.0580  220.4679 H   0  0  0  0  0  0  0  0  0  0  0  0
  143.4631   74.4160  219.8470 H   0  0  0  0  0  0  0  0  0  0  0  0
  142.1725   75.0121  218.7131 H   0  0  0  0  0  0  0  0  0  0  0  0
  143.7544   76.6914  220.6778 H   0  0  0  0  0  0  0  0  0  0  0  0
  143.9863   76.6304  218.9050 H   0  0  0  0  0  0  0  0  0  0  0  0
  142.5599   78.5386  219.6008 H   0  0  0  0  0  0  0  0  0  0  0  0
  141.6701   77.3460  218.5602 H   0  0  0  0  0  0  0  0  0  0  0  0
  140.1601   77.8419  220.1881 H   0  0  0  0  0  0  0  0  0  0  0  0
  141.1170   76.6846  223.4619 H   0  0  0  0  0  0  0  0  0  0  0  0
  141.8540   78.5900  225.0270 H   0  0  0  0  0  0  0  0  0  0  0  0
  141.9809   80.1590  221.0861 H   0  0  0  0  0  0  0  0  0  0  0  0
  139.0950   69.7755  222.1317 H   0  0  0  0  0  0  0  0  0  0  0  0
  139.2519   68.1808  224.0254 H   0  0  0  0  0  0  0  0  0  0  0  0
  139.8420   67.7509  226.2590 H   0  0  0  0  0  0  0  0  0  0  0  0
  141.4926   70.9365  228.6524 H   0  0  0  0  0  0  0  0  0  0  0  0
  141.3308   72.5251  226.7580 H   0  0  0  0  0  0  0  0  0  0  0  0
  1  2  2  0
  2  3  1  0
  3  4  1  0
  4  5  1  0
  5  6  2  0
  5  7  1  0
  7  8  1  0
  8  9  1  0
  9 10  1  0
 10 11  1  0
 11 12  1  0
 12 13  1  0
 13 14  2  0
 14 15  1  0
 15 16  1  0
 16 17  1  0
 16 18  2  0
  2 19  1  0
 19 20  2  0
 20 21  1  0
 21 22  2  0
 22 23  1  0
 23 24  2  0
 24 25  1  0
 24 26  1  0
 26 27  2  0
 27 28  1  0
 28 29  2  0
 12  7  1  0
 18 13  1  0
 29 19  1  0
 28 22  1  0
  3 30  1  0
  4 31  1  0
  4 32  1  0
  8 33  1  0
  8 34  1  0
  9 35  1  0
  9 36  1  0
 10 37  1  0
 10 38  1  0
 11 39  1  0
 11 40  1  0
 12 41  1  6
 14 42  1  0
 15 43  1  0
 18 44  1  0
 20 45  1  0
 21 46  1  0
 23 47  1  0
 26 48  1  0
 27 49  1  0
M  END
>  <smiles>  (14) 
O=C(NCC(=O)N1CCCC[C@@H]1c1c[nH]c(Cl)c1)c1ccc2cc(Cl)ccc2n1

>  <score_type>  (14) 
oracle

>  <origin>  (14) 
autodockgpu

>  <m_score__min__energy>  (14) 
-8.9000000000000004

>  <m_primary>  (14) 
energy

>  <rmsd>  (14) 
1.9238430644843592

>  <m_score__min__rmsd>  (14) 
1.9238430644843592

>  <meeko>  (14) 
{"free_energy": -8.9, "intermolecular_energy": -10.39, "internal_energy": -1.38, "cluster_size": 23, "cluster_id": 1, "rank_in_cluster": 1}

>  <energy>  (14) 
-8.45

>  <cluster_rmsd>  (14) 
1.15

>  <cluster>  (14) 
1

$$$$

     RDKit          3D

 49 52  0  0  0  0  0  0  0  0999 V2000
  138.7290   71.7230  220.9020 O   0  0  0  0  0  0  0  0  0  0  0  0
  139.0430   72.1990  222.0230 C   0  0  0  0  0  0  0  0  0  0  0  0
  139.0800   73.6150  222.1320 N   0  0  0  0  0  0  0  0  0  0  0  0
  138.7660   74.4140  220.9910 C   0  0  0  0  0  0  0  0  0  0  0  0
  139.7740   74.2480  219.8910 C   0  0  0  0  0  0  0  0  0  0  0  0
  139.4300   73.8630  218.7410 O   0  0  0  0  0  0  0  0  0  0  0  0
  141.1380   74.5370  220.1740 N   0  0  0  0  0  0  0  0  0  0  0  0
  141.9290   73.5030  220.7800 C   0  0  0  0  0  0  0  0  0  0  0  0
  143.3570   73.4850  220.3450 C   0  0  0  0  0  0  0  0  0  0  0  0
  143.9750   74.8460  220.3610 C   0  0  0  0  0  0  0  0  0  0  0  0
  143.1660   75.7460  219.4600 C   0  0  0  0  0  0  0  0  0  0  0  0
  141.7140   75.8080  219.8720 C   0  0  2  0  0  0  0  0  0  0  0  0
  141.4910   76.8390  220.9290 C   0  0  0  0  0  0  0  0  0  0  0  0
  140.8710   76.6890  222.1570 C   0  0  0  0  0  0  0  0  0  0  0  0
  140.8620   77.8460  222.8340 N   0  0  0  0  0  0  0  0  0  0  0  0
  141.4570   78.7770  222.1000 C   0  0  0  0  0  0  0  0  0  0  0  0
  141.6690   80.4440  222.5950 Cl  0  0  0  0  0  0  0  0  0  0  0  0
  141.8650   78.1840  220.9000 C   0  0  0  0  0  0  0  0  0  0  0  0
  139.3600   71.3730  223.1830 C   0  0  0  0  0  0  0  0  0  0  0  0
  139.0040   70.0250  223.1050 C   0  0  0  0  0  0  0  0  0  0  0  0
  139.2510   69.1480  224.1310 C   0  0  0  0  0  0  0  0  0  0  0  0
  139.8720   69.6530  225.2560 C   0  0  0  0  0  0  0  0  0  0  0  0
  140.1180   68.7680  226.2840 C   0  0  0  0  0  0  0  0  0  0  0  0
  140.7460   69.2810  227.4230 C   0  0  0  0  0  0  0  0  0  0  0  0
  141.0670   68.1730  228.7370 Cl  0  0  0  0  0  0  0  0  0  0  0  0
  141.0910   70.6160  227.4810 C   0  0  0  0  0  0  0  0  0  0  0  0
  140.8420   71.4950  226.4470 C   0  0  0  0  0  0  0  0  0  0  0  0
  140.2130   70.9890  225.3060 C   0  0  0  0  0  0  0  0  0  0  0  0
  139.9640   71.8440  224.2850 N   0  0  0  0  0  0  0  0  0  0  0  0
  139.3450   74.0140  223.0820 H   0  0  0  0  0  0  0  0  0  0  0  0
  137.7762   74.1187  220.6127 H   0  0  0  0  0  0  0  0  0  0  0  0
  138.7755   75.4688  221.3030 H   0  0  0  0  0  0  0  0  0  0  0  0
  141.9032   73.6444  221.8706 H   0  0  0  0  0  0  0  0  0  0  0  0
  141.4914   72.5453  220.4617 H   0  0  0  0  0  0  0  0  0  0  0  0
  143.9247   72.8313  221.0235 H   0  0  0  0  0  0  0  0  0  0  0  0
  143.3874   73.1151  219.3095 H   0  0  0  0  0  0  0  0  0  0  0  0
  143.9697   75.2446  221.3862 H   0  0  0  0  0  0  0  0  0  0  0  0
  145.0154   74.7933  220.0077 H   0  0  0  0  0  0  0  0  0  0  0  0
  143.5893   76.7605  219.4997 H   0  0  0  0  0  0  0  0  0  0  0  0
  143.2111   75.3336  218.4412 H   0  0  0  0  0  0  0  0  0  0  0  0
  141.1537   76.1384  218.9849 H   0  0  0  0  0  0  0  0  0  0  0  0
  140.4427   75.7462  222.5281 H   0  0  0  0  0  0  0  0  0  0  0  0
  140.4500   77.9920  223.7870 H   0  0  0  0  0  0  0  0  0  0  0  0
  142.3897   78.6900  220.0762 H   0  0  0  0  0  0  0  0  0  0  0  0
  138.5109   69.6552  222.1939 H   0  0  0  0  0  0  0  0  0  0  0  0
  138.9664   68.0878  224.0602 H   0  0  0  0  0  0  0  0  0  0  0  0
  139.8335   67.7079  226.2115 H   0  0  0  0  0  0  0  0  0  0  0  0
  141.5845   70.9946  228.3883 H   0  0  0  0  0  0  0  0  0  0  0  0
  141.1279   72.5548  226.5180 H   0  0  0  0  0  0  0  0  0  0  0  0
  1  2  2  0
  2  3  1  0
  3  4  1  0
  4  5  1  0
  5  6  2  0
  5  7  1  0
  7  8  1  0
  8  9  1  0
  9 10  1  0
 10 11  1  0
 11 12  1  0
 12 13  1  0
 13 14  2  0
 14 15  1  0
 15 16  1  0
 16 17  1  0
 16 18  2  0
  2 19  1  0
 19 20  2  0
 20 21  1  0
 21 22  2  0
 22 23  1  0
 23 24  2  0
 24 25  1  0
 24 26  1  0
 26 27  2  0
 27 28  1  0
 28 29  2  0
 12  7  1  0
 18 13  1  0
 29 19  1  0
 28 22  1  0
  3 30  1  0
  4 31  1  0
  4 32  1  0
  8 33  1  0
  8 34  1  0
  9 35  1  0
  9 36  1  0
 10 37  1  0
 10 38  1  0
 11 39  1  0
 11 40  1  0
 12 41  1  6
 14 42  1  0
 15 43  1  0
 18 44  1  0
 20 45  1  0
 21 46  1  0
 23 47  1  0
 26 48  1  0
 27 49  1  0
M  END
>  <smiles>  (15) 
O=C(NCC(=O)N1CCCC[C@@H]1c1c[nH]c(Cl)c1)c1ccc2cc(Cl)ccc2n1

>  <score_type>  (15) 
oracle

>  <origin>  (15) 
autodockgpu

>  <m_score__min__energy>  (15) 
-8.9000000000000004

>  <m_primary>  (15) 
energy

>  <rmsd>  (15) 
2.356761277939971

>  <m_score__min__rmsd>  (15) 
2.356761277939971

>  <meeko>  (15) 
{"free_energy": -8.09, "intermolecular_energy": -9.58, "internal_energy": -1.66, "cluster_size": 23, "cluster_id": 1, "rank_in_cluster": 20}

>  <energy>  (15) 
-8.44

>  <cluster_rmsd>  (15) 
1.16

>  <cluster>  (15) 
1

$$$$

     RDKit          3D

 49 52  0  0  0  0  0  0  0  0999 V2000
  140.6250   72.3980  220.8050 O   0  0  0  0  0  0  0  0  0  0  0  0
  140.2630   72.7730  221.9490 C   0  0  0  0  0  0  0  0  0  0  0  0
  139.8770   74.1330  222.0870 N   0  0  0  0  0  0  0  0  0  0  0  0
  139.9160   74.9910  220.9470 C   0  0  0  0  0  0  0  0  0  0  0  0
  141.3110   75.4520  220.6350 C   0  0  0  0  0  0  0  0  0  0  0  0
  142.3100   74.7210  220.8700 O   0  0  0  0  0  0  0  0  0  0  0  0
  141.4830   76.7430  220.0620 N   0  0  0  0  0  0  0  0  0  0  0  0
  142.6170   76.9490  219.2040 C   0  0  0  0  0  0  0  0  0  0  0  0
  142.3690   77.8890  218.0710 C   0  0  0  0  0  0  0  0  0  0  0  0
  141.6710   79.1360  218.5070 C   0  0  0  0  0  0  0  0  0  0  0  0
  140.3660   78.7490  219.1570 C   0  0  0  0  0  0  0  0  0  0  0  0
  140.5690   77.8080  220.3230 C   0  0  2  0  0  0  0  0  0  0  0  0
  140.8550   78.5570  221.5830 C   0  0  0  0  0  0  0  0  0  0  0  0
  140.0710   78.6540  222.7200 C   0  0  0  0  0  0  0  0  0  0  0  0
  140.6670   79.4170  223.6480 N   0  0  0  0  0  0  0  0  0  0  0  0
  141.8300   79.8410  223.1730 C   0  0  0  0  0  0  0  0  0  0  0  0
  142.9440   80.8690  224.0500 Cl  0  0  0  0  0  0  0  0  0  0  0  0
  141.9830   79.3220  221.8820 C   0  0  0  0  0  0  0  0  0  0  0  0
  140.2250   71.8860  223.1080 C   0  0  0  0  0  0  0  0  0  0  0  0
  139.6660   70.6230  222.9080 C   0  0  0  0  0  0  0  0  0  0  0  0
  139.5740   69.7010  223.9200 C   0  0  0  0  0  0  0  0  0  0  0  0
  140.0610   70.0720  225.1570 C   0  0  0  0  0  0  0  0  0  0  0  0
  139.9680   69.1420  226.1710 C   0  0  0  0  0  0  0  0  0  0  0  0
  140.4610   69.5210  227.4230 C   0  0  0  0  0  0  0  0  0  0  0  0
  140.3500   68.3540  228.7210 Cl  0  0  0  0  0  0  0  0  0  0  0  0
  141.0100   70.7740  227.6010 C   0  0  0  0  0  0  0  0  0  0  0  0
  141.1010   71.6990  226.5810 C   0  0  0  0  0  0  0  0  0  0  0  0
  140.6090   71.3270  225.3260 C   0  0  0  0  0  0  0  0  0  0  0  0
  140.6930   72.2290  224.3180 N   0  0  0  0  0  0  0  0  0  0  0  0
  139.5700   74.4460  223.0560 H   0  0  0  0  0  0  0  0  0  0  0  0
  139.5202   74.4448  220.0781 H   0  0  0  0  0  0  0  0  0  0  0  0
  139.3074   75.8796  221.1705 H   0  0  0  0  0  0  0  0  0  0  0  0
  143.4401   77.3524  219.8121 H   0  0  0  0  0  0  0  0  0  0  0  0
  142.8541   75.9726  218.7563 H   0  0  0  0  0  0  0  0  0  0  0  0
  143.3350   78.1636  217.6220 H   0  0  0  0  0  0  0  0  0  0  0  0
  141.7186   77.3767  217.3468 H   0  0  0  0  0  0  0  0  0  0  0  0
  142.2984   79.6800  219.2284 H   0  0  0  0  0  0  0  0  0  0  0  0
  141.4831   79.7866  217.6402 H   0  0  0  0  0  0  0  0  0  0  0  0
  139.8661   79.6596  219.5188 H   0  0  0  0  0  0  0  0  0  0  0  0
  139.7536   78.2298  218.4050 H   0  0  0  0  0  0  0  0  0  0  0  0
  139.6110   77.2891  220.4745 H   0  0  0  0  0  0  0  0  0  0  0  0
  139.0910   78.1703  222.8453 H   0  0  0  0  0  0  0  0  0  0  0  0
  140.2760   79.6440  224.5930 H   0  0  0  0  0  0  0  0  0  0  0  0
  142.8439   79.4885  221.2178 H   0  0  0  0  0  0  0  0  0  0  0  0
  139.2879   70.3588  221.9094 H   0  0  0  0  0  0  0  0  0  0  0  0
  139.1309   68.7082  223.7525 H   0  0  0  0  0  0  0  0  0  0  0  0
  139.5266   68.1486  226.0026 H   0  0  0  0  0  0  0  0  0  0  0  0
  141.3906   71.0468  228.5963 H   0  0  0  0  0  0  0  0  0  0  0  0
  141.5440   72.6918  226.7489 H   0  0  0  0  0  0  0  0  0  0  0  0
  1  2  2  0
  2  3  1  0
  3  4  1  0
  4  5  1  0
  5  6  2  0
  5  7  1  0
  7  8  1  0
  8  9  1  0
  9 10  1  0
 10 11  1  0
 11 12  1  0
 12 13  1  0
 13 14  2  0
 14 15  1  0
 15 16  1  0
 16 17  1  0
 16 18  2  0
  2 19  1  0
 19 20  2  0
 20 21  1  0
 21 22  2  0
 22 23  1  0
 23 24  2  0
 24 25  1  0
 24 26  1  0
 26 27  2  0
 27 28  1  0
 28 29  2  0
 12  7  1  0
 18 13  1  0
 29 19  1  0
 28 22  1  0
  3 30  1  0
  4 31  1  0
  4 32  1  0
  8 33  1  0
  8 34  1  0
  9 35  1  0
  9 36  1  0
 10 37  1  0
 10 38  1  0
 11 39  1  0
 11 40  1  0
 12 41  1  1
 14 42  1  0
 15 43  1  0
 18 44  1  0
 20 45  1  0
 21 46  1  0
 23 47  1  0
 26 48  1  0
 27 49  1  0
M  END
>  <smiles>  (16) 
O=C(NCC(=O)N1CCCC[C@@H]1c1c[nH]c(Cl)c1)c1ccc2cc(Cl)ccc2n1

>  <score_type>  (16) 
oracle

>  <origin>  (16) 
autodockgpu

>  <m_score__min__energy>  (16) 
-8.9000000000000004

>  <m_primary>  (16) 
energy

>  <rmsd>  (16) 
2.2919947123424116

>  <m_score__min__rmsd>  (16) 
2.2919947123424116

>  <meeko>  (16) 
{"free_energy": -8.44, "intermolecular_energy": -9.93, "internal_energy": -1.27, "cluster_size": 23, "cluster_id": 1, "rank_in_cluster": 15}

>  <energy>  (16) 
-8.24

>  <cluster_rmsd>  (16) 
1.31

>  <cluster>  (16) 
1

$$$$

     RDKit          3D

 49 52  0  0  0  0  0  0  0  0999 V2000
  140.3240   72.5220  220.9260 O   0  0  0  0  0  0  0  0  0  0  0  0
  139.7660   72.7290  222.0340 C   0  0  0  0  0  0  0  0  0  0  0  0
  138.9650   73.8980  222.1410 N   0  0  0  0  0  0  0  0  0  0  0  0
  138.8350   74.7630  221.0130 C   0  0  0  0  0  0  0  0  0  0  0  0
  139.5260   76.0780  221.2270 C   0  0  0  0  0  0  0  0  0  0  0  0
  138.9480   77.0340  221.8100 O   0  0  0  0  0  0  0  0  0  0  0  0
  140.8590   76.2260  220.7520 N   0  0  0  0  0  0  0  0  0  0  0  0
  141.8210   75.2310  221.1380 C   0  0  0  0  0  0  0  0  0  0  0  0
  142.8490   74.9310  220.0980 C   0  0  0  0  0  0  0  0  0  0  0  0
  143.4270   76.1690  219.4940 C   0  0  0  0  0  0  0  0  0  0  0  0
  142.3020   76.9790  218.8970 C   0  0  0  0  0  0  0  0  0  0  0  0
  141.2430   77.3200  219.9200 C   0  0  2  0  0  0  0  0  0  0  0  0
  141.5950   78.5600  220.6750 C   0  0  0  0  0  0  0  0  0  0  0  0
  141.7150   79.8530  220.1950 C   0  0  0  0  0  0  0  0  0  0  0  0
  142.0460   80.7000  221.1790 N   0  0  0  0  0  0  0  0  0  0  0  0
  142.1560   80.0210  222.3120 C   0  0  0  0  0  0  0  0  0  0  0  0
  142.5760   80.7300  223.8570 Cl  0  0  0  0  0  0  0  0  0  0  0  0
  141.8800   78.6770  222.0360 C   0  0  0  0  0  0  0  0  0  0  0  0
  139.9050   71.8360  223.1800 C   0  0  0  0  0  0  0  0  0  0  0  0
  139.4720   70.5210  223.0020 C   0  0  0  0  0  0  0  0  0  0  0  0
  139.5520   69.5890  224.0060 C   0  0  0  0  0  0  0  0  0  0  0  0
  140.0830   70.0030  225.2110 C   0  0  0  0  0  0  0  0  0  0  0  0
  140.1620   69.0630  226.2160 C   0  0  0  0  0  0  0  0  0  0  0  0
  140.6990   69.4850  227.4360 C   0  0  0  0  0  0  0  0  0  0  0  0
  140.8070   68.3050  228.7220 Cl  0  0  0  0  0  0  0  0  0  0  0  0
  141.1220   70.7890  227.5920 C   0  0  0  0  0  0  0  0  0  0  0  0
  141.0400   71.7240  226.5810 C   0  0  0  0  0  0  0  0  0  0  0  0
  140.5030   71.3090  225.3580 C   0  0  0  0  0  0  0  0  0  0  0  0
  140.4180   72.2200  224.3590 N   0  0  0  0  0  0  0  0  0  0  0  0
  138.4940   74.0690  223.0790 H   0  0  0  0  0  0  0  0  0  0  0  0
  139.2764   74.2692  220.1347 H   0  0  0  0  0  0  0  0  0  0  0  0
  137.7641   74.9638  220.8619 H   0  0  0  0  0  0  0  0  0  0  0  0
  142.3388   75.5854  222.0415 H   0  0  0  0  0  0  0  0  0  0  0  0
  141.2600   74.2993  221.3029 H   0  0  0  0  0  0  0  0  0  0  0  0
  143.6613   74.3516  220.5612 H   0  0  0  0  0  0  0  0  0  0  0  0
  142.3568   74.3641  219.2940 H   0  0  0  0  0  0  0  0  0  0  0  0
  143.9370   76.7578  220.2706 H   0  0  0  0  0  0  0  0  0  0  0  0
  144.1562   75.9037  218.7144 H   0  0  0  0  0  0  0  0  0  0  0  0
  142.7151   77.9133  218.4890 H   0  0  0  0  0  0  0  0  0  0  0  0
  141.8298   76.3742  218.1088 H   0  0  0  0  0  0  0  0  0  0  0  0
  140.3262   77.5428  219.3545 H   0  0  0  0  0  0  0  0  0  0  0  0
  141.5594   80.1458  219.1462 H   0  0  0  0  0  0  0  0  0  0  0  0
  142.1960   81.7320  221.0700 H   0  0  0  0  0  0  0  0  0  0  0  0
  141.8866   77.8544  222.7663 H   0  0  0  0  0  0  0  0  0  0  0  0
  139.0546   70.2232  222.0288 H   0  0  0  0  0  0  0  0  0  0  0  0
  139.2074   68.5551  223.8568 H   0  0  0  0  0  0  0  0  0  0  0  0
  139.8185   68.0289  226.0652 H   0  0  0  0  0  0  0  0  0  0  0  0
  141.5415   71.0954  228.5616 H   0  0  0  0  0  0  0  0  0  0  0  0
  141.3843   72.7579  226.7311 H   0  0  0  0  0  0  0  0  0  0  0  0
  1  2  2  0
  2  3  1  0
  3  4  1  0
  4  5  1  0
  5  6  2  0
  5  7  1  0
  7  8  1  0
  8  9  1  0
  9 10  1  0
 10 11  1  0
 11 12  1  0
 12 13  1  0
 13 14  2  0
 14 15  1  0
 15 16  1  0
 16 17  1  0
 16 18  2  0
  2 19  1  0
 19 20  2  0
 20 21  1  0
 21 22  2  0
 22 23  1  0
 23 24  2  0
 24 25  1  0
 24 26  1  0
 26 27  2  0
 27 28  1  0
 28 29  2  0
 12  7  1  0
 18 13  1  0
 29 19  1  0
 28 22  1  0
  3 30  1  0
  4 31  1  0
  4 32  1  0
  8 33  1  0
  8 34  1  0
  9 35  1  0
  9 36  1  0
 10 37  1  0
 10 38  1  0
 11 39  1  0
 11 40  1  0
 12 41  1  6
 14 42  1  0
 15 43  1  0
 18 44  1  0
 20 45  1  0
 21 46  1  0
 23 47  1  0
 26 48  1  0
 27 49  1  0
M  END
>  <smiles>  (17) 
O=C(NCC(=O)N1CCCC[C@@H]1c1c[nH]c(Cl)c1)c1ccc2cc(Cl)ccc2n1

>  <score_type>  (17) 
oracle

>  <origin>  (17) 
autodockgpu

>  <m_score__min__energy>  (17) 
-8.9000000000000004

>  <m_primary>  (17) 
energy

>  <rmsd>  (17) 
2.1438391231165816

>  <m_score__min__rmsd>  (17) 
2.1438391231165816

>  <meeko>  (17) 
{"free_energy": -8.73, "intermolecular_energy": -10.22, "internal_energy": -1.45, "cluster_size": 23, "cluster_id": 1, "rank_in_cluster": 5}

>  <energy>  (17) 
-8.19

>  <cluster_rmsd>  (17) 
1.68

>  <cluster>  (17) 
1

$$$$

     RDKit          3D

 49 52  0  0  0  0  0  0  0  0999 V2000
  138.7510   73.0190  221.5510 O   0  0  0  0  0  0  0  0  0  0  0  0
  139.8300   72.7890  222.1540 C   0  0  0  0  0  0  0  0  0  0  0  0
  140.9820   73.4840  221.6990 N   0  0  0  0  0  0  0  0  0  0  0  0
  140.8650   74.3910  220.6030 C   0  0  0  0  0  0  0  0  0  0  0  0
  142.1870   74.9900  220.2210 C   0  0  0  0  0  0  0  0  0  0  0  0
  143.2580   74.3340  220.3240 O   0  0  0  0  0  0  0  0  0  0  0  0
  142.2080   76.3280  219.7360 N   0  0  0  0  0  0  0  0  0  0  0  0
  143.2950   76.7140  218.8810 C   0  0  0  0  0  0  0  0  0  0  0  0
  142.9260   77.6940  217.8180 C   0  0  0  0  0  0  0  0  0  0  0  0
  142.1040   78.8250  218.3460 C   0  0  0  0  0  0  0  0  0  0  0  0
  140.8620   78.2550  218.9840 C   0  0  0  0  0  0  0  0  0  0  0  0
  141.1880   77.2670  220.0790 C   0  0  2  0  0  0  0  0  0  0  0  0
  141.4150   77.9560  221.3850 C   0  0  0  0  0  0  0  0  0  0  0  0
  141.0850   77.5170  222.6560 C   0  0  0  0  0  0  0  0  0  0  0  0
  141.4500   78.4150  223.5820 N   0  0  0  0  0  0  0  0  0  0  0  0
  142.0170   79.4500  222.9760 C   0  0  0  0  0  0  0  0  0  0  0  0
  142.6440   80.8610  223.8030 Cl  0  0  0  0  0  0  0  0  0  0  0  0
  142.0130   79.1980  221.6000 C   0  0  0  0  0  0  0  0  0  0  0  0
  139.9380   71.8610  223.2760 C   0  0  0  0  0  0  0  0  0  0  0  0
  139.4730   70.5620  223.0570 C   0  0  0  0  0  0  0  0  0  0  0  0
  139.5220   69.5990  224.0340 C   0  0  0  0  0  0  0  0  0  0  0  0
  140.0540   69.9660  225.2530 C   0  0  0  0  0  0  0  0  0  0  0  0
  140.1010   68.9950  226.2320 C   0  0  0  0  0  0  0  0  0  0  0  0
  140.6390   69.3680  227.4670 C   0  0  0  0  0  0  0  0  0  0  0  0
  140.7070   68.1500  228.7200 Cl  0  0  0  0  0  0  0  0  0  0  0  0
  141.0930   70.6560  227.6640 C   0  0  0  0  0  0  0  0  0  0  0  0
  141.0430   71.6220  226.6790 C   0  0  0  0  0  0  0  0  0  0  0  0
  140.5050   71.2560  225.4420 C   0  0  0  0  0  0  0  0  0  0  0  0
  140.4510   72.1970  224.4690 N   0  0  0  0  0  0  0  0  0  0  0  0
  141.8920   73.2870  222.2130 H   0  0  0  0  0  0  0  0  0  0  0  0
  140.4576   73.8494  219.7366 H   0  0  0  0  0  0  0  0  0  0  0  0
  140.1989   75.2102  220.9115 H   0  0  0  0  0  0  0  0  0  0  0  0
  144.0808   77.1638  219.5056 H   0  0  0  0  0  0  0  0  0  0  0  0
  143.6271   75.8013  218.3645 H   0  0  0  0  0  0  0  0  0  0  0  0
  143.8480   78.1025  217.3787 H   0  0  0  0  0  0  0  0  0  0  0  0
  142.3225   77.1629  217.0672 H   0  0  0  0  0  0  0  0  0  0  0  0
  142.6821   79.3861  219.0950 H   0  0  0  0  0  0  0  0  0  0  0  0
  141.8291   79.5063  217.5273 H   0  0  0  0  0  0  0  0  0  0  0  0
  140.2737   79.0792  219.4136 H   0  0  0  0  0  0  0  0  0  0  0  0
  140.2949   77.7232  218.2057 H   0  0  0  0  0  0  0  0  0  0  0  0
  140.2944   76.6378  220.2039 H   0  0  0  0  0  0  0  0  0  0  0  0
  140.5898   76.5598  222.8764 H   0  0  0  0  0  0  0  0  0  0  0  0
  141.3100   78.3170  224.6150 H   0  0  0  0  0  0  0  0  0  0  0  0
  142.4126   79.8645  220.8215 H   0  0  0  0  0  0  0  0  0  0  0  0
  139.0554   70.3033  222.0728 H   0  0  0  0  0  0  0  0  0  0  0  0
  139.1530   68.5787  223.8529 H   0  0  0  0  0  0  0  0  0  0  0  0
  139.7323   67.9749  226.0492 H   0  0  0  0  0  0  0  0  0  0  0  0
  141.5116   70.9239  228.6453 H   0  0  0  0  0  0  0  0  0  0  0  0
  141.4128   72.6419  226.8609 H   0  0  0  0  0  0  0  0  0  0  0  0
  1  2  2  0
  2  3  1  0
  3  4  1  0
  4  5  1  0
  5  6  2  0
  5  7  1  0
  7  8  1  0
  8  9  1  0
  9 10  1  0
 10 11  1  0
 11 12  1  0
 12 13  1  0
 13 14  2  0
 14 15  1  0
 15 16  1  0
 16 17  1  0
 16 18  2  0
  2 19  1  0
 19 20  2  0
 20 21  1  0
 21 22  2  0
 22 23  1  0
 23 24  2  0
 24 25  1  0
 24 26  1  0
 26 27  2  0
 27 28  1  0
 28 29  2  0
 12  7  1  0
 18 13  1  0
 29 19  1  0
 28 22  1  0
  3 30  1  0
  4 31  1  0
  4 32  1  0
  8 33  1  0
  8 34  1  0
  9 35  1  0
  9 36  1  0
 10 37  1  0
 10 38  1  0
 11 39  1  0
 11 40  1  0
 12 41  1  1
 14 42  1  0
 15 43  1  0
 18 44  1  0
 20 45  1  0
 21 46  1  0
 23 47  1  0
 26 48  1  0
 27 49  1  0
M  END
>  <smiles>  (18) 
O=C(NCC(=O)N1CCCC[C@@H]1c1c[nH]c(Cl)c1)c1ccc2cc(Cl)ccc2n1

>  <score_type>  (18) 
oracle

>  <origin>  (18) 
autodockgpu

>  <m_score__min__energy>  (18) 
-8.9000000000000004

>  <m_primary>  (18) 
energy

>  <rmsd>  (18) 
2.4716565478406003

>  <m_score__min__rmsd>  (18) 
2.4716565478406003

>  <meeko>  (18) 
{"free_energy": -8.24, "intermolecular_energy": -9.74, "internal_energy": -1.43, "cluster_size": 23, "cluster_id": 1, "rank_in_cluster": 16}

>  <energy>  (18) 
-8.17

>  <cluster_rmsd>  (18) 
1.38

>  <cluster>  (18) 
1

$$$$

     RDKit          3D

 49 52  0  0  0  0  0  0  0  0999 V2000
  139.9300   72.3360  220.6880 O   0  0  0  0  0  0  0  0  0  0  0  0
  139.7540   72.7300  221.8700 C   0  0  0  0  0  0  0  0  0  0  0  0
  139.4080   74.0960  222.0470 N   0  0  0  0  0  0  0  0  0  0  0  0
  139.2780   74.9390  220.9020 C   0  0  0  0  0  0  0  0  0  0  0  0
  140.4660   75.8410  220.7270 C   0  0  0  0  0  0  0  0  0  0  0  0
  141.5130   75.4400  220.1520 O   0  0  0  0  0  0  0  0  0  0  0  0
  140.3840   77.1700  221.2270 N   0  0  0  0  0  0  0  0  0  0  0  0
  139.0900   77.6630  221.6110 C   0  0  0  0  0  0  0  0  0  0  0  0
  139.1060   78.5940  222.7780 C   0  0  0  0  0  0  0  0  0  0  0  0
  140.1720   79.6350  222.6630 C   0  0  0  0  0  0  0  0  0  0  0  0
  141.5050   78.9400  222.5320 C   0  0  0  0  0  0  0  0  0  0  0  0
  141.5410   77.9990  221.3510 C   0  0  2  0  0  0  0  0  0  0  0  0
  141.9080   78.7160  220.0930 C   0  0  0  0  0  0  0  0  0  0  0  0
  142.5360   78.2090  218.9680 C   0  0  0  0  0  0  0  0  0  0  0  0
  142.6960   79.1620  218.0390 N   0  0  0  0  0  0  0  0  0  0  0  0
  142.1960   80.3000  218.5010 C   0  0  0  0  0  0  0  0  0  0  0  0
  142.1920   81.8110  217.6170 Cl  0  0  0  0  0  0  0  0  0  0  0  0
  141.6930   80.0600  219.7840 C   0  0  0  0  0  0  0  0  0  0  0  0
  139.8880   71.8580  223.0320 C   0  0  0  0  0  0  0  0  0  0  0  0
  139.4670   70.5360  222.8720 C   0  0  0  0  0  0  0  0  0  0  0  0
  139.5440   69.6210  223.8930 C   0  0  0  0  0  0  0  0  0  0  0  0
  140.0580   70.0600  225.0950 C   0  0  0  0  0  0  0  0  0  0  0  0
  140.1340   69.1380  226.1180 C   0  0  0  0  0  0  0  0  0  0  0  0
  140.6540   69.5850  227.3350 C   0  0  0  0  0  0  0  0  0  0  0  0
  140.7580   68.4280  228.6430 Cl  0  0  0  0  0  0  0  0  0  0  0  0
  141.0660   70.8950  227.4740 C   0  0  0  0  0  0  0  0  0  0  0  0
  140.9870   71.8120  226.4460 C   0  0  0  0  0  0  0  0  0  0  0  0
  140.4670   71.3720  225.2250 C   0  0  0  0  0  0  0  0  0  0  0  0
  140.3860   72.2650  224.2100 N   0  0  0  0  0  0  0  0  0  0  0  0
  139.2600   74.4250  223.0470 H   0  0  0  0  0  0  0  0  0  0  0  0
  139.1767   74.3081  220.0066 H   0  0  0  0  0  0  0  0  0  0  0  0
  138.3902   75.5722  221.0464 H   0  0  0  0  0  0  0  0  0  0  0  0
  138.6560   78.1956  220.7520 H   0  0  0  0  0  0  0  0  0  0  0  0
  138.4984   76.7873  221.9162 H   0  0  0  0  0  0  0  0  0  0  0  0
  138.1289   79.0950  222.8434 H   0  0  0  0  0  0  0  0  0  0  0  0
  139.3153   77.9984  223.6788 H   0  0  0  0  0  0  0  0  0  0  0  0
  139.9889   80.2576  221.7748 H   0  0  0  0  0  0  0  0  0  0  0  0
  140.1681   80.2797  223.5543 H   0  0  0  0  0  0  0  0  0  0  0  0
  142.2902   79.6997  222.4043 H   0  0  0  0  0  0  0  0  0  0  0  0
  141.6688   78.3464  223.4435 H   0  0  0  0  0  0  0  0  0  0  0  0
  142.3491   77.2806  221.5531 H   0  0  0  0  0  0  0  0  0  0  0  0
  142.8601   77.1643  218.8521 H   0  0  0  0  0  0  0  0  0  0  0  0
  143.1440   79.0290  217.1010 H   0  0  0  0  0  0  0  0  0  0  0  0
  141.2110   80.8026  220.4369 H   0  0  0  0  0  0  0  0  0  0  0  0
  139.0619   70.2185  221.8998 H   0  0  0  0  0  0  0  0  0  0  0  0
  139.2098   68.5818  223.7578 H   0  0  0  0  0  0  0  0  0  0  0  0
  139.8005   68.0987  225.9818 H   0  0  0  0  0  0  0  0  0  0  0  0
  141.4734   71.2208  228.4425 H   0  0  0  0  0  0  0  0  0  0  0  0
  141.3209   72.8512  226.5821 H   0  0  0  0  0  0  0  0  0  0  0  0
  1  2  2  0
  2  3  1  0
  3  4  1  0
  4  5  1  0
  5  6  2  0
  5  7  1  0
  7  8  1  0
  8  9  1  0
  9 10  1  0
 10 11  1  0
 11 12  1  0
 12 13  1  0
 13 14  2  0
 14 15  1  0
 15 16  1  0
 16 17  1  0
 16 18  2  0
  2 19  1  0
 19 20  2  0
 20 21  1  0
 21 22  2  0
 22 23  1  0
 23 24  2  0
 24 25  1  0
 24 26  1  0
 26 27  2  0
 27 28  1  0
 28 29  2  0
 12  7  1  0
 18 13  1  0
 29 19  1  0
 28 22  1  0
  3 30  1  0
  4 31  1  0
  4 32  1  0
  8 33  1  0
  8 34  1  0
  9 35  1  0
  9 36  1  0
 10 37  1  0
 10 38  1  0
 11 39  1  0
 11 40  1  0
 12 41  1  1
 14 42  1  0
 15 43  1  0
 18 44  1  0
 20 45  1  0
 21 46  1  0
 23 47  1  0
 26 48  1  0
 27 49  1  0
M  END
>  <smiles>  (19) 
O=C(NCC(=O)N1CCCC[C@@H]1c1c[nH]c(Cl)c1)c1ccc2cc(Cl)ccc2n1

>  <score_type>  (19) 
oracle

>  <origin>  (19) 
autodockgpu

>  <m_score__min__energy>  (19) 
-8.9000000000000004

>  <m_primary>  (19) 
energy

>  <rmsd>  (19) 
2.98923540248946

>  <m_score__min__rmsd>  (19) 
2.98923540248946

>  <meeko>  (19) 
{"free_energy": -8.53, "intermolecular_energy": -10.02, "internal_energy": -1.31, "cluster_size": 6, "cluster_id": 2, "rank_in_cluster": 1}

>  <energy>  (19) 
-8.14

>  <cluster_rmsd>  (19) 
1.18

>  <cluster>  (19) 
1

$$$$

     RDKit          3D

 49 52  0  0  0  0  0  0  0  0999 V2000
  139.2740   71.8590  220.8860 O   0  0  0  0  0  0  0  0  0  0  0  0
  139.4370   72.3090  222.0490 C   0  0  0  0  0  0  0  0  0  0  0  0
  139.3800   73.7190  222.2070 N   0  0  0  0  0  0  0  0  0  0  0  0
  139.1450   74.5420  221.0640 C   0  0  0  0  0  0  0  0  0  0  0  0
  139.0430   75.9960  221.4260 C   0  0  0  0  0  0  0  0  0  0  0  0
  138.2740   76.3890  222.3440 O   0  0  0  0  0  0  0  0  0  0  0  0
  139.8380   76.9290  220.7040 N   0  0  0  0  0  0  0  0  0  0  0  0
  139.2270   77.6150  219.5990 C   0  0  0  0  0  0  0  0  0  0  0  0
  139.6960   79.0200  219.4110 C   0  0  0  0  0  0  0  0  0  0  0  0
  141.1830   79.1400  219.4870 C   0  0  0  0  0  0  0  0  0  0  0  0
  141.6360   78.6140  220.8270 C   0  0  0  0  0  0  0  0  0  0  0  0
  141.1980   77.1860  221.0550 C   0  0  2  0  0  0  0  0  0  0  0  0
  142.1680   76.2170  220.4630 C   0  0  0  0  0  0  0  0  0  0  0  0
  143.0560   76.4200  219.4200 C   0  0  0  0  0  0  0  0  0  0  0  0
  143.7650   75.3100  219.1730 N   0  0  0  0  0  0  0  0  0  0  0  0
  143.3840   74.3600  220.0160 C   0  0  0  0  0  0  0  0  0  0  0  0
  144.0480   72.7400  220.0500 Cl  0  0  0  0  0  0  0  0  0  0  0  0
  142.3850   74.8910  220.8400 C   0  0  0  0  0  0  0  0  0  0  0  0
  139.6760   71.4570  223.2110 C   0  0  0  0  0  0  0  0  0  0  0  0
  139.3460   70.1080  223.0720 C   0  0  0  0  0  0  0  0  0  0  0  0
  139.5250   69.2080  224.0940 C   0  0  0  0  0  0  0  0  0  0  0  0
  140.0500   69.6920  225.2750 C   0  0  0  0  0  0  0  0  0  0  0  0
  140.2280   68.7850  226.2980 C   0  0  0  0  0  0  0  0  0  0  0  0
  140.7580   69.2780  227.4940 C   0  0  0  0  0  0  0  0  0  0  0  0
  140.9920   68.1410  228.8030 Cl  0  0  0  0  0  0  0  0  0  0  0  0
  141.0790   70.6150  227.6110 C   0  0  0  0  0  0  0  0  0  0  0  0
  140.8970   71.5170  226.5820 C   0  0  0  0  0  0  0  0  0  0  0  0
  140.3670   71.0310  225.3830 C   0  0  0  0  0  0  0  0  0  0  0  0
  140.1850   71.9090  224.3670 N   0  0  0  0  0  0  0  0  0  0  0  0
  139.5180   74.0950  223.1920 H   0  0  0  0  0  0  0  0  0  0  0  0
  139.9759   74.4104  220.3553 H   0  0  0  0  0  0  0  0  0  0  0  0
  138.1873   74.2361  220.6175 H   0  0  0  0  0  0  0  0  0  0  0  0
  139.4480   77.0524  218.6799 H   0  0  0  0  0  0  0  0  0  0  0  0
  138.1507   77.6697  219.8193 H   0  0  0  0  0  0  0  0  0  0  0  0
  139.3632   79.3743  218.4242 H   0  0  0  0  0  0  0  0  0  0  0  0
  139.2690   79.6271  220.2229 H   0  0  0  0  0  0  0  0  0  0  0  0
  141.6448   78.5506  218.6812 H   0  0  0  0  0  0  0  0  0  0  0  0
  141.4834   80.1920  219.3730 H   0  0  0  0  0  0  0  0  0  0  0  0
  142.7341   78.6598  220.8732 H   0  0  0  0  0  0  0  0  0  0  0  0
  141.1772   79.2377  221.6083 H   0  0  0  0  0  0  0  0  0  0  0  0
  141.2159   77.0265  222.1432 H   0  0  0  0  0  0  0  0  0  0  0  0
  143.1648   77.3654  218.8683 H   0  0  0  0  0  0  0  0  0  0  0  0
  144.5000   75.2090  218.4330 H   0  0  0  0  0  0  0  0  0  0  0  0
  141.8613   74.3556  221.6456 H   0  0  0  0  0  0  0  0  0  0  0  0
  138.9306   69.7554  222.1164 H   0  0  0  0  0  0  0  0  0  0  0  0
  139.2611   68.1466  223.9762 H   0  0  0  0  0  0  0  0  0  0  0  0
  139.9654   67.7235  226.1788 H   0  0  0  0  0  0  0  0  0  0  0  0
  141.4966   70.9764  228.5623 H   0  0  0  0  0  0  0  0  0  0  0  0
  141.1592   72.5786  226.7010 H   0  0  0  0  0  0  0  0  0  0  0  0
  1  2  2  0
  2  3  1  0
  3  4  1  0
  4  5  1  0
  5  6  2  0
  5  7  1  0
  7  8  1  0
  8  9  1  0
  9 10  1  0
 10 11  1  0
 11 12  1  0
 12 13  1  0
 13 14  2  0
 14 15  1  0
 15 16  1  0
 16 17  1  0
 16 18  2  0
  2 19  1  0
 19 20  2  0
 20 21  1  0
 21 22  2  0
 22 23  1  0
 23 24  2  0
 24 25  1  0
 24 26  1  0
 26 27  2  0
 27 28  1  0
 28 29  2  0
 12  7  1  0
 18 13  1  0
 29 19  1  0
 28 22  1  0
  3 30  1  0
  4 31  1  0
  4 32  1  0
  8 33  1  0
  8 34  1  0
  9 35  1  0
  9 36  1  0
 10 37  1  0
 10 38  1  0
 11 39  1  0
 11 40  1  0
 12 41  1  1
 14 42  1  0
 15 43  1  0
 18 44  1  0
 20 45  1  0
 21 46  1  0
 23 47  1  0
 26 48  1  0
 27 49  1  0
M  END
>  <smiles>  (20) 
O=C(NCC(=O)N1CCCC[C@@H]1c1c[nH]c(Cl)c1)c1ccc2cc(Cl)ccc2n1

>  <score_type>  (20) 
oracle

>  <origin>  (20) 
autodockgpu

>  <m_score__min__energy>  (20) 
-8.9000000000000004

>  <m_primary>  (20) 
energy

>  <rmsd>  (20) 
2.0750458967776524

>  <m_score__min__rmsd>  (20) 
2.0750458967776524

>  <meeko>  (20) 
{"free_energy": -7.99, "intermolecular_energy": -9.48, "internal_energy": -1.66, "cluster_size": 9, "cluster_id": 3, "rank_in_cluster": 7}

>  <energy>  (20) 
-8.09

>  <cluster_rmsd>  (20) 
1.22

>  <cluster>  (20) 
1

$$$$

     RDKit          3D

 49 52  0  0  0  0  0  0  0  0999 V2000
  140.4290   72.2190  220.9000 O   0  0  0  0  0  0  0  0  0  0  0  0
  140.0480   72.5640  222.0480 C   0  0  0  0  0  0  0  0  0  0  0  0
  139.5590   73.8900  222.1920 N   0  0  0  0  0  0  0  0  0  0  0  0
  139.5240   74.7500  221.0540 C   0  0  0  0  0  0  0  0  0  0  0  0
  140.7420   75.6250  220.9680 C   0  0  0  0  0  0  0  0  0  0  0  0
  141.0630   76.3940  221.9140 O   0  0  0  0  0  0  0  0  0  0  0  0
  141.5330   75.5670  219.7870 N   0  0  0  0  0  0  0  0  0  0  0  0
  140.8500   75.4660  218.5280 C   0  0  0  0  0  0  0  0  0  0  0  0
  141.5220   76.1810  217.4030 C   0  0  0  0  0  0  0  0  0  0  0  0
  142.9900   75.9080  217.3500 C   0  0  0  0  0  0  0  0  0  0  0  0
  143.5990   76.3190  218.6670 C   0  0  0  0  0  0  0  0  0  0  0  0
  142.9600   75.6070  219.8370 C   0  0  2  0  0  0  0  0  0  0  0  0
  143.5940   74.2770  220.0780 C   0  0  0  0  0  0  0  0  0  0  0  0
  144.7050   73.9840  220.8500 C   0  0  0  0  0  0  0  0  0  0  0  0
  144.9730   72.6700  220.8230 N   0  0  0  0  0  0  0  0  0  0  0  0
  144.0770   72.0650  220.0550 C   0  0  0  0  0  0  0  0  0  0  0  0
  144.0470   70.3430  219.7360 Cl  0  0  0  0  0  0  0  0  0  0  0  0
  143.1970   73.0390  219.5710 C   0  0  0  0  0  0  0  0  0  0  0  0
  140.0870   71.6750  223.2050 C   0  0  0  0  0  0  0  0  0  0  0  0
  139.5800   70.3870  223.0190 C   0  0  0  0  0  0  0  0  0  0  0  0
  139.5640   69.4600  224.0310 C   0  0  0  0  0  0  0  0  0  0  0  0
  140.0720   69.8520  225.2530 C   0  0  0  0  0  0  0  0  0  0  0  0
  140.0530   68.9180  226.2670 C   0  0  0  0  0  0  0  0  0  0  0  0
  140.5670   69.3170  227.5040 C   0  0  0  0  0  0  0  0  0  0  0  0
  140.5520   68.1450  228.8010 Cl  0  0  0  0  0  0  0  0  0  0  0  0
  141.0640   70.5940  227.6680 C   0  0  0  0  0  0  0  0  0  0  0  0
  141.0800   71.5230  226.6480 C   0  0  0  0  0  0  0  0  0  0  0  0
  140.5660   71.1310  225.4080 C   0  0  0  0  0  0  0  0  0  0  0  0
  140.5770   72.0370  224.4010 N   0  0  0  0  0  0  0  0  0  0  0  0
  139.2370   74.1770  223.1640 H   0  0  0  0  0  0  0  0  0  0  0  0
  139.4658   74.1331  220.1451 H   0  0  0  0  0  0  0  0  0  0  0  0
  138.6443   75.4033  221.1506 H   0  0  0  0  0  0  0  0  0  0  0  0
  140.7738   74.4013  218.2623 H   0  0  0  0  0  0  0  0  0  0  0  0
  139.8692   75.9453  218.6635 H   0  0  0  0  0  0  0  0  0  0  0  0
  141.0677   75.8549  216.4558 H   0  0  0  0  0  0  0  0  0  0  0  0
  141.3875   77.2608  217.5641 H   0  0  0  0  0  0  0  0  0  0  0  0
  143.1623   74.8350  217.1799 H   0  0  0  0  0  0  0  0  0  0  0  0
  143.4503   76.4753  216.5276 H   0  0  0  0  0  0  0  0  0  0  0  0
  144.6728   76.0809  218.6507 H   0  0  0  0  0  0  0  0  0  0  0  0
  143.4308   77.3985  218.7952 H   0  0  0  0  0  0  0  0  0  0  0  0
  143.1679   76.2212  220.7256 H   0  0  0  0  0  0  0  0  0  0  0  0
  145.2895   74.7286  221.4103 H   0  0  0  0  0  0  0  0  0  0  0  0
  145.7620   72.1990  221.3260 H   0  0  0  0  0  0  0  0  0  0  0  0
  142.3398   72.8598  218.9054 H   0  0  0  0  0  0  0  0  0  0  0  0
  139.1818   70.1073  222.0325 H   0  0  0  0  0  0  0  0  0  0  0  0
  139.1633   68.4476  223.8748 H   0  0  0  0  0  0  0  0  0  0  0  0
  139.6519   67.9059  226.1098 H   0  0  0  0  0  0  0  0  0  0  0  0
  141.4634   70.8828  228.6514 H   0  0  0  0  0  0  0  0  0  0  0  0
  141.4823   72.5348  226.8045 H   0  0  0  0  0  0  0  0  0  0  0  0
  1  2  2  0
  2  3  1  0
  3  4  1  0
  4  5  1  0
  5  6  2  0
  5  7  1  0
  7  8  1  0
  8  9  1  0
  9 10  1  0
 10 11  1  0
 11 12  1  0
 12 13  1  0
 13 14  2  0
 14 15  1  0
 15 16  1  0
 16 17  1  0
 16 18  2  0
  2 19  1  0
 19 20  2  0
 20 21  1  0
 21 22  2  0
 22 23  1  0
 23 24  2  0
 24 25  1  0
 24 26  1  0
 26 27  2  0
 27 28  1  0
 28 29  2  0
 12  7  1  0
 18 13  1  0
 29 19  1  0
 28 22  1  0
  3 30  1  0
  4 31  1  0
  4 32  1  0
  8 33  1  0
  8 34  1  0
  9 35  1  0
  9 36  1  0
 10 37  1  0
 10 38  1  0
 11 39  1  0
 11 40  1  0
 12 41  1  1
 14 42  1  0
 15 43  1  0
 18 44  1  0
 20 45  1  0
 21 46  1  0
 23 47  1  0
 26 48  1  0
 27 49  1  0
M  END
>  <smiles>  (21) 
O=C(NCC(=O)N1CCCC[C@@H]1c1c[nH]c(Cl)c1)c1ccc2cc(Cl)ccc2n1

>  <score_type>  (21) 
oracle

>  <origin>  (21) 
autodockgpu

>  <m_score__min__energy>  (21) 
-8.9000000000000004

>  <m_primary>  (21) 
energy

>  <rmsd>  (21) 
1.7891989003363507

>  <m_score__min__rmsd>  (21) 
1.7891989003363507

>  <meeko>  (21) 
{"free_energy": -8.16, "intermolecular_energy": -9.66, "internal_energy": -1.79, "cluster_size": 9, "cluster_id": 3, "rank_in_cluster": 3}

>  <energy>  (21) 
-8.01

>  <cluster_rmsd>  (21) 
1.73

>  <cluster>  (21) 
1

$$$$

     RDKit          3D

 49 52  0  0  0  0  0  0  0  0999 V2000
  139.9400   71.9890  220.7710 O   0  0  0  0  0  0  0  0  0  0  0  0
  139.5610   72.3120  221.9250 C   0  0  0  0  0  0  0  0  0  0  0  0
  138.9050   73.5650  222.0590 N   0  0  0  0  0  0  0  0  0  0  0  0
  138.7120   74.3810  220.9040 C   0  0  0  0  0  0  0  0  0  0  0  0
  139.2310   75.7760  221.1030 C   0  0  0  0  0  0  0  0  0  0  0  0
  138.4860   76.6970  221.5310 O   0  0  0  0  0  0  0  0  0  0  0  0
  140.5950   76.0380  220.7950 N   0  0  0  0  0  0  0  0  0  0  0  0
  141.4970   74.9210  220.7420 C   0  0  0  0  0  0  0  0  0  0  0  0
  142.5760   75.0480  219.7180 C   0  0  0  0  0  0  0  0  0  0  0  0
  143.2310   76.3900  219.7430 C   0  0  0  0  0  0  0  0  0  0  0  0
  142.1730   77.4420  219.5180 C   0  0  0  0  0  0  0  0  0  0  0  0
  141.0670   77.3630  220.5440 C   0  0  2  0  0  0  0  0  0  0  0  0
  141.4140   78.1250  221.7800 C   0  0  0  0  0  0  0  0  0  0  0  0
  141.4030   77.6830  223.0920 C   0  0  0  0  0  0  0  0  0  0  0  0
  141.7790   78.6610  223.9290 N   0  0  0  0  0  0  0  0  0  0  0  0
  142.0430   79.7520  223.2240 C   0  0  0  0  0  0  0  0  0  0  0  0
  142.5700   81.2740  223.9120 Cl  0  0  0  0  0  0  0  0  0  0  0  0
  141.8270   79.4550  221.8740 C   0  0  0  0  0  0  0  0  0  0  0  0
  139.7620   71.4690  223.1000 C   0  0  0  0  0  0  0  0  0  0  0  0
  139.4020   70.1260  222.9720 C   0  0  0  0  0  0  0  0  0  0  0  0
  139.5450   69.2350  224.0060 C   0  0  0  0  0  0  0  0  0  0  0  0
  140.0650   69.7200  225.1890 C   0  0  0  0  0  0  0  0  0  0  0  0
  140.2070   68.8210  226.2250 C   0  0  0  0  0  0  0  0  0  0  0  0
  140.7330   69.3150  227.4220 C   0  0  0  0  0  0  0  0  0  0  0  0
  140.9210   68.1890  228.7470 Cl  0  0  0  0  0  0  0  0  0  0  0  0
  141.0850   70.6450  227.5290 C   0  0  0  0  0  0  0  0  0  0  0  0
  140.9390   71.5390  226.4870 C   0  0  0  0  0  0  0  0  0  0  0  0
  140.4130   71.0520  225.2860 C   0  0  0  0  0  0  0  0  0  0  0  0
  140.2660   71.9220  224.2580 N   0  0  0  0  0  0  0  0  0  0  0  0
  138.5850   73.8340  223.0370 H   0  0  0  0  0  0  0  0  0  0  0  0
  139.2409   73.9239  220.0547 H   0  0  0  0  0  0  0  0  0  0  0  0
  137.6307   74.4466  220.7132 H   0  0  0  0  0  0  0  0  0  0  0  0
  141.9703   74.8138  221.7292 H   0  0  0  0  0  0  0  0  0  0  0  0
  140.8956   74.0449  220.4576 H   0  0  0  0  0  0  0  0  0  0  0  0
  143.3386   74.2793  219.9115 H   0  0  0  0  0  0  0  0  0  0  0  0
  142.1148   74.9188  218.7277 H   0  0  0  0  0  0  0  0  0  0  0  0
  143.7122   76.5502  220.7191 H   0  0  0  0  0  0  0  0  0  0  0  0
  143.9971   76.4508  218.9560 H   0  0  0  0  0  0  0  0  0  0  0  0
  142.6419   78.4353  219.5775 H   0  0  0  0  0  0  0  0  0  0  0  0
  141.7288   77.2696  218.5266 H   0  0  0  0  0  0  0  0  0  0  0  0
  140.1953   77.8642  220.0981 H   0  0  0  0  0  0  0  0  0  0  0  0
  141.1235   76.6664  223.4056 H   0  0  0  0  0  0  0  0  0  0  0  0
  141.8500   78.5770  224.9710 H   0  0  0  0  0  0  0  0  0  0  0  0
  141.9598   80.1499  221.0317 H   0  0  0  0  0  0  0  0  0  0  0  0
  138.9919   69.7719  222.0147 H   0  0  0  0  0  0  0  0  0  0  0  0
  139.2573   68.1789  223.8966 H   0  0  0  0  0  0  0  0  0  0  0  0
  139.9198   67.7649  226.1146 H   0  0  0  0  0  0  0  0  0  0  0  0
  141.4982   71.0072  228.4820 H   0  0  0  0  0  0  0  0  0  0  0  0
  141.2258   72.5952  226.5973 H   0  0  0  0  0  0  0  0  0  0  0  0
  1  2  2  0
  2  3  1  0
  3  4  1  0
  4  5  1  0
  5  6  2  0
  5  7  1  0
  7  8  1  0
  8  9  1  0
  9 10  1  0
 10 11  1  0
 11 12  1  0
 12 13  1  0
 13 14  2  0
 14 15  1  0
 15 16  1  0
 16 17  1  0
 16 18  2  0
  2 19  1  0
 19 20  2  0
 20 21  1  0
 21 22  2  0
 22 23  1  0
 23 24  2  0
 24 25  1  0
 24 26  1  0
 26 27  2  0
 27 28  1  0
 28 29  2  0
 12  7  1  0
 18 13  1  0
 29 19  1  0
 28 22  1  0
  3 30  1  0
  4 31  1  0
  4 32  1  0
  8 33  1  0
  8 34  1  0
  9 35  1  0
  9 36  1  0
 10 37  1  0
 10 38  1  0
 11 39  1  0
 11 40  1  0
 12 41  1  6
 14 42  1  0
 15 43  1  0
 18 44  1  0
 20 45  1  0
 21 46  1  0
 23 47  1  0
 26 48  1  0
 27 49  1  0
M  END
>  <smiles>  (22) 
O=C(NCC(=O)N1CCCC[C@@H]1c1c[nH]c(Cl)c1)c1ccc2cc(Cl)ccc2n1

>  <score_type>  (22) 
oracle

>  <origin>  (22) 
autodockgpu

>  <m_score__min__energy>  (22) 
-8.9000000000000004

>  <m_primary>  (22) 
energy

>  <rmsd>  (22) 
1.905187062827649

>  <m_score__min__rmsd>  (22) 
1.905187062827649

>  <meeko>  (22) 
{"free_energy": -8.86, "intermolecular_energy": -10.35, "internal_energy": -1.41, "cluster_size": 23, "cluster_id": 1, "rank_in_cluster": 2}

>  <energy>  (22) 
-7.92

>  <cluster_rmsd>  (22) 
1.29

>  <cluster>  (22) 
1

$$$$

     RDKit          3D

 49 52  0  0  0  0  0  0  0  0999 V2000
  140.5960   72.4050  220.7790 O   0  0  0  0  0  0  0  0  0  0  0  0
  140.2480   72.7900  221.9250 C   0  0  0  0  0  0  0  0  0  0  0  0
  139.8780   74.1550  222.0580 N   0  0  0  0  0  0  0  0  0  0  0  0
  139.9170   75.0070  220.9130 C   0  0  0  0  0  0  0  0  0  0  0  0
  141.3150   75.4470  220.5830 C   0  0  0  0  0  0  0  0  0  0  0  0
  142.3050   74.6950  220.7950 O   0  0  0  0  0  0  0  0  0  0  0  0
  141.5010   76.7410  220.0220 N   0  0  0  0  0  0  0  0  0  0  0  0
  142.6390   76.9430  219.1700 C   0  0  0  0  0  0  0  0  0  0  0  0
  142.4050   77.8950  218.0440 C   0  0  0  0  0  0  0  0  0  0  0  0
  141.7160   79.1450  218.4880 C   0  0  0  0  0  0  0  0  0  0  0  0
  140.4050   78.7640  219.1300 C   0  0  0  0  0  0  0  0  0  0  0  0
  140.5950   77.8120  220.2880 C   0  0  2  0  0  0  0  0  0  0  0  0
  140.8830   78.5470  221.5560 C   0  0  0  0  0  0  0  0  0  0  0  0
  140.1320   78.5800  222.7180 C   0  0  0  0  0  0  0  0  0  0  0  0
  140.7170   79.3530  223.6440 N   0  0  0  0  0  0  0  0  0  0  0  0
  141.8420   79.8450  223.1440 C   0  0  0  0  0  0  0  0  0  0  0  0
  142.9300   80.9100  224.0100 Cl  0  0  0  0  0  0  0  0  0  0  0  0
  141.9810   79.3620  221.8380 C   0  0  0  0  0  0  0  0  0  0  0  0
  140.2090   71.9110  223.0890 C   0  0  0  0  0  0  0  0  0  0  0  0
  139.6520   70.6450  222.8950 C   0  0  0  0  0  0  0  0  0  0  0  0
  139.5600   69.7290  223.9130 C   0  0  0  0  0  0  0  0  0  0  0  0
  140.0460   70.1090  225.1480 C   0  0  0  0  0  0  0  0  0  0  0  0
  139.9520   69.1850  226.1680 C   0  0  0  0  0  0  0  0  0  0  0  0
  140.4440   69.5720  227.4180 C   0  0  0  0  0  0  0  0  0  0  0  0
  140.3340   68.4130  228.7230 Cl  0  0  0  0  0  0  0  0  0  0  0  0
  140.9920   70.8260  227.5890 C   0  0  0  0  0  0  0  0  0  0  0  0
  141.0820   71.7450  226.5630 C   0  0  0  0  0  0  0  0  0  0  0  0
  140.5920   71.3650  225.3100 C   0  0  0  0  0  0  0  0  0  0  0  0
  140.6760   72.2610  224.2970 N   0  0  0  0  0  0  0  0  0  0  0  0
  139.5830   74.4780  223.0270 H   0  0  0  0  0  0  0  0  0  0  0  0
  139.5040   74.4621  220.0513 H   0  0  0  0  0  0  0  0  0  0  0  0
  139.3238   75.9053  221.1390 H   0  0  0  0  0  0  0  0  0  0  0  0
  143.4639   77.3329  219.7844 H   0  0  0  0  0  0  0  0  0  0  0  0
  142.8673   75.9681  218.7146 H   0  0  0  0  0  0  0  0  0  0  0  0
  143.3755   78.1646  217.6020 H   0  0  0  0  0  0  0  0  0  0  0  0
  141.7535   77.3950  217.3122 H   0  0  0  0  0  0  0  0  0  0  0  0
  142.3454   79.6774  219.2163 H   0  0  0  0  0  0  0  0  0  0  0  0
  141.5371   79.8044  217.6260 H   0  0  0  0  0  0  0  0  0  0  0  0
  139.9118   79.6759  219.4977 H   0  0  0  0  0  0  0  0  0  0  0  0
  139.7910   78.2566  218.3714 H   0  0  0  0  0  0  0  0  0  0  0  0
  139.6313   77.3011  220.4304 H   0  0  0  0  0  0  0  0  0  0  0  0
  139.1824   78.0439  222.8624 H   0  0  0  0  0  0  0  0  0  0  0  0
  140.3460   79.5390  224.6060 H   0  0  0  0  0  0  0  0  0  0  0  0
  142.8115   79.5857  221.1523 H   0  0  0  0  0  0  0  0  0  0  0  0
  139.2761   70.3741  221.8973 H   0  0  0  0  0  0  0  0  0  0  0  0
  139.1180   68.7347  223.7517 H   0  0  0  0  0  0  0  0  0  0  0  0
  139.5107   68.1906  226.0054 H   0  0  0  0  0  0  0  0  0  0  0  0
  141.3726   71.1049  228.5827 H   0  0  0  0  0  0  0  0  0  0  0  0
  141.5230   72.7396  226.7253 H   0  0  0  0  0  0  0  0  0  0  0  0
  1  2  2  0
  2  3  1  0
  3  4  1  0
  4  5  1  0
  5  6  2  0
  5  7  1  0
  7  8  1  0
  8  9  1  0
  9 10  1  0
 10 11  1  0
 11 12  1  0
 12 13  1  0
 13 14  2  0
 14 15  1  0
 15 16  1  0
 16 17  1  0
 16 18  2  0
  2 19  1  0
 19 20  2  0
 20 21  1  0
 21 22  2  0
 22 23  1  0
 23 24  2  0
 24 25  1  0
 24 26  1  0
 26 27  2  0
 27 28  1  0
 28 29  2  0
 12  7  1  0
 18 13  1  0
 29 19  1  0
 28 22  1  0
  3 30  1  0
  4 31  1  0
  4 32  1  0
  8 33  1  0
  8 34  1  0
  9 35  1  0
  9 36  1  0
 10 37  1  0
 10 38  1  0
 11 39  1  0
 11 40  1  0
 12 41  1  1
 14 42  1  0
 15 43  1  0
 18 44  1  0
 20 45  1  0
 21 46  1  0
 23 47  1  0
 26 48  1  0
 27 49  1  0
M  END
>  <smiles>  (23) 
O=C(NCC(=O)N1CCCC[C@@H]1c1c[nH]c(Cl)c1)c1ccc2cc(Cl)ccc2n1

>  <score_type>  (23) 
oracle

>  <origin>  (23) 
autodockgpu

>  <m_score__min__energy>  (23) 
-8.9000000000000004

>  <m_primary>  (23) 
energy

>  <rmsd>  (23) 
2.301084951682026

>  <m_score__min__rmsd>  (23) 
2.301084951682026

>  <meeko>  (23) 
{"free_energy": -8.45, "intermolecular_energy": -9.94, "internal_energy": -1.28, "cluster_size": 23, "cluster_id": 1, "rank_in_cluster": 14}

>  <energy>  (23) 
-7.9

>  <cluster_rmsd>  (23) 
1.69

>  <cluster>  (23) 
1

$$$$

     RDKit          3D

 49 52  0  0  0  0  0  0  0  0999 V2000
  139.9370   72.2410  220.6900 O   0  0  0  0  0  0  0  0  0  0  0  0
  139.7370   72.6510  221.8620 C   0  0  0  0  0  0  0  0  0  0  0  0
  139.3580   74.0120  222.0100 N   0  0  0  0  0  0  0  0  0  0  0  0
  139.2240   74.8320  220.8490 C   0  0  0  0  0  0  0  0  0  0  0  0
  140.2430   75.9340  220.8140 C   0  0  0  0  0  0  0  0  0  0  0  0
  141.2090   75.9070  220.0050 O   0  0  0  0  0  0  0  0  0  0  0  0
  140.0960   77.0190  221.7220 N   0  0  0  0  0  0  0  0  0  0  0  0
  141.0720   77.1560  222.7670 C   0  0  0  0  0  0  0  0  0  0  0  0
  141.3890   78.5670  223.1350 C   0  0  0  0  0  0  0  0  0  0  0  0
  140.1610   79.4020  223.3030 C   0  0  0  0  0  0  0  0  0  0  0  0
  139.3770   79.3620  222.0140 C   0  0  0  0  0  0  0  0  0  0  0  0
  139.0190   77.9510  221.6100 C   0  0  2  0  0  0  0  0  0  0  0  0
  137.7580   77.4980  222.2700 C   0  0  0  0  0  0  0  0  0  0  0  0
  136.5070   78.0900  222.2280 C   0  0  0  0  0  0  0  0  0  0  0  0
  135.6210   77.3890  222.9480 N   0  0  0  0  0  0  0  0  0  0  0  0
  136.2340   76.3390  223.4780 C   0  0  0  0  0  0  0  0  0  0  0  0
  135.4540   75.1470  224.4980 Cl  0  0  0  0  0  0  0  0  0  0  0  0
  137.5730   76.3740  223.0760 C   0  0  0  0  0  0  0  0  0  0  0  0
  139.8750   71.8040  223.0420 C   0  0  0  0  0  0  0  0  0  0  0  0
  139.4630   70.4760  222.9080 C   0  0  0  0  0  0  0  0  0  0  0  0
  139.5450   69.5820  223.9460 C   0  0  0  0  0  0  0  0  0  0  0  0
  140.0550   70.0490  225.1410 C   0  0  0  0  0  0  0  0  0  0  0  0
  140.1350   69.1470  226.1810 C   0  0  0  0  0  0  0  0  0  0  0  0
  140.6510   69.6220  227.3900 C   0  0  0  0  0  0  0  0  0  0  0  0
  140.7600   68.4920  228.7210 Cl  0  0  0  0  0  0  0  0  0  0  0  0
  141.0530   70.9370  227.5040 C   0  0  0  0  0  0  0  0  0  0  0  0
  140.9700   71.8330  226.4580 C   0  0  0  0  0  0  0  0  0  0  0  0
  140.4540   71.3650  225.2450 C   0  0  0  0  0  0  0  0  0  0  0  0
  140.3680   72.2380  224.2120 N   0  0  0  0  0  0  0  0  0  0  0  0
  139.1890   74.3560  223.0020 H   0  0  0  0  0  0  0  0  0  0  0  0
  139.3503   74.2039  219.9548 H   0  0  0  0  0  0  0  0  0  0  0  0
  138.2263   75.2945  220.8748 H   0  0  0  0  0  0  0  0  0  0  0  0
  140.6905   76.6444  223.6630 H   0  0  0  0  0  0  0  0  0  0  0  0
  142.0044   76.7148  222.3848 H   0  0  0  0  0  0  0  0  0  0  0  0
  141.9489   78.5678  224.0818 H   0  0  0  0  0  0  0  0  0  0  0  0
  141.9808   79.0021  222.3162 H   0  0  0  0  0  0  0  0  0  0  0  0
  139.5480   79.0001  224.1232 H   0  0  0  0  0  0  0  0  0  0  0  0
  140.4392   80.4386  223.5439 H   0  0  0  0  0  0  0  0  0  0  0  0
  138.4500   79.9395  222.1447 H   0  0  0  0  0  0  0  0  0  0  0  0
  140.0067   79.7919  221.2211 H   0  0  0  0  0  0  0  0  0  0  0  0
  138.8178   77.9807  220.5290 H   0  0  0  0  0  0  0  0  0  0  0  0
  136.2720   79.0126  221.6770 H   0  0  0  0  0  0  0  0  0  0  0  0
  134.6090   77.6310  223.0730 H   0  0  0  0  0  0  0  0  0  0  0  0
  138.3472   75.6415  223.3483 H   0  0  0  0  0  0  0  0  0  0  0  0
  139.0609   70.1368  221.9419 H   0  0  0  0  0  0  0  0  0  0  0  0
  139.2184   68.5380  223.8308 H   0  0  0  0  0  0  0  0  0  0  0  0
  139.8082   68.1031  226.0646 H   0  0  0  0  0  0  0  0  0  0  0  0
  141.4555   71.2848  228.4668 H   0  0  0  0  0  0  0  0  0  0  0  0
  141.2975   72.8767  226.5737 H   0  0  0  0  0  0  0  0  0  0  0  0
  1  2  2  0
  2  3  1  0
  3  4  1  0
  4  5  1  0
  5  6  2  0
  5  7  1  0
  7  8  1  0
  8  9  1  0
  9 10  1  0
 10 11  1  0
 11 12  1  0
 12 13  1  0
 13 14  2  0
 14 15  1  0
 15 16  1  0
 16 17  1  0
 16 18  2  0
  2 19  1  0
 19 20  2  0
 20 21  1  0
 21 22  2  0
 22 23  1  0
 23 24  2  0
 24 25  1  0
 24 26  1  0
 26 27  2  0
 27 28  1  0
 28 29  2  0
 12  7  1  0
 18 13  1  0
 29 19  1  0
 28 22  1  0
  3 30  1  0
  4 31  1  0
  4 32  1  0
  8 33  1  0
  8 34  1  0
  9 35  1  0
  9 36  1  0
 10 37  1  0
 10 38  1  0
 11 39  1  0
 11 40  1  0
 12 41  1  6
 14 42  1  0
 15 43  1  0
 18 44  1  0
 20 45  1  0
 21 46  1  0
 23 47  1  0
 26 48  1  0
 27 49  1  0
M  END
>  <smiles>  (24) 
O=C(NCC(=O)N1CCCC[C@@H]1c1c[nH]c(Cl)c1)c1ccc2cc(Cl)ccc2n1

>  <score_type>  (24) 
oracle

>  <origin>  (24) 
autodockgpu

>  <m_score__min__energy>  (24) 
-8.9000000000000004

>  <m_primary>  (24) 
energy

>  <rmsd>  (24) 
3.2575285305487336

>  <m_score__min__rmsd>  (24) 
3.2575285305487336

>  <meeko>  (24) 
{"free_energy": -7.87, "intermolecular_energy": -9.36, "internal_energy": -1.52, "cluster_size": 1, "cluster_id": 6, "rank_in_cluster": 1}

>  <energy>  (24) 
-8.53

>  <cluster_rmsd>  (24) 
0.0

>  <cluster>  (24) 
2

$$$$

     RDKit          3D

 49 52  0  0  0  0  0  0  0  0999 V2000
  140.8230   72.3800  221.0330 O   0  0  0  0  0  0  0  0  0  0  0  0
  140.2180   72.6370  222.1060 C   0  0  0  0  0  0  0  0  0  0  0  0
  139.5170   73.8710  222.1680 N   0  0  0  0  0  0  0  0  0  0  0  0
  139.5300   74.7420  221.0370 C   0  0  0  0  0  0  0  0  0  0  0  0
  140.7610   75.5990  220.9980 C   0  0  0  0  0  0  0  0  0  0  0  0
  141.0860   76.3240  221.9770 O   0  0  0  0  0  0  0  0  0  0  0  0
  141.5630   75.5760  219.8230 N   0  0  0  0  0  0  0  0  0  0  0  0
  140.8920   75.4870  218.5560 C   0  0  0  0  0  0  0  0  0  0  0  0
  141.5610   76.2330  217.4500 C   0  0  0  0  0  0  0  0  0  0  0  0
  143.0340   75.9860  217.4050 C   0  0  0  0  0  0  0  0  0  0  0  0
  143.6250   76.3830  218.7340 C   0  0  0  0  0  0  0  0  0  0  0  0
  142.9880   75.6390  219.8850 C   0  0  2  0  0  0  0  0  0  0  0  0
  143.6430   74.3150  220.1070 C   0  0  0  0  0  0  0  0  0  0  0  0
  144.7660   74.0300  220.8640 C   0  0  0  0  0  0  0  0  0  0  0  0
  145.0510   72.7210  220.8230 N   0  0  0  0  0  0  0  0  0  0  0  0
  144.1550   72.1110  220.0590 C   0  0  0  0  0  0  0  0  0  0  0  0
  144.1440   70.3910  219.7250 Cl  0  0  0  0  0  0  0  0  0  0  0  0
  143.2560   73.0770  219.5930 C   0  0  0  0  0  0  0  0  0  0  0  0
  140.2100   71.7380  223.2550 C   0  0  0  0  0  0  0  0  0  0  0  0
  139.6660   70.4680  223.0500 C   0  0  0  0  0  0  0  0  0  0  0  0
  139.6040   69.5350  224.0540 C   0  0  0  0  0  0  0  0  0  0  0  0
  140.1050   69.9010  225.2870 C   0  0  0  0  0  0  0  0  0  0  0  0
  140.0400   68.9590  226.2930 C   0  0  0  0  0  0  0  0  0  0  0  0
  140.5470   69.3320  227.5410 C   0  0  0  0  0  0  0  0  0  0  0  0
  140.4730   68.1500  228.8280 Cl  0  0  0  0  0  0  0  0  0  0  0  0
  141.0810   70.5910  227.7240 C   0  0  0  0  0  0  0  0  0  0  0  0
  141.1430   71.5280  226.7120 C   0  0  0  0  0  0  0  0  0  0  0  0
  140.6370   71.1620  225.4610 C   0  0  0  0  0  0  0  0  0  0  0  0
  140.6930   72.0750  224.4610 N   0  0  0  0  0  0  0  0  0  0  0  0
  139.0060   74.0840  223.0760 H   0  0  0  0  0  0  0  0  0  0  0  0
  139.4919   74.1342  220.1209 H   0  0  0  0  0  0  0  0  0  0  0  0
  138.6569   75.4069  221.1118 H   0  0  0  0  0  0  0  0  0  0  0  0
  140.8355   74.4262  218.2705 H   0  0  0  0  0  0  0  0  0  0  0  0
  139.9025   75.9480  218.6919 H   0  0  0  0  0  0  0  0  0  0  0  0
  141.1204   75.9161  216.4932 H   0  0  0  0  0  0  0  0  0  0  0  0
  141.4066   77.3073  217.6290 H   0  0  0  0  0  0  0  0  0  0  0  0
  143.2261   74.9193  217.2170 H   0  0  0  0  0  0  0  0  0  0  0  0
  143.4912   76.5762  216.5971 H   0  0  0  0  0  0  0  0  0  0  0  0
  144.7027   76.1631  218.7227 H   0  0  0  0  0  0  0  0  0  0  0  0
  143.4381   77.4571  218.8803 H   0  0  0  0  0  0  0  0  0  0  0  0
  143.1776   76.2406  220.7862 H   0  0  0  0  0  0  0  0  0  0  0  0
  145.3468   74.7776  221.4242 H   0  0  0  0  0  0  0  0  0  0  0  0
  145.8520   72.2560  221.3130 H   0  0  0  0  0  0  0  0  0  0  0  0
  142.3937   72.8923  218.9355 H   0  0  0  0  0  0  0  0  0  0  0  0
  139.2760   70.2083  222.0548 H   0  0  0  0  0  0  0  0  0  0  0  0
  139.1732   68.5373  223.8835 H   0  0  0  0  0  0  0  0  0  0  0  0
  139.6095   67.9615  226.1210 H   0  0  0  0  0  0  0  0  0  0  0  0
  141.4731   70.8589  228.7162 H   0  0  0  0  0  0  0  0  0  0  0  0
  141.5744   72.5253  226.8834 H   0  0  0  0  0  0  0  0  0  0  0  0
  1  2  2  0
  2  3  1  0
  3  4  1  0
  4  5  1  0
  5  6  2  0
  5  7  1  0
  7  8  1  0
  8  9  1  0
  9 10  1  0
 10 11  1  0
 11 12  1  0
 12 13  1  0
 13 14  2  0
 14 15  1  0
 15 16  1  0
 16 17  1  0
 16 18  2  0
  2 19  1  0
 19 20  2  0
 20 21  1  0
 21 22  2  0
 22 23  1  0
 23 24  2  0
 24 25  1  0
 24 26  1  0
 26 27  2  0
 27 28  1  0
 28 29  2  0
 12  7  1  0
 18 13  1  0
 29 19  1  0
 28 22  1  0
  3 30  1  0
  4 31  1  0
  4 32  1  0
  8 33  1  0
  8 34  1  0
  9 35  1  0
  9 36  1  0
 10 37  1  0
 10 38  1  0
 11 39  1  0
 11 40  1  0
 12 41  1  1
 14 42  1  0
 15 43  1  0
 18 44  1  0
 20 45  1  0
 21 46  1  0
 23 47  1  0
 26 48  1  0
 27 49  1  0
M  END
>  <smiles>  (25) 
O=C(NCC(=O)N1CCCC[C@@H]1c1c[nH]c(Cl)c1)c1ccc2cc(Cl)ccc2n1

>  <score_type>  (25) 
oracle

>  <origin>  (25) 
autodockgpu

>  <m_score__min__energy>  (25) 
-8.9000000000000004

>  <m_primary>  (25) 
energy

>  <rmsd>  (25) 
1.8291314387279076

>  <m_score__min__rmsd>  (25) 
1.8291314387279076

>  <meeko>  (25) 
{"free_energy": -8.2, "intermolecular_energy": -9.69, "internal_energy": -1.74, "cluster_size": 9, "cluster_id": 3, "rank_in_cluster": 1}

>  <energy>  (25) 
-8.51

>  <cluster_rmsd>  (25) 
0.23

>  <cluster>  (25) 
2

$$$$

     RDKit          3D

 49 52  0  0  0  0  0  0  0  0999 V2000
  138.9060   72.9570  221.1660 O   0  0  0  0  0  0  0  0  0  0  0  0
  139.9290   72.7690  221.8740 C   0  0  0  0  0  0  0  0  0  0  0  0
  141.1160   73.4420  221.4790 N   0  0  0  0  0  0  0  0  0  0  0  0
  141.0940   74.2800  220.3230 C   0  0  0  0  0  0  0  0  0  0  0  0
  142.3470   75.0970  220.1930 C   0  0  0  0  0  0  0  0  0  0  0  0
  143.4740   74.6190  220.4920 O   0  0  0  0  0  0  0  0  0  0  0  0
  142.2350   76.4350  219.7220 N   0  0  0  0  0  0  0  0  0  0  0  0
  143.2470   76.9150  218.8220 C   0  0  0  0  0  0  0  0  0  0  0  0
  142.7500   77.8690  217.7870 C   0  0  0  0  0  0  0  0  0  0  0  0
  141.8630   78.9240  218.3630 C   0  0  0  0  0  0  0  0  0  0  0  0
  140.7020   78.2490  219.0510 C   0  0  0  0  0  0  0  0  0  0  0  0
  141.1580   77.2840  220.1200 C   0  0  2  0  0  0  0  0  0  0  0  0
  141.3880   77.9810  221.4210 C   0  0  0  0  0  0  0  0  0  0  0  0
  141.0380   77.5620  222.6930 C   0  0  0  0  0  0  0  0  0  0  0  0
  141.4130   78.4610  223.6130 N   0  0  0  0  0  0  0  0  0  0  0  0
  142.0050   79.4780  223.0030 C   0  0  0  0  0  0  0  0  0  0  0  0
  142.6540   80.8840  223.8230 Cl  0  0  0  0  0  0  0  0  0  0  0  0
  142.0090   79.2130  221.6290 C   0  0  0  0  0  0  0  0  0  0  0  0
  139.9400   71.9110  223.0550 C   0  0  0  0  0  0  0  0  0  0  0  0
  139.2900   70.6810  222.9370 C   0  0  0  0  0  0  0  0  0  0  0  0
  139.2330   69.7880  223.9770 C   0  0  0  0  0  0  0  0  0  0  0  0
  139.8490   70.1540  225.1570 C   0  0  0  0  0  0  0  0  0  0  0  0
  139.7890   69.2530  226.1990 C   0  0  0  0  0  0  0  0  0  0  0  0
  140.4120   69.6270  227.3930 C   0  0  0  0  0  0  0  0  0  0  0  0
  140.3460   68.4960  228.7260 Cl  0  0  0  0  0  0  0  0  0  0  0  0
  141.0490   70.8470  227.4910 C   0  0  0  0  0  0  0  0  0  0  0  0
  141.1050   71.7430  226.4420 C   0  0  0  0  0  0  0  0  0  0  0  0
  140.4830   71.3760  225.2450 C   0  0  0  0  0  0  0  0  0  0  0  0
  140.5320   72.2490  224.2100 N   0  0  0  0  0  0  0  0  0  0  0  0
  141.9780   73.2820  222.0800 H   0  0  0  0  0  0  0  0  0  0  0  0
  140.9884   73.6480  219.4289 H   0  0  0  0  0  0  0  0  0  0  0  0
  140.2465   74.9739  220.4240 H   0  0  0  0  0  0  0  0  0  0  0  0
  144.0215   77.4235  219.4149 H   0  0  0  0  0  0  0  0  0  0  0  0
  143.6285   76.0363  218.2814 H   0  0  0  0  0  0  0  0  0  0  0  0
  143.6142   78.3554  217.3111 H   0  0  0  0  0  0  0  0  0  0  0  0
  142.1585   77.2949  217.0586 H   0  0  0  0  0  0  0  0  0  0  0  0
  142.4267   79.5261  219.0908 H   0  0  0  0  0  0  0  0  0  0  0  0
  141.4956   79.5853  217.5644 H   0  0  0  0  0  0  0  0  0  0  0  0
  140.0684   79.0191  219.5152 H   0  0  0  0  0  0  0  0  0  0  0  0
  140.1453   77.6774  218.2938 H   0  0  0  0  0  0  0  0  0  0  0  0
  140.3256   76.5826  220.2785 H   0  0  0  0  0  0  0  0  0  0  0  0
  140.5212   76.6175  222.9183 H   0  0  0  0  0  0  0  0  0  0  0  0
  141.2610   78.3750  224.6470 H   0  0  0  0  0  0  0  0  0  0  0  0
  142.4292   79.8636  220.8478 H   0  0  0  0  0  0  0  0  0  0  0  0
  138.8096   70.4203  221.9824 H   0  0  0  0  0  0  0  0  0  0  0  0
  138.7182   68.8213  223.8749 H   0  0  0  0  0  0  0  0  0  0  0  0
  139.2753   68.2859  226.0955 H   0  0  0  0  0  0  0  0  0  0  0  0
  141.5312   71.1164  228.4423 H   0  0  0  0  0  0  0  0  0  0  0  0
  141.6199   72.7097  226.5443 H   0  0  0  0  0  0  0  0  0  0  0  0
  1  2  2  0
  2  3  1  0
  3  4  1  0
  4  5  1  0
  5  6  2  0
  5  7  1  0
  7  8  1  0
  8  9  1  0
  9 10  1  0
 10 11  1  0
 11 12  1  0
 12 13  1  0
 13 14  2  0
 14 15  1  0
 15 16  1  0
 16 17  1  0
 16 18  2  0
  2 19  1  0
 19 20  2  0
 20 21  1  0
 21 22  2  0
 22 23  1  0
 23 24  2  0
 24 25  1  0
 24 26  1  0
 26 27  2  0
 27 28  1  0
 28 29  2  0
 12  7  1  0
 18 13  1  0
 29 19  1  0
 28 22  1  0
  3 30  1  0
  4 31  1  0
  4 32  1  0
  8 33  1  0
  8 34  1  0
  9 35  1  0
  9 36  1  0
 10 37  1  0
 10 38  1  0
 11 39  1  0
 11 40  1  0
 12 41  1  1
 14 42  1  0
 15 43  1  0
 18 44  1  0
 20 45  1  0
 21 46  1  0
 23 47  1  0
 26 48  1  0
 27 49  1  0
M  END
>  <smiles>  (26) 
O=C(NCC(=O)N1CCCC[C@@H]1c1c[nH]c(Cl)c1)c1ccc2cc(Cl)ccc2n1

>  <score_type>  (26) 
oracle

>  <origin>  (26) 
autodockgpu

>  <m_score__min__energy>  (26) 
-8.9000000000000004

>  <m_primary>  (26) 
energy

>  <rmsd>  (26) 
2.5393463015488873

>  <m_score__min__rmsd>  (26) 
2.5393463015488873

>  <meeko>  (26) 
{"free_energy": -8.17, "intermolecular_energy": -9.66, "internal_energy": -1.48, "cluster_size": 23, "cluster_id": 1, "rank_in_cluster": 18}

>  <energy>  (26) 
-8.4

>  <cluster_rmsd>  (26) 
0.3

>  <cluster>  (26) 
2

$$$$

     RDKit          3D

 49 52  0  0  0  0  0  0  0  0999 V2000
  141.5930   78.9710  217.0840 O   0  0  0  0  0  0  0  0  0  0  0  0
  142.1340   78.5120  218.1230 C   0  0  0  0  0  0  0  0  0  0  0  0
  142.1850   79.3700  219.2540 N   0  0  0  0  0  0  0  0  0  0  0  0
  141.6330   80.6830  219.1610 C   0  0  0  0  0  0  0  0  0  0  0  0
  141.0540   81.1460  220.4670 C   0  0  0  0  0  0  0  0  0  0  0  0
  140.3570   82.1940  220.5390 O   0  0  0  0  0  0  0  0  0  0  0  0
  141.3090   80.3700  221.6320 N   0  0  0  0  0  0  0  0  0  0  0  0
  142.5990   80.4960  222.2510 C   0  0  0  0  0  0  0  0  0  0  0  0
  142.5830   80.3800  223.7390 C   0  0  0  0  0  0  0  0  0  0  0  0
  141.7640   79.2240  224.2120 C   0  0  0  0  0  0  0  0  0  0  0  0
  140.3590   79.3880  223.6870 C   0  0  0  0  0  0  0  0  0  0  0  0
  140.3250   79.4930  222.1800 C   0  0  2  0  0  0  0  0  0  0  0  0
  140.2950   78.1430  221.5400 C   0  0  0  0  0  0  0  0  0  0  0  0
  139.7310   77.7800  220.3290 C   0  0  0  0  0  0  0  0  0  0  0  0
  139.9080   76.4720  220.0920 N   0  0  0  0  0  0  0  0  0  0  0  0
  140.5740   75.9380  221.1070 C   0  0  0  0  0  0  0  0  0  0  0  0
  141.0240   74.2490  221.2180 Cl  0  0  0  0  0  0  0  0  0  0  0  0
  140.8340   76.9540  222.0330 C   0  0  0  0  0  0  0  0  0  0  0  0
  142.6940   77.1660  218.2060 C   0  0  0  0  0  0  0  0  0  0  0  0
  142.6360   76.3940  217.0440 C   0  0  0  0  0  0  0  0  0  0  0  0
  143.1310   75.1150  216.9980 C   0  0  0  0  0  0  0  0  0  0  0  0
  143.6930   74.6140  218.1550 C   0  0  0  0  0  0  0  0  0  0  0  0
  144.1890   73.3280  218.1030 C   0  0  0  0  0  0  0  0  0  0  0  0
  144.7570   72.8230  219.2760 C   0  0  0  0  0  0  0  0  0  0  0  0
  145.3910   71.1930  219.2290 Cl  0  0  0  0  0  0  0  0  0  0  0  0
  144.8050   73.6010  220.4140 C   0  0  0  0  0  0  0  0  0  0  0  0
  144.3070   74.8880  220.4570 C   0  0  0  0  0  0  0  0  0  0  0  0
  143.7370   75.4000  219.2880 C   0  0  0  0  0  0  0  0  0  0  0  0
  143.2450   76.6620  219.3210 N   0  0  0  0  0  0  0  0  0  0  0  0
  142.6430   78.9780  220.1300 H   0  0  0  0  0  0  0  0  0  0  0  0
  142.4272   81.3810  218.8577 H   0  0  0  0  0  0  0  0  0  0  0  0
  140.8202   80.6571  218.4202 H   0  0  0  0  0  0  0  0  0  0  0  0
  143.2511   79.7054  221.8513 H   0  0  0  0  0  0  0  0  0  0  0  0
  142.9609   81.5085  222.0190 H   0  0  0  0  0  0  0  0  0  0  0  0
  143.6159   80.2498  224.0941 H   0  0  0  0  0  0  0  0  0  0  0  0
  142.1306   81.2982  224.1418 H   0  0  0  0  0  0  0  0  0  0  0  0
  142.1943   78.2848  223.8342 H   0  0  0  0  0  0  0  0  0  0  0  0
  141.7549   79.1925  225.3115 H   0  0  0  0  0  0  0  0  0  0  0  0
  139.7610   78.5179  223.9957 H   0  0  0  0  0  0  0  0  0  0  0  0
  139.9488   80.3208  224.1013 H   0  0  0  0  0  0  0  0  0  0  0  0
  139.3748   79.9855  221.9257 H   0  0  0  0  0  0  0  0  0  0  0  0
  139.2079   78.4715  219.6521 H   0  0  0  0  0  0  0  0  0  0  0  0
  139.5730   75.9560  219.2440 H   0  0  0  0  0  0  0  0  0  0  0  0
  141.3709   76.8359  222.9858 H   0  0  0  0  0  0  0  0  0  0  0  0
  142.1804   76.8234  216.1395 H   0  0  0  0  0  0  0  0  0  0  0  0
  143.0820   74.5142  216.0778 H   0  0  0  0  0  0  0  0  0  0  0  0
  144.1399   72.7284  217.1821 H   0  0  0  0  0  0  0  0  0  0  0  0
  145.2580   73.1793  221.3234 H   0  0  0  0  0  0  0  0  0  0  0  0
  144.3570   75.4883  221.3774 H   0  0  0  0  0  0  0  0  0  0  0  0
  1  2  2  0
  2  3  1  0
  3  4  1  0
  4  5  1  0
  5  6  2  0
  5  7  1  0
  7  8  1  0
  8  9  1  0
  9 10  1  0
 10 11  1  0
 11 12  1  0
 12 13  1  0
 13 14  2  0
 14 15  1  0
 15 16  1  0
 16 17  1  0
 16 18  2  0
  2 19  1  0
 19 20  2  0
 20 21  1  0
 21 22  2  0
 22 23  1  0
 23 24  2  0
 24 25  1  0
 24 26  1  0
 26 27  2  0
 27 28  1  0
 28 29  2  0
 12  7  1  0
 18 13  1  0
 29 19  1  0
 28 22  1  0
  3 30  1  0
  4 31  1  0
  4 32  1  0
  8 33  1  0
  8 34  1  0
  9 35  1  0
  9 36  1  0
 10 37  1  0
 10 38  1  0
 11 39  1  0
 11 40  1  0
 12 41  1  1
 14 42  1  0
 15 43  1  0
 18 44  1  0
 20 45  1  0
 21 46  1  0
 23 47  1  0
 26 48  1  0
 27 49  1  0
M  END
>  <smiles>  (27) 
O=C(NCC(=O)N1CCCC[C@@H]1c1c[nH]c(Cl)c1)c1ccc2cc(Cl)ccc2n1

>  <score_type>  (27) 
oracle

>  <origin>  (27) 
autodockgpu

>  <m_score__min__energy>  (27) 
-8.9000000000000004

>  <m_primary>  (27) 
energy

>  <rmsd>  (27) 
8.379327216404665

>  <m_score__min__rmsd>  (27) 
8.379327216404665

>  <meeko>  (27) 
{"free_energy": -6.63, "intermolecular_energy": -8.13, "internal_energy": -2.78, "cluster_size": 5, "cluster_id": 9, "rank_in_cluster": 2}

>  <energy>  (27) 
-8.26

>  <cluster_rmsd>  (27) 
1.46

>  <cluster>  (27) 
2

$$$$

     RDKit          3D

 49 52  0  0  0  0  0  0  0  0999 V2000
  141.5170   78.9170  217.1530 O   0  0  0  0  0  0  0  0  0  0  0  0
  142.1200   78.4820  218.1670 C   0  0  0  0  0  0  0  0  0  0  0  0
  142.2280   79.3630  219.2770 N   0  0  0  0  0  0  0  0  0  0  0  0
  141.6590   80.6690  219.1920 C   0  0  0  0  0  0  0  0  0  0  0  0
  141.0920   81.1260  220.5050 C   0  0  0  0  0  0  0  0  0  0  0  0
  140.4040   82.1780  220.5900 O   0  0  0  0  0  0  0  0  0  0  0  0
  141.3500   80.3400  221.6620 N   0  0  0  0  0  0  0  0  0  0  0  0
  142.6440   80.4550  222.2750 C   0  0  0  0  0  0  0  0  0  0  0  0
  142.6350   80.3270  223.7630 C   0  0  0  0  0  0  0  0  0  0  0  0
  141.8140   79.1700  224.2300 C   0  0  0  0  0  0  0  0  0  0  0  0
  140.4070   79.3430  223.7130 C   0  0  0  0  0  0  0  0  0  0  0  0
  140.3660   79.4610  222.2080 C   0  0  2  0  0  0  0  0  0  0  0  0
  140.3280   78.1170  221.5570 C   0  0  0  0  0  0  0  0  0  0  0  0
  139.7400   77.7620  220.3550 C   0  0  0  0  0  0  0  0  0  0  0  0
  139.9170   76.4570  220.1030 N   0  0  0  0  0  0  0  0  0  0  0  0
  140.6070   75.9170  221.0980 C   0  0  0  0  0  0  0  0  0  0  0  0
  141.0670   74.2290  221.1840 Cl  0  0  0  0  0  0  0  0  0  0  0  0
  140.8840   76.9260  222.0280 C   0  0  0  0  0  0  0  0  0  0  0  0
  142.6960   77.1440  218.2440 C   0  0  0  0  0  0  0  0  0  0  0  0
  142.6250   76.3670  217.0850 C   0  0  0  0  0  0  0  0  0  0  0  0
  143.1320   75.0930  217.0330 C   0  0  0  0  0  0  0  0  0  0  0  0
  143.7230   74.6020  218.1800 C   0  0  0  0  0  0  0  0  0  0  0  0
  144.2310   73.3220  218.1230 C   0  0  0  0  0  0  0  0  0  0  0  0
  144.8280   72.8260  219.2850 C   0  0  0  0  0  0  0  0  0  0  0  0
  145.4790   71.2040  219.2310 Cl  0  0  0  0  0  0  0  0  0  0  0  0
  144.8900   73.6090  220.4200 C   0  0  0  0  0  0  0  0  0  0  0  0
  144.3790   74.8900  220.4690 C   0  0  0  0  0  0  0  0  0  0  0  0
  143.7800   75.3920  219.3100 C   0  0  0  0  0  0  0  0  0  0  0  0
  143.2750   76.6490  219.3480 N   0  0  0  0  0  0  0  0  0  0  0  0
  142.7380   78.9910  220.1330 H   0  0  0  0  0  0  0  0  0  0  0  0
  142.4406   81.3764  218.8780 H   0  0  0  0  0  0  0  0  0  0  0  0
  140.8363   80.6326  218.4627 H   0  0  0  0  0  0  0  0  0  0  0  0
  143.2902   79.6646  221.8655 H   0  0  0  0  0  0  0  0  0  0  0  0
  143.0097   81.4675  222.0491 H   0  0  0  0  0  0  0  0  0  0  0  0
  143.6691   80.1901  224.1120 H   0  0  0  0  0  0  0  0  0  0  0  0
  142.1883   81.2435  224.1758 H   0  0  0  0  0  0  0  0  0  0  0  0
  142.2393   78.2325  223.8424 H   0  0  0  0  0  0  0  0  0  0  0  0
  141.8098   79.1296  225.3292 H   0  0  0  0  0  0  0  0  0  0  0  0
  139.8077   78.4722  224.0171 H   0  0  0  0  0  0  0  0  0  0  0  0
  140.0020   80.2736  224.1372 H   0  0  0  0  0  0  0  0  0  0  0  0
  139.4163   79.9590  221.9627 H   0  0  0  0  0  0  0  0  0  0  0  0
  139.2001   78.4572  219.6953 H   0  0  0  0  0  0  0  0  0  0  0  0
  139.5660   75.9460  219.2580 H   0  0  0  0  0  0  0  0  0  0  0  0
  141.4430   76.8020  222.9673 H   0  0  0  0  0  0  0  0  0  0  0  0
  142.1486   76.7890  216.1878 H   0  0  0  0  0  0  0  0  0  0  0  0
  143.0702   74.4884  216.1161 H   0  0  0  0  0  0  0  0  0  0  0  0
  144.1693   72.7188  217.2052 H   0  0  0  0  0  0  0  0  0  0  0  0
  145.3657   73.1954  221.3215 H   0  0  0  0  0  0  0  0  0  0  0  0
  144.4408   75.4938  221.3864 H   0  0  0  0  0  0  0  0  0  0  0  0
  1  2  2  0
  2  3  1  0
  3  4  1  0
  4  5  1  0
  5  6  2  0
  5  7  1  0
  7  8  1  0
  8  9  1  0
  9 10  1  0
 10 11  1  0
 11 12  1  0
 12 13  1  0
 13 14  2  0
 14 15  1  0
 15 16  1  0
 16 17  1  0
 16 18  2  0
  2 19  1  0
 19 20  2  0
 20 21  1  0
 21 22  2  0
 22 23  1  0
 23 24  2  0
 24 25  1  0
 24 26  1  0
 26 27  2  0
 27 28  1  0
 28 29  2  0
 12  7  1  0
 18 13  1  0
 29 19  1  0
 28 22  1  0
  3 30  1  0
  4 31  1  0
  4 32  1  0
  8 33  1  0
  8 34  1  0
  9 35  1  0
  9 36  1  0
 10 37  1  0
 10 38  1  0
 11 39  1  0
 11 40  1  0
 12 41  1  1
 14 42  1  0
 15 43  1  0
 18 44  1  0
 20 45  1  0
 21 46  1  0
 23 47  1  0
 26 48  1  0
 27 49  1  0
M  END
>  <smiles>  (28) 
O=C(NCC(=O)N1CCCC[C@@H]1c1c[nH]c(Cl)c1)c1ccc2cc(Cl)ccc2n1

>  <score_type>  (28) 
oracle

>  <origin>  (28) 
autodockgpu

>  <m_score__min__energy>  (28) 
-8.9000000000000004

>  <m_primary>  (28) 
energy

>  <rmsd>  (28) 
8.370289443053547

>  <m_score__min__rmsd>  (28) 
8.370289443053547

>  <meeko>  (28) 
{"free_energy": -6.61, "intermolecular_energy": -8.1, "internal_energy": -2.8, "cluster_size": 5, "cluster_id": 9, "rank_in_cluster": 4}

>  <energy>  (28) 
-7.79

>  <cluster_rmsd>  (28) 
1.03

>  <cluster>  (28) 
2

$$$$

     RDKit          3D

 49 52  0  0  0  0  0  0  0  0999 V2000
  136.3200   72.3190  223.7190 O   0  0  0  0  0  0  0  0  0  0  0  0
  135.2140   72.3120  224.3180 C   0  0  0  0  0  0  0  0  0  0  0  0
  134.4770   71.0980  224.2920 N   0  0  0  0  0  0  0  0  0  0  0  0
  135.0130   69.9680  223.6030 C   0  0  0  0  0  0  0  0  0  0  0  0
  136.1320   69.3200  224.3650 C   0  0  0  0  0  0  0  0  0  0  0  0
  135.9030   68.5420  225.3300 O   0  0  0  0  0  0  0  0  0  0  0  0
  137.4700   69.6040  223.9720 N   0  0  0  0  0  0  0  0  0  0  0  0
  137.8670   69.2450  222.6390 C   0  0  0  0  0  0  0  0  0  0  0  0
  138.8440   70.1830  222.0120 C   0  0  0  0  0  0  0  0  0  0  0  0
  139.9660   70.5370  222.9330 C   0  0  0  0  0  0  0  0  0  0  0  0
  139.3820   71.1500  224.1820 C   0  0  0  0  0  0  0  0  0  0  0  0
  138.3980   70.2260  224.8610 C   0  0  2  0  0  0  0  0  0  0  0  0
  139.0900   69.2710  225.7780 C   0  0  0  0  0  0  0  0  0  0  0  0
  139.0970   67.8870  225.7280 C   0  0  0  0  0  0  0  0  0  0  0  0
  139.8340   67.3770  226.7250 N   0  0  0  0  0  0  0  0  0  0  0  0
  140.3250   68.3730  227.4490 C   0  0  0  0  0  0  0  0  0  0  0  0
  141.3470   68.1660  228.8570 Cl  0  0  0  0  0  0  0  0  0  0  0  0
  139.8810   69.5750  226.8860 C   0  0  0  0  0  0  0  0  0  0  0  0
  134.6770   73.4730  225.0210 C   0  0  0  0  0  0  0  0  0  0  0  0
  135.2970   74.6970  224.7670 C   0  0  0  0  0  0  0  0  0  0  0  0
  134.8810   75.8600  225.3660 C   0  0  0  0  0  0  0  0  0  0  0  0
  133.8160   75.7730  226.2390 C   0  0  0  0  0  0  0  0  0  0  0  0
  133.4020   76.9430  226.8390 C   0  0  0  0  0  0  0  0  0  0  0  0
  132.3230   76.8530  227.7230 C   0  0  0  0  0  0  0  0  0  0  0  0
  131.7840   78.3280  228.4930 Cl  0  0  0  0  0  0  0  0  0  0  0  0
  131.7230   75.6330  227.9610 C   0  0  0  0  0  0  0  0  0  0  0  0
  132.1430   74.4660  227.3570 C   0  0  0  0  0  0  0  0  0  0  0  0
  133.2220   74.5490  226.4710 C   0  0  0  0  0  0  0  0  0  0  0  0
  133.6420   73.4090  225.8730 N   0  0  0  0  0  0  0  0  0  0  0  0
  133.5430   71.0950  224.8010 H   0  0  0  0  0  0  0  0  0  0  0  0
  134.2110   69.2299  223.4547 H   0  0  0  0  0  0  0  0  0  0  0  0
  135.4165   70.3180  222.6414 H   0  0  0  0  0  0  0  0  0  0  0  0
  138.3241   68.2451  222.6739 H   0  0  0  0  0  0  0  0  0  0  0  0
  136.9577   69.2801  222.0209 H   0  0  0  0  0  0  0  0  0  0  0  0
  139.2621   69.7080  221.1122 H   0  0  0  0  0  0  0  0  0  0  0  0
  138.3071   71.1109  221.7657 H   0  0  0  0  0  0  0  0  0  0  0  0
  140.5324   69.6308  223.1938 H   0  0  0  0  0  0  0  0  0  0  0  0
  140.6454   71.2507  222.4440 H   0  0  0  0  0  0  0  0  0  0  0  0
  140.1996   71.3745  224.8828 H   0  0  0  0  0  0  0  0  0  0  0  0
  138.8437   72.0642  223.8913 H   0  0  0  0  0  0  0  0  0  0  0  0
  137.7596   70.8630  225.4908 H   0  0  0  0  0  0  0  0  0  0  0  0
  138.5690   67.2871  224.9721 H   0  0  0  0  0  0  0  0  0  0  0  0
  139.9950   66.3570  226.9040 H   0  0  0  0  0  0  0  0  0  0  0  0
  140.1153   70.5849  227.2537 H   0  0  0  0  0  0  0  0  0  0  0  0
  136.1441   74.7310  224.0661 H   0  0  0  0  0  0  0  0  0  0  0  0
  135.3756   76.8204  225.1588 H   0  0  0  0  0  0  0  0  0  0  0  0
  133.8977   77.9028  226.6317 H   0  0  0  0  0  0  0  0  0  0  0  0
  130.8754   75.5895  228.6608 H   0  0  0  0  0  0  0  0  0  0  0  0
  131.6477   73.5060  227.5645 H   0  0  0  0  0  0  0  0  0  0  0  0
  1  2  2  0
  2  3  1  0
  3  4  1  0
  4  5  1  0
  5  6  2  0
  5  7  1  0
  7  8  1  0
  8  9  1  0
  9 10  1  0
 10 11  1  0
 11 12  1  0
 12 13  1  0
 13 14  2  0
 14 15  1  0
 15 16  1  0
 16 17  1  0
 16 18  2  0
  2 19  1  0
 19 20  2  0
 20 21  1  0
 21 22  2  0
 22 23  1  0
 23 24  2  0
 24 25  1  0
 24 26  1  0
 26 27  2  0
 27 28  1  0
 28 29  2  0
 12  7  1  0
 18 13  1  0
 29 19  1  0
 28 22  1  0
  3 30  1  0
  4 31  1  0
  4 32  1  0
  8 33  1  0
  8 34  1  0
  9 35  1  0
  9 36  1  0
 10 37  1  0
 10 38  1  0
 11 39  1  0
 11 40  1  0
 12 41  1  1
 14 42  1  0
 15 43  1  0
 18 44  1  0
 20 45  1  0
 21 46  1  0
 23 47  1  0
 26 48  1  0
 27 49  1  0
M  END
>  <smiles>  (29) 
O=C(NCC(=O)N1CCCC[C@@H]1c1c[nH]c(Cl)c1)c1ccc2cc(Cl)ccc2n1

>  <score_type>  (29) 
oracle

>  <origin>  (29) 
autodockgpu

>  <m_score__min__energy>  (29) 
-8.9000000000000004

>  <m_primary>  (29) 
energy

>  <rmsd>  (29) 
8.117510821235074

>  <m_score__min__rmsd>  (29) 
8.117510821235074

>  <meeko>  (29) 
{"free_energy": -7.39, "intermolecular_energy": -8.88, "internal_energy": -1.76, "cluster_size": 2, "cluster_id": 8, "rank_in_cluster": 2}

>  <energy>  (29) 
-7.67

>  <cluster_rmsd>  (29) 
0.82

>  <cluster>  (29) 
2

$$$$

     RDKit          3D

 49 52  0  0  0  0  0  0  0  0999 V2000
  139.4620   71.8030  220.7480 O   0  0  0  0  0  0  0  0  0  0  0  0
  139.4040   72.2460  221.9240 C   0  0  0  0  0  0  0  0  0  0  0  0
  139.0900   73.6230  222.0770 N   0  0  0  0  0  0  0  0  0  0  0  0
  138.8580   74.4210  220.9160 C   0  0  0  0  0  0  0  0  0  0  0  0
  139.4850   75.7810  221.0310 C   0  0  0  0  0  0  0  0  0  0  0  0
  139.1590   76.5760  221.9530 O   0  0  0  0  0  0  0  0  0  0  0  0
  140.4630   76.1570  220.0690 N   0  0  0  0  0  0  0  0  0  0  0  0
  140.0350   76.3220  218.7070 C   0  0  0  0  0  0  0  0  0  0  0  0
  140.7480   77.4020  217.9640 C   0  0  0  0  0  0  0  0  0  0  0  0
  142.2290   77.3480  218.1600 C   0  0  0  0  0  0  0  0  0  0  0  0
  142.5180   77.4530  219.6360 C   0  0  0  0  0  0  0  0  0  0  0  0
  141.8290   76.3680  220.4290 C   0  0  2  0  0  0  0  0  0  0  0  0
  142.6440   75.1170  220.4640 C   0  0  0  0  0  0  0  0  0  0  0  0
  142.2400   73.8380  220.8090 C   0  0  0  0  0  0  0  0  0  0  0  0
  143.2610   72.9740  220.7190 N   0  0  0  0  0  0  0  0  0  0  0  0
  144.3440   73.6280  220.3250 C   0  0  0  0  0  0  0  0  0  0  0  0
  145.9130   72.8890  220.0760 Cl  0  0  0  0  0  0  0  0  0  0  0  0
  143.9980   74.9730  220.1550 C   0  0  0  0  0  0  0  0  0  0  0  0
  139.6410   71.4200  223.1040 C   0  0  0  0  0  0  0  0  0  0  0  0
  139.2870   70.0740  223.0030 C   0  0  0  0  0  0  0  0  0  0  0  0
  139.4630   69.1970  224.0450 C   0  0  0  0  0  0  0  0  0  0  0  0
  140.0090   69.7020  225.2070 C   0  0  0  0  0  0  0  0  0  0  0  0
  140.1830   68.8170  226.2510 C   0  0  0  0  0  0  0  0  0  0  0  0
  140.7350   69.3300  227.4280 C   0  0  0  0  0  0  0  0  0  0  0  0
  140.9640   68.2230  228.7620 Cl  0  0  0  0  0  0  0  0  0  0  0  0
  141.0790   70.6640  227.5080 C   0  0  0  0  0  0  0  0  0  0  0  0
  140.9020   71.5430  226.4590 C   0  0  0  0  0  0  0  0  0  0  0  0
  140.3490   71.0370  225.2790 C   0  0  0  0  0  0  0  0  0  0  0  0
  140.1710   71.8920  224.2430 N   0  0  0  0  0  0  0  0  0  0  0  0
  139.0410   73.9940  223.0720 H   0  0  0  0  0  0  0  0  0  0  0  0
  139.2835   73.9070  220.0415 H   0  0  0  0  0  0  0  0  0  0  0  0
  137.7716   74.5566  220.8096 H   0  0  0  0  0  0  0  0  0  0  0  0
  140.2005   75.3725  218.1768 H   0  0  0  0  0  0  0  0  0  0  0  0
  138.9749   76.6131  218.7438 H   0  0  0  0  0  0  0  0  0  0  0  0
  140.5298   77.2958  216.8911 H   0  0  0  0  0  0  0  0  0  0  0  0
  140.3935   78.3674  218.3544 H   0  0  0  0  0  0  0  0  0  0  0  0
  142.6207   76.3963  217.7716 H   0  0  0  0  0  0  0  0  0  0  0  0
  142.7120   78.1761  217.6205 H   0  0  0  0  0  0  0  0  0  0  0  0
  143.6038   77.3706  219.7914 H   0  0  0  0  0  0  0  0  0  0  0  0
  142.1367   78.4231  219.9874 H   0  0  0  0  0  0  0  0  0  0  0  0
  141.7664   76.7346  221.4642 H   0  0  0  0  0  0  0  0  0  0  0  0
  141.2188   73.5675  221.1156 H   0  0  0  0  0  0  0  0  0  0  0  0
  143.2100   71.9480  220.9270 H   0  0  0  0  0  0  0  0  0  0  0  0
  144.6755   75.7778  219.8335 H   0  0  0  0  0  0  0  0  0  0  0  0
  138.8544   69.7047  222.0614 H   0  0  0  0  0  0  0  0  0  0  0  0
  139.1808   68.1375  223.9570 H   0  0  0  0  0  0  0  0  0  0  0  0
  139.9006   67.7577  226.1612 H   0  0  0  0  0  0  0  0  0  0  0  0
  141.5118   71.0420  228.4459 H   0  0  0  0  0  0  0  0  0  0  0  0
  141.1854   72.6021  226.5480 H   0  0  0  0  0  0  0  0  0  0  0  0
  1  2  2  0
  2  3  1  0
  3  4  1  0
  4  5  1  0
  5  6  2  0
  5  7  1  0
  7  8  1  0
  8  9  1  0
  9 10  1  0
 10 11  1  0
 11 12  1  0
 12 13  1  0
 13 14  2  0
 14 15  1  0
 15 16  1  0
 16 17  1  0
 16 18  2  0
  2 19  1  0
 19 20  2  0
 20 21  1  0
 21 22  2  0
 22 23  1  0
 23 24  2  0
 24 25  1  0
 24 26  1  0
 26 27  2  0
 27 28  1  0
 28 29  2  0
 12  7  1  0
 18 13  1  0
 29 19  1  0
 28 22  1  0
  3 30  1  0
  4 31  1  0
  4 32  1  0
  8 33  1  0
  8 34  1  0
  9 35  1  0
  9 36  1  0
 10 37  1  0
 10 38  1  0
 11 39  1  0
 11 40  1  0
 12 41  1  1
 14 42  1  0
 15 43  1  0
 18 44  1  0
 20 45  1  0
 21 46  1  0
 23 47  1  0
 26 48  1  0
 27 49  1  0
M  END
>  <smiles>  (30) 
O=C(NCC(=O)N1CCCC[C@@H]1c1c[nH]c(Cl)c1)c1ccc2cc(Cl)ccc2n1

>  <score_type>  (30) 
oracle

>  <origin>  (30) 
autodockgpu

>  <m_score__min__energy>  (30) 
-8.9000000000000004

>  <m_primary>  (30) 
energy

>  <rmsd>  (30) 
1.462619124943165

>  <m_score__min__rmsd>  (30) 
1.462619124943165

>  <meeko>  (30) 
{"free_energy": -7.87, "intermolecular_energy": -9.36, "internal_energy": -1.68, "cluster_size": 9, "cluster_id": 3, "rank_in_cluster": 8}

>  <energy>  (30) 
-8.2

>  <cluster_rmsd>  (30) 
0.0

>  <cluster>  (30) 
3

$$$$

     RDKit          3D

 49 52  0  0  0  0  0  0  0  0999 V2000
  139.6580   71.9010  220.7390 O   0  0  0  0  0  0  0  0  0  0  0  0
  139.6110   72.3310  221.9200 C   0  0  0  0  0  0  0  0  0  0  0  0
  139.3600   73.7190  222.0900 N   0  0  0  0  0  0  0  0  0  0  0  0
  139.1770   74.5430  220.9380 C   0  0  0  0  0  0  0  0  0  0  0  0
  139.3030   76.0030  221.2620 C   0  0  0  0  0  0  0  0  0  0  0  0
  138.7550   76.4970  222.2840 O   0  0  0  0  0  0  0  0  0  0  0  0
  140.0620   76.8270  220.3840 N   0  0  0  0  0  0  0  0  0  0  0  0
  139.4150   77.3170  219.2000 C   0  0  0  0  0  0  0  0  0  0  0  0
  139.8470   78.6840  218.7820 C   0  0  0  0  0  0  0  0  0  0  0  0
  141.3330   78.8430  218.8040 C   0  0  0  0  0  0  0  0  0  0  0  0
  141.8240   78.5450  220.1990 C   0  0  0  0  0  0  0  0  0  0  0  0
  141.4230   77.1620  220.6590 C   0  0  2  0  0  0  0  0  0  0  0  0
  142.4030   76.1310  220.2050 C   0  0  0  0  0  0  0  0  0  0  0  0
  143.3410   76.2270  219.1910 C   0  0  0  0  0  0  0  0  0  0  0  0
  144.0430   75.0900  219.0800 N   0  0  0  0  0  0  0  0  0  0  0  0
  143.6080   74.2270  219.9880 C   0  0  0  0  0  0  0  0  0  0  0  0
  144.2440   72.6090  220.2020 Cl  0  0  0  0  0  0  0  0  0  0  0  0
  142.5820   74.8430  220.7120 C   0  0  0  0  0  0  0  0  0  0  0  0
  139.7980   71.4790  223.0900 C   0  0  0  0  0  0  0  0  0  0  0  0
  139.4290   70.1400  222.9510 C   0  0  0  0  0  0  0  0  0  0  0  0
  139.5590   69.2410  223.9800 C   0  0  0  0  0  0  0  0  0  0  0  0
  140.0730   69.7140  225.1700 C   0  0  0  0  0  0  0  0  0  0  0  0
  140.2020   68.8070  226.2010 C   0  0  0  0  0  0  0  0  0  0  0  0
  140.7230   69.2890  227.4050 C   0  0  0  0  0  0  0  0  0  0  0  0
  140.8930   68.1530  228.7240 Cl  0  0  0  0  0  0  0  0  0  0  0  0
  141.0820   70.6160  227.5230 C   0  0  0  0  0  0  0  0  0  0  0  0
  140.9510   71.5180  226.4860 C   0  0  0  0  0  0  0  0  0  0  0  0
  140.4300   71.0420  225.2790 C   0  0  0  0  0  0  0  0  0  0  0  0
  140.2970   71.9200  224.2550 N   0  0  0  0  0  0  0  0  0  0  0  0
  139.3200   74.0780  223.0900 H   0  0  0  0  0  0  0  0  0  0  0  0
  139.9379   74.2791  220.1887 H   0  0  0  0  0  0  0  0  0  0  0  0
  138.1611   74.3678  220.5543 H   0  0  0  0  0  0  0  0  0  0  0  0
  139.6316   76.6208  218.3764 H   0  0  0  0  0  0  0  0  0  0  0  0
  138.3422   77.3844  219.4334 H   0  0  0  0  0  0  0  0  0  0  0  0
  139.4867   78.8713  217.7597 H   0  0  0  0  0  0  0  0  0  0  0  0
  139.4218   79.4036  219.4971 H   0  0  0  0  0  0  0  0  0  0  0  0
  141.7920   78.1422  218.0911 H   0  0  0  0  0  0  0  0  0  0  0  0
  141.6072   79.8693  218.5184 H   0  0  0  0  0  0  0  0  0  0  0  0
  142.9214   78.6190  220.2122 H   0  0  0  0  0  0  0  0  0  0  0  0
  141.3668   79.2755  220.8826 H   0  0  0  0  0  0  0  0  0  0  0  0
  141.4659   77.1759  221.7581 H   0  0  0  0  0  0  0  0  0  0  0  0
  143.4902   77.1164  218.5612 H   0  0  0  0  0  0  0  0  0  0  0  0
  144.8100   74.9120  218.3880 H   0  0  0  0  0  0  0  0  0  0  0  0
  142.0142   74.3905  221.5383 H   0  0  0  0  0  0  0  0  0  0  0  0
  139.0222   69.7953  221.9889 H   0  0  0  0  0  0  0  0  0  0  0  0
  139.2657   68.1875  223.8610 H   0  0  0  0  0  0  0  0  0  0  0  0
  139.9086   67.7536  226.0813 H   0  0  0  0  0  0  0  0  0  0  0  0
  141.4889   70.9695  228.4819 H   0  0  0  0  0  0  0  0  0  0  0  0
  141.2454   72.5712  226.6049 H   0  0  0  0  0  0  0  0  0  0  0  0
  1  2  2  0
  2  3  1  0
  3  4  1  0
  4  5  1  0
  5  6  2  0
  5  7  1  0
  7  8  1  0
  8  9  1  0
  9 10  1  0
 10 11  1  0
 11 12  1  0
 12 13  1  0
 13 14  2  0
 14 15  1  0
 15 16  1  0
 16 17  1  0
 16 18  2  0
  2 19  1  0
 19 20  2  0
 20 21  1  0
 21 22  2  0
 22 23  1  0
 23 24  2  0
 24 25  1  0
 24 26  1  0
 26 27  2  0
 27 28  1  0
 28 29  2  0
 12  7  1  0
 18 13  1  0
 29 19  1  0
 28 22  1  0
  3 30  1  0
  4 31  1  0
  4 32  1  0
  8 33  1  0
  8 34  1  0
  9 35  1  0
  9 36  1  0
 10 37  1  0
 10 38  1  0
 11 39  1  0
 11 40  1  0
 12 41  1  1
 14 42  1  0
 15 43  1  0
 18 44  1  0
 20 45  1  0
 21 46  1  0
 23 47  1  0
 26 48  1  0
 27 49  1  0
M  END
>  <smiles>  (31) 
O=C(NCC(=O)N1CCCC[C@@H]1c1c[nH]c(Cl)c1)c1ccc2cc(Cl)ccc2n1

>  <score_type>  (31) 
oracle

>  <origin>  (31) 
autodockgpu

>  <m_score__min__energy>  (31) 
-8.9000000000000004

>  <m_primary>  (31) 
energy

>  <rmsd>  (31) 
1.8553171162972923

>  <m_score__min__rmsd>  (31) 
1.8553171162972923

>  <meeko>  (31) 
{"free_energy": -8.0, "intermolecular_energy": -9.49, "internal_energy": -1.73, "cluster_size": 9, "cluster_id": 3, "rank_in_cluster": 6}

>  <energy>  (31) 
-8.2

>  <cluster_rmsd>  (31) 
0.21

>  <cluster>  (31) 
3

$$$$

     RDKit          3D

 49 52  0  0  0  0  0  0  0  0999 V2000
  138.5920   72.8360  221.4920 O   0  0  0  0  0  0  0  0  0  0  0  0
  139.7020   72.5150  221.9900 C   0  0  0  0  0  0  0  0  0  0  0  0
  140.8630   73.0500  221.3700 N   0  0  0  0  0  0  0  0  0  0  0  0
  140.7200   73.9070  220.2370 C   0  0  0  0  0  0  0  0  0  0  0  0
  141.1430   75.3160  220.5360 C   0  0  0  0  0  0  0  0  0  0  0  0
  142.3520   75.6660  220.4630 O   0  0  0  0  0  0  0  0  0  0  0  0
  140.1430   76.2580  220.9070 N   0  0  0  0  0  0  0  0  0  0  0  0
  139.1620   76.6160  219.9210 C   0  0  0  0  0  0  0  0  0  0  0  0
  137.8020   76.8860  220.4750 C   0  0  0  0  0  0  0  0  0  0  0  0
  137.8420   77.7700  221.6790 C   0  0  0  0  0  0  0  0  0  0  0  0
  138.7090   77.1130  222.7240 C   0  0  0  0  0  0  0  0  0  0  0  0
  140.1030   76.8350  222.2130 C   0  0  2  0  0  0  0  0  0  0  0  0
  140.9900   78.0260  222.3740 C   0  0  0  0  0  0  0  0  0  0  0  0
  141.9510   78.5040  221.5000 C   0  0  0  0  0  0  0  0  0  0  0  0
  142.5450   79.6000  221.9950 N   0  0  0  0  0  0  0  0  0  0  0  0
  142.0150   79.8780  223.1780 C   0  0  0  0  0  0  0  0  0  0  0  0
  142.4920   81.2290  224.1860 Cl  0  0  0  0  0  0  0  0  0  0  0  0
  141.0370   78.9140  223.4500 C   0  0  0  0  0  0  0  0  0  0  0  0
  139.8360   71.6400  223.1500 C   0  0  0  0  0  0  0  0  0  0  0  0
  139.3690   70.3320  223.0010 C   0  0  0  0  0  0  0  0  0  0  0  0
  139.4410   69.4160  224.0200 C   0  0  0  0  0  0  0  0  0  0  0  0
  139.9990   69.8380  225.2090 C   0  0  0  0  0  0  0  0  0  0  0  0
  140.0700   68.9130  226.2300 C   0  0  0  0  0  0  0  0  0  0  0  0
  140.6340   69.3430  227.4340 C   0  0  0  0  0  0  0  0  0  0  0  0
  140.7320   68.1840  228.7400 Cl  0  0  0  0  0  0  0  0  0  0  0  0
  141.0910   70.6390  227.5620 C   0  0  0  0  0  0  0  0  0  0  0  0
  141.0170   71.5580  226.5350 C   0  0  0  0  0  0  0  0  0  0  0  0
  140.4530   71.1350  225.3280 C   0  0  0  0  0  0  0  0  0  0  0  0
  140.3760   72.0310  224.3140 N   0  0  0  0  0  0  0  0  0  0  0  0
  141.7990   72.7780  221.7950 H   0  0  0  0  0  0  0  0  0  0  0  0
  141.3409   73.5170  219.4170 H   0  0  0  0  0  0  0  0  0  0  0  0
  139.6559   73.9252  219.9590 H   0  0  0  0  0  0  0  0  0  0  0  0
  139.5090   77.5225  219.4035 H   0  0  0  0  0  0  0  0  0  0  0  0
  139.0616   75.7510  219.2490 H   0  0  0  0  0  0  0  0  0  0  0  0
  137.1949   77.3742  219.6984 H   0  0  0  0  0  0  0  0  0  0  0  0
  137.3674   75.9229  220.7807 H   0  0  0  0  0  0  0  0  0  0  0  0
  138.2647   78.7486  221.4074 H   0  0  0  0  0  0  0  0  0  0  0  0
  136.8254   77.9200  222.0715 H   0  0  0  0  0  0  0  0  0  0  0  0
  138.7775   77.7782  223.5974 H   0  0  0  0  0  0  0  0  0  0  0  0
  138.2478   76.1506  222.9905 H   0  0  0  0  0  0  0  0  0  0  0  0
  140.5158   76.0431  222.8552 H   0  0  0  0  0  0  0  0  0  0  0  0
  142.1948   78.0465  220.5298 H   0  0  0  0  0  0  0  0  0  0  0  0
  143.3040   80.1470  221.5240 H   0  0  0  0  0  0  0  0  0  0  0  0
  140.4135   78.8648  224.3549 H   0  0  0  0  0  0  0  0  0  0  0  0
  138.9309   70.0275  222.0390 H   0  0  0  0  0  0  0  0  0  0  0  0
  139.0694   68.3883  223.8942 H   0  0  0  0  0  0  0  0  0  0  0  0
  139.7000   67.8850  226.1023 H   0  0  0  0  0  0  0  0  0  0  0  0
  141.5315   70.9517  228.5202 H   0  0  0  0  0  0  0  0  0  0  0  0
  141.3882   72.5857  226.6617 H   0  0  0  0  0  0  0  0  0  0  0  0
  1  2  2  0
  2  3  1  0
  3  4  1  0
  4  5  1  0
  5  6  2  0
  5  7  1  0
  7  8  1  0
  8  9  1  0
  9 10  1  0
 10 11  1  0
 11 12  1  0
 12 13  1  0
 13 14  2  0
 14 15  1  0
 15 16  1  0
 16 17  1  0
 16 18  2  0
  2 19  1  0
 19 20  2  0
 20 21  1  0
 21 22  2  0
 22 23  1  0
 23 24  2  0
 24 25  1  0
 24 26  1  0
 26 27  2  0
 27 28  1  0
 28 29  2  0
 12  7  1  0
 18 13  1  0
 29 19  1  0
 28 22  1  0
  3 30  1  0
  4 31  1  0
  4 32  1  0
  8 33  1  0
  8 34  1  0
  9 35  1  0
  9 36  1  0
 10 37  1  0
 10 38  1  0
 11 39  1  0
 11 40  1  0
 12 41  1  1
 14 42  1  0
 15 43  1  0
 18 44  1  0
 20 45  1  0
 21 46  1  0
 23 47  1  0
 26 48  1  0
 27 49  1  0
M  END
>  <smiles>  (32) 
O=C(NCC(=O)N1CCCC[C@@H]1c1c[nH]c(Cl)c1)c1ccc2cc(Cl)ccc2n1

>  <score_type>  (32) 
oracle

>  <origin>  (32) 
autodockgpu

>  <m_score__min__energy>  (32) 
-8.9000000000000004

>  <m_primary>  (32) 
energy

>  <rmsd>  (32) 
2.7122029072062253

>  <m_score__min__rmsd>  (32) 
2.7122029072062253

>  <meeko>  (32) 
{"free_energy": -8.19, "intermolecular_energy": -9.68, "internal_energy": -1.43, "cluster_size": 23, "cluster_id": 1, "rank_in_cluster": 17}

>  <energy>  (32) 
-8.16

>  <cluster_rmsd>  (32) 
0.13

>  <cluster>  (32) 
3

$$$$

     RDKit          3D

 49 52  0  0  0  0  0  0  0  0999 V2000
  138.9930   73.0370  221.1700 O   0  0  0  0  0  0  0  0  0  0  0  0
  140.0400   72.6410  221.7430 C   0  0  0  0  0  0  0  0  0  0  0  0
  141.2770   73.0360  221.1660 N   0  0  0  0  0  0  0  0  0  0  0  0
  141.2740   73.8440  219.9890 C   0  0  0  0  0  0  0  0  0  0  0  0
  141.5280   75.2910  220.2970 C   0  0  0  0  0  0  0  0  0  0  0  0
  142.6690   75.8030  220.1420 O   0  0  0  0  0  0  0  0  0  0  0  0
  140.4440   76.0810  220.7710 N   0  0  0  0  0  0  0  0  0  0  0  0
  139.3550   76.3350  219.8690 C   0  0  0  0  0  0  0  0  0  0  0  0
  138.0160   76.4070  220.5240 C   0  0  0  0  0  0  0  0  0  0  0  0
  138.0280   77.2530  221.7550 C   0  0  0  0  0  0  0  0  0  0  0  0
  139.0460   76.6870  222.7130 C   0  0  0  0  0  0  0  0  0  0  0  0
  140.4240   76.6100  222.0980 C   0  0  2  0  0  0  0  0  0  0  0  0
  141.1590   77.9030  222.2440 C   0  0  0  0  0  0  0  0  0  0  0  0
  141.8390   78.6180  221.2730 C   0  0  0  0  0  0  0  0  0  0  0  0
  142.3720   79.7350  221.7870 N   0  0  0  0  0  0  0  0  0  0  0  0
  142.0760   79.7970  223.0780 C   0  0  0  0  0  0  0  0  0  0  0  0
  142.5730   81.0920  224.1470 Cl  0  0  0  0  0  0  0  0  0  0  0  0
  141.3160   78.6680  223.4000 C   0  0  0  0  0  0  0  0  0  0  0  0
  140.0320   71.8160  222.9470 C   0  0  0  0  0  0  0  0  0  0  0  0
  139.4070   70.5710  222.8450 C   0  0  0  0  0  0  0  0  0  0  0  0
  139.3350   69.7060  223.9080 C   0  0  0  0  0  0  0  0  0  0  0  0
  139.9100   70.1150  225.0940 C   0  0  0  0  0  0  0  0  0  0  0  0
  139.8350   69.2420  226.1580 C   0  0  0  0  0  0  0  0  0  0  0  0
  140.4170   69.6590  227.3590 C   0  0  0  0  0  0  0  0  0  0  0  0
  140.3320   68.5640  228.7200 Cl  0  0  0  0  0  0  0  0  0  0  0  0
  141.0310   70.8920  227.4400 C   0  0  0  0  0  0  0  0  0  0  0  0
  141.1010   71.7600  226.3700 C   0  0  0  0  0  0  0  0  0  0  0  0
  140.5210   71.3500  225.1660 C   0  0  0  0  0  0  0  0  0  0  0  0
  140.5850   72.1950  224.1090 N   0  0  0  0  0  0  0  0  0  0  0  0
  142.1600   72.7000  221.6540 H   0  0  0  0  0  0  0  0  0  0  0  0
  142.0595   73.4829  219.3089 H   0  0  0  0  0  0  0  0  0  0  0  0
  140.2789   73.7656  219.5267 H   0  0  0  0  0  0  0  0  0  0  0  0
  139.5430   77.2940  219.3641 H   0  0  0  0  0  0  0  0  0  0  0  0
  139.3187   75.4839  219.1731 H   0  0  0  0  0  0  0  0  0  0  0  0
  137.2960   76.8330  219.8098 H   0  0  0  0  0  0  0  0  0  0  0  0
  137.7334   75.3864  220.8217 H   0  0  0  0  0  0  0  0  0  0  0  0
  138.2992   78.2863  221.4928 H   0  0  0  0  0  0  0  0  0  0  0  0
  137.0316   77.2555  222.2210 H   0  0  0  0  0  0  0  0  0  0  0  0
  139.0907   77.3305  223.6040 H   0  0  0  0  0  0  0  0  0  0  0  0
  138.7340   75.6650  222.9740 H   0  0  0  0  0  0  0  0  0  0  0  0
  140.9812   75.8611  222.6799 H   0  0  0  0  0  0  0  0  0  0  0  0
  141.9297   78.3105  220.2207 H   0  0  0  0  0  0  0  0  0  0  0  0
  142.9340   80.4420  221.2560 H   0  0  0  0  0  0  0  0  0  0  0  0
  140.9116   78.4250  224.3937 H   0  0  0  0  0  0  0  0  0  0  0  0
  138.9595   70.2753  221.8847 H   0  0  0  0  0  0  0  0  0  0  0  0
  138.8398   68.7278  223.8185 H   0  0  0  0  0  0  0  0  0  0  0  0
  139.3407   68.2636  226.0666 H   0  0  0  0  0  0  0  0  0  0  0  0
  141.4828   71.1950  228.3961 H   0  0  0  0  0  0  0  0  0  0  0  0
  141.5950   72.7386  226.4609 H   0  0  0  0  0  0  0  0  0  0  0  0
  1  2  2  0
  2  3  1  0
  3  4  1  0
  4  5  1  0
  5  6  2  0
  5  7  1  0
  7  8  1  0
  8  9  1  0
  9 10  1  0
 10 11  1  0
 11 12  1  0
 12 13  1  0
 13 14  2  0
 14 15  1  0
 15 16  1  0
 16 17  1  0
 16 18  2  0
  2 19  1  0
 19 20  2  0
 20 21  1  0
 21 22  2  0
 22 23  1  0
 23 24  2  0
 24 25  1  0
 24 26  1  0
 26 27  2  0
 27 28  1  0
 28 29  2  0
 12  7  1  0
 18 13  1  0
 29 19  1  0
 28 22  1  0
  3 30  1  0
  4 31  1  0
  4 32  1  0
  8 33  1  0
  8 34  1  0
  9 35  1  0
  9 36  1  0
 10 37  1  0
 10 38  1  0
 11 39  1  0
 11 40  1  0
 12 41  1  1
 14 42  1  0
 15 43  1  0
 18 44  1  0
 20 45  1  0
 21 46  1  0
 23 47  1  0
 26 48  1  0
 27 49  1  0
M  END
>  <smiles>  (33) 
O=C(NCC(=O)N1CCCC[C@@H]1c1c[nH]c(Cl)c1)c1ccc2cc(Cl)ccc2n1

>  <score_type>  (33) 
oracle

>  <origin>  (33) 
autodockgpu

>  <m_score__min__energy>  (33) 
-8.9000000000000004

>  <m_primary>  (33) 
energy

>  <rmsd>  (33) 
2.790691540217742

>  <m_score__min__rmsd>  (33) 
2.790691540217742

>  <meeko>  (33) 
{"free_energy": -8.01, "intermolecular_energy": -9.5, "internal_energy": -1.6, "cluster_size": 23, "cluster_id": 1, "rank_in_cluster": 21}

>  <energy>  (33) 
-8.07

>  <cluster_rmsd>  (33) 
1.95

>  <cluster>  (33) 
3

$$$$

     RDKit          3D

 49 52  0  0  0  0  0  0  0  0999 V2000
  141.0230   72.2240  221.2020 O   0  0  0  0  0  0  0  0  0  0  0  0
  140.2750   72.4350  222.1910 C   0  0  0  0  0  0  0  0  0  0  0  0
  139.4350   73.5790  222.1300 N   0  0  0  0  0  0  0  0  0  0  0  0
  139.4770   74.4170  220.9750 C   0  0  0  0  0  0  0  0  0  0  0  0
  140.6410   75.3650  221.0070 C   0  0  0  0  0  0  0  0  0  0  0  0
  140.8840   76.0700  222.0240 O   0  0  0  0  0  0  0  0  0  0  0  0
  141.4720   75.4530  219.8550 N   0  0  0  0  0  0  0  0  0  0  0  0
  140.8360   75.4440  218.5680 C   0  0  0  0  0  0  0  0  0  0  0  0
  141.5110   76.2900  217.5400 C   0  0  0  0  0  0  0  0  0  0  0  0
  142.9910   76.0850  217.5160 C   0  0  0  0  0  0  0  0  0  0  0  0
  143.5380   76.3950  218.8870 C   0  0  0  0  0  0  0  0  0  0  0  0
  142.8930   75.5490  219.9610 C   0  0  2  0  0  0  0  0  0  0  0  0
  143.5790   74.2290  220.0990 C   0  0  0  0  0  0  0  0  0  0  0  0
  144.7040   73.9220  220.8440 C   0  0  0  0  0  0  0  0  0  0  0  0
  145.0220   72.6250  220.7180 N   0  0  0  0  0  0  0  0  0  0  0  0
  144.1460   72.0450  219.9090 C   0  0  0  0  0  0  0  0  0  0  0  0
  144.1800   70.3520  219.4620 Cl  0  0  0  0  0  0  0  0  0  0  0  0
  143.2260   73.0180  219.5020 C   0  0  0  0  0  0  0  0  0  0  0  0
  140.2400   71.5700  223.3660 C   0  0  0  0  0  0  0  0  0  0  0  0
  139.6680   70.3070  223.1930 C   0  0  0  0  0  0  0  0  0  0  0  0
  139.5780   69.4050  224.2230 C   0  0  0  0  0  0  0  0  0  0  0  0
  140.0780   69.7940  225.4490 C   0  0  0  0  0  0  0  0  0  0  0  0
  139.9850   68.8840  226.4800 C   0  0  0  0  0  0  0  0  0  0  0  0
  140.4920   69.2810  227.7210 C   0  0  0  0  0  0  0  0  0  0  0  0
  140.3830   68.1390  229.0410 Cl  0  0  0  0  0  0  0  0  0  0  0  0
  141.0540   70.5330  227.8720 C   0  0  0  0  0  0  0  0  0  0  0  0
  141.1430   71.4380  226.8340 C   0  0  0  0  0  0  0  0  0  0  0  0
  140.6380   71.0480  225.5900 C   0  0  0  0  0  0  0  0  0  0  0  0
  140.7210   71.9300  224.5650 N   0  0  0  0  0  0  0  0  0  0  0  0
  138.8040   73.7530  222.9670 H   0  0  0  0  0  0  0  0  0  0  0  0
  139.5602   73.7832  220.0798 H   0  0  0  0  0  0  0  0  0  0  0  0
  138.5538   75.0147  220.9564 H   0  0  0  0  0  0  0  0  0  0  0  0
  140.8165   74.4071  218.2013 H   0  0  0  0  0  0  0  0  0  0  0  0
  139.8310   75.8673  218.7118 H   0  0  0  0  0  0  0  0  0  0  0  0
  141.1031   76.0363  216.5504 H   0  0  0  0  0  0  0  0  0  0  0  0
  141.3224   77.3431  217.7957 H   0  0  0  0  0  0  0  0  0  0  0  0
  143.2170   75.0410  217.2534 H   0  0  0  0  0  0  0  0  0  0  0  0
  143.4516   76.7464  216.7674 H   0  0  0  0  0  0  0  0  0  0  0  0
  144.6213   76.2043  218.8881 H   0  0  0  0  0  0  0  0  0  0  0  0
  143.3182   77.4497  219.1089 H   0  0  0  0  0  0  0  0  0  0  0  0
  143.0426   76.0850  220.9098 H   0  0  0  0  0  0  0  0  0  0  0  0
  145.2625   74.6446  221.4572 H   0  0  0  0  0  0  0  0  0  0  0  0
  145.8320   72.1480  221.1820 H   0  0  0  0  0  0  0  0  0  0  0  0
  142.3720   72.8561  218.8278 H   0  0  0  0  0  0  0  0  0  0  0  0
  139.2787   70.0278  222.2028 H   0  0  0  0  0  0  0  0  0  0  0  0
  139.1260   68.4128  224.0775 H   0  0  0  0  0  0  0  0  0  0  0  0
  139.5331   67.8919  226.3333 H   0  0  0  0  0  0  0  0  0  0  0  0
  141.4463   70.8205  228.8586 H   0  0  0  0  0  0  0  0  0  0  0  0
  141.5949   72.4302  226.9801 H   0  0  0  0  0  0  0  0  0  0  0  0
  1  2  2  0
  2  3  1  0
  3  4  1  0
  4  5  1  0
  5  6  2  0
  5  7  1  0
  7  8  1  0
  8  9  1  0
  9 10  1  0
 10 11  1  0
 11 12  1  0
 12 13  1  0
 13 14  2  0
 14 15  1  0
 15 16  1  0
 16 17  1  0
 16 18  2  0
  2 19  1  0
 19 20  2  0
 20 21  1  0
 21 22  2  0
 22 23  1  0
 23 24  2  0
 24 25  1  0
 24 26  1  0
 26 27  2  0
 27 28  1  0
 28 29  2  0
 12  7  1  0
 18 13  1  0
 29 19  1  0
 28 22  1  0
  3 30  1  0
  4 31  1  0
  4 32  1  0
  8 33  1  0
  8 34  1  0
  9 35  1  0
  9 36  1  0
 10 37  1  0
 10 38  1  0
 11 39  1  0
 11 40  1  0
 12 41  1  1
 14 42  1  0
 15 43  1  0
 18 44  1  0
 20 45  1  0
 21 46  1  0
 23 47  1  0
 26 48  1  0
 27 49  1  0
M  END
>  <smiles>  (34) 
O=C(NCC(=O)N1CCCC[C@@H]1c1c[nH]c(Cl)c1)c1ccc2cc(Cl)ccc2n1

>  <score_type>  (34) 
oracle

>  <origin>  (34) 
autodockgpu

>  <m_score__min__energy>  (34) 
-8.9000000000000004

>  <m_primary>  (34) 
energy

>  <rmsd>  (34) 
1.7528347107343418

>  <m_score__min__rmsd>  (34) 
1.7528347107343418

>  <meeko>  (34) 
{"free_energy": -8.2, "intermolecular_energy": -9.69, "internal_energy": -1.68, "cluster_size": 9, "cluster_id": 3, "rank_in_cluster": 2}

>  <energy>  (34) 
-8.02

>  <cluster_rmsd>  (34) 
0.38

>  <cluster>  (34) 
3

$$$$

     RDKit          3D

 49 52  0  0  0  0  0  0  0  0999 V2000
  140.0140   71.8380  220.8850 O   0  0  0  0  0  0  0  0  0  0  0  0
  139.8950   72.2810  222.0570 C   0  0  0  0  0  0  0  0  0  0  0  0
  139.6440   73.6720  222.1960 N   0  0  0  0  0  0  0  0  0  0  0  0
  139.5420   74.4850  221.0270 C   0  0  0  0  0  0  0  0  0  0  0  0
  140.5580   75.5900  221.0160 C   0  0  0  0  0  0  0  0  0  0  0  0
  140.6080   76.4430  221.9440 O   0  0  0  0  0  0  0  0  0  0  0  0
  141.4720   75.6570  219.9280 N   0  0  0  0  0  0  0  0  0  0  0  0
  140.9280   75.7260  218.6000 C   0  0  0  0  0  0  0  0  0  0  0  0
  141.7260   76.5550  217.6490 C   0  0  0  0  0  0  0  0  0  0  0  0
  143.1880   76.2550  217.7200 C   0  0  0  0  0  0  0  0  0  0  0  0
  143.6550   76.4900  219.1350 C   0  0  0  0  0  0  0  0  0  0  0  0
  142.8850   75.6570  220.1330 C   0  0  2  0  0  0  0  0  0  0  0  0
  143.4750   74.2930  220.2750 C   0  0  0  0  0  0  0  0  0  0  0  0
  144.7340   73.9460  220.7360 C   0  0  0  0  0  0  0  0  0  0  0  0
  144.9000   72.6160  220.7180 N   0  0  0  0  0  0  0  0  0  0  0  0
  143.7920   72.0510  220.2570 C   0  0  0  0  0  0  0  0  0  0  0  0
  143.5670   70.3250  220.0630 Cl  0  0  0  0  0  0  0  0  0  0  0  0
  142.8770   73.0690  219.9690 C   0  0  0  0  0  0  0  0  0  0  0  0
  140.0000   71.4400  223.2450 C   0  0  0  0  0  0  0  0  0  0  0  0
  139.5610   70.1210  223.1160 C   0  0  0  0  0  0  0  0  0  0  0  0
  139.6100   69.2340  224.1620 C   0  0  0  0  0  0  0  0  0  0  0  0
  140.1160   69.6980  225.3590 C   0  0  0  0  0  0  0  0  0  0  0  0
  140.1630   68.8030  226.4070 C   0  0  0  0  0  0  0  0  0  0  0  0
  140.6750   69.2750  227.6190 C   0  0  0  0  0  0  0  0  0  0  0  0
  140.7430   68.1540  228.9590 Cl  0  0  0  0  0  0  0  0  0  0  0  0
  141.1050   70.5820  227.7270 C   0  0  0  0  0  0  0  0  0  0  0  0
  141.0540   71.4720  226.6730 C   0  0  0  0  0  0  0  0  0  0  0  0
  140.5430   71.0060  225.4580 C   0  0  0  0  0  0  0  0  0  0  0  0
  140.4890   71.8720  224.4170 N   0  0  0  0  0  0  0  0  0  0  0  0
  139.5430   74.0420  223.1880 H   0  0  0  0  0  0  0  0  0  0  0  0
  139.6968   73.8523  220.1406 H   0  0  0  0  0  0  0  0  0  0  0  0
  138.5425   74.9444  221.0206 H   0  0  0  0  0  0  0  0  0  0  0  0
  140.8687   74.7034  218.1989 H   0  0  0  0  0  0  0  0  0  0  0  0
  139.9440   76.2096  218.6886 H   0  0  0  0  0  0  0  0  0  0  0  0
  141.3739   76.3564  216.6260 H   0  0  0  0  0  0  0  0  0  0  0  0
  141.5864   77.6105  217.9256 H   0  0  0  0  0  0  0  0  0  0  0  0
  143.3660   75.2063  217.4396 H   0  0  0  0  0  0  0  0  0  0  0  0
  143.7411   76.9058  217.0268 H   0  0  0  0  0  0  0  0  0  0  0  0
  144.7217   76.2304  219.2043 H   0  0  0  0  0  0  0  0  0  0  0  0
  143.4859   77.5498  219.3761 H   0  0  0  0  0  0  0  0  0  0  0  0
  143.0015   76.1547  221.1070 H   0  0  0  0  0  0  0  0  0  0  0  0
  145.4955   74.6652  221.0718 H   0  0  0  0  0  0  0  0  0  0  0  0
  145.7650   72.1050  221.0180 H   0  0  0  0  0  0  0  0  0  0  0  0
  141.8614   72.9293  219.5702 H   0  0  0  0  0  0  0  0  0  0  0  0
  139.1642   69.7828  222.1474 H   0  0  0  0  0  0  0  0  0  0  0  0
  139.2606   68.1969  224.0509 H   0  0  0  0  0  0  0  0  0  0  0  0
  139.8138   67.7660  226.2945 H   0  0  0  0  0  0  0  0  0  0  0  0
  141.5044   70.9284  228.6916 H   0  0  0  0  0  0  0  0  0  0  0  0
  141.4025   72.5093  226.7850 H   0  0  0  0  0  0  0  0  0  0  0  0
  1  2  2  0
  2  3  1  0
  3  4  1  0
  4  5  1  0
  5  6  2  0
  5  7  1  0
  7  8  1  0
  8  9  1  0
  9 10  1  0
 10 11  1  0
 11 12  1  0
 12 13  1  0
 13 14  2  0
 14 15  1  0
 15 16  1  0
 16 17  1  0
 16 18  2  0
  2 19  1  0
 19 20  2  0
 20 21  1  0
 21 22  2  0
 22 23  1  0
 23 24  2  0
 24 25  1  0
 24 26  1  0
 26 27  2  0
 27 28  1  0
 28 29  2  0
 12  7  1  0
 18 13  1  0
 29 19  1  0
 28 22  1  0
  3 30  1  0
  4 31  1  0
  4 32  1  0
  8 33  1  0
  8 34  1  0
  9 35  1  0
  9 36  1  0
 10 37  1  0
 10 38  1  0
 11 39  1  0
 11 40  1  0
 12 41  1  1
 14 42  1  0
 15 43  1  0
 18 44  1  0
 20 45  1  0
 21 46  1  0
 23 47  1  0
 26 48  1  0
 27 49  1  0
M  END
>  <smiles>  (35) 
O=C(NCC(=O)N1CCCC[C@@H]1c1c[nH]c(Cl)c1)c1ccc2cc(Cl)ccc2n1

>  <score_type>  (35) 
oracle

>  <origin>  (35) 
autodockgpu

>  <m_score__min__energy>  (35) 
-8.9000000000000004

>  <m_primary>  (35) 
energy

>  <rmsd>  (35) 
1.7676401494329785

>  <m_score__min__rmsd>  (35) 
1.7676401494329785

>  <meeko>  (35) 
{"free_energy": -8.02, "intermolecular_energy": -9.51, "internal_energy": -1.89, "cluster_size": 9, "cluster_id": 3, "rank_in_cluster": 5}

>  <energy>  (35) 
-8.0

>  <cluster_rmsd>  (35) 
1.74

>  <cluster>  (35) 
3

$$$$

     RDKit          3D

 49 52  0  0  0  0  0  0  0  0999 V2000
  141.5610   78.9420  217.1190 O   0  0  0  0  0  0  0  0  0  0  0  0
  142.1400   78.4980  218.1430 C   0  0  0  0  0  0  0  0  0  0  0  0
  142.2290   79.3700  219.2610 N   0  0  0  0  0  0  0  0  0  0  0  0
  141.6700   80.6800  219.1720 C   0  0  0  0  0  0  0  0  0  0  0  0
  141.0550   81.1220  220.4690 C   0  0  0  0  0  0  0  0  0  0  0  0
  140.3320   82.1520  220.5340 O   0  0  0  0  0  0  0  0  0  0  0  0
  141.3080   80.3460  221.6350 N   0  0  0  0  0  0  0  0  0  0  0  0
  142.5970   80.4720  222.2560 C   0  0  0  0  0  0  0  0  0  0  0  0
  142.5780   80.3570  223.7440 C   0  0  0  0  0  0  0  0  0  0  0  0
  141.7580   79.2010  224.2160 C   0  0  0  0  0  0  0  0  0  0  0  0
  140.3540   79.3640  223.6880 C   0  0  0  0  0  0  0  0  0  0  0  0
  140.3230   79.4690  222.1810 C   0  0  2  0  0  0  0  0  0  0  0  0
  140.2950   78.1190  221.5420 C   0  0  0  0  0  0  0  0  0  0  0  0
  139.7210   77.7530  220.3360 C   0  0  0  0  0  0  0  0  0  0  0  0
  139.9030   76.4460  220.0980 N   0  0  0  0  0  0  0  0  0  0  0  0
  140.5810   75.9160  221.1060 C   0  0  0  0  0  0  0  0  0  0  0  0
  141.0420   74.2300  221.2120 Cl  0  0  0  0  0  0  0  0  0  0  0  0
  140.8450   76.9330  222.0300 C   0  0  0  0  0  0  0  0  0  0  0  0
  142.7070   77.1550  218.2230 C   0  0  0  0  0  0  0  0  0  0  0  0
  142.6400   76.3800  217.0630 C   0  0  0  0  0  0  0  0  0  0  0  0
  143.1390   75.1030  217.0140 C   0  0  0  0  0  0  0  0  0  0  0  0
  143.7170   74.6070  218.1650 C   0  0  0  0  0  0  0  0  0  0  0  0
  144.2180   73.3240  218.1110 C   0  0  0  0  0  0  0  0  0  0  0  0
  144.8010   72.8230  219.2780 C   0  0  0  0  0  0  0  0  0  0  0  0
  145.4420   71.1960  219.2280 Cl  0  0  0  0  0  0  0  0  0  0  0  0
  144.8590   73.6040  220.4140 C   0  0  0  0  0  0  0  0  0  0  0  0
  144.3560   74.8880  220.4610 C   0  0  0  0  0  0  0  0  0  0  0  0
  143.7700   75.3950  219.2970 C   0  0  0  0  0  0  0  0  0  0  0  0
  143.2730   76.6550  219.3320 N   0  0  0  0  0  0  0  0  0  0  0  0
  142.7180   78.9900  220.1250 H   0  0  0  0  0  0  0  0  0  0  0  0
  142.4665   81.3875  218.8980 H   0  0  0  0  0  0  0  0  0  0  0  0
  140.8759   80.6581  218.4111 H   0  0  0  0  0  0  0  0  0  0  0  0
  143.2495   79.6809  221.8580 H   0  0  0  0  0  0  0  0  0  0  0  0
  142.9599   81.4841  222.0238 H   0  0  0  0  0  0  0  0  0  0  0  0
  143.6102   80.2271  224.1014 H   0  0  0  0  0  0  0  0  0  0  0  0
  142.1248   81.2754  224.1453 H   0  0  0  0  0  0  0  0  0  0  0  0
  142.1894   78.2617  223.8398 H   0  0  0  0  0  0  0  0  0  0  0  0
  141.7465   79.1705  225.3155 H   0  0  0  0  0  0  0  0  0  0  0  0
  139.7560   78.4935  223.9954 H   0  0  0  0  0  0  0  0  0  0  0  0
  139.9424   80.2965  224.1014 H   0  0  0  0  0  0  0  0  0  0  0  0
  139.3735   79.9614  221.9242 H   0  0  0  0  0  0  0  0  0  0  0  0
  139.1877   78.4415  219.6640 H   0  0  0  0  0  0  0  0  0  0  0  0
  139.5630   75.9280  219.2530 H   0  0  0  0  0  0  0  0  0  0  0  0
  141.3917   76.8176  222.9775 H   0  0  0  0  0  0  0  0  0  0  0  0
  142.1735   76.8059  216.1625 H   0  0  0  0  0  0  0  0  0  0  0  0
  143.0809   74.4998  216.0960 H   0  0  0  0  0  0  0  0  0  0  0  0
  144.1615   72.7224  217.1918 H   0  0  0  0  0  0  0  0  0  0  0  0
  145.3250   73.1862  221.3186 H   0  0  0  0  0  0  0  0  0  0  0  0
  144.4138   75.4902  221.3797 H   0  0  0  0  0  0  0  0  0  0  0  0
  1  2  2  0
  2  3  1  0
  3  4  1  0
  4  5  1  0
  5  6  2  0
  5  7  1  0
  7  8  1  0
  8  9  1  0
  9 10  1  0
 10 11  1  0
 11 12  1  0
 12 13  1  0
 13 14  2  0
 14 15  1  0
 15 16  1  0
 16 17  1  0
 16 18  2  0
  2 19  1  0
 19 20  2  0
 20 21  1  0
 21 22  2  0
 22 23  1  0
 23 24  2  0
 24 25  1  0
 24 26  1  0
 26 27  2  0
 27 28  1  0
 28 29  2  0
 12  7  1  0
 18 13  1  0
 29 19  1  0
 28 22  1  0
  3 30  1  0
  4 31  1  0
  4 32  1  0
  8 33  1  0
  8 34  1  0
  9 35  1  0
  9 36  1  0
 10 37  1  0
 10 38  1  0
 11 39  1  0
 11 40  1  0
 12 41  1  1
 14 42  1  0
 15 43  1  0
 18 44  1  0
 20 45  1  0
 21 46  1  0
 23 47  1  0
 26 48  1  0
 27 49  1  0
M  END
>  <smiles>  (36) 
O=C(NCC(=O)N1CCCC[C@@H]1c1c[nH]c(Cl)c1)c1ccc2cc(Cl)ccc2n1

>  <score_type>  (36) 
oracle

>  <origin>  (36) 
autodockgpu

>  <m_score__min__energy>  (36) 
-8.9000000000000004

>  <m_primary>  (36) 
energy

>  <rmsd>  (36) 
8.376024300162223

>  <m_score__min__rmsd>  (36) 
8.376024300162223

>  <meeko>  (36) 
{"free_energy": -6.61, "intermolecular_energy": -8.1, "internal_energy": -2.79, "cluster_size": 5, "cluster_id": 9, "rank_in_cluster": 5}

>  <energy>  (36) 
-7.99

>  <cluster_rmsd>  (36) 
1.91

>  <cluster>  (36) 
3

$$$$

     RDKit          3D

 49 52  0  0  0  0  0  0  0  0999 V2000
  140.2020   72.3770  220.7570 O   0  0  0  0  0  0  0  0  0  0  0  0
  139.9740   72.7690  221.9300 C   0  0  0  0  0  0  0  0  0  0  0  0
  139.6390   74.1390  222.0960 N   0  0  0  0  0  0  0  0  0  0  0  0
  139.5780   74.9890  220.9500 C   0  0  0  0  0  0  0  0  0  0  0  0
  140.7200   75.9630  220.9070 C   0  0  0  0  0  0  0  0  0  0  0  0
  141.8580   75.6200  220.4880 O   0  0  0  0  0  0  0  0  0  0  0  0
  140.4890   77.2940  221.3540 N   0  0  0  0  0  0  0  0  0  0  0  0
  139.1410   77.6650  221.6840 C   0  0  0  0  0  0  0  0  0  0  0  0
  139.0270   78.6330  222.8150 C   0  0  0  0  0  0  0  0  0  0  0  0
  139.9840   79.7730  222.6870 C   0  0  0  0  0  0  0  0  0  0  0  0
  141.3840   79.2150  222.6170 C   0  0  0  0  0  0  0  0  0  0  0  0
  141.5510   78.2400  221.4750 C   0  0  2  0  0  0  0  0  0  0  0  0
  141.8800   78.9460  220.2000 C   0  0  0  0  0  0  0  0  0  0  0  0
  142.3860   78.4090  219.0290 C   0  0  0  0  0  0  0  0  0  0  0  0
  142.5510   79.3610  218.0990 N   0  0  0  0  0  0  0  0  0  0  0  0
  142.1730   80.5260  218.6060 C   0  0  0  0  0  0  0  0  0  0  0  0
  142.2200   82.0470  217.7370 Cl  0  0  0  0  0  0  0  0  0  0  0  0
  141.7460   80.3060  219.9200 C   0  0  0  0  0  0  0  0  0  0  0  0
  140.0380   71.8910  223.0940 C   0  0  0  0  0  0  0  0  0  0  0  0
  139.5450   70.5950  222.9260 C   0  0  0  0  0  0  0  0  0  0  0  0
  139.5510   69.6780  223.9470 C   0  0  0  0  0  0  0  0  0  0  0  0
  140.0700   70.0870  225.1590 C   0  0  0  0  0  0  0  0  0  0  0  0
  140.0750   69.1620  226.1810 C   0  0  0  0  0  0  0  0  0  0  0  0
  140.5990   69.5780  227.4080 C   0  0  0  0  0  0  0  0  0  0  0  0
  140.6140   68.4180  228.7160 Cl  0  0  0  0  0  0  0  0  0  0  0  0
  141.0830   70.8620  227.5550 C   0  0  0  0  0  0  0  0  0  0  0  0
  141.0750   71.7830  226.5260 C   0  0  0  0  0  0  0  0  0  0  0  0
  140.5510   71.3730  225.2960 C   0  0  0  0  0  0  0  0  0  0  0  0
  140.5380   72.2690  224.2800 N   0  0  0  0  0  0  0  0  0  0  0  0
  139.4470   74.4670  223.0890 H   0  0  0  0  0  0  0  0  0  0  0  0
  139.6093   74.3657  220.0442 H   0  0  0  0  0  0  0  0  0  0  0  0
  138.6431   75.5659  221.0058 H   0  0  0  0  0  0  0  0  0  0  0  0
  138.6818   78.1201  220.7941 H   0  0  0  0  0  0  0  0  0  0  0  0
  138.6320   76.7446  222.0061 H   0  0  0  0  0  0  0  0  0  0  0  0
  138.0023   79.0325  222.8362 H   0  0  0  0  0  0  0  0  0  0  0  0
  139.2687   78.0945  223.7432 H   0  0  0  0  0  0  0  0  0  0  0  0
  139.7644   80.3411  221.7710 H   0  0  0  0  0  0  0  0  0  0  0  0
  139.8883   80.4453  223.5523 H   0  0  0  0  0  0  0  0  0  0  0  0
  142.0908   80.0466  222.4796 H   0  0  0  0  0  0  0  0  0  0  0  0
  141.5806   78.6749  223.5549 H   0  0  0  0  0  0  0  0  0  0  0  0
  142.4214   77.6156  221.7251 H   0  0  0  0  0  0  0  0  0  0  0  0
  142.6211   77.3447  218.8811 H   0  0  0  0  0  0  0  0  0  0  0  0
  142.9200   79.2090  217.1300 H   0  0  0  0  0  0  0  0  0  0  0  0
  141.3696   81.0731  220.6128 H   0  0  0  0  0  0  0  0  0  0  0  0
  139.1400   70.3007  221.9465 H   0  0  0  0  0  0  0  0  0  0  0  0
  139.1588   68.6601  223.8056 H   0  0  0  0  0  0  0  0  0  0  0  0
  139.6846   68.1437  226.0375 H   0  0  0  0  0  0  0  0  0  0  0  0
  141.4914   71.1639  228.5307 H   0  0  0  0  0  0  0  0  0  0  0  0
  141.4662   72.8011  226.6686 H   0  0  0  0  0  0  0  0  0  0  0  0
  1  2  2  0
  2  3  1  0
  3  4  1  0
  4  5  1  0
  5  6  2  0
  5  7  1  0
  7  8  1  0
  8  9  1  0
  9 10  1  0
 10 11  1  0
 11 12  1  0
 12 13  1  0
 13 14  2  0
 14 15  1  0
 15 16  1  0
 16 17  1  0
 16 18  2  0
  2 19  1  0
 19 20  2  0
 20 21  1  0
 21 22  2  0
 22 23  1  0
 23 24  2  0
 24 25  1  0
 24 26  1  0
 26 27  2  0
 27 28  1  0
 28 29  2  0
 12  7  1  0
 18 13  1  0
 29 19  1  0
 28 22  1  0
  3 30  1  0
  4 31  1  0
  4 32  1  0
  8 33  1  0
  8 34  1  0
  9 35  1  0
  9 36  1  0
 10 37  1  0
 10 38  1  0
 11 39  1  0
 11 40  1  0
 12 41  1  1
 14 42  1  0
 15 43  1  0
 18 44  1  0
 20 45  1  0
 21 46  1  0
 23 47  1  0
 26 48  1  0
 27 49  1  0
M  END
>  <smiles>  (37) 
O=C(NCC(=O)N1CCCC[C@@H]1c1c[nH]c(Cl)c1)c1ccc2cc(Cl)ccc2n1

>  <score_type>  (37) 
oracle

>  <origin>  (37) 
autodockgpu

>  <m_score__min__energy>  (37) 
-8.9000000000000004

>  <m_primary>  (37) 
energy

>  <rmsd>  (37) 
3.0705516837984277

>  <m_score__min__rmsd>  (37) 
3.0705516837984277

>  <meeko>  (37) 
{"free_energy": -8.51, "intermolecular_energy": -10.01, "internal_energy": -1.28, "cluster_size": 6, "cluster_id": 2, "rank_in_cluster": 2}

>  <energy>  (37) 
-7.87

>  <cluster_rmsd>  (37) 
1.26

>  <cluster>  (37) 
3

$$$$

     RDKit          3D

 49 52  0  0  0  0  0  0  0  0999 V2000
  139.3980   71.9830  220.7860 O   0  0  0  0  0  0  0  0  0  0  0  0
  139.5210   72.4270  221.9560 C   0  0  0  0  0  0  0  0  0  0  0  0
  139.4450   73.8360  222.1200 N   0  0  0  0  0  0  0  0  0  0  0  0
  139.2350   74.6630  220.9760 C   0  0  0  0  0  0  0  0  0  0  0  0
  140.3810   75.6050  220.7410 C   0  0  0  0  0  0  0  0  0  0  0  0
  141.4000   75.2470  220.0920 O   0  0  0  0  0  0  0  0  0  0  0  0
  140.2920   76.9220  221.2730 N   0  0  0  0  0  0  0  0  0  0  0  0
  138.9900   77.4140  221.6290 C   0  0  0  0  0  0  0  0  0  0  0  0
  138.9760   78.3150  222.8190 C   0  0  0  0  0  0  0  0  0  0  0  0
  140.0510   79.3510  222.7630 C   0  0  0  0  0  0  0  0  0  0  0  0
  141.3830   78.6510  222.6550 C   0  0  0  0  0  0  0  0  0  0  0  0
  141.4500   77.7390  221.4520 C   0  0  2  0  0  0  0  0  0  0  0  0
  141.8590   78.4850  220.2250 C   0  0  0  0  0  0  0  0  0  0  0  0
  142.5210   78.0020  219.1080 C   0  0  0  0  0  0  0  0  0  0  0  0
  142.7140   78.9770  218.2090 N   0  0  0  0  0  0  0  0  0  0  0  0
  142.2050   80.1060  218.6820 C   0  0  0  0  0  0  0  0  0  0  0  0
  142.2350   81.6390  217.8360 Cl  0  0  0  0  0  0  0  0  0  0  0  0
  141.6600   79.8370  219.9430 C   0  0  0  0  0  0  0  0  0  0  0  0
  139.7340   71.5710  223.1190 C   0  0  0  0  0  0  0  0  0  0  0  0
  139.3850   70.2270  222.9760 C   0  0  0  0  0  0  0  0  0  0  0  0
  139.5390   69.3240  223.9990 C   0  0  0  0  0  0  0  0  0  0  0  0
  140.0580   69.7990  225.1860 C   0  0  0  0  0  0  0  0  0  0  0  0
  140.2110   68.8890  226.2100 C   0  0  0  0  0  0  0  0  0  0  0  0
  140.7360   69.3720  227.4120 C   0  0  0  0  0  0  0  0  0  0  0  0
  140.9380   68.2310  228.7220 Cl  0  0  0  0  0  0  0  0  0  0  0  0
  141.0760   70.7040  227.5340 C   0  0  0  0  0  0  0  0  0  0  0  0
  140.9200   71.6090  226.5040 C   0  0  0  0  0  0  0  0  0  0  0  0
  140.3950   71.1320  225.2990 C   0  0  0  0  0  0  0  0  0  0  0  0
  140.2370   72.0140  224.2820 N   0  0  0  0  0  0  0  0  0  0  0  0
  139.5490   74.2080  223.1110 H   0  0  0  0  0  0  0  0  0  0  0  0
  139.1169   74.0206  220.0909 H   0  0  0  0  0  0  0  0  0  0  0  0
  138.3326   75.2659  221.1553 H   0  0  0  0  0  0  0  0  0  0  0  0
  138.5861   77.9711  220.7708 H   0  0  0  0  0  0  0  0  0  0  0  0
  138.3835   76.5352  221.8932 H   0  0  0  0  0  0  0  0  0  0  0  0
  138.0004   78.8208  222.8674 H   0  0  0  0  0  0  0  0  0  0  0  0
  139.1541   77.6954  223.7103 H   0  0  0  0  0  0  0  0  0  0  0  0
  139.8988   79.9970  221.8858 H   0  0  0  0  0  0  0  0  0  0  0  0
  140.0237   79.9728  223.6700 H   0  0  0  0  0  0  0  0  0  0  0  0
  142.1760   79.4086  222.5703 H   0  0  0  0  0  0  0  0  0  0  0  0
  141.5153   78.0337  223.5558 H   0  0  0  0  0  0  0  0  0  0  0  0
  142.2473   77.0101  221.6592 H   0  0  0  0  0  0  0  0  0  0  0  0
  142.8446   76.9589  218.9767 H   0  0  0  0  0  0  0  0  0  0  0  0
  143.1920   78.8650  217.2820 H   0  0  0  0  0  0  0  0  0  0  0  0
  141.1609   80.5658  220.5986 H   0  0  0  0  0  0  0  0  0  0  0  0
  138.9746   69.8812  222.0158 H   0  0  0  0  0  0  0  0  0  0  0  0
  139.2604   68.2668  223.8774 H   0  0  0  0  0  0  0  0  0  0  0  0
  139.9329   67.8319  226.0869 H   0  0  0  0  0  0  0  0  0  0  0  0
  141.4878   71.0584  228.4905 H   0  0  0  0  0  0  0  0  0  0  0  0
  141.1983   72.6662  226.6263 H   0  0  0  0  0  0  0  0  0  0  0  0
  1  2  2  0
  2  3  1  0
  3  4  1  0
  4  5  1  0
  5  6  2  0
  5  7  1  0
  7  8  1  0
  8  9  1  0
  9 10  1  0
 10 11  1  0
 11 12  1  0
 12 13  1  0
 13 14  2  0
 14 15  1  0
 15 16  1  0
 16 17  1  0
 16 18  2  0
  2 19  1  0
 19 20  2  0
 20 21  1  0
 21 22  2  0
 22 23  1  0
 23 24  2  0
 24 25  1  0
 24 26  1  0
 26 27  2  0
 27 28  1  0
 28 29  2  0
 12  7  1  0
 18 13  1  0
 29 19  1  0
 28 22  1  0
  3 30  1  0
  4 31  1  0
  4 32  1  0
  8 33  1  0
  8 34  1  0
  9 35  1  0
  9 36  1  0
 10 37  1  0
 10 38  1  0
 11 39  1  0
 11 40  1  0
 12 41  1  1
 14 42  1  0
 15 43  1  0
 18 44  1  0
 20 45  1  0
 21 46  1  0
 23 47  1  0
 26 48  1  0
 27 49  1  0
M  END
>  <smiles>  (38) 
O=C(NCC(=O)N1CCCC[C@@H]1c1c[nH]c(Cl)c1)c1ccc2cc(Cl)ccc2n1

>  <score_type>  (38) 
oracle

>  <origin>  (38) 
autodockgpu

>  <m_score__min__energy>  (38) 
-8.9000000000000004

>  <m_primary>  (38) 
energy

>  <rmsd>  (38) 
2.889442960801488

>  <m_score__min__rmsd>  (38) 
2.889442960801488

>  <meeko>  (38) 
{"free_energy": -8.4, "intermolecular_energy": -9.89, "internal_energy": -1.37, "cluster_size": 6, "cluster_id": 2, "rank_in_cluster": 3}

>  <energy>  (38) 
-7.52

>  <cluster_rmsd>  (38) 
1.42

>  <cluster>  (38) 
3

$$$$

     RDKit          3D

 49 52  0  0  0  0  0  0  0  0999 V2000
  140.3340   72.1520  220.8750 O   0  0  0  0  0  0  0  0  0  0  0  0
  139.7010   72.3440  221.9450 C   0  0  0  0  0  0  0  0  0  0  0  0
  138.8050   73.4460  221.9730 N   0  0  0  0  0  0  0  0  0  0  0  0
  138.6670   74.2660  220.8130 C   0  0  0  0  0  0  0  0  0  0  0  0
  139.1370   75.6710  221.0550 C   0  0  0  0  0  0  0  0  0  0  0  0
  138.3590   76.5520  221.5110 O   0  0  0  0  0  0  0  0  0  0  0  0
  140.4900   75.9920  220.7560 N   0  0  0  0  0  0  0  0  0  0  0  0
  141.4470   74.9200  220.7490 C   0  0  0  0  0  0  0  0  0  0  0  0
  142.5320   75.0690  219.7350 C   0  0  0  0  0  0  0  0  0  0  0  0
  143.1200   76.4420  219.7270 C   0  0  0  0  0  0  0  0  0  0  0  0
  142.0150   77.4330  219.4560 C   0  0  0  0  0  0  0  0  0  0  0  0
  140.8990   77.3300  220.4700 C   0  0  2  0  0  0  0  0  0  0  0  0
  141.1920   78.1460  221.6870 C   0  0  0  0  0  0  0  0  0  0  0  0
  140.5690   78.0980  222.9220 C   0  0  0  0  0  0  0  0  0  0  0  0
  141.1110   78.9870  223.7660 N   0  0  0  0  0  0  0  0  0  0  0  0
  142.0810   79.6370  223.1390 C   0  0  0  0  0  0  0  0  0  0  0  0
  143.0620   80.8940  223.8650 Cl  0  0  0  0  0  0  0  0  0  0  0  0
  142.1620   79.1380  221.8350 C   0  0  0  0  0  0  0  0  0  0  0  0
  139.8490   71.4980  223.1250 C   0  0  0  0  0  0  0  0  0  0  0  0
  139.4240   70.1740  223.0000 C   0  0  0  0  0  0  0  0  0  0  0  0
  139.5120   69.2810  224.0390 C   0  0  0  0  0  0  0  0  0  0  0  0
  140.0430   69.7460  225.2250 C   0  0  0  0  0  0  0  0  0  0  0  0
  140.1300   68.8460  226.2660 C   0  0  0  0  0  0  0  0  0  0  0  0
  140.6670   69.3190  227.4670 C   0  0  0  0  0  0  0  0  0  0  0  0
  140.7860   68.1920  228.7990 Cl  0  0  0  0  0  0  0  0  0  0  0  0
  141.0820   70.6310  227.5710 C   0  0  0  0  0  0  0  0  0  0  0  0
  140.9920   71.5260  226.5250 C   0  0  0  0  0  0  0  0  0  0  0  0
  140.4550   71.0590  225.3200 C   0  0  0  0  0  0  0  0  0  0  0  0
  140.3620   71.9300  224.2870 N   0  0  0  0  0  0  0  0  0  0  0  0
  138.2710   73.6040  222.8790 H   0  0  0  0  0  0  0  0  0  0  0  0
  139.2612   73.8289  219.9970 H   0  0  0  0  0  0  0  0  0  0  0  0
  137.5992   74.3064  220.5521 H   0  0  0  0  0  0  0  0  0  0  0  0
  141.9115   74.8669  221.7447 H   0  0  0  0  0  0  0  0  0  0  0  0
  140.8936   74.0068  220.4849 H   0  0  0  0  0  0  0  0  0  0  0  0
  143.3286   74.3450  219.9612 H   0  0  0  0  0  0  0  0  0  0  0  0
  142.0914   74.8873  218.7436 H   0  0  0  0  0  0  0  0  0  0  0  0
  143.5786   76.6552  220.7038 H   0  0  0  0  0  0  0  0  0  0  0  0
  143.8935   76.5168  218.9485 H   0  0  0  0  0  0  0  0  0  0  0  0
  142.4336   78.4496  219.4910 H   0  0  0  0  0  0  0  0  0  0  0  0
  141.5942   77.2091  218.4646 H   0  0  0  0  0  0  0  0  0  0  0  0
  140.0095   77.7729  219.9981 H   0  0  0  0  0  0  0  0  0  0  0  0
  139.7402   77.4210  223.1767 H   0  0  0  0  0  0  0  0  0  0  0  0
  140.8150   79.1440  224.7590 H   0  0  0  0  0  0  0  0  0  0  0  0
  142.8684   79.4702  221.0600 H   0  0  0  0  0  0  0  0  0  0  0  0
  139.0061   69.8362  222.0402 H   0  0  0  0  0  0  0  0  0  0  0  0
  139.1739   68.2398  223.9309 H   0  0  0  0  0  0  0  0  0  0  0  0
  139.7927   67.8047  226.1566 H   0  0  0  0  0  0  0  0  0  0  0  0
  141.5017   70.9773  228.5270 H   0  0  0  0  0  0  0  0  0  0  0  0
  141.3296   72.5672  226.6340 H   0  0  0  0  0  0  0  0  0  0  0  0
  1  2  2  0
  2  3  1  0
  3  4  1  0
  4  5  1  0
  5  6  2  0
  5  7  1  0
  7  8  1  0
  8  9  1  0
  9 10  1  0
 10 11  1  0
 11 12  1  0
 12 13  1  0
 13 14  2  0
 14 15  1  0
 15 16  1  0
 16 17  1  0
 16 18  2  0
  2 19  1  0
 19 20  2  0
 20 21  1  0
 21 22  2  0
 22 23  1  0
 23 24  2  0
 24 25  1  0
 24 26  1  0
 26 27  2  0
 27 28  1  0
 28 29  2  0
 12  7  1  0
 18 13  1  0
 29 19  1  0
 28 22  1  0
  3 30  1  0
  4 31  1  0
  4 32  1  0
  8 33  1  0
  8 34  1  0
  9 35  1  0
  9 36  1  0
 10 37  1  0
 10 38  1  0
 11 39  1  0
 11 40  1  0
 12 41  1  6
 14 42  1  0
 15 43  1  0
 18 44  1  0
 20 45  1  0
 21 46  1  0
 23 47  1  0
 26 48  1  0
 27 49  1  0
M  END
>  <smiles>  (39) 
O=C(NCC(=O)N1CCCC[C@@H]1c1c[nH]c(Cl)c1)c1ccc2cc(Cl)ccc2n1

>  <score_type>  (39) 
oracle

>  <origin>  (39) 
autodockgpu

>  <m_score__min__energy>  (39) 
-8.9000000000000004

>  <m_primary>  (39) 
energy

>  <rmsd>  (39) 
1.8922649961798872

>  <m_score__min__rmsd>  (39) 
1.8922649961798872

>  <meeko>  (39) 
{"free_energy": -8.76, "intermolecular_energy": -10.25, "internal_energy": -1.33, "cluster_size": 23, "cluster_id": 1, "rank_in_cluster": 4}

>  <energy>  (39) 
-7.95

>  <cluster_rmsd>  (39) 
0.0

>  <cluster>  (39) 
4

$$$$

     RDKit          3D

 49 52  0  0  0  0  0  0  0  0999 V2000
  139.3310   73.6660  222.3480 O   0  0  0  0  0  0  0  0  0  0  0  0
  140.1680   72.7310  222.4370 C   0  0  0  0  0  0  0  0  0  0  0  0
  141.0930   72.5920  221.3680 N   0  0  0  0  0  0  0  0  0  0  0  0
  141.0300   73.4980  220.2660 C   0  0  0  0  0  0  0  0  0  0  0  0
  141.3910   74.8990  220.6650 C   0  0  0  0  0  0  0  0  0  0  0  0
  142.5930   75.2720  220.7320 O   0  0  0  0  0  0  0  0  0  0  0  0
  140.3380   75.8080  220.9680 N   0  0  0  0  0  0  0  0  0  0  0  0
  139.3450   76.0420  219.9570 C   0  0  0  0  0  0  0  0  0  0  0  0
  137.9690   76.2750  220.4870 C   0  0  0  0  0  0  0  0  0  0  0  0
  137.9530   77.2400  221.6270 C   0  0  0  0  0  0  0  0  0  0  0  0
  138.8480   76.7060  222.7180 C   0  0  0  0  0  0  0  0  0  0  0  0
  140.2590   76.4700  222.2300 C   0  0  2  0  0  0  0  0  0  0  0  0
  141.0790   77.7170  222.3110 C   0  0  0  0  0  0  0  0  0  0  0  0
  141.7790   78.3500  221.2990 C   0  0  0  0  0  0  0  0  0  0  0  0
  142.3960   79.4480  221.7580 N   0  0  0  0  0  0  0  0  0  0  0  0
  142.1360   79.5760  223.0520 C   0  0  0  0  0  0  0  0  0  0  0  0
  142.7410   80.8740  224.0610 Cl  0  0  0  0  0  0  0  0  0  0  0  0
  141.3130   78.5110  223.4340 C   0  0  0  0  0  0  0  0  0  0  0  0
  140.2240   71.8120  223.5690 C   0  0  0  0  0  0  0  0  0  0  0  0
  139.7940   70.5050  223.3330 C   0  0  0  0  0  0  0  0  0  0  0  0
  139.8000   69.5490  224.3180 C   0  0  0  0  0  0  0  0  0  0  0  0
  140.2520   69.9320  225.5640 C   0  0  0  0  0  0  0  0  0  0  0  0
  140.2570   68.9680  226.5510 C   0  0  0  0  0  0  0  0  0  0  0  0
  140.7140   69.3580  227.8130 C   0  0  0  0  0  0  0  0  0  0  0  0
  140.7270   68.1490  229.0760 Cl  0  0  0  0  0  0  0  0  0  0  0  0
  141.1360   70.6540  228.0270 C   0  0  0  0  0  0  0  0  0  0  0  0
  141.1290   71.6130  227.0340 C   0  0  0  0  0  0  0  0  0  0  0  0
  140.6720   71.2300  225.7700 C   0  0  0  0  0  0  0  0  0  0  0  0
  140.6610   72.1640  224.7880 N   0  0  0  0  0  0  0  0  0  0  0  0
  141.7990   71.8020  221.4470 H   0  0  0  0  0  0  0  0  0  0  0  0
  141.7300   73.1593  219.4880 H   0  0  0  0  0  0  0  0  0  0  0  0
  139.9946   73.5079  219.8947 H   0  0  0  0  0  0  0  0  0  0  0  0
  139.6454   76.9278  219.3781 H   0  0  0  0  0  0  0  0  0  0  0  0
  139.2961   75.1278  219.3471 H   0  0  0  0  0  0  0  0  0  0  0  0
  137.3416   76.6751  219.6769 H   0  0  0  0  0  0  0  0  0  0  0  0
  137.5851   75.3129  220.8570 H   0  0  0  0  0  0  0  0  0  0  0  0
  138.3230   78.2194  221.2895 H   0  0  0  0  0  0  0  0  0  0  0  0
  136.9271   77.3596  222.0055 H   0  0  0  0  0  0  0  0  0  0  0  0
  138.8748   77.4333  223.5428 H   0  0  0  0  0  0  0  0  0  0  0  0
  138.4383   75.7409  223.0507 H   0  0  0  0  0  0  0  0  0  0  0  0
  140.7110   75.7476  222.9256 H   0  0  0  0  0  0  0  0  0  0  0  0
  141.8232   77.9992  220.2574 H   0  0  0  0  0  0  0  0  0  0  0  0
  142.9890   80.0980  221.1890 H   0  0  0  0  0  0  0  0  0  0  0  0
  140.9187   78.3309  224.4450 H   0  0  0  0  0  0  0  0  0  0  0  0
  139.4398   70.2331  222.3277 H   0  0  0  0  0  0  0  0  0  0  0  0
  139.4591   68.5216  224.1223 H   0  0  0  0  0  0  0  0  0  0  0  0
  139.9172   67.9405  226.3539 H   0  0  0  0  0  0  0  0  0  0  0  0
  141.4924   70.9344  229.0292 H   0  0  0  0  0  0  0  0  0  0  0  0
  141.4703   72.6401  227.2303 H   0  0  0  0  0  0  0  0  0  0  0  0
  1  2  2  0
  2  3  1  0
  3  4  1  0
  4  5  1  0
  5  6  2  0
  5  7  1  0
  7  8  1  0
  8  9  1  0
  9 10  1  0
 10 11  1  0
 11 12  1  0
 12 13  1  0
 13 14  2  0
 14 15  1  0
 15 16  1  0
 16 17  1  0
 16 18  2  0
  2 19  1  0
 19 20  2  0
 20 21  1  0
 21 22  2  0
 22 23  1  0
 23 24  2  0
 24 25  1  0
 24 26  1  0
 26 27  2  0
 27 28  1  0
 28 29  2  0
 12  7  1  0
 18 13  1  0
 29 19  1  0
 28 22  1  0
  3 30  1  0
  4 31  1  0
  4 32  1  0
  8 33  1  0
  8 34  1  0
  9 35  1  0
  9 36  1  0
 10 37  1  0
 10 38  1  0
 11 39  1  0
 11 40  1  0
 12 41  1  1
 14 42  1  0
 15 43  1  0
 18 44  1  0
 20 45  1  0
 21 46  1  0
 23 47  1  0
 26 48  1  0
 27 49  1  0
M  END
>  <smiles>  (40) 
O=C(NCC(=O)N1CCCC[C@@H]1c1c[nH]c(Cl)c1)c1ccc2cc(Cl)ccc2n1

>  <score_type>  (40) 
oracle

>  <origin>  (40) 
autodockgpu

>  <m_score__min__energy>  (40) 
-8.9000000000000004

>  <m_primary>  (40) 
energy

>  <rmsd>  (40) 
2.7569731899078636

>  <m_score__min__rmsd>  (40) 
2.7569731899078636

>  <meeko>  (40) 
{"free_energy": -8.46, "intermolecular_energy": -9.95, "internal_energy": -1.46, "cluster_size": 23, "cluster_id": 1, "rank_in_cluster": 12}

>  <energy>  (40) 
-7.92

>  <cluster_rmsd>  (40) 
0.0

>  <cluster>  (40) 
5

$$$$

     RDKit          3D

 49 52  0  0  0  0  0  0  0  0999 V2000
  139.6550   72.4720  220.3480 O   0  0  0  0  0  0  0  0  0  0  0  0
  140.1630   72.7940  221.4530 C   0  0  0  0  0  0  0  0  0  0  0  0
  140.8000   74.0620  221.5230 N   0  0  0  0  0  0  0  0  0  0  0  0
  140.8340   74.8930  220.3630 C   0  0  0  0  0  0  0  0  0  0  0  0
  139.7740   75.9550  220.3960 C   0  0  0  0  0  0  0  0  0  0  0  0
  138.6580   75.7850  219.8350 O   0  0  0  0  0  0  0  0  0  0  0  0
  140.0570   77.1700  221.0810 N   0  0  0  0  0  0  0  0  0  0  0  0
  138.9520   77.8880  221.6540 C   0  0  0  0  0  0  0  0  0  0  0  0
  139.2710   78.5920  222.9310 C   0  0  0  0  0  0  0  0  0  0  0  0
  140.5530   79.3560  222.8560 C   0  0  0  0  0  0  0  0  0  0  0  0
  141.6600   78.3960  222.5000 C   0  0  0  0  0  0  0  0  0  0  0  0
  141.3880   77.6710  221.2030 C   0  0  2  0  0  0  0  0  0  0  0  0
  141.8440   78.4700  220.0260 C   0  0  0  0  0  0  0  0  0  0  0  0
  142.5640   78.0400  218.9250 C   0  0  0  0  0  0  0  0  0  0  0  0
  142.7850   79.0520  218.0730 N   0  0  0  0  0  0  0  0  0  0  0  0
  142.2370   80.1550  218.5660 C   0  0  0  0  0  0  0  0  0  0  0  0
  142.2840   81.7200  217.7820 Cl  0  0  0  0  0  0  0  0  0  0  0  0
  141.6380   79.8290  219.7880 C   0  0  0  0  0  0  0  0  0  0  0  0
  140.1200   71.9370  222.6340 C   0  0  0  0  0  0  0  0  0  0  0  0
  139.4380   70.7260  222.5000 C   0  0  0  0  0  0  0  0  0  0  0  0
  139.3310   69.8350  223.5390 C   0  0  0  0  0  0  0  0  0  0  0  0
  139.9280   70.1840  224.7330 C   0  0  0  0  0  0  0  0  0  0  0  0
  139.8180   69.2860  225.7740 C   0  0  0  0  0  0  0  0  0  0  0  0
  140.4230   69.6420  226.9830 C   0  0  0  0  0  0  0  0  0  0  0  0
  140.2930   68.5150  228.3140 Cl  0  0  0  0  0  0  0  0  0  0  0  0
  141.0930   70.8430  227.0950 C   0  0  0  0  0  0  0  0  0  0  0  0
  141.2000   71.7370  226.0480 C   0  0  0  0  0  0  0  0  0  0  0  0
  140.5960   71.3870  224.8360 C   0  0  0  0  0  0  0  0  0  0  0  0
  140.6950   72.2580  223.8030 N   0  0  0  0  0  0  0  0  0  0  0  0
  141.2270   74.3300  222.4590 H   0  0  0  0  0  0  0  0  0  0  0  0
  141.8196   75.3778  220.3031 H   0  0  0  0  0  0  0  0  0  0  0  0
  140.6474   74.2564  219.4856 H   0  0  0  0  0  0  0  0  0  0  0  0
  138.6123   78.6370  220.9236 H   0  0  0  0  0  0  0  0  0  0  0  0
  138.1806   77.1406  221.8913 H   0  0  0  0  0  0  0  0  0  0  0  0
  138.4551   79.2930  223.1612 H   0  0  0  0  0  0  0  0  0  0  0  0
  139.3809   77.8292  223.7159 H   0  0  0  0  0  0  0  0  0  0  0  0
  140.4757   80.1363  222.0845 H   0  0  0  0  0  0  0  0  0  0  0  0
  140.7647   79.8343  223.8237 H   0  0  0  0  0  0  0  0  0  0  0  0
  142.5998   78.9591  222.4013 H   0  0  0  0  0  0  0  0  0  0  0  0
  141.7273   77.6446  223.3005 H   0  0  0  0  0  0  0  0  0  0  0  0
  142.0025   76.7588  221.2233 H   0  0  0  0  0  0  0  0  0  0  0  0
  142.9087   77.0070  218.7696 H   0  0  0  0  0  0  0  0  0  0  0  0
  143.3070   78.9840  217.1670 H   0  0  0  0  0  0  0  0  0  0  0  0
  141.0979   80.5245  220.4472 H   0  0  0  0  0  0  0  0  0  0  0  0
  138.9731   70.4787  221.5342 H   0  0  0  0  0  0  0  0  0  0  0  0
  138.7920   68.8830  223.4244 H   0  0  0  0  0  0  0  0  0  0  0  0
  139.2793   68.3340  225.6584 H   0  0  0  0  0  0  0  0  0  0  0  0
  141.5608   71.0986  228.0572 H   0  0  0  0  0  0  0  0  0  0  0  0
  141.7399   72.6885  226.1628 H   0  0  0  0  0  0  0  0  0  0  0  0
  1  2  2  0
  2  3  1  0
  3  4  1  0
  4  5  1  0
  5  6  2  0
  5  7  1  0
  7  8  1  0
  8  9  1  0
  9 10  1  0
 10 11  1  0
 11 12  1  0
 12 13  1  0
 13 14  2  0
 14 15  1  0
 15 16  1  0
 16 17  1  0
 16 18  2  0
  2 19  1  0
 19 20  2  0
 20 21  1  0
 21 22  2  0
 22 23  1  0
 23 24  2  0
 24 25  1  0
 24 26  1  0
 26 27  2  0
 27 28  1  0
 28 29  2  0
 12  7  1  0
 18 13  1  0
 29 19  1  0
 28 22  1  0
  3 30  1  0
  4 31  1  0
  4 32  1  0
  8 33  1  0
  8 34  1  0
  9 35  1  0
  9 36  1  0
 10 37  1  0
 10 38  1  0
 11 39  1  0
 11 40  1  0
 12 41  1  1
 14 42  1  0
 15 43  1  0
 18 44  1  0
 20 45  1  0
 21 46  1  0
 23 47  1  0
 26 48  1  0
 27 49  1  0
M  END
>  <smiles>  (41) 
O=C(NCC(=O)N1CCCC[C@@H]1c1c[nH]c(Cl)c1)c1ccc2cc(Cl)ccc2n1

>  <score_type>  (41) 
oracle

>  <origin>  (41) 
autodockgpu

>  <m_score__min__energy>  (41) 
-8.9000000000000004

>  <m_primary>  (41) 
energy

>  <rmsd>  (41) 
3.243741641879701

>  <m_score__min__rmsd>  (41) 
3.243741641879701

>  <meeko>  (41) 
{"free_energy": -7.67, "intermolecular_energy": -9.16, "internal_energy": -1.47, "cluster_size": 6, "cluster_id": 2, "rank_in_cluster": 6}

>  <energy>  (41) 
-7.87

>  <cluster_rmsd>  (41) 
0.0

>  <cluster>  (41) 
6

$$$$

     RDKit          3D

 49 52  0  0  0  0  0  0  0  0999 V2000
  136.6730   77.5730  222.4450 O   0  0  0  0  0  0  0  0  0  0  0  0
  136.8250   76.4270  222.9420 C   0  0  0  0  0  0  0  0  0  0  0  0
  138.0270   75.7420  222.6190 N   0  0  0  0  0  0  0  0  0  0  0  0
  138.9840   76.3700  221.7670 C   0  0  0  0  0  0  0  0  0  0  0  0
  140.2190   75.5340  221.5900 C   0  0  0  0  0  0  0  0  0  0  0  0
  140.3740   74.4540  222.2200 O   0  0  0  0  0  0  0  0  0  0  0  0
  141.2200   75.9910  220.6880 N   0  0  0  0  0  0  0  0  0  0  0  0
  142.4050   75.1920  220.5430 C   0  0  0  0  0  0  0  0  0  0  0  0
  142.9830   75.1910  219.1670 C   0  0  0  0  0  0  0  0  0  0  0  0
  143.0710   76.5640  218.5840 C   0  0  0  0  0  0  0  0  0  0  0  0
  141.6870   77.1640  218.5680 C   0  0  0  0  0  0  0  0  0  0  0  0
  141.0670   77.2010  219.9460 C   0  0  2  0  0  0  0  0  0  0  0  0
  141.4760   78.4260  220.6950 C   0  0  0  0  0  0  0  0  0  0  0  0
  141.6410   79.7130  220.2120 C   0  0  0  0  0  0  0  0  0  0  0  0
  142.0170   80.5480  221.1910 N   0  0  0  0  0  0  0  0  0  0  0  0
  142.1140   79.8650  222.3230 C   0  0  0  0  0  0  0  0  0  0  0  0
  142.5800   80.5590  223.8620 Cl  0  0  0  0  0  0  0  0  0  0  0  0
  141.7820   78.5320  222.0530 C   0  0  0  0  0  0  0  0  0  0  0  0
  135.8400   75.7950  223.8140 C   0  0  0  0  0  0  0  0  0  0  0  0
  134.9500   76.6470  224.4700 C   0  0  0  0  0  0  0  0  0  0  0  0
  133.9790   76.1720  225.3150 C   0  0  0  0  0  0  0  0  0  0  0  0
  133.9130   74.8050  225.4940 C   0  0  0  0  0  0  0  0  0  0  0  0
  132.9360   74.3320  226.3430 C   0  0  0  0  0  0  0  0  0  0  0  0
  132.8720   72.9470  226.5240 C   0  0  0  0  0  0  0  0  0  0  0  0
  131.6380   72.3290  227.5980 Cl  0  0  0  0  0  0  0  0  0  0  0  0
  133.7600   72.1210  225.8670 C   0  0  0  0  0  0  0  0  0  0  0  0
  134.7360   72.6020  225.0180 C   0  0  0  0  0  0  0  0  0  0  0  0
  134.8060   73.9860  224.8320 C   0  0  0  0  0  0  0  0  0  0  0  0
  135.7600   74.4690  224.0010 N   0  0  0  0  0  0  0  0  0  0  0  0
  138.1530   74.7740  223.0420 H   0  0  0  0  0  0  0  0  0  0  0  0
  138.5251   76.5376  220.7814 H   0  0  0  0  0  0  0  0  0  0  0  0
  139.2825   77.3194  222.2356 H   0  0  0  0  0  0  0  0  0  0  0  0
  143.1671   75.5778  221.2361 H   0  0  0  0  0  0  0  0  0  0  0  0
  142.1128   74.1543  220.7617 H   0  0  0  0  0  0  0  0  0  0  0  0
  143.9941   74.7598  219.2091 H   0  0  0  0  0  0  0  0  0  0  0  0
  142.3171   74.5963  218.5244 H   0  0  0  0  0  0  0  0  0  0  0  0
  143.7386   77.1863  219.1980 H   0  0  0  0  0  0  0  0  0  0  0  0
  143.4738   76.5154  217.5615 H   0  0  0  0  0  0  0  0  0  0  0  0
  141.7503   78.1913  218.1799 H   0  0  0  0  0  0  0  0  0  0  0  0
  141.0521   76.5338  217.9279 H   0  0  0  0  0  0  0  0  0  0  0  0
  139.9797   77.2718  219.7952 H   0  0  0  0  0  0  0  0  0  0  0  0
  141.4845   80.0106  219.1647 H   0  0  0  0  0  0  0  0  0  0  0  0
  142.2060   81.5720  221.0790 H   0  0  0  0  0  0  0  0  0  0  0  0
  141.7652   77.7104  222.7842 H   0  0  0  0  0  0  0  0  0  0  0  0
  135.0295   77.7316  224.3046 H   0  0  0  0  0  0  0  0  0  0  0  0
  133.2827   76.8517  225.8280 H   0  0  0  0  0  0  0  0  0  0  0  0
  132.2391   75.0122  226.8544 H   0  0  0  0  0  0  0  0  0  0  0  0
  133.6873   71.0350  226.0262 H   0  0  0  0  0  0  0  0  0  0  0  0
  135.4330   71.9218  224.5066 H   0  0  0  0  0  0  0  0  0  0  0  0
  1  2  2  0
  2  3  1  0
  3  4  1  0
  4  5  1  0
  5  6  2  0
  5  7  1  0
  7  8  1  0
  8  9  1  0
  9 10  1  0
 10 11  1  0
 11 12  1  0
 12 13  1  0
 13 14  2  0
 14 15  1  0
 15 16  1  0
 16 17  1  0
 16 18  2  0
  2 19  1  0
 19 20  2  0
 20 21  1  0
 21 22  2  0
 22 23  1  0
 23 24  2  0
 24 25  1  0
 24 26  1  0
 26 27  2  0
 27 28  1  0
 28 29  2  0
 12  7  1  0
 18 13  1  0
 29 19  1  0
 28 22  1  0
  3 30  1  0
  4 31  1  0
  4 32  1  0
  8 33  1  0
  8 34  1  0
  9 35  1  0
  9 36  1  0
 10 37  1  0
 10 38  1  0
 11 39  1  0
 11 40  1  0
 12 41  1  6
 14 42  1  0
 15 43  1  0
 18 44  1  0
 20 45  1  0
 21 46  1  0
 23 47  1  0
 26 48  1  0
 27 49  1  0
M  END
>  <smiles>  (42) 
O=C(NCC(=O)N1CCCC[C@@H]1c1c[nH]c(Cl)c1)c1ccc2cc(Cl)ccc2n1

>  <score_type>  (42) 
oracle

>  <origin>  (42) 
autodockgpu

>  <m_score__min__energy>  (42) 
-8.9000000000000004

>  <m_primary>  (42) 
energy

>  <rmsd>  (42) 
5.834938007602427

>  <m_score__min__rmsd>  (42) 
5.834938007602427

>  <meeko>  (42) 
{"free_energy": -7.45, "intermolecular_energy": -8.94, "internal_energy": -1.74, "cluster_size": 2, "cluster_id": 7, "rank_in_cluster": 2}

>  <energy>  (42) 
-7.74

>  <cluster_rmsd>  (42) 
0.0

>  <cluster>  (42) 
7

$$$$

     RDKit          3D

 49 52  0  0  0  0  0  0  0  0999 V2000
  139.7060   73.6770  222.3890 O   0  0  0  0  0  0  0  0  0  0  0  0
  139.8660   72.4320  222.3090 C   0  0  0  0  0  0  0  0  0  0  0  0
  139.9270   71.8750  221.0030 N   0  0  0  0  0  0  0  0  0  0  0  0
  139.8060   72.7330  219.8690 C   0  0  0  0  0  0  0  0  0  0  0  0
  141.0010   72.6460  218.9640 C   0  0  0  0  0  0  0  0  0  0  0  0
  140.8920   72.2500  217.7720 O   0  0  0  0  0  0  0  0  0  0  0  0
  142.2710   73.0220  219.4840 N   0  0  0  0  0  0  0  0  0  0  0  0
  142.8750   72.1620  220.4630 C   0  0  0  0  0  0  0  0  0  0  0  0
  144.3630   72.0860  220.3820 C   0  0  0  0  0  0  0  0  0  0  0  0
  144.9970   73.4320  220.2450 C   0  0  0  0  0  0  0  0  0  0  0  0
  144.4410   74.0970  219.0100 C   0  0  0  0  0  0  0  0  0  0  0  0
  142.9350   74.2110  219.0550 C   0  0  2  0  0  0  0  0  0  0  0  0
  142.5040   75.4410  219.7850 C   0  0  0  0  0  0  0  0  0  0  0  0
  143.0040   76.7260  219.6700 C   0  0  0  0  0  0  0  0  0  0  0  0
  142.3580   77.5660  220.4920 N   0  0  0  0  0  0  0  0  0  0  0  0
  141.4370   76.8880  221.1610 C   0  0  0  0  0  0  0  0  0  0  0  0
  140.3570   77.5890  222.3480 Cl  0  0  0  0  0  0  0  0  0  0  0  0
  141.4970   75.5530  220.7450 C   0  0  0  0  0  0  0  0  0  0  0  0
  139.9890   71.5630  223.4750 C   0  0  0  0  0  0  0  0  0  0  0  0
  139.5220   70.2560  223.3310 C   0  0  0  0  0  0  0  0  0  0  0  0
  139.5840   69.3450  224.3560 C   0  0  0  0  0  0  0  0  0  0  0  0
  140.1320   69.7750  225.5480 C   0  0  0  0  0  0  0  0  0  0  0  0
  140.1930   68.8570  226.5750 C   0  0  0  0  0  0  0  0  0  0  0  0
  140.7480   69.2940  227.7810 C   0  0  0  0  0  0  0  0  0  0  0  0
  140.8330   68.1430  229.0950 Cl  0  0  0  0  0  0  0  0  0  0  0  0
  141.2050   70.5900  227.9040 C   0  0  0  0  0  0  0  0  0  0  0  0
  141.1410   71.5030  226.8710 C   0  0  0  0  0  0  0  0  0  0  0  0
  140.5870   71.0730  225.6620 C   0  0  0  0  0  0  0  0  0  0  0  0
  140.5190   71.9620  224.6420 N   0  0  0  0  0  0  0  0  0  0  0  0
  140.0630   70.8220  220.9400 H   0  0  0  0  0  0  0  0  0  0  0  0
  138.9092   72.4452  219.3007 H   0  0  0  0  0  0  0  0  0  0  0  0
  139.7325   73.7681  220.2340 H   0  0  0  0  0  0  0  0  0  0  0  0
  142.6033   72.5337  221.4620 H   0  0  0  0  0  0  0  0  0  0  0  0
  142.4975   71.1478  220.2658 H   0  0  0  0  0  0  0  0  0  0  0  0
  144.7424   71.6087  221.2975 H   0  0  0  0  0  0  0  0  0  0  0  0
  144.6200   71.5022  219.4859 H   0  0  0  0  0  0  0  0  0  0  0  0
  144.7677   74.0425  221.1308 H   0  0  0  0  0  0  0  0  0  0  0  0
  146.0888   73.3285  220.1594 H   0  0  0  0  0  0  0  0  0  0  0  0
  144.8708   75.1061  218.9266 H   0  0  0  0  0  0  0  0  0  0  0  0
  144.7079   73.4765  218.1418 H   0  0  0  0  0  0  0  0  0  0  0  0
  142.6014   74.3273  218.0133 H   0  0  0  0  0  0  0  0  0  0  0  0
  143.8216   77.0192  218.9950 H   0  0  0  0  0  0  0  0  0  0  0  0
  142.5520   78.5910  220.5910 H   0  0  0  0  0  0  0  0  0  0  0  0
  140.8607   74.7339  221.1112 H   0  0  0  0  0  0  0  0  0  0  0  0
  139.0913   69.9464  222.3673 H   0  0  0  0  0  0  0  0  0  0  0  0
  139.2131   68.3168  224.2329 H   0  0  0  0  0  0  0  0  0  0  0  0
  139.8222   67.8288  226.4510 H   0  0  0  0  0  0  0  0  0  0  0  0
  141.6377   70.9083  228.8639 H   0  0  0  0  0  0  0  0  0  0  0  0
  141.5123   72.5310  226.9946 H   0  0  0  0  0  0  0  0  0  0  0  0
  1  2  2  0
  2  3  1  0
  3  4  1  0
  4  5  1  0
  5  6  2  0
  5  7  1  0
  7  8  1  0
  8  9  1  0
  9 10  1  0
 10 11  1  0
 11 12  1  0
 12 13  1  0
 13 14  2  0
 14 15  1  0
 15 16  1  0
 16 17  1  0
 16 18  2  0
  2 19  1  0
 19 20  2  0
 20 21  1  0
 21 22  2  0
 22 23  1  0
 23 24  2  0
 24 25  1  0
 24 26  1  0
 26 27  2  0
 27 28  1  0
 28 29  2  0
 12  7  1  0
 18 13  1  0
 29 19  1  0
 28 22  1  0
  3 30  1  0
  4 31  1  0
  4 32  1  0
  8 33  1  0
  8 34  1  0
  9 35  1  0
  9 36  1  0
 10 37  1  0
 10 38  1  0
 11 39  1  0
 11 40  1  0
 12 41  1  6
 14 42  1  0
 15 43  1  0
 18 44  1  0
 20 45  1  0
 21 46  1  0
 23 47  1  0
 26 48  1  0
 27 49  1  0
M  END
>  <smiles>  (43) 
O=C(NCC(=O)N1CCCC[C@@H]1c1c[nH]c(Cl)c1)c1ccc2cc(Cl)ccc2n1

>  <score_type>  (43) 
oracle

>  <origin>  (43) 
autodockgpu

>  <m_score__min__energy>  (43) 
-8.9000000000000004

>  <m_primary>  (43) 
energy

>  <rmsd>  (43) 
3.353423448226958

>  <m_score__min__rmsd>  (43) 
3.353423448226958

>  <meeko>  (43) 
{"free_energy": -7.95, "intermolecular_energy": -9.44, "internal_energy": -1.6, "cluster_size": 1, "cluster_id": 4, "rank_in_cluster": 1}

>  <energy>  (43) 
-7.45

>  <cluster_rmsd>  (43) 
1.29

>  <cluster>  (43) 
7

$$$$

     RDKit          3D

 49 52  0  0  0  0  0  0  0  0999 V2000
  140.1920   72.1370  220.7660 O   0  0  0  0  0  0  0  0  0  0  0  0
  139.9740   72.5290  221.9410 C   0  0  0  0  0  0  0  0  0  0  0  0
  139.6450   73.9000  222.1110 N   0  0  0  0  0  0  0  0  0  0  0  0
  139.5800   74.7510  220.9660 C   0  0  0  0  0  0  0  0  0  0  0  0
  139.9220   76.1740  221.2990 C   0  0  0  0  0  0  0  0  0  0  0  0
  139.3910   76.7630  222.2790 O   0  0  0  0  0  0  0  0  0  0  0  0
  140.8670   76.8520  220.4790 N   0  0  0  0  0  0  0  0  0  0  0  0
  142.0790   76.1580  220.1410 C   0  0  0  0  0  0  0  0  0  0  0  0
  142.6020   76.4610  218.7760 C   0  0  0  0  0  0  0  0  0  0  0  0
  142.6070   77.9260  218.4800 C   0  0  0  0  0  0  0  0  0  0  0  0
  141.1990   78.4460  218.6250 C   0  0  0  0  0  0  0  0  0  0  0  0
  140.6320   78.1760  219.9990 C   0  0  2  0  0  0  0  0  0  0  0  0
  141.0160   79.2460  220.9670 C   0  0  0  0  0  0  0  0  0  0  0  0
  140.5530   80.5490  221.0340 C   0  0  0  0  0  0  0  0  0  0  0  0
  141.1340   81.2120  222.0440 N   0  0  0  0  0  0  0  0  0  0  0  0
  141.9780   80.3980  222.6630 C   0  0  0  0  0  0  0  0  0  0  0  0
  142.9570   80.8480  224.0440 Cl  0  0  0  0  0  0  0  0  0  0  0  0
  141.9310   79.1570  222.0170 C   0  0  0  0  0  0  0  0  0  0  0  0
  140.0420   71.6490  223.1040 C   0  0  0  0  0  0  0  0  0  0  0  0
  139.5570   70.3510  222.9330 C   0  0  0  0  0  0  0  0  0  0  0  0
  139.5690   69.4320  223.9530 C   0  0  0  0  0  0  0  0  0  0  0  0
  140.0840   69.8430  225.1650 C   0  0  0  0  0  0  0  0  0  0  0  0
  140.0940   68.9160  226.1860 C   0  0  0  0  0  0  0  0  0  0  0  0
  140.6150   69.3340  227.4140 C   0  0  0  0  0  0  0  0  0  0  0  0
  140.6360   68.1710  228.7210 Cl  0  0  0  0  0  0  0  0  0  0  0  0
  141.0910   70.6200  227.5630 C   0  0  0  0  0  0  0  0  0  0  0  0
  141.0780   71.5420  226.5360 C   0  0  0  0  0  0  0  0  0  0  0  0
  140.5570   71.1310  225.3050 C   0  0  0  0  0  0  0  0  0  0  0  0
  140.5400   72.0290  224.2910 N   0  0  0  0  0  0  0  0  0  0  0  0
  139.4610   74.2270  223.1050 H   0  0  0  0  0  0  0  0  0  0  0  0
  140.2897   74.3833  220.2103 H   0  0  0  0  0  0  0  0  0  0  0  0
  138.5473   74.7308  220.5876 H   0  0  0  0  0  0  0  0  0  0  0  0
  142.8504   76.4352  220.8745 H   0  0  0  0  0  0  0  0  0  0  0  0
  141.8407   75.0842  220.1551 H   0  0  0  0  0  0  0  0  0  0  0  0
  143.6318   76.0817  218.7000 H   0  0  0  0  0  0  0  0  0  0  0  0
  141.9382   75.9737  218.0467 H   0  0  0  0  0  0  0  0  0  0  0  0
  143.2696   78.4457  219.1877 H   0  0  0  0  0  0  0  0  0  0  0  0
  142.9719   78.1036  217.4576 H   0  0  0  0  0  0  0  0  0  0  0  0
  141.2022   79.5319  218.4498 H   0  0  0  0  0  0  0  0  0  0  0  0
  140.5681   77.9248  217.8899 H   0  0  0  0  0  0  0  0  0  0  0  0
  139.5377   78.2199  219.8960 H   0  0  0  0  0  0  0  0  0  0  0  0
  139.8082   80.9822  220.3502 H   0  0  0  0  0  0  0  0  0  0  0  0
  140.9520   82.2120  222.3010 H   0  0  0  0  0  0  0  0  0  0  0  0
  142.5146   78.2654  222.2899 H   0  0  0  0  0  0  0  0  0  0  0  0
  139.1537   70.0562  221.9530 H   0  0  0  0  0  0  0  0  0  0  0  0
  139.1843   68.4114  223.8099 H   0  0  0  0  0  0  0  0  0  0  0  0
  139.7100   67.8955  226.0409 H   0  0  0  0  0  0  0  0  0  0  0  0
  141.4972   70.9229  228.5394 H   0  0  0  0  0  0  0  0  0  0  0  0
  141.4631   72.5622  226.6804 H   0  0  0  0  0  0  0  0  0  0  0  0
  1  2  2  0
  2  3  1  0
  3  4  1  0
  4  5  1  0
  5  6  2  0
  5  7  1  0
  7  8  1  0
  8  9  1  0
  9 10  1  0
 10 11  1  0
 11 12  1  0
 12 13  1  0
 13 14  2  0
 14 15  1  0
 15 16  1  0
 16 17  1  0
 16 18  2  0
  2 19  1  0
 19 20  2  0
 20 21  1  0
 21 22  2  0
 22 23  1  0
 23 24  2  0
 24 25  1  0
 24 26  1  0
 26 27  2  0
 27 28  1  0
 28 29  2  0
 12  7  1  0
 18 13  1  0
 29 19  1  0
 28 22  1  0
  3 30  1  0
  4 31  1  0
  4 32  1  0
  8 33  1  0
  8 34  1  0
  9 35  1  0
  9 36  1  0
 10 37  1  0
 10 38  1  0
 11 39  1  0
 11 40  1  0
 12 41  1  6
 14 42  1  0
 15 43  1  0
 18 44  1  0
 20 45  1  0
 21 46  1  0
 23 47  1  0
 26 48  1  0
 27 49  1  0
M  END
>  <smiles>  (44) 
O=C(NCC(=O)N1CCCC[C@@H]1c1c[nH]c(Cl)c1)c1ccc2cc(Cl)ccc2n1

>  <score_type>  (44) 
oracle

>  <origin>  (44) 
autodockgpu

>  <m_score__min__energy>  (44) 
-8.9000000000000004

>  <m_primary>  (44) 
energy

>  <rmsd>  (44) 
2.0351489935401426

>  <m_score__min__rmsd>  (44) 
2.0351489935401426

>  <meeko>  (44) 
{"free_energy": -8.45, "intermolecular_energy": -9.94, "internal_energy": -1.46, "cluster_size": 23, "cluster_id": 1, "rank_in_cluster": 13}

>  <energy>  (44) 
-7.58

>  <cluster_rmsd>  (44) 
0.0

>  <cluster>  (44) 
8

$$$$

     RDKit          3D

 49 52  0  0  0  0  0  0  0  0999 V2000
  139.9550   72.2780  220.7470 O   0  0  0  0  0  0  0  0  0  0  0  0
  139.6320   72.6280  221.9120 C   0  0  0  0  0  0  0  0  0  0  0  0
  139.0600   73.9200  222.0590 N   0  0  0  0  0  0  0  0  0  0  0  0
  138.8830   74.7430  220.9060 C   0  0  0  0  0  0  0  0  0  0  0  0
  139.5450   76.0810  221.0600 C   0  0  0  0  0  0  0  0  0  0  0  0
  138.9070   77.0820  221.4850 O   0  0  0  0  0  0  0  0  0  0  0  0
  140.9200   76.1990  220.7130 N   0  0  0  0  0  0  0  0  0  0  0  0
  141.8250   75.2050  221.2190 C   0  0  0  0  0  0  0  0  0  0  0  0
  142.9440   74.8620  220.2920 C   0  0  0  0  0  0  0  0  0  0  0  0
  143.5960   76.0750  219.7110 C   0  0  0  0  0  0  0  0  0  0  0  0
  142.5450   76.8780  218.9850 C   0  0  0  0  0  0  0  0  0  0  0  0
  141.3980   77.2630  219.8900 C   0  0  2  0  0  0  0  0  0  0  0  0
  141.6940   78.5210  220.6390 C   0  0  0  0  0  0  0  0  0  0  0  0
  141.7960   79.8100  220.1450 C   0  0  0  0  0  0  0  0  0  0  0  0
  142.0740   80.6790  221.1280 N   0  0  0  0  0  0  0  0  0  0  0  0
  142.1630   80.0160  222.2730 C   0  0  0  0  0  0  0  0  0  0  0  0
  142.5130   80.7570  223.8210 Cl  0  0  0  0  0  0  0  0  0  0  0  0
  141.9300   78.6620  222.0070 C   0  0  0  0  0  0  0  0  0  0  0  0
  139.8170   71.7770  223.0830 C   0  0  0  0  0  0  0  0  0  0  0  0
  139.4380   70.4400  222.9490 C   0  0  0  0  0  0  0  0  0  0  0  0
  139.5640   69.5430  223.9800 C   0  0  0  0  0  0  0  0  0  0  0  0
  140.0860   70.0160  225.1670 C   0  0  0  0  0  0  0  0  0  0  0  0
  140.2110   69.1110  226.1990 C   0  0  0  0  0  0  0  0  0  0  0  0
  140.7390   69.5920  227.4010 C   0  0  0  0  0  0  0  0  0  0  0  0
  140.9050   68.4570  228.7220 Cl  0  0  0  0  0  0  0  0  0  0  0  0
  141.1080   70.9160  227.5140 C   0  0  0  0  0  0  0  0  0  0  0  0
  140.9800   71.8160  226.4760 C   0  0  0  0  0  0  0  0  0  0  0  0
  140.4520   71.3420  225.2710 C   0  0  0  0  0  0  0  0  0  0  0  0
  140.3220   72.2180  224.2450 N   0  0  0  0  0  0  0  0  0  0  0  0
  138.7880   74.2110  223.0450 H   0  0  0  0  0  0  0  0  0  0  0  0
  139.3170   74.2308  220.0347 H   0  0  0  0  0  0  0  0  0  0  0  0
  137.8042   74.9123  220.7732 H   0  0  0  0  0  0  0  0  0  0  0  0
  142.2584   75.5802  222.1578 H   0  0  0  0  0  0  0  0  0  0  0  0
  141.2372   74.2854  221.3560 H   0  0  0  0  0  0  0  0  0  0  0  0
  143.6994   74.2872  220.8479 H   0  0  0  0  0  0  0  0  0  0  0  0
  142.5231   74.2773  219.4607 H   0  0  0  0  0  0  0  0  0  0  0  0
  144.0369   76.6815  220.5159 H   0  0  0  0  0  0  0  0  0  0  0  0
  144.3939   75.7785  219.0142 H   0  0  0  0  0  0  0  0  0  0  0  0
  143.0084   77.7943  218.5904 H   0  0  0  0  0  0  0  0  0  0  0  0
  142.1418   76.2536  218.1741 H   0  0  0  0  0  0  0  0  0  0  0  0
  140.5433   77.4799  219.2324 H   0  0  0  0  0  0  0  0  0  0  0  0
  141.6664   80.0848  219.0878 H   0  0  0  0  0  0  0  0  0  0  0  0
  142.2010   81.7120  221.0100 H   0  0  0  0  0  0  0  0  0  0  0  0
  141.9325   77.8493  222.7483 H   0  0  0  0  0  0  0  0  0  0  0  0
  139.0263   70.0954  221.9889 H   0  0  0  0  0  0  0  0  0  0  0  0
  139.2618   68.4916  223.8653 H   0  0  0  0  0  0  0  0  0  0  0  0
  139.9095   68.0596  226.0825 H   0  0  0  0  0  0  0  0  0  0  0  0
  141.5211   71.2689  228.4705 H   0  0  0  0  0  0  0  0  0  0  0  0
  141.2821   72.8673  226.5921 H   0  0  0  0  0  0  0  0  0  0  0  0
  1  2  2  0
  2  3  1  0
  3  4  1  0
  4  5  1  0
  5  6  2  0
  5  7  1  0
  7  8  1  0
  8  9  1  0
  9 10  1  0
 10 11  1  0
 11 12  1  0
 12 13  1  0
 13 14  2  0
 14 15  1  0
 15 16  1  0
 16 17  1  0
 16 18  2  0
  2 19  1  0
 19 20  2  0
 20 21  1  0
 21 22  2  0
 22 23  1  0
 23 24  2  0
 24 25  1  0
 24 26  1  0
 26 27  2  0
 27 28  1  0
 28 29  2  0
 12  7  1  0
 18 13  1  0
 29 19  1  0
 28 22  1  0
  3 30  1  0
  4 31  1  0
  4 32  1  0
  8 33  1  0
  8 34  1  0
  9 35  1  0
  9 36  1  0
 10 37  1  0
 10 38  1  0
 11 39  1  0
 11 40  1  0
 12 41  1  6
 14 42  1  0
 15 43  1  0
 18 44  1  0
 20 45  1  0
 21 46  1  0
 23 47  1  0
 26 48  1  0
 27 49  1  0
M  END
>  <smiles>  (45) 
O=C(NCC(=O)N1CCCC[C@@H]1c1c[nH]c(Cl)c1)c1ccc2cc(Cl)ccc2n1

>  <score_type>  (45) 
oracle

>  <origin>  (45) 
autodockgpu

>  <m_score__min__energy>  (45) 
-8.9000000000000004

>  <m_primary>  (45) 
energy

>  <rmsd>  (45) 
2.1961711234381545

>  <m_score__min__rmsd>  (45) 
2.1961711234381545

>  <meeko>  (45) 
{"free_energy": -8.68, "intermolecular_energy": -10.17, "internal_energy": -1.5, "cluster_size": 23, "cluster_id": 1, "rank_in_cluster": 6}

>  <energy>  (45) 
-7.39

>  <cluster_rmsd>  (45) 
1.7

>  <cluster>  (45) 
8

$$$$

     RDKit          3D

 49 52  0  0  0  0  0  0  0  0999 V2000
  140.4190   71.8160  220.9880 O   0  0  0  0  0  0  0  0  0  0  0  0
  139.9160   72.1570  222.0890 C   0  0  0  0  0  0  0  0  0  0  0  0
  139.2420   73.4070  222.1270 N   0  0  0  0  0  0  0  0  0  0  0  0
  139.1680   74.2000  220.9420 C   0  0  0  0  0  0  0  0  0  0  0  0
  139.9500   75.4760  221.0660 C   0  0  0  0  0  0  0  0  0  0  0  0
  141.2110   75.4730  221.0690 O   0  0  0  0  0  0  0  0  0  0  0  0
  139.2330   76.6990  221.1820 N   0  0  0  0  0  0  0  0  0  0  0  0
  138.4540   77.1270  220.0530 C   0  0  0  0  0  0  0  0  0  0  0  0
  137.1930   77.8420  220.4100 C   0  0  0  0  0  0  0  0  0  0  0  0
  137.4030   78.8790  221.4640 C   0  0  0  0  0  0  0  0  0  0  0  0
  137.9860   78.2080  222.6840 C   0  0  0  0  0  0  0  0  0  0  0  0
  139.2750   77.4850  222.3730 C   0  0  2  0  0  0  0  0  0  0  0  0
  140.4490   78.4060  222.4480 C   0  0  0  0  0  0  0  0  0  0  0  0
  141.3200   78.7690  221.4350 C   0  0  0  0  0  0  0  0  0  0  0  0
  142.2520   79.6200  221.8880 N   0  0  0  0  0  0  0  0  0  0  0  0
  142.0390   79.8430  223.1780 C   0  0  0  0  0  0  0  0  0  0  0  0
  143.0200   80.8940  224.1770 Cl  0  0  0  0  0  0  0  0  0  0  0  0
  140.9170   79.1010  223.5640 C   0  0  0  0  0  0  0  0  0  0  0  0
  139.9960   71.3380  223.2940 C   0  0  0  0  0  0  0  0  0  0  0  0
  139.5110   70.0320  223.1930 C   0  0  0  0  0  0  0  0  0  0  0  0
  139.5330   69.1660  224.2580 C   0  0  0  0  0  0  0  0  0  0  0  0
  140.0580   69.6370  225.4430 C   0  0  0  0  0  0  0  0  0  0  0  0
  140.0780   68.7630  226.5100 C   0  0  0  0  0  0  0  0  0  0  0  0
  140.6090   69.2430  227.7100 C   0  0  0  0  0  0  0  0  0  0  0  0
  140.6430   68.1480  229.0730 Cl  0  0  0  0  0  0  0  0  0  0  0  0
  141.0840   70.5360  227.7900 C   0  0  0  0  0  0  0  0  0  0  0  0
  141.0610   71.4050  226.7180 C   0  0  0  0  0  0  0  0  0  0  0  0
  140.5300   70.9320  225.5140 C   0  0  0  0  0  0  0  0  0  0  0  0
  140.5030   71.7780  224.4560 N   0  0  0  0  0  0  0  0  0  0  0  0
  138.8170   73.6920  223.0600 H   0  0  0  0  0  0  0  0  0  0  0  0
  139.5705   73.6178  220.1000 H   0  0  0  0  0  0  0  0  0  0  0  0
  138.1131   74.4641  220.7767 H   0  0  0  0  0  0  0  0  0  0  0  0
  139.0725   77.8031  219.4445 H   0  0  0  0  0  0  0  0  0  0  0  0
  138.1566   76.2160  219.5130 H   0  0  0  0  0  0  0  0  0  0  0  0
  136.7971   78.3310  219.5077 H   0  0  0  0  0  0  0  0  0  0  0  0
  136.4879   77.0978  220.8087 H   0  0  0  0  0  0  0  0  0  0  0  0
  138.0979   79.6479  221.0953 H   0  0  0  0  0  0  0  0  0  0  0  0
  136.4462   79.3587  221.7178 H   0  0  0  0  0  0  0  0  0  0  0  0
  138.1841   78.9731  223.4491 H   0  0  0  0  0  0  0  0  0  0  0  0
  137.2585   77.4647  223.0421 H   0  0  0  0  0  0  0  0  0  0  0  0
  139.4085   76.7363  223.1678 H   0  0  0  0  0  0  0  0  0  0  0  0
  141.2561   78.4079  220.3979 H   0  0  0  0  0  0  0  0  0  0  0  0
  143.0240   80.0390  221.3170 H   0  0  0  0  0  0  0  0  0  0  0  0
  140.4795   79.0708  224.5728 H   0  0  0  0  0  0  0  0  0  0  0  0
  139.0997   69.6876  222.2327 H   0  0  0  0  0  0  0  0  0  0  0  0
  139.1480   68.1394  224.1698 H   0  0  0  0  0  0  0  0  0  0  0  0
  139.6939   67.7362  226.4204 H   0  0  0  0  0  0  0  0  0  0  0  0
  141.4976   70.8883  228.7465 H   0  0  0  0  0  0  0  0  0  0  0  0
  141.4461   72.4315  226.8074 H   0  0  0  0  0  0  0  0  0  0  0  0
  1  2  2  0
  2  3  1  0
  3  4  1  0
  4  5  1  0
  5  6  2  0
  5  7  1  0
  7  8  1  0
  8  9  1  0
  9 10  1  0
 10 11  1  0
 11 12  1  0
 12 13  1  0
 13 14  2  0
 14 15  1  0
 15 16  1  0
 16 17  1  0
 16 18  2  0
  2 19  1  0
 19 20  2  0
 20 21  1  0
 21 22  2  0
 22 23  1  0
 23 24  2  0
 24 25  1  0
 24 26  1  0
 26 27  2  0
 27 28  1  0
 28 29  2  0
 12  7  1  0
 18 13  1  0
 29 19  1  0
 28 22  1  0
  3 30  1  0
  4 31  1  0
  4 32  1  0
  8 33  1  0
  8 34  1  0
  9 35  1  0
  9 36  1  0
 10 37  1  0
 10 38  1  0
 11 39  1  0
 11 40  1  0
 12 41  1  1
 14 42  1  0
 15 43  1  0
 18 44  1  0
 20 45  1  0
 21 46  1  0
 23 47  1  0
 26 48  1  0
 27 49  1  0
M  END
>  <smiles>  (46) 
O=C(NCC(=O)N1CCCC[C@@H]1c1c[nH]c(Cl)c1)c1ccc2cc(Cl)ccc2n1

>  <score_type>  (46) 
oracle

>  <origin>  (46) 
autodockgpu

>  <m_score__min__energy>  (46) 
-8.9000000000000004

>  <m_primary>  (46) 
energy

>  <rmsd>  (46) 
2.721323417876557

>  <m_score__min__rmsd>  (46) 
2.721323417876557

>  <meeko>  (46) 
{"free_energy": -8.5, "intermolecular_energy": -10.0, "internal_energy": -1.21, "cluster_size": 23, "cluster_id": 1, "rank_in_cluster": 11}

>  <energy>  (46) 
-6.64

>  <cluster_rmsd>  (46) 
0.0

>  <cluster>  (46) 
9

$$$$

     RDKit          3D

 49 52  0  0  0  0  0  0  0  0999 V2000
  136.6520   77.3330  222.7870 O   0  0  0  0  0  0  0  0  0  0  0  0
  136.6220   76.1170  223.1060 C   0  0  0  0  0  0  0  0  0  0  0  0
  137.6270   75.2820  222.5480 N   0  0  0  0  0  0  0  0  0  0  0  0
  138.6010   75.8480  221.6710 C   0  0  0  0  0  0  0  0  0  0  0  0
  139.8970   75.0920  221.7020 C   0  0  0  0  0  0  0  0  0  0  0  0
  139.9720   73.9400  222.2080 O   0  0  0  0  0  0  0  0  0  0  0  0
  141.0520   75.7080  221.1440 N   0  0  0  0  0  0  0  0  0  0  0  0
  142.1990   74.8790  220.8950 C   0  0  0  0  0  0  0  0  0  0  0  0
  142.9860   75.2620  219.6860 C   0  0  0  0  0  0  0  0  0  0  0  0
  143.2390   76.7330  219.6130 C   0  0  0  0  0  0  0  0  0  0  0  0
  141.9100   77.4470  219.6180 C   0  0  0  0  0  0  0  0  0  0  0  0
  141.0840   77.1020  220.8350 C   0  0  2  0  0  0  0  0  0  0  0  0
  141.4380   77.9700  221.9970 C   0  0  0  0  0  0  0  0  0  0  0  0
  141.4510   77.6410  223.3420 C   0  0  0  0  0  0  0  0  0  0  0  0
  141.8240   78.6900  224.0880 N   0  0  0  0  0  0  0  0  0  0  0  0
  142.0630   79.7220  223.2890 C   0  0  0  0  0  0  0  0  0  0  0  0
  142.5760   81.3030  223.8390 Cl  0  0  0  0  0  0  0  0  0  0  0  0
  141.8320   79.3090  221.9720 C   0  0  0  0  0  0  0  0  0  0  0  0
  135.6230   75.5490  224.0050 C   0  0  0  0  0  0  0  0  0  0  0  0
  134.7680   76.4530  224.6380 C   0  0  0  0  0  0  0  0  0  0  0  0
  133.7870   76.0400  225.5050 C   0  0  0  0  0  0  0  0  0  0  0  0
  133.6750   74.6830  225.7290 C   0  0  0  0  0  0  0  0  0  0  0  0
  132.6880   74.2730  226.6010 C   0  0  0  0  0  0  0  0  0  0  0  0
  132.5770   72.8990  226.8280 C   0  0  0  0  0  0  0  0  0  0  0  0
  131.3300   72.3600  227.9300 Cl  0  0  0  0  0  0  0  0  0  0  0  0
  133.4310   72.0200  226.1920 C   0  0  0  0  0  0  0  0  0  0  0  0
  134.4160   72.4380  225.3210 C   0  0  0  0  0  0  0  0  0  0  0  0
  134.5330   73.8130  225.0900 C   0  0  0  0  0  0  0  0  0  0  0  0
  135.4980   74.2330  224.2370 N   0  0  0  0  0  0  0  0  0  0  0  0
  137.5990   74.2540  222.8210 H   0  0  0  0  0  0  0  0  0  0  0  0
  138.2057   75.8320  220.6446 H   0  0  0  0  0  0  0  0  0  0  0  0
  138.8011   76.8764  222.0062 H   0  0  0  0  0  0  0  0  0  0  0  0
  142.8626   74.9379  221.7703 H   0  0  0  0  0  0  0  0  0  0  0  0
  141.8184   73.8631  220.7129 H   0  0  0  0  0  0  0  0  0  0  0  0
  143.9529   74.7383  219.7135 H   0  0  0  0  0  0  0  0  0  0  0  0
  142.3988   74.9785  218.8001 H   0  0  0  0  0  0  0  0  0  0  0  0
  143.8345   77.0508  220.4816 H   0  0  0  0  0  0  0  0  0  0  0  0
  143.7941   76.9753  218.6948 H   0  0  0  0  0  0  0  0  0  0  0  0
  142.0903   78.5321  219.6077 H   0  0  0  0  0  0  0  0  0  0  0  0
  141.3502   77.1269  218.7268 H   0  0  0  0  0  0  0  0  0  0  0  0
  140.0396   77.3301  220.5756 H   0  0  0  0  0  0  0  0  0  0  0  0
  141.1901   76.6510  223.7443 H   0  0  0  0  0  0  0  0  0  0  0  0
  141.9120   78.6950  225.1320 H   0  0  0  0  0  0  0  0  0  0  0  0
  141.9419   79.9321  221.0722 H   0  0  0  0  0  0  0  0  0  0  0  0
  134.8838   77.5281  224.4361 H   0  0  0  0  0  0  0  0  0  0  0  0
  133.1188   76.7600  226.0000 H   0  0  0  0  0  0  0  0  0  0  0  0
  132.0197   74.9940  227.0945 H   0  0  0  0  0  0  0  0  0  0  0  0
  133.3216   70.9431  226.3876 H   0  0  0  0  0  0  0  0  0  0  0  0
  135.0842   71.7174  224.8268 H   0  0  0  0  0  0  0  0  0  0  0  0
  1  2  2  0
  2  3  1  0
  3  4  1  0
  4  5  1  0
  5  6  2  0
  5  7  1  0
  7  8  1  0
  8  9  1  0
  9 10  1  0
 10 11  1  0
 11 12  1  0
 12 13  1  0
 13 14  2  0
 14 15  1  0
 15 16  1  0
 16 17  1  0
 16 18  2  0
  2 19  1  0
 19 20  2  0
 20 21  1  0
 21 22  2  0
 22 23  1  0
 23 24  2  0
 24 25  1  0
 24 26  1  0
 26 27  2  0
 27 28  1  0
 28 29  2  0
 12  7  1  0
 18 13  1  0
 29 19  1  0
 28 22  1  0
  3 30  1  0
  4 31  1  0
  4 32  1  0
  8 33  1  0
  8 34  1  0
  9 35  1  0
  9 36  1  0
 10 37  1  0
 10 38  1  0
 11 39  1  0
 11 40  1  0
 12 41  1  6
 14 42  1  0
 15 43  1  0
 18 44  1  0
 20 45  1  0
 21 46  1  0
 23 47  1  0
 26 48  1  0
 27 49  1  0
M  END
>  <smiles>  (47) 
O=C(NCC(=O)N1CCCC[C@@H]1c1c[nH]c(Cl)c1)c1ccc2cc(Cl)ccc2n1

>  <score_type>  (47) 
oracle

>  <origin>  (47) 
autodockgpu

>  <m_score__min__energy>  (47) 
-8.9000000000000004

>  <m_primary>  (47) 
energy

>  <rmsd>  (47) 
5.880532842445258

>  <m_score__min__rmsd>  (47) 
5.880532842445258

>  <meeko>  (47) 
{"free_energy": -7.74, "intermolecular_energy": -9.23, "internal_energy": -1.72, "cluster_size": 2, "cluster_id": 7, "rank_in_cluster": 1}

>  <energy>  (47) 
-6.63

>  <cluster_rmsd>  (47) 
0.08

>  <cluster>  (47) 
9

$$$$

     RDKit          3D

 49 52  0  0  0  0  0  0  0  0999 V2000
  138.6540   73.2490  221.8180 O   0  0  0  0  0  0  0  0  0  0  0  0
  139.7360   72.6860  222.1260 C   0  0  0  0  0  0  0  0  0  0  0  0
  140.8650   72.9760  221.3140 N   0  0  0  0  0  0  0  0  0  0  0  0
  140.7230   73.8720  220.2110 C   0  0  0  0  0  0  0  0  0  0  0  0
  141.5160   75.1320  220.4010 C   0  0  0  0  0  0  0  0  0  0  0  0
  142.7630   75.1540  220.2200 O   0  0  0  0  0  0  0  0  0  0  0  0
  140.8250   76.3130  220.7920 N   0  0  0  0  0  0  0  0  0  0  0  0
  139.3890   76.2730  220.8100 C   0  0  0  0  0  0  0  0  0  0  0  0
  138.7630   77.0900  221.8920 C   0  0  0  0  0  0  0  0  0  0  0  0
  139.3600   78.4560  221.9930 C   0  0  0  0  0  0  0  0  0  0  0  0
  140.8420   78.3120  222.2390 C   0  0  0  0  0  0  0  0  0  0  0  0
  141.5220   77.5040  221.1570 C   0  0  2  0  0  0  0  0  0  0  0  0
  141.9030   78.3620  219.9960 C   0  0  0  0  0  0  0  0  0  0  0  0
  142.5790   77.9960  218.8440 C   0  0  0  0  0  0  0  0  0  0  0  0
  142.7380   79.0470  218.0280 N   0  0  0  0  0  0  0  0  0  0  0  0
  142.1900   80.1150  218.5910 C   0  0  0  0  0  0  0  0  0  0  0  0
  142.1660   81.7120  217.8730 Cl  0  0  0  0  0  0  0  0  0  0  0  0
  141.6570   79.7250  219.8250 C   0  0  0  0  0  0  0  0  0  0  0  0
  139.8700   71.7730  223.2570 C   0  0  0  0  0  0  0  0  0  0  0  0
  139.4340   70.4630  223.0550 C   0  0  0  0  0  0  0  0  0  0  0  0
  139.5090   69.5120  224.0420 C   0  0  0  0  0  0  0  0  0  0  0  0
  140.0390   69.9040  225.2550 C   0  0  0  0  0  0  0  0  0  0  0  0
  140.1120   68.9460  226.2440 C   0  0  0  0  0  0  0  0  0  0  0  0
  140.6480   69.3450  227.4720 C   0  0  0  0  0  0  0  0  0  0  0  0
  140.7490   68.1420  228.7380 Cl  0  0  0  0  0  0  0  0  0  0  0  0
  141.0740   70.6450  227.6520 C   0  0  0  0  0  0  0  0  0  0  0  0
  140.9970   71.5980  226.6570 C   0  0  0  0  0  0  0  0  0  0  0  0
  140.4620   71.2060  225.4260 C   0  0  0  0  0  0  0  0  0  0  0  0
  140.3820   72.1350  224.4430 N   0  0  0  0  0  0  0  0  0  0  0  0
  141.7780   72.4990  221.5780 H   0  0  0  0  0  0  0  0  0  0  0  0
  141.0716   73.3680  219.2975 H   0  0  0  0  0  0  0  0  0  0  0  0
  139.6611   74.1486  220.1340 H   0  0  0  0  0  0  0  0  0  0  0  0
  139.0222   76.6450  219.8420 H   0  0  0  0  0  0  0  0  0  0  0  0
  139.1063   75.2275  221.0024 H   0  0  0  0  0  0  0  0  0  0  0  0
  137.6877   77.1892  221.6824 H   0  0  0  0  0  0  0  0  0  0  0  0
  138.9420   76.5746  222.8472 H   0  0  0  0  0  0  0  0  0  0  0  0
  139.1909   79.0055  221.0552 H   0  0  0  0  0  0  0  0  0  0  0  0
  138.8924   79.0124  222.8187 H   0  0  0  0  0  0  0  0  0  0  0  0
  141.2952   79.3138  222.2714 H   0  0  0  0  0  0  0  0  0  0  0  0
  140.9771   77.7819  223.1933 H   0  0  0  0  0  0  0  0  0  0  0  0
  142.4590   77.1271  221.5929 H   0  0  0  0  0  0  0  0  0  0  0  0
  142.9374   76.9788  218.6278 H   0  0  0  0  0  0  0  0  0  0  0  0
  143.2170   79.0280  217.0960 H   0  0  0  0  0  0  0  0  0  0  0  0
  141.1342   80.3801  220.5374 H   0  0  0  0  0  0  0  0  0  0  0  0
  139.0178   70.1841  222.0757 H   0  0  0  0  0  0  0  0  0  0  0  0
  139.1618   68.4819  223.8737 H   0  0  0  0  0  0  0  0  0  0  0  0
  139.7648   67.9161  226.0747 H   0  0  0  0  0  0  0  0  0  0  0  0
  141.4918   70.9333  228.6279 H   0  0  0  0  0  0  0  0  0  0  0  0
  141.3437   72.6282  226.8260 H   0  0  0  0  0  0  0  0  0  0  0  0
  1  2  2  0
  2  3  1  0
  3  4  1  0
  4  5  1  0
  5  6  2  0
  5  7  1  0
  7  8  1  0
  8  9  1  0
  9 10  1  0
 10 11  1  0
 11 12  1  0
 12 13  1  0
 13 14  2  0
 14 15  1  0
 15 16  1  0
 16 17  1  0
 16 18  2  0
  2 19  1  0
 19 20  2  0
 20 21  1  0
 21 22  2  0
 22 23  1  0
 23 24  2  0
 24 25  1  0
 24 26  1  0
 26 27  2  0
 27 28  1  0
 28 29  2  0
 12  7  1  0
 18 13  1  0
 29 19  1  0
 28 22  1  0
  3 30  1  0
  4 31  1  0
  4 32  1  0
  8 33  1  0
  8 34  1  0
  9 35  1  0
  9 36  1  0
 10 37  1  0
 10 38  1  0
 11 39  1  0
 11 40  1  0
 12 41  1  1
 14 42  1  0
 15 43  1  0
 18 44  1  0
 20 45  1  0
 21 46  1  0
 23 47  1  0
 26 48  1  0
 27 49  1  0
M  END
>  <smiles>  (48) 
O=C(NCC(=O)N1CCCC[C@@H]1c1c[nH]c(Cl)c1)c1ccc2cc(Cl)ccc2n1

>  <score_type>  (48) 
oracle

>  <origin>  (48) 
autodockgpu

>  <m_score__min__energy>  (48) 
-8.9000000000000004

>  <m_primary>  (48) 
energy

>  <rmsd>  (48) 
2.6819070051855265

>  <m_score__min__rmsd>  (48) 
2.6819070051855265

>  <meeko>  (48) 
{"free_energy": -7.79, "intermolecular_energy": -9.28, "internal_energy": -1.34, "cluster_size": 6, "cluster_id": 2, "rank_in_cluster": 5}

>  <energy>  (48) 
-6.61

>  <cluster_rmsd>  (48) 
0.13

>  <cluster>  (48) 
9

$$$$

     RDKit          3D

 49 52  0  0  0  0  0  0  0  0999 V2000
  140.2230   72.0950  220.7680 O   0  0  0  0  0  0  0  0  0  0  0  0
  139.8830   72.4560  221.9240 C   0  0  0  0  0  0  0  0  0  0  0  0
  139.3760   73.7760  222.0620 N   0  0  0  0  0  0  0  0  0  0  0  0
  139.2790   74.6130  220.9090 C   0  0  0  0  0  0  0  0  0  0  0  0
  139.0410   76.0500  221.2720 C   0  0  0  0  0  0  0  0  0  0  0  0
  138.1140   76.3820  222.0590 O   0  0  0  0  0  0  0  0  0  0  0  0
  139.8920   77.0400  220.7050 N   0  0  0  0  0  0  0  0  0  0  0  0
  139.3410   77.8930  219.6890 C   0  0  0  0  0  0  0  0  0  0  0  0
  139.8660   79.2900  219.7050 C   0  0  0  0  0  0  0  0  0  0  0  0
  141.3540   79.3380  219.8350 C   0  0  0  0  0  0  0  0  0  0  0  0
  141.7460   78.6190  221.1010 C   0  0  0  0  0  0  0  0  0  0  0  0
  141.2490   77.1920  221.1210 C   0  0  2  0  0  0  0  0  0  0  0  0
  142.2010   76.2730  220.4280 C   0  0  0  0  0  0  0  0  0  0  0  0
  143.0360   76.5510  219.3600 C   0  0  0  0  0  0  0  0  0  0  0  0
  143.7460   75.4670  219.0130 N   0  0  0  0  0  0  0  0  0  0  0  0
  143.4140   74.4630  219.8140 C   0  0  0  0  0  0  0  0  0  0  0  0
  144.0970   72.8530  219.7190 Cl  0  0  0  0  0  0  0  0  0  0  0  0
  142.4500   74.9300  220.7140 C   0  0  0  0  0  0  0  0  0  0  0  0
  139.9860   71.5920  223.0950 C   0  0  0  0  0  0  0  0  0  0  0  0
  139.5340   70.2790  222.9430 C   0  0  0  0  0  0  0  0  0  0  0  0
  139.5800   69.3720  223.9720 C   0  0  0  0  0  0  0  0  0  0  0  0
  140.0950   69.8090  225.1750 C   0  0  0  0  0  0  0  0  0  0  0  0
  140.1390   68.8940  226.2050 C   0  0  0  0  0  0  0  0  0  0  0  0
  140.6600   69.3390  227.4240 C   0  0  0  0  0  0  0  0  0  0  0  0
  140.7240   68.1910  228.7420 Cl  0  0  0  0  0  0  0  0  0  0  0  0
  141.1030   70.6390  227.5550 C   0  0  0  0  0  0  0  0  0  0  0  0
  141.0550   71.5490  226.5180 C   0  0  0  0  0  0  0  0  0  0  0  0
  140.5350   71.1110  225.2970 C   0  0  0  0  0  0  0  0  0  0  0  0
  140.4840   71.9970  224.2730 N   0  0  0  0  0  0  0  0  0  0  0  0
  139.0890   74.0770  223.0400 H   0  0  0  0  0  0  0  0  0  0  0  0
  140.2173   74.5419  220.3393 H   0  0  0  0  0  0  0  0  0  0  0  0
  138.4220   74.2684  220.3117 H   0  0  0  0  0  0  0  0  0  0  0  0
  139.5692   77.4510  218.7079 H   0  0  0  0  0  0  0  0  0  0  0  0
  138.2613   77.9612  219.8882 H   0  0  0  0  0  0  0  0  0  0  0  0
  139.5772   79.7867  218.7670 H   0  0  0  0  0  0  0  0  0  0  0  0
  139.4363   79.7997  220.5799 H   0  0  0  0  0  0  0  0  0  0  0  0
  141.8185   78.8443  218.9687 H   0  0  0  0  0  0  0  0  0  0  0  0
  141.6959   80.3828  219.8731 H   0  0  0  0  0  0  0  0  0  0  0  0
  142.8431   78.6137  221.1808 H   0  0  0  0  0  0  0  0  0  0  0  0
  141.2870   79.1497  221.9482 H   0  0  0  0  0  0  0  0  0  0  0  0
  141.2276   76.8861  222.1774 H   0  0  0  0  0  0  0  0  0  0  0  0
  143.1079   77.5294  218.8625 H   0  0  0  0  0  0  0  0  0  0  0  0
  144.4460   75.4200  218.2350 H   0  0  0  0  0  0  0  0  0  0  0  0
  141.9711   74.3404  221.5096 H   0  0  0  0  0  0  0  0  0  0  0  0
  139.1294   69.9628  221.9702 H   0  0  0  0  0  0  0  0  0  0  0  0
  139.2214   68.3401  223.8430 H   0  0  0  0  0  0  0  0  0  0  0  0
  139.7811   67.8621  226.0742 H   0  0  0  0  0  0  0  0  0  0  0  0
  141.5105   70.9632  228.5239 H   0  0  0  0  0  0  0  0  0  0  0  0
  141.4129   72.5810  226.6480 H   0  0  0  0  0  0  0  0  0  0  0  0
  1  2  2  0
  2  3  1  0
  3  4  1  0
  4  5  1  0
  5  6  2  0
  5  7  1  0
  7  8  1  0
  8  9  1  0
  9 10  1  0
 10 11  1  0
 11 12  1  0
 12 13  1  0
 13 14  2  0
 14 15  1  0
 15 16  1  0
 16 17  1  0
 16 18  2  0
  2 19  1  0
 19 20  2  0
 20 21  1  0
 21 22  2  0
 22 23  1  0
 23 24  2  0
 24 25  1  0
 24 26  1  0
 26 27  2  0
 27 28  1  0
 28 29  2  0
 12  7  1  0
 18 13  1  0
 29 19  1  0
 28 22  1  0
  3 30  1  0
  4 31  1  0
  4 32  1  0
  8 33  1  0
  8 34  1  0
  9 35  1  0
  9 36  1  0
 10 37  1  0
 10 38  1  0
 11 39  1  0
 11 40  1  0
 12 41  1  1
 14 42  1  0
 15 43  1  0
 18 44  1  0
 20 45  1  0
 21 46  1  0
 23 47  1  0
 26 48  1  0
 27 49  1  0
M  END
>  <smiles>  (49) 
O=C(NCC(=O)N1CCCC[C@@H]1c1c[nH]c(Cl)c1)c1ccc2cc(Cl)ccc2n1

>  <score_type>  (49) 
oracle

>  <origin>  (49) 
autodockgpu

>  <m_score__min__energy>  (49) 
-8.9000000000000004

>  <m_primary>  (49) 
energy

>  <rmsd>  (49) 
2.2739418512725833

>  <m_score__min__rmsd>  (49) 
2.2739418512725833

>  <meeko>  (49) 
{"free_energy": -8.07, "intermolecular_energy": -9.56, "internal_energy": -1.62, "cluster_size": 9, "cluster_id": 3, "rank_in_cluster": 4}

>  <energy>  (49) 
-6.61

>  <cluster_rmsd>  (49) 
0.08

>  <cluster>  (49) 
9

$$$$

     RDKit          3D

 49 52  0  0  0  0  0  0  0  0999 V2000
  141.4530   78.9660  217.1420 O   0  0  0  0  0  0  0  0  0  0  0  0
  142.0740   78.5350  218.1470 C   0  0  0  0  0  0  0  0  0  0  0  0
  142.1940   79.4170  219.2540 N   0  0  0  0  0  0  0  0  0  0  0  0
  141.6190   80.7210  219.1770 C   0  0  0  0  0  0  0  0  0  0  0  0
  140.9880   81.1390  220.4730 C   0  0  0  0  0  0  0  0  0  0  0  0
  140.2290   82.1430  220.5380 O   0  0  0  0  0  0  0  0  0  0  0  0
  141.2660   80.3710  221.6380 N   0  0  0  0  0  0  0  0  0  0  0  0
  142.5650   80.5100  222.2370 C   0  0  0  0  0  0  0  0  0  0  0  0
  142.5720   80.4010  223.7260 C   0  0  0  0  0  0  0  0  0  0  0  0
  141.7680   79.2410  224.2170 C   0  0  0  0  0  0  0  0  0  0  0  0
  140.3550   79.3920  223.7120 C   0  0  0  0  0  0  0  0  0  0  0  0
  140.2970   79.4890  222.2050 C   0  0  2  0  0  0  0  0  0  0  0  0
  140.2680   78.1360  221.5730 C   0  0  0  0  0  0  0  0  0  0  0  0
  139.7030   77.7660  220.3650 C   0  0  0  0  0  0  0  0  0  0  0  0
  139.8810   76.4570  220.1350 N   0  0  0  0  0  0  0  0  0  0  0  0
  140.5490   75.9290  221.1510 C   0  0  0  0  0  0  0  0  0  0  0  0
  141.0010   74.2410  221.2710 Cl  0  0  0  0  0  0  0  0  0  0  0  0
  140.8100   76.9500  222.0720 C   0  0  0  0  0  0  0  0  0  0  0  0
  142.6570   77.1990  218.2160 C   0  0  0  0  0  0  0  0  0  0  0  0
  142.6350   76.4480  217.0390 C   0  0  0  0  0  0  0  0  0  0  0  0
  143.1540   75.1780  216.9790 C   0  0  0  0  0  0  0  0  0  0  0  0
  143.7040   74.6670  218.1360 C   0  0  0  0  0  0  0  0  0  0  0  0
  144.2240   73.3910  218.0700 C   0  0  0  0  0  0  0  0  0  0  0  0
  144.7800   72.8740  219.2440 C   0  0  0  0  0  0  0  0  0  0  0  0
  145.4450   71.2580  219.1790 Cl  0  0  0  0  0  0  0  0  0  0  0  0
  144.7930   73.6320  220.3970 C   0  0  0  0  0  0  0  0  0  0  0  0
  144.2710   74.9080  220.4550 C   0  0  0  0  0  0  0  0  0  0  0  0
  143.7120   75.4310  219.2840 C   0  0  0  0  0  0  0  0  0  0  0  0
  143.1970   76.6840  219.3310 N   0  0  0  0  0  0  0  0  0  0  0  0
  142.7190   79.0480  220.1030 H   0  0  0  0  0  0  0  0  0  0  0  0
  142.4087   81.4418  218.9186 H   0  0  0  0  0  0  0  0  0  0  0  0
  140.8314   80.6983  218.4094 H   0  0  0  0  0  0  0  0  0  0  0  0
  143.2171   79.7225  221.8313 H   0  0  0  0  0  0  0  0  0  0  0  0
  142.9158   81.5240  221.9946 H   0  0  0  0  0  0  0  0  0  0  0  0
  143.6110   80.2797  224.0663 H   0  0  0  0  0  0  0  0  0  0  0  0
  142.1191   81.3179  224.1311 H   0  0  0  0  0  0  0  0  0  0  0  0
  142.1996   78.3030  223.8377 H   0  0  0  0  0  0  0  0  0  0  0  0
  141.7751   79.2152  225.3167 H   0  0  0  0  0  0  0  0  0  0  0  0
  139.7681   78.5192  224.0341 H   0  0  0  0  0  0  0  0  0  0  0  0
  139.9447   80.3243  224.1274 H   0  0  0  0  0  0  0  0  0  0  0  0
  139.3393   79.9726  221.9621 H   0  0  0  0  0  0  0  0  0  0  0  0
  139.1784   78.4533  219.6850 H   0  0  0  0  0  0  0  0  0  0  0  0
  139.5460   75.9360  219.2900 H   0  0  0  0  0  0  0  0  0  0  0  0
  141.3489   76.8375  223.0243 H   0  0  0  0  0  0  0  0  0  0  0  0
  142.1891   76.8862  216.1339 H   0  0  0  0  0  0  0  0  0  0  0  0
  143.1320   74.5931  216.0477 H   0  0  0  0  0  0  0  0  0  0  0  0
  144.2022   72.8077  217.1376 H   0  0  0  0  0  0  0  0  0  0  0  0
  145.2374   73.2017  221.3066 H   0  0  0  0  0  0  0  0  0  0  0  0
  144.2935   75.4920  221.3869 H   0  0  0  0  0  0  0  0  0  0  0  0
  1  2  2  0
  2  3  1  0
  3  4  1  0
  4  5  1  0
  5  6  2  0
  5  7  1  0
  7  8  1  0
  8  9  1  0
  9 10  1  0
 10 11  1  0
 11 12  1  0
 12 13  1  0
 13 14  2  0
 14 15  1  0
 15 16  1  0
 16 17  1  0
 16 18  2  0
  2 19  1  0
 19 20  2  0
 20 21  1  0
 21 22  2  0
 22 23  1  0
 23 24  2  0
 24 25  1  0
 24 26  1  0
 26 27  2  0
 27 28  1  0
 28 29  2  0
 12  7  1  0
 18 13  1  0
 29 19  1  0
 28 22  1  0
  3 30  1  0
  4 31  1  0
  4 32  1  0
  8 33  1  0
  8 34  1  0
  9 35  1  0
  9 36  1  0
 10 37  1  0
 10 38  1  0
 11 39  1  0
 11 40  1  0
 12 41  1  1
 14 42  1  0
 15 43  1  0
 18 44  1  0
 20 45  1  0
 21 46  1  0
 23 47  1  0
 26 48  1  0
 27 49  1  0
M  END
>  <smiles>  (50) 
O=C(NCC(=O)N1CCCC[C@@H]1c1c[nH]c(Cl)c1)c1ccc2cc(Cl)ccc2n1

>  <score_type>  (50) 
oracle

>  <origin>  (50) 
autodockgpu

>  <m_score__min__energy>  (50) 
-8.9000000000000004

>  <m_primary>  (50) 
energy

>  <rmsd>  (50) 
8.400827561961085

>  <m_score__min__rmsd>  (50) 
8.400827561961085

>  <meeko>  (50) 
{"free_energy": -6.61, "intermolecular_energy": -8.1, "internal_energy": -2.78, "cluster_size": 5, "cluster_id": 9, "rank_in_cluster": 3}

>  <energy>  (50) 
-6.61

>  <cluster_rmsd>  (50) 
0.08

>  <cluster>  (50) 
9

$$$$
