
     RDKit          3D

 51 54  0  0  0  0  0  0  0  0999 V2000
  141.4400   72.3860  221.9170 O   0  0  0  0  0  0  0  0  0  0  0  0
  140.3800   72.4800  222.5680 C   0  0  0  0  0  0  0  0  0  0  0  0
  139.3320   73.3930  222.2710 N   0  0  0  0  0  0  0  0  0  0  0  0
  139.4580   74.2800  221.1590 C   0  0  0  0  0  0  0  0  0  0  0  0
  140.2790   75.4690  221.5440 C   0  0  0  0  0  0  0  0  0  0  0  0
  140.0930   75.8990  222.7230 O   0  0  0  0  0  0  0  0  0  0  0  0
  141.2000   76.0690  220.6430 N   0  0  0  0  0  0  0  0  0  0  0  0
  142.2160   75.2280  220.0550 C   0  0  0  0  0  0  0  0  0  0  0  0
  143.3880   75.9850  219.5240 C   0  0  0  0  0  0  0  0  0  0  0  0
  142.8150   77.1480  218.7090 C   0  0  0  0  0  0  0  0  0  0  0  0
  142.1710   78.1170  219.6440 C   0  0  0  0  0  0  0  0  0  0  0  0
  141.0470   77.4810  220.3820 C   0  0  2  0  0  0  0  0  0  0  0  0
  140.6400   78.2390  221.5920 C   0  0  0  0  0  0  0  0  0  0  0  0
  141.5490   78.6270  222.5680 C   0  0  0  0  0  0  0  0  0  0  0  0
  141.1730   79.3340  223.6930 C   0  0  0  0  0  0  0  0  0  0  0  0
  139.8440   79.6710  223.8650 C   0  0  0  0  0  0  0  0  0  0  0  0
  138.9070   79.3030  222.9170 C   0  0  0  0  0  0  0  0  0  0  0  0
  139.3040   78.5940  221.7940 C   0  0  0  0  0  0  0  0  0  0  0  0
  138.0650   78.1630  220.6410 Cl  0  0  0  0  0  0  0  0  0  0  0  0
  140.1970   71.5880  223.7260 C   0  0  0  0  0  0  0  0  0  0  0  0
  139.5060   70.4000  223.6190 C   0  0  0  0  0  0  0  0  0  0  0  0
  139.3180   69.5400  224.6910 C   0  0  0  0  0  0  0  0  0  0  0  0
  139.8510   69.9000  225.9220 C   0  0  0  0  0  0  0  0  0  0  0  0
  139.7170   69.1130  227.0480 C   0  0  0  0  0  0  0  0  0  0  0  0
  140.2710   69.5260  228.2470 C   0  0  0  0  0  0  0  0  0  0  0  0
  140.9640   70.7350  228.3180 C   0  0  0  0  0  0  0  0  0  0  0  0
  141.1070   71.5350  227.2020 C   0  0  0  0  0  0  0  0  0  0  0  0
  140.5400   71.0900  226.0170 C   0  0  0  0  0  0  0  0  0  0  0  0
  140.6950   71.8910  224.9440 N   0  0  0  0  0  0  0  0  0  0  0  0
  138.4710   73.4120  222.8640 H   0  0  0  0  0  0  0  0  0  0  0  0
  139.9475   73.7534  220.3265 H   0  0  0  0  0  0  0  0  0  0  0  0
  138.4573   74.6167  220.8504 H   0  0  0  0  0  0  0  0  0  0  0  0
  142.5744   74.5273  220.8235 H   0  0  0  0  0  0  0  0  0  0  0  0
  141.7522   74.7128  219.2009 H   0  0  0  0  0  0  0  0  0  0  0  0
  144.0020   76.3669  220.3529 H   0  0  0  0  0  0  0  0  0  0  0  0
  144.0321   75.3425  218.9056 H   0  0  0  0  0  0  0  0  0  0  0  0
  143.6250   77.6481  218.1579 H   0  0  0  0  0  0  0  0  0  0  0  0
  142.0725   76.7715  217.9900 H   0  0  0  0  0  0  0  0  0  0  0  0
  142.9206   78.4715  220.3667 H   0  0  0  0  0  0  0  0  0  0  0  0
  141.7729   78.9578  219.0570 H   0  0  0  0  0  0  0  0  0  0  0  0
  140.2101   77.5375  219.6704 H   0  0  0  0  0  0  0  0  0  0  0  0
  142.6086   78.3610  222.4399 H   0  0  0  0  0  0  0  0  0  0  0  0
  141.9226   79.6255  224.4434 H   0  0  0  0  0  0  0  0  0  0  0  0
  139.5309   80.2328  224.7574 H   0  0  0  0  0  0  0  0  0  0  0  0
  137.8492   79.5722  223.0537 H   0  0  0  0  0  0  0  0  0  0  0  0
  139.0855   70.1220  222.6413 H   0  0  0  0  0  0  0  0  0  0  0  0
  138.7620   68.5987  224.5695 H   0  0  0  0  0  0  0  0  0  0  0  0
  139.1711   68.1597  226.9924 H   0  0  0  0  0  0  0  0  0  0  0  0
  140.1649   68.9002  229.1454 H   0  0  0  0  0  0  0  0  0  0  0  0
  141.4019   71.0547  229.2751 H   0  0  0  0  0  0  0  0  0  0  0  0
  141.6505   72.4901  227.2508 H   0  0  0  0  0  0  0  0  0  0  0  0
  1  2  2  0
  2  3  1  0
  3  4  1  0
  4  5  1  0
  5  6  2  0
  5  7  1  0
  7  8  1  0
  8  9  1  0
  9 10  1  0
 10 11  1  0
 11 12  1  0
 12 13  1  0
 13 14  2  0
 14 15  1  0
 15 16  2  0
 16 17  1  0
 17 18  2  0
 18 19  1  0
  2 20  1  0
 20 21  2  0
 21 22  1  0
 22 23  2  0
 23 24  1  0
 24 25  2  0
 25 26  1  0
 26 27  2  0
 27 28  1  0
 28 29  2  0
 12  7  1  0
 18 13  1  0
 29 20  1  0
 28 23  1  0
  3 30  1  0
  4 31  1  0
  4 32  1  0
  8 33  1  0
  8 34  1  0
  9 35  1  0
  9 36  1  0
 10 37  1  0
 10 38  1  0
 11 39  1  0
 11 40  1  0
 12 41  1  6
 14 42  1  0
 15 43  1  0
 16 44  1  0
 17 45  1  0
 21 46  1  0
 22 47  1  0
 24 48  1  0
 25 49  1  0
 26 50  1  0
 27 51  1  0
M  END
>  <smiles>  (1) 
O=C(NCC(=O)N1CCCCC1c1ccccc1Cl)c1ccc2ccccc2n1

>  <score_type>  (1) 
oracle

>  <origin>  (1) 
autodockgpu

>  <m_score__min__energy>  (1) 
-9.2200000000000006

>  <m_primary>  (1) 
energy

>  <rmsd>  (1) 
2.0872164821434787

>  <m_score__min__rmsd>  (1) 
2.0872164821434787

>  <meeko>  (1) 
{"free_energy": -9.19, "intermolecular_energy": -10.68, "internal_energy": -1.54, "cluster_size": 39, "cluster_id": 1, "rank_in_cluster": 2}

>  <energy>  (1) 
-9.22

>  <cluster_rmsd>  (1) 
0.0

>  <cluster>  (1) 
1

$$$$

     RDKit          3D

 51 54  0  0  0  0  0  0  0  0999 V2000
  140.6380   71.2160  221.2010 O   0  0  0  0  0  0  0  0  0  0  0  0
  140.3600   71.9160  222.1950 C   0  0  0  0  0  0  0  0  0  0  0  0
  140.1660   73.3240  222.1590 N   0  0  0  0  0  0  0  0  0  0  0  0
  140.2870   74.0240  220.9200 C   0  0  0  0  0  0  0  0  0  0  0  0
  140.9960   75.3230  221.1350 C   0  0  0  0  0  0  0  0  0  0  0  0
  141.1070   75.6890  222.3450 O   0  0  0  0  0  0  0  0  0  0  0  0
  141.5050   76.0890  220.0510 N   0  0  0  0  0  0  0  0  0  0  0  0
  140.5870   76.9550  219.3470 C   0  0  0  0  0  0  0  0  0  0  0  0
  141.0540   77.3420  217.9820 C   0  0  0  0  0  0  0  0  0  0  0  0
  142.5190   77.7650  218.1330 C   0  0  0  0  0  0  0  0  0  0  0  0
  143.3360   76.5580  218.4510 C   0  0  0  0  0  0  0  0  0  0  0  0
  142.9050   75.9430  219.7350 C   0  0  2  0  0  0  0  0  0  0  0  0
  143.3800   74.5460  219.9030 C   0  0  0  0  0  0  0  0  0  0  0  0
  144.3390   74.1930  220.8430 C   0  0  0  0  0  0  0  0  0  0  0  0
  144.7810   72.8940  221.0010 C   0  0  0  0  0  0  0  0  0  0  0  0
  144.2550   71.9010  220.1980 C   0  0  0  0  0  0  0  0  0  0  0  0
  143.2980   72.2100  219.2490 C   0  0  0  0  0  0  0  0  0  0  0  0
  142.8680   73.5190  219.1050 C   0  0  0  0  0  0  0  0  0  0  0  0
  141.6570   73.8350  217.8860 Cl  0  0  0  0  0  0  0  0  0  0  0  0
  140.2220   71.2450  223.4990 C   0  0  0  0  0  0  0  0  0  0  0  0
  139.6190   70.0110  223.6160 C   0  0  0  0  0  0  0  0  0  0  0  0
  139.4760   69.3550  224.8300 C   0  0  0  0  0  0  0  0  0  0  0  0
  139.9630   69.9760  225.9720 C   0  0  0  0  0  0  0  0  0  0  0  0
  139.8680   69.4050  227.2250 C   0  0  0  0  0  0  0  0  0  0  0  0
  140.3740   70.0740  228.3270 C   0  0  0  0  0  0  0  0  0  0  0  0
  140.9790   71.3220  228.1710 C   0  0  0  0  0  0  0  0  0  0  0  0
  141.0820   71.9070  226.9250 C   0  0  0  0  0  0  0  0  0  0  0  0
  140.5650   71.2090  225.8430 C   0  0  0  0  0  0  0  0  0  0  0  0
  140.6790   71.8050  224.6400 N   0  0  0  0  0  0  0  0  0  0  0  0
  139.9340   73.8430  223.0360 H   0  0  0  0  0  0  0  0  0  0  0  0
  140.8589   73.4099  220.2088 H   0  0  0  0  0  0  0  0  0  0  0  0
  139.2828   74.2225  220.5172 H   0  0  0  0  0  0  0  0  0  0  0  0
  139.6233   76.4337  219.2496 H   0  0  0  0  0  0  0  0  0  0  0  0
  140.5053   77.8819  219.9337 H   0  0  0  0  0  0  0  0  0  0  0  0
  140.9733   76.4867  217.2950 H   0  0  0  0  0  0  0  0  0  0  0  0
  140.4432   78.1570  217.5664 H   0  0  0  0  0  0  0  0  0  0  0  0
  142.8731   78.2144  217.1935 H   0  0  0  0  0  0  0  0  0  0  0  0
  142.6136   78.5048  218.9415 H   0  0  0  0  0  0  0  0  0  0  0  0
  143.2186   75.8214  217.6425 H   0  0  0  0  0  0  0  0  0  0  0  0
  144.3885   76.8634  218.5457 H   0  0  0  0  0  0  0  0  0  0  0  0
  143.4201   76.5512  220.4931 H   0  0  0  0  0  0  0  0  0  0  0  0
  144.7630   74.9779  221.4865 H   0  0  0  0  0  0  0  0  0  0  0  0
  145.5427   72.6533  221.7572 H   0  0  0  0  0  0  0  0  0  0  0  0
  144.5981   70.8623  220.3136 H   0  0  0  0  0  0  0  0  0  0  0  0
  142.8792   71.4185  218.6101 H   0  0  0  0  0  0  0  0  0  0  0  0
  139.2344   69.5252  222.7071 H   0  0  0  0  0  0  0  0  0  0  0  0
  138.9900   68.3698  224.8861 H   0  0  0  0  0  0  0  0  0  0  0  0
  139.3916   68.4212  227.3480 H   0  0  0  0  0  0  0  0  0  0  0  0
  140.2989   69.6211  229.3266 H   0  0  0  0  0  0  0  0  0  0  0  0
  141.3787   71.8459  229.0518 H   0  0  0  0  0  0  0  0  0  0  0  0
  141.5567   72.8907  226.7946 H   0  0  0  0  0  0  0  0  0  0  0  0
  1  2  2  0
  2  3  1  0
  3  4  1  0
  4  5  1  0
  5  6  2  0
  5  7  1  0
  7  8  1  0
  8  9  1  0
  9 10  1  0
 10 11  1  0
 11 12  1  0
 12 13  1  0
 13 14  2  0
 14 15  1  0
 15 16  2  0
 16 17  1  0
 17 18  2  0
 18 19  1  0
  2 20  1  0
 20 21  2  0
 21 22  1  0
 22 23  2  0
 23 24  1  0
 24 25  2  0
 25 26  1  0
 26 27  2  0
 27 28  1  0
 28 29  2  0
 12  7  1  0
 18 13  1  0
 29 20  1  0
 28 23  1  0
  3 30  1  0
  4 31  1  0
  4 32  1  0
  8 33  1  0
  8 34  1  0
  9 35  1  0
  9 36  1  0
 10 37  1  0
 10 38  1  0
 11 39  1  0
 11 40  1  0
 12 41  1  1
 14 42  1  0
 15 43  1  0
 16 44  1  0
 17 45  1  0
 21 46  1  0
 22 47  1  0
 24 48  1  0
 25 49  1  0
 26 50  1  0
 27 51  1  0
M  END
>  <smiles>  (2) 
O=C(NCC(=O)N1CCCCC1c1ccccc1Cl)c1ccc2ccccc2n1

>  <score_type>  (2) 
oracle

>  <origin>  (2) 
autodockgpu

>  <m_score__min__energy>  (2) 
-9.2200000000000006

>  <m_primary>  (2) 
energy

>  <rmsd>  (2) 
1.9759907036937352

>  <m_score__min__rmsd>  (2) 
1.9759907036937352

>  <meeko>  (2) 
{"free_energy": -8.07, "intermolecular_energy": -9.56, "internal_energy": -2.51, "cluster_size": 7, "cluster_id": 2, "rank_in_cluster": 6}

>  <energy>  (2) 
-9.19

>  <cluster_rmsd>  (2) 
0.27

>  <cluster>  (2) 
1

$$$$

     RDKit          3D

 51 54  0  0  0  0  0  0  0  0999 V2000
  140.5990   71.5340  221.2920 O   0  0  0  0  0  0  0  0  0  0  0  0
  140.2230   72.1450  222.3130 C   0  0  0  0  0  0  0  0  0  0  0  0
  139.8800   73.5240  222.3440 N   0  0  0  0  0  0  0  0  0  0  0  0
  139.9560   74.3000  221.1480 C   0  0  0  0  0  0  0  0  0  0  0  0
  140.6590   75.5920  221.4190 C   0  0  0  0  0  0  0  0  0  0  0  0
  140.5550   76.0280  222.6060 O   0  0  0  0  0  0  0  0  0  0  0  0
  141.3890   76.2760  220.4100 N   0  0  0  0  0  0  0  0  0  0  0  0
  142.3710   75.5270  219.6610 C   0  0  0  0  0  0  0  0  0  0  0  0
  143.3910   76.3820  218.9850 C   0  0  0  0  0  0  0  0  0  0  0  0
  142.6170   77.5060  218.2900 C   0  0  0  0  0  0  0  0  0  0  0  0
  142.0440   78.4080  219.3320 C   0  0  0  0  0  0  0  0  0  0  0  0
  141.0920   77.6740  220.2090 C   0  0  2  0  0  0  0  0  0  0  0  0
  140.8080   78.3810  221.4840 C   0  0  0  0  0  0  0  0  0  0  0  0
  141.8170   78.8230  222.3300 C   0  0  0  0  0  0  0  0  0  0  0  0
  141.5560   79.4830  223.5150 C   0  0  0  0  0  0  0  0  0  0  0  0
  140.2440   79.7140  223.8820 C   0  0  0  0  0  0  0  0  0  0  0  0
  139.2100   79.2890  223.0690 C   0  0  0  0  0  0  0  0  0  0  0  0
  139.4930   78.6300  221.8830 C   0  0  0  0  0  0  0  0  0  0  0  0
  138.1360   78.1220  220.9070 Cl  0  0  0  0  0  0  0  0  0  0  0  0
  140.1260   71.3930  223.5760 C   0  0  0  0  0  0  0  0  0  0  0  0
  139.5520   70.1410  223.6280 C   0  0  0  0  0  0  0  0  0  0  0  0
  139.4480   69.4090  224.8020 C   0  0  0  0  0  0  0  0  0  0  0  0
  139.9450   69.9690  225.9700 C   0  0  0  0  0  0  0  0  0  0  0  0
  139.8880   69.3210  227.1880 C   0  0  0  0  0  0  0  0  0  0  0  0
  140.4020   69.9330  228.3180 C   0  0  0  0  0  0  0  0  0  0  0  0
  140.9770   71.2020  228.2280 C   0  0  0  0  0  0  0  0  0  0  0  0
  141.0420   71.8640  227.0180 C   0  0  0  0  0  0  0  0  0  0  0  0
  140.5180   71.2220  225.9060 C   0  0  0  0  0  0  0  0  0  0  0  0
  140.5950   71.8920  224.7390 N   0  0  0  0  0  0  0  0  0  0  0  0
  139.5730   73.9680  223.2400 H   0  0  0  0  0  0  0  0  0  0  0  0
  140.5111   73.7369  220.3833 H   0  0  0  0  0  0  0  0  0  0  0  0
  138.9376   74.5117  220.7902 H   0  0  0  0  0  0  0  0  0  0  0  0
  142.8908   74.8475  220.3525 H   0  0  0  0  0  0  0  0  0  0  0  0
  141.8290   74.9877  218.8702 H   0  0  0  0  0  0  0  0  0  0  0  0
  144.0881   76.8010  219.7256 H   0  0  0  0  0  0  0  0  0  0  0  0
  143.9857   75.8012  218.2646 H   0  0  0  0  0  0  0  0  0  0  0  0
  143.2967   78.0764  217.6399 H   0  0  0  0  0  0  0  0  0  0  0  0
  141.8087   77.0808  217.6768 H   0  0  0  0  0  0  0  0  0  0  0  0
  142.8617   78.8116  219.9473 H   0  0  0  0  0  0  0  0  0  0  0  0
  141.5009   79.2222  218.8299 H   0  0  0  0  0  0  0  0  0  0  0  0
  140.1588   77.6731  219.6267 H   0  0  0  0  0  0  0  0  0  0  0  0
  142.8638   78.6405  222.0455 H   0  0  0  0  0  0  0  0  0  0  0  0
  142.3820   79.8204  224.1583 H   0  0  0  0  0  0  0  0  0  0  0  0
  140.0218   80.2375  224.8236 H   0  0  0  0  0  0  0  0  0  0  0  0
  138.1660   79.4732  223.3624 H   0  0  0  0  0  0  0  0  0  0  0  0
  139.1593   69.7032  222.6984 H   0  0  0  0  0  0  0  0  0  0  0  0
  138.9840   68.4116  224.8066 H   0  0  0  0  0  0  0  0  0  0  0  0
  139.4353   68.3211  227.2600 H   0  0  0  0  0  0  0  0  0  0  0  0
  140.3573   69.4184  229.2892 H   0  0  0  0  0  0  0  0  0  0  0  0
  141.3830   71.6801  229.1316 H   0  0  0  0  0  0  0  0  0  0  0  0
  141.4930   72.8642  226.9390 H   0  0  0  0  0  0  0  0  0  0  0  0
  1  2  2  0
  2  3  1  0
  3  4  1  0
  4  5  1  0
  5  6  2  0
  5  7  1  0
  7  8  1  0
  8  9  1  0
  9 10  1  0
 10 11  1  0
 11 12  1  0
 12 13  1  0
 13 14  2  0
 14 15  1  0
 15 16  2  0
 16 17  1  0
 17 18  2  0
 18 19  1  0
  2 20  1  0
 20 21  2  0
 21 22  1  0
 22 23  2  0
 23 24  1  0
 24 25  2  0
 25 26  1  0
 26 27  2  0
 27 28  1  0
 28 29  2  0
 12  7  1  0
 18 13  1  0
 29 20  1  0
 28 23  1  0
  3 30  1  0
  4 31  1  0
  4 32  1  0
  8 33  1  0
  8 34  1  0
  9 35  1  0
  9 36  1  0
 10 37  1  0
 10 38  1  0
 11 39  1  0
 11 40  1  0
 12 41  1  6
 14 42  1  0
 15 43  1  0
 16 44  1  0
 17 45  1  0
 21 46  1  0
 22 47  1  0
 24 48  1  0
 25 49  1  0
 26 50  1  0
 27 51  1  0
M  END
>  <smiles>  (3) 
O=C(NCC(=O)N1CCCCC1c1ccccc1Cl)c1ccc2ccccc2n1

>  <score_type>  (3) 
oracle

>  <origin>  (3) 
autodockgpu

>  <m_score__min__energy>  (3) 
-9.2200000000000006

>  <m_primary>  (3) 
energy

>  <rmsd>  (3) 
2.0661415849960756

>  <m_score__min__rmsd>  (3) 
2.0661415849960756

>  <meeko>  (3) 
{"free_energy": -9.16, "intermolecular_energy": -10.65, "internal_energy": -1.82, "cluster_size": 39, "cluster_id": 1, "rank_in_cluster": 5}

>  <energy>  (3) 
-9.17

>  <cluster_rmsd>  (3) 
0.33

>  <cluster>  (3) 
1

$$$$

     RDKit          3D

 51 54  0  0  0  0  0  0  0  0999 V2000
  140.4280   71.6620  221.2070 O   0  0  0  0  0  0  0  0  0  0  0  0
  140.1090   72.2600  222.2530 C   0  0  0  0  0  0  0  0  0  0  0  0
  139.8290   73.6520  222.3310 N   0  0  0  0  0  0  0  0  0  0  0  0
  139.9070   74.4570  221.1540 C   0  0  0  0  0  0  0  0  0  0  0  0
  140.7610   75.6570  221.4110 C   0  0  0  0  0  0  0  0  0  0  0  0
  140.8270   76.0290  222.6220 O   0  0  0  0  0  0  0  0  0  0  0  0
  141.4460   76.3300  220.3620 N   0  0  0  0  0  0  0  0  0  0  0  0
  142.3940   75.5720  219.5790 C   0  0  0  0  0  0  0  0  0  0  0  0
  143.3830   76.4190  218.8490 C   0  0  0  0  0  0  0  0  0  0  0  0
  142.5790   77.5360  218.1760 C   0  0  0  0  0  0  0  0  0  0  0  0
  142.0510   78.4490  219.2320 C   0  0  0  0  0  0  0  0  0  0  0  0
  141.1390   77.7260  220.1580 C   0  0  2  0  0  0  0  0  0  0  0  0
  140.9110   78.4470  221.4360 C   0  0  0  0  0  0  0  0  0  0  0  0
  141.9530   78.9660  222.1930 C   0  0  0  0  0  0  0  0  0  0  0  0
  141.7440   79.6390  223.3810 C   0  0  0  0  0  0  0  0  0  0  0  0
  140.4530   79.8060  223.8430 C   0  0  0  0  0  0  0  0  0  0  0  0
  139.3870   79.3040  223.1190 C   0  0  0  0  0  0  0  0  0  0  0  0
  139.6170   78.6320  221.9290 C   0  0  0  0  0  0  0  0  0  0  0  0
  138.2230   78.0260  221.0700 Cl  0  0  0  0  0  0  0  0  0  0  0  0
  140.0130   71.4780  223.4980 C   0  0  0  0  0  0  0  0  0  0  0  0
  139.3880   70.2500  223.5330 C   0  0  0  0  0  0  0  0  0  0  0  0
  139.2830   69.4910  224.6890 C   0  0  0  0  0  0  0  0  0  0  0  0
  139.8340   69.9980  225.8580 C   0  0  0  0  0  0  0  0  0  0  0  0
  139.7820   69.3200  227.0600 C   0  0  0  0  0  0  0  0  0  0  0  0
  140.3500   69.8790  228.1920 C   0  0  0  0  0  0  0  0  0  0  0  0
  140.9750   71.1240  228.1190 C   0  0  0  0  0  0  0  0  0  0  0  0
  141.0360   71.8160  226.9260 C   0  0  0  0  0  0  0  0  0  0  0  0
  140.4570   71.2270  225.8120 C   0  0  0  0  0  0  0  0  0  0  0  0
  140.5320   71.9260  224.6610 N   0  0  0  0  0  0  0  0  0  0  0  0
  139.5670   74.0830  223.2470 H   0  0  0  0  0  0  0  0  0  0  0  0
  140.3459   73.8658  220.3368 H   0  0  0  0  0  0  0  0  0  0  0  0
  138.8955   74.7868  220.8744 H   0  0  0  0  0  0  0  0  0  0  0  0
  142.9439   74.9002  220.2545 H   0  0  0  0  0  0  0  0  0  0  0  0
  141.8177   75.0237  218.8192 H   0  0  0  0  0  0  0  0  0  0  0  0
  144.1121   76.8459  219.5534 H   0  0  0  0  0  0  0  0  0  0  0  0
  143.9451   75.8298  218.1095 H   0  0  0  0  0  0  0  0  0  0  0  0
  143.2298   78.0995  217.4912 H   0  0  0  0  0  0  0  0  0  0  0  0
  141.7452   77.1044  217.6028 H   0  0  0  0  0  0  0  0  0  0  0  0
  142.8945   78.8597  219.8064 H   0  0  0  0  0  0  0  0  0  0  0  0
  141.4854   79.2567  218.7445 H   0  0  0  0  0  0  0  0  0  0  0  0
  140.1810   77.7192  219.6175 H   0  0  0  0  0  0  0  0  0  0  0  0
  142.9842   78.8362  221.8328 H   0  0  0  0  0  0  0  0  0  0  0  0
  142.5955   80.0372  223.9523 H   0  0  0  0  0  0  0  0  0  0  0  0
  140.2726   80.3390  224.7881 H   0  0  0  0  0  0  0  0  0  0  0  0
  138.3590   79.4378  223.4868 H   0  0  0  0  0  0  0  0  0  0  0  0
  138.9533   69.8546  222.6031 H   0  0  0  0  0  0  0  0  0  0  0  0
  138.7771   68.5143  224.6798 H   0  0  0  0  0  0  0  0  0  0  0  0
  139.2902   68.3377  227.1178 H   0  0  0  0  0  0  0  0  0  0  0  0
  140.3084   69.3407  229.1504 H   0  0  0  0  0  0  0  0  0  0  0  0
  141.4249   71.5598  229.0233 H   0  0  0  0  0  0  0  0  0  0  0  0
  141.5260   72.7987  226.8614 H   0  0  0  0  0  0  0  0  0  0  0  0
  1  2  2  0
  2  3  1  0
  3  4  1  0
  4  5  1  0
  5  6  2  0
  5  7  1  0
  7  8  1  0
  8  9  1  0
  9 10  1  0
 10 11  1  0
 11 12  1  0
 12 13  1  0
 13 14  2  0
 14 15  1  0
 15 16  2  0
 16 17  1  0
 17 18  2  0
 18 19  1  0
  2 20  1  0
 20 21  2  0
 21 22  1  0
 22 23  2  0
 23 24  1  0
 24 25  2  0
 25 26  1  0
 26 27  2  0
 27 28  1  0
 28 29  2  0
 12  7  1  0
 18 13  1  0
 29 20  1  0
 28 23  1  0
  3 30  1  0
  4 31  1  0
  4 32  1  0
  8 33  1  0
  8 34  1  0
  9 35  1  0
  9 36  1  0
 10 37  1  0
 10 38  1  0
 11 39  1  0
 11 40  1  0
 12 41  1  6
 14 42  1  0
 15 43  1  0
 16 44  1  0
 17 45  1  0
 21 46  1  0
 22 47  1  0
 24 48  1  0
 25 49  1  0
 26 50  1  0
 27 51  1  0
M  END
>  <smiles>  (4) 
O=C(NCC(=O)N1CCCCC1c1ccccc1Cl)c1ccc2ccccc2n1

>  <score_type>  (4) 
oracle

>  <origin>  (4) 
autodockgpu

>  <m_score__min__energy>  (4) 
-9.2200000000000006

>  <m_primary>  (4) 
energy

>  <rmsd>  (4) 
2.0515435229704653

>  <m_score__min__rmsd>  (4) 
2.0515435229704653

>  <meeko>  (4) 
{"free_energy": -9.07, "intermolecular_energy": -10.56, "internal_energy": -1.9, "cluster_size": 39, "cluster_id": 1, "rank_in_cluster": 24}

>  <energy>  (4) 
-9.16

>  <cluster_rmsd>  (4) 
0.33

>  <cluster>  (4) 
1

$$$$

     RDKit          3D

 51 54  0  0  0  0  0  0  0  0999 V2000
  140.3420   71.5120  221.1970 O   0  0  0  0  0  0  0  0  0  0  0  0
  140.0670   72.1060  222.2580 C   0  0  0  0  0  0  0  0  0  0  0  0
  139.7850   73.4960  222.3520 N   0  0  0  0  0  0  0  0  0  0  0  0
  139.8050   74.3040  221.1750 C   0  0  0  0  0  0  0  0  0  0  0  0
  140.3040   75.6750  221.5040 C   0  0  0  0  0  0  0  0  0  0  0  0
  140.1400   76.0390  222.7080 O   0  0  0  0  0  0  0  0  0  0  0  0
  140.9170   76.5050  220.5260 N   0  0  0  0  0  0  0  0  0  0  0  0
  142.1460   76.0440  219.9240 C   0  0  0  0  0  0  0  0  0  0  0  0
  142.9510   77.1330  219.2940 C   0  0  0  0  0  0  0  0  0  0  0  0
  141.9720   77.9630  218.4580 C   0  0  0  0  0  0  0  0  0  0  0  0
  141.0570   78.6970  219.3810 C   0  0  0  0  0  0  0  0  0  0  0  0
  140.2610   77.7510  220.2090 C   0  0  2  0  0  0  0  0  0  0  0  0
  139.6520   78.3890  221.4030 C   0  0  0  0  0  0  0  0  0  0  0  0
  138.2790   78.4160  221.6140 C   0  0  0  0  0  0  0  0  0  0  0  0
  137.7100   79.0080  222.7250 C   0  0  0  0  0  0  0  0  0  0  0  0
  138.5290   79.6000  223.6660 C   0  0  0  0  0  0  0  0  0  0  0  0
  139.9010   79.5960  223.4940 C   0  0  0  0  0  0  0  0  0  0  0  0
  140.4530   78.9970  222.3730 C   0  0  0  0  0  0  0  0  0  0  0  0
  142.1930   79.0320  222.2210 Cl  0  0  0  0  0  0  0  0  0  0  0  0
  140.0330   71.3210  223.5040 C   0  0  0  0  0  0  0  0  0  0  0  0
  139.5320   70.0370  223.5350 C   0  0  0  0  0  0  0  0  0  0  0  0
  139.4870   69.2740  224.6920 C   0  0  0  0  0  0  0  0  0  0  0  0
  139.9690   69.8350  225.8660 C   0  0  0  0  0  0  0  0  0  0  0  0
  139.9670   69.1570  227.0690 C   0  0  0  0  0  0  0  0  0  0  0  0
  140.4610   69.7710  228.2070 C   0  0  0  0  0  0  0  0  0  0  0  0
  140.9610   71.0720  228.1390 C   0  0  0  0  0  0  0  0  0  0  0  0
  140.9700   71.7650  226.9450 C   0  0  0  0  0  0  0  0  0  0  0  0
  140.4670   71.1190  225.8250 C   0  0  0  0  0  0  0  0  0  0  0  0
  140.4890   71.8190  224.6730 N   0  0  0  0  0  0  0  0  0  0  0  0
  139.5630   73.9240  223.2800 H   0  0  0  0  0  0  0  0  0  0  0  0
  140.4693   73.8440  220.4286 H   0  0  0  0  0  0  0  0  0  0  0  0
  138.7846   74.3785  220.7709 H   0  0  0  0  0  0  0  0  0  0  0  0
  142.7574   75.5670  220.7042 H   0  0  0  0  0  0  0  0  0  0  0  0
  141.8685   75.3441  219.1220 H   0  0  0  0  0  0  0  0  0  0  0  0
  143.4163   77.7597  220.0691 H   0  0  0  0  0  0  0  0  0  0  0  0
  143.7602   76.7231  218.6718 H   0  0  0  0  0  0  0  0  0  0  0  0
  142.5300   78.6823  217.8406 H   0  0  0  0  0  0  0  0  0  0  0  0
  141.3889   77.3029  217.7990 H   0  0  0  0  0  0  0  0  0  0  0  0
  141.6549   79.3395  220.0440 H   0  0  0  0  0  0  0  0  0  0  0  0
  140.3642   79.3026  218.7783 H   0  0  0  0  0  0  0  0  0  0  0  0
  139.4350   77.4625  219.5423 H   0  0  0  0  0  0  0  0  0  0  0  0
  137.6199   77.9481  220.8679 H   0  0  0  0  0  0  0  0  0  0  0  0
  136.6181   79.0078  222.8583 H   0  0  0  0  0  0  0  0  0  0  0  0
  138.0889   80.0760  224.5547 H   0  0  0  0  0  0  0  0  0  0  0  0
  140.5524   80.0670  224.2449 H   0  0  0  0  0  0  0  0  0  0  0  0
  139.1512   69.5985  222.6008 H   0  0  0  0  0  0  0  0  0  0  0  0
  139.0803   68.2520  224.6795 H   0  0  0  0  0  0  0  0  0  0  0  0
  139.5737   68.1311  227.1228 H   0  0  0  0  0  0  0  0  0  0  0  0
  140.4594   69.2326  229.1662 H   0  0  0  0  0  0  0  0  0  0  0  0
  141.3529   71.5514  229.0482 H   0  0  0  0  0  0  0  0  0  0  0  0
  141.3614   72.7912  226.8840 H   0  0  0  0  0  0  0  0  0  0  0  0
  1  2  2  0
  2  3  1  0
  3  4  1  0
  4  5  1  0
  5  6  2  0
  5  7  1  0
  7  8  1  0
  8  9  1  0
  9 10  1  0
 10 11  1  0
 11 12  1  0
 12 13  1  0
 13 14  2  0
 14 15  1  0
 15 16  2  0
 16 17  1  0
 17 18  2  0
 18 19  1  0
  2 20  1  0
 20 21  2  0
 21 22  1  0
 22 23  2  0
 23 24  1  0
 24 25  2  0
 25 26  1  0
 26 27  2  0
 27 28  1  0
 28 29  2  0
 12  7  1  0
 18 13  1  0
 29 20  1  0
 28 23  1  0
  3 30  1  0
  4 31  1  0
  4 32  1  0
  8 33  1  0
  8 34  1  0
  9 35  1  0
  9 36  1  0
 10 37  1  0
 10 38  1  0
 11 39  1  0
 11 40  1  0
 12 41  1  6
 14 42  1  0
 15 43  1  0
 16 44  1  0
 17 45  1  0
 21 46  1  0
 22 47  1  0
 24 48  1  0
 25 49  1  0
 26 50  1  0
 27 51  1  0
M  END
>  <smiles>  (5) 
O=C(NCC(=O)N1CCCCC1c1ccccc1Cl)c1ccc2ccccc2n1

>  <score_type>  (5) 
oracle

>  <origin>  (5) 
autodockgpu

>  <m_score__min__energy>  (5) 
-9.2200000000000006

>  <m_primary>  (5) 
energy

>  <rmsd>  (5) 
2.044548184247361

>  <m_score__min__rmsd>  (5) 
2.044548184247361

>  <meeko>  (5) 
{"free_energy": -8.55, "intermolecular_energy": -10.04, "internal_energy": -1.96, "cluster_size": 39, "cluster_id": 1, "rank_in_cluster": 37}

>  <energy>  (5) 
-9.16

>  <cluster_rmsd>  (5) 
0.33

>  <cluster>  (5) 
1

$$$$

     RDKit          3D

 51 54  0  0  0  0  0  0  0  0999 V2000
  140.5440   71.5620  221.2620 O   0  0  0  0  0  0  0  0  0  0  0  0
  140.1900   72.1630  222.2950 C   0  0  0  0  0  0  0  0  0  0  0  0
  139.8520   73.5430  222.3480 N   0  0  0  0  0  0  0  0  0  0  0  0
  139.9080   74.3320  221.1600 C   0  0  0  0  0  0  0  0  0  0  0  0
  140.6250   75.6160  221.4310 C   0  0  0  0  0  0  0  0  0  0  0  0
  140.5310   76.0500  222.6200 O   0  0  0  0  0  0  0  0  0  0  0  0
  141.3570   76.2960  220.4200 N   0  0  0  0  0  0  0  0  0  0  0  0
  142.3310   75.5400  219.6670 C   0  0  0  0  0  0  0  0  0  0  0  0
  143.3550   76.3890  218.9890 C   0  0  0  0  0  0  0  0  0  0  0  0
  142.5870   77.5190  218.2970 C   0  0  0  0  0  0  0  0  0  0  0  0
  142.0230   78.4240  219.3410 C   0  0  0  0  0  0  0  0  0  0  0  0
  141.0680   77.6960  220.2200 C   0  0  2  0  0  0  0  0  0  0  0  0
  140.7930   78.4040  221.4960 C   0  0  0  0  0  0  0  0  0  0  0  0
  141.8070   78.8360  222.3410 C   0  0  0  0  0  0  0  0  0  0  0  0
  141.5550   79.4960  223.5280 C   0  0  0  0  0  0  0  0  0  0  0  0
  140.2460   79.7400  223.8980 C   0  0  0  0  0  0  0  0  0  0  0  0
  139.2060   79.3260  223.0850 C   0  0  0  0  0  0  0  0  0  0  0  0
  139.4810   78.6650  221.8980 C   0  0  0  0  0  0  0  0  0  0  0  0
  138.1180   78.1710  220.9240 Cl  0  0  0  0  0  0  0  0  0  0  0  0
  140.1140   71.3970  223.5520 C   0  0  0  0  0  0  0  0  0  0  0  0
  139.5640   70.1340  223.5950 C   0  0  0  0  0  0  0  0  0  0  0  0
  139.4790   69.3890  224.7620 C   0  0  0  0  0  0  0  0  0  0  0  0
  139.9730   69.9480  225.9330 C   0  0  0  0  0  0  0  0  0  0  0  0
  139.9350   69.2870  227.1450 C   0  0  0  0  0  0  0  0  0  0  0  0
  140.4430   69.8980  228.2780 C   0  0  0  0  0  0  0  0  0  0  0  0
  140.9940   71.1770  228.1970 C   0  0  0  0  0  0  0  0  0  0  0  0
  141.0400   71.8520  226.9940 C   0  0  0  0  0  0  0  0  0  0  0  0
  140.5220   71.2110  225.8780 C   0  0  0  0  0  0  0  0  0  0  0  0
  140.5800   71.8940  224.7180 N   0  0  0  0  0  0  0  0  0  0  0  0
  139.5630   73.9770  223.2550 H   0  0  0  0  0  0  0  0  0  0  0  0
  140.4432   73.7743  220.3774 H   0  0  0  0  0  0  0  0  0  0  0  0
  138.8838   74.5544  220.8261 H   0  0  0  0  0  0  0  0  0  0  0  0
  142.8479   74.8558  220.3560 H   0  0  0  0  0  0  0  0  0  0  0  0
  141.7827   75.0050  218.8776 H   0  0  0  0  0  0  0  0  0  0  0  0
  144.0568   76.8025  219.7282 H   0  0  0  0  0  0  0  0  0  0  0  0
  143.9437   75.8048  218.2664 H   0  0  0  0  0  0  0  0  0  0  0  0
  143.2690   78.0852  217.6456 H   0  0  0  0  0  0  0  0  0  0  0  0
  141.7742   77.0999  217.6856 H   0  0  0  0  0  0  0  0  0  0  0  0
  142.8450   78.8214  219.9545 H   0  0  0  0  0  0  0  0  0  0  0  0
  141.4843   79.2423  218.8409 H   0  0  0  0  0  0  0  0  0  0  0  0
  140.1331   77.7016  219.6404 H   0  0  0  0  0  0  0  0  0  0  0  0
  142.8516   78.6451  222.0538 H   0  0  0  0  0  0  0  0  0  0  0  0
  142.3857   79.8232  224.1706 H   0  0  0  0  0  0  0  0  0  0  0  0
  140.0306   80.2644  224.8407 H   0  0  0  0  0  0  0  0  0  0  0  0
  138.1642   79.5207  223.3796 H   0  0  0  0  0  0  0  0  0  0  0  0
  139.1754   69.6976  222.6630 H   0  0  0  0  0  0  0  0  0  0  0  0
  139.0328   68.3836  224.7598 H   0  0  0  0  0  0  0  0  0  0  0  0
  139.5022   68.2778  227.2096 H   0  0  0  0  0  0  0  0  0  0  0  0
  140.4122   69.3740  229.2447 H   0  0  0  0  0  0  0  0  0  0  0  0
  141.3968   71.6534  229.1030 H   0  0  0  0  0  0  0  0  0  0  0  0
  141.4716   72.8613  226.9227 H   0  0  0  0  0  0  0  0  0  0  0  0
  1  2  2  0
  2  3  1  0
  3  4  1  0
  4  5  1  0
  5  6  2  0
  5  7  1  0
  7  8  1  0
  8  9  1  0
  9 10  1  0
 10 11  1  0
 11 12  1  0
 12 13  1  0
 13 14  2  0
 14 15  1  0
 15 16  2  0
 16 17  1  0
 17 18  2  0
 18 19  1  0
  2 20  1  0
 20 21  2  0
 21 22  1  0
 22 23  2  0
 23 24  1  0
 24 25  2  0
 25 26  1  0
 26 27  2  0
 27 28  1  0
 28 29  2  0
 12  7  1  0
 18 13  1  0
 29 20  1  0
 28 23  1  0
  3 30  1  0
  4 31  1  0
  4 32  1  0
  8 33  1  0
  8 34  1  0
  9 35  1  0
  9 36  1  0
 10 37  1  0
 10 38  1  0
 11 39  1  0
 11 40  1  0
 12 41  1  6
 14 42  1  0
 15 43  1  0
 16 44  1  0
 17 45  1  0
 21 46  1  0
 22 47  1  0
 24 48  1  0
 25 49  1  0
 26 50  1  0
 27 51  1  0
M  END
>  <smiles>  (6) 
O=C(NCC(=O)N1CCCCC1c1ccccc1Cl)c1ccc2ccccc2n1

>  <score_type>  (6) 
oracle

>  <origin>  (6) 
autodockgpu

>  <m_score__min__energy>  (6) 
-9.2200000000000006

>  <m_primary>  (6) 
energy

>  <rmsd>  (6) 
2.0492162743885904

>  <m_score__min__rmsd>  (6) 
2.0492162743885904

>  <meeko>  (6) 
{"free_energy": -9.13, "intermolecular_energy": -10.62, "internal_energy": -1.83, "cluster_size": 39, "cluster_id": 1, "rank_in_cluster": 11}

>  <energy>  (6) 
-9.15

>  <cluster_rmsd>  (6) 
0.33

>  <cluster>  (6) 
1

$$$$

     RDKit          3D

 51 54  0  0  0  0  0  0  0  0999 V2000
  140.6430   71.4980  221.2940 O   0  0  0  0  0  0  0  0  0  0  0  0
  140.2460   72.1200  222.3010 C   0  0  0  0  0  0  0  0  0  0  0  0
  139.9090   73.5010  222.3120 N   0  0  0  0  0  0  0  0  0  0  0  0
  140.0160   74.2660  221.1110 C   0  0  0  0  0  0  0  0  0  0  0  0
  140.7420   75.5450  221.3830 C   0  0  0  0  0  0  0  0  0  0  0  0
  140.7040   75.9460  222.5860 O   0  0  0  0  0  0  0  0  0  0  0  0
  141.4230   76.2550  220.3570 N   0  0  0  0  0  0  0  0  0  0  0  0
  142.4050   75.5390  219.5780 C   0  0  0  0  0  0  0  0  0  0  0  0
  143.3800   76.4270  218.8770 C   0  0  0  0  0  0  0  0  0  0  0  0
  142.5530   77.5300  218.2090 C   0  0  0  0  0  0  0  0  0  0  0  0
  141.9810   78.4100  219.2710 C   0  0  0  0  0  0  0  0  0  0  0  0
  141.0770   77.6440  220.1700 C   0  0  2  0  0  0  0  0  0  0  0  0
  140.8080   78.3370  221.4560 C   0  0  0  0  0  0  0  0  0  0  0  0
  141.8250   78.8230  222.2670 C   0  0  0  0  0  0  0  0  0  0  0  0
  141.5770   79.4700  223.4620 C   0  0  0  0  0  0  0  0  0  0  0  0
  140.2710   79.6430  223.8750 C   0  0  0  0  0  0  0  0  0  0  0  0
  139.2280   79.1730  223.0980 C   0  0  0  0  0  0  0  0  0  0  0  0
  139.4970   78.5280  221.9020 C   0  0  0  0  0  0  0  0  0  0  0  0
  138.1310   77.9610  220.9730 Cl  0  0  0  0  0  0  0  0  0  0  0  0
  140.1170   71.3790  223.5670 C   0  0  0  0  0  0  0  0  0  0  0  0
  139.5030   70.1460  223.6220 C   0  0  0  0  0  0  0  0  0  0  0  0
  139.3660   69.4250  224.8000 C   0  0  0  0  0  0  0  0  0  0  0  0
  139.8730   69.9760  225.9680 C   0  0  0  0  0  0  0  0  0  0  0  0
  139.7870   69.3380  227.1900 C   0  0  0  0  0  0  0  0  0  0  0  0
  140.3120   69.9400  228.3200 C   0  0  0  0  0  0  0  0  0  0  0  0
  140.9270   71.1890  228.2260 C   0  0  0  0  0  0  0  0  0  0  0  0
  141.0220   71.8410  227.0140 C   0  0  0  0  0  0  0  0  0  0  0  0
  140.4860   71.2100  225.9010 C   0  0  0  0  0  0  0  0  0  0  0  0
  140.5920   71.8700  224.7310 N   0  0  0  0  0  0  0  0  0  0  0  0
  139.5830   73.9530  223.1970 H   0  0  0  0  0  0  0  0  0  0  0  0
  140.5693   73.6861  220.3576 H   0  0  0  0  0  0  0  0  0  0  0  0
  139.0071   74.4955  220.7376 H   0  0  0  0  0  0  0  0  0  0  0  0
  142.9642   74.8731  220.2517 H   0  0  0  0  0  0  0  0  0  0  0  0
  141.8573   74.9864  218.8004 H   0  0  0  0  0  0  0  0  0  0  0  0
  144.0850   76.8640  219.5995 H   0  0  0  0  0  0  0  0  0  0  0  0
  143.9712   75.8669  218.1376 H   0  0  0  0  0  0  0  0  0  0  0  0
  143.1969   78.1237  217.5436 H   0  0  0  0  0  0  0  0  0  0  0  0
  141.7416   77.0827  217.6160 H   0  0  0  0  0  0  0  0  0  0  0  0
  142.8024   78.8364  219.8655 H   0  0  0  0  0  0  0  0  0  0  0  0
  141.3993   79.2088  218.7877 H   0  0  0  0  0  0  0  0  0  0  0  0
  140.1285   77.6164  219.6136 H   0  0  0  0  0  0  0  0  0  0  0  0
  142.8682   78.6876  221.9455 H   0  0  0  0  0  0  0  0  0  0  0  0
  142.4095   79.8427  224.0768 H   0  0  0  0  0  0  0  0  0  0  0  0
  140.0595   80.1561  224.8247 H   0  0  0  0  0  0  0  0  0  0  0  0
  138.1880   79.3109  223.4287 H   0  0  0  0  0  0  0  0  0  0  0  0
  139.1043   69.7148  222.6919 H   0  0  0  0  0  0  0  0  0  0  0  0
  138.8691   68.4437  224.8074 H   0  0  0  0  0  0  0  0  0  0  0  0
  139.3022   68.3534  227.2648 H   0  0  0  0  0  0  0  0  0  0  0  0
  140.2444   69.4331  229.2939 H   0  0  0  0  0  0  0  0  0  0  0  0
  141.3413   71.6597  229.1298 H   0  0  0  0  0  0  0  0  0  0  0  0
  141.5054   72.8258  226.9331 H   0  0  0  0  0  0  0  0  0  0  0  0
  1  2  2  0
  2  3  1  0
  3  4  1  0
  4  5  1  0
  5  6  2  0
  5  7  1  0
  7  8  1  0
  8  9  1  0
  9 10  1  0
 10 11  1  0
 11 12  1  0
 12 13  1  0
 13 14  2  0
 14 15  1  0
 15 16  2  0
 16 17  1  0
 17 18  2  0
 18 19  1  0
  2 20  1  0
 20 21  2  0
 21 22  1  0
 22 23  2  0
 23 24  1  0
 24 25  2  0
 25 26  1  0
 26 27  2  0
 27 28  1  0
 28 29  2  0
 12  7  1  0
 18 13  1  0
 29 20  1  0
 28 23  1  0
  3 30  1  0
  4 31  1  0
  4 32  1  0
  8 33  1  0
  8 34  1  0
  9 35  1  0
  9 36  1  0
 10 37  1  0
 10 38  1  0
 11 39  1  0
 11 40  1  0
 12 41  1  6
 14 42  1  0
 15 43  1  0
 16 44  1  0
 17 45  1  0
 21 46  1  0
 22 47  1  0
 24 48  1  0
 25 49  1  0
 26 50  1  0
 27 51  1  0
M  END
>  <smiles>  (7) 
O=C(NCC(=O)N1CCCCC1c1ccccc1Cl)c1ccc2ccccc2n1

>  <score_type>  (7) 
oracle

>  <origin>  (7) 
autodockgpu

>  <m_score__min__energy>  (7) 
-9.2200000000000006

>  <m_primary>  (7) 
energy

>  <rmsd>  (7) 
2.0569158676967616

>  <m_score__min__rmsd>  (7) 
2.0569158676967616

>  <meeko>  (7) 
{"free_energy": -9.11, "intermolecular_energy": -10.6, "internal_energy": -1.86, "cluster_size": 39, "cluster_id": 1, "rank_in_cluster": 17}

>  <energy>  (7) 
-9.15

>  <cluster_rmsd>  (7) 
0.33

>  <cluster>  (7) 
1

$$$$

     RDKit          3D

 51 54  0  0  0  0  0  0  0  0999 V2000
  141.1920   72.2300  221.3630 O   0  0  0  0  0  0  0  0  0  0  0  0
  140.3760   72.6240  222.2210 C   0  0  0  0  0  0  0  0  0  0  0  0
  139.6210   73.8240  222.1220 N   0  0  0  0  0  0  0  0  0  0  0  0
  139.7750   74.6660  220.9790 C   0  0  0  0  0  0  0  0  0  0  0  0
  140.9460   75.5760  221.1680 C   0  0  0  0  0  0  0  0  0  0  0  0
  141.4200   75.6150  222.3440 O   0  0  0  0  0  0  0  0  0  0  0  0
  141.4830   76.3410  220.0970 N   0  0  0  0  0  0  0  0  0  0  0  0
  142.3360   75.6660  219.1460 C   0  0  0  0  0  0  0  0  0  0  0  0
  143.2120   76.5880  218.3650 C   0  0  0  0  0  0  0  0  0  0  0  0
  142.3140   77.7320  217.8850 C   0  0  0  0  0  0  0  0  0  0  0  0
  141.9110   78.5520  219.0660 C   0  0  0  0  0  0  0  0  0  0  0  0
  141.1330   77.7400  220.0400 C   0  0  2  0  0  0  0  0  0  0  0  0
  141.0590   78.3580  221.3880 C   0  0  0  0  0  0  0  0  0  0  0  0
  142.1760   78.8720  222.0340 C   0  0  0  0  0  0  0  0  0  0  0  0
  142.1090   79.4500  223.2870 C   0  0  0  0  0  0  0  0  0  0  0  0
  140.8890   79.5230  223.9310 C   0  0  0  0  0  0  0  0  0  0  0  0
  139.7520   79.0220  223.3230 C   0  0  0  0  0  0  0  0  0  0  0  0
  139.8400   78.4470  222.0650 C   0  0  0  0  0  0  0  0  0  0  0  0
  138.3630   77.8360  221.3600 Cl  0  0  0  0  0  0  0  0  0  0  0  0
  140.1780   71.7940  223.4220 C   0  0  0  0  0  0  0  0  0  0  0  0
  139.4400   70.6300  223.3810 C   0  0  0  0  0  0  0  0  0  0  0  0
  139.2360   69.8280  224.4940 C   0  0  0  0  0  0  0  0  0  0  0  0
  139.8030   70.2220  225.6980 C   0  0  0  0  0  0  0  0  0  0  0  0
  139.6580   69.4930  226.8620 C   0  0  0  0  0  0  0  0  0  0  0  0
  140.2480   69.9390  228.0320 C   0  0  0  0  0  0  0  0  0  0  0  0
  140.9880   71.1220  228.0360 C   0  0  0  0  0  0  0  0  0  0  0  0
  141.1440   71.8630  226.8820 C   0  0  0  0  0  0  0  0  0  0  0  0
  140.5390   71.3880  225.7280 C   0  0  0  0  0  0  0  0  0  0  0  0
  140.7070   72.1320  224.6170 N   0  0  0  0  0  0  0  0  0  0  0  0
  138.9550   74.0880  222.8840 H   0  0  0  0  0  0  0  0  0  0  0  0
  139.9380   74.0432  220.0871 H   0  0  0  0  0  0  0  0  0  0  0  0
  138.8650   75.2706  220.8508 H   0  0  0  0  0  0  0  0  0  0  0  0
  142.9767   74.9598  219.6945 H   0  0  0  0  0  0  0  0  0  0  0  0
  141.6765   75.1615  218.4245 H   0  0  0  0  0  0  0  0  0  0  0  0
  144.0182   76.9789  219.0032 H   0  0  0  0  0  0  0  0  0  0  0  0
  143.6841   76.0686  217.5181 H   0  0  0  0  0  0  0  0  0  0  0  0
  142.8650   78.3597  217.1692 H   0  0  0  0  0  0  0  0  0  0  0  0
  141.4206   77.3245  217.3892 H   0  0  0  0  0  0  0  0  0  0  0  0
  142.8144   78.9383  219.5606 H   0  0  0  0  0  0  0  0  0  0  0  0
  141.2778   79.3809  218.7168 H   0  0  0  0  0  0  0  0  0  0  0  0
  140.1149   77.7504  219.6236 H   0  0  0  0  0  0  0  0  0  0  0  0
  143.1514   78.8167  221.5285 H   0  0  0  0  0  0  0  0  0  0  0  0
  143.0160   79.8472  223.7661 H   0  0  0  0  0  0  0  0  0  0  0  0
  140.8216   79.9804  224.9291 H   0  0  0  0  0  0  0  0  0  0  0  0
  138.7809   79.0798  223.8364 H   0  0  0  0  0  0  0  0  0  0  0  0
  138.9934   70.3240  222.4234 H   0  0  0  0  0  0  0  0  0  0  0  0
  138.6413   68.9052  224.4244 H   0  0  0  0  0  0  0  0  0  0  0  0
  139.0751   68.5602  226.8593 H   0  0  0  0  0  0  0  0  0  0  0  0
  140.1333   69.3599  228.9602 H   0  0  0  0  0  0  0  0  0  0  0  0
  141.4530   71.4685  228.9708 H   0  0  0  0  0  0  0  0  0  0  0  0
  141.7267   72.7960  226.8778 H   0  0  0  0  0  0  0  0  0  0  0  0
  1  2  2  0
  2  3  1  0
  3  4  1  0
  4  5  1  0
  5  6  2  0
  5  7  1  0
  7  8  1  0
  8  9  1  0
  9 10  1  0
 10 11  1  0
 11 12  1  0
 12 13  1  0
 13 14  2  0
 14 15  1  0
 15 16  2  0
 16 17  1  0
 17 18  2  0
 18 19  1  0
  2 20  1  0
 20 21  2  0
 21 22  1  0
 22 23  2  0
 23 24  1  0
 24 25  2  0
 25 26  1  0
 26 27  2  0
 27 28  1  0
 28 29  2  0
 12  7  1  0
 18 13  1  0
 29 20  1  0
 28 23  1  0
  3 30  1  0
  4 31  1  0
  4 32  1  0
  8 33  1  0
  8 34  1  0
  9 35  1  0
  9 36  1  0
 10 37  1  0
 10 38  1  0
 11 39  1  0
 11 40  1  0
 12 41  1  6
 14 42  1  0
 15 43  1  0
 16 44  1  0
 17 45  1  0
 21 46  1  0
 22 47  1  0
 24 48  1  0
 25 49  1  0
 26 50  1  0
 27 51  1  0
M  END
>  <smiles>  (8) 
O=C(NCC(=O)N1CCCCC1c1ccccc1Cl)c1ccc2ccccc2n1

>  <score_type>  (8) 
oracle

>  <origin>  (8) 
autodockgpu

>  <m_score__min__energy>  (8) 
-9.2200000000000006

>  <m_primary>  (8) 
energy

>  <rmsd>  (8) 
2.064410148925969

>  <m_score__min__rmsd>  (8) 
2.064410148925969

>  <meeko>  (8) 
{"free_energy": -8.96, "intermolecular_energy": -10.45, "internal_energy": -1.72, "cluster_size": 39, "cluster_id": 1, "rank_in_cluster": 31}

>  <energy>  (8) 
-9.15

>  <cluster_rmsd>  (8) 
0.34

>  <cluster>  (8) 
1

$$$$

     RDKit          3D

 51 54  0  0  0  0  0  0  0  0999 V2000
  139.5680   74.6050  221.9400 O   0  0  0  0  0  0  0  0  0  0  0  0
  140.7160   75.0370  221.7120 C   0  0  0  0  0  0  0  0  0  0  0  0
  141.1150   76.3900  221.8840 N   0  0  0  0  0  0  0  0  0  0  0  0
  140.1700   77.3550  222.3480 C   0  0  0  0  0  0  0  0  0  0  0  0
  139.6560   78.1620  221.1990 C   0  0  0  0  0  0  0  0  0  0  0  0
  138.4400   78.5130  221.2820 O   0  0  0  0  0  0  0  0  0  0  0  0
  140.4810   78.5050  220.0930 N   0  0  0  0  0  0  0  0  0  0  0  0
  140.6030   77.5470  219.0190 C   0  0  0  0  0  0  0  0  0  0  0  0
  141.8090   77.7570  218.1630 C   0  0  0  0  0  0  0  0  0  0  0  0
  141.8530   79.2530  217.8410 C   0  0  0  0  0  0  0  0  0  0  0  0
  142.1800   80.0020  219.0900 C   0  0  0  0  0  0  0  0  0  0  0  0
  141.1360   79.7910  220.1290 C   0  0  2  0  0  0  0  0  0  0  0  0
  141.5890   80.1570  221.4950 C   0  0  0  0  0  0  0  0  0  0  0  0
  142.5430   79.4200  222.1850 C   0  0  0  0  0  0  0  0  0  0  0  0
  142.9670   79.7590  223.4550 C   0  0  0  0  0  0  0  0  0  0  0  0
  142.4280   80.8720  224.0710 C   0  0  0  0  0  0  0  0  0  0  0  0
  141.4750   81.6330  223.4180 C   0  0  0  0  0  0  0  0  0  0  0  0
  141.0630   81.2760  222.1440 C   0  0  0  0  0  0  0  0  0  0  0  0
  139.8560   82.2830  221.3830 Cl  0  0  0  0  0  0  0  0  0  0  0  0
  141.7330   74.0850  221.2310 C   0  0  0  0  0  0  0  0  0  0  0  0
  141.4160   72.7740  220.9450 C   0  0  0  0  0  0  0  0  0  0  0  0
  142.3510   71.8560  220.4900 C   0  0  0  0  0  0  0  0  0  0  0  0
  143.6600   72.2840  220.3190 C   0  0  0  0  0  0  0  0  0  0  0  0
  144.6630   71.4470  219.8720 C   0  0  0  0  0  0  0  0  0  0  0  0
  145.9510   71.9330  219.7220 C   0  0  0  0  0  0  0  0  0  0  0  0
  146.2340   73.2670  220.0210 C   0  0  0  0  0  0  0  0  0  0  0  0
  145.2440   74.1170  220.4690 C   0  0  0  0  0  0  0  0  0  0  0  0
  143.9660   73.5970  220.6080 C   0  0  0  0  0  0  0  0  0  0  0  0
  143.0200   74.4500  221.0470 N   0  0  0  0  0  0  0  0  0  0  0  0
  142.0980   76.6780  221.6720 H   0  0  0  0  0  0  0  0  0  0  0  0
  139.3299   76.8374  222.8342 H   0  0  0  0  0  0  0  0  0  0  0  0
  140.6626   78.0252  223.0678 H   0  0  0  0  0  0  0  0  0  0  0  0
  140.6587   76.5394  219.4567 H   0  0  0  0  0  0  0  0  0  0  0  0
  139.7226   77.6746  218.3720 H   0  0  0  0  0  0  0  0  0  0  0  0
  142.7178   77.4574  218.7055 H   0  0  0  0  0  0  0  0  0  0  0  0
  141.7580   77.1522  217.2456 H   0  0  0  0  0  0  0  0  0  0  0  0
  142.6247   79.4455  217.0812 H   0  0  0  0  0  0  0  0  0  0  0  0
  140.8781   79.5813  217.4515 H   0  0  0  0  0  0  0  0  0  0  0  0
  143.1481   79.6508  219.4767 H   0  0  0  0  0  0  0  0  0  0  0  0
  142.2253   81.0751  218.8526 H   0  0  0  0  0  0  0  0  0  0  0  0
  140.3487   80.5064  219.8490 H   0  0  0  0  0  0  0  0  0  0  0  0
  142.9774   78.5325  221.7015 H   0  0  0  0  0  0  0  0  0  0  0  0
  143.7248   79.1501  223.9699 H   0  0  0  0  0  0  0  0  0  0  0  0
  142.7571   81.1535  225.0822 H   0  0  0  0  0  0  0  0  0  0  0  0
  141.0455   82.5189  223.9086 H   0  0  0  0  0  0  0  0  0  0  0  0
  140.3766   72.4417  221.0837 H   0  0  0  0  0  0  0  0  0  0  0  0
  142.0628   70.8173  220.2707 H   0  0  0  0  0  0  0  0  0  0  0  0
  144.4394   70.3962  219.6355 H   0  0  0  0  0  0  0  0  0  0  0  0
  146.7517   71.2675  219.3670 H   0  0  0  0  0  0  0  0  0  0  0  0
  147.2595   73.6452  219.8978 H   0  0  0  0  0  0  0  0  0  0  0  0
  145.4605   75.1688  220.7072 H   0  0  0  0  0  0  0  0  0  0  0  0
  1  2  2  0
  2  3  1  0
  3  4  1  0
  4  5  1  0
  5  6  2  0
  5  7  1  0
  7  8  1  0
  8  9  1  0
  9 10  1  0
 10 11  1  0
 11 12  1  0
 12 13  1  0
 13 14  2  0
 14 15  1  0
 15 16  2  0
 16 17  1  0
 17 18  2  0
 18 19  1  0
  2 20  1  0
 20 21  2  0
 21 22  1  0
 22 23  2  0
 23 24  1  0
 24 25  2  0
 25 26  1  0
 26 27  2  0
 27 28  1  0
 28 29  2  0
 12  7  1  0
 18 13  1  0
 29 20  1  0
 28 23  1  0
  3 30  1  0
  4 31  1  0
  4 32  1  0
  8 33  1  0
  8 34  1  0
  9 35  1  0
  9 36  1  0
 10 37  1  0
 10 38  1  0
 11 39  1  0
 11 40  1  0
 12 41  1  6
 14 42  1  0
 15 43  1  0
 16 44  1  0
 17 45  1  0
 21 46  1  0
 22 47  1  0
 24 48  1  0
 25 49  1  0
 26 50  1  0
 27 51  1  0
M  END
>  <smiles>  (9) 
O=C(NCC(=O)N1CCCCC1c1ccccc1Cl)c1ccc2ccccc2n1

>  <score_type>  (9) 
oracle

>  <origin>  (9) 
autodockgpu

>  <m_score__min__energy>  (9) 
-9.2200000000000006

>  <m_primary>  (9) 
energy

>  <rmsd>  (9) 
5.709611031592192

>  <m_score__min__rmsd>  (9) 
5.709611031592192

>  <meeko>  (9) 
{"free_energy": -7.67, "intermolecular_energy": -9.17, "internal_energy": -2.26, "cluster_size": 1, "cluster_id": 4, "rank_in_cluster": 1}

>  <energy>  (9) 
-9.14

>  <cluster_rmsd>  (9) 
0.32

>  <cluster>  (9) 
1

$$$$

     RDKit          3D

 51 54  0  0  0  0  0  0  0  0999 V2000
  140.3780   71.6600  221.0420 O   0  0  0  0  0  0  0  0  0  0  0  0
  140.0830   72.2640  222.0930 C   0  0  0  0  0  0  0  0  0  0  0  0
  139.8350   73.6610  222.1760 N   0  0  0  0  0  0  0  0  0  0  0  0
  139.9160   74.4660  220.9990 C   0  0  0  0  0  0  0  0  0  0  0  0
  140.9850   75.4990  221.1590 C   0  0  0  0  0  0  0  0  0  0  0  0
  141.4060   75.6660  222.3440 O   0  0  0  0  0  0  0  0  0  0  0  0
  141.4860   76.2390  220.0530 N   0  0  0  0  0  0  0  0  0  0  0  0
  142.3210   75.5460  219.1000 C   0  0  0  0  0  0  0  0  0  0  0  0
  143.1670   76.4550  218.2710 C   0  0  0  0  0  0  0  0  0  0  0  0
  142.2430   77.5740  217.7830 C   0  0  0  0  0  0  0  0  0  0  0  0
  141.8610   78.4240  218.9490 C   0  0  0  0  0  0  0  0  0  0  0  0
  141.1180   77.6320  219.9660 C   0  0  2  0  0  0  0  0  0  0  0  0
  141.0700   78.2880  221.2970 C   0  0  0  0  0  0  0  0  0  0  0  0
  142.1980   78.8290  221.9010 C   0  0  0  0  0  0  0  0  0  0  0  0
  142.1560   79.4410  223.1380 C   0  0  0  0  0  0  0  0  0  0  0  0
  140.9520   79.5230  223.8090 C   0  0  0  0  0  0  0  0  0  0  0  0
  139.8050   78.9970  223.2430 C   0  0  0  0  0  0  0  0  0  0  0  0
  139.8670   78.3870  222.0000 C   0  0  0  0  0  0  0  0  0  0  0  0
  138.3790   77.7450  221.3490 Cl  0  0  0  0  0  0  0  0  0  0  0  0
  139.9860   71.4820  223.3380 C   0  0  0  0  0  0  0  0  0  0  0  0
  139.3340   70.2680  223.3790 C   0  0  0  0  0  0  0  0  0  0  0  0
  139.2270   69.5090  224.5350 C   0  0  0  0  0  0  0  0  0  0  0  0
  139.8030   70.0020  225.6980 C   0  0  0  0  0  0  0  0  0  0  0  0
  139.7500   69.3230  226.8990 C   0  0  0  0  0  0  0  0  0  0  0  0
  140.3450   69.8670  228.0250 C   0  0  0  0  0  0  0  0  0  0  0  0
  140.9970   71.0980  227.9460 C   0  0  0  0  0  0  0  0  0  0  0  0
  141.0590   71.7910  226.7530 C   0  0  0  0  0  0  0  0  0  0  0  0
  140.4530   71.2170  225.6460 C   0  0  0  0  0  0  0  0  0  0  0  0
  140.5290   71.9150  224.4950 N   0  0  0  0  0  0  0  0  0  0  0  0
  139.5930   74.0960  223.0950 H   0  0  0  0  0  0  0  0  0  0  0  0
  140.1534   73.8267  220.1359 H   0  0  0  0  0  0  0  0  0  0  0  0
  138.9504   74.9675  220.8372 H   0  0  0  0  0  0  0  0  0  0  0  0
  142.9831   74.8620  219.6512 H   0  0  0  0  0  0  0  0  0  0  0  0
  141.6488   75.0144  218.4103 H   0  0  0  0  0  0  0  0  0  0  0  0
  143.9844   76.8729  218.8770 H   0  0  0  0  0  0  0  0  0  0  0  0
  143.6245   75.9173  217.4274 H   0  0  0  0  0  0  0  0  0  0  0  0
  142.7672   78.1866  217.0347 H   0  0  0  0  0  0  0  0  0  0  0  0
  141.3417   77.1415  217.3241 H   0  0  0  0  0  0  0  0  0  0  0  0
  142.7721   78.8348  219.4084 H   0  0  0  0  0  0  0  0  0  0  0  0
  141.2095   79.2354  218.5925 H   0  0  0  0  0  0  0  0  0  0  0  0
  140.0893   77.6190  219.5767 H   0  0  0  0  0  0  0  0  0  0  0  0
  143.1614   78.7675  221.3737 H   0  0  0  0  0  0  0  0  0  0  0  0
  143.0710   79.8583  223.5837 H   0  0  0  0  0  0  0  0  0  0  0  0
  140.9051   80.0075  224.7954 H   0  0  0  0  0  0  0  0  0  0  0  0
  138.8460   79.0626  223.7779 H   0  0  0  0  0  0  0  0  0  0  0  0
  138.8785   69.8843  222.4541 H   0  0  0  0  0  0  0  0  0  0  0  0
  138.7004   68.5433  224.5304 H   0  0  0  0  0  0  0  0  0  0  0  0
  139.2364   68.3523  226.9613 H   0  0  0  0  0  0  0  0  0  0  0  0
  140.3035   69.3279  228.9829 H   0  0  0  0  0  0  0  0  0  0  0  0
  141.4676   71.5219  228.8453 H   0  0  0  0  0  0  0  0  0  0  0  0
  141.5703   72.7625  226.6837 H   0  0  0  0  0  0  0  0  0  0  0  0
  1  2  2  0
  2  3  1  0
  3  4  1  0
  4  5  1  0
  5  6  2  0
  5  7  1  0
  7  8  1  0
  8  9  1  0
  9 10  1  0
 10 11  1  0
 11 12  1  0
 12 13  1  0
 13 14  2  0
 14 15  1  0
 15 16  2  0
 16 17  1  0
 17 18  2  0
 18 19  1  0
  2 20  1  0
 20 21  2  0
 21 22  1  0
 22 23  2  0
 23 24  1  0
 24 25  2  0
 25 26  1  0
 26 27  2  0
 27 28  1  0
 28 29  2  0
 12  7  1  0
 18 13  1  0
 29 20  1  0
 28 23  1  0
  3 30  1  0
  4 31  1  0
  4 32  1  0
  8 33  1  0
  8 34  1  0
  9 35  1  0
  9 36  1  0
 10 37  1  0
 10 38  1  0
 11 39  1  0
 11 40  1  0
 12 41  1  6
 14 42  1  0
 15 43  1  0
 16 44  1  0
 17 45  1  0
 21 46  1  0
 22 47  1  0
 24 48  1  0
 25 49  1  0
 26 50  1  0
 27 51  1  0
M  END
>  <smiles>  (10) 
O=C(NCC(=O)N1CCCCC1c1ccccc1Cl)c1ccc2ccccc2n1

>  <score_type>  (10) 
oracle

>  <origin>  (10) 
autodockgpu

>  <m_score__min__energy>  (10) 
-9.2200000000000006

>  <m_primary>  (10) 
energy

>  <rmsd>  (10) 
1.935058735207116

>  <m_score__min__rmsd>  (10) 
1.935058735207116

>  <meeko>  (10) 
{"free_energy": -8.91, "intermolecular_energy": -10.4, "internal_energy": -1.92, "cluster_size": 39, "cluster_id": 1, "rank_in_cluster": 33}

>  <energy>  (10) 
-9.14

>  <cluster_rmsd>  (10) 
0.32

>  <cluster>  (10) 
1

$$$$

     RDKit          3D

 51 54  0  0  0  0  0  0  0  0999 V2000
  140.8220   71.3220  221.7180 O   0  0  0  0  0  0  0  0  0  0  0  0
  140.3820   71.9600  222.6950 C   0  0  0  0  0  0  0  0  0  0  0  0
  139.9310   73.3070  222.6390 N   0  0  0  0  0  0  0  0  0  0  0  0
  139.9660   74.0150  221.4000 C   0  0  0  0  0  0  0  0  0  0  0  0
  140.5900   75.3600  221.5970 C   0  0  0  0  0  0  0  0  0  0  0  0
  140.3390   75.9180  222.7080 O   0  0  0  0  0  0  0  0  0  0  0  0
  141.4050   75.9630  220.6000 N   0  0  0  0  0  0  0  0  0  0  0  0
  142.4050   75.1410  219.9580 C   0  0  0  0  0  0  0  0  0  0  0  0
  143.4940   75.9240  219.3020 C   0  0  0  0  0  0  0  0  0  0  0  0
  142.8050   77.0310  218.5000 C   0  0  0  0  0  0  0  0  0  0  0  0
  142.2000   78.0080  219.4520 C   0  0  0  0  0  0  0  0  0  0  0  0
  141.1700   77.3560  220.3050 C   0  0  2  0  0  0  0  0  0  0  0  0
  140.8330   78.1420  221.5180 C   0  0  0  0  0  0  0  0  0  0  0  0
  141.8010   78.5930  222.4060 C   0  0  0  0  0  0  0  0  0  0  0  0
  141.4900   79.3260  223.5340 C   0  0  0  0  0  0  0  0  0  0  0  0
  140.1680   79.6260  223.8000 C   0  0  0  0  0  0  0  0  0  0  0  0
  139.1730   79.1950  222.9420 C   0  0  0  0  0  0  0  0  0  0  0  0
  139.5050   78.4610  221.8150 C   0  0  0  0  0  0  0  0  0  0  0  0
  138.1960   77.9510  220.7780 Cl  0  0  0  0  0  0  0  0  0  0  0  0
  140.3230   71.2780  223.9990 C   0  0  0  0  0  0  0  0  0  0  0  0
  140.7470   71.8950  225.1570 C   0  0  0  0  0  0  0  0  0  0  0  0
  140.7030   71.2780  226.3980 C   0  0  0  0  0  0  0  0  0  0  0  0
  140.2090   69.9820  226.4690 C   0  0  0  0  0  0  0  0  0  0  0  0
  140.1250   69.2830  227.6570 C   0  0  0  0  0  0  0  0  0  0  0  0
  139.6230   67.9930  227.6630 C   0  0  0  0  0  0  0  0  0  0  0  0
  139.2030   67.4000  226.4720 C   0  0  0  0  0  0  0  0  0  0  0  0
  139.2800   68.0840  225.2750 C   0  0  0  0  0  0  0  0  0  0  0  0
  139.7880   69.3750  225.3060 C   0  0  0  0  0  0  0  0  0  0  0  0
  139.8520   70.0180  224.1230 N   0  0  0  0  0  0  0  0  0  0  0  0
  139.5740   73.7760  223.5030 H   0  0  0  0  0  0  0  0  0  0  0  0
  140.5570   73.4426  220.6699 H   0  0  0  0  0  0  0  0  0  0  0  0
  138.9386   74.1444  221.0288 H   0  0  0  0  0  0  0  0  0  0  0  0
  142.8570   74.4867  220.7180 H   0  0  0  0  0  0  0  0  0  0  0  0
  141.8947   74.5735  219.1658 H   0  0  0  0  0  0  0  0  0  0  0  0
  144.1589   76.3614  220.0613 H   0  0  0  0  0  0  0  0  0  0  0  0
  144.1103   75.2848  218.6528 H   0  0  0  0  0  0  0  0  0  0  0  0
  143.5436   77.5422  217.8650 H   0  0  0  0  0  0  0  0  0  0  0  0
  142.0218   76.5976  217.8606 H   0  0  0  0  0  0  0  0  0  0  0  0
  142.9913   78.4199  220.0955 H   0  0  0  0  0  0  0  0  0  0  0  0
  141.7179   78.8088  218.8720 H   0  0  0  0  0  0  0  0  0  0  0  0
  140.2748   77.3523  219.6658 H   0  0  0  0  0  0  0  0  0  0  0  0
  142.8560   78.3572  222.2028 H   0  0  0  0  0  0  0  0  0  0  0  0
  142.2855   79.6671  224.2128 H   0  0  0  0  0  0  0  0  0  0  0  0
  139.9065   80.2086  224.6957 H   0  0  0  0  0  0  0  0  0  0  0  0
  138.1205   79.4344  223.1538 H   0  0  0  0  0  0  0  0  0  0  0  0
  141.1372   72.9215  225.0935 H   0  0  0  0  0  0  0  0  0  0  0  0
  141.0499   71.8008  227.3015 H   0  0  0  0  0  0  0  0  0  0  0  0
  140.4562   69.7501  228.5962 H   0  0  0  0  0  0  0  0  0  0  0  0
  139.5551   67.4345  228.6083 H   0  0  0  0  0  0  0  0  0  0  0  0
  138.8054   66.3745  226.4868 H   0  0  0  0  0  0  0  0  0  0  0  0
  138.9510   67.6228  224.3321 H   0  0  0  0  0  0  0  0  0  0  0  0
  1  2  2  0
  2  3  1  0
  3  4  1  0
  4  5  1  0
  5  6  2  0
  5  7  1  0
  7  8  1  0
  8  9  1  0
  9 10  1  0
 10 11  1  0
 11 12  1  0
 12 13  1  0
 13 14  2  0
 14 15  1  0
 15 16  2  0
 16 17  1  0
 17 18  2  0
 18 19  1  0
  2 20  1  0
 20 21  2  0
 21 22  1  0
 22 23  2  0
 23 24  1  0
 24 25  2  0
 25 26  1  0
 26 27  2  0
 27 28  1  0
 28 29  2  0
 12  7  1  0
 18 13  1  0
 29 20  1  0
 28 23  1  0
  3 30  1  0
  4 31  1  0
  4 32  1  0
  8 33  1  0
  8 34  1  0
  9 35  1  0
  9 36  1  0
 10 37  1  0
 10 38  1  0
 11 39  1  0
 11 40  1  0
 12 41  1  6
 14 42  1  0
 15 43  1  0
 16 44  1  0
 17 45  1  0
 21 46  1  0
 22 47  1  0
 24 48  1  0
 25 49  1  0
 26 50  1  0
 27 51  1  0
M  END
>  <smiles>  (11) 
O=C(NCC(=O)N1CCCCC1c1ccccc1Cl)c1ccc2ccccc2n1

>  <score_type>  (11) 
oracle

>  <origin>  (11) 
autodockgpu

>  <m_score__min__energy>  (11) 
-9.2200000000000006

>  <m_primary>  (11) 
energy

>  <rmsd>  (11) 
3.0509574839820113

>  <m_score__min__rmsd>  (11) 
3.0509574839820113

>  <meeko>  (11) 
{"free_energy": -8.68, "intermolecular_energy": -10.17, "internal_energy": -1.54, "cluster_size": 39, "cluster_id": 1, "rank_in_cluster": 35}

>  <energy>  (11) 
-9.13

>  <cluster_rmsd>  (11) 
0.34

>  <cluster>  (11) 
1

$$$$

     RDKit          3D

 51 54  0  0  0  0  0  0  0  0999 V2000
  140.6530   71.7160  221.1650 O   0  0  0  0  0  0  0  0  0  0  0  0
  140.2330   72.2920  222.1880 C   0  0  0  0  0  0  0  0  0  0  0  0
  139.8540   73.6610  222.2420 N   0  0  0  0  0  0  0  0  0  0  0  0
  139.9440   74.4670  221.0670 C   0  0  0  0  0  0  0  0  0  0  0  0
  140.8860   75.6050  221.2970 C   0  0  0  0  0  0  0  0  0  0  0  0
  141.0860   75.9070  222.5130 O   0  0  0  0  0  0  0  0  0  0  0  0
  141.5080   76.2960  220.2210 N   0  0  0  0  0  0  0  0  0  0  0  0
  142.3950   75.5470  219.3620 C   0  0  0  0  0  0  0  0  0  0  0  0
  143.3430   76.4020  218.5870 C   0  0  0  0  0  0  0  0  0  0  0  0
  142.5080   77.5400  217.9930 C   0  0  0  0  0  0  0  0  0  0  0  0
  142.0600   78.4340  219.1010 C   0  0  0  0  0  0  0  0  0  0  0  0
  141.2030   77.6980  220.0690 C   0  0  2  0  0  0  0  0  0  0  0  0
  141.0660   78.3920  221.3740 C   0  0  0  0  0  0  0  0  0  0  0  0
  142.1550   78.9310  222.0480 C   0  0  0  0  0  0  0  0  0  0  0  0
  142.0310   79.5790  223.2610 C   0  0  0  0  0  0  0  0  0  0  0  0
  140.7800   79.6990  223.8360 C   0  0  0  0  0  0  0  0  0  0  0  0
  139.6700   79.1760  223.1980 C   0  0  0  0  0  0  0  0  0  0  0  0
  139.8160   78.5300  221.9810 C   0  0  0  0  0  0  0  0  0  0  0  0
  138.3700   77.8950  221.2350 Cl  0  0  0  0  0  0  0  0  0  0  0  0
  140.1200   71.5080  223.4300 C   0  0  0  0  0  0  0  0  0  0  0  0
  139.4820   70.2860  223.4570 C   0  0  0  0  0  0  0  0  0  0  0  0
  139.3610   69.5250  224.6100 C   0  0  0  0  0  0  0  0  0  0  0  0
  139.9090   70.0230  225.7840 C   0  0  0  0  0  0  0  0  0  0  0  0
  139.8400   69.3420  226.9840 C   0  0  0  0  0  0  0  0  0  0  0  0
  140.4070   69.8910  228.1210 C   0  0  0  0  0  0  0  0  0  0  0  0
  141.0450   71.1300  228.0570 C   0  0  0  0  0  0  0  0  0  0  0  0
  141.1230   71.8250  226.8660 C   0  0  0  0  0  0  0  0  0  0  0  0
  140.5450   71.2450  225.7460 C   0  0  0  0  0  0  0  0  0  0  0  0
  140.6360   71.9460  224.5990 N   0  0  0  0  0  0  0  0  0  0  0  0
  139.5100   74.0750  223.1380 H   0  0  0  0  0  0  0  0  0  0  0  0
  140.3118   73.8531  220.2317 H   0  0  0  0  0  0  0  0  0  0  0  0
  138.9477   74.8666  220.8267 H   0  0  0  0  0  0  0  0  0  0  0  0
  142.9810   74.8558  219.9857 H   0  0  0  0  0  0  0  0  0  0  0  0
  141.7651   75.0201  218.6301 H   0  0  0  0  0  0  0  0  0  0  0  0
  144.1208   76.8068  219.2511 H   0  0  0  0  0  0  0  0  0  0  0  0
  143.8498   75.8248  217.7996 H   0  0  0  0  0  0  0  0  0  0  0  0
  143.1179   78.1128  217.2789 H   0  0  0  0  0  0  0  0  0  0  0  0
  141.6340   77.1283  217.4671 H   0  0  0  0  0  0  0  0  0  0  0  0
  142.9435   78.8241  219.6275 H   0  0  0  0  0  0  0  0  0  0  0  0
  141.4723   79.2578  218.6697 H   0  0  0  0  0  0  0  0  0  0  0  0
  140.2115   77.7115  219.5929 H   0  0  0  0  0  0  0  0  0  0  0  0
  143.1544   78.8379  221.5979 H   0  0  0  0  0  0  0  0  0  0  0  0
  142.9169   79.9946  223.7634 H   0  0  0  0  0  0  0  0  0  0  0  0
  140.6670   80.2114  224.8028 H   0  0  0  0  0  0  0  0  0  0  0  0
  138.6743   79.2726  223.6553 H   0  0  0  0  0  0  0  0  0  0  0  0
  139.0500   69.8976  222.5229 H   0  0  0  0  0  0  0  0  0  0  0  0
  138.8450   68.5536  224.5946 H   0  0  0  0  0  0  0  0  0  0  0  0
  139.3356   68.3658  227.0357 H   0  0  0  0  0  0  0  0  0  0  0  0
  140.3545   69.3493  229.0770 H   0  0  0  0  0  0  0  0  0  0  0  0
  141.4914   71.5587  228.9663 H   0  0  0  0  0  0  0  0  0  0  0  0
  141.6248   72.8021  226.8076 H   0  0  0  0  0  0  0  0  0  0  0  0
  1  2  2  0
  2  3  1  0
  3  4  1  0
  4  5  1  0
  5  6  2  0
  5  7  1  0
  7  8  1  0
  8  9  1  0
  9 10  1  0
 10 11  1  0
 11 12  1  0
 12 13  1  0
 13 14  2  0
 14 15  1  0
 15 16  2  0
 16 17  1  0
 17 18  2  0
 18 19  1  0
  2 20  1  0
 20 21  2  0
 21 22  1  0
 22 23  2  0
 23 24  1  0
 24 25  2  0
 25 26  1  0
 26 27  2  0
 27 28  1  0
 28 29  2  0
 12  7  1  0
 18 13  1  0
 29 20  1  0
 28 23  1  0
  3 30  1  0
  4 31  1  0
  4 32  1  0
  8 33  1  0
  8 34  1  0
  9 35  1  0
  9 36  1  0
 10 37  1  0
 10 38  1  0
 11 39  1  0
 11 40  1  0
 12 41  1  6
 14 42  1  0
 15 43  1  0
 16 44  1  0
 17 45  1  0
 21 46  1  0
 22 47  1  0
 24 48  1  0
 25 49  1  0
 26 50  1  0
 27 51  1  0
M  END
>  <smiles>  (12) 
O=C(NCC(=O)N1CCCCC1c1ccccc1Cl)c1ccc2ccccc2n1

>  <score_type>  (12) 
oracle

>  <origin>  (12) 
autodockgpu

>  <m_score__min__energy>  (12) 
-9.2200000000000006

>  <m_primary>  (12) 
energy

>  <rmsd>  (12) 
2.0300795980144897

>  <m_score__min__rmsd>  (12) 
2.0300795980144897

>  <meeko>  (12) 
{"free_energy": -9.1, "intermolecular_energy": -10.59, "internal_energy": -1.79, "cluster_size": 39, "cluster_id": 1, "rank_in_cluster": 20}

>  <energy>  (12) 
-9.13

>  <cluster_rmsd>  (12) 
0.34

>  <cluster>  (12) 
1

$$$$

     RDKit          3D

 51 54  0  0  0  0  0  0  0  0999 V2000
  141.2870   72.0040  221.7010 O   0  0  0  0  0  0  0  0  0  0  0  0
  140.3850   72.3340  222.4970 C   0  0  0  0  0  0  0  0  0  0  0  0
  139.5290   73.4550  222.3230 N   0  0  0  0  0  0  0  0  0  0  0  0
  139.6770   74.2880  221.1720 C   0  0  0  0  0  0  0  0  0  0  0  0
  140.5630   75.4490  221.4920 C   0  0  0  0  0  0  0  0  0  0  0  0
  140.5380   75.8360  222.7000 O   0  0  0  0  0  0  0  0  0  0  0  0
  141.3730   76.0700  220.5020 N   0  0  0  0  0  0  0  0  0  0  0  0
  142.3470   75.2530  219.8170 C   0  0  0  0  0  0  0  0  0  0  0  0
  143.4400   76.0390  219.1700 C   0  0  0  0  0  0  0  0  0  0  0  0
  142.7580   77.1840  218.4150 C   0  0  0  0  0  0  0  0  0  0  0  0
  142.1850   78.1390  219.4090 C   0  0  0  0  0  0  0  0  0  0  0  0
  141.1580   77.4760  220.2560 C   0  0  2  0  0  0  0  0  0  0  0  0
  140.8540   78.2280  221.5000 C   0  0  0  0  0  0  0  0  0  0  0  0
  141.8470   78.6640  222.3680 C   0  0  0  0  0  0  0  0  0  0  0  0
  141.5670   79.3650  223.5250 C   0  0  0  0  0  0  0  0  0  0  0  0
  140.2520   79.6460  223.8400 C   0  0  0  0  0  0  0  0  0  0  0  0
  139.2320   79.2290  223.0040 C   0  0  0  0  0  0  0  0  0  0  0  0
  139.5340   78.5280  221.8470 C   0  0  0  0  0  0  0  0  0  0  0  0
  138.1960   78.0330  220.8400 Cl  0  0  0  0  0  0  0  0  0  0  0  0
  140.1870   71.5100  223.7020 C   0  0  0  0  0  0  0  0  0  0  0  0
  139.4750   70.3300  223.6610 C   0  0  0  0  0  0  0  0  0  0  0  0
  139.2730   69.5330  224.7780 C   0  0  0  0  0  0  0  0  0  0  0  0
  139.8150   69.9490  225.9860 C   0  0  0  0  0  0  0  0  0  0  0  0
  139.6690   69.2270  227.1540 C   0  0  0  0  0  0  0  0  0  0  0  0
  140.2340   69.6950  228.3280 C   0  0  0  0  0  0  0  0  0  0  0  0
  140.9500   70.8930  228.3320 C   0  0  0  0  0  0  0  0  0  0  0  0
  141.1050   71.6280  227.1740 C   0  0  0  0  0  0  0  0  0  0  0  0
  140.5260   71.1300  226.0160 C   0  0  0  0  0  0  0  0  0  0  0  0
  140.6940   71.8680  224.9010 N   0  0  0  0  0  0  0  0  0  0  0  0
  138.7930   73.6680  223.0350 H   0  0  0  0  0  0  0  0  0  0  0  0
  140.1236   73.7034  220.3542 H   0  0  0  0  0  0  0  0  0  0  0  0
  138.6884   74.6614  220.8668 H   0  0  0  0  0  0  0  0  0  0  0  0
  142.7988   74.5654  220.5471 H   0  0  0  0  0  0  0  0  0  0  0  0
  141.8143   74.7216  219.0146 H   0  0  0  0  0  0  0  0  0  0  0  0
  144.1237   76.4399  219.9328 H   0  0  0  0  0  0  0  0  0  0  0  0
  144.0354   75.4112  218.4907 H   0  0  0  0  0  0  0  0  0  0  0  0
  143.4956   77.7033  217.7855 H   0  0  0  0  0  0  0  0  0  0  0  0
  141.9578   76.7857  217.7738 H   0  0  0  0  0  0  0  0  0  0  0  0
  142.9934   78.5158  220.0529 H   0  0  0  0  0  0  0  0  0  0  0  0
  141.7079   78.9669  218.8641 H   0  0  0  0  0  0  0  0  0  0  0  0
  140.2533   77.5072  219.6310 H   0  0  0  0  0  0  0  0  0  0  0  0
  142.8967   78.4426  222.1247 H   0  0  0  0  0  0  0  0  0  0  0  0
  142.3811   79.6952  224.1870 H   0  0  0  0  0  0  0  0  0  0  0  0
  140.0151   80.2031  224.7584 H   0  0  0  0  0  0  0  0  0  0  0  0
  138.1850   79.4528  223.2564 H   0  0  0  0  0  0  0  0  0  0  0  0
  139.0484   70.0064  222.7001 H   0  0  0  0  0  0  0  0  0  0  0  0
  138.6991   68.5972  224.7084 H   0  0  0  0  0  0  0  0  0  0  0  0
  139.1052   68.2825  227.1516 H   0  0  0  0  0  0  0  0  0  0  0  0
  140.1184   69.1215  229.2595 H   0  0  0  0  0  0  0  0  0  0  0  0
  141.3963   71.2559  229.2696 H   0  0  0  0  0  0  0  0  0  0  0  0
  141.6669   72.5737  227.1696 H   0  0  0  0  0  0  0  0  0  0  0  0
  1  2  2  0
  2  3  1  0
  3  4  1  0
  4  5  1  0
  5  6  2  0
  5  7  1  0
  7  8  1  0
  8  9  1  0
  9 10  1  0
 10 11  1  0
 11 12  1  0
 12 13  1  0
 13 14  2  0
 14 15  1  0
 15 16  2  0
 16 17  1  0
 17 18  2  0
 18 19  1  0
  2 20  1  0
 20 21  2  0
 21 22  1  0
 22 23  2  0
 23 24  1  0
 24 25  2  0
 25 26  1  0
 26 27  2  0
 27 28  1  0
 28 29  2  0
 12  7  1  0
 18 13  1  0
 29 20  1  0
 28 23  1  0
  3 30  1  0
  4 31  1  0
  4 32  1  0
  8 33  1  0
  8 34  1  0
  9 35  1  0
  9 36  1  0
 10 37  1  0
 10 38  1  0
 11 39  1  0
 11 40  1  0
 12 41  1  6
 14 42  1  0
 15 43  1  0
 16 44  1  0
 17 45  1  0
 21 46  1  0
 22 47  1  0
 24 48  1  0
 25 49  1  0
 26 50  1  0
 27 51  1  0
M  END
>  <smiles>  (13) 
O=C(NCC(=O)N1CCCCC1c1ccccc1Cl)c1ccc2ccccc2n1

>  <score_type>  (13) 
oracle

>  <origin>  (13) 
autodockgpu

>  <m_score__min__energy>  (13) 
-9.2200000000000006

>  <m_primary>  (13) 
energy

>  <rmsd>  (13) 
2.062587991397828

>  <m_score__min__rmsd>  (13) 
2.062587991397828

>  <meeko>  (13) 
{"free_energy": -9.22, "intermolecular_energy": -10.71, "internal_energy": -1.6, "cluster_size": 39, "cluster_id": 1, "rank_in_cluster": 1}

>  <energy>  (13) 
-9.13

>  <cluster_rmsd>  (13) 
0.32

>  <cluster>  (13) 
1

$$$$

     RDKit          3D

 51 54  0  0  0  0  0  0  0  0999 V2000
  140.5700   71.4910  221.2980 O   0  0  0  0  0  0  0  0  0  0  0  0
  140.2020   72.1190  222.3110 C   0  0  0  0  0  0  0  0  0  0  0  0
  139.8830   73.5040  222.3280 N   0  0  0  0  0  0  0  0  0  0  0  0
  139.9760   74.2670  221.1250 C   0  0  0  0  0  0  0  0  0  0  0  0
  140.6620   75.5680  221.3960 C   0  0  0  0  0  0  0  0  0  0  0  0
  140.5870   75.9830  222.5930 O   0  0  0  0  0  0  0  0  0  0  0  0
  141.3460   76.2830  220.3760 N   0  0  0  0  0  0  0  0  0  0  0  0
  142.3240   75.5690  219.5900 C   0  0  0  0  0  0  0  0  0  0  0  0
  143.3030   76.4580  218.8970 C   0  0  0  0  0  0  0  0  0  0  0  0
  142.4820   77.5710  218.2390 C   0  0  0  0  0  0  0  0  0  0  0  0
  141.9150   78.4450  219.3080 C   0  0  0  0  0  0  0  0  0  0  0  0
  141.0070   77.6760  220.2010 C   0  0  2  0  0  0  0  0  0  0  0  0
  140.7420   78.3590  221.4930 C   0  0  0  0  0  0  0  0  0  0  0  0
  141.7620   78.8180  222.3160 C   0  0  0  0  0  0  0  0  0  0  0  0
  141.5180   79.4550  223.5160 C   0  0  0  0  0  0  0  0  0  0  0  0
  140.2120   79.6470  223.9240 C   0  0  0  0  0  0  0  0  0  0  0  0
  139.1670   79.2050  223.1340 C   0  0  0  0  0  0  0  0  0  0  0  0
  139.4320   78.5680  221.9330 C   0  0  0  0  0  0  0  0  0  0  0  0
  138.0620   78.0360  220.9890 Cl  0  0  0  0  0  0  0  0  0  0  0  0
  140.0880   71.3800  223.5810 C   0  0  0  0  0  0  0  0  0  0  0  0
  139.4900   70.1390  223.6430 C   0  0  0  0  0  0  0  0  0  0  0  0
  139.3690   69.4210  224.8240 C   0  0  0  0  0  0  0  0  0  0  0  0
  139.8750   69.9820  225.9880 C   0  0  0  0  0  0  0  0  0  0  0  0
  139.8040   69.3470  227.2110 C   0  0  0  0  0  0  0  0  0  0  0  0
  140.3270   69.9590  228.3370 C   0  0  0  0  0  0  0  0  0  0  0  0
  140.9260   71.2160  228.2360 C   0  0  0  0  0  0  0  0  0  0  0  0
  141.0060   71.8650  227.0210 C   0  0  0  0  0  0  0  0  0  0  0  0
  140.4720   71.2230  225.9130 C   0  0  0  0  0  0  0  0  0  0  0  0
  140.5640   71.8810  224.7410 N   0  0  0  0  0  0  0  0  0  0  0  0
  139.5810   73.9610  223.2190 H   0  0  0  0  0  0  0  0  0  0  0  0
  140.5513   73.7005  220.3780 H   0  0  0  0  0  0  0  0  0  0  0  0
  138.9633   74.4653  220.7441 H   0  0  0  0  0  0  0  0  0  0  0  0
  142.8799   74.8940  220.2573 H   0  0  0  0  0  0  0  0  0  0  0  0
  141.7731   75.0264  218.8076 H   0  0  0  0  0  0  0  0  0  0  0  0
  144.0103   76.8850  219.6233 H   0  0  0  0  0  0  0  0  0  0  0  0
  143.8911   75.9014  218.1524 H   0  0  0  0  0  0  0  0  0  0  0  0
  143.1291   78.1669  217.5785 H   0  0  0  0  0  0  0  0  0  0  0  0
  141.6680   77.1330  217.6427 H   0  0  0  0  0  0  0  0  0  0  0  0
  142.7387   78.8622  219.9058 H   0  0  0  0  0  0  0  0  0  0  0  0
  141.3374   79.2508  218.8315 H   0  0  0  0  0  0  0  0  0  0  0  0
  140.0582   77.6585  219.6448 H   0  0  0  0  0  0  0  0  0  0  0  0
  142.8047   78.6682  221.9994 H   0  0  0  0  0  0  0  0  0  0  0  0
  142.3533   79.8056  224.1400 H   0  0  0  0  0  0  0  0  0  0  0  0
  140.0034   80.1522  224.8786 H   0  0  0  0  0  0  0  0  0  0  0  0
  138.1273   79.3589  223.4586 H   0  0  0  0  0  0  0  0  0  0  0  0
  139.0919   69.6995  222.7165 H   0  0  0  0  0  0  0  0  0  0  0  0
  138.8849   68.4334  224.8373 H   0  0  0  0  0  0  0  0  0  0  0  0
  139.3327   68.3563  227.2910 H   0  0  0  0  0  0  0  0  0  0  0  0
  140.2706   69.4543  229.3127 H   0  0  0  0  0  0  0  0  0  0  0  0
  141.3392   71.6948  229.1360 H   0  0  0  0  0  0  0  0  0  0  0  0
  141.4762   72.8556  226.9340 H   0  0  0  0  0  0  0  0  0  0  0  0
  1  2  2  0
  2  3  1  0
  3  4  1  0
  4  5  1  0
  5  6  2  0
  5  7  1  0
  7  8  1  0
  8  9  1  0
  9 10  1  0
 10 11  1  0
 11 12  1  0
 12 13  1  0
 13 14  2  0
 14 15  1  0
 15 16  2  0
 16 17  1  0
 17 18  2  0
 18 19  1  0
  2 20  1  0
 20 21  2  0
 21 22  1  0
 22 23  2  0
 23 24  1  0
 24 25  2  0
 25 26  1  0
 26 27  2  0
 27 28  1  0
 28 29  2  0
 12  7  1  0
 18 13  1  0
 29 20  1  0
 28 23  1  0
  3 30  1  0
  4 31  1  0
  4 32  1  0
  8 33  1  0
  8 34  1  0
  9 35  1  0
  9 36  1  0
 10 37  1  0
 10 38  1  0
 11 39  1  0
 11 40  1  0
 12 41  1  6
 14 42  1  0
 15 43  1  0
 16 44  1  0
 17 45  1  0
 21 46  1  0
 22 47  1  0
 24 48  1  0
 25 49  1  0
 26 50  1  0
 27 51  1  0
M  END
>  <smiles>  (14) 
O=C(NCC(=O)N1CCCCC1c1ccccc1Cl)c1ccc2ccccc2n1

>  <score_type>  (14) 
oracle

>  <origin>  (14) 
autodockgpu

>  <m_score__min__energy>  (14) 
-9.2200000000000006

>  <m_primary>  (14) 
energy

>  <rmsd>  (14) 
2.0402766546090922

>  <m_score__min__rmsd>  (14) 
2.0402766546090922

>  <meeko>  (14) 
{"free_energy": -9.1, "intermolecular_energy": -10.59, "internal_energy": -1.86, "cluster_size": 39, "cluster_id": 1, "rank_in_cluster": 19}

>  <energy>  (14) 
-9.12

>  <cluster_rmsd>  (14) 
0.33

>  <cluster>  (14) 
1

$$$$

     RDKit          3D

 51 54  0  0  0  0  0  0  0  0999 V2000
  140.5780   71.5290  221.2870 O   0  0  0  0  0  0  0  0  0  0  0  0
  140.2140   72.1420  222.3110 C   0  0  0  0  0  0  0  0  0  0  0  0
  139.8810   73.5230  222.3450 N   0  0  0  0  0  0  0  0  0  0  0  0
  139.9520   74.3000  221.1490 C   0  0  0  0  0  0  0  0  0  0  0  0
  140.6640   75.5870  221.4170 C   0  0  0  0  0  0  0  0  0  0  0  0
  140.5760   76.0200  222.6060 O   0  0  0  0  0  0  0  0  0  0  0  0
  141.3850   76.2730  220.4010 N   0  0  0  0  0  0  0  0  0  0  0  0
  142.3670   75.5260  219.6500 C   0  0  0  0  0  0  0  0  0  0  0  0
  143.3790   76.3850  218.9650 C   0  0  0  0  0  0  0  0  0  0  0  0
  142.5940   77.5020  218.2700 C   0  0  0  0  0  0  0  0  0  0  0  0
  142.0200   78.4040  219.3110 C   0  0  0  0  0  0  0  0  0  0  0  0
  141.0770   77.6680  220.1960 C   0  0  2  0  0  0  0  0  0  0  0  0
  140.7950   78.3780  221.4690 C   0  0  0  0  0  0  0  0  0  0  0  0
  141.8050   78.8360  222.3050 C   0  0  0  0  0  0  0  0  0  0  0  0
  141.5460   79.4980  223.4890 C   0  0  0  0  0  0  0  0  0  0  0  0
  140.2350   79.7160  223.8650 C   0  0  0  0  0  0  0  0  0  0  0  0
  139.1990   79.2760  223.0620 C   0  0  0  0  0  0  0  0  0  0  0  0
  139.4800   78.6130  221.8780 C   0  0  0  0  0  0  0  0  0  0  0  0
  138.1220   78.0850  220.9150 Cl  0  0  0  0  0  0  0  0  0  0  0  0
  140.1230   71.3890  223.5740 C   0  0  0  0  0  0  0  0  0  0  0  0
  139.5520   70.1360  223.6270 C   0  0  0  0  0  0  0  0  0  0  0  0
  139.4520   69.4040  224.8010 C   0  0  0  0  0  0  0  0  0  0  0  0
  139.9510   69.9650  225.9680 C   0  0  0  0  0  0  0  0  0  0  0  0
  139.8980   69.3170  227.1860 C   0  0  0  0  0  0  0  0  0  0  0  0
  140.4130   69.9300  228.3160 C   0  0  0  0  0  0  0  0  0  0  0  0
  140.9850   71.2000  228.2240 C   0  0  0  0  0  0  0  0  0  0  0  0
  141.0450   71.8630  227.0140 C   0  0  0  0  0  0  0  0  0  0  0  0
  140.5200   71.2190  225.9030 C   0  0  0  0  0  0  0  0  0  0  0  0
  140.5930   71.8900  224.7360 N   0  0  0  0  0  0  0  0  0  0  0  0
  139.5830   73.9680  223.2440 H   0  0  0  0  0  0  0  0  0  0  0  0
  140.4982   73.7349  220.3794 H   0  0  0  0  0  0  0  0  0  0  0  0
  138.9322   74.5176  220.7987 H   0  0  0  0  0  0  0  0  0  0  0  0
  142.8942   74.8522  220.3414 H   0  0  0  0  0  0  0  0  0  0  0  0
  141.8241   74.9799  218.8645 H   0  0  0  0  0  0  0  0  0  0  0  0
  144.0776   76.8109  219.7003 H   0  0  0  0  0  0  0  0  0  0  0  0
  143.9734   75.8052  218.2436 H   0  0  0  0  0  0  0  0  0  0  0  0
  143.2669   78.0745  217.6146 H   0  0  0  0  0  0  0  0  0  0  0  0
  141.7854   77.0692  217.6626 H   0  0  0  0  0  0  0  0  0  0  0  0
  142.8380   78.8155  219.9206 H   0  0  0  0  0  0  0  0  0  0  0  0
  141.4688   79.2121  218.8080 H   0  0  0  0  0  0  0  0  0  0  0  0
  140.1404   77.6591  219.6192 H   0  0  0  0  0  0  0  0  0  0  0  0
  142.8516   78.6649  222.0128 H   0  0  0  0  0  0  0  0  0  0  0  0
  142.3732   79.8472  224.1245 H   0  0  0  0  0  0  0  0  0  0  0  0
  140.0145   80.2412  224.8060 H   0  0  0  0  0  0  0  0  0  0  0  0
  138.1554   79.4516  223.3619 H   0  0  0  0  0  0  0  0  0  0  0  0
  139.1585   69.6973  222.6982 H   0  0  0  0  0  0  0  0  0  0  0  0
  138.9897   68.4059  224.8068 H   0  0  0  0  0  0  0  0  0  0  0  0
  139.4477   68.3160  227.2587 H   0  0  0  0  0  0  0  0  0  0  0  0
  140.3712   69.4154  229.2873 H   0  0  0  0  0  0  0  0  0  0  0  0
  141.3930   71.6786  229.1265 H   0  0  0  0  0  0  0  0  0  0  0  0
  141.4925   72.8647  226.9341 H   0  0  0  0  0  0  0  0  0  0  0  0
  1  2  2  0
  2  3  1  0
  3  4  1  0
  4  5  1  0
  5  6  2  0
  5  7  1  0
  7  8  1  0
  8  9  1  0
  9 10  1  0
 10 11  1  0
 11 12  1  0
 12 13  1  0
 13 14  2  0
 14 15  1  0
 15 16  2  0
 16 17  1  0
 17 18  2  0
 18 19  1  0
  2 20  1  0
 20 21  2  0
 21 22  1  0
 22 23  2  0
 23 24  1  0
 24 25  2  0
 25 26  1  0
 26 27  2  0
 27 28  1  0
 28 29  2  0
 12  7  1  0
 18 13  1  0
 29 20  1  0
 28 23  1  0
  3 30  1  0
  4 31  1  0
  4 32  1  0
  8 33  1  0
  8 34  1  0
  9 35  1  0
  9 36  1  0
 10 37  1  0
 10 38  1  0
 11 39  1  0
 11 40  1  0
 12 41  1  6
 14 42  1  0
 15 43  1  0
 16 44  1  0
 17 45  1  0
 21 46  1  0
 22 47  1  0
 24 48  1  0
 25 49  1  0
 26 50  1  0
 27 51  1  0
M  END
>  <smiles>  (15) 
O=C(NCC(=O)N1CCCCC1c1ccccc1Cl)c1ccc2ccccc2n1

>  <score_type>  (15) 
oracle

>  <origin>  (15) 
autodockgpu

>  <m_score__min__energy>  (15) 
-9.2200000000000006

>  <m_primary>  (15) 
energy

>  <rmsd>  (15) 
2.0575427067647647

>  <m_score__min__rmsd>  (15) 
2.0575427067647647

>  <meeko>  (15) 
{"free_energy": -9.15, "intermolecular_energy": -10.64, "internal_energy": -1.84, "cluster_size": 39, "cluster_id": 1, "rank_in_cluster": 7}

>  <energy>  (15) 
-9.12

>  <cluster_rmsd>  (15) 
0.35

>  <cluster>  (15) 
1

$$$$

     RDKit          3D

 51 54  0  0  0  0  0  0  0  0999 V2000
  140.5670   71.4970  221.3100 O   0  0  0  0  0  0  0  0  0  0  0  0
  140.1930   72.1180  222.3250 C   0  0  0  0  0  0  0  0  0  0  0  0
  139.8660   73.5010  222.3470 N   0  0  0  0  0  0  0  0  0  0  0  0
  139.9560   74.2700  221.1470 C   0  0  0  0  0  0  0  0  0  0  0  0
  140.6630   75.5600  221.4180 C   0  0  0  0  0  0  0  0  0  0  0  0
  140.5890   75.9790  222.6140 O   0  0  0  0  0  0  0  0  0  0  0  0
  141.3640   76.2610  220.4000 N   0  0  0  0  0  0  0  0  0  0  0  0
  142.3450   75.5310  219.6310 C   0  0  0  0  0  0  0  0  0  0  0  0
  143.3390   76.4060  218.9410 C   0  0  0  0  0  0  0  0  0  0  0  0
  142.5350   77.5200  218.2650 C   0  0  0  0  0  0  0  0  0  0  0  0
  141.9640   78.4080  219.3210 C   0  0  0  0  0  0  0  0  0  0  0  0
  141.0390   77.6540  220.2100 C   0  0  2  0  0  0  0  0  0  0  0  0
  140.7660   78.3510  221.4920 C   0  0  0  0  0  0  0  0  0  0  0  0
  141.7810   78.8150  222.3190 C   0  0  0  0  0  0  0  0  0  0  0  0
  141.5300   79.4650  223.5110 C   0  0  0  0  0  0  0  0  0  0  0  0
  140.2210   79.6640  223.9070 C   0  0  0  0  0  0  0  0  0  0  0  0
  139.1800   79.2170  223.1140 C   0  0  0  0  0  0  0  0  0  0  0  0
  139.4540   78.5670  221.9200 C   0  0  0  0  0  0  0  0  0  0  0  0
  138.0890   78.0300  220.9710 Cl  0  0  0  0  0  0  0  0  0  0  0  0
  140.0810   71.3740  223.5910 C   0  0  0  0  0  0  0  0  0  0  0  0
  139.4790   70.1350  223.6500 C   0  0  0  0  0  0  0  0  0  0  0  0
  139.3590   69.4110  224.8270 C   0  0  0  0  0  0  0  0  0  0  0  0
  139.8710   69.9650  225.9920 C   0  0  0  0  0  0  0  0  0  0  0  0
  139.8010   69.3240  227.2130 C   0  0  0  0  0  0  0  0  0  0  0  0
  140.3310   69.9280  228.3400 C   0  0  0  0  0  0  0  0  0  0  0  0
  140.9340   71.1830  228.2430 C   0  0  0  0  0  0  0  0  0  0  0  0
  141.0120   71.8390  227.0310 C   0  0  0  0  0  0  0  0  0  0  0  0
  140.4720   71.2040  225.9220 C   0  0  0  0  0  0  0  0  0  0  0  0
  140.5630   71.8670  224.7520 N   0  0  0  0  0  0  0  0  0  0  0  0
  139.5590   73.9530  223.2390 H   0  0  0  0  0  0  0  0  0  0  0  0
  140.5151   73.7002  220.3902 H   0  0  0  0  0  0  0  0  0  0  0  0
  138.9419   74.4844  220.7786 H   0  0  0  0  0  0  0  0  0  0  0  0
  142.8878   74.8575  220.3105 H   0  0  0  0  0  0  0  0  0  0  0  0
  141.7984   74.9855  218.8476 H   0  0  0  0  0  0  0  0  0  0  0  0
  144.0421   76.8331  219.6713 H   0  0  0  0  0  0  0  0  0  0  0  0
  143.9302   75.8381  218.2075 H   0  0  0  0  0  0  0  0  0  0  0  0
  143.1942   78.1047  217.6066 H   0  0  0  0  0  0  0  0  0  0  0  0
  141.7237   77.0841  217.6635 H   0  0  0  0  0  0  0  0  0  0  0  0
  142.7848   78.8225  219.9247 H   0  0  0  0  0  0  0  0  0  0  0  0
  141.3991   79.2152  218.8318 H   0  0  0  0  0  0  0  0  0  0  0  0
  140.0959   77.6386  219.6440 H   0  0  0  0  0  0  0  0  0  0  0  0
  142.8257   78.6585  222.0122 H   0  0  0  0  0  0  0  0  0  0  0  0
  142.3615   79.8200  224.1376 H   0  0  0  0  0  0  0  0  0  0  0  0
  140.0067   80.1791  224.8550 H   0  0  0  0  0  0  0  0  0  0  0  0
  138.1382   79.3765  223.4292 H   0  0  0  0  0  0  0  0  0  0  0  0
  139.0761   69.7016  222.7227 H   0  0  0  0  0  0  0  0  0  0  0  0
  138.8715   68.4250  224.8368 H   0  0  0  0  0  0  0  0  0  0  0  0
  139.3250   68.3353  227.2899 H   0  0  0  0  0  0  0  0  0  0  0  0
  140.2769   69.4183  229.3133 H   0  0  0  0  0  0  0  0  0  0  0  0
  141.3525   71.6554  229.1440 H   0  0  0  0  0  0  0  0  0  0  0  0
  141.4848   72.8287  226.9476 H   0  0  0  0  0  0  0  0  0  0  0  0
  1  2  2  0
  2  3  1  0
  3  4  1  0
  4  5  1  0
  5  6  2  0
  5  7  1  0
  7  8  1  0
  8  9  1  0
  9 10  1  0
 10 11  1  0
 11 12  1  0
 12 13  1  0
 13 14  2  0
 14 15  1  0
 15 16  2  0
 16 17  1  0
 17 18  2  0
 18 19  1  0
  2 20  1  0
 20 21  2  0
 21 22  1  0
 22 23  2  0
 23 24  1  0
 24 25  2  0
 25 26  1  0
 26 27  2  0
 27 28  1  0
 28 29  2  0
 12  7  1  0
 18 13  1  0
 29 20  1  0
 28 23  1  0
  3 30  1  0
  4 31  1  0
  4 32  1  0
  8 33  1  0
  8 34  1  0
  9 35  1  0
  9 36  1  0
 10 37  1  0
 10 38  1  0
 11 39  1  0
 11 40  1  0
 12 41  1  6
 14 42  1  0
 15 43  1  0
 16 44  1  0
 17 45  1  0
 21 46  1  0
 22 47  1  0
 24 48  1  0
 25 49  1  0
 26 50  1  0
 27 51  1  0
M  END
>  <smiles>  (16) 
O=C(NCC(=O)N1CCCCC1c1ccccc1Cl)c1ccc2ccccc2n1

>  <score_type>  (16) 
oracle

>  <origin>  (16) 
autodockgpu

>  <m_score__min__energy>  (16) 
-9.2200000000000006

>  <m_primary>  (16) 
energy

>  <rmsd>  (16) 
2.043091559388825

>  <m_score__min__rmsd>  (16) 
2.043091559388825

>  <meeko>  (16) 
{"free_energy": -9.12, "intermolecular_energy": -10.62, "internal_energy": -1.84, "cluster_size": 39, "cluster_id": 1, "rank_in_cluster": 14}

>  <energy>  (16) 
-9.12

>  <cluster_rmsd>  (16) 
0.35

>  <cluster>  (16) 
1

$$$$

     RDKit          3D

 51 54  0  0  0  0  0  0  0  0999 V2000
  140.5360   71.5030  221.2590 O   0  0  0  0  0  0  0  0  0  0  0  0
  140.1790   72.1210  222.2820 C   0  0  0  0  0  0  0  0  0  0  0  0
  139.8530   73.5050  222.3130 N   0  0  0  0  0  0  0  0  0  0  0  0
  139.9250   74.2770  221.1140 C   0  0  0  0  0  0  0  0  0  0  0  0
  140.6070   75.5800  221.3850 C   0  0  0  0  0  0  0  0  0  0  0  0
  140.4840   76.0220  222.5680 O   0  0  0  0  0  0  0  0  0  0  0  0
  141.3380   76.2690  220.3800 N   0  0  0  0  0  0  0  0  0  0  0  0
  142.3180   75.5210  219.6260 C   0  0  0  0  0  0  0  0  0  0  0  0
  143.3400   76.3780  218.9540 C   0  0  0  0  0  0  0  0  0  0  0  0
  142.5680   77.5090  218.2670 C   0  0  0  0  0  0  0  0  0  0  0  0
  141.9970   78.4050  219.3140 C   0  0  0  0  0  0  0  0  0  0  0  0
  141.0440   77.6680  220.1870 C   0  0  2  0  0  0  0  0  0  0  0  0
  140.7630   78.3680  221.4660 C   0  0  0  0  0  0  0  0  0  0  0  0
  141.7730   78.7910  222.3210 C   0  0  0  0  0  0  0  0  0  0  0  0
  141.5140   79.4440  223.5100 C   0  0  0  0  0  0  0  0  0  0  0  0
  140.2040   79.6880  223.8730 C   0  0  0  0  0  0  0  0  0  0  0  0
  139.1680   79.2830  223.0510 C   0  0  0  0  0  0  0  0  0  0  0  0
  139.4490   78.6300  221.8610 C   0  0  0  0  0  0  0  0  0  0  0  0
  138.0910   78.1470  220.8750 Cl  0  0  0  0  0  0  0  0  0  0  0  0
  140.0860   71.3730  223.5470 C   0  0  0  0  0  0  0  0  0  0  0  0
  139.5210   70.1170  223.6040 C   0  0  0  0  0  0  0  0  0  0  0  0
  139.4210   69.3890  224.7800 C   0  0  0  0  0  0  0  0  0  0  0  0
  139.9120   69.9580  225.9470 C   0  0  0  0  0  0  0  0  0  0  0  0
  139.8580   69.3140  227.1680 C   0  0  0  0  0  0  0  0  0  0  0  0
  140.3650   69.9350  228.2970 C   0  0  0  0  0  0  0  0  0  0  0  0
  140.9300   71.2070  228.2020 C   0  0  0  0  0  0  0  0  0  0  0  0
  140.9920   71.8650  226.9900 C   0  0  0  0  0  0  0  0  0  0  0  0
  140.4750   71.2150  225.8790 C   0  0  0  0  0  0  0  0  0  0  0  0
  140.5480   71.8810  224.7100 N   0  0  0  0  0  0  0  0  0  0  0  0
  139.5600   73.9540  223.2110 H   0  0  0  0  0  0  0  0  0  0  0  0
  140.4934   73.7192  220.3552 H   0  0  0  0  0  0  0  0  0  0  0  0
  138.9061   74.4719  220.7482 H   0  0  0  0  0  0  0  0  0  0  0  0
  142.8365   74.8364  220.3134 H   0  0  0  0  0  0  0  0  0  0  0  0
  141.7743   74.9870  218.8328 H   0  0  0  0  0  0  0  0  0  0  0  0
  144.0391   76.7902  219.6965 H   0  0  0  0  0  0  0  0  0  0  0  0
  143.9322   75.8002  218.2291 H   0  0  0  0  0  0  0  0  0  0  0  0
  143.2489   78.0823  217.6208 H   0  0  0  0  0  0  0  0  0  0  0  0
  141.7586   77.0895  217.6515 H   0  0  0  0  0  0  0  0  0  0  0  0
  142.8155   78.8035  219.9314 H   0  0  0  0  0  0  0  0  0  0  0  0
  141.4549   79.2228  218.8167 H   0  0  0  0  0  0  0  0  0  0  0  0
  140.1105   77.6723  219.6051 H   0  0  0  0  0  0  0  0  0  0  0  0
  142.8190   78.5984  222.0402 H   0  0  0  0  0  0  0  0  0  0  0  0
  142.3410   79.7659  224.1600 H   0  0  0  0  0  0  0  0  0  0  0  0
  139.9840   80.2058  224.8183 H   0  0  0  0  0  0  0  0  0  0  0  0
  138.1249   79.4784  223.3405 H   0  0  0  0  0  0  0  0  0  0  0  0
  139.1323   69.6726  222.6758 H   0  0  0  0  0  0  0  0  0  0  0  0
  138.9651   68.3880  224.7878 H   0  0  0  0  0  0  0  0  0  0  0  0
  139.4135   68.3106  227.2431 H   0  0  0  0  0  0  0  0  0  0  0  0
  140.3222   69.4245  229.2704 H   0  0  0  0  0  0  0  0  0  0  0  0
  141.3311   71.6918  229.1042 H   0  0  0  0  0  0  0  0  0  0  0  0
  141.4353   72.8684  226.9083 H   0  0  0  0  0  0  0  0  0  0  0  0
  1  2  2  0
  2  3  1  0
  3  4  1  0
  4  5  1  0
  5  6  2  0
  5  7  1  0
  7  8  1  0
  8  9  1  0
  9 10  1  0
 10 11  1  0
 11 12  1  0
 12 13  1  0
 13 14  2  0
 14 15  1  0
 15 16  2  0
 16 17  1  0
 17 18  2  0
 18 19  1  0
  2 20  1  0
 20 21  2  0
 21 22  1  0
 22 23  2  0
 23 24  1  0
 24 25  2  0
 25 26  1  0
 26 27  2  0
 27 28  1  0
 28 29  2  0
 12  7  1  0
 18 13  1  0
 29 20  1  0
 28 23  1  0
  3 30  1  0
  4 31  1  0
  4 32  1  0
  8 33  1  0
  8 34  1  0
  9 35  1  0
  9 36  1  0
 10 37  1  0
 10 38  1  0
 11 39  1  0
 11 40  1  0
 12 41  1  6
 14 42  1  0
 15 43  1  0
 16 44  1  0
 17 45  1  0
 21 46  1  0
 22 47  1  0
 24 48  1  0
 25 49  1  0
 26 50  1  0
 27 51  1  0
M  END
>  <smiles>  (17) 
O=C(NCC(=O)N1CCCCC1c1ccccc1Cl)c1ccc2ccccc2n1

>  <score_type>  (17) 
oracle

>  <origin>  (17) 
autodockgpu

>  <m_score__min__energy>  (17) 
-9.2200000000000006

>  <m_primary>  (17) 
energy

>  <rmsd>  (17) 
2.0317938997873206

>  <m_score__min__rmsd>  (17) 
2.0317938997873206

>  <meeko>  (17) 
{"free_energy": -9.13, "intermolecular_energy": -10.62, "internal_energy": -1.83, "cluster_size": 39, "cluster_id": 1, "rank_in_cluster": 12}

>  <energy>  (17) 
-9.11

>  <cluster_rmsd>  (17) 
0.34

>  <cluster>  (17) 
1

$$$$

     RDKit          3D

 51 54  0  0  0  0  0  0  0  0999 V2000
  140.4000   71.6920  221.1670 O   0  0  0  0  0  0  0  0  0  0  0  0
  140.1050   72.2680  222.2330 C   0  0  0  0  0  0  0  0  0  0  0  0
  139.8170   73.6550  222.3450 N   0  0  0  0  0  0  0  0  0  0  0  0
  139.8580   74.4830  221.1830 C   0  0  0  0  0  0  0  0  0  0  0  0
  140.7150   75.6810  221.4380 C   0  0  0  0  0  0  0  0  0  0  0  0
  140.7800   76.0560  222.6480 O   0  0  0  0  0  0  0  0  0  0  0  0
  141.4040   76.3490  220.3890 N   0  0  0  0  0  0  0  0  0  0  0  0
  142.3350   75.5800  219.5960 C   0  0  0  0  0  0  0  0  0  0  0  0
  143.3340   76.4150  218.8640 C   0  0  0  0  0  0  0  0  0  0  0  0
  142.5430   77.5480  218.2030 C   0  0  0  0  0  0  0  0  0  0  0  0
  142.0370   78.4640  219.2670 C   0  0  0  0  0  0  0  0  0  0  0  0
  141.1190   77.7500  220.1940 C   0  0  2  0  0  0  0  0  0  0  0  0
  140.9110   78.4680  221.4780 C   0  0  0  0  0  0  0  0  0  0  0  0
  141.9650   78.9690  222.2300 C   0  0  0  0  0  0  0  0  0  0  0  0
  141.7750   79.6390  223.4220 C   0  0  0  0  0  0  0  0  0  0  0  0
  140.4890   79.8210  223.8940 C   0  0  0  0  0  0  0  0  0  0  0  0
  139.4110   79.3370  223.1770 C   0  0  0  0  0  0  0  0  0  0  0  0
  139.6230   78.6680  221.9820 C   0  0  0  0  0  0  0  0  0  0  0  0
  138.2140   78.0850  221.1300 Cl  0  0  0  0  0  0  0  0  0  0  0  0
  140.0480   71.4610  223.4650 C   0  0  0  0  0  0  0  0  0  0  0  0
  139.4880   70.2010  223.4770 C   0  0  0  0  0  0  0  0  0  0  0  0
  139.4210   69.4190  224.6210 C   0  0  0  0  0  0  0  0  0  0  0  0
  139.9420   69.9340  225.7990 C   0  0  0  0  0  0  0  0  0  0  0  0
  139.9230   69.2340  226.9890 C   0  0  0  0  0  0  0  0  0  0  0  0
  140.4590   69.8030  228.1320 C   0  0  0  0  0  0  0  0  0  0  0  0
  141.0180   71.0810  228.0820 C   0  0  0  0  0  0  0  0  0  0  0  0
  141.0450   71.7950  226.9010 C   0  0  0  0  0  0  0  0  0  0  0  0
  140.5000   71.1950  225.7750 C   0  0  0  0  0  0  0  0  0  0  0  0
  140.5400   71.9150  224.6370 N   0  0  0  0  0  0  0  0  0  0  0  0
  139.5770   74.0670  223.2760 H   0  0  0  0  0  0  0  0  0  0  0  0
  140.2747   73.9096  220.3418 H   0  0  0  0  0  0  0  0  0  0  0  0
  138.8377   74.8144  220.9400 H   0  0  0  0  0  0  0  0  0  0  0  0
  142.8779   74.8956  220.2645 H   0  0  0  0  0  0  0  0  0  0  0  0
  141.7452   75.0456  218.8367 H   0  0  0  0  0  0  0  0  0  0  0  0
  144.0745   76.8261  219.5659 H   0  0  0  0  0  0  0  0  0  0  0  0
  143.8824   75.8212  218.1179 H   0  0  0  0  0  0  0  0  0  0  0  0
  143.1977   78.1046  217.5163 H   0  0  0  0  0  0  0  0  0  0  0  0
  141.6982   77.1323  217.6341 H   0  0  0  0  0  0  0  0  0  0  0  0
  142.8906   78.8574  219.8385 H   0  0  0  0  0  0  0  0  0  0  0  0
  141.4824   79.2843  218.7880 H   0  0  0  0  0  0  0  0  0  0  0  0
  140.1582   77.7608  219.6585 H   0  0  0  0  0  0  0  0  0  0  0  0
  142.9916   78.8265  221.8616 H   0  0  0  0  0  0  0  0  0  0  0  0
  142.6360   80.0230  223.9887 H   0  0  0  0  0  0  0  0  0  0  0  0
  140.3229   80.3524  224.8427 H   0  0  0  0  0  0  0  0  0  0  0  0
  138.3878   79.4824  223.5538 H   0  0  0  0  0  0  0  0  0  0  0  0
  139.0768   69.7987  222.5394 H   0  0  0  0  0  0  0  0  0  0  0  0
  138.9669   68.4174  224.5947 H   0  0  0  0  0  0  0  0  0  0  0  0
  139.4831   68.2266  227.0290 H   0  0  0  0  0  0  0  0  0  0  0  0
  140.4442   69.2469  229.0810 H   0  0  0  0  0  0  0  0  0  0  0  0
  141.4422   71.5246  228.9949 H   0  0  0  0  0  0  0  0  0  0  0  0
  141.4827   72.8031  226.8543 H   0  0  0  0  0  0  0  0  0  0  0  0
  1  2  2  0
  2  3  1  0
  3  4  1  0
  4  5  1  0
  5  6  2  0
  5  7  1  0
  7  8  1  0
  8  9  1  0
  9 10  1  0
 10 11  1  0
 11 12  1  0
 12 13  1  0
 13 14  2  0
 14 15  1  0
 15 16  2  0
 16 17  1  0
 17 18  2  0
 18 19  1  0
  2 20  1  0
 20 21  2  0
 21 22  1  0
 22 23  2  0
 23 24  1  0
 24 25  2  0
 25 26  1  0
 26 27  2  0
 27 28  1  0
 28 29  2  0
 12  7  1  0
 18 13  1  0
 29 20  1  0
 28 23  1  0
  3 30  1  0
  4 31  1  0
  4 32  1  0
  8 33  1  0
  8 34  1  0
  9 35  1  0
  9 36  1  0
 10 37  1  0
 10 38  1  0
 11 39  1  0
 11 40  1  0
 12 41  1  6
 14 42  1  0
 15 43  1  0
 16 44  1  0
 17 45  1  0
 21 46  1  0
 22 47  1  0
 24 48  1  0
 25 49  1  0
 26 50  1  0
 27 51  1  0
M  END
>  <smiles>  (18) 
O=C(NCC(=O)N1CCCCC1c1ccccc1Cl)c1ccc2ccccc2n1

>  <score_type>  (18) 
oracle

>  <origin>  (18) 
autodockgpu

>  <m_score__min__energy>  (18) 
-9.2200000000000006

>  <m_primary>  (18) 
energy

>  <rmsd>  (18) 
2.030164389599079

>  <m_score__min__rmsd>  (18) 
2.030164389599079

>  <meeko>  (18) 
{"free_energy": -9.07, "intermolecular_energy": -10.56, "internal_energy": -1.87, "cluster_size": 39, "cluster_id": 1, "rank_in_cluster": 23}

>  <energy>  (18) 
-9.11

>  <cluster_rmsd>  (18) 
0.32

>  <cluster>  (18) 
1

$$$$

     RDKit          3D

 51 54  0  0  0  0  0  0  0  0999 V2000
  140.5750   71.4390  221.2870 O   0  0  0  0  0  0  0  0  0  0  0  0
  140.1910   72.0860  222.2810 C   0  0  0  0  0  0  0  0  0  0  0  0
  139.8860   73.4740  222.2680 N   0  0  0  0  0  0  0  0  0  0  0  0
  140.0140   74.2170  221.0560 C   0  0  0  0  0  0  0  0  0  0  0  0
  140.7270   75.5050  221.3170 C   0  0  0  0  0  0  0  0  0  0  0  0
  140.6970   75.9080  222.5200 O   0  0  0  0  0  0  0  0  0  0  0  0
  141.3870   76.2220  220.2820 N   0  0  0  0  0  0  0  0  0  0  0  0
  142.3540   75.5100  219.4790 C   0  0  0  0  0  0  0  0  0  0  0  0
  143.3150   76.4030  218.7650 C   0  0  0  0  0  0  0  0  0  0  0  0
  142.4750   77.5100  218.1210 C   0  0  0  0  0  0  0  0  0  0  0  0
  141.9240   78.3830  219.1990 C   0  0  0  0  0  0  0  0  0  0  0  0
  141.0380   77.6120  220.1110 C   0  0  2  0  0  0  0  0  0  0  0  0
  140.7930   78.2970  221.4060 C   0  0  0  0  0  0  0  0  0  0  0  0
  141.8270   78.7780  222.1990 C   0  0  0  0  0  0  0  0  0  0  0  0
  141.6020   79.4170  223.4030 C   0  0  0  0  0  0  0  0  0  0  0  0
  140.3040   79.5870  223.8430 C   0  0  0  0  0  0  0  0  0  0  0  0
  139.2460   79.1220  223.0840 C   0  0  0  0  0  0  0  0  0  0  0  0
  139.4920   78.4840  221.8790 C   0  0  0  0  0  0  0  0  0  0  0  0
  138.1080   77.9220  220.9730 Cl  0  0  0  0  0  0  0  0  0  0  0  0
  140.0410   71.3700  223.5600 C   0  0  0  0  0  0  0  0  0  0  0  0
  139.3870   70.1590  223.6360 C   0  0  0  0  0  0  0  0  0  0  0  0
  139.2300   69.4610  224.8250 C   0  0  0  0  0  0  0  0  0  0  0  0
  139.7590   70.0140  225.9830 C   0  0  0  0  0  0  0  0  0  0  0  0
  139.6550   69.3980  227.2150 C   0  0  0  0  0  0  0  0  0  0  0  0
  140.2030   70.0000  228.3350 C   0  0  0  0  0  0  0  0  0  0  0  0
  140.8590   71.2270  228.2190 C   0  0  0  0  0  0  0  0  0  0  0  0
  140.9720   71.8560  226.9960 C   0  0  0  0  0  0  0  0  0  0  0  0
  140.4110   71.2250  225.8950 C   0  0  0  0  0  0  0  0  0  0  0  0
  140.5360   71.8630  224.7150 N   0  0  0  0  0  0  0  0  0  0  0  0
  139.5680   73.9490  223.1440 H   0  0  0  0  0  0  0  0  0  0  0  0
  140.5858   73.6260  220.3254 H   0  0  0  0  0  0  0  0  0  0  0  0
  139.0115   74.4340  220.6587 H   0  0  0  0  0  0  0  0  0  0  0  0
  142.9261   74.8398  220.1374 H   0  0  0  0  0  0  0  0  0  0  0  0
  141.7914   74.9618  218.7090 H   0  0  0  0  0  0  0  0  0  0  0  0
  144.0340   76.8353  219.4765 H   0  0  0  0  0  0  0  0  0  0  0  0
  143.8917   75.8481  218.0103 H   0  0  0  0  0  0  0  0  0  0  0  0
  143.1057   78.1081  217.4468 H   0  0  0  0  0  0  0  0  0  0  0  0
  141.6520   77.0662  217.5416 H   0  0  0  0  0  0  0  0  0  0  0  0
  142.7569   78.8059  219.7798 H   0  0  0  0  0  0  0  0  0  0  0  0
  141.3326   79.1843  218.7319 H   0  0  0  0  0  0  0  0  0  0  0  0
  140.0787   77.5883  219.5733 H   0  0  0  0  0  0  0  0  0  0  0  0
  142.8635   78.6452  221.8556 H   0  0  0  0  0  0  0  0  0  0  0  0
  142.4464   79.7859  224.0038 H   0  0  0  0  0  0  0  0  0  0  0  0
  140.1113   80.0938  224.8001 H   0  0  0  0  0  0  0  0  0  0  0  0
  138.2126   79.2581  223.4356 H   0  0  0  0  0  0  0  0  0  0  0  0
  138.9713   69.7270  222.7137 H   0  0  0  0  0  0  0  0  0  0  0  0
  138.7013   68.4967  224.8491 H   0  0  0  0  0  0  0  0  0  0  0  0
  139.1380   68.4314  227.3061 H   0  0  0  0  0  0  0  0  0  0  0  0
  140.1215   69.5111  229.3170 H   0  0  0  0  0  0  0  0  0  0  0  0
  141.2913   71.6983  229.1140 H   0  0  0  0  0  0  0  0  0  0  0  0
  141.4880   72.8224  226.8976 H   0  0  0  0  0  0  0  0  0  0  0  0
  1  2  2  0
  2  3  1  0
  3  4  1  0
  4  5  1  0
  5  6  2  0
  5  7  1  0
  7  8  1  0
  8  9  1  0
  9 10  1  0
 10 11  1  0
 11 12  1  0
 12 13  1  0
 13 14  2  0
 14 15  1  0
 15 16  2  0
 16 17  1  0
 17 18  2  0
 18 19  1  0
  2 20  1  0
 20 21  2  0
 21 22  1  0
 22 23  2  0
 23 24  1  0
 24 25  2  0
 25 26  1  0
 26 27  2  0
 27 28  1  0
 28 29  2  0
 12  7  1  0
 18 13  1  0
 29 20  1  0
 28 23  1  0
  3 30  1  0
  4 31  1  0
  4 32  1  0
  8 33  1  0
  8 34  1  0
  9 35  1  0
  9 36  1  0
 10 37  1  0
 10 38  1  0
 11 39  1  0
 11 40  1  0
 12 41  1  6
 14 42  1  0
 15 43  1  0
 16 44  1  0
 17 45  1  0
 21 46  1  0
 22 47  1  0
 24 48  1  0
 25 49  1  0
 26 50  1  0
 27 51  1  0
M  END
>  <smiles>  (19) 
O=C(NCC(=O)N1CCCCC1c1ccccc1Cl)c1ccc2ccccc2n1

>  <score_type>  (19) 
oracle

>  <origin>  (19) 
autodockgpu

>  <m_score__min__energy>  (19) 
-9.2200000000000006

>  <m_primary>  (19) 
energy

>  <rmsd>  (19) 
2.0179585112072385

>  <m_score__min__rmsd>  (19) 
2.0179585112072385

>  <meeko>  (19) 
{"free_energy": -9.1, "intermolecular_energy": -10.59, "internal_energy": -1.86, "cluster_size": 39, "cluster_id": 1, "rank_in_cluster": 21}

>  <energy>  (19) 
-9.1

>  <cluster_rmsd>  (19) 
0.35

>  <cluster>  (19) 
1

$$$$

     RDKit          3D

 51 54  0  0  0  0  0  0  0  0999 V2000
  139.7460   70.9000  221.1460 O   0  0  0  0  0  0  0  0  0  0  0  0
  140.1700   71.5800  222.1030 C   0  0  0  0  0  0  0  0  0  0  0  0
  140.7390   72.8760  221.9790 N   0  0  0  0  0  0  0  0  0  0  0  0
  140.8520   73.4800  220.6900 C   0  0  0  0  0  0  0  0  0  0  0  0
  141.3230   74.8930  220.8270 C   0  0  0  0  0  0  0  0  0  0  0  0
  141.3840   75.3330  222.0150 O   0  0  0  0  0  0  0  0  0  0  0  0
  141.6740   75.6810  219.6970 N   0  0  0  0  0  0  0  0  0  0  0  0
  140.6030   76.2650  218.9230 C   0  0  0  0  0  0  0  0  0  0  0  0
  141.0070   76.6560  217.5390 C   0  0  0  0  0  0  0  0  0  0  0  0
  142.3320   77.4120  217.6760 C   0  0  0  0  0  0  0  0  0  0  0  0
  143.3940   76.4470  218.0880 C   0  0  0  0  0  0  0  0  0  0  0  0
  143.0790   75.8380  219.4090 C   0  0  2  0  0  0  0  0  0  0  0  0
  143.8540   74.6010  219.6810 C   0  0  0  0  0  0  0  0  0  0  0  0
  144.8210   74.5320  220.6750 C   0  0  0  0  0  0  0  0  0  0  0  0
  145.5420   73.3820  220.9310 C   0  0  0  0  0  0  0  0  0  0  0  0
  145.3000   72.2530  220.1740 C   0  0  0  0  0  0  0  0  0  0  0  0
  144.3450   72.2790  219.1740 C   0  0  0  0  0  0  0  0  0  0  0  0
  143.6320   73.4420  218.9320 C   0  0  0  0  0  0  0  0  0  0  0  0
  142.4440   73.4010  217.6530 Cl  0  0  0  0  0  0  0  0  0  0  0  0
  140.0770   71.0050  223.4560 C   0  0  0  0  0  0  0  0  0  0  0  0
  139.4690   69.7890  223.6840 C   0  0  0  0  0  0  0  0  0  0  0  0
  139.3670   69.2230  224.9460 C   0  0  0  0  0  0  0  0  0  0  0  0
  139.9030   69.9190  226.0210 C   0  0  0  0  0  0  0  0  0  0  0  0
  139.8520   69.4400  227.3160 C   0  0  0  0  0  0  0  0  0  0  0  0
  140.4050   70.1810  228.3460 C   0  0  0  0  0  0  0  0  0  0  0  0
  141.0120   71.4090  228.0780 C   0  0  0  0  0  0  0  0  0  0  0  0
  141.0720   71.9020  226.7900 C   0  0  0  0  0  0  0  0  0  0  0  0
  140.5090   71.1340  225.7820 C   0  0  0  0  0  0  0  0  0  0  0  0
  140.5810   71.6400  224.5350 N   0  0  0  0  0  0  0  0  0  0  0  0
  141.0720   73.3850  222.8300 H   0  0  0  0  0  0  0  0  0  0  0  0
  141.5735   72.9126  220.0838 H   0  0  0  0  0  0  0  0  0  0  0  0
  139.8670   73.4735  220.2004 H   0  0  0  0  0  0  0  0  0  0  0  0
  139.7858   75.5320  218.8523 H   0  0  0  0  0  0  0  0  0  0  0  0
  140.2969   77.1859  219.4410 H   0  0  0  0  0  0  0  0  0  0  0  0
  141.1420   75.7607  216.9143 H   0  0  0  0  0  0  0  0  0  0  0  0
  140.2384   77.2796  217.0590 H   0  0  0  0  0  0  0  0  0  0  0  0
  142.5998   77.8672  216.7111 H   0  0  0  0  0  0  0  0  0  0  0  0
  142.2339   78.2059  218.4311 H   0  0  0  0  0  0  0  0  0  0  0  0
  143.4683   75.6502  217.3333 H   0  0  0  0  0  0  0  0  0  0  0  0
  144.3472   76.9898  218.1710 H   0  0  0  0  0  0  0  0  0  0  0  0
  143.4212   76.5969  220.1280 H   0  0  0  0  0  0  0  0  0  0  0  0
  145.0205   75.4275  221.2819 H   0  0  0  0  0  0  0  0  0  0  0  0
  146.2997   73.3659  221.7282 H   0  0  0  0  0  0  0  0  0  0  0  0
  145.8680   71.3309  220.3667 H   0  0  0  0  0  0  0  0  0  0  0  0
  144.1520   71.3786  218.5723 H   0  0  0  0  0  0  0  0  0  0  0  0
  139.0462   69.2437  222.8274 H   0  0  0  0  0  0  0  0  0  0  0  0
  138.8752   68.2498  225.0911 H   0  0  0  0  0  0  0  0  0  0  0  0
  139.3733   68.4725  227.5278 H   0  0  0  0  0  0  0  0  0  0  0  0
  140.3660   69.8014  229.3777 H   0  0  0  0  0  0  0  0  0  0  0  0
  141.4479   71.9911  228.9033 H   0  0  0  0  0  0  0  0  0  0  0  0
  141.5490   72.8688  226.5713 H   0  0  0  0  0  0  0  0  0  0  0  0
  1  2  2  0
  2  3  1  0
  3  4  1  0
  4  5  1  0
  5  6  2  0
  5  7  1  0
  7  8  1  0
  8  9  1  0
  9 10  1  0
 10 11  1  0
 11 12  1  0
 12 13  1  0
 13 14  2  0
 14 15  1  0
 15 16  2  0
 16 17  1  0
 17 18  2  0
 18 19  1  0
  2 20  1  0
 20 21  2  0
 21 22  1  0
 22 23  2  0
 23 24  1  0
 24 25  2  0
 25 26  1  0
 26 27  2  0
 27 28  1  0
 28 29  2  0
 12  7  1  0
 18 13  1  0
 29 20  1  0
 28 23  1  0
  3 30  1  0
  4 31  1  0
  4 32  1  0
  8 33  1  0
  8 34  1  0
  9 35  1  0
  9 36  1  0
 10 37  1  0
 10 38  1  0
 11 39  1  0
 11 40  1  0
 12 41  1  1
 14 42  1  0
 15 43  1  0
 16 44  1  0
 17 45  1  0
 21 46  1  0
 22 47  1  0
 24 48  1  0
 25 49  1  0
 26 50  1  0
 27 51  1  0
M  END
>  <smiles>  (20) 
O=C(NCC(=O)N1CCCCC1c1ccccc1Cl)c1ccc2ccccc2n1

>  <score_type>  (20) 
oracle

>  <origin>  (20) 
autodockgpu

>  <m_score__min__energy>  (20) 
-9.2200000000000006

>  <m_primary>  (20) 
energy

>  <rmsd>  (20) 
1.9933839643641555

>  <m_score__min__rmsd>  (20) 
1.9933839643641555

>  <meeko>  (20) 
{"free_energy": -7.86, "intermolecular_energy": -9.35, "internal_energy": -2.52, "cluster_size": 7, "cluster_id": 2, "rank_in_cluster": 7}

>  <energy>  (20) 
-9.1

>  <cluster_rmsd>  (20) 
0.46

>  <cluster>  (20) 
1

$$$$

     RDKit          3D

 51 54  0  0  0  0  0  0  0  0999 V2000
  140.5580   71.3550  221.2080 O   0  0  0  0  0  0  0  0  0  0  0  0
  140.2650   72.0300  222.2150 C   0  0  0  0  0  0  0  0  0  0  0  0
  140.0110   73.4290  222.2000 N   0  0  0  0  0  0  0  0  0  0  0  0
  140.0840   74.1490  220.9690 C   0  0  0  0  0  0  0  0  0  0  0  0
  140.9920   75.3270  221.1190 C   0  0  0  0  0  0  0  0  0  0  0  0
  141.2880   75.6370  222.3140 O   0  0  0  0  0  0  0  0  0  0  0  0
  141.4830   76.0460  219.9950 N   0  0  0  0  0  0  0  0  0  0  0  0
  140.5500   76.8680  219.2590 C   0  0  0  0  0  0  0  0  0  0  0  0
  141.0010   77.1930  217.8730 C   0  0  0  0  0  0  0  0  0  0  0  0
  142.4620   77.6380  217.9900 C   0  0  0  0  0  0  0  0  0  0  0  0
  143.2950   76.4550  218.3570 C   0  0  0  0  0  0  0  0  0  0  0  0
  142.8820   75.8990  219.6740 C   0  0  2  0  0  0  0  0  0  0  0  0
  143.3730   74.5160  219.9030 C   0  0  0  0  0  0  0  0  0  0  0  0
  144.3830   74.2260  220.8120 C   0  0  0  0  0  0  0  0  0  0  0  0
  144.8400   72.9410  221.0280 C   0  0  0  0  0  0  0  0  0  0  0  0
  144.2780   71.8980  220.3180 C   0  0  0  0  0  0  0  0  0  0  0  0
  143.2700   72.1430  219.4030 C   0  0  0  0  0  0  0  0  0  0  0  0
  142.8260   73.4400  219.2010 C   0  0  0  0  0  0  0  0  0  0  0  0
  141.5510   73.6750  218.0300 Cl  0  0  0  0  0  0  0  0  0  0  0  0
  140.1750   71.3380  223.5120 C   0  0  0  0  0  0  0  0  0  0  0  0
  139.6120   70.0850  223.6240 C   0  0  0  0  0  0  0  0  0  0  0  0
  139.5140   69.4080  224.8310 C   0  0  0  0  0  0  0  0  0  0  0  0
  140.0070   70.0280  225.9710 C   0  0  0  0  0  0  0  0  0  0  0  0
  139.9560   69.4380  227.2180 C   0  0  0  0  0  0  0  0  0  0  0  0
  140.4650   70.1070  228.3180 C   0  0  0  0  0  0  0  0  0  0  0  0
  141.0290   71.3740  228.1670 C   0  0  0  0  0  0  0  0  0  0  0  0
  141.0880   71.9790  226.9280 C   0  0  0  0  0  0  0  0  0  0  0  0
  140.5690   71.2810  225.8480 C   0  0  0  0  0  0  0  0  0  0  0  0
  140.6400   71.8950  224.6510 N   0  0  0  0  0  0  0  0  0  0  0  0
  139.7700   73.9270  223.0870 H   0  0  0  0  0  0  0  0  0  0  0  0
  140.4737   73.4865  220.1820 H   0  0  0  0  0  0  0  0  0  0  0  0
  139.0781   74.5008  220.6961 H   0  0  0  0  0  0  0  0  0  0  0  0
  139.5908   76.3333  219.1958 H   0  0  0  0  0  0  0  0  0  0  0  0
  140.4638   77.8212  219.8012 H   0  0  0  0  0  0  0  0  0  0  0  0
  140.9238   76.3045  217.2291 H   0  0  0  0  0  0  0  0  0  0  0  0
  140.3778   77.9804  217.4239 H   0  0  0  0  0  0  0  0  0  0  0  0
  142.8028   78.0462  217.0271 H   0  0  0  0  0  0  0  0  0  0  0  0
  142.5560   78.4163  218.7617 H   0  0  0  0  0  0  0  0  0  0  0  0
  143.1771   75.6791  217.5862 H   0  0  0  0  0  0  0  0  0  0  0  0
  144.3455   76.7741  218.4255 H   0  0  0  0  0  0  0  0  0  0  0  0
  143.3968   76.5477  220.3980 H   0  0  0  0  0  0  0  0  0  0  0  0
  144.8357   75.0513  221.3811 H   0  0  0  0  0  0  0  0  0  0  0  0
  145.6418   72.7503  221.7566 H   0  0  0  0  0  0  0  0  0  0  0  0
  144.6330   70.8697  220.4807 H   0  0  0  0  0  0  0  0  0  0  0  0
  142.8228   71.3118  218.8381 H   0  0  0  0  0  0  0  0  0  0  0  0
  139.2232   69.6003  222.7163 H   0  0  0  0  0  0  0  0  0  0  0  0
  139.0585   68.4081  224.8832 H   0  0  0  0  0  0  0  0  0  0  0  0
  139.5120   68.4387  227.3374 H   0  0  0  0  0  0  0  0  0  0  0  0
  140.4246   69.6388  229.3126 H   0  0  0  0  0  0  0  0  0  0  0  0
  141.4318   71.8974  229.0466 H   0  0  0  0  0  0  0  0  0  0  0  0
  141.5304   72.9782  226.8018 H   0  0  0  0  0  0  0  0  0  0  0  0
  1  2  2  0
  2  3  1  0
  3  4  1  0
  4  5  1  0
  5  6  2  0
  5  7  1  0
  7  8  1  0
  8  9  1  0
  9 10  1  0
 10 11  1  0
 11 12  1  0
 12 13  1  0
 13 14  2  0
 14 15  1  0
 15 16  2  0
 16 17  1  0
 17 18  2  0
 18 19  1  0
  2 20  1  0
 20 21  2  0
 21 22  1  0
 22 23  2  0
 23 24  1  0
 24 25  2  0
 25 26  1  0
 26 27  2  0
 27 28  1  0
 28 29  2  0
 12  7  1  0
 18 13  1  0
 29 20  1  0
 28 23  1  0
  3 30  1  0
  4 31  1  0
  4 32  1  0
  8 33  1  0
  8 34  1  0
  9 35  1  0
  9 36  1  0
 10 37  1  0
 10 38  1  0
 11 39  1  0
 11 40  1  0
 12 41  1  1
 14 42  1  0
 15 43  1  0
 16 44  1  0
 17 45  1  0
 21 46  1  0
 22 47  1  0
 24 48  1  0
 25 49  1  0
 26 50  1  0
 27 51  1  0
M  END
>  <smiles>  (21) 
O=C(NCC(=O)N1CCCCC1c1ccccc1Cl)c1ccc2ccccc2n1

>  <score_type>  (21) 
oracle

>  <origin>  (21) 
autodockgpu

>  <m_score__min__energy>  (21) 
-9.2200000000000006

>  <m_primary>  (21) 
energy

>  <rmsd>  (21) 
1.930293477701859

>  <m_score__min__rmsd>  (21) 
1.930293477701859

>  <meeko>  (21) 
{"free_energy": -8.11, "intermolecular_energy": -9.6, "internal_energy": -2.42, "cluster_size": 7, "cluster_id": 2, "rank_in_cluster": 4}

>  <energy>  (21) 
-9.1

>  <cluster_rmsd>  (21) 
0.37

>  <cluster>  (21) 
1

$$$$

     RDKit          3D

 51 54  0  0  0  0  0  0  0  0999 V2000
  141.1680   72.3620  221.4780 O   0  0  0  0  0  0  0  0  0  0  0  0
  140.3070   72.6380  222.3390 C   0  0  0  0  0  0  0  0  0  0  0  0
  139.4550   73.7740  222.2890 N   0  0  0  0  0  0  0  0  0  0  0  0
  139.5550   74.6880  221.1970 C   0  0  0  0  0  0  0  0  0  0  0  0
  140.6360   75.6860  221.4630 C   0  0  0  0  0  0  0  0  0  0  0  0
  140.8370   75.9560  222.6870 O   0  0  0  0  0  0  0  0  0  0  0  0
  141.3800   76.2870  220.4110 N   0  0  0  0  0  0  0  0  0  0  0  0
  142.2750   75.4460  219.6520 C   0  0  0  0  0  0  0  0  0  0  0  0
  143.3330   76.2030  218.9180 C   0  0  0  0  0  0  0  0  0  0  0  0
  142.6220   77.3650  218.2180 C   0  0  0  0  0  0  0  0  0  0  0  0
  142.1550   78.3340  219.2530 C   0  0  0  0  0  0  0  0  0  0  0  0
  141.1810   77.6980  220.1810 C   0  0  2  0  0  0  0  0  0  0  0  0
  140.9970   78.4570  221.4440 C   0  0  0  0  0  0  0  0  0  0  0  0
  142.0680   78.9460  222.1810 C   0  0  0  0  0  0  0  0  0  0  0  0
  141.8990   79.6530  223.3550 C   0  0  0  0  0  0  0  0  0  0  0  0
  140.6200   79.8870  223.8230 C   0  0  0  0  0  0  0  0  0  0  0  0
  139.5260   79.4180  223.1190 C   0  0  0  0  0  0  0  0  0  0  0  0
  139.7170   78.7100  221.9430 C   0  0  0  0  0  0  0  0  0  0  0  0
  138.2900   78.1470  221.1080 Cl  0  0  0  0  0  0  0  0  0  0  0  0
  140.1600   71.7280  223.4880 C   0  0  0  0  0  0  0  0  0  0  0  0
  139.4670   70.5410  223.3850 C   0  0  0  0  0  0  0  0  0  0  0  0
  139.3120   69.6640  224.4490 C   0  0  0  0  0  0  0  0  0  0  0  0
  139.8830   70.0050  225.6670 C   0  0  0  0  0  0  0  0  0  0  0  0
  139.7850   69.2010  226.7850 C   0  0  0  0  0  0  0  0  0  0  0  0
  140.3770   69.5970  227.9730 C   0  0  0  0  0  0  0  0  0  0  0  0
  141.0710   70.8050  228.0400 C   0  0  0  0  0  0  0  0  0  0  0  0
  141.1790   71.6220  226.9320 C   0  0  0  0  0  0  0  0  0  0  0  0
  140.5750   71.1950  225.7590 C   0  0  0  0  0  0  0  0  0  0  0  0
  140.6960   72.0120  224.6940 N   0  0  0  0  0  0  0  0  0  0  0  0
  138.7560   73.9380  223.0500 H   0  0  0  0  0  0  0  0  0  0  0  0
  139.7904   74.1324  220.2773 H   0  0  0  0  0  0  0  0  0  0  0  0
  138.5972   75.2159  221.0791 H   0  0  0  0  0  0  0  0  0  0  0  0
  142.7658   74.7468  220.3450 H   0  0  0  0  0  0  0  0  0  0  0  0
  141.6662   74.9293  218.8954 H   0  0  0  0  0  0  0  0  0  0  0  0
  144.0858   76.5860  219.6227 H   0  0  0  0  0  0  0  0  0  0  0  0
  143.8561   75.5601  218.1948 H   0  0  0  0  0  0  0  0  0  0  0  0
  143.3197   77.8655  217.5304 H   0  0  0  0  0  0  0  0  0  0  0  0
  141.7632   76.9874  217.6437 H   0  0  0  0  0  0  0  0  0  0  0  0
  143.0217   78.6891  219.8298 H   0  0  0  0  0  0  0  0  0  0  0  0
  141.6576   79.1741  218.7462 H   0  0  0  0  0  0  0  0  0  0  0  0
  140.2298   77.7535  219.6314 H   0  0  0  0  0  0  0  0  0  0  0  0
  143.0893   78.7631  221.8156 H   0  0  0  0  0  0  0  0  0  0  0  0
  142.7720   80.0255  223.9110 H   0  0  0  0  0  0  0  0  0  0  0  0
  140.4717   80.4476  224.7577 H   0  0  0  0  0  0  0  0  0  0  0  0
  138.5081   79.6062  223.4910 H   0  0  0  0  0  0  0  0  0  0  0  0
  139.0169   70.2773  222.4165 H   0  0  0  0  0  0  0  0  0  0  0  0
  138.7521   68.7246  224.3304 H   0  0  0  0  0  0  0  0  0  0  0  0
  139.2380   68.2481  226.7325 H   0  0  0  0  0  0  0  0  0  0  0  0
  140.2997   68.9578  228.8649 H   0  0  0  0  0  0  0  0  0  0  0  0
  141.5383   71.1108  228.9877 H   0  0  0  0  0  0  0  0  0  0  0  0
  141.7241   72.5764  226.9781 H   0  0  0  0  0  0  0  0  0  0  0  0
  1  2  2  0
  2  3  1  0
  3  4  1  0
  4  5  1  0
  5  6  2  0
  5  7  1  0
  7  8  1  0
  8  9  1  0
  9 10  1  0
 10 11  1  0
 11 12  1  0
 12 13  1  0
 13 14  2  0
 14 15  1  0
 15 16  2  0
 16 17  1  0
 17 18  2  0
 18 19  1  0
  2 20  1  0
 20 21  2  0
 21 22  1  0
 22 23  2  0
 23 24  1  0
 24 25  2  0
 25 26  1  0
 26 27  2  0
 27 28  1  0
 28 29  2  0
 12  7  1  0
 18 13  1  0
 29 20  1  0
 28 23  1  0
  3 30  1  0
  4 31  1  0
  4 32  1  0
  8 33  1  0
  8 34  1  0
  9 35  1  0
  9 36  1  0
 10 37  1  0
 10 38  1  0
 11 39  1  0
 11 40  1  0
 12 41  1  6
 14 42  1  0
 15 43  1  0
 16 44  1  0
 17 45  1  0
 21 46  1  0
 22 47  1  0
 24 48  1  0
 25 49  1  0
 26 50  1  0
 27 51  1  0
M  END
>  <smiles>  (22) 
O=C(NCC(=O)N1CCCCC1c1ccccc1Cl)c1ccc2ccccc2n1

>  <score_type>  (22) 
oracle

>  <origin>  (22) 
autodockgpu

>  <m_score__min__energy>  (22) 
-9.2200000000000006

>  <m_primary>  (22) 
energy

>  <rmsd>  (22) 
2.0500773930864837

>  <m_score__min__rmsd>  (22) 
2.0500773930864837

>  <meeko>  (22) 
{"free_energy": -9.08, "intermolecular_energy": -10.57, "internal_energy": -1.66, "cluster_size": 39, "cluster_id": 1, "rank_in_cluster": 22}

>  <energy>  (22) 
-9.08

>  <cluster_rmsd>  (22) 
0.33

>  <cluster>  (22) 
1

$$$$

     RDKit          3D

 51 54  0  0  0  0  0  0  0  0999 V2000
  140.2230   71.5940  221.1660 O   0  0  0  0  0  0  0  0  0  0  0  0
  139.9910   72.1790  222.2430 C   0  0  0  0  0  0  0  0  0  0  0  0
  139.7180   73.5690  222.3600 N   0  0  0  0  0  0  0  0  0  0  0  0
  139.6980   74.3890  221.1910 C   0  0  0  0  0  0  0  0  0  0  0  0
  140.1440   75.7750  221.5300 C   0  0  0  0  0  0  0  0  0  0  0  0
  139.8710   76.1610  222.7080 O   0  0  0  0  0  0  0  0  0  0  0  0
  140.8240   76.5960  220.5900 N   0  0  0  0  0  0  0  0  0  0  0  0
  142.0340   76.0800  219.9940 C   0  0  0  0  0  0  0  0  0  0  0  0
  142.9150   77.1370  219.4130 C   0  0  0  0  0  0  0  0  0  0  0  0
  142.0040   78.0500  218.5880 C   0  0  0  0  0  0  0  0  0  0  0  0
  141.1170   78.8100  219.5180 C   0  0  0  0  0  0  0  0  0  0  0  0
  140.2500   77.8890  220.3010 C   0  0  2  0  0  0  0  0  0  0  0  0
  139.6580   78.5260  221.5040 C   0  0  0  0  0  0  0  0  0  0  0  0
  138.2870   78.5940  221.7120 C   0  0  0  0  0  0  0  0  0  0  0  0
  137.7340   79.1850  222.8310 C   0  0  0  0  0  0  0  0  0  0  0  0
  138.5680   79.7340  223.7850 C   0  0  0  0  0  0  0  0  0  0  0  0
  139.9400   79.6880  223.6170 C   0  0  0  0  0  0  0  0  0  0  0  0
  140.4750   79.0900  222.4870 C   0  0  0  0  0  0  0  0  0  0  0  0
  142.2160   79.0700  222.3410 Cl  0  0  0  0  0  0  0  0  0  0  0  0
  139.9990   71.3820  223.4810 C   0  0  0  0  0  0  0  0  0  0  0  0
  139.5320   70.0850  223.5080 C   0  0  0  0  0  0  0  0  0  0  0  0
  139.5280   69.3100  224.6580 C   0  0  0  0  0  0  0  0  0  0  0  0
  140.0160   69.8730  225.8290 C   0  0  0  0  0  0  0  0  0  0  0  0
  140.0540   69.1840  227.0250 C   0  0  0  0  0  0  0  0  0  0  0  0
  140.5540   69.8000  228.1600 C   0  0  0  0  0  0  0  0  0  0  0  0
  141.0190   71.1140  228.0950 C   0  0  0  0  0  0  0  0  0  0  0  0
  140.9880   71.8180  226.9080 C   0  0  0  0  0  0  0  0  0  0  0  0
  140.4810   71.1700  225.7910 C   0  0  0  0  0  0  0  0  0  0  0  0
  140.4640   71.8810  224.6460 N   0  0  0  0  0  0  0  0  0  0  0  0
  139.5320   73.9890  223.3000 H   0  0  0  0  0  0  0  0  0  0  0  0
  140.3750   73.9631  220.4358 H   0  0  0  0  0  0  0  0  0  0  0  0
  138.6727   74.4269  220.7944 H   0  0  0  0  0  0  0  0  0  0  0  0
  142.6008   75.5425  220.7685 H   0  0  0  0  0  0  0  0  0  0  0  0
  141.7297   75.4237  219.1653 H   0  0  0  0  0  0  0  0  0  0  0  0
  143.4026   77.7099  220.2155 H   0  0  0  0  0  0  0  0  0  0  0  0
  143.7097   76.6982  218.7918 H   0  0  0  0  0  0  0  0  0  0  0  0
  142.6159   78.7527  218.0034 H   0  0  0  0  0  0  0  0  0  0  0  0
  141.3947   77.4469  217.8988 H   0  0  0  0  0  0  0  0  0  0  0  0
  141.7396   79.3943  220.2115 H   0  0  0  0  0  0  0  0  0  0  0  0
  140.4738   79.4751  218.9231 H   0  0  0  0  0  0  0  0  0  0  0  0
  139.4214   77.6714  219.6110 H   0  0  0  0  0  0  0  0  0  0  0  0
  137.6154   78.1604  220.9564 H   0  0  0  0  0  0  0  0  0  0  0  0
  136.6422   79.2180  222.9608 H   0  0  0  0  0  0  0  0  0  0  0  0
  138.1402   80.2088  224.6803 H   0  0  0  0  0  0  0  0  0  0  0  0
  140.6042   80.1245  224.3775 H   0  0  0  0  0  0  0  0  0  0  0  0
  139.1456   69.6457  222.5765 H   0  0  0  0  0  0  0  0  0  0  0  0
  139.1486   68.2776  224.6426 H   0  0  0  0  0  0  0  0  0  0  0  0
  139.6879   68.1480  227.0761 H   0  0  0  0  0  0  0  0  0  0  0  0
  140.5846   69.2529  229.1138 H   0  0  0  0  0  0  0  0  0  0  0  0
  141.4154   71.5951  229.0013 H   0  0  0  0  0  0  0  0  0  0  0  0
  141.3519   72.8545  226.8499 H   0  0  0  0  0  0  0  0  0  0  0  0
  1  2  2  0
  2  3  1  0
  3  4  1  0
  4  5  1  0
  5  6  2  0
  5  7  1  0
  7  8  1  0
  8  9  1  0
  9 10  1  0
 10 11  1  0
 11 12  1  0
 12 13  1  0
 13 14  2  0
 14 15  1  0
 15 16  2  0
 16 17  1  0
 17 18  2  0
 18 19  1  0
  2 20  1  0
 20 21  2  0
 21 22  1  0
 22 23  2  0
 23 24  1  0
 24 25  2  0
 25 26  1  0
 26 27  2  0
 27 28  1  0
 28 29  2  0
 12  7  1  0
 18 13  1  0
 29 20  1  0
 28 23  1  0
  3 30  1  0
  4 31  1  0
  4 32  1  0
  8 33  1  0
  8 34  1  0
  9 35  1  0
  9 36  1  0
 10 37  1  0
 10 38  1  0
 11 39  1  0
 11 40  1  0
 12 41  1  6
 14 42  1  0
 15 43  1  0
 16 44  1  0
 17 45  1  0
 21 46  1  0
 22 47  1  0
 24 48  1  0
 25 49  1  0
 26 50  1  0
 27 51  1  0
M  END
>  <smiles>  (23) 
O=C(NCC(=O)N1CCCCC1c1ccccc1Cl)c1ccc2ccccc2n1

>  <score_type>  (23) 
oracle

>  <origin>  (23) 
autodockgpu

>  <m_score__min__energy>  (23) 
-9.2200000000000006

>  <m_primary>  (23) 
energy

>  <rmsd>  (23) 
2.0704901968831146

>  <m_score__min__rmsd>  (23) 
2.0704901968831146

>  <meeko>  (23) 
{"free_energy": -8.62, "intermolecular_energy": -10.11, "internal_energy": -1.84, "cluster_size": 39, "cluster_id": 1, "rank_in_cluster": 36}

>  <energy>  (23) 
-9.07

>  <cluster_rmsd>  (23) 
0.4

>  <cluster>  (23) 
1

$$$$

     RDKit          3D

 51 54  0  0  0  0  0  0  0  0999 V2000
  140.6670   71.5330  221.3300 O   0  0  0  0  0  0  0  0  0  0  0  0
  140.2580   72.1470  222.3360 C   0  0  0  0  0  0  0  0  0  0  0  0
  139.9030   73.5230  222.3490 N   0  0  0  0  0  0  0  0  0  0  0  0
  140.0060   74.2930  221.1510 C   0  0  0  0  0  0  0  0  0  0  0  0
  140.7430   75.5660  221.4220 C   0  0  0  0  0  0  0  0  0  0  0  0
  140.6920   75.9780  222.6210 O   0  0  0  0  0  0  0  0  0  0  0  0
  141.4470   76.2590  220.4000 N   0  0  0  0  0  0  0  0  0  0  0  0
  142.4420   75.5270  219.6500 C   0  0  0  0  0  0  0  0  0  0  0  0
  143.4340   76.4010  218.9570 C   0  0  0  0  0  0  0  0  0  0  0  0
  142.6260   77.4980  218.2580 C   0  0  0  0  0  0  0  0  0  0  0  0
  142.0380   78.3960  219.2960 C   0  0  0  0  0  0  0  0  0  0  0  0
  141.1120   77.6460  220.1880 C   0  0  2  0  0  0  0  0  0  0  0  0
  140.8200   78.3580  221.4580 C   0  0  0  0  0  0  0  0  0  0  0  0
  141.8240   78.8550  222.2790 C   0  0  0  0  0  0  0  0  0  0  0  0
  141.5550   79.5190  223.4600 C   0  0  0  0  0  0  0  0  0  0  0  0
  140.2420   79.7000  223.8480 C   0  0  0  0  0  0  0  0  0  0  0  0
  139.2130   79.2200  223.0590 C   0  0  0  0  0  0  0  0  0  0  0  0
  139.5030   78.5570  221.8770 C   0  0  0  0  0  0  0  0  0  0  0  0
  138.1520   77.9780  220.9330 Cl  0  0  0  0  0  0  0  0  0  0  0  0
  140.1320   71.4010  223.6000 C   0  0  0  0  0  0  0  0  0  0  0  0
  139.5140   70.1700  223.6530 C   0  0  0  0  0  0  0  0  0  0  0  0
  139.3810   69.4450  224.8280 C   0  0  0  0  0  0  0  0  0  0  0  0
  139.8950   69.9900  225.9970 C   0  0  0  0  0  0  0  0  0  0  0  0
  139.8120   69.3470  227.2160 C   0  0  0  0  0  0  0  0  0  0  0  0
  140.3440   69.9430  228.3470 C   0  0  0  0  0  0  0  0  0  0  0  0
  140.9630   71.1910  228.2550 C   0  0  0  0  0  0  0  0  0  0  0  0
  141.0540   71.8480  227.0440 C   0  0  0  0  0  0  0  0  0  0  0  0
  140.5110   71.2220  225.9320 C   0  0  0  0  0  0  0  0  0  0  0  0
  140.6140   71.8860  224.7640 N   0  0  0  0  0  0  0  0  0  0  0  0
  139.5670   73.9690  223.2330 H   0  0  0  0  0  0  0  0  0  0  0  0
  140.5491   73.7126  220.3906 H   0  0  0  0  0  0  0  0  0  0  0  0
  138.9956   74.5315  220.7875 H   0  0  0  0  0  0  0  0  0  0  0  0
  142.9846   74.8681  220.3438 H   0  0  0  0  0  0  0  0  0  0  0  0
  141.9076   74.9656  218.8695 H   0  0  0  0  0  0  0  0  0  0  0  0
  144.1264   76.8448  219.6875 H   0  0  0  0  0  0  0  0  0  0  0  0
  144.0371   75.8284  218.2370 H   0  0  0  0  0  0  0  0  0  0  0  0
  143.2857   78.0791  217.5968 H   0  0  0  0  0  0  0  0  0  0  0  0
  141.8239   77.0462  217.6560 H   0  0  0  0  0  0  0  0  0  0  0  0
  142.8497   78.8267  219.9006 H   0  0  0  0  0  0  0  0  0  0  0  0
  141.4703   79.1911  218.7905 H   0  0  0  0  0  0  0  0  0  0  0  0
  140.1744   77.6149  219.6136 H   0  0  0  0  0  0  0  0  0  0  0  0
  142.8725   78.7146  221.9775 H   0  0  0  0  0  0  0  0  0  0  0  0
  142.3771   79.8992  224.0842 H   0  0  0  0  0  0  0  0  0  0  0  0
  140.0144   80.2269  224.7864 H   0  0  0  0  0  0  0  0  0  0  0  0
  138.1673   79.3639  223.3685 H   0  0  0  0  0  0  0  0  0  0  0  0
  139.1088   69.7442  222.7232 H   0  0  0  0  0  0  0  0  0  0  0  0
  138.8818   68.4648  224.8335 H   0  0  0  0  0  0  0  0  0  0  0  0
  139.3244   68.3636  227.2886 H   0  0  0  0  0  0  0  0  0  0  0  0
  140.2788   69.4325  229.3192 H   0  0  0  0  0  0  0  0  0  0  0  0
  141.3834   71.6567  229.1585 H   0  0  0  0  0  0  0  0  0  0  0  0
  141.5394   72.8319  226.9642 H   0  0  0  0  0  0  0  0  0  0  0  0
  1  2  2  0
  2  3  1  0
  3  4  1  0
  4  5  1  0
  5  6  2  0
  5  7  1  0
  7  8  1  0
  8  9  1  0
  9 10  1  0
 10 11  1  0
 11 12  1  0
 12 13  1  0
 13 14  2  0
 14 15  1  0
 15 16  2  0
 16 17  1  0
 17 18  2  0
 18 19  1  0
  2 20  1  0
 20 21  2  0
 21 22  1  0
 22 23  2  0
 23 24  1  0
 24 25  2  0
 25 26  1  0
 26 27  2  0
 27 28  1  0
 28 29  2  0
 12  7  1  0
 18 13  1  0
 29 20  1  0
 28 23  1  0
  3 30  1  0
  4 31  1  0
  4 32  1  0
  8 33  1  0
  8 34  1  0
  9 35  1  0
  9 36  1  0
 10 37  1  0
 10 38  1  0
 11 39  1  0
 11 40  1  0
 12 41  1  6
 14 42  1  0
 15 43  1  0
 16 44  1  0
 17 45  1  0
 21 46  1  0
 22 47  1  0
 24 48  1  0
 25 49  1  0
 26 50  1  0
 27 51  1  0
M  END
>  <smiles>  (24) 
O=C(NCC(=O)N1CCCCC1c1ccccc1Cl)c1ccc2ccccc2n1

>  <score_type>  (24) 
oracle

>  <origin>  (24) 
autodockgpu

>  <m_score__min__energy>  (24) 
-9.2200000000000006

>  <m_primary>  (24) 
energy

>  <rmsd>  (24) 
2.085818717609478

>  <m_score__min__rmsd>  (24) 
2.085818717609478

>  <meeko>  (24) 
{"free_energy": -9.14, "intermolecular_energy": -10.63, "internal_energy": -1.85, "cluster_size": 39, "cluster_id": 1, "rank_in_cluster": 9}

>  <energy>  (24) 
-9.07

>  <cluster_rmsd>  (24) 
0.39

>  <cluster>  (24) 
1

$$$$

     RDKit          3D

 51 54  0  0  0  0  0  0  0  0999 V2000
  139.2280   71.4150  221.2890 O   0  0  0  0  0  0  0  0  0  0  0  0
  139.8510   71.9410  222.2330 C   0  0  0  0  0  0  0  0  0  0  0  0
  140.5350   73.1850  222.1520 N   0  0  0  0  0  0  0  0  0  0  0  0
  140.5330   73.9150  220.9250 C   0  0  0  0  0  0  0  0  0  0  0  0
  141.0900   75.2860  221.1450 C   0  0  0  0  0  0  0  0  0  0  0  0
  141.1070   75.6780  222.3520 O   0  0  0  0  0  0  0  0  0  0  0  0
  141.5630   76.0860  220.0700 N   0  0  0  0  0  0  0  0  0  0  0  0
  142.5270   75.5010  219.1670 C   0  0  0  0  0  0  0  0  0  0  0  0
  143.3070   76.5090  218.3870 C   0  0  0  0  0  0  0  0  0  0  0  0
  142.2880   77.5160  217.8460 C   0  0  0  0  0  0  0  0  0  0  0  0
  141.7420   78.3070  218.9890 C   0  0  0  0  0  0  0  0  0  0  0  0
  141.0400   77.4270  219.9610 C   0  0  2  0  0  0  0  0  0  0  0  0
  140.8400   78.0650  221.2870 C   0  0  0  0  0  0  0  0  0  0  0  0
  141.8790   78.6590  221.9910 C   0  0  0  0  0  0  0  0  0  0  0  0
  141.6950   79.2550  223.2240 C   0  0  0  0  0  0  0  0  0  0  0  0
  140.4340   79.2630  223.7870 C   0  0  0  0  0  0  0  0  0  0  0  0
  139.3720   78.6810  223.1190 C   0  0  0  0  0  0  0  0  0  0  0  0
  139.5770   78.0890  221.8830 C   0  0  0  0  0  0  0  0  0  0  0  0
  138.1900   77.3730  221.0990 Cl  0  0  0  0  0  0  0  0  0  0  0  0
  139.8850   71.2300  223.5230 C   0  0  0  0  0  0  0  0  0  0  0  0
  139.3690   69.9590  223.6610 C   0  0  0  0  0  0  0  0  0  0  0  0
  139.3870   69.2660  224.8620 C   0  0  0  0  0  0  0  0  0  0  0  0
  139.9520   69.8850  225.9680 C   0  0  0  0  0  0  0  0  0  0  0  0
  140.0180   69.2790  227.2070 C   0  0  0  0  0  0  0  0  0  0  0  0
  140.5940   69.9490  228.2720 C   0  0  0  0  0  0  0  0  0  0  0  0
  141.1070   71.2350  228.0960 C   0  0  0  0  0  0  0  0  0  0  0  0
  141.0490   71.8560  226.8640 C   0  0  0  0  0  0  0  0  0  0  0  0
  140.4660   71.1560  225.8190 C   0  0  0  0  0  0  0  0  0  0  0  0
  140.4230   71.7870  224.6290 N   0  0  0  0  0  0  0  0  0  0  0  0
  141.0360   73.5620  222.9890 H   0  0  0  0  0  0  0  0  0  0  0  0
  141.1506   73.3852  220.1848 H   0  0  0  0  0  0  0  0  0  0  0  0
  139.5000   73.9995  220.5566 H   0  0  0  0  0  0  0  0  0  0  0  0
  143.2321   74.8960  219.7559 H   0  0  0  0  0  0  0  0  0  0  0  0
  141.9627   74.8982  218.4402 H   0  0  0  0  0  0  0  0  0  0  0  0
  144.0339   77.0156  219.0389 H   0  0  0  0  0  0  0  0  0  0  0  0
  143.8713   76.0337  217.5711 H   0  0  0  0  0  0  0  0  0  0  0  0
  142.7794   78.1912  217.1300 H   0  0  0  0  0  0  0  0  0  0  0  0
  141.4718   76.9847  217.3346 H   0  0  0  0  0  0  0  0  0  0  0  0
  142.5707   78.8184  219.5006 H   0  0  0  0  0  0  0  0  0  0  0  0
  141.0210   79.0386  218.5953 H   0  0  0  0  0  0  0  0  0  0  0  0
  140.0441   77.2956  219.5128 H   0  0  0  0  0  0  0  0  0  0  0  0
  142.8869   78.6550  221.5504 H   0  0  0  0  0  0  0  0  0  0  0  0
  142.5427   79.7175  223.7507 H   0  0  0  0  0  0  0  0  0  0  0  0
  140.2740   79.7331  224.7685 H   0  0  0  0  0  0  0  0  0  0  0  0
  138.3676   78.6880  223.5675 H   0  0  0  0  0  0  0  0  0  0  0  0
  138.9237   69.4735  222.7801 H   0  0  0  0  0  0  0  0  0  0  0  0
  138.9648   68.2529  224.9360 H   0  0  0  0  0  0  0  0  0  0  0  0
  139.6135   68.2657  227.3471 H   0  0  0  0  0  0  0  0  0  0  0  0
  140.6477   69.4670  229.2593 H   0  0  0  0  0  0  0  0  0  0  0  0
  141.5628   71.7599  228.9485 H   0  0  0  0  0  0  0  0  0  0  0  0
  141.4508   72.8694  226.7171 H   0  0  0  0  0  0  0  0  0  0  0  0
  1  2  2  0
  2  3  1  0
  3  4  1  0
  4  5  1  0
  5  6  2  0
  5  7  1  0
  7  8  1  0
  8  9  1  0
  9 10  1  0
 10 11  1  0
 11 12  1  0
 12 13  1  0
 13 14  2  0
 14 15  1  0
 15 16  2  0
 16 17  1  0
 17 18  2  0
 18 19  1  0
  2 20  1  0
 20 21  2  0
 21 22  1  0
 22 23  2  0
 23 24  1  0
 24 25  2  0
 25 26  1  0
 26 27  2  0
 27 28  1  0
 28 29  2  0
 12  7  1  0
 18 13  1  0
 29 20  1  0
 28 23  1  0
  3 30  1  0
  4 31  1  0
  4 32  1  0
  8 33  1  0
  8 34  1  0
  9 35  1  0
  9 36  1  0
 10 37  1  0
 10 38  1  0
 11 39  1  0
 11 40  1  0
 12 41  1  6
 14 42  1  0
 15 43  1  0
 16 44  1  0
 17 45  1  0
 21 46  1  0
 22 47  1  0
 24 48  1  0
 25 49  1  0
 26 50  1  0
 27 51  1  0
M  END
>  <smiles>  (25) 
O=C(NCC(=O)N1CCCCC1c1ccccc1Cl)c1ccc2ccccc2n1

>  <score_type>  (25) 
oracle

>  <origin>  (25) 
autodockgpu

>  <m_score__min__energy>  (25) 
-9.2200000000000006

>  <m_primary>  (25) 
energy

>  <rmsd>  (25) 
2.0278356649489306

>  <m_score__min__rmsd>  (25) 
2.0278356649489306

>  <meeko>  (25) 
{"free_energy": -8.27, "intermolecular_energy": -9.76, "internal_energy": -2.17, "cluster_size": 39, "cluster_id": 1, "rank_in_cluster": 39}

>  <energy>  (25) 
-9.06

>  <cluster_rmsd>  (25) 
0.34

>  <cluster>  (25) 
1

$$$$

     RDKit          3D

 51 54  0  0  0  0  0  0  0  0999 V2000
  140.6360   71.5320  221.3070 O   0  0  0  0  0  0  0  0  0  0  0  0
  140.2480   72.1440  222.3220 C   0  0  0  0  0  0  0  0  0  0  0  0
  139.8960   73.5220  222.3450 N   0  0  0  0  0  0  0  0  0  0  0  0
  139.9780   74.2940  221.1460 C   0  0  0  0  0  0  0  0  0  0  0  0
  140.7580   75.5450  221.3960 C   0  0  0  0  0  0  0  0  0  0  0  0
  140.7940   75.9310  222.6040 O   0  0  0  0  0  0  0  0  0  0  0  0
  141.4100   76.2460  220.3450 N   0  0  0  0  0  0  0  0  0  0  0  0
  142.3720   75.5230  219.5470 C   0  0  0  0  0  0  0  0  0  0  0  0
  143.3260   76.4070  218.8120 C   0  0  0  0  0  0  0  0  0  0  0  0
  142.4800   77.5020  218.1560 C   0  0  0  0  0  0  0  0  0  0  0  0
  141.9350   78.3910  219.2240 C   0  0  0  0  0  0  0  0  0  0  0  0
  141.0570   77.6320  220.1550 C   0  0  2  0  0  0  0  0  0  0  0  0
  140.8210   78.3370  221.4400 C   0  0  0  0  0  0  0  0  0  0  0  0
  141.8580   78.8520  222.2080 C   0  0  0  0  0  0  0  0  0  0  0  0
  141.6410   79.5100  223.4030 C   0  0  0  0  0  0  0  0  0  0  0  0
  140.3470   79.6650  223.8610 C   0  0  0  0  0  0  0  0  0  0  0  0
  139.2860   79.1670  223.1280 C   0  0  0  0  0  0  0  0  0  0  0  0
  139.5240   78.5110  221.9310 C   0  0  0  0  0  0  0  0  0  0  0  0
  138.1360   77.9080  221.0590 Cl  0  0  0  0  0  0  0  0  0  0  0  0
  140.1440   71.3960  223.5860 C   0  0  0  0  0  0  0  0  0  0  0  0
  139.5210   70.1680  223.6500 C   0  0  0  0  0  0  0  0  0  0  0  0
  139.4090   69.4400  224.8250 C   0  0  0  0  0  0  0  0  0  0  0  0
  139.9500   69.9800  225.9840 C   0  0  0  0  0  0  0  0  0  0  0  0
  139.8900   69.3350  227.2030 C   0  0  0  0  0  0  0  0  0  0  0  0
  140.4480   69.9250  228.3240 C   0  0  0  0  0  0  0  0  0  0  0  0
  141.0720   71.1690  228.2220 C   0  0  0  0  0  0  0  0  0  0  0  0
  141.1410   71.8290  227.0120 C   0  0  0  0  0  0  0  0  0  0  0  0
  140.5710   71.2090  225.9090 C   0  0  0  0  0  0  0  0  0  0  0  0
  140.6530   71.8760  224.7410 N   0  0  0  0  0  0  0  0  0  0  0  0
  139.5780   73.9660  223.2360 H   0  0  0  0  0  0  0  0  0  0  0  0
  140.4786   73.7024  220.3653 H   0  0  0  0  0  0  0  0  0  0  0  0
  138.9625   74.5609  220.8181 H   0  0  0  0  0  0  0  0  0  0  0  0
  142.9502   74.8644  220.2118 H   0  0  0  0  0  0  0  0  0  0  0  0
  141.8052   74.9610  218.7901 H   0  0  0  0  0  0  0  0  0  0  0  0
  144.0488   76.8521  219.5116 H   0  0  0  0  0  0  0  0  0  0  0  0
  143.8983   75.8411  218.0621 H   0  0  0  0  0  0  0  0  0  0  0  0
  143.1051   78.0903  217.4681 H   0  0  0  0  0  0  0  0  0  0  0  0
  141.6539   77.0479  217.5891 H   0  0  0  0  0  0  0  0  0  0  0  0
  142.7712   78.8249  219.7919 H   0  0  0  0  0  0  0  0  0  0  0  0
  141.3385   79.1837  218.7487 H   0  0  0  0  0  0  0  0  0  0  0  0
  140.0936   77.5972  219.6253 H   0  0  0  0  0  0  0  0  0  0  0  0
  142.8913   78.7311  221.8507 H   0  0  0  0  0  0  0  0  0  0  0  0
  142.4880   79.9056  223.9827 H   0  0  0  0  0  0  0  0  0  0  0  0
  140.1603   80.1861  224.8116 H   0  0  0  0  0  0  0  0  0  0  0  0
  138.2561   79.2911  223.4939 H   0  0  0  0  0  0  0  0  0  0  0  0
  139.0937   69.7468  222.7280 H   0  0  0  0  0  0  0  0  0  0  0  0
  138.9056   68.4620  224.8384 H   0  0  0  0  0  0  0  0  0  0  0  0
  139.3995   68.3537  227.2834 H   0  0  0  0  0  0  0  0  0  0  0  0
  140.3995   69.4127  229.2962 H   0  0  0  0  0  0  0  0  0  0  0  0
  141.5146   71.6295  229.1176 H   0  0  0  0  0  0  0  0  0  0  0  0
  141.6299   72.8105  226.9250 H   0  0  0  0  0  0  0  0  0  0  0  0
  1  2  2  0
  2  3  1  0
  3  4  1  0
  4  5  1  0
  5  6  2  0
  5  7  1  0
  7  8  1  0
  8  9  1  0
  9 10  1  0
 10 11  1  0
 11 12  1  0
 12 13  1  0
 13 14  2  0
 14 15  1  0
 15 16  2  0
 16 17  1  0
 17 18  2  0
 18 19  1  0
  2 20  1  0
 20 21  2  0
 21 22  1  0
 22 23  2  0
 23 24  1  0
 24 25  2  0
 25 26  1  0
 26 27  2  0
 27 28  1  0
 28 29  2  0
 12  7  1  0
 18 13  1  0
 29 20  1  0
 28 23  1  0
  3 30  1  0
  4 31  1  0
  4 32  1  0
  8 33  1  0
  8 34  1  0
  9 35  1  0
  9 36  1  0
 10 37  1  0
 10 38  1  0
 11 39  1  0
 11 40  1  0
 12 41  1  6
 14 42  1  0
 15 43  1  0
 16 44  1  0
 17 45  1  0
 21 46  1  0
 22 47  1  0
 24 48  1  0
 25 49  1  0
 26 50  1  0
 27 51  1  0
M  END
>  <smiles>  (26) 
O=C(NCC(=O)N1CCCCC1c1ccccc1Cl)c1ccc2ccccc2n1

>  <score_type>  (26) 
oracle

>  <origin>  (26) 
autodockgpu

>  <m_score__min__energy>  (26) 
-9.2200000000000006

>  <m_primary>  (26) 
energy

>  <rmsd>  (26) 
2.0364916319127966

>  <m_score__min__rmsd>  (26) 
2.0364916319127966

>  <meeko>  (26) 
{"free_energy": -9.12, "intermolecular_energy": -10.61, "internal_energy": -1.85, "cluster_size": 39, "cluster_id": 1, "rank_in_cluster": 15}

>  <energy>  (26) 
-9.06

>  <cluster_rmsd>  (26) 
0.48

>  <cluster>  (26) 
1

$$$$

     RDKit          3D

 51 54  0  0  0  0  0  0  0  0999 V2000
  140.4060   71.5790  221.0560 O   0  0  0  0  0  0  0  0  0  0  0  0
  140.1240   72.1940  222.1040 C   0  0  0  0  0  0  0  0  0  0  0  0
  139.9010   73.5960  222.1790 N   0  0  0  0  0  0  0  0  0  0  0  0
  139.9960   74.3920  220.9970 C   0  0  0  0  0  0  0  0  0  0  0  0
  140.8920   75.5640  221.2400 C   0  0  0  0  0  0  0  0  0  0  0  0
  141.0670   75.8720  222.4580 O   0  0  0  0  0  0  0  0  0  0  0  0
  141.5010   76.2780  220.1720 N   0  0  0  0  0  0  0  0  0  0  0  0
  142.3910   75.5520  219.2960 C   0  0  0  0  0  0  0  0  0  0  0  0
  143.3260   76.4290  218.5300 C   0  0  0  0  0  0  0  0  0  0  0  0
  142.4760   77.5680  217.9590 C   0  0  0  0  0  0  0  0  0  0  0  0
  142.0250   78.4400  219.0830 C   0  0  0  0  0  0  0  0  0  0  0  0
  141.1810   77.6790  220.0430 C   0  0  2  0  0  0  0  0  0  0  0  0
  141.0440   78.3510  221.3610 C   0  0  0  0  0  0  0  0  0  0  0  0
  142.1330   78.8770  222.0440 C   0  0  0  0  0  0  0  0  0  0  0  0
  142.0090   79.5040  223.2680 C   0  0  0  0  0  0  0  0  0  0  0  0
  140.7580   79.6150  223.8440 C   0  0  0  0  0  0  0  0  0  0  0  0
  139.6480   79.1040  223.1980 C   0  0  0  0  0  0  0  0  0  0  0  0
  139.7940   78.4790  221.9690 C   0  0  0  0  0  0  0  0  0  0  0  0
  138.3480   77.8570  221.2120 Cl  0  0  0  0  0  0  0  0  0  0  0  0
  140.0140   71.4220  223.3540 C   0  0  0  0  0  0  0  0  0  0  0  0
  139.3830   70.1970  223.3920 C   0  0  0  0  0  0  0  0  0  0  0  0
  139.2640   69.4470  224.5530 C   0  0  0  0  0  0  0  0  0  0  0  0
  139.8080   69.9600  225.7230 C   0  0  0  0  0  0  0  0  0  0  0  0
  139.7410   69.2910  226.9290 C   0  0  0  0  0  0  0  0  0  0  0  0
  140.3030   69.8550  228.0620 C   0  0  0  0  0  0  0  0  0  0  0  0
  140.9350   71.0970  227.9850 C   0  0  0  0  0  0  0  0  0  0  0  0
  141.0100   71.7800  226.7880 C   0  0  0  0  0  0  0  0  0  0  0  0
  140.4370   71.1850  225.6730 C   0  0  0  0  0  0  0  0  0  0  0  0
  140.5260   71.8750  224.5180 N   0  0  0  0  0  0  0  0  0  0  0  0
  139.6690   74.0410  223.0960 H   0  0  0  0  0  0  0  0  0  0  0  0
  140.4077   73.7822  220.1793 H   0  0  0  0  0  0  0  0  0  0  0  0
  138.9938   74.7543  220.7243 H   0  0  0  0  0  0  0  0  0  0  0  0
  142.9873   74.8568  219.9052 H   0  0  0  0  0  0  0  0  0  0  0  0
  141.7624   75.0307  218.5590 H   0  0  0  0  0  0  0  0  0  0  0  0
  144.1034   76.8310  219.1964 H   0  0  0  0  0  0  0  0  0  0  0  0
  143.8343   75.8699  217.7307 H   0  0  0  0  0  0  0  0  0  0  0  0
  143.0761   78.1582  217.2508 H   0  0  0  0  0  0  0  0  0  0  0  0
  141.6031   77.1556  217.4318 H   0  0  0  0  0  0  0  0  0  0  0  0
  142.9071   78.8310  219.6111 H   0  0  0  0  0  0  0  0  0  0  0  0
  141.4270   79.2648  218.6682 H   0  0  0  0  0  0  0  0  0  0  0  0
  140.1875   77.6892  219.5709 H   0  0  0  0  0  0  0  0  0  0  0  0
  143.1324   78.7908  221.5926 H   0  0  0  0  0  0  0  0  0  0  0  0
  142.8950   79.9100  223.7781 H   0  0  0  0  0  0  0  0  0  0  0  0
  140.6451   80.1113  224.8192 H   0  0  0  0  0  0  0  0  0  0  0  0
  138.6524   79.1929  223.6573 H   0  0  0  0  0  0  0  0  0  0  0  0
  138.9551   69.7967  222.4611 H   0  0  0  0  0  0  0  0  0  0  0  0
  138.7529   68.4730  224.5468 H   0  0  0  0  0  0  0  0  0  0  0  0
  139.2424   68.3124  226.9896 H   0  0  0  0  0  0  0  0  0  0  0  0
  140.2512   69.3236  229.0237 H   0  0  0  0  0  0  0  0  0  0  0  0
  141.3791   71.5372  228.8900 H   0  0  0  0  0  0  0  0  0  0  0  0
  141.5056   72.7597  226.7204 H   0  0  0  0  0  0  0  0  0  0  0  0
  1  2  2  0
  2  3  1  0
  3  4  1  0
  4  5  1  0
  5  6  2  0
  5  7  1  0
  7  8  1  0
  8  9  1  0
  9 10  1  0
 10 11  1  0
 11 12  1  0
 12 13  1  0
 13 14  2  0
 14 15  1  0
 15 16  2  0
 16 17  1  0
 17 18  2  0
 18 19  1  0
  2 20  1  0
 20 21  2  0
 21 22  1  0
 22 23  2  0
 23 24  1  0
 24 25  2  0
 25 26  1  0
 26 27  2  0
 27 28  1  0
 28 29  2  0
 12  7  1  0
 18 13  1  0
 29 20  1  0
 28 23  1  0
  3 30  1  0
  4 31  1  0
  4 32  1  0
  8 33  1  0
  8 34  1  0
  9 35  1  0
  9 36  1  0
 10 37  1  0
 10 38  1  0
 11 39  1  0
 11 40  1  0
 12 41  1  6
 14 42  1  0
 15 43  1  0
 16 44  1  0
 17 45  1  0
 21 46  1  0
 22 47  1  0
 24 48  1  0
 25 49  1  0
 26 50  1  0
 27 51  1  0
M  END
>  <smiles>  (27) 
O=C(NCC(=O)N1CCCCC1c1ccccc1Cl)c1ccc2ccccc2n1

>  <score_type>  (27) 
oracle

>  <origin>  (27) 
autodockgpu

>  <m_score__min__energy>  (27) 
-9.2200000000000006

>  <m_primary>  (27) 
energy

>  <rmsd>  (27) 
1.9941631432372995

>  <m_score__min__rmsd>  (27) 
1.9941631432372995

>  <meeko>  (27) 
{"free_energy": -9.0, "intermolecular_energy": -10.49, "internal_energy": -1.91, "cluster_size": 39, "cluster_id": 1, "rank_in_cluster": 29}

>  <energy>  (27) 
-9.02

>  <cluster_rmsd>  (27) 
0.48

>  <cluster>  (27) 
1

$$$$

     RDKit          3D

 51 54  0  0  0  0  0  0  0  0999 V2000
  140.6190   71.5010  221.3050 O   0  0  0  0  0  0  0  0  0  0  0  0
  140.2300   72.1230  222.3140 C   0  0  0  0  0  0  0  0  0  0  0  0
  139.8980   73.5050  222.3290 N   0  0  0  0  0  0  0  0  0  0  0  0
  140.0000   74.2710  221.1280 C   0  0  0  0  0  0  0  0  0  0  0  0
  140.7080   75.5590  221.4020 C   0  0  0  0  0  0  0  0  0  0  0  0
  140.6090   75.9920  222.5910 O   0  0  0  0  0  0  0  0  0  0  0  0
  141.4380   76.2450  220.3930 N   0  0  0  0  0  0  0  0  0  0  0  0
  142.4260   75.4980  219.6500 C   0  0  0  0  0  0  0  0  0  0  0  0
  143.4440   76.3570  218.9740 C   0  0  0  0  0  0  0  0  0  0  0  0
  142.6660   77.4760  218.2740 C   0  0  0  0  0  0  0  0  0  0  0  0
  142.0840   78.3770  219.3120 C   0  0  0  0  0  0  0  0  0  0  0  0
  141.1330   77.6410  220.1870 C   0  0  2  0  0  0  0  0  0  0  0  0
  140.8420   78.3490  221.4590 C   0  0  0  0  0  0  0  0  0  0  0  0
  141.8450   78.8020  222.3060 C   0  0  0  0  0  0  0  0  0  0  0  0
  141.5770   79.4630  223.4880 C   0  0  0  0  0  0  0  0  0  0  0  0
  140.2630   79.6860  223.8520 C   0  0  0  0  0  0  0  0  0  0  0  0
  139.2340   79.2510  223.0380 C   0  0  0  0  0  0  0  0  0  0  0  0
  139.5240   78.5900  221.8550 C   0  0  0  0  0  0  0  0  0  0  0  0
  138.1730   78.0690  220.8770 Cl  0  0  0  0  0  0  0  0  0  0  0  0
  140.1060   71.3810  223.5810 C   0  0  0  0  0  0  0  0  0  0  0  0
  139.5180   70.1360  223.6330 C   0  0  0  0  0  0  0  0  0  0  0  0
  139.3870   69.4140  224.8110 C   0  0  0  0  0  0  0  0  0  0  0  0
  139.8720   69.9780  225.9820 C   0  0  0  0  0  0  0  0  0  0  0  0
  139.7890   69.3400  227.2040 C   0  0  0  0  0  0  0  0  0  0  0  0
  140.2920   69.9550  228.3380 C   0  0  0  0  0  0  0  0  0  0  0  0
  140.8810   71.2160  228.2470 C   0  0  0  0  0  0  0  0  0  0  0  0
  140.9720   71.8690  227.0340 C   0  0  0  0  0  0  0  0  0  0  0  0
  140.4590   71.2240  225.9190 C   0  0  0  0  0  0  0  0  0  0  0  0
  140.5610   71.8840  224.7480 N   0  0  0  0  0  0  0  0  0  0  0  0
  139.5780   73.9570  223.2160 H   0  0  0  0  0  0  0  0  0  0  0  0
  140.5637   73.6979  220.3771 H   0  0  0  0  0  0  0  0  0  0  0  0
  138.9897   74.4873  220.7506 H   0  0  0  0  0  0  0  0  0  0  0  0
  142.9471   74.8237  220.3455 H   0  0  0  0  0  0  0  0  0  0  0  0
  141.8895   74.9524  218.8597 H   0  0  0  0  0  0  0  0  0  0  0  0
  144.1372   76.7812  219.7153 H   0  0  0  0  0  0  0  0  0  0  0  0
  144.0432   75.7773  218.2564 H   0  0  0  0  0  0  0  0  0  0  0  0
  143.3450   78.0489  217.6253 H   0  0  0  0  0  0  0  0  0  0  0  0
  141.8623   77.0451  217.6589 H   0  0  0  0  0  0  0  0  0  0  0  0
  142.8972   78.7863  219.9294 H   0  0  0  0  0  0  0  0  0  0  0  0
  141.5381   79.1867  218.8057 H   0  0  0  0  0  0  0  0  0  0  0  0
  140.2015   77.6341  219.6020 H   0  0  0  0  0  0  0  0  0  0  0  0
  142.8938   78.6273  222.0241 H   0  0  0  0  0  0  0  0  0  0  0  0
  142.3994   79.8078  224.1320 H   0  0  0  0  0  0  0  0  0  0  0  0
  140.0352   80.2108  224.7915 H   0  0  0  0  0  0  0  0  0  0  0  0
  138.1880   79.4290  223.3284 H   0  0  0  0  0  0  0  0  0  0  0  0
  139.1359   69.6952  222.7004 H   0  0  0  0  0  0  0  0  0  0  0  0
  138.9117   68.4220  224.8160 H   0  0  0  0  0  0  0  0  0  0  0  0
  139.3244   68.3456  227.2763 H   0  0  0  0  0  0  0  0  0  0  0  0
  140.2270   69.4483  229.3122 H   0  0  0  0  0  0  0  0  0  0  0  0
  141.2781   71.6964  229.1534 H   0  0  0  0  0  0  0  0  0  0  0  0
  141.4343   72.8640  226.9551 H   0  0  0  0  0  0  0  0  0  0  0  0
  1  2  2  0
  2  3  1  0
  3  4  1  0
  4  5  1  0
  5  6  2  0
  5  7  1  0
  7  8  1  0
  8  9  1  0
  9 10  1  0
 10 11  1  0
 11 12  1  0
 12 13  1  0
 13 14  2  0
 14 15  1  0
 15 16  2  0
 16 17  1  0
 17 18  2  0
 18 19  1  0
  2 20  1  0
 20 21  2  0
 21 22  1  0
 22 23  2  0
 23 24  1  0
 24 25  2  0
 25 26  1  0
 26 27  2  0
 27 28  1  0
 28 29  2  0
 12  7  1  0
 18 13  1  0
 29 20  1  0
 28 23  1  0
  3 30  1  0
  4 31  1  0
  4 32  1  0
  8 33  1  0
  8 34  1  0
  9 35  1  0
  9 36  1  0
 10 37  1  0
 10 38  1  0
 11 39  1  0
 11 40  1  0
 12 41  1  6
 14 42  1  0
 15 43  1  0
 16 44  1  0
 17 45  1  0
 21 46  1  0
 22 47  1  0
 24 48  1  0
 25 49  1  0
 26 50  1  0
 27 51  1  0
M  END
>  <smiles>  (28) 
O=C(NCC(=O)N1CCCCC1c1ccccc1Cl)c1ccc2ccccc2n1

>  <score_type>  (28) 
oracle

>  <origin>  (28) 
autodockgpu

>  <m_score__min__energy>  (28) 
-9.2200000000000006

>  <m_primary>  (28) 
energy

>  <rmsd>  (28) 
2.0770757459246187

>  <m_score__min__rmsd>  (28) 
2.0770757459246187

>  <meeko>  (28) 
{"free_energy": -9.13, "intermolecular_energy": -10.62, "internal_energy": -1.85, "cluster_size": 39, "cluster_id": 1, "rank_in_cluster": 13}

>  <energy>  (28) 
-9.01

>  <cluster_rmsd>  (28) 
0.53

>  <cluster>  (28) 
1

$$$$

     RDKit          3D

 51 54  0  0  0  0  0  0  0  0999 V2000
  140.7030   71.5140  221.3150 O   0  0  0  0  0  0  0  0  0  0  0  0
  140.2800   72.1350  222.3110 C   0  0  0  0  0  0  0  0  0  0  0  0
  139.9150   73.5080  222.3080 N   0  0  0  0  0  0  0  0  0  0  0  0
  140.0230   74.2670  221.1030 C   0  0  0  0  0  0  0  0  0  0  0  0
  140.7070   75.5680  221.3770 C   0  0  0  0  0  0  0  0  0  0  0  0
  140.6220   75.9850  222.5720 O   0  0  0  0  0  0  0  0  0  0  0  0
  141.4010   76.2810  220.3620 N   0  0  0  0  0  0  0  0  0  0  0  0
  142.3840   75.5630  219.5840 C   0  0  0  0  0  0  0  0  0  0  0  0
  143.3700   76.4500  218.8980 C   0  0  0  0  0  0  0  0  0  0  0  0
  142.5560   77.5640  218.2320 C   0  0  0  0  0  0  0  0  0  0  0  0
  141.9830   78.4400  219.2960 C   0  0  0  0  0  0  0  0  0  0  0  0
  141.0670   77.6740  220.1830 C   0  0  2  0  0  0  0  0  0  0  0  0
  140.7930   78.3590  221.4720 C   0  0  0  0  0  0  0  0  0  0  0  0
  141.8080   78.8190  222.3000 C   0  0  0  0  0  0  0  0  0  0  0  0
  141.5560   79.4580  223.4980 C   0  0  0  0  0  0  0  0  0  0  0  0
  140.2470   79.6510  223.8970 C   0  0  0  0  0  0  0  0  0  0  0  0
  139.2070   79.2070  223.1020 C   0  0  0  0  0  0  0  0  0  0  0  0
  139.4810   78.5690  221.9030 C   0  0  0  0  0  0  0  0  0  0  0  0
  138.1160   78.0350  220.9510 Cl  0  0  0  0  0  0  0  0  0  0  0  0
  140.1480   71.4000  223.5810 C   0  0  0  0  0  0  0  0  0  0  0  0
  139.5110   70.1790  223.6470 C   0  0  0  0  0  0  0  0  0  0  0  0
  139.3720   69.4650  224.8280 C   0  0  0  0  0  0  0  0  0  0  0  0
  139.9010   70.0110  225.9900 C   0  0  0  0  0  0  0  0  0  0  0  0
  139.8140   69.3780  227.2140 C   0  0  0  0  0  0  0  0  0  0  0  0
  140.3610   69.9730  228.3370 C   0  0  0  0  0  0  0  0  0  0  0  0
  140.9990   71.2100  228.2330 C   0  0  0  0  0  0  0  0  0  0  0  0
  141.0950   71.8570  227.0180 C   0  0  0  0  0  0  0  0  0  0  0  0
  140.5360   71.2320  225.9130 C   0  0  0  0  0  0  0  0  0  0  0  0
  140.6450   71.8860  224.7390 N   0  0  0  0  0  0  0  0  0  0  0  0
  139.5680   73.9600  223.1840 H   0  0  0  0  0  0  0  0  0  0  0  0
  140.6064   73.6972  220.3648 H   0  0  0  0  0  0  0  0  0  0  0  0
  139.0150   74.4651  220.7098 H   0  0  0  0  0  0  0  0  0  0  0  0
  142.9333   74.8875  220.2563 H   0  0  0  0  0  0  0  0  0  0  0  0
  141.8384   75.0200  218.7982 H   0  0  0  0  0  0  0  0  0  0  0  0
  144.0720   76.8766  219.6296 H   0  0  0  0  0  0  0  0  0  0  0  0
  143.9632   75.8917  218.1587 H   0  0  0  0  0  0  0  0  0  0  0  0
  143.2091   78.1578  217.5757 H   0  0  0  0  0  0  0  0  0  0  0  0
  141.7458   77.1272  217.6298 H   0  0  0  0  0  0  0  0  0  0  0  0
  142.8032   78.8560  219.8995 H   0  0  0  0  0  0  0  0  0  0  0  0
  141.4105   79.2465  218.8145 H   0  0  0  0  0  0  0  0  0  0  0  0
  140.1226   77.6580  219.6192 H   0  0  0  0  0  0  0  0  0  0  0  0
  142.8527   78.6688  221.9900 H   0  0  0  0  0  0  0  0  0  0  0  0
  142.3872   79.8092  224.1271 H   0  0  0  0  0  0  0  0  0  0  0  0
  140.0323   80.1588  224.8489 H   0  0  0  0  0  0  0  0  0  0  0  0
  138.1652   79.3597  223.4203 H   0  0  0  0  0  0  0  0  0  0  0  0
  139.0948   69.7524  222.7225 H   0  0  0  0  0  0  0  0  0  0  0  0
  138.8570   68.4931  224.8437 H   0  0  0  0  0  0  0  0  0  0  0  0
  139.3111   68.4031  227.2961 H   0  0  0  0  0  0  0  0  0  0  0  0
  140.2930   69.4704  229.3131 H   0  0  0  0  0  0  0  0  0  0  0  0
  141.4309   71.6752  229.1313 H   0  0  0  0  0  0  0  0  0  0  0  0
  141.5962   72.8321  226.9290 H   0  0  0  0  0  0  0  0  0  0  0  0
  1  2  2  0
  2  3  1  0
  3  4  1  0
  4  5  1  0
  5  6  2  0
  5  7  1  0
  7  8  1  0
  8  9  1  0
  9 10  1  0
 10 11  1  0
 11 12  1  0
 12 13  1  0
 13 14  2  0
 14 15  1  0
 15 16  2  0
 16 17  1  0
 17 18  2  0
 18 19  1  0
  2 20  1  0
 20 21  2  0
 21 22  1  0
 22 23  2  0
 23 24  1  0
 24 25  2  0
 25 26  1  0
 26 27  2  0
 27 28  1  0
 28 29  2  0
 12  7  1  0
 18 13  1  0
 29 20  1  0
 28 23  1  0
  3 30  1  0
  4 31  1  0
  4 32  1  0
  8 33  1  0
  8 34  1  0
  9 35  1  0
  9 36  1  0
 10 37  1  0
 10 38  1  0
 11 39  1  0
 11 40  1  0
 12 41  1  6
 14 42  1  0
 15 43  1  0
 16 44  1  0
 17 45  1  0
 21 46  1  0
 22 47  1  0
 24 48  1  0
 25 49  1  0
 26 50  1  0
 27 51  1  0
M  END
>  <smiles>  (29) 
O=C(NCC(=O)N1CCCCC1c1ccccc1Cl)c1ccc2ccccc2n1

>  <score_type>  (29) 
oracle

>  <origin>  (29) 
autodockgpu

>  <m_score__min__energy>  (29) 
-9.2200000000000006

>  <m_primary>  (29) 
energy

>  <rmsd>  (29) 
2.073369960979505

>  <m_score__min__rmsd>  (29) 
2.073369960979505

>  <meeko>  (29) 
{"free_energy": -9.16, "intermolecular_energy": -10.65, "internal_energy": -1.81, "cluster_size": 39, "cluster_id": 1, "rank_in_cluster": 4}

>  <energy>  (29) 
-9.0

>  <cluster_rmsd>  (29) 
0.51

>  <cluster>  (29) 
1

$$$$

     RDKit          3D

 51 54  0  0  0  0  0  0  0  0999 V2000
  140.4560   71.4830  221.1340 O   0  0  0  0  0  0  0  0  0  0  0  0
  140.1950   72.1380  222.1630 C   0  0  0  0  0  0  0  0  0  0  0  0
  140.0030   73.5470  222.1920 N   0  0  0  0  0  0  0  0  0  0  0  0
  140.1060   74.3010  220.9840 C   0  0  0  0  0  0  0  0  0  0  0  0
  140.9450   75.5180  221.2110 C   0  0  0  0  0  0  0  0  0  0  0  0
  141.1000   75.8530  222.4250 O   0  0  0  0  0  0  0  0  0  0  0  0
  141.5220   76.2440  220.1340 N   0  0  0  0  0  0  0  0  0  0  0  0
  142.4070   75.5350  219.2390 C   0  0  0  0  0  0  0  0  0  0  0  0
  143.3130   76.4290  218.4580 C   0  0  0  0  0  0  0  0  0  0  0  0
  142.4350   77.5560  217.9060 C   0  0  0  0  0  0  0  0  0  0  0  0
  141.9900   78.4170  219.0410 C   0  0  0  0  0  0  0  0  0  0  0  0
  141.1760   77.6410  220.0150 C   0  0  2  0  0  0  0  0  0  0  0  0
  141.0540   78.3070  221.3360 C   0  0  0  0  0  0  0  0  0  0  0  0
  142.1510   78.8200  222.0160 C   0  0  0  0  0  0  0  0  0  0  0  0
  142.0400   79.4420  223.2440 C   0  0  0  0  0  0  0  0  0  0  0  0
  140.7940   79.5620  223.8280 C   0  0  0  0  0  0  0  0  0  0  0  0
  139.6750   79.0640  223.1850 C   0  0  0  0  0  0  0  0  0  0  0  0
  139.8080   78.4440  221.9530 C   0  0  0  0  0  0  0  0  0  0  0  0
  138.3520   77.8390  221.2010 Cl  0  0  0  0  0  0  0  0  0  0  0  0
  140.0770   71.4110  223.4380 C   0  0  0  0  0  0  0  0  0  0  0  0
  139.4570   70.1810  223.5130 C   0  0  0  0  0  0  0  0  0  0  0  0
  139.3310   69.4730  224.6990 C   0  0  0  0  0  0  0  0  0  0  0  0
  139.8540   70.0330  225.8560 C   0  0  0  0  0  0  0  0  0  0  0  0
  139.7790   69.4080  227.0840 C   0  0  0  0  0  0  0  0  0  0  0  0
  140.3200   70.0180  228.2030 C   0  0  0  0  0  0  0  0  0  0  0  0
  140.9410   71.2630  228.0890 C   0  0  0  0  0  0  0  0  0  0  0  0
  141.0240   71.9030  226.8690 C   0  0  0  0  0  0  0  0  0  0  0  0
  140.4720   71.2630  225.7690 C   0  0  0  0  0  0  0  0  0  0  0  0
  140.5680   71.9110  224.5920 N   0  0  0  0  0  0  0  0  0  0  0  0
  139.7860   74.0270  223.0950 H   0  0  0  0  0  0  0  0  0  0  0  0
  140.5700   73.6788  220.2046 H   0  0  0  0  0  0  0  0  0  0  0  0
  139.0999   74.6103  220.6644 H   0  0  0  0  0  0  0  0  0  0  0  0
  143.0260   74.8480  219.8347 H   0  0  0  0  0  0  0  0  0  0  0  0
  141.7730   75.0057  218.5124 H   0  0  0  0  0  0  0  0  0  0  0  0
  144.0963   76.8416  219.1109 H   0  0  0  0  0  0  0  0  0  0  0  0
  143.8146   75.8799  217.6475 H   0  0  0  0  0  0  0  0  0  0  0  0
  143.0130   78.1580  217.1894 H   0  0  0  0  0  0  0  0  0  0  0  0
  141.5597   77.1314  217.3927 H   0  0  0  0  0  0  0  0  0  0  0  0
  142.8752   78.8210  219.5540 H   0  0  0  0  0  0  0  0  0  0  0  0
  141.3704   79.2322  218.6390 H   0  0  0  0  0  0  0  0  0  0  0  0
  140.1732   77.6369  219.5629 H   0  0  0  0  0  0  0  0  0  0  0  0
  143.1471   78.7272  221.5586 H   0  0  0  0  0  0  0  0  0  0  0  0
  142.9328   79.8370  223.7508 H   0  0  0  0  0  0  0  0  0  0  0  0
  140.6914   80.0545  224.8062 H   0  0  0  0  0  0  0  0  0  0  0  0
  138.6829   79.1599  223.6502 H   0  0  0  0  0  0  0  0  0  0  0  0
  139.0446   69.7427  222.5922 H   0  0  0  0  0  0  0  0  0  0  0  0
  138.8300   68.4940  224.7219 H   0  0  0  0  0  0  0  0  0  0  0  0
  139.2902   68.4267  227.1737 H   0  0  0  0  0  0  0  0  0  0  0  0
  140.2604   69.5212  229.1826 H   0  0  0  0  0  0  0  0  0  0  0  0
  141.3696   71.7400  228.9828 H   0  0  0  0  0  0  0  0  0  0  0  0
  141.5102   72.8850  226.7724 H   0  0  0  0  0  0  0  0  0  0  0  0
  1  2  2  0
  2  3  1  0
  3  4  1  0
  4  5  1  0
  5  6  2  0
  5  7  1  0
  7  8  1  0
  8  9  1  0
  9 10  1  0
 10 11  1  0
 11 12  1  0
 12 13  1  0
 13 14  2  0
 14 15  1  0
 15 16  2  0
 16 17  1  0
 17 18  2  0
 18 19  1  0
  2 20  1  0
 20 21  2  0
 21 22  1  0
 22 23  2  0
 23 24  1  0
 24 25  2  0
 25 26  1  0
 26 27  2  0
 27 28  1  0
 28 29  2  0
 12  7  1  0
 18 13  1  0
 29 20  1  0
 28 23  1  0
  3 30  1  0
  4 31  1  0
  4 32  1  0
  8 33  1  0
  8 34  1  0
  9 35  1  0
  9 36  1  0
 10 37  1  0
 10 38  1  0
 11 39  1  0
 11 40  1  0
 12 41  1  6
 14 42  1  0
 15 43  1  0
 16 44  1  0
 17 45  1  0
 21 46  1  0
 22 47  1  0
 24 48  1  0
 25 49  1  0
 26 50  1  0
 27 51  1  0
M  END
>  <smiles>  (30) 
O=C(NCC(=O)N1CCCCC1c1ccccc1Cl)c1ccc2ccccc2n1

>  <score_type>  (30) 
oracle

>  <origin>  (30) 
autodockgpu

>  <m_score__min__energy>  (30) 
-9.2200000000000006

>  <m_primary>  (30) 
energy

>  <rmsd>  (30) 
2.013867740099945

>  <m_score__min__rmsd>  (30) 
2.013867740099945

>  <meeko>  (30) 
{"free_energy": -8.95, "intermolecular_energy": -10.44, "internal_energy": -1.95, "cluster_size": 39, "cluster_id": 1, "rank_in_cluster": 32}

>  <energy>  (30) 
-8.99

>  <cluster_rmsd>  (30) 
0.43

>  <cluster>  (30) 
1

$$$$

     RDKit          3D

 51 54  0  0  0  0  0  0  0  0999 V2000
  140.2680   71.2450  221.3260 O   0  0  0  0  0  0  0  0  0  0  0  0
  140.0240   71.8600  222.3840 C   0  0  0  0  0  0  0  0  0  0  0  0
  139.7910   73.2600  222.4660 N   0  0  0  0  0  0  0  0  0  0  0  0
  139.8280   74.0540  221.2800 C   0  0  0  0  0  0  0  0  0  0  0  0
  140.4620   75.3770  221.5710 C   0  0  0  0  0  0  0  0  0  0  0  0
  140.1720   75.8830  222.6980 O   0  0  0  0  0  0  0  0  0  0  0  0
  141.3260   76.0160  220.6410 N   0  0  0  0  0  0  0  0  0  0  0  0
  142.3700   75.2230  220.0340 C   0  0  0  0  0  0  0  0  0  0  0  0
  143.4870   76.0350  219.4660 C   0  0  0  0  0  0  0  0  0  0  0  0
  142.8330   77.1580  218.6560 C   0  0  0  0  0  0  0  0  0  0  0  0
  142.1630   78.1020  219.5990 C   0  0  0  0  0  0  0  0  0  0  0  0
  141.0930   77.4150  220.3710 C   0  0  2  0  0  0  0  0  0  0  0  0
  140.6770   78.1630  221.5850 C   0  0  0  0  0  0  0  0  0  0  0  0
  141.5840   78.5700  222.5550 C   0  0  0  0  0  0  0  0  0  0  0  0
  141.2000   79.2670  223.6840 C   0  0  0  0  0  0  0  0  0  0  0  0
  139.8660   79.5750  223.8650 C   0  0  0  0  0  0  0  0  0  0  0  0
  138.9300   79.1880  222.9230 C   0  0  0  0  0  0  0  0  0  0  0  0
  139.3350   78.4890  221.7960 C   0  0  0  0  0  0  0  0  0  0  0  0
  138.0990   78.0320  220.6510 Cl  0  0  0  0  0  0  0  0  0  0  0  0
  139.9740   71.0890  223.6390 C   0  0  0  0  0  0  0  0  0  0  0  0
  139.4780   69.8030  223.6760 C   0  0  0  0  0  0  0  0  0  0  0  0
  139.4190   69.0530  224.8420 C   0  0  0  0  0  0  0  0  0  0  0  0
  139.8810   69.6300  226.0170 C   0  0  0  0  0  0  0  0  0  0  0  0
  139.8640   68.9660  227.2270 C   0  0  0  0  0  0  0  0  0  0  0  0
  140.3390   69.5950  228.3650 C   0  0  0  0  0  0  0  0  0  0  0  0
  140.8350   70.8980  228.2890 C   0  0  0  0  0  0  0  0  0  0  0  0
  140.8590   71.5760  227.0870 C   0  0  0  0  0  0  0  0  0  0  0  0
  140.3750   70.9160  225.9670 C   0  0  0  0  0  0  0  0  0  0  0  0
  140.4110   71.6030  224.8080 N   0  0  0  0  0  0  0  0  0  0  0  0
  139.5930   73.7040  223.3910 H   0  0  0  0  0  0  0  0  0  0  0  0
  140.4133   73.5310  220.5094 H   0  0  0  0  0  0  0  0  0  0  0  0
  138.8008   74.2164  220.9214 H   0  0  0  0  0  0  0  0  0  0  0  0
  142.7841   74.5498  220.7991 H   0  0  0  0  0  0  0  0  0  0  0  0
  141.9124   74.6756  219.1968 H   0  0  0  0  0  0  0  0  0  0  0  0
  144.1010   76.4569  220.2753 H   0  0  0  0  0  0  0  0  0  0  0  0
  144.1481   75.4209  218.8368 H   0  0  0  0  0  0  0  0  0  0  0  0
  143.6012   77.6940  218.0794 H   0  0  0  0  0  0  0  0  0  0  0  0
  142.0930   76.7357  217.9602 H   0  0  0  0  0  0  0  0  0  0  0  0
  142.9110   78.5024  220.2991 H   0  0  0  0  0  0  0  0  0  0  0  0
  141.7068   78.9153  219.0155 H   0  0  0  0  0  0  0  0  0  0  0  0
  140.2374   77.4201  219.6796 H   0  0  0  0  0  0  0  0  0  0  0  0
  142.6484   78.3281  222.4189 H   0  0  0  0  0  0  0  0  0  0  0  0
  141.9480   79.5731  224.4302 H   0  0  0  0  0  0  0  0  0  0  0  0
  139.5472   80.1292  224.7601 H   0  0  0  0  0  0  0  0  0  0  0  0
  137.8676   79.4340  223.0675 H   0  0  0  0  0  0  0  0  0  0  0  0
  139.1134   69.3523  222.7411 H   0  0  0  0  0  0  0  0  0  0  0  0
  139.0171   68.0291  224.8354 H   0  0  0  0  0  0  0  0  0  0  0  0
  139.4738   67.9393  227.2869 H   0  0  0  0  0  0  0  0  0  0  0  0
  140.3257   69.0677  229.3303 H   0  0  0  0  0  0  0  0  0  0  0  0
  141.2112   71.3901  229.1980 H   0  0  0  0  0  0  0  0  0  0  0  0
  141.2479   72.6027  227.0196 H   0  0  0  0  0  0  0  0  0  0  0  0
  1  2  2  0
  2  3  1  0
  3  4  1  0
  4  5  1  0
  5  6  2  0
  5  7  1  0
  7  8  1  0
  8  9  1  0
  9 10  1  0
 10 11  1  0
 11 12  1  0
 12 13  1  0
 13 14  2  0
 14 15  1  0
 15 16  2  0
 16 17  1  0
 17 18  2  0
 18 19  1  0
  2 20  1  0
 20 21  2  0
 21 22  1  0
 22 23  2  0
 23 24  1  0
 24 25  2  0
 25 26  1  0
 26 27  2  0
 27 28  1  0
 28 29  2  0
 12  7  1  0
 18 13  1  0
 29 20  1  0
 28 23  1  0
  3 30  1  0
  4 31  1  0
  4 32  1  0
  8 33  1  0
  8 34  1  0
  9 35  1  0
  9 36  1  0
 10 37  1  0
 10 38  1  0
 11 39  1  0
 11 40  1  0
 12 41  1  6
 14 42  1  0
 15 43  1  0
 16 44  1  0
 17 45  1  0
 21 46  1  0
 22 47  1  0
 24 48  1  0
 25 49  1  0
 26 50  1  0
 27 51  1  0
M  END
>  <smiles>  (31) 
O=C(NCC(=O)N1CCCCC1c1ccccc1Cl)c1ccc2ccccc2n1

>  <score_type>  (31) 
oracle

>  <origin>  (31) 
autodockgpu

>  <m_score__min__energy>  (31) 
-9.2200000000000006

>  <m_primary>  (31) 
energy

>  <rmsd>  (31) 
2.030465093399332

>  <m_score__min__rmsd>  (31) 
2.030465093399332

>  <meeko>  (31) 
{"free_energy": -8.99, "intermolecular_energy": -10.48, "internal_energy": -1.82, "cluster_size": 39, "cluster_id": 1, "rank_in_cluster": 30}

>  <energy>  (31) 
-8.96

>  <cluster_rmsd>  (31) 
0.53

>  <cluster>  (31) 
1

$$$$

     RDKit          3D

 51 54  0  0  0  0  0  0  0  0999 V2000
  140.3660   71.3930  221.2820 O   0  0  0  0  0  0  0  0  0  0  0  0
  140.0770   72.0060  222.3290 C   0  0  0  0  0  0  0  0  0  0  0  0
  139.7960   73.3980  222.3950 N   0  0  0  0  0  0  0  0  0  0  0  0
  139.8360   74.1860  221.2050 C   0  0  0  0  0  0  0  0  0  0  0  0
  140.5070   75.4940  221.4800 C   0  0  0  0  0  0  0  0  0  0  0  0
  140.2880   75.9850  222.6290 O   0  0  0  0  0  0  0  0  0  0  0  0
  141.3280   76.1350  220.5130 N   0  0  0  0  0  0  0  0  0  0  0  0
  142.3240   75.3360  219.8370 C   0  0  0  0  0  0  0  0  0  0  0  0
  143.4210   76.1400  219.2200 C   0  0  0  0  0  0  0  0  0  0  0  0
  142.7400   77.2860  218.4640 C   0  0  0  0  0  0  0  0  0  0  0  0
  142.1380   78.2240  219.4570 C   0  0  0  0  0  0  0  0  0  0  0  0
  141.1020   77.5410  220.2780 C   0  0  2  0  0  0  0  0  0  0  0  0
  140.7660   78.2750  221.5240 C   0  0  0  0  0  0  0  0  0  0  0  0
  141.7320   78.6550  222.4470 C   0  0  0  0  0  0  0  0  0  0  0  0
  141.4220   79.3400  223.6060 C   0  0  0  0  0  0  0  0  0  0  0  0
  140.1050   79.6620  223.8660 C   0  0  0  0  0  0  0  0  0  0  0  0
  139.1120   79.3020  222.9730 C   0  0  0  0  0  0  0  0  0  0  0  0
  139.4430   78.6160  221.8160 C   0  0  0  0  0  0  0  0  0  0  0  0
  138.1370   78.1930  220.7350 Cl  0  0  0  0  0  0  0  0  0  0  0  0
  140.0200   71.2410  223.5870 C   0  0  0  0  0  0  0  0  0  0  0  0
  139.5140   69.9600  223.6310 C   0  0  0  0  0  0  0  0  0  0  0  0
  139.4490   69.2160  224.8010 C   0  0  0  0  0  0  0  0  0  0  0  0
  139.9160   69.7950  225.9720 C   0  0  0  0  0  0  0  0  0  0  0  0
  139.8940   69.1380  227.1860 C   0  0  0  0  0  0  0  0  0  0  0  0
  140.3750   69.7690  228.3210 C   0  0  0  0  0  0  0  0  0  0  0  0
  140.8800   71.0670  228.2380 C   0  0  0  0  0  0  0  0  0  0  0  0
  140.9100   71.7390  227.0330 C   0  0  0  0  0  0  0  0  0  0  0  0
  140.4210   71.0770  225.9170 C   0  0  0  0  0  0  0  0  0  0  0  0
  140.4620   71.7580  224.7540 N   0  0  0  0  0  0  0  0  0  0  0  0
  139.5610   73.8420  223.3120 H   0  0  0  0  0  0  0  0  0  0  0  0
  140.3968   73.6450  220.4286 H   0  0  0  0  0  0  0  0  0  0  0  0
  138.8080   74.3728  220.8609 H   0  0  0  0  0  0  0  0  0  0  0  0
  142.7690   74.6445  220.5677 H   0  0  0  0  0  0  0  0  0  0  0  0
  141.8120   74.8091  219.0183 H   0  0  0  0  0  0  0  0  0  0  0  0
  144.0855   76.5399  220.0001 H   0  0  0  0  0  0  0  0  0  0  0  0
  144.0368   75.5262  218.5462 H   0  0  0  0  0  0  0  0  0  0  0  0
  143.4833   77.8201  217.8539 H   0  0  0  0  0  0  0  0  0  0  0  0
  141.9564   76.8858  217.8039 H   0  0  0  0  0  0  0  0  0  0  0  0
  142.9300   78.6025  220.1199 H   0  0  0  0  0  0  0  0  0  0  0  0
  141.6621   79.0524  218.9118 H   0  0  0  0  0  0  0  0  0  0  0  0
  140.2091   77.5705  219.6363 H   0  0  0  0  0  0  0  0  0  0  0  0
  142.7835   78.4009  222.2476 H   0  0  0  0  0  0  0  0  0  0  0  0
  142.2149   79.6253  224.3130 H   0  0  0  0  0  0  0  0  0  0  0  0
  139.8446   80.2063  224.7858 H   0  0  0  0  0  0  0  0  0  0  0  0
  138.0630   79.5596  223.1809 H   0  0  0  0  0  0  0  0  0  0  0  0
  139.1457   69.5074  222.6985 H   0  0  0  0  0  0  0  0  0  0  0  0
  139.0385   68.1955  224.7997 H   0  0  0  0  0  0  0  0  0  0  0  0
  139.4951   68.1150  227.2516 H   0  0  0  0  0  0  0  0  0  0  0  0
  140.3589   69.2464  229.2888 H   0  0  0  0  0  0  0  0  0  0  0  0
  141.2591   71.5611  229.1447 H   0  0  0  0  0  0  0  0  0  0  0  0
  141.3072   72.7622  226.9605 H   0  0  0  0  0  0  0  0  0  0  0  0
  1  2  2  0
  2  3  1  0
  3  4  1  0
  4  5  1  0
  5  6  2  0
  5  7  1  0
  7  8  1  0
  8  9  1  0
  9 10  1  0
 10 11  1  0
 11 12  1  0
 12 13  1  0
 13 14  2  0
 14 15  1  0
 15 16  2  0
 16 17  1  0
 17 18  2  0
 18 19  1  0
  2 20  1  0
 20 21  2  0
 21 22  1  0
 22 23  2  0
 23 24  1  0
 24 25  2  0
 25 26  1  0
 26 27  2  0
 27 28  1  0
 28 29  2  0
 12  7  1  0
 18 13  1  0
 29 20  1  0
 28 23  1  0
  3 30  1  0
  4 31  1  0
  4 32  1  0
  8 33  1  0
  8 34  1  0
  9 35  1  0
  9 36  1  0
 10 37  1  0
 10 38  1  0
 11 39  1  0
 11 40  1  0
 12 41  1  6
 14 42  1  0
 15 43  1  0
 16 44  1  0
 17 45  1  0
 21 46  1  0
 22 47  1  0
 24 48  1  0
 25 49  1  0
 26 50  1  0
 27 51  1  0
M  END
>  <smiles>  (32) 
O=C(NCC(=O)N1CCCCC1c1ccccc1Cl)c1ccc2ccccc2n1

>  <score_type>  (32) 
oracle

>  <origin>  (32) 
autodockgpu

>  <m_score__min__energy>  (32) 
-9.2200000000000006

>  <m_primary>  (32) 
energy

>  <rmsd>  (32) 
2.0159453875936975

>  <m_score__min__rmsd>  (32) 
2.0159453875936975

>  <meeko>  (32) 
{"free_energy": -9.06, "intermolecular_energy": -10.56, "internal_energy": -1.81, "cluster_size": 39, "cluster_id": 1, "rank_in_cluster": 25}

>  <energy>  (32) 
-8.95

>  <cluster_rmsd>  (32) 
0.52

>  <cluster>  (32) 
1

$$$$

     RDKit          3D

 51 54  0  0  0  0  0  0  0  0999 V2000
  141.1900   72.0080  221.2830 O   0  0  0  0  0  0  0  0  0  0  0  0
  140.3930   72.4290  222.1450 C   0  0  0  0  0  0  0  0  0  0  0  0
  139.6670   73.6470  222.0420 N   0  0  0  0  0  0  0  0  0  0  0  0
  139.8320   74.4750  220.8910 C   0  0  0  0  0  0  0  0  0  0  0  0
  140.9070   75.4850  221.1360 C   0  0  0  0  0  0  0  0  0  0  0  0
  141.2390   75.6410  222.3500 O   0  0  0  0  0  0  0  0  0  0  0  0
  141.5070   76.2160  220.0740 N   0  0  0  0  0  0  0  0  0  0  0  0
  142.3810   75.5020  219.1730 C   0  0  0  0  0  0  0  0  0  0  0  0
  143.3120   76.3880  218.4130 C   0  0  0  0  0  0  0  0  0  0  0  0
  142.4630   77.5430  217.8750 C   0  0  0  0  0  0  0  0  0  0  0  0
  142.0320   78.3960  219.0220 C   0  0  0  0  0  0  0  0  0  0  0  0
  141.1940   77.6210  219.9770 C   0  0  2  0  0  0  0  0  0  0  0  0
  141.0790   78.2680  221.3090 C   0  0  0  0  0  0  0  0  0  0  0  0
  142.1790   78.7780  221.9860 C   0  0  0  0  0  0  0  0  0  0  0  0
  142.0740   79.3820  223.2240 C   0  0  0  0  0  0  0  0  0  0  0  0
  140.8320   79.4850  223.8200 C   0  0  0  0  0  0  0  0  0  0  0  0
  139.7110   78.9890  223.1800 C   0  0  0  0  0  0  0  0  0  0  0  0
  139.8370   78.3880  221.9380 C   0  0  0  0  0  0  0  0  0  0  0  0
  138.3790   77.7840  221.1900 Cl  0  0  0  0  0  0  0  0  0  0  0  0
  140.1840   71.6140  223.3540 C   0  0  0  0  0  0  0  0  0  0  0  0
  139.4630   70.4400  223.3180 C   0  0  0  0  0  0  0  0  0  0  0  0
  139.2510   69.6520  224.4400 C   0  0  0  0  0  0  0  0  0  0  0  0
  139.7920   70.0720  225.6480 C   0  0  0  0  0  0  0  0  0  0  0  0
  139.6360   69.3590  226.8200 C   0  0  0  0  0  0  0  0  0  0  0  0
  140.2000   69.8300  227.9930 C   0  0  0  0  0  0  0  0  0  0  0  0
  140.9240   71.0230  227.9920 C   0  0  0  0  0  0  0  0  0  0  0  0
  141.0890   71.7490  226.8290 C   0  0  0  0  0  0  0  0  0  0  0  0
  140.5110   71.2480  225.6720 C   0  0  0  0  0  0  0  0  0  0  0  0
  140.6890   71.9770  224.5530 N   0  0  0  0  0  0  0  0  0  0  0  0
  139.0150   73.9340  222.8080 H   0  0  0  0  0  0  0  0  0  0  0  0
  140.1094   73.8498  220.0295 H   0  0  0  0  0  0  0  0  0  0  0  0
  138.8865   74.9977  220.6843 H   0  0  0  0  0  0  0  0  0  0  0  0
  142.9802   74.7911  219.7608 H   0  0  0  0  0  0  0  0  0  0  0  0
  141.7400   74.9993  218.4338 H   0  0  0  0  0  0  0  0  0  0  0  0
  144.1000   76.7719  219.0776 H   0  0  0  0  0  0  0  0  0  0  0  0
  143.8068   75.8415  217.5966 H   0  0  0  0  0  0  0  0  0  0  0  0
  143.0581   78.1430  217.1708 H   0  0  0  0  0  0  0  0  0  0  0  0
  141.5808   77.1468  217.3508 H   0  0  0  0  0  0  0  0  0  0  0  0
  142.9233   78.7702  219.5470 H   0  0  0  0  0  0  0  0  0  0  0  0
  141.4352   79.2334  218.6314 H   0  0  0  0  0  0  0  0  0  0  0  0
  140.1945   77.6459  219.5184 H   0  0  0  0  0  0  0  0  0  0  0  0
  143.1716   78.6980  221.5188 H   0  0  0  0  0  0  0  0  0  0  0  0
  142.9683   79.7761  223.7289 H   0  0  0  0  0  0  0  0  0  0  0  0
  140.7345   79.9627  224.8061 H   0  0  0  0  0  0  0  0  0  0  0  0
  138.7225   79.0713  223.6554 H   0  0  0  0  0  0  0  0  0  0  0  0
  139.0370   70.1135  222.3578 H   0  0  0  0  0  0  0  0  0  0  0  0
  138.6703   68.7201  224.3745 H   0  0  0  0  0  0  0  0  0  0  0  0
  139.0649   68.4189  226.8216 H   0  0  0  0  0  0  0  0  0  0  0  0
  140.0773   69.2630  228.9276 H   0  0  0  0  0  0  0  0  0  0  0  0
  141.3686   71.3895  228.9290 H   0  0  0  0  0  0  0  0  0  0  0  0
  141.6581   72.6903  226.8205 H   0  0  0  0  0  0  0  0  0  0  0  0
  1  2  2  0
  2  3  1  0
  3  4  1  0
  4  5  1  0
  5  6  2  0
  5  7  1  0
  7  8  1  0
  8  9  1  0
  9 10  1  0
 10 11  1  0
 11 12  1  0
 12 13  1  0
 13 14  2  0
 14 15  1  0
 15 16  2  0
 16 17  1  0
 17 18  2  0
 18 19  1  0
  2 20  1  0
 20 21  2  0
 21 22  1  0
 22 23  2  0
 23 24  1  0
 24 25  2  0
 25 26  1  0
 26 27  2  0
 27 28  1  0
 28 29  2  0
 12  7  1  0
 18 13  1  0
 29 20  1  0
 28 23  1  0
  3 30  1  0
  4 31  1  0
  4 32  1  0
  8 33  1  0
  8 34  1  0
  9 35  1  0
  9 36  1  0
 10 37  1  0
 10 38  1  0
 11 39  1  0
 11 40  1  0
 12 41  1  6
 14 42  1  0
 15 43  1  0
 16 44  1  0
 17 45  1  0
 21 46  1  0
 22 47  1  0
 24 48  1  0
 25 49  1  0
 26 50  1  0
 27 51  1  0
M  END
>  <smiles>  (33) 
O=C(NCC(=O)N1CCCCC1c1ccccc1Cl)c1ccc2ccccc2n1

>  <score_type>  (33) 
oracle

>  <origin>  (33) 
autodockgpu

>  <m_score__min__energy>  (33) 
-9.2200000000000006

>  <m_primary>  (33) 
energy

>  <rmsd>  (33) 
2.010823025468829

>  <m_score__min__rmsd>  (33) 
2.010823025468829

>  <meeko>  (33) 
{"free_energy": -9.06, "intermolecular_energy": -10.56, "internal_energy": -1.69, "cluster_size": 39, "cluster_id": 1, "rank_in_cluster": 26}

>  <energy>  (33) 
-8.91

>  <cluster_rmsd>  (33) 
0.6

>  <cluster>  (33) 
1

$$$$

     RDKit          3D

 51 54  0  0  0  0  0  0  0  0999 V2000
  140.0520   71.1590  221.3240 O   0  0  0  0  0  0  0  0  0  0  0  0
  139.8960   71.7690  222.4010 C   0  0  0  0  0  0  0  0  0  0  0  0
  139.7020   73.1730  222.5090 N   0  0  0  0  0  0  0  0  0  0  0  0
  139.6770   73.9780  221.3300 C   0  0  0  0  0  0  0  0  0  0  0  0
  140.3090   75.3060  221.6040 C   0  0  0  0  0  0  0  0  0  0  0  0
  139.9660   75.8570  222.6940 O   0  0  0  0  0  0  0  0  0  0  0  0
  141.2280   75.9010  220.6970 N   0  0  0  0  0  0  0  0  0  0  0  0
  142.2590   75.0620  220.1320 C   0  0  0  0  0  0  0  0  0  0  0  0
  143.4250   75.8240  219.5940 C   0  0  0  0  0  0  0  0  0  0  0  0
  142.8430   76.9640  218.7530 C   0  0  0  0  0  0  0  0  0  0  0  0
  142.1800   77.9420  219.6650 C   0  0  0  0  0  0  0  0  0  0  0  0
  141.0590   77.3050  220.4080 C   0  0  2  0  0  0  0  0  0  0  0  0
  140.6340   78.0810  221.6010 C   0  0  0  0  0  0  0  0  0  0  0  0
  141.5190   78.4390  222.6100 C   0  0  0  0  0  0  0  0  0  0  0  0
  141.1270   79.1620  223.7200 C   0  0  0  0  0  0  0  0  0  0  0  0
  139.8060   79.5460  223.8400 C   0  0  0  0  0  0  0  0  0  0  0  0
  138.8920   79.2090  222.8590 C   0  0  0  0  0  0  0  0  0  0  0  0
  139.3050   78.4840  221.7530 C   0  0  0  0  0  0  0  0  0  0  0  0
  138.0960   78.0950  220.5540 Cl  0  0  0  0  0  0  0  0  0  0  0  0
  139.9120   70.9880  223.6490 C   0  0  0  0  0  0  0  0  0  0  0  0
  139.4690   69.6830  223.6900 C   0  0  0  0  0  0  0  0  0  0  0  0
  139.4730   68.9230  224.8510 C   0  0  0  0  0  0  0  0  0  0  0  0
  139.9460   69.5090  226.0160 C   0  0  0  0  0  0  0  0  0  0  0  0
  139.9910   68.8360  227.2210 C   0  0  0  0  0  0  0  0  0  0  0  0
  140.4730   69.4750  228.3500 C   0  0  0  0  0  0  0  0  0  0  0  0
  140.9140   70.7970  228.2710 C   0  0  0  0  0  0  0  0  0  0  0  0
  140.8770   71.4850  227.0750 C   0  0  0  0  0  0  0  0  0  0  0  0
  140.3870   70.8140  225.9640 C   0  0  0  0  0  0  0  0  0  0  0  0
  140.3620   71.5100  224.8100 N   0  0  0  0  0  0  0  0  0  0  0  0
  139.5780   73.6140  223.4500 H   0  0  0  0  0  0  0  0  0  0  0  0
  140.2327   73.4684  220.5291 H   0  0  0  0  0  0  0  0  0  0  0  0
  138.6329   74.1320  221.0199 H   0  0  0  0  0  0  0  0  0  0  0  0
  142.6212   74.3810  220.9163 H   0  0  0  0  0  0  0  0  0  0  0  0
  141.8078   74.5244  219.2850 H   0  0  0  0  0  0  0  0  0  0  0  0
  144.0285   76.2295  220.4194 H   0  0  0  0  0  0  0  0  0  0  0  0
  144.0812   75.1781  218.9921 H   0  0  0  0  0  0  0  0  0  0  0  0
  143.6505   77.4641  218.1982 H   0  0  0  0  0  0  0  0  0  0  0  0
  142.1106   76.5644  218.0361 H   0  0  0  0  0  0  0  0  0  0  0  0
  142.9200   78.3202  220.3857 H   0  0  0  0  0  0  0  0  0  0  0  0
  141.7748   78.7660  219.0594 H   0  0  0  0  0  0  0  0  0  0  0  0
  140.2265   77.3366  219.6897 H   0  0  0  0  0  0  0  0  0  0  0  0
  142.5725   78.1351  222.5218 H   0  0  0  0  0  0  0  0  0  0  0  0
  141.8576   79.4283  224.4980 H   0  0  0  0  0  0  0  0  0  0  0  0
  139.4800   80.1217  224.7188 H   0  0  0  0  0  0  0  0  0  0  0  0
  137.8401   79.5156  222.9563 H   0  0  0  0  0  0  0  0  0  0  0  0
  139.0962   69.2245  222.7622 H   0  0  0  0  0  0  0  0  0  0  0  0
  139.1110   67.8843  224.8476 H   0  0  0  0  0  0  0  0  0  0  0  0
  139.6444   67.7939  227.2834 H   0  0  0  0  0  0  0  0  0  0  0  0
  140.5086   68.9405  229.3107 H   0  0  0  0  0  0  0  0  0  0  0  0
  141.2959   71.2969  229.1734 H   0  0  0  0  0  0  0  0  0  0  0  0
  141.2232   72.5268  227.0053 H   0  0  0  0  0  0  0  0  0  0  0  0
  1  2  2  0
  2  3  1  0
  3  4  1  0
  4  5  1  0
  5  6  2  0
  5  7  1  0
  7  8  1  0
  8  9  1  0
  9 10  1  0
 10 11  1  0
 11 12  1  0
 12 13  1  0
 13 14  2  0
 14 15  1  0
 15 16  2  0
 16 17  1  0
 17 18  2  0
 18 19  1  0
  2 20  1  0
 20 21  2  0
 21 22  1  0
 22 23  2  0
 23 24  1  0
 24 25  2  0
 25 26  1  0
 26 27  2  0
 27 28  1  0
 28 29  2  0
 12  7  1  0
 18 13  1  0
 29 20  1  0
 28 23  1  0
  3 30  1  0
  4 31  1  0
  4 32  1  0
  8 33  1  0
  8 34  1  0
  9 35  1  0
  9 36  1  0
 10 37  1  0
 10 38  1  0
 11 39  1  0
 11 40  1  0
 12 41  1  6
 14 42  1  0
 15 43  1  0
 16 44  1  0
 17 45  1  0
 21 46  1  0
 22 47  1  0
 24 48  1  0
 25 49  1  0
 26 50  1  0
 27 51  1  0
M  END
>  <smiles>  (34) 
O=C(NCC(=O)N1CCCCC1c1ccccc1Cl)c1ccc2ccccc2n1

>  <score_type>  (34) 
oracle

>  <origin>  (34) 
autodockgpu

>  <m_score__min__energy>  (34) 
-9.2200000000000006

>  <m_primary>  (34) 
energy

>  <rmsd>  (34) 
1.9817656669786792

>  <m_score__min__rmsd>  (34) 
1.9817656669786792

>  <meeko>  (34) 
{"free_energy": -9.01, "intermolecular_energy": -10.5, "internal_energy": -1.75, "cluster_size": 39, "cluster_id": 1, "rank_in_cluster": 28}

>  <energy>  (34) 
-8.71

>  <cluster_rmsd>  (34) 
0.61

>  <cluster>  (34) 
1

$$$$

     RDKit          3D

 51 54  0  0  0  0  0  0  0  0999 V2000
  140.6820   71.1720  221.2220 O   0  0  0  0  0  0  0  0  0  0  0  0
  140.3920   71.8830  222.2040 C   0  0  0  0  0  0  0  0  0  0  0  0
  140.2020   73.2910  222.1490 N   0  0  0  0  0  0  0  0  0  0  0  0
  140.3430   73.9770  220.9050 C   0  0  0  0  0  0  0  0  0  0  0  0
  141.0140   75.2960  221.1210 C   0  0  0  0  0  0  0  0  0  0  0  0
  141.1090   75.6660  222.3310 O   0  0  0  0  0  0  0  0  0  0  0  0
  141.5060   76.0750  220.0390 N   0  0  0  0  0  0  0  0  0  0  0  0
  140.5730   76.9340  219.3470 C   0  0  0  0  0  0  0  0  0  0  0  0
  141.0260   77.3350  217.9820 C   0  0  0  0  0  0  0  0  0  0  0  0
  142.4850   77.7760  218.1250 C   0  0  0  0  0  0  0  0  0  0  0  0
  143.3200   76.5760  218.4290 C   0  0  0  0  0  0  0  0  0  0  0  0
  142.9060   75.9480  219.7130 C   0  0  2  0  0  0  0  0  0  0  0  0
  143.3980   74.5560  219.8680 C   0  0  0  0  0  0  0  0  0  0  0  0
  144.3610   74.2070  220.8070 C   0  0  0  0  0  0  0  0  0  0  0  0
  144.8190   72.9130  220.9540 C   0  0  0  0  0  0  0  0  0  0  0  0
  144.3080   71.9200  220.1400 C   0  0  0  0  0  0  0  0  0  0  0  0
  143.3490   72.2250  219.1920 C   0  0  0  0  0  0  0  0  0  0  0  0
  142.9020   73.5300  219.0600 C   0  0  0  0  0  0  0  0  0  0  0  0
  141.6900   73.8410  217.8410 Cl  0  0  0  0  0  0  0  0  0  0  0  0
  140.2340   71.2270  223.5140 C   0  0  0  0  0  0  0  0  0  0  0  0
  139.6090   70.0050  223.6380 C   0  0  0  0  0  0  0  0  0  0  0  0
  139.4460   69.3630  224.8570 C   0  0  0  0  0  0  0  0  0  0  0  0
  139.9370   69.9860  225.9960 C   0  0  0  0  0  0  0  0  0  0  0  0
  139.8240   69.4300  227.2550 C   0  0  0  0  0  0  0  0  0  0  0  0
  140.3340   70.1000  228.3530 C   0  0  0  0  0  0  0  0  0  0  0  0
  140.9610   71.3360  228.1890 C   0  0  0  0  0  0  0  0  0  0  0  0
  141.0830   71.9070  226.9390 C   0  0  0  0  0  0  0  0  0  0  0  0
  140.5610   71.2080  225.8600 C   0  0  0  0  0  0  0  0  0  0  0  0
  140.6940   71.7900  224.6520 N   0  0  0  0  0  0  0  0  0  0  0  0
  139.9600   73.8210  223.0180 H   0  0  0  0  0  0  0  0  0  0  0  0
  140.9502   73.3674  220.2197 H   0  0  0  0  0  0  0  0  0  0  0  0
  139.3465   74.1458  220.4710 H   0  0  0  0  0  0  0  0  0  0  0  0
  139.6150   76.4017  219.2527 H   0  0  0  0  0  0  0  0  0  0  0  0
  140.4839   77.8561  219.9402 H   0  0  0  0  0  0  0  0  0  0  0  0
  140.9519   76.4827  217.2905 H   0  0  0  0  0  0  0  0  0  0  0  0
  140.4019   78.1446  217.5757 H   0  0  0  0  0  0  0  0  0  0  0  0
  142.8263   78.2363  217.1861 H   0  0  0  0  0  0  0  0  0  0  0  0
  142.5763   78.5119  218.9375 H   0  0  0  0  0  0  0  0  0  0  0  0
  143.2052   75.8430  217.6169 H   0  0  0  0  0  0  0  0  0  0  0  0
  144.3696   76.8933  218.5171 H   0  0  0  0  0  0  0  0  0  0  0  0
  143.4195   76.5571  220.4715 H   0  0  0  0  0  0  0  0  0  0  0  0
  144.7741   74.9916  221.4580 H   0  0  0  0  0  0  0  0  0  0  0  0
  145.5817   72.6752  221.7101 H   0  0  0  0  0  0  0  0  0  0  0  0
  144.6649   70.8850  220.2465 H   0  0  0  0  0  0  0  0  0  0  0  0
  142.9421   71.4343  218.5446 H   0  0  0  0  0  0  0  0  0  0  0  0
  139.2225   69.5174  222.7309 H   0  0  0  0  0  0  0  0  0  0  0  0
  138.9417   68.3874  224.9191 H   0  0  0  0  0  0  0  0  0  0  0  0
  139.3294   68.4561  227.3848 H   0  0  0  0  0  0  0  0  0  0  0  0
  140.2451   69.6579  229.3563 H   0  0  0  0  0  0  0  0  0  0  0  0
  141.3631   71.8617  229.0676 H   0  0  0  0  0  0  0  0  0  0  0  0
  141.5761   72.8808  226.8027 H   0  0  0  0  0  0  0  0  0  0  0  0
  1  2  2  0
  2  3  1  0
  3  4  1  0
  4  5  1  0
  5  6  2  0
  5  7  1  0
  7  8  1  0
  8  9  1  0
  9 10  1  0
 10 11  1  0
 11 12  1  0
 12 13  1  0
 13 14  2  0
 14 15  1  0
 15 16  2  0
 16 17  1  0
 17 18  2  0
 18 19  1  0
  2 20  1  0
 20 21  2  0
 21 22  1  0
 22 23  2  0
 23 24  1  0
 24 25  2  0
 25 26  1  0
 26 27  2  0
 27 28  1  0
 28 29  2  0
 12  7  1  0
 18 13  1  0
 29 20  1  0
 28 23  1  0
  3 30  1  0
  4 31  1  0
  4 32  1  0
  8 33  1  0
  8 34  1  0
  9 35  1  0
  9 36  1  0
 10 37  1  0
 10 38  1  0
 11 39  1  0
 11 40  1  0
 12 41  1  1
 14 42  1  0
 15 43  1  0
 16 44  1  0
 17 45  1  0
 21 46  1  0
 22 47  1  0
 24 48  1  0
 25 49  1  0
 26 50  1  0
 27 51  1  0
M  END
>  <smiles>  (35) 
O=C(NCC(=O)N1CCCCC1c1ccccc1Cl)c1ccc2ccccc2n1

>  <score_type>  (35) 
oracle

>  <origin>  (35) 
autodockgpu

>  <m_score__min__energy>  (35) 
-9.2200000000000006

>  <m_primary>  (35) 
energy

>  <rmsd>  (35) 
1.9817033158404824

>  <m_score__min__rmsd>  (35) 
1.9817033158404824

>  <meeko>  (35) 
{"free_energy": -8.07, "intermolecular_energy": -9.57, "internal_energy": -2.49, "cluster_size": 7, "cluster_id": 2, "rank_in_cluster": 5}

>  <energy>  (35) 
-8.68

>  <cluster_rmsd>  (35) 
0.79

>  <cluster>  (35) 
1

$$$$

     RDKit          3D

 51 54  0  0  0  0  0  0  0  0999 V2000
  140.1310   71.4920  221.0320 O   0  0  0  0  0  0  0  0  0  0  0  0
  140.0000   72.1350  222.0930 C   0  0  0  0  0  0  0  0  0  0  0  0
  139.9450   73.5530  222.1720 N   0  0  0  0  0  0  0  0  0  0  0  0
  140.0420   74.3340  220.9800 C   0  0  0  0  0  0  0  0  0  0  0  0
  140.9960   75.4660  221.1870 C   0  0  0  0  0  0  0  0  0  0  0  0
  141.2980   75.7090  222.3950 O   0  0  0  0  0  0  0  0  0  0  0  0
  141.5210   76.2150  220.0980 N   0  0  0  0  0  0  0  0  0  0  0  0
  142.3920   75.5330  219.1680 C   0  0  0  0  0  0  0  0  0  0  0  0
  143.2510   76.4540  218.3660 C   0  0  0  0  0  0  0  0  0  0  0  0
  142.3300   77.5650  217.8540 C   0  0  0  0  0  0  0  0  0  0  0  0
  141.9050   78.4070  219.0110 C   0  0  0  0  0  0  0  0  0  0  0  0
  141.1410   77.6040  220.0040 C   0  0  2  0  0  0  0  0  0  0  0  0
  141.0480   78.2560  221.3340 C   0  0  0  0  0  0  0  0  0  0  0  0
  142.1500   78.8160  221.9680 C   0  0  0  0  0  0  0  0  0  0  0  0
  142.0650   79.4250  223.2050 C   0  0  0  0  0  0  0  0  0  0  0  0
  140.8430   79.4820  223.8450 C   0  0  0  0  0  0  0  0  0  0  0  0
  139.7210   78.9360  223.2490 C   0  0  0  0  0  0  0  0  0  0  0  0
  139.8260   78.3300  222.0080 C   0  0  0  0  0  0  0  0  0  0  0  0
  138.3670   77.6620  221.3170 Cl  0  0  0  0  0  0  0  0  0  0  0  0
  139.8940   71.3800  223.3530 C   0  0  0  0  0  0  0  0  0  0  0  0
  139.3120   70.1310  223.4000 C   0  0  0  0  0  0  0  0  0  0  0  0
  139.1990   69.3970  224.5720 C   0  0  0  0  0  0  0  0  0  0  0  0
  139.6960   69.9520  225.7430 C   0  0  0  0  0  0  0  0  0  0  0  0
  139.6310   69.3010  226.9590 C   0  0  0  0  0  0  0  0  0  0  0  0
  140.1450   69.9070  228.0930 C   0  0  0  0  0  0  0  0  0  0  0  0
  140.7270   71.1720  228.0080 C   0  0  0  0  0  0  0  0  0  0  0  0
  140.8000   71.8370  226.8000 C   0  0  0  0  0  0  0  0  0  0  0  0
  140.2760   71.2010  225.6850 C   0  0  0  0  0  0  0  0  0  0  0  0
  140.3610   71.8740  224.5200 N   0  0  0  0  0  0  0  0  0  0  0  0
  139.8330   74.0220  223.1000 H   0  0  0  0  0  0  0  0  0  0  0  0
  140.4027   73.6995  220.1570 H   0  0  0  0  0  0  0  0  0  0  0  0
  139.0498   74.7387  220.7316 H   0  0  0  0  0  0  0  0  0  0  0  0
  143.0456   74.8555  219.7370 H   0  0  0  0  0  0  0  0  0  0  0  0
  141.7467   74.9948  218.4581 H   0  0  0  0  0  0  0  0  0  0  0  0
  144.0460   76.8788  218.9965 H   0  0  0  0  0  0  0  0  0  0  0  0
  143.7377   75.9235  217.5343 H   0  0  0  0  0  0  0  0  0  0  0  0
  142.8696   78.1855  217.1234 H   0  0  0  0  0  0  0  0  0  0  0  0
  141.4473   77.1248  217.3672 H   0  0  0  0  0  0  0  0  0  0  0  0
  142.7979   78.8260  219.4980 H   0  0  0  0  0  0  0  0  0  0  0  0
  141.2553   79.2124  218.6378 H   0  0  0  0  0  0  0  0  0  0  0  0
  140.1241   77.5806  219.5853 H   0  0  0  0  0  0  0  0  0  0  0  0
  143.1277   78.7728  221.4658 H   0  0  0  0  0  0  0  0  0  0  0  0
  142.9600   79.8592  223.6744 H   0  0  0  0  0  0  0  0  0  0  0  0
  140.7617   79.9627  224.8311 H   0  0  0  0  0  0  0  0  0  0  0  0
  138.7476   78.9828  223.7592 H   0  0  0  0  0  0  0  0  0  0  0  0
  138.9203   69.6976  222.4679 H   0  0  0  0  0  0  0  0  0  0  0  0
  138.7285   68.4027  224.5731 H   0  0  0  0  0  0  0  0  0  0  0  0
  139.1721   68.3036  227.0267 H   0  0  0  0  0  0  0  0  0  0  0  0
  140.0943   69.3900  229.0626 H   0  0  0  0  0  0  0  0  0  0  0  0
  141.1327   71.6454  228.9142 H   0  0  0  0  0  0  0  0  0  0  0  0
  141.2571   72.8347  226.7251 H   0  0  0  0  0  0  0  0  0  0  0  0
  1  2  2  0
  2  3  1  0
  3  4  1  0
  4  5  1  0
  5  6  2  0
  5  7  1  0
  7  8  1  0
  8  9  1  0
  9 10  1  0
 10 11  1  0
 11 12  1  0
 12 13  1  0
 13 14  2  0
 14 15  1  0
 15 16  2  0
 16 17  1  0
 17 18  2  0
 18 19  1  0
  2 20  1  0
 20 21  2  0
 21 22  1  0
 22 23  2  0
 23 24  1  0
 24 25  2  0
 25 26  1  0
 26 27  2  0
 27 28  1  0
 28 29  2  0
 12  7  1  0
 18 13  1  0
 29 20  1  0
 28 23  1  0
  3 30  1  0
  4 31  1  0
  4 32  1  0
  8 33  1  0
  8 34  1  0
  9 35  1  0
  9 36  1  0
 10 37  1  0
 10 38  1  0
 11 39  1  0
 11 40  1  0
 12 41  1  6
 14 42  1  0
 15 43  1  0
 16 44  1  0
 17 45  1  0
 21 46  1  0
 22 47  1  0
 24 48  1  0
 25 49  1  0
 26 50  1  0
 27 51  1  0
M  END
>  <smiles>  (36) 
O=C(NCC(=O)N1CCCCC1c1ccccc1Cl)c1ccc2ccccc2n1

>  <score_type>  (36) 
oracle

>  <origin>  (36) 
autodockgpu

>  <m_score__min__energy>  (36) 
-9.2200000000000006

>  <m_primary>  (36) 
energy

>  <rmsd>  (36) 
1.9524445659674168

>  <m_score__min__rmsd>  (36) 
1.9524445659674168

>  <meeko>  (36) 
{"free_energy": -8.71, "intermolecular_energy": -10.2, "internal_energy": -2.09, "cluster_size": 39, "cluster_id": 1, "rank_in_cluster": 34}

>  <energy>  (36) 
-8.62

>  <cluster_rmsd>  (36) 
1.11

>  <cluster>  (36) 
1

$$$$

     RDKit          3D

 51 54  0  0  0  0  0  0  0  0999 V2000
  140.6090   71.4660  221.1990 O   0  0  0  0  0  0  0  0  0  0  0  0
  140.2440   72.1230  222.1940 C   0  0  0  0  0  0  0  0  0  0  0  0
  139.9710   73.5180  222.1810 N   0  0  0  0  0  0  0  0  0  0  0  0
  140.1110   74.2560  220.9670 C   0  0  0  0  0  0  0  0  0  0  0  0
  140.9200   75.4900  221.2080 C   0  0  0  0  0  0  0  0  0  0  0  0
  141.0490   75.8260  222.4250 O   0  0  0  0  0  0  0  0  0  0  0  0
  141.4980   76.2300  220.1410 N   0  0  0  0  0  0  0  0  0  0  0  0
  142.4100   75.5410  219.2580 C   0  0  0  0  0  0  0  0  0  0  0  0
  143.3090   76.4550  218.4920 C   0  0  0  0  0  0  0  0  0  0  0  0
  142.4170   77.5650  217.9290 C   0  0  0  0  0  0  0  0  0  0  0  0
  141.9400   78.4150  219.0600 C   0  0  0  0  0  0  0  0  0  0  0  0
  141.1270   77.6200  220.0200 C   0  0  2  0  0  0  0  0  0  0  0  0
  140.9730   78.2810  221.3410 C   0  0  0  0  0  0  0  0  0  0  0  0
  142.0510   78.8080  222.0400 C   0  0  0  0  0  0  0  0  0  0  0  0
  141.9090   79.4240  223.2680 C   0  0  0  0  0  0  0  0  0  0  0  0
  140.6520   79.5240  223.8310 C   0  0  0  0  0  0  0  0  0  0  0  0
  139.5520   79.0120  223.1680 C   0  0  0  0  0  0  0  0  0  0  0  0
  139.7140   78.3970  221.9370 C   0  0  0  0  0  0  0  0  0  0  0  0
  138.2800   77.7730  221.1580 Cl  0  0  0  0  0  0  0  0  0  0  0  0
  140.0830   71.4120  223.4740 C   0  0  0  0  0  0  0  0  0  0  0  0
  139.3990   70.2180  223.5560 C   0  0  0  0  0  0  0  0  0  0  0  0
  139.2320   69.5260  224.7460 C   0  0  0  0  0  0  0  0  0  0  0  0
  139.7800   70.0670  225.9010 C   0  0  0  0  0  0  0  0  0  0  0  0
  139.6680   69.4550  227.1340 C   0  0  0  0  0  0  0  0  0  0  0  0
  140.2370   70.0440  228.2500 C   0  0  0  0  0  0  0  0  0  0  0  0
  140.9230   71.2540  228.1300 C   0  0  0  0  0  0  0  0  0  0  0  0
  141.0440   71.8790  226.9050 C   0  0  0  0  0  0  0  0  0  0  0  0
  140.4620   71.2610  225.8080 C   0  0  0  0  0  0  0  0  0  0  0  0
  140.5970   71.8940  224.6260 N   0  0  0  0  0  0  0  0  0  0  0  0
  139.6690   74.0010  223.0580 H   0  0  0  0  0  0  0  0  0  0  0  0
  140.6163   73.6301  220.2167 H   0  0  0  0  0  0  0  0  0  0  0  0
  139.1137   74.5439  220.6029 H   0  0  0  0  0  0  0  0  0  0  0  0
  143.0340   74.8654  219.8615 H   0  0  0  0  0  0  0  0  0  0  0  0
  141.7977   75.0003  218.5213 H   0  0  0  0  0  0  0  0  0  0  0  0
  144.0740   76.8820  219.1572 H   0  0  0  0  0  0  0  0  0  0  0  0
  143.8334   75.9178  217.6880 H   0  0  0  0  0  0  0  0  0  0  0  0
  142.9928   78.1795  217.2213 H   0  0  0  0  0  0  0  0  0  0  0  0
  141.5575   77.1246  217.4025 H   0  0  0  0  0  0  0  0  0  0  0  0
  142.8101   78.8341  219.5866 H   0  0  0  0  0  0  0  0  0  0  0  0
  141.3114   79.2201  218.6518 H   0  0  0  0  0  0  0  0  0  0  0  0
  140.1314   77.5965  219.5529 H   0  0  0  0  0  0  0  0  0  0  0  0
  143.0559   78.7320  221.5990 H   0  0  0  0  0  0  0  0  0  0  0  0
  142.7870   79.8302  223.7915 H   0  0  0  0  0  0  0  0  0  0  0  0
  140.5256   80.0119  224.8087 H   0  0  0  0  0  0  0  0  0  0  0  0
  138.5509   79.0927  223.6166 H   0  0  0  0  0  0  0  0  0  0  0  0
  138.9666   69.7956  222.6370 H   0  0  0  0  0  0  0  0  0  0  0  0
  138.6805   68.5746  224.7740 H   0  0  0  0  0  0  0  0  0  0  0  0
  139.1278   68.5015  227.2290 H   0  0  0  0  0  0  0  0  0  0  0  0
  140.1485   69.5580  229.2328 H   0  0  0  0  0  0  0  0  0  0  0  0
  141.3724   71.7148  229.0220 H   0  0  0  0  0  0  0  0  0  0  0  0
  141.5825   72.8327  226.8026 H   0  0  0  0  0  0  0  0  0  0  0  0
  1  2  2  0
  2  3  1  0
  3  4  1  0
  4  5  1  0
  5  6  2  0
  5  7  1  0
  7  8  1  0
  8  9  1  0
  9 10  1  0
 10 11  1  0
 11 12  1  0
 12 13  1  0
 13 14  2  0
 14 15  1  0
 15 16  2  0
 16 17  1  0
 17 18  2  0
 18 19  1  0
  2 20  1  0
 20 21  2  0
 21 22  1  0
 22 23  2  0
 23 24  1  0
 24 25  2  0
 25 26  1  0
 26 27  2  0
 27 28  1  0
 28 29  2  0
 12  7  1  0
 18 13  1  0
 29 20  1  0
 28 23  1  0
  3 30  1  0
  4 31  1  0
  4 32  1  0
  8 33  1  0
  8 34  1  0
  9 35  1  0
  9 36  1  0
 10 37  1  0
 10 38  1  0
 11 39  1  0
 11 40  1  0
 12 41  1  6
 14 42  1  0
 15 43  1  0
 16 44  1  0
 17 45  1  0
 21 46  1  0
 22 47  1  0
 24 48  1  0
 25 49  1  0
 26 50  1  0
 27 51  1  0
M  END
>  <smiles>  (37) 
O=C(NCC(=O)N1CCCCC1c1ccccc1Cl)c1ccc2ccccc2n1

>  <score_type>  (37) 
oracle

>  <origin>  (37) 
autodockgpu

>  <m_score__min__energy>  (37) 
-9.2200000000000006

>  <m_primary>  (37) 
energy

>  <rmsd>  (37) 
2.023252743270136

>  <m_score__min__rmsd>  (37) 
2.023252743270136

>  <meeko>  (37) 
{"free_energy": -9.02, "intermolecular_energy": -10.51, "internal_energy": -1.89, "cluster_size": 39, "cluster_id": 1, "rank_in_cluster": 27}

>  <energy>  (37) 
-8.55

>  <cluster_rmsd>  (37) 
1.08

>  <cluster>  (37) 
1

$$$$

     RDKit          3D

 51 54  0  0  0  0  0  0  0  0999 V2000
  140.6420   71.5010  221.2940 O   0  0  0  0  0  0  0  0  0  0  0  0
  140.2480   72.1160  222.3050 C   0  0  0  0  0  0  0  0  0  0  0  0
  139.8850   73.4900  222.3200 N   0  0  0  0  0  0  0  0  0  0  0  0
  139.9590   74.2560  221.1170 C   0  0  0  0  0  0  0  0  0  0  0  0
  140.6660   75.5480  221.3760 C   0  0  0  0  0  0  0  0  0  0  0  0
  140.5750   75.9890  222.5620 O   0  0  0  0  0  0  0  0  0  0  0  0
  141.3860   76.2280  220.3560 N   0  0  0  0  0  0  0  0  0  0  0  0
  142.3580   75.4750  219.5990 C   0  0  0  0  0  0  0  0  0  0  0  0
  143.3710   76.3270  218.9080 C   0  0  0  0  0  0  0  0  0  0  0  0
  142.5910   77.4490  218.2180 C   0  0  0  0  0  0  0  0  0  0  0  0
  142.0300   78.3550  219.2630 C   0  0  0  0  0  0  0  0  0  0  0  0
  141.0870   77.6260  220.1530 C   0  0  2  0  0  0  0  0  0  0  0  0
  140.8190   78.3370  221.4280 C   0  0  0  0  0  0  0  0  0  0  0  0
  141.8370   78.7830  222.2610 C   0  0  0  0  0  0  0  0  0  0  0  0
  141.5900   79.4460  223.4460 C   0  0  0  0  0  0  0  0  0  0  0  0
  140.2830   79.6790  223.8290 C   0  0  0  0  0  0  0  0  0  0  0  0
  139.2390   79.2520  223.0290 C   0  0  0  0  0  0  0  0  0  0  0  0
  139.5080   78.5880  221.8420 C   0  0  0  0  0  0  0  0  0  0  0  0
  138.1400   78.0770  220.8840 Cl  0  0  0  0  0  0  0  0  0  0  0  0
  140.1520   71.3750  223.5740 C   0  0  0  0  0  0  0  0  0  0  0  0
  139.5800   70.1220  223.6370 C   0  0  0  0  0  0  0  0  0  0  0  0
  139.4750   69.4000  224.8170 C   0  0  0  0  0  0  0  0  0  0  0  0
  139.9720   69.9720  225.9810 C   0  0  0  0  0  0  0  0  0  0  0  0
  139.9150   69.3340  227.2040 C   0  0  0  0  0  0  0  0  0  0  0  0
  140.4280   69.9560  228.3300 C   0  0  0  0  0  0  0  0  0  0  0  0
  141.0010   71.2250  228.2280 C   0  0  0  0  0  0  0  0  0  0  0  0
  141.0660   71.8760  227.0130 C   0  0  0  0  0  0  0  0  0  0  0  0
  140.5430   71.2240  225.9060 C   0  0  0  0  0  0  0  0  0  0  0  0
  140.6200   71.8840  224.7340 N   0  0  0  0  0  0  0  0  0  0  0  0
  139.5640   73.9370  223.2090 H   0  0  0  0  0  0  0  0  0  0  0  0
  140.5104   73.6854  220.3552 H   0  0  0  0  0  0  0  0  0  0  0  0
  138.9401   74.4672  220.7601 H   0  0  0  0  0  0  0  0  0  0  0  0
  142.8851   74.7976  220.2870 H   0  0  0  0  0  0  0  0  0  0  0  0
  141.8065   74.9327  218.8168 H   0  0  0  0  0  0  0  0  0  0  0  0
  144.0769   76.7479  219.6391 H   0  0  0  0  0  0  0  0  0  0  0  0
  143.9564   75.7429  218.1827 H   0  0  0  0  0  0  0  0  0  0  0  0
  143.2643   78.0166  217.5588 H   0  0  0  0  0  0  0  0  0  0  0  0
  141.7758   77.0226  217.6150 H   0  0  0  0  0  0  0  0  0  0  0  0
  142.8547   78.7599  219.8679 H   0  0  0  0  0  0  0  0  0  0  0  0
  141.4820   79.1676  218.7636 H   0  0  0  0  0  0  0  0  0  0  0  0
  140.1470   77.6247  219.5818 H   0  0  0  0  0  0  0  0  0  0  0  0
  142.8806   78.6007  221.9648 H   0  0  0  0  0  0  0  0  0  0  0  0
  142.4239   79.7850  224.0782 H   0  0  0  0  0  0  0  0  0  0  0  0
  140.0726   80.2051  224.7719 H   0  0  0  0  0  0  0  0  0  0  0  0
  138.1985   79.4385  223.3334 H   0  0  0  0  0  0  0  0  0  0  0  0
  139.1897   69.6751  222.7107 H   0  0  0  0  0  0  0  0  0  0  0  0
  139.0112   68.4026  224.8304 H   0  0  0  0  0  0  0  0  0  0  0  0
  139.4633   68.3342  227.2839 H   0  0  0  0  0  0  0  0  0  0  0  0
  140.3839   69.4498  229.3056 H   0  0  0  0  0  0  0  0  0  0  0  0
  141.4058   71.7120  229.1274 H   0  0  0  0  0  0  0  0  0  0  0  0
  141.5163   72.8758  226.9255 H   0  0  0  0  0  0  0  0  0  0  0  0
  1  2  2  0
  2  3  1  0
  3  4  1  0
  4  5  1  0
  5  6  2  0
  5  7  1  0
  7  8  1  0
  8  9  1  0
  9 10  1  0
 10 11  1  0
 11 12  1  0
 12 13  1  0
 13 14  2  0
 14 15  1  0
 15 16  2  0
 16 17  1  0
 17 18  2  0
 18 19  1  0
  2 20  1  0
 20 21  2  0
 21 22  1  0
 22 23  2  0
 23 24  1  0
 24 25  2  0
 25 26  1  0
 26 27  2  0
 27 28  1  0
 28 29  2  0
 12  7  1  0
 18 13  1  0
 29 20  1  0
 28 23  1  0
  3 30  1  0
  4 31  1  0
  4 32  1  0
  8 33  1  0
  8 34  1  0
  9 35  1  0
  9 36  1  0
 10 37  1  0
 10 38  1  0
 11 39  1  0
 11 40  1  0
 12 41  1  6
 14 42  1  0
 15 43  1  0
 16 44  1  0
 17 45  1  0
 21 46  1  0
 22 47  1  0
 24 48  1  0
 25 49  1  0
 26 50  1  0
 27 51  1  0
M  END
>  <smiles>  (38) 
O=C(NCC(=O)N1CCCCC1c1ccccc1Cl)c1ccc2ccccc2n1

>  <score_type>  (38) 
oracle

>  <origin>  (38) 
autodockgpu

>  <m_score__min__energy>  (38) 
-9.2200000000000006

>  <m_primary>  (38) 
energy

>  <rmsd>  (38) 
2.0410640448847164

>  <m_score__min__rmsd>  (38) 
2.0410640448847164

>  <meeko>  (38) 
{"free_energy": -9.17, "intermolecular_energy": -10.66, "internal_energy": -1.81, "cluster_size": 39, "cluster_id": 1, "rank_in_cluster": 3}

>  <energy>  (38) 
-8.3

>  <cluster_rmsd>  (38) 
0.81

>  <cluster>  (38) 
1

$$$$

     RDKit          3D

 51 54  0  0  0  0  0  0  0  0999 V2000
  140.6310   71.5170  221.3110 O   0  0  0  0  0  0  0  0  0  0  0  0
  140.2420   72.1350  222.3220 C   0  0  0  0  0  0  0  0  0  0  0  0
  139.9030   73.5150  222.3400 N   0  0  0  0  0  0  0  0  0  0  0  0
  139.9980   74.2840  221.1410 C   0  0  0  0  0  0  0  0  0  0  0  0
  140.7260   75.5630  221.4100 C   0  0  0  0  0  0  0  0  0  0  0  0
  140.6610   75.9840  222.6050 O   0  0  0  0  0  0  0  0  0  0  0  0
  141.4360   76.2520  220.3890 N   0  0  0  0  0  0  0  0  0  0  0  0
  142.4220   75.5130  219.6360 C   0  0  0  0  0  0  0  0  0  0  0  0
  143.4220   76.3790  218.9450 C   0  0  0  0  0  0  0  0  0  0  0  0
  142.6250   77.4870  218.2500 C   0  0  0  0  0  0  0  0  0  0  0  0
  142.0470   78.3870  219.2920 C   0  0  0  0  0  0  0  0  0  0  0  0
  141.1150   77.6440  220.1820 C   0  0  2  0  0  0  0  0  0  0  0  0
  140.8320   78.3540  221.4550 C   0  0  0  0  0  0  0  0  0  0  0  0
  141.8410   78.8360  222.2780 C   0  0  0  0  0  0  0  0  0  0  0  0
  141.5810   79.4990  223.4620 C   0  0  0  0  0  0  0  0  0  0  0  0
  140.2700   79.6930  223.8510 C   0  0  0  0  0  0  0  0  0  0  0  0
  139.2350   79.2280  223.0610 C   0  0  0  0  0  0  0  0  0  0  0  0
  139.5170   78.5660  221.8760 C   0  0  0  0  0  0  0  0  0  0  0  0
  138.1590   78.0060  220.9300 Cl  0  0  0  0  0  0  0  0  0  0  0  0
  140.1240   71.3900  223.5880 C   0  0  0  0  0  0  0  0  0  0  0  0
  139.5260   70.1490  223.6420 C   0  0  0  0  0  0  0  0  0  0  0  0
  139.4020   69.4250  224.8190 C   0  0  0  0  0  0  0  0  0  0  0  0
  139.9040   69.9810  225.9870 C   0  0  0  0  0  0  0  0  0  0  0  0
  139.8280   69.3390  227.2080 C   0  0  0  0  0  0  0  0  0  0  0  0
  140.3480   69.9460  228.3380 C   0  0  0  0  0  0  0  0  0  0  0  0
  140.9470   71.2030  228.2450 C   0  0  0  0  0  0  0  0  0  0  0  0
  141.0310   71.8590  227.0330 C   0  0  0  0  0  0  0  0  0  0  0  0
  140.5000   71.2220  225.9210 C   0  0  0  0  0  0  0  0  0  0  0  0
  140.5960   71.8850  224.7520 N   0  0  0  0  0  0  0  0  0  0  0  0
  139.5840   73.9640  223.2290 H   0  0  0  0  0  0  0  0  0  0  0  0
  140.5443   73.7069  220.3804 H   0  0  0  0  0  0  0  0  0  0  0  0
  138.9853   74.5142  220.7784 H   0  0  0  0  0  0  0  0  0  0  0  0
  142.9586   74.8462  220.3270 H   0  0  0  0  0  0  0  0  0  0  0  0
  141.8811   74.9598  218.8541 H   0  0  0  0  0  0  0  0  0  0  0  0
  144.1196   76.8132  219.6764 H   0  0  0  0  0  0  0  0  0  0  0  0
  144.0182   75.8024  218.2225 H   0  0  0  0  0  0  0  0  0  0  0  0
  143.2904   78.0636  217.5906 H   0  0  0  0  0  0  0  0  0  0  0  0
  141.8181   77.0459  217.6464 H   0  0  0  0  0  0  0  0  0  0  0  0
  142.8637   78.8074  219.8972 H   0  0  0  0  0  0  0  0  0  0  0  0
  141.4865   79.1893  218.7898 H   0  0  0  0  0  0  0  0  0  0  0  0
  140.1766   77.6250  219.6084 H   0  0  0  0  0  0  0  0  0  0  0  0
  142.8877   78.6842  221.9758 H   0  0  0  0  0  0  0  0  0  0  0  0
  142.4077   79.8677  224.0870 H   0  0  0  0  0  0  0  0  0  0  0  0
  140.0488   80.2187  224.7916 H   0  0  0  0  0  0  0  0  0  0  0  0
  138.1912   79.3828  223.3717 H   0  0  0  0  0  0  0  0  0  0  0  0
  139.1303   69.7143  222.7122 H   0  0  0  0  0  0  0  0  0  0  0  0
  138.9187   68.4369  224.8261 H   0  0  0  0  0  0  0  0  0  0  0  0
  139.3556   68.3483  227.2819 H   0  0  0  0  0  0  0  0  0  0  0  0
  140.2890   69.4366  229.3112 H   0  0  0  0  0  0  0  0  0  0  0  0
  141.3574   71.6772  229.1487 H   0  0  0  0  0  0  0  0  0  0  0  0
  141.5015   72.8500  226.9522 H   0  0  0  0  0  0  0  0  0  0  0  0
  1  2  2  0
  2  3  1  0
  3  4  1  0
  4  5  1  0
  5  6  2  0
  5  7  1  0
  7  8  1  0
  8  9  1  0
  9 10  1  0
 10 11  1  0
 11 12  1  0
 12 13  1  0
 13 14  2  0
 14 15  1  0
 15 16  2  0
 16 17  1  0
 17 18  2  0
 18 19  1  0
  2 20  1  0
 20 21  2  0
 21 22  1  0
 22 23  2  0
 23 24  1  0
 24 25  2  0
 25 26  1  0
 26 27  2  0
 27 28  1  0
 28 29  2  0
 12  7  1  0
 18 13  1  0
 29 20  1  0
 28 23  1  0
  3 30  1  0
  4 31  1  0
  4 32  1  0
  8 33  1  0
  8 34  1  0
  9 35  1  0
  9 36  1  0
 10 37  1  0
 10 38  1  0
 11 39  1  0
 11 40  1  0
 12 41  1  6
 14 42  1  0
 15 43  1  0
 16 44  1  0
 17 45  1  0
 21 46  1  0
 22 47  1  0
 24 48  1  0
 25 49  1  0
 26 50  1  0
 27 51  1  0
M  END
>  <smiles>  (39) 
O=C(NCC(=O)N1CCCCC1c1ccccc1Cl)c1ccc2ccccc2n1

>  <score_type>  (39) 
oracle

>  <origin>  (39) 
autodockgpu

>  <m_score__min__energy>  (39) 
-9.2200000000000006

>  <m_primary>  (39) 
energy

>  <rmsd>  (39) 
2.073647899845889

>  <m_score__min__rmsd>  (39) 
2.073647899845889

>  <meeko>  (39) 
{"free_energy": -9.14, "intermolecular_energy": -10.63, "internal_energy": -1.85, "cluster_size": 39, "cluster_id": 1, "rank_in_cluster": 10}

>  <energy>  (39) 
-8.27

>  <cluster_rmsd>  (39) 
0.79

>  <cluster>  (39) 
1

$$$$

     RDKit          3D

 51 54  0  0  0  0  0  0  0  0999 V2000
  133.1770   69.8260  226.4720 O   0  0  0  0  0  0  0  0  0  0  0  0
  133.7660   70.8860  226.1820 C   0  0  0  0  0  0  0  0  0  0  0  0
  134.9970   70.9560  225.4750 N   0  0  0  0  0  0  0  0  0  0  0  0
  135.6370   69.7540  225.0470 C   0  0  0  0  0  0  0  0  0  0  0  0
  136.6440   70.0610  223.9850 C   0  0  0  0  0  0  0  0  0  0  0  0
  136.9530   71.2850  223.8660 O   0  0  0  0  0  0  0  0  0  0  0  0
  137.2080   69.0430  223.1680 N   0  0  0  0  0  0  0  0  0  0  0  0
  136.3110   68.2530  222.3570 C   0  0  0  0  0  0  0  0  0  0  0  0
  136.8900   66.9490  221.9170 C   0  0  0  0  0  0  0  0  0  0  0  0
  138.2970   67.2570  221.3960 C   0  0  0  0  0  0  0  0  0  0  0  0
  139.1600   67.6500  222.5480 C   0  0  0  0  0  0  0  0  0  0  0  0
  138.6410   68.8770  223.2110 C   0  0  2  0  0  0  0  0  0  0  0  0
  139.1930   69.0820  224.5740 C   0  0  0  0  0  0  0  0  0  0  0  0
  139.0670   68.1320  225.5790 C   0  0  0  0  0  0  0  0  0  0  0  0
  139.5810   68.3190  226.8480 C   0  0  0  0  0  0  0  0  0  0  0  0
  140.2470   69.4940  227.1370 C   0  0  0  0  0  0  0  0  0  0  0  0
  140.3940   70.4670  226.1650 C   0  0  0  0  0  0  0  0  0  0  0  0
  139.8720   70.2590  224.8990 C   0  0  0  0  0  0  0  0  0  0  0  0
  140.0960   71.5310  223.7230 Cl  0  0  0  0  0  0  0  0  0  0  0  0
  133.1500   72.1580  226.5990 C   0  0  0  0  0  0  0  0  0  0  0  0
  131.9230   72.1940  227.2280 C   0  0  0  0  0  0  0  0  0  0  0  0
  131.3180   73.3750  227.6320 C   0  0  0  0  0  0  0  0  0  0  0  0
  131.9840   74.5680  227.3890 C   0  0  0  0  0  0  0  0  0  0  0  0
  131.4660   75.7960  227.7530 C   0  0  0  0  0  0  0  0  0  0  0  0
  132.1790   76.9510  227.4840 C   0  0  0  0  0  0  0  0  0  0  0  0
  133.4180   76.8770  226.8460 C   0  0  0  0  0  0  0  0  0  0  0  0
  133.9510   75.6580  226.4760 C   0  0  0  0  0  0  0  0  0  0  0  0
  133.2110   74.5210  226.7610 C   0  0  0  0  0  0  0  0  0  0  0  0
  133.7550   73.3460  226.3880 N   0  0  0  0  0  0  0  0  0  0  0  0
  135.4300   71.8850  225.2680 H   0  0  0  0  0  0  0  0  0  0  0  0
  136.1428   69.2855  225.9041 H   0  0  0  0  0  0  0  0  0  0  0  0
  134.8803   69.0674  224.6395 H   0  0  0  0  0  0  0  0  0  0  0  0
  135.4021   68.0495  222.9422 H   0  0  0  0  0  0  0  0  0  0  0  0
  136.1032   68.8355  221.4473 H   0  0  0  0  0  0  0  0  0  0  0  0
  136.9424   66.2501  222.7649 H   0  0  0  0  0  0  0  0  0  0  0  0
  136.2701   66.4784  221.1397 H   0  0  0  0  0  0  0  0  0  0  0  0
  138.7148   66.3637  220.9087 H   0  0  0  0  0  0  0  0  0  0  0  0
  138.2537   68.0770  220.6641 H   0  0  0  0  0  0  0  0  0  0  0  0
  139.1805   66.8280  223.2786 H   0  0  0  0  0  0  0  0  0  0  0  0
  140.1726   67.8575  222.1717 H   0  0  0  0  0  0  0  0  0  0  0  0
  139.0289   69.6907  222.5806 H   0  0  0  0  0  0  0  0  0  0  0  0
  138.5374   67.1940  225.3562 H   0  0  0  0  0  0  0  0  0  0  0  0
  139.4613   67.5424  227.6178 H   0  0  0  0  0  0  0  0  0  0  0  0
  140.6616   69.6564  228.1428 H   0  0  0  0  0  0  0  0  0  0  0  0
  140.9237   71.4028  226.3966 H   0  0  0  0  0  0  0  0  0  0  0  0
  131.4013   71.2443  227.4176 H   0  0  0  0  0  0  0  0  0  0  0  0
  130.3377   73.3662  228.1310 H   0  0  0  0  0  0  0  0  0  0  0  0
  130.4892   75.8554  228.2554 H   0  0  0  0  0  0  0  0  0  0  0  0
  131.7684   77.9295  227.7736 H   0  0  0  0  0  0  0  0  0  0  0  0
  133.9767   77.8008  226.6353 H   0  0  0  0  0  0  0  0  0  0  0  0
  134.9272   75.5916  225.9734 H   0  0  0  0  0  0  0  0  0  0  0  0
  1  2  2  0
  2  3  1  0
  3  4  1  0
  4  5  1  0
  5  6  2  0
  5  7  1  0
  7  8  1  0
  8  9  1  0
  9 10  1  0
 10 11  1  0
 11 12  1  0
 12 13  1  0
 13 14  2  0
 14 15  1  0
 15 16  2  0
 16 17  1  0
 17 18  2  0
 18 19  1  0
  2 20  1  0
 20 21  2  0
 21 22  1  0
 22 23  2  0
 23 24  1  0
 24 25  2  0
 25 26  1  0
 26 27  2  0
 27 28  1  0
 28 29  2  0
 12  7  1  0
 18 13  1  0
 29 20  1  0
 28 23  1  0
  3 30  1  0
  4 31  1  0
  4 32  1  0
  8 33  1  0
  8 34  1  0
  9 35  1  0
  9 36  1  0
 10 37  1  0
 10 38  1  0
 11 39  1  0
 11 40  1  0
 12 41  1  6
 14 42  1  0
 15 43  1  0
 16 44  1  0
 17 45  1  0
 21 46  1  0
 22 47  1  0
 24 48  1  0
 25 49  1  0
 26 50  1  0
 27 51  1  0
M  END
>  <smiles>  (40) 
O=C(NCC(=O)N1CCCCC1c1ccccc1Cl)c1ccc2ccccc2n1

>  <score_type>  (40) 
oracle

>  <origin>  (40) 
autodockgpu

>  <m_score__min__energy>  (40) 
-9.2200000000000006

>  <m_primary>  (40) 
energy

>  <rmsd>  (40) 
8.839308877251614

>  <m_score__min__rmsd>  (40) 
8.839308877251614

>  <meeko>  (40) 
{"free_energy": -7.84, "intermolecular_energy": -9.33, "internal_energy": -2.48, "cluster_size": 3, "cluster_id": 3, "rank_in_cluster": 3}

>  <energy>  (40) 
-8.23

>  <cluster_rmsd>  (40) 
0.0

>  <cluster>  (40) 
2

$$$$

     RDKit          3D

 51 54  0  0  0  0  0  0  0  0999 V2000
  140.5560   71.5310  221.2910 O   0  0  0  0  0  0  0  0  0  0  0  0
  140.2010   72.1360  222.3220 C   0  0  0  0  0  0  0  0  0  0  0  0
  139.8700   73.5180  222.3710 N   0  0  0  0  0  0  0  0  0  0  0  0
  139.9350   74.3040  221.1810 C   0  0  0  0  0  0  0  0  0  0  0  0
  140.6840   75.5710  221.4450 C   0  0  0  0  0  0  0  0  0  0  0  0
  140.6260   75.9980  222.6380 O   0  0  0  0  0  0  0  0  0  0  0  0
  141.4080   76.2420  220.4220 N   0  0  0  0  0  0  0  0  0  0  0  0
  142.3830   75.4820  219.6740 C   0  0  0  0  0  0  0  0  0  0  0  0
  143.3990   76.3280  218.9800 C   0  0  0  0  0  0  0  0  0  0  0  0
  142.6210   77.4450  218.2780 C   0  0  0  0  0  0  0  0  0  0  0  0
  142.0570   78.3600  219.3140 C   0  0  0  0  0  0  0  0  0  0  0  0
  141.1100   77.6380  220.2060 C   0  0  2  0  0  0  0  0  0  0  0  0
  140.8380   78.3600  221.4750 C   0  0  0  0  0  0  0  0  0  0  0  0
  141.8540   78.8230  222.3010 C   0  0  0  0  0  0  0  0  0  0  0  0
  141.6030   79.4970  223.4800 C   0  0  0  0  0  0  0  0  0  0  0  0
  140.2940   79.7220  223.8620 C   0  0  0  0  0  0  0  0  0  0  0  0
  139.2530   79.2770  223.0680 C   0  0  0  0  0  0  0  0  0  0  0  0
  139.5260   78.6030  221.8880 C   0  0  0  0  0  0  0  0  0  0  0  0
  138.1610   78.0700  220.9380 Cl  0  0  0  0  0  0  0  0  0  0  0  0
  140.1170   71.3730  223.5790 C   0  0  0  0  0  0  0  0  0  0  0  0
  139.5560   70.1150  223.6240 C   0  0  0  0  0  0  0  0  0  0  0  0
  139.4630   69.3730  224.7930 C   0  0  0  0  0  0  0  0  0  0  0  0
  139.9610   69.9290  225.9630 C   0  0  0  0  0  0  0  0  0  0  0  0
  139.9160   69.2710  227.1760 C   0  0  0  0  0  0  0  0  0  0  0  0
  140.4290   69.8780  228.3090 C   0  0  0  0  0  0  0  0  0  0  0  0
  140.9900   71.1530  228.2260 C   0  0  0  0  0  0  0  0  0  0  0  0
  141.0440   71.8260  227.0220 C   0  0  0  0  0  0  0  0  0  0  0  0
  140.5210   71.1870  225.9070 C   0  0  0  0  0  0  0  0  0  0  0  0
  140.5860   71.8670  224.7450 N   0  0  0  0  0  0  0  0  0  0  0  0
  139.5810   73.9550  223.2760 H   0  0  0  0  0  0  0  0  0  0  0  0
  140.4509   73.7329  220.3950 H   0  0  0  0  0  0  0  0  0  0  0  0
  138.9137   74.5497  220.8544 H   0  0  0  0  0  0  0  0  0  0  0  0
  142.9072   74.8098  220.3693 H   0  0  0  0  0  0  0  0  0  0  0  0
  141.8340   74.9338  218.8941 H   0  0  0  0  0  0  0  0  0  0  0  0
  144.1024   76.7546  219.7102 H   0  0  0  0  0  0  0  0  0  0  0  0
  143.9872   75.7381  218.2617 H   0  0  0  0  0  0  0  0  0  0  0  0
  143.2964   78.0069  217.6161 H   0  0  0  0  0  0  0  0  0  0  0  0
  141.8075   77.0138  217.6761 H   0  0  0  0  0  0  0  0  0  0  0  0
  142.8798   78.7689  219.9188 H   0  0  0  0  0  0  0  0  0  0  0  0
  141.5118   79.1695  218.8066 H   0  0  0  0  0  0  0  0  0  0  0  0
  140.1723   77.6317  219.6310 H   0  0  0  0  0  0  0  0  0  0  0  0
  142.8985   78.6461  222.0048 H   0  0  0  0  0  0  0  0  0  0  0  0
  142.4347   79.8504  224.1073 H   0  0  0  0  0  0  0  0  0  0  0  0
  140.0798   80.2561  224.7995 H   0  0  0  0  0  0  0  0  0  0  0  0
  138.2113   79.4574  223.3719 H   0  0  0  0  0  0  0  0  0  0  0  0
  139.1648   69.6800  222.6925 H   0  0  0  0  0  0  0  0  0  0  0  0
  139.0072   68.3719  224.7923 H   0  0  0  0  0  0  0  0  0  0  0  0
  139.4732   68.2662  227.2417 H   0  0  0  0  0  0  0  0  0  0  0  0
  140.3945   69.3548  229.2760 H   0  0  0  0  0  0  0  0  0  0  0  0
  141.3945   71.6280  229.1319 H   0  0  0  0  0  0  0  0  0  0  0  0
  141.4851   72.8311  226.9493 H   0  0  0  0  0  0  0  0  0  0  0  0
  1  2  2  0
  2  3  1  0
  3  4  1  0
  4  5  1  0
  5  6  2  0
  5  7  1  0
  7  8  1  0
  8  9  1  0
  9 10  1  0
 10 11  1  0
 11 12  1  0
 12 13  1  0
 13 14  2  0
 14 15  1  0
 15 16  2  0
 16 17  1  0
 17 18  2  0
 18 19  1  0
  2 20  1  0
 20 21  2  0
 21 22  1  0
 22 23  2  0
 23 24  1  0
 24 25  2  0
 25 26  1  0
 26 27  2  0
 27 28  1  0
 28 29  2  0
 12  7  1  0
 18 13  1  0
 29 20  1  0
 28 23  1  0
  3 30  1  0
  4 31  1  0
  4 32  1  0
  8 33  1  0
  8 34  1  0
  9 35  1  0
  9 36  1  0
 10 37  1  0
 10 38  1  0
 11 39  1  0
 11 40  1  0
 12 41  1  6
 14 42  1  0
 15 43  1  0
 16 44  1  0
 17 45  1  0
 21 46  1  0
 22 47  1  0
 24 48  1  0
 25 49  1  0
 26 50  1  0
 27 51  1  0
M  END
>  <smiles>  (41) 
O=C(NCC(=O)N1CCCCC1c1ccccc1Cl)c1ccc2ccccc2n1

>  <score_type>  (41) 
oracle

>  <origin>  (41) 
autodockgpu

>  <m_score__min__energy>  (41) 
-9.2200000000000006

>  <m_primary>  (41) 
energy

>  <rmsd>  (41) 
2.0508907607358244

>  <m_score__min__rmsd>  (41) 
2.0508907607358244

>  <meeko>  (41) 
{"free_energy": -9.11, "intermolecular_energy": -10.6, "internal_energy": -1.86, "cluster_size": 39, "cluster_id": 1, "rank_in_cluster": 18}

>  <energy>  (41) 
-8.13

>  <cluster_rmsd>  (41) 
0.28

>  <cluster>  (41) 
2

$$$$

     RDKit          3D

 51 54  0  0  0  0  0  0  0  0999 V2000
  140.5960   71.5340  221.2890 O   0  0  0  0  0  0  0  0  0  0  0  0
  140.2260   72.1470  222.3100 C   0  0  0  0  0  0  0  0  0  0  0  0
  139.8870   73.5270  222.3410 N   0  0  0  0  0  0  0  0  0  0  0  0
  139.9610   74.3020  221.1440 C   0  0  0  0  0  0  0  0  0  0  0  0
  140.6630   75.5950  221.4130 C   0  0  0  0  0  0  0  0  0  0  0  0
  140.5640   76.0290  222.6010 O   0  0  0  0  0  0  0  0  0  0  0  0
  141.3860   76.2820  220.4010 N   0  0  0  0  0  0  0  0  0  0  0  0
  142.3630   75.5340  219.6440 C   0  0  0  0  0  0  0  0  0  0  0  0
  143.3790   76.3920  218.9640 C   0  0  0  0  0  0  0  0  0  0  0  0
  142.6010   77.5180  218.2770 C   0  0  0  0  0  0  0  0  0  0  0  0
  142.0340   78.4170  219.3250 C   0  0  0  0  0  0  0  0  0  0  0  0
  141.0870   77.6800  220.2060 C   0  0  2  0  0  0  0  0  0  0  0  0
  140.8120   78.3830  221.4840 C   0  0  0  0  0  0  0  0  0  0  0  0
  141.8260   78.8220  222.3260 C   0  0  0  0  0  0  0  0  0  0  0  0
  141.5720   79.4780  223.5150 C   0  0  0  0  0  0  0  0  0  0  0  0
  140.2630   79.7100  223.8900 C   0  0  0  0  0  0  0  0  0  0  0  0
  139.2240   79.2890  223.0810 C   0  0  0  0  0  0  0  0  0  0  0  0
  139.4990   78.6330  221.8920 C   0  0  0  0  0  0  0  0  0  0  0  0
  138.1360   78.1300  220.9220 Cl  0  0  0  0  0  0  0  0  0  0  0  0
  140.1310   71.3960  223.5740 C   0  0  0  0  0  0  0  0  0  0  0  0
  139.5520   70.1460  223.6290 C   0  0  0  0  0  0  0  0  0  0  0  0
  139.4490   69.4160  224.8040 C   0  0  0  0  0  0  0  0  0  0  0  0
  139.9540   69.9750  225.9700 C   0  0  0  0  0  0  0  0  0  0  0  0
  139.9000   69.3280  227.1880 C   0  0  0  0  0  0  0  0  0  0  0  0
  140.4210   69.9390  228.3160 C   0  0  0  0  0  0  0  0  0  0  0  0
  141.0000   71.2050  228.2220 C   0  0  0  0  0  0  0  0  0  0  0  0
  141.0630   71.8660  227.0120 C   0  0  0  0  0  0  0  0  0  0  0  0
  140.5320   71.2250  225.9030 C   0  0  0  0  0  0  0  0  0  0  0  0
  140.6070   71.8940  224.7350 N   0  0  0  0  0  0  0  0  0  0  0  0
  139.5840   73.9720  223.2370 H   0  0  0  0  0  0  0  0  0  0  0  0
  140.5159   73.7387  220.3793 H   0  0  0  0  0  0  0  0  0  0  0  0
  138.9420   74.5124  220.7871 H   0  0  0  0  0  0  0  0  0  0  0  0
  142.8870   74.8526  220.3304 H   0  0  0  0  0  0  0  0  0  0  0  0
  141.8163   74.9959  218.8556 H   0  0  0  0  0  0  0  0  0  0  0  0
  144.0804   76.8089  219.7017 H   0  0  0  0  0  0  0  0  0  0  0  0
  143.9691   75.8134  218.2381 H   0  0  0  0  0  0  0  0  0  0  0  0
  143.2769   78.0903  217.6246 H   0  0  0  0  0  0  0  0  0  0  0  0
  141.7892   77.0946  217.6674 H   0  0  0  0  0  0  0  0  0  0  0  0
  142.8552   78.8190  219.9365 H   0  0  0  0  0  0  0  0  0  0  0  0
  141.4877   79.2325  218.8285 H   0  0  0  0  0  0  0  0  0  0  0  0
  140.1498   77.6803  219.6301 H   0  0  0  0  0  0  0  0  0  0  0  0
  142.8711   78.6403  222.0349 H   0  0  0  0  0  0  0  0  0  0  0  0
  142.4020   79.8115  224.1552 H   0  0  0  0  0  0  0  0  0  0  0  0
  140.0468   80.2309  224.8344 H   0  0  0  0  0  0  0  0  0  0  0  0
  138.1819   79.4743  223.3804 H   0  0  0  0  0  0  0  0  0  0  0  0
  139.1546   69.7087  222.7012 H   0  0  0  0  0  0  0  0  0  0  0  0
  138.9799   68.4211  224.8116 H   0  0  0  0  0  0  0  0  0  0  0  0
  139.4443   68.3296  227.2624 H   0  0  0  0  0  0  0  0  0  0  0  0
  140.3784   69.4255  229.2878 H   0  0  0  0  0  0  0  0  0  0  0  0
  141.4114   71.6823  229.1236 H   0  0  0  0  0  0  0  0  0  0  0  0
  141.5176   72.8643  226.9304 H   0  0  0  0  0  0  0  0  0  0  0  0
  1  2  2  0
  2  3  1  0
  3  4  1  0
  4  5  1  0
  5  6  2  0
  5  7  1  0
  7  8  1  0
  8  9  1  0
  9 10  1  0
 10 11  1  0
 11 12  1  0
 12 13  1  0
 13 14  2  0
 14 15  1  0
 15 16  2  0
 16 17  1  0
 17 18  2  0
 18 19  1  0
  2 20  1  0
 20 21  2  0
 21 22  1  0
 22 23  2  0
 23 24  1  0
 24 25  2  0
 25 26  1  0
 26 27  2  0
 27 28  1  0
 28 29  2  0
 12  7  1  0
 18 13  1  0
 29 20  1  0
 28 23  1  0
  3 30  1  0
  4 31  1  0
  4 32  1  0
  8 33  1  0
  8 34  1  0
  9 35  1  0
  9 36  1  0
 10 37  1  0
 10 38  1  0
 11 39  1  0
 11 40  1  0
 12 41  1  6
 14 42  1  0
 15 43  1  0
 16 44  1  0
 17 45  1  0
 21 46  1  0
 22 47  1  0
 24 48  1  0
 25 49  1  0
 26 50  1  0
 27 51  1  0
M  END
>  <smiles>  (42) 
O=C(NCC(=O)N1CCCCC1c1ccccc1Cl)c1ccc2ccccc2n1

>  <score_type>  (42) 
oracle

>  <origin>  (42) 
autodockgpu

>  <m_score__min__energy>  (42) 
-9.2200000000000006

>  <m_primary>  (42) 
energy

>  <rmsd>  (42) 
2.0642276966485977

>  <m_score__min__rmsd>  (42) 
2.0642276966485977

>  <meeko>  (42) 
{"free_energy": -9.15, "intermolecular_energy": -10.64, "internal_energy": -1.82, "cluster_size": 39, "cluster_id": 1, "rank_in_cluster": 6}

>  <energy>  (42) 
-8.12

>  <cluster_rmsd>  (42) 
0.28

>  <cluster>  (42) 
2

$$$$

     RDKit          3D

 51 54  0  0  0  0  0  0  0  0999 V2000
  140.5920   71.5780  221.2500 O   0  0  0  0  0  0  0  0  0  0  0  0
  140.2210   72.1780  222.2790 C   0  0  0  0  0  0  0  0  0  0  0  0
  139.8730   73.5550  222.3260 N   0  0  0  0  0  0  0  0  0  0  0  0
  139.9380   74.3430  221.1370 C   0  0  0  0  0  0  0  0  0  0  0  0
  140.7040   75.6010  221.3970 C   0  0  0  0  0  0  0  0  0  0  0  0
  140.6950   76.0040  222.6000 O   0  0  0  0  0  0  0  0  0  0  0  0
  141.3900   76.2900  220.3600 N   0  0  0  0  0  0  0  0  0  0  0  0
  142.3660   75.5540  219.5910 C   0  0  0  0  0  0  0  0  0  0  0  0
  143.3480   76.4240  218.8770 C   0  0  0  0  0  0  0  0  0  0  0  0
  142.5310   77.5250  218.1950 C   0  0  0  0  0  0  0  0  0  0  0  0
  141.9680   78.4250  219.2440 C   0  0  0  0  0  0  0  0  0  0  0  0
  141.0570   77.6790  220.1550 C   0  0  2  0  0  0  0  0  0  0  0  0
  140.7950   78.3930  221.4300 C   0  0  0  0  0  0  0  0  0  0  0  0
  141.8170   78.8900  222.2290 C   0  0  0  0  0  0  0  0  0  0  0  0
  141.5760   79.5550  223.4150 C   0  0  0  0  0  0  0  0  0  0  0  0
  140.2720   79.7370  223.8320 C   0  0  0  0  0  0  0  0  0  0  0  0
  139.2240   79.2570  223.0670 C   0  0  0  0  0  0  0  0  0  0  0  0
  139.4870   78.5930  221.8800 C   0  0  0  0  0  0  0  0  0  0  0  0
  138.1150   78.0140  220.9660 Cl  0  0  0  0  0  0  0  0  0  0  0  0
  140.1360   71.4130  223.5350 C   0  0  0  0  0  0  0  0  0  0  0  0
  139.5600   70.1610  223.5800 C   0  0  0  0  0  0  0  0  0  0  0  0
  139.4660   69.4180  224.7480 C   0  0  0  0  0  0  0  0  0  0  0  0
  139.9780   69.9650  225.9160 C   0  0  0  0  0  0  0  0  0  0  0  0
  139.9320   69.3050  227.1280 C   0  0  0  0  0  0  0  0  0  0  0  0
  140.4600   69.9040  228.2590 C   0  0  0  0  0  0  0  0  0  0  0  0
  141.0360   71.1730  228.1750 C   0  0  0  0  0  0  0  0  0  0  0  0
  141.0900   71.8470  226.9720 C   0  0  0  0  0  0  0  0  0  0  0  0
  140.5520   71.2170  225.8590 C   0  0  0  0  0  0  0  0  0  0  0  0
  140.6180   71.8990  224.6980 N   0  0  0  0  0  0  0  0  0  0  0  0
  139.5710   73.9890  223.2280 H   0  0  0  0  0  0  0  0  0  0  0  0
  140.4409   73.7675  220.3458 H   0  0  0  0  0  0  0  0  0  0  0  0
  138.9171   74.6015  220.8195 H   0  0  0  0  0  0  0  0  0  0  0  0
  142.9199   74.8933  220.2742 H   0  0  0  0  0  0  0  0  0  0  0  0
  141.8136   74.9944  218.8218 H   0  0  0  0  0  0  0  0  0  0  0  0
  144.0576   76.8644  219.5929 H   0  0  0  0  0  0  0  0  0  0  0  0
  143.9331   75.8486  218.1445 H   0  0  0  0  0  0  0  0  0  0  0  0
  143.1799   78.1034  217.5209 H   0  0  0  0  0  0  0  0  0  0  0  0
  141.7148   77.0768  217.6094 H   0  0  0  0  0  0  0  0  0  0  0  0
  142.7936   78.8525  219.8320 H   0  0  0  0  0  0  0  0  0  0  0  0
  141.3933   79.2222  218.7498 H   0  0  0  0  0  0  0  0  0  0  0  0
  140.1074   77.6513  219.6006 H   0  0  0  0  0  0  0  0  0  0  0  0
  142.8584   78.7483  221.9044 H   0  0  0  0  0  0  0  0  0  0  0  0
  142.4123   79.9351  224.0201 H   0  0  0  0  0  0  0  0  0  0  0  0
  140.0662   80.2650  224.7748 H   0  0  0  0  0  0  0  0  0  0  0  0
  138.1857   79.4021  223.4001 H   0  0  0  0  0  0  0  0  0  0  0  0
  139.1577   69.7329  222.6500 H   0  0  0  0  0  0  0  0  0  0  0  0
  138.9983   68.4224  224.7481 H   0  0  0  0  0  0  0  0  0  0  0  0
  139.4770   68.3058  227.1947 H   0  0  0  0  0  0  0  0  0  0  0  0
  140.4257   69.3793  229.2252 H   0  0  0  0  0  0  0  0  0  0  0  0
  141.4520   71.6415  229.0791 H   0  0  0  0  0  0  0  0  0  0  0  0
  141.5428   72.8468  226.8982 H   0  0  0  0  0  0  0  0  0  0  0  0
  1  2  2  0
  2  3  1  0
  3  4  1  0
  4  5  1  0
  5  6  2  0
  5  7  1  0
  7  8  1  0
  8  9  1  0
  9 10  1  0
 10 11  1  0
 11 12  1  0
 12 13  1  0
 13 14  2  0
 14 15  1  0
 15 16  2  0
 16 17  1  0
 17 18  2  0
 18 19  1  0
  2 20  1  0
 20 21  2  0
 21 22  1  0
 22 23  2  0
 23 24  1  0
 24 25  2  0
 25 26  1  0
 26 27  2  0
 27 28  1  0
 28 29  2  0
 12  7  1  0
 18 13  1  0
 29 20  1  0
 28 23  1  0
  3 30  1  0
  4 31  1  0
  4 32  1  0
  8 33  1  0
  8 34  1  0
  9 35  1  0
  9 36  1  0
 10 37  1  0
 10 38  1  0
 11 39  1  0
 11 40  1  0
 12 41  1  6
 14 42  1  0
 15 43  1  0
 16 44  1  0
 17 45  1  0
 21 46  1  0
 22 47  1  0
 24 48  1  0
 25 49  1  0
 26 50  1  0
 27 51  1  0
M  END
>  <smiles>  (43) 
O=C(NCC(=O)N1CCCCC1c1ccccc1Cl)c1ccc2ccccc2n1

>  <score_type>  (43) 
oracle

>  <origin>  (43) 
autodockgpu

>  <m_score__min__energy>  (43) 
-9.2200000000000006

>  <m_primary>  (43) 
energy

>  <rmsd>  (43) 
2.041920248148029

>  <m_score__min__rmsd>  (43) 
2.041920248148029

>  <meeko>  (43) 
{"free_energy": -9.12, "intermolecular_energy": -10.61, "internal_energy": -1.87, "cluster_size": 39, "cluster_id": 1, "rank_in_cluster": 16}

>  <energy>  (43) 
-8.11

>  <cluster_rmsd>  (43) 
0.27

>  <cluster>  (43) 
2

$$$$

     RDKit          3D

 51 54  0  0  0  0  0  0  0  0999 V2000
  140.5720   71.3270  221.2190 O   0  0  0  0  0  0  0  0  0  0  0  0
  140.2890   72.0090  222.2250 C   0  0  0  0  0  0  0  0  0  0  0  0
  140.0520   73.4100  222.2060 N   0  0  0  0  0  0  0  0  0  0  0  0
  140.1300   74.1260  220.9730 C   0  0  0  0  0  0  0  0  0  0  0  0
  141.0240   75.3150  221.1280 C   0  0  0  0  0  0  0  0  0  0  0  0
  141.3110   75.6280  222.3230 O   0  0  0  0  0  0  0  0  0  0  0  0
  141.5120   76.0390  220.0060 N   0  0  0  0  0  0  0  0  0  0  0  0
  140.5730   76.8480  219.2640 C   0  0  0  0  0  0  0  0  0  0  0  0
  141.0270   77.1780  217.8800 C   0  0  0  0  0  0  0  0  0  0  0  0
  142.4810   77.6430  218.0050 C   0  0  0  0  0  0  0  0  0  0  0  0
  143.3280   76.4720  218.3780 C   0  0  0  0  0  0  0  0  0  0  0  0
  142.9150   75.9110  219.6930 C   0  0  2  0  0  0  0  0  0  0  0  0
  143.4230   74.5350  219.9260 C   0  0  0  0  0  0  0  0  0  0  0  0
  144.4290   74.2590  220.8430 C   0  0  0  0  0  0  0  0  0  0  0  0
  144.9020   72.9800  221.0630 C   0  0  0  0  0  0  0  0  0  0  0  0
  144.3610   71.9290  220.3480 C   0  0  0  0  0  0  0  0  0  0  0  0
  143.3580   72.1610  219.4250 C   0  0  0  0  0  0  0  0  0  0  0  0
  142.8960   73.4520  219.2190 C   0  0  0  0  0  0  0  0  0  0  0  0
  141.6280   73.6690  218.0380 Cl  0  0  0  0  0  0  0  0  0  0  0  0
  140.1940   71.3210  223.5240 C   0  0  0  0  0  0  0  0  0  0  0  0
  139.6280   70.0700  223.6390 C   0  0  0  0  0  0  0  0  0  0  0  0
  139.5250   69.3980  224.8480 C   0  0  0  0  0  0  0  0  0  0  0  0
  140.0170   70.0210  225.9870 C   0  0  0  0  0  0  0  0  0  0  0  0
  139.9610   69.4360  227.2370 C   0  0  0  0  0  0  0  0  0  0  0  0
  140.4690   70.1070  228.3360 C   0  0  0  0  0  0  0  0  0  0  0  0
  141.0350   71.3730  228.1810 C   0  0  0  0  0  0  0  0  0  0  0  0
  141.0990   71.9730  226.9400 C   0  0  0  0  0  0  0  0  0  0  0  0
  140.5820   71.2720  225.8610 C   0  0  0  0  0  0  0  0  0  0  0  0
  140.6570   71.8820  224.6620 N   0  0  0  0  0  0  0  0  0  0  0  0
  139.8190   73.9140  223.0920 H   0  0  0  0  0  0  0  0  0  0  0  0
  140.5351   73.4648  220.1928 H   0  0  0  0  0  0  0  0  0  0  0  0
  139.1233   74.4657  220.6882 H   0  0  0  0  0  0  0  0  0  0  0  0
  139.6212   76.3009  219.1960 H   0  0  0  0  0  0  0  0  0  0  0  0
  140.4720   77.8006  219.8048 H   0  0  0  0  0  0  0  0  0  0  0  0
  140.9655   76.2880  217.2365 H   0  0  0  0  0  0  0  0  0  0  0  0
  140.3955   77.9562  217.4266 H   0  0  0  0  0  0  0  0  0  0  0  0
  142.8217   78.0549  217.0436 H   0  0  0  0  0  0  0  0  0  0  0  0
  142.5598   78.4232  218.7764 H   0  0  0  0  0  0  0  0  0  0  0  0
  143.2255   75.6941  217.6071 H   0  0  0  0  0  0  0  0  0  0  0  0
  144.3734   76.8059  218.4528 H   0  0  0  0  0  0  0  0  0  0  0  0
  143.4171   76.5672  220.4191 H   0  0  0  0  0  0  0  0  0  0  0  0
  144.8656   75.0905  221.4158 H   0  0  0  0  0  0  0  0  0  0  0  0
  145.6998   72.8005  221.7987 H   0  0  0  0  0  0  0  0  0  0  0  0
  144.7289   70.9056  220.5133 H   0  0  0  0  0  0  0  0  0  0  0  0
  142.9278   71.3238  218.8558 H   0  0  0  0  0  0  0  0  0  0  0  0
  139.2408   69.5827  222.7320 H   0  0  0  0  0  0  0  0  0  0  0  0
  139.0664   68.3996  224.9028 H   0  0  0  0  0  0  0  0  0  0  0  0
  139.5135   68.4386  227.3589 H   0  0  0  0  0  0  0  0  0  0  0  0
  140.4265   69.6420  229.3320 H   0  0  0  0  0  0  0  0  0  0  0  0
  141.4355   71.8997  229.0597 H   0  0  0  0  0  0  0  0  0  0  0  0
  141.5438   72.9708  226.8114 H   0  0  0  0  0  0  0  0  0  0  0  0
  1  2  2  0
  2  3  1  0
  3  4  1  0
  4  5  1  0
  5  6  2  0
  5  7  1  0
  7  8  1  0
  8  9  1  0
  9 10  1  0
 10 11  1  0
 11 12  1  0
 12 13  1  0
 13 14  2  0
 14 15  1  0
 15 16  2  0
 16 17  1  0
 17 18  2  0
 18 19  1  0
  2 20  1  0
 20 21  2  0
 21 22  1  0
 22 23  2  0
 23 24  1  0
 24 25  2  0
 25 26  1  0
 26 27  2  0
 27 28  1  0
 28 29  2  0
 12  7  1  0
 18 13  1  0
 29 20  1  0
 28 23  1  0
  3 30  1  0
  4 31  1  0
  4 32  1  0
  8 33  1  0
  8 34  1  0
  9 35  1  0
  9 36  1  0
 10 37  1  0
 10 38  1  0
 11 39  1  0
 11 40  1  0
 12 41  1  1
 14 42  1  0
 15 43  1  0
 16 44  1  0
 17 45  1  0
 21 46  1  0
 22 47  1  0
 24 48  1  0
 25 49  1  0
 26 50  1  0
 27 51  1  0
M  END
>  <smiles>  (44) 
O=C(NCC(=O)N1CCCCC1c1ccccc1Cl)c1ccc2ccccc2n1

>  <score_type>  (44) 
oracle

>  <origin>  (44) 
autodockgpu

>  <m_score__min__energy>  (44) 
-9.2200000000000006

>  <m_primary>  (44) 
energy

>  <rmsd>  (44) 
1.9440850477881135

>  <m_score__min__rmsd>  (44) 
1.9440850477881135

>  <meeko>  (44) 
{"free_energy": -8.12, "intermolecular_energy": -9.62, "internal_energy": -2.43, "cluster_size": 7, "cluster_id": 2, "rank_in_cluster": 3}

>  <energy>  (44) 
-8.07

>  <cluster_rmsd>  (44) 
0.23

>  <cluster>  (44) 
2

$$$$

     RDKit          3D

 51 54  0  0  0  0  0  0  0  0999 V2000
  133.4720   69.8560  226.8060 O   0  0  0  0  0  0  0  0  0  0  0  0
  133.9120   70.9180  226.3220 C   0  0  0  0  0  0  0  0  0  0  0  0
  135.0240   71.0010  225.4410 N   0  0  0  0  0  0  0  0  0  0  0  0
  135.7150   69.8110  225.0580 C   0  0  0  0  0  0  0  0  0  0  0  0
  136.6810   70.1120  223.9570 C   0  0  0  0  0  0  0  0  0  0  0  0
  136.9770   71.3370  223.8130 O   0  0  0  0  0  0  0  0  0  0  0  0
  137.2230   69.0880  223.1330 N   0  0  0  0  0  0  0  0  0  0  0  0
  136.3080   68.3210  222.3200 C   0  0  0  0  0  0  0  0  0  0  0  0
  136.8610   67.0080  221.8710 C   0  0  0  0  0  0  0  0  0  0  0  0
  138.2720   67.2930  221.3470 C   0  0  0  0  0  0  0  0  0  0  0  0
  139.1460   67.6620  222.4990 C   0  0  0  0  0  0  0  0  0  0  0  0
  138.6530   68.8950  223.1700 C   0  0  2  0  0  0  0  0  0  0  0  0
  139.2130   69.0810  224.5330 C   0  0  0  0  0  0  0  0  0  0  0  0
  139.0770   68.1240  225.5310 C   0  0  0  0  0  0  0  0  0  0  0  0
  139.5990   68.2950  226.7980 C   0  0  0  0  0  0  0  0  0  0  0  0
  140.2820   69.4580  227.0950 C   0  0  0  0  0  0  0  0  0  0  0  0
  140.4390   70.4370  226.1300 C   0  0  0  0  0  0  0  0  0  0  0  0
  139.9080   70.2460  224.8640 C   0  0  0  0  0  0  0  0  0  0  0  0
  140.1450   71.5250  223.6980 Cl  0  0  0  0  0  0  0  0  0  0  0  0
  133.2370   72.1770  226.6830 C   0  0  0  0  0  0  0  0  0  0  0  0
  131.9840   72.1850  227.2580 C   0  0  0  0  0  0  0  0  0  0  0  0
  131.3240   73.3530  227.6090 C   0  0  0  0  0  0  0  0  0  0  0  0
  131.9600   74.5630  227.3670 C   0  0  0  0  0  0  0  0  0  0  0  0
  131.3870   75.7800  227.6790 C   0  0  0  0  0  0  0  0  0  0  0  0
  132.0720   76.9530  227.4130 C   0  0  0  0  0  0  0  0  0  0  0  0
  133.3390   76.9060  226.8310 C   0  0  0  0  0  0  0  0  0  0  0  0
  133.9270   75.6990  226.5110 C   0  0  0  0  0  0  0  0  0  0  0  0
  133.2130   74.5430  226.7920 C   0  0  0  0  0  0  0  0  0  0  0  0
  133.8110   73.3800  226.4690 N   0  0  0  0  0  0  0  0  0  0  0  0
  135.3340   71.9300  225.0750 H   0  0  0  0  0  0  0  0  0  0  0  0
  136.2631   69.4131  225.9248 H   0  0  0  0  0  0  0  0  0  0  0  0
  134.9852   69.0677  224.7046 H   0  0  0  0  0  0  0  0  0  0  0  0
  135.3968   68.1319  222.9066 H   0  0  0  0  0  0  0  0  0  0  0  0
  136.1084   68.9128  221.4145 H   0  0  0  0  0  0  0  0  0  0  0  0
  136.9030   66.3037  222.7149 H   0  0  0  0  0  0  0  0  0  0  0  0
  136.2298   66.5529  221.0935 H   0  0  0  0  0  0  0  0  0  0  0  0
  138.6713   66.3953  220.8524 H   0  0  0  0  0  0  0  0  0  0  0  0
  138.2419   68.1185  220.6206 H   0  0  0  0  0  0  0  0  0  0  0  0
  139.1521   66.8355  223.2249 H   0  0  0  0  0  0  0  0  0  0  0  0
  140.1616   67.8513  222.1213 H   0  0  0  0  0  0  0  0  0  0  0  0
  139.0543   69.7049  222.5431 H   0  0  0  0  0  0  0  0  0  0  0  0
  138.5331   67.1953  225.3034 H   0  0  0  0  0  0  0  0  0  0  0  0
  139.4722   67.5138  227.5620 H   0  0  0  0  0  0  0  0  0  0  0  0
  140.7020   69.6063  228.1008 H   0  0  0  0  0  0  0  0  0  0  0  0
  140.9831   71.3633  226.3666 H   0  0  0  0  0  0  0  0  0  0  0  0
  131.4859   71.2226  227.4466 H   0  0  0  0  0  0  0  0  0  0  0  0
  130.3242   73.3216  228.0665 H   0  0  0  0  0  0  0  0  0  0  0  0
  130.3881   75.8172  228.1381 H   0  0  0  0  0  0  0  0  0  0  0  0
  131.6169   77.9233  227.6608 H   0  0  0  0  0  0  0  0  0  0  0  0
  133.8765   77.8432  226.6244 H   0  0  0  0  0  0  0  0  0  0  0  0
  134.9249   75.6551  226.0502 H   0  0  0  0  0  0  0  0  0  0  0  0
  1  2  2  0
  2  3  1  0
  3  4  1  0
  4  5  1  0
  5  6  2  0
  5  7  1  0
  7  8  1  0
  8  9  1  0
  9 10  1  0
 10 11  1  0
 11 12  1  0
 12 13  1  0
 13 14  2  0
 14 15  1  0
 15 16  2  0
 16 17  1  0
 17 18  2  0
 18 19  1  0
  2 20  1  0
 20 21  2  0
 21 22  1  0
 22 23  2  0
 23 24  1  0
 24 25  2  0
 25 26  1  0
 26 27  2  0
 27 28  1  0
 28 29  2  0
 12  7  1  0
 18 13  1  0
 29 20  1  0
 28 23  1  0
  3 30  1  0
  4 31  1  0
  4 32  1  0
  8 33  1  0
  8 34  1  0
  9 35  1  0
  9 36  1  0
 10 37  1  0
 10 38  1  0
 11 39  1  0
 11 40  1  0
 12 41  1  6
 14 42  1  0
 15 43  1  0
 16 44  1  0
 17 45  1  0
 21 46  1  0
 22 47  1  0
 24 48  1  0
 25 49  1  0
 26 50  1  0
 27 51  1  0
M  END
>  <smiles>  (45) 
O=C(NCC(=O)N1CCCCC1c1ccccc1Cl)c1ccc2ccccc2n1

>  <score_type>  (45) 
oracle

>  <origin>  (45) 
autodockgpu

>  <m_score__min__energy>  (45) 
-9.2200000000000006

>  <m_primary>  (45) 
energy

>  <rmsd>  (45) 
8.824117008810564

>  <m_score__min__rmsd>  (45) 
8.824117008810564

>  <meeko>  (45) 
{"free_energy": -7.87, "intermolecular_energy": -9.36, "internal_energy": -2.45, "cluster_size": 3, "cluster_id": 3, "rank_in_cluster": 2}

>  <energy>  (45) 
-8.07

>  <cluster_rmsd>  (45) 
0.23

>  <cluster>  (45) 
2

$$$$

     RDKit          3D

 51 54  0  0  0  0  0  0  0  0999 V2000
  140.5570   71.3900  221.2040 O   0  0  0  0  0  0  0  0  0  0  0  0
  140.2400   72.0520  222.2130 C   0  0  0  0  0  0  0  0  0  0  0  0
  139.9550   73.4450  222.2050 N   0  0  0  0  0  0  0  0  0  0  0  0
  140.0230   74.1740  220.9790 C   0  0  0  0  0  0  0  0  0  0  0  0
  140.9620   75.3290  221.1230 C   0  0  0  0  0  0  0  0  0  0  0  0
  141.2780   75.6280  222.3140 O   0  0  0  0  0  0  0  0  0  0  0  0
  141.4590   76.0370  219.9950 N   0  0  0  0  0  0  0  0  0  0  0  0
  140.5310   76.8510  219.2460 C   0  0  0  0  0  0  0  0  0  0  0  0
  140.9900   77.1640  217.8600 C   0  0  0  0  0  0  0  0  0  0  0  0
  142.4500   77.6110  217.9810 C   0  0  0  0  0  0  0  0  0  0  0  0
  143.2810   76.4330  218.3640 C   0  0  0  0  0  0  0  0  0  0  0  0
  142.8610   75.8880  219.6840 C   0  0  2  0  0  0  0  0  0  0  0  0
  143.3510   74.5080  219.9290 C   0  0  0  0  0  0  0  0  0  0  0  0
  144.3590   74.2280  220.8420 C   0  0  0  0  0  0  0  0  0  0  0  0
  144.8150   72.9450  221.0740 C   0  0  0  0  0  0  0  0  0  0  0  0
  144.2550   71.8940  220.3730 C   0  0  0  0  0  0  0  0  0  0  0  0
  143.2500   72.1300  219.4540 C   0  0  0  0  0  0  0  0  0  0  0  0
  142.8050   73.4240  219.2360 C   0  0  0  0  0  0  0  0  0  0  0  0
  141.5330   73.6460  218.0600 Cl  0  0  0  0  0  0  0  0  0  0  0  0
  140.1550   71.3490  223.5050 C   0  0  0  0  0  0  0  0  0  0  0  0
  139.5930   70.0950  223.6090 C   0  0  0  0  0  0  0  0  0  0  0  0
  139.4990   69.4090  224.8110 C   0  0  0  0  0  0  0  0  0  0  0  0
  139.9960   70.0200  225.9540 C   0  0  0  0  0  0  0  0  0  0  0  0
  139.9500   69.4200  227.1970 C   0  0  0  0  0  0  0  0  0  0  0  0
  140.4620   70.0800  228.3010 C   0  0  0  0  0  0  0  0  0  0  0  0
  141.0240   71.3490  228.1580 C   0  0  0  0  0  0  0  0  0  0  0  0
  141.0790   71.9640  226.9230 C   0  0  0  0  0  0  0  0  0  0  0  0
  140.5570   71.2740  225.8390 C   0  0  0  0  0  0  0  0  0  0  0  0
  140.6230   71.8980  224.6460 N   0  0  0  0  0  0  0  0  0  0  0  0
  139.6960   73.9310  223.0930 H   0  0  0  0  0  0  0  0  0  0  0  0
  140.3825   73.5096  220.1794 H   0  0  0  0  0  0  0  0  0  0  0  0
  139.0211   74.5520  220.7272 H   0  0  0  0  0  0  0  0  0  0  0  0
  139.5726   76.3151  219.1817 H   0  0  0  0  0  0  0  0  0  0  0  0
  140.4413   77.8091  219.7789 H   0  0  0  0  0  0  0  0  0  0  0  0
  140.9170   76.2698  217.2236 H   0  0  0  0  0  0  0  0  0  0  0  0
  140.3690   77.9471  217.4006 H   0  0  0  0  0  0  0  0  0  0  0  0
  142.7961   78.0100  217.0161 H   0  0  0  0  0  0  0  0  0  0  0  0
  142.5391   78.3968  218.7456 H   0  0  0  0  0  0  0  0  0  0  0  0
  143.1684   75.6500  217.5996 H   0  0  0  0  0  0  0  0  0  0  0  0
  144.3306   76.7542  218.4363 H   0  0  0  0  0  0  0  0  0  0  0  0
  143.3720   76.5431  220.4049 H   0  0  0  0  0  0  0  0  0  0  0  0
  144.8116   75.0597  221.4019 H   0  0  0  0  0  0  0  0  0  0  0  0
  145.6140   72.7621  221.8076 H   0  0  0  0  0  0  0  0  0  0  0  0
  144.6098   70.8674  220.5468 H   0  0  0  0  0  0  0  0  0  0  0  0
  142.8045   71.2926  218.8970 H   0  0  0  0  0  0  0  0  0  0  0  0
  139.2018   69.6170  222.6988 H   0  0  0  0  0  0  0  0  0  0  0  0
  139.0434   68.4089  224.8571 H   0  0  0  0  0  0  0  0  0  0  0  0
  139.5073   68.4194  227.3097 H   0  0  0  0  0  0  0  0  0  0  0  0
  140.4257   69.6035  229.2918 H   0  0  0  0  0  0  0  0  0  0  0  0
  141.4285   71.8662  229.0405 H   0  0  0  0  0  0  0  0  0  0  0  0
  141.5205   72.9643  226.8033 H   0  0  0  0  0  0  0  0  0  0  0  0
  1  2  2  0
  2  3  1  0
  3  4  1  0
  4  5  1  0
  5  6  2  0
  5  7  1  0
  7  8  1  0
  8  9  1  0
  9 10  1  0
 10 11  1  0
 11 12  1  0
 12 13  1  0
 13 14  2  0
 14 15  1  0
 15 16  2  0
 16 17  1  0
 17 18  2  0
 18 19  1  0
  2 20  1  0
 20 21  2  0
 21 22  1  0
 22 23  2  0
 23 24  1  0
 24 25  2  0
 25 26  1  0
 26 27  2  0
 27 28  1  0
 28 29  2  0
 12  7  1  0
 18 13  1  0
 29 20  1  0
 28 23  1  0
  3 30  1  0
  4 31  1  0
  4 32  1  0
  8 33  1  0
  8 34  1  0
  9 35  1  0
  9 36  1  0
 10 37  1  0
 10 38  1  0
 11 39  1  0
 11 40  1  0
 12 41  1  1
 14 42  1  0
 15 43  1  0
 16 44  1  0
 17 45  1  0
 21 46  1  0
 22 47  1  0
 24 48  1  0
 25 49  1  0
 26 50  1  0
 27 51  1  0
M  END
>  <smiles>  (46) 
O=C(NCC(=O)N1CCCCC1c1ccccc1Cl)c1ccc2ccccc2n1

>  <score_type>  (46) 
oracle

>  <origin>  (46) 
autodockgpu

>  <m_score__min__energy>  (46) 
-9.2200000000000006

>  <m_primary>  (46) 
energy

>  <rmsd>  (46) 
1.9100504277214851

>  <m_score__min__rmsd>  (46) 
1.9100504277214851

>  <meeko>  (46) 
{"free_energy": -8.13, "intermolecular_energy": -9.62, "internal_energy": -2.4, "cluster_size": 7, "cluster_id": 2, "rank_in_cluster": 2}

>  <energy>  (46) 
-7.86

>  <cluster_rmsd>  (46) 
0.78

>  <cluster>  (46) 
2

$$$$

     RDKit          3D

 51 54  0  0  0  0  0  0  0  0999 V2000
  141.1910   71.4850  221.4120 O   0  0  0  0  0  0  0  0  0  0  0  0
  140.5050   72.0850  222.2640 C   0  0  0  0  0  0  0  0  0  0  0  0
  139.9550   73.3830  222.0850 N   0  0  0  0  0  0  0  0  0  0  0  0
  140.1780   74.0850  220.8620 C   0  0  0  0  0  0  0  0  0  0  0  0
  140.9330   75.3480  221.1270 C   0  0  0  0  0  0  0  0  0  0  0  0
  141.0750   75.6500  222.3510 O   0  0  0  0  0  0  0  0  0  0  0  0
  141.4510   76.1490  220.0730 N   0  0  0  0  0  0  0  0  0  0  0  0
  140.5390   77.0340  219.3870 C   0  0  0  0  0  0  0  0  0  0  0  0
  141.0190   77.4650  218.0400 C   0  0  0  0  0  0  0  0  0  0  0  0
  142.4800   77.8870  218.2190 C   0  0  0  0  0  0  0  0  0  0  0  0
  143.2980   76.6720  218.5080 C   0  0  0  0  0  0  0  0  0  0  0  0
  142.8560   76.0160  219.7680 C   0  0  2  0  0  0  0  0  0  0  0  0
  143.3330   74.6160  219.8960 C   0  0  0  0  0  0  0  0  0  0  0  0
  144.2730   74.2340  220.8450 C   0  0  0  0  0  0  0  0  0  0  0  0
  144.7160   72.9320  220.9670 C   0  0  0  0  0  0  0  0  0  0  0  0
  144.2130   71.9660  220.1180 C   0  0  0  0  0  0  0  0  0  0  0  0
  143.2760   72.3040  219.1590 C   0  0  0  0  0  0  0  0  0  0  0  0
  142.8430   73.6160  219.0520 C   0  0  0  0  0  0  0  0  0  0  0  0
  141.6590   73.9700  217.8180 Cl  0  0  0  0  0  0  0  0  0  0  0  0
  140.2430   71.4070  223.5450 C   0  0  0  0  0  0  0  0  0  0  0  0
  139.5050   70.2440  223.6100 C   0  0  0  0  0  0  0  0  0  0  0  0
  139.2430   69.5840  224.8010 C   0  0  0  0  0  0  0  0  0  0  0  0
  139.7480   70.1240  225.9750 C   0  0  0  0  0  0  0  0  0  0  0  0
  139.5420   69.5430  227.2100 C   0  0  0  0  0  0  0  0  0  0  0  0
  140.0730   70.1300  228.3460 C   0  0  0  0  0  0  0  0  0  0  0  0
  140.8150   71.3080  228.2430 C   0  0  0  0  0  0  0  0  0  0  0  0
  141.0310   71.9030  227.0160 C   0  0  0  0  0  0  0  0  0  0  0  0
  140.4850   71.2870  225.8990 C   0  0  0  0  0  0  0  0  0  0  0  0
  140.7120   71.8900  224.7160 N   0  0  0  0  0  0  0  0  0  0  0  0
  139.3890   73.8220  222.8470 H   0  0  0  0  0  0  0  0  0  0  0  0
  140.7599   73.4495  220.1782 H   0  0  0  0  0  0  0  0  0  0  0  0
  139.2080   74.3333  220.4064 H   0  0  0  0  0  0  0  0  0  0  0  0
  139.5778   76.5138  219.2630 H   0  0  0  0  0  0  0  0  0  0  0  0
  140.4490   77.9418  220.0016 H   0  0  0  0  0  0  0  0  0  0  0  0
  140.9481   76.6314  217.3257 H   0  0  0  0  0  0  0  0  0  0  0  0
  140.4100   78.2910  217.6440 H   0  0  0  0  0  0  0  0  0  0  0  0
  142.8422   78.3664  217.2976 H   0  0  0  0  0  0  0  0  0  0  0  0
  142.5641   78.6016  219.0510 H   0  0  0  0  0  0  0  0  0  0  0  0
  143.1910   75.9606  217.6759 H   0  0  0  0  0  0  0  0  0  0  0  0
  144.3485   76.9773  218.6229 H   0  0  0  0  0  0  0  0  0  0  0  0
  143.3614   76.6003  220.5511 H   0  0  0  0  0  0  0  0  0  0  0  0
  144.6795   74.9974  221.5246 H   0  0  0  0  0  0  0  0  0  0  0  0
  145.4611   72.6672  221.7317 H   0  0  0  0  0  0  0  0  0  0  0  0
  144.5585   70.9253  220.2048 H   0  0  0  0  0  0  0  0  0  0  0  0
  142.8756   71.5339  218.4832 H   0  0  0  0  0  0  0  0  0  0  0  0
  139.1066   69.8212  222.6759 H   0  0  0  0  0  0  0  0  0  0  0  0
  138.6507   68.6572  224.8146 H   0  0  0  0  0  0  0  0  0  0  0  0
  138.9569   68.6151  227.2916 H   0  0  0  0  0  0  0  0  0  0  0  0
  139.9100   69.6677  229.3307 H   0  0  0  0  0  0  0  0  0  0  0  0
  141.2328   71.7679  229.1507 H   0  0  0  0  0  0  0  0  0  0  0  0
  141.6145   72.8313  226.9272 H   0  0  0  0  0  0  0  0  0  0  0  0
  1  2  2  0
  2  3  1  0
  3  4  1  0
  4  5  1  0
  5  6  2  0
  5  7  1  0
  7  8  1  0
  8  9  1  0
  9 10  1  0
 10 11  1  0
 11 12  1  0
 12 13  1  0
 13 14  2  0
 14 15  1  0
 15 16  2  0
 16 17  1  0
 17 18  2  0
 18 19  1  0
  2 20  1  0
 20 21  2  0
 21 22  1  0
 22 23  2  0
 23 24  1  0
 24 25  2  0
 25 26  1  0
 26 27  2  0
 27 28  1  0
 28 29  2  0
 12  7  1  0
 18 13  1  0
 29 20  1  0
 28 23  1  0
  3 30  1  0
  4 31  1  0
  4 32  1  0
  8 33  1  0
  8 34  1  0
  9 35  1  0
  9 36  1  0
 10 37  1  0
 10 38  1  0
 11 39  1  0
 11 40  1  0
 12 41  1  1
 14 42  1  0
 15 43  1  0
 16 44  1  0
 17 45  1  0
 21 46  1  0
 22 47  1  0
 24 48  1  0
 25 49  1  0
 26 50  1  0
 27 51  1  0
M  END
>  <smiles>  (47) 
O=C(NCC(=O)N1CCCCC1c1ccccc1Cl)c1ccc2ccccc2n1

>  <score_type>  (47) 
oracle

>  <origin>  (47) 
autodockgpu

>  <m_score__min__energy>  (47) 
-9.2200000000000006

>  <m_primary>  (47) 
energy

>  <rmsd>  (47) 
2.0043632983627364

>  <m_score__min__rmsd>  (47) 
2.0043632983627364

>  <meeko>  (47) 
{"free_energy": -8.23, "intermolecular_energy": -9.72, "internal_energy": -2.21, "cluster_size": 7, "cluster_id": 2, "rank_in_cluster": 1}

>  <energy>  (47) 
-7.9

>  <cluster_rmsd>  (47) 
0.0

>  <cluster>  (47) 
3

$$$$

     RDKit          3D

 51 54  0  0  0  0  0  0  0  0999 V2000
  133.1300   69.8670  226.5880 O   0  0  0  0  0  0  0  0  0  0  0  0
  133.6950   70.9220  226.2370 C   0  0  0  0  0  0  0  0  0  0  0  0
  134.8760   70.9770  225.4470 N   0  0  0  0  0  0  0  0  0  0  0  0
  135.4880   69.7670  225.0030 C   0  0  0  0  0  0  0  0  0  0  0  0
  136.6460   70.0770  224.1090 C   0  0  0  0  0  0  0  0  0  0  0  0
  137.0760   71.2690  224.1700 O   0  0  0  0  0  0  0  0  0  0  0  0
  137.2180   69.0970  223.2530 N   0  0  0  0  0  0  0  0  0  0  0  0
  136.3250   68.3220  222.4230 C   0  0  0  0  0  0  0  0  0  0  0  0
  136.9200   67.0430  221.9330 C   0  0  0  0  0  0  0  0  0  0  0  0
  138.3160   67.3910  221.4090 C   0  0  0  0  0  0  0  0  0  0  0  0
  139.1850   67.7570  222.5670 C   0  0  0  0  0  0  0  0  0  0  0  0
  138.6540   68.9520  223.2760 C   0  0  2  0  0  0  0  0  0  0  0  0
  139.2170   69.1190  224.6400 C   0  0  0  0  0  0  0  0  0  0  0  0
  139.0620   68.1590  225.6320 C   0  0  0  0  0  0  0  0  0  0  0  0
  139.5860   68.3110  226.9000 C   0  0  0  0  0  0  0  0  0  0  0  0
  140.2910   69.4590  227.2050 C   0  0  0  0  0  0  0  0  0  0  0  0
  140.4670   70.4410  226.2470 C   0  0  0  0  0  0  0  0  0  0  0  0
  139.9340   70.2690  224.9800 C   0  0  0  0  0  0  0  0  0  0  0  0
  140.1950   71.5510  223.8220 Cl  0  0  0  0  0  0  0  0  0  0  0  0
  133.1060   72.2020  226.6670 C   0  0  0  0  0  0  0  0  0  0  0  0
  131.8890   72.2550  227.3140 C   0  0  0  0  0  0  0  0  0  0  0  0
  131.3100   73.4440  227.7300 C   0  0  0  0  0  0  0  0  0  0  0  0
  131.9910   74.6280  227.4810 C   0  0  0  0  0  0  0  0  0  0  0  0
  131.4980   75.8620  227.8560 C   0  0  0  0  0  0  0  0  0  0  0  0
  132.2240   77.0070  227.5790 C   0  0  0  0  0  0  0  0  0  0  0  0
  133.4530   76.9150  226.9230 C   0  0  0  0  0  0  0  0  0  0  0  0
  133.9600   75.6900  226.5410 C   0  0  0  0  0  0  0  0  0  0  0  0
  133.2060   74.5630  226.8340 C   0  0  0  0  0  0  0  0  0  0  0  0
  133.7270   73.3810  226.4500 N   0  0  0  0  0  0  0  0  0  0  0  0
  135.2920   71.9020  225.1910 H   0  0  0  0  0  0  0  0  0  0  0  0
  135.8430   69.1974  225.8745 H   0  0  0  0  0  0  0  0  0  0  0  0
  134.7497   69.1731  224.4443 H   0  0  0  0  0  0  0  0  0  0  0  0
  135.4248   68.0843  223.0088 H   0  0  0  0  0  0  0  0  0  0  0  0
  136.0993   68.9323  221.5361 H   0  0  0  0  0  0  0  0  0  0  0  0
  136.9923   66.3167  222.7560 H   0  0  0  0  0  0  0  0  0  0  0  0
  136.2995   66.5891  221.1463 H   0  0  0  0  0  0  0  0  0  0  0  0
  138.7424   66.5220  220.8864 H   0  0  0  0  0  0  0  0  0  0  0  0
  138.2528   68.2351  220.7065 H   0  0  0  0  0  0  0  0  0  0  0  0
  139.2245   66.9107  223.2686 H   0  0  0  0  0  0  0  0  0  0  0  0
  140.1910   67.9922  222.1893 H   0  0  0  0  0  0  0  0  0  0  0  0
  139.0224   69.7926  222.6696 H   0  0  0  0  0  0  0  0  0  0  0  0
  138.5002   67.2426  225.3982 H   0  0  0  0  0  0  0  0  0  0  0  0
  139.4438   67.5272  227.6586 H   0  0  0  0  0  0  0  0  0  0  0  0
  140.7133   69.5925  228.2119 H   0  0  0  0  0  0  0  0  0  0  0  0
  141.0282   71.3553  226.4903 H   0  0  0  0  0  0  0  0  0  0  0  0
  131.3548   71.3132  227.5083 H   0  0  0  0  0  0  0  0  0  0  0  0
  130.3372   73.4492  228.2435 H   0  0  0  0  0  0  0  0  0  0  0  0
  130.5302   75.9347  228.3738 H   0  0  0  0  0  0  0  0  0  0  0  0
  131.8323   77.9910  227.8760 H   0  0  0  0  0  0  0  0  0  0  0  0
  134.0240   77.8303  226.7081 H   0  0  0  0  0  0  0  0  0  0  0  0
  134.9270   75.6099  226.0229 H   0  0  0  0  0  0  0  0  0  0  0  0
  1  2  2  0
  2  3  1  0
  3  4  1  0
  4  5  1  0
  5  6  2  0
  5  7  1  0
  7  8  1  0
  8  9  1  0
  9 10  1  0
 10 11  1  0
 11 12  1  0
 12 13  1  0
 13 14  2  0
 14 15  1  0
 15 16  2  0
 16 17  1  0
 17 18  2  0
 18 19  1  0
  2 20  1  0
 20 21  2  0
 21 22  1  0
 22 23  2  0
 23 24  1  0
 24 25  2  0
 25 26  1  0
 26 27  2  0
 27 28  1  0
 28 29  2  0
 12  7  1  0
 18 13  1  0
 29 20  1  0
 28 23  1  0
  3 30  1  0
  4 31  1  0
  4 32  1  0
  8 33  1  0
  8 34  1  0
  9 35  1  0
  9 36  1  0
 10 37  1  0
 10 38  1  0
 11 39  1  0
 11 40  1  0
 12 41  1  6
 14 42  1  0
 15 43  1  0
 16 44  1  0
 17 45  1  0
 21 46  1  0
 22 47  1  0
 24 48  1  0
 25 49  1  0
 26 50  1  0
 27 51  1  0
M  END
>  <smiles>  (48) 
O=C(NCC(=O)N1CCCCC1c1ccccc1Cl)c1ccc2ccccc2n1

>  <score_type>  (48) 
oracle

>  <origin>  (48) 
autodockgpu

>  <m_score__min__energy>  (48) 
-9.2200000000000006

>  <m_primary>  (48) 
energy

>  <rmsd>  (48) 
8.842445647612381

>  <m_score__min__rmsd>  (48) 
8.842445647612381

>  <meeko>  (48) 
{"free_energy": -7.9, "intermolecular_energy": -9.39, "internal_energy": -2.45, "cluster_size": 3, "cluster_id": 3, "rank_in_cluster": 1}

>  <energy>  (48) 
-7.87

>  <cluster_rmsd>  (48) 
0.17

>  <cluster>  (48) 
3

$$$$

     RDKit          3D

 51 54  0  0  0  0  0  0  0  0999 V2000
  140.6350   71.5030  221.2950 O   0  0  0  0  0  0  0  0  0  0  0  0
  140.2440   72.1250  222.3030 C   0  0  0  0  0  0  0  0  0  0  0  0
  139.9030   73.5050  222.3140 N   0  0  0  0  0  0  0  0  0  0  0  0
  139.9990   74.2680  221.1110 C   0  0  0  0  0  0  0  0  0  0  0  0
  140.6970   75.5630  221.3810 C   0  0  0  0  0  0  0  0  0  0  0  0
  140.6190   75.9840  222.5750 O   0  0  0  0  0  0  0  0  0  0  0  0
  141.3950   76.2670  220.3620 N   0  0  0  0  0  0  0  0  0  0  0  0
  142.3750   75.5400  219.5890 C   0  0  0  0  0  0  0  0  0  0  0  0
  143.3660   76.4170  218.8990 C   0  0  0  0  0  0  0  0  0  0  0  0
  142.5590   77.5320  218.2270 C   0  0  0  0  0  0  0  0  0  0  0  0
  141.9890   78.4170  219.2850 C   0  0  0  0  0  0  0  0  0  0  0  0
  141.0680   77.6600  220.1750 C   0  0  2  0  0  0  0  0  0  0  0  0
  140.7970   78.3540  221.4600 C   0  0  0  0  0  0  0  0  0  0  0  0
  141.8130   78.8190  222.2840 C   0  0  0  0  0  0  0  0  0  0  0  0
  141.5630   79.4660  223.4780 C   0  0  0  0  0  0  0  0  0  0  0  0
  140.2560   79.6620  223.8780 C   0  0  0  0  0  0  0  0  0  0  0  0
  139.2140   79.2140  223.0870 C   0  0  0  0  0  0  0  0  0  0  0  0
  139.4850   78.5680  221.8910 C   0  0  0  0  0  0  0  0  0  0  0  0
  138.1190   78.0290  220.9450 Cl  0  0  0  0  0  0  0  0  0  0  0  0
  140.1260   71.3870  223.5720 C   0  0  0  0  0  0  0  0  0  0  0  0
  139.5230   70.1490  223.6340 C   0  0  0  0  0  0  0  0  0  0  0  0
  139.3980   69.4300  224.8130 C   0  0  0  0  0  0  0  0  0  0  0  0
  139.9040   69.9890  225.9780 C   0  0  0  0  0  0  0  0  0  0  0  0
  139.8290   69.3540  227.2020 C   0  0  0  0  0  0  0  0  0  0  0  0
  140.3530   69.9630  228.3290 C   0  0  0  0  0  0  0  0  0  0  0  0
  140.9570   71.2170  228.2290 C   0  0  0  0  0  0  0  0  0  0  0  0
  141.0410   71.8670  227.0140 C   0  0  0  0  0  0  0  0  0  0  0  0
  140.5060   71.2270  225.9050 C   0  0  0  0  0  0  0  0  0  0  0  0
  140.6020   71.8850  224.7330 N   0  0  0  0  0  0  0  0  0  0  0  0
  139.5820   73.9580  223.2000 H   0  0  0  0  0  0  0  0  0  0  0  0
  140.5673   73.6971  220.3619 H   0  0  0  0  0  0  0  0  0  0  0  0
  138.9869   74.4752  220.7331 H   0  0  0  0  0  0  0  0  0  0  0  0
  142.9201   74.8655  220.2657 H   0  0  0  0  0  0  0  0  0  0  0  0
  141.8271   74.9959  218.8056 H   0  0  0  0  0  0  0  0  0  0  0  0
  144.0703   76.8433  219.6286 H   0  0  0  0  0  0  0  0  0  0  0  0
  143.9561   75.8513  218.1629 H   0  0  0  0  0  0  0  0  0  0  0  0
  143.2163   78.1189  217.5685 H   0  0  0  0  0  0  0  0  0  0  0  0
  141.7469   77.0961  217.6265 H   0  0  0  0  0  0  0  0  0  0  0  0
  142.8104   78.8325  219.8873 H   0  0  0  0  0  0  0  0  0  0  0  0
  141.4213   79.2237  218.7983 H   0  0  0  0  0  0  0  0  0  0  0  0
  140.1239   77.6448  219.6106 H   0  0  0  0  0  0  0  0  0  0  0  0
  142.8572   78.6662  221.9738 H   0  0  0  0  0  0  0  0  0  0  0  0
  142.3954   79.8212  224.1033 H   0  0  0  0  0  0  0  0  0  0  0  0
  140.0434   80.1753  224.8274 H   0  0  0  0  0  0  0  0  0  0  0  0
  138.1729   79.3699  223.4061 H   0  0  0  0  0  0  0  0  0  0  0  0
  139.1232   69.7121  222.7070 H   0  0  0  0  0  0  0  0  0  0  0  0
  138.9111   68.4437  224.8245 H   0  0  0  0  0  0  0  0  0  0  0  0
  139.3533   68.3653  227.2812 H   0  0  0  0  0  0  0  0  0  0  0  0
  140.2933   69.4581  229.3044 H   0  0  0  0  0  0  0  0  0  0  0  0
  141.3714   71.6936  229.1297 H   0  0  0  0  0  0  0  0  0  0  0  0
  141.5147   72.8561  226.9281 H   0  0  0  0  0  0  0  0  0  0  0  0
  1  2  2  0
  2  3  1  0
  3  4  1  0
  4  5  1  0
  5  6  2  0
  5  7  1  0
  7  8  1  0
  8  9  1  0
  9 10  1  0
 10 11  1  0
 11 12  1  0
 12 13  1  0
 13 14  2  0
 14 15  1  0
 15 16  2  0
 16 17  1  0
 17 18  2  0
 18 19  1  0
  2 20  1  0
 20 21  2  0
 21 22  1  0
 22 23  2  0
 23 24  1  0
 24 25  2  0
 25 26  1  0
 26 27  2  0
 27 28  1  0
 28 29  2  0
 12  7  1  0
 18 13  1  0
 29 20  1  0
 28 23  1  0
  3 30  1  0
  4 31  1  0
  4 32  1  0
  8 33  1  0
  8 34  1  0
  9 35  1  0
  9 36  1  0
 10 37  1  0
 10 38  1  0
 11 39  1  0
 11 40  1  0
 12 41  1  6
 14 42  1  0
 15 43  1  0
 16 44  1  0
 17 45  1  0
 21 46  1  0
 22 47  1  0
 24 48  1  0
 25 49  1  0
 26 50  1  0
 27 51  1  0
M  END
>  <smiles>  (49) 
O=C(NCC(=O)N1CCCCC1c1ccccc1Cl)c1ccc2ccccc2n1

>  <score_type>  (49) 
oracle

>  <origin>  (49) 
autodockgpu

>  <m_score__min__energy>  (49) 
-9.2200000000000006

>  <m_primary>  (49) 
energy

>  <rmsd>  (49) 
2.0572265558284935

>  <m_score__min__rmsd>  (49) 
2.0572265558284935

>  <meeko>  (49) 
{"free_energy": -9.15, "intermolecular_energy": -10.64, "internal_energy": -1.84, "cluster_size": 39, "cluster_id": 1, "rank_in_cluster": 8}

>  <energy>  (49) 
-7.84

>  <cluster_rmsd>  (49) 
0.12

>  <cluster>  (49) 
3

$$$$

     RDKit          3D

 51 54  0  0  0  0  0  0  0  0999 V2000
  138.9530   71.6270  221.3470 O   0  0  0  0  0  0  0  0  0  0  0  0
  139.6940   72.0760  222.2440 C   0  0  0  0  0  0  0  0  0  0  0  0
  140.4570   73.2710  222.1340 N   0  0  0  0  0  0  0  0  0  0  0  0
  140.3990   74.0410  220.9330 C   0  0  0  0  0  0  0  0  0  0  0  0
  141.0650   75.3630  221.1410 C   0  0  0  0  0  0  0  0  0  0  0  0
  141.1350   75.7540  222.3460 O   0  0  0  0  0  0  0  0  0  0  0  0
  141.5790   76.1240  220.0550 N   0  0  0  0  0  0  0  0  0  0  0  0
  142.5090   75.4780  219.1590 C   0  0  0  0  0  0  0  0  0  0  0  0
  143.3410   76.4320  218.3660 C   0  0  0  0  0  0  0  0  0  0  0  0
  142.3770   77.4860  217.8140 C   0  0  0  0  0  0  0  0  0  0  0  0
  141.8770   78.3190  218.9470 C   0  0  0  0  0  0  0  0  0  0  0  0
  141.1300   77.4900  219.9310 C   0  0  2  0  0  0  0  0  0  0  0  0
  140.9670   78.1530  221.2490 C   0  0  0  0  0  0  0  0  0  0  0  0
  142.0340   78.7180  221.9360 C   0  0  0  0  0  0  0  0  0  0  0  0
  141.8850   79.3370  223.1610 C   0  0  0  0  0  0  0  0  0  0  0  0
  140.6300   79.4010  223.7350 C   0  0  0  0  0  0  0  0  0  0  0  0
  139.5400   78.8510  223.0850 C   0  0  0  0  0  0  0  0  0  0  0  0
  139.7110   78.2350  221.8560 C   0  0  0  0  0  0  0  0  0  0  0  0
  138.2900   77.5620  221.0940 Cl  0  0  0  0  0  0  0  0  0  0  0  0
  139.7910   71.3220  223.5050 C   0  0  0  0  0  0  0  0  0  0  0  0
  139.3660   70.0140  223.5990 C   0  0  0  0  0  0  0  0  0  0  0  0
  139.4450   69.2790  224.7730 C   0  0  0  0  0  0  0  0  0  0  0  0
  139.9780   69.8950  225.8970 C   0  0  0  0  0  0  0  0  0  0  0  0
  140.0990   69.2480  227.1110 C   0  0  0  0  0  0  0  0  0  0  0  0
  140.6390   69.9170  228.1970 C   0  0  0  0  0  0  0  0  0  0  0  0
  141.0600   71.2410  228.0650 C   0  0  0  0  0  0  0  0  0  0  0  0
  140.9460   71.9020  226.8580 C   0  0  0  0  0  0  0  0  0  0  0  0
  140.4010   71.2030  225.7920 C   0  0  0  0  0  0  0  0  0  0  0  0
  140.3010   71.8740  224.6270 N   0  0  0  0  0  0  0  0  0  0  0  0
  141.0570   73.5840  222.9310 H   0  0  0  0  0  0  0  0  0  0  0  0
  140.9126   73.4972  220.1264 H   0  0  0  0  0  0  0  0  0  0  0  0
  139.3462   74.2059  220.6601 H   0  0  0  0  0  0  0  0  0  0  0  0
  143.1814   74.8434  219.7550 H   0  0  0  0  0  0  0  0  0  0  0  0
  141.9119   74.8981  218.4398 H   0  0  0  0  0  0  0  0  0  0  0  0
  144.0956   76.9063  219.0107 H   0  0  0  0  0  0  0  0  0  0  0  0
  143.8773   75.9168  217.5554 H   0  0  0  0  0  0  0  0  0  0  0  0
  142.9028   78.1248  217.0891 H   0  0  0  0  0  0  0  0  0  0  0  0
  141.5322   76.9934  217.3103 H   0  0  0  0  0  0  0  0  0  0  0  0
  142.7331   78.7912  219.4512 H   0  0  0  0  0  0  0  0  0  0  0  0
  141.1959   79.0836  218.5451 H   0  0  0  0  0  0  0  0  0  0  0  0
  140.1275   77.4082  219.4857 H   0  0  0  0  0  0  0  0  0  0  0  0
  143.0368   78.6703  221.4864 H   0  0  0  0  0  0  0  0  0  0  0  0
  142.7547   79.7738  223.6736 H   0  0  0  0  0  0  0  0  0  0  0  0
  140.4973   79.8905  224.7111 H   0  0  0  0  0  0  0  0  0  0  0  0
  138.5409   78.9025  223.5423 H   0  0  0  0  0  0  0  0  0  0  0  0
  138.9458   69.5319  222.7040 H   0  0  0  0  0  0  0  0  0  0  0  0
  139.0950   68.2369  224.8121 H   0  0  0  0  0  0  0  0  0  0  0  0
  139.7675   68.2043  227.2152 H   0  0  0  0  0  0  0  0  0  0  0  0
  140.7362   69.4038  229.1651 H   0  0  0  0  0  0  0  0  0  0  0  0
  141.4878   71.7643  228.9329 H   0  0  0  0  0  0  0  0  0  0  0  0
  141.2757   72.9455  226.7463 H   0  0  0  0  0  0  0  0  0  0  0  0
  1  2  2  0
  2  3  1  0
  3  4  1  0
  4  5  1  0
  5  6  2  0
  5  7  1  0
  7  8  1  0
  8  9  1  0
  9 10  1  0
 10 11  1  0
 11 12  1  0
 12 13  1  0
 13 14  2  0
 14 15  1  0
 15 16  2  0
 16 17  1  0
 17 18  2  0
 18 19  1  0
  2 20  1  0
 20 21  2  0
 21 22  1  0
 22 23  2  0
 23 24  1  0
 24 25  2  0
 25 26  1  0
 26 27  2  0
 27 28  1  0
 28 29  2  0
 12  7  1  0
 18 13  1  0
 29 20  1  0
 28 23  1  0
  3 30  1  0
  4 31  1  0
  4 32  1  0
  8 33  1  0
  8 34  1  0
  9 35  1  0
  9 36  1  0
 10 37  1  0
 10 38  1  0
 11 39  1  0
 11 40  1  0
 12 41  1  6
 14 42  1  0
 15 43  1  0
 16 44  1  0
 17 45  1  0
 21 46  1  0
 22 47  1  0
 24 48  1  0
 25 49  1  0
 26 50  1  0
 27 51  1  0
M  END
>  <smiles>  (50) 
O=C(NCC(=O)N1CCCCC1c1ccccc1Cl)c1ccc2ccccc2n1

>  <score_type>  (50) 
oracle

>  <origin>  (50) 
autodockgpu

>  <m_score__min__energy>  (50) 
-9.2200000000000006

>  <m_primary>  (50) 
energy

>  <rmsd>  (50) 
2.0128905630039124

>  <m_score__min__rmsd>  (50) 
2.0128905630039124

>  <meeko>  (50) 
{"free_energy": -8.3, "intermolecular_energy": -9.79, "internal_energy": -2.11, "cluster_size": 39, "cluster_id": 1, "rank_in_cluster": 38}

>  <energy>  (50) 
-7.67

>  <cluster_rmsd>  (50) 
0.0

>  <cluster>  (50) 
4

$$$$

     RDKit          3D

 51 54  0  0  0  0  0  0  0  0999 V2000
  140.7230   71.3360  221.3130 O   0  0  0  0  0  0  0  0  0  0  0  0
  140.2840   71.9240  222.3460 C   0  0  0  0  0  0  0  0  0  0  0  0
  139.9370   73.3290  222.2560 N   0  0  0  0  0  0  0  0  0  0  0  0
  140.0410   74.1050  221.0910 C   0  0  0  0  0  0  0  0  0  0  0  0
  141.0940   75.0510  220.8430 C   0  0  0  0  0  0  0  0  0  0  0  0
  141.8060   75.3390  221.9040 O   0  0  0  0  0  0  0  0  0  0  0  0
  141.4780   75.7230  219.6330 N   0  0  0  0  0  0  0  0  0  0  0  0
  140.9790   77.0400  219.3240 C   0  0  0  0  0  0  0  0  0  0  0  0
  141.9540   77.7830  218.4380 C   0  0  0  0  0  0  0  0  0  0  0  0
  142.2180   76.9120  217.2260 C   0  0  0  0  0  0  0  0  0  0  0  0
  142.9800   75.6700  217.6440 C   0  0  0  0  0  0  0  0  0  0  0  0
  142.3630   74.9530  218.7730 C   0  0  1  0  0  0  0  0  0  0  0  0
  143.4140   74.2050  219.4830 C   0  0  0  0  0  0  0  0  0  0  0  0
  144.4420   74.9120  220.1270 C   0  0  0  0  0  0  0  0  0  0  0  0
  145.4460   74.2840  220.8130 C   0  0  0  0  0  0  0  0  0  0  0  0
  145.4960   72.9190  220.9020 C   0  0  0  0  0  0  0  0  0  0  0  0
  144.5090   72.1940  220.2860 C   0  0  0  0  0  0  0  0  0  0  0  0
  143.4890   72.8370  219.5890 C   0  0  0  0  0  0  0  0  0  0  0  0
  142.2910   71.8190  218.8350 Cl  0  0  0  0  0  0  0  0  0  0  0  0
  140.1290   71.1970  223.6140 C   0  0  0  0  0  0  0  0  0  0  0  0
  139.5480   69.9490  223.5820 C   0  0  0  0  0  0  0  0  0  0  0  0
  139.3730   69.2150  224.7350 C   0  0  0  0  0  0  0  0  0  0  0  0
  139.7890   69.7420  225.9470 C   0  0  0  0  0  0  0  0  0  0  0  0
  139.6230   69.0220  227.1190 C   0  0  0  0  0  0  0  0  0  0  0  0
  140.0490   69.5770  228.3020 C   0  0  0  0  0  0  0  0  0  0  0  0
  140.6390   70.8450  228.3340 C   0  0  0  0  0  0  0  0  0  0  0  0
  140.7950   71.5490  227.1470 C   0  0  0  0  0  0  0  0  0  0  0  0
  140.3720   71.0020  225.9530 C   0  0  0  0  0  0  0  0  0  0  0  0
  140.5310   71.7030  224.7920 N   0  0  0  0  0  0  0  0  0  0  0  0
  139.5850   73.7200  223.1860 H   0  0  0  0  0  0  0  0  0  0  0  0
  140.0838   73.3873  220.2585 H   0  0  0  0  0  0  0  0  0  0  0  0
  139.1808   74.7796  221.2136 H   0  0  0  0  0  0  0  0  0  0  0  0
  140.0144   76.9484  218.8032 H   0  0  0  0  0  0  0  0  0  0  0  0
  140.8527   77.6010  220.2617 H   0  0  0  0  0  0  0  0  0  0  0  0
  141.5198   78.7435  218.1236 H   0  0  0  0  0  0  0  0  0  0  0  0
  142.8893   77.9913  218.9782 H   0  0  0  0  0  0  0  0  0  0  0  0
  141.2603   76.6176  216.7720 H   0  0  0  0  0  0  0  0  0  0  0  0
  142.8157   77.4768  216.4954 H   0  0  0  0  0  0  0  0  0  0  0  0
  143.0303   74.9866  216.7835 H   0  0  0  0  0  0  0  0  0  0  0  0
  143.9761   75.9984  217.9755 H   0  0  0  0  0  0  0  0  0  0  0  0
  141.6349   74.2472  218.3467 H   0  0  0  0  0  0  0  0  0  0  0  0
  144.4404   76.0109  220.0784 H   0  0  0  0  0  0  0  0  0  0  0  0
  146.2261   74.8865  221.3012 H   0  0  0  0  0  0  0  0  0  0  0  0
  146.3057   72.4177  221.4525 H   0  0  0  0  0  0  0  0  0  0  0  0
  144.5228   71.0955  220.3427 H   0  0  0  0  0  0  0  0  0  0  0  0
  139.2179   69.5308  222.6196 H   0  0  0  0  0  0  0  0  0  0  0  0
  138.9071   68.2194  224.6936 H   0  0  0  0  0  0  0  0  0  0  0  0
  139.1589   68.0248  227.1030 H   0  0  0  0  0  0  0  0  0  0  0  0
  139.9239   69.0148  229.2392 H   0  0  0  0  0  0  0  0  0  0  0  0
  140.9752   71.2790  229.2872 H   0  0  0  0  0  0  0  0  0  0  0  0
  141.2577   72.5469  227.1588 H   0  0  0  0  0  0  0  0  0  0  0  0
  1  2  2  0
  2  3  1  0
  3  4  1  0
  4  5  1  0
  5  6  2  0
  5  7  1  0
  7  8  1  0
  8  9  1  0
  9 10  1  0
 10 11  1  0
 11 12  1  0
 12 13  1  0
 13 14  2  0
 14 15  1  0
 15 16  2  0
 16 17  1  0
 17 18  2  0
 18 19  1  0
  2 20  1  0
 20 21  2  0
 21 22  1  0
 22 23  2  0
 23 24  1  0
 24 25  2  0
 25 26  1  0
 26 27  2  0
 27 28  1  0
 28 29  2  0
 12  7  1  0
 18 13  1  0
 29 20  1  0
 28 23  1  0
  3 30  1  0
  4 31  1  0
  4 32  1  0
  8 33  1  0
  8 34  1  0
  9 35  1  0
  9 36  1  0
 10 37  1  0
 10 38  1  0
 11 39  1  0
 11 40  1  0
 12 41  1  6
 14 42  1  0
 15 43  1  0
 16 44  1  0
 17 45  1  0
 21 46  1  0
 22 47  1  0
 24 48  1  0
 25 49  1  0
 26 50  1  0
 27 51  1  0
M  END
>  <smiles>  (51) 
O=C(NCC(=O)N1CCCCC1c1ccccc1Cl)c1ccc2ccccc2n1

>  <score_type>  (51) 
oracle

>  <origin>  (51) 
autodockgpu

>  <m_score__min__energy>  (51) 
-8.6899999999999995

>  <m_primary>  (51) 
energy

>  <rmsd>  (51) 
2.0908424933272625

>  <m_score__min__rmsd>  (51) 
2.0908424933272625

>  <meeko>  (51) 
{"free_energy": -8.22, "intermolecular_energy": -9.71, "internal_energy": -1.99, "cluster_size": 16, "cluster_id": 2, "rank_in_cluster": 15}

>  <energy>  (51) 
-8.69

>  <cluster_rmsd>  (51) 
0.0

>  <cluster>  (51) 
1

$$$$

     RDKit          3D

 51 54  0  0  0  0  0  0  0  0999 V2000
  141.5890   71.9600  221.6790 O   0  0  0  0  0  0  0  0  0  0  0  0
  140.6380   72.2980  222.4460 C   0  0  0  0  0  0  0  0  0  0  0  0
  139.8600   73.4770  222.1180 N   0  0  0  0  0  0  0  0  0  0  0  0
  140.0730   74.2880  220.9920 C   0  0  0  0  0  0  0  0  0  0  0  0
  140.9870   75.3970  220.9570 C   0  0  0  0  0  0  0  0  0  0  0  0
  141.4370   75.7480  222.1360 O   0  0  0  0  0  0  0  0  0  0  0  0
  141.4710   76.1710  219.8490 N   0  0  0  0  0  0  0  0  0  0  0  0
  141.1270   77.5650  219.7090 C   0  0  0  0  0  0  0  0  0  0  0  0
  142.1990   78.3010  218.9370 C   0  0  0  0  0  0  0  0  0  0  0  0
  142.3950   77.5690  217.6250 C   0  0  0  0  0  0  0  0  0  0  0  0
  143.0060   76.2060  217.8850 C   0  0  0  0  0  0  0  0  0  0  0  0
  142.2870   75.4240  218.9040 C   0  0  1  0  0  0  0  0  0  0  0  0
  143.2330   74.4780  219.5210 C   0  0  0  0  0  0  0  0  0  0  0  0
  144.3300   74.9780  220.2400 C   0  0  0  0  0  0  0  0  0  0  0  0
  145.2440   74.1590  220.8460 C   0  0  0  0  0  0  0  0  0  0  0  0
  145.1290   72.7970  220.7780 C   0  0  0  0  0  0  0  0  0  0  0  0
  144.0690   72.2710  220.0840 C   0  0  0  0  0  0  0  0  0  0  0  0
  143.1410   73.1090  219.4690 C   0  0  0  0  0  0  0  0  0  0  0  0
  141.8390   72.3360  218.6050 Cl  0  0  0  0  0  0  0  0  0  0  0  0
  140.3280   71.5100  223.6470 C   0  0  0  0  0  0  0  0  0  0  0  0
  139.5590   70.3770  223.5000 C   0  0  0  0  0  0  0  0  0  0  0  0
  139.2320   69.5930  224.5870 C   0  0  0  0  0  0  0  0  0  0  0  0
  139.6820   69.9530  225.8460 C   0  0  0  0  0  0  0  0  0  0  0  0
  139.3660   69.1810  226.9510 C   0  0  0  0  0  0  0  0  0  0  0  0
  139.8310   69.5690  228.1850 C   0  0  0  0  0  0  0  0  0  0  0  0
  140.6110   70.7210  228.3330 C   0  0  0  0  0  0  0  0  0  0  0  0
  140.9160   71.4790  227.2110 C   0  0  0  0  0  0  0  0  0  0  0  0
  140.4550   71.1000  225.9670 C   0  0  0  0  0  0  0  0  0  0  0  0
  140.7630   71.8540  224.8710 N   0  0  0  0  0  0  0  0  0  0  0  0
  139.0930   73.6690  222.8350 H   0  0  0  0  0  0  0  0  0  0  0  0
  140.4010   73.6070  220.1929 H   0  0  0  0  0  0  0  0  0  0  0  0
  139.1082   74.8125  220.9289 H   0  0  0  0  0  0  0  0  0  0  0  0
  140.1712   77.6496  219.1712 H   0  0  0  0  0  0  0  0  0  0  0  0
  141.0400   78.0119  220.7104 H   0  0  0  0  0  0  0  0  0  0  0  0
  141.8810   79.3366  218.7460 H   0  0  0  0  0  0  0  0  0  0  0  0
  143.1381   78.3317  219.5090 H   0  0  0  0  0  0  0  0  0  0  0  0
  141.4220   77.4443  217.1272 H   0  0  0  0  0  0  0  0  0  0  0  0
  143.0686   78.1525  216.9801 H   0  0  0  0  0  0  0  0  0  0  0  0
  143.0021   75.6375  216.9433 H   0  0  0  0  0  0  0  0  0  0  0  0
  144.0238   76.3755  218.2663 H   0  0  0  0  0  0  0  0  0  0  0  0
  141.4962   74.8652  218.3820 H   0  0  0  0  0  0  0  0  0  0  0  0
  144.4598   76.0674  220.3193 H   0  0  0  0  0  0  0  0  0  0  0  0
  146.0858   74.6033  221.3973 H   0  0  0  0  0  0  0  0  0  0  0  0
  145.8659   72.1423  221.2662 H   0  0  0  0  0  0  0  0  0  0  0  0
  143.9508   71.1797  220.0125 H   0  0  0  0  0  0  0  0  0  0  0  0
  139.1998   70.0926  222.4999 H   0  0  0  0  0  0  0  0  0  0  0  0
  138.6188   68.6894  224.4546 H   0  0  0  0  0  0  0  0  0  0  0  0
  138.7538   68.2734  226.8434 H   0  0  0  0  0  0  0  0  0  0  0  0
  139.5859   68.9640  229.0704 H   0  0  0  0  0  0  0  0  0  0  0  0
  140.9777   71.0220  229.3254 H   0  0  0  0  0  0  0  0  0  0  0  0
  141.5286   72.3868  227.3141 H   0  0  0  0  0  0  0  0  0  0  0  0
  1  2  2  0
  2  3  1  0
  3  4  1  0
  4  5  1  0
  5  6  2  0
  5  7  1  0
  7  8  1  0
  8  9  1  0
  9 10  1  0
 10 11  1  0
 11 12  1  0
 12 13  1  0
 13 14  2  0
 14 15  1  0
 15 16  2  0
 16 17  1  0
 17 18  2  0
 18 19  1  0
  2 20  1  0
 20 21  2  0
 21 22  1  0
 22 23  2  0
 23 24  1  0
 24 25  2  0
 25 26  1  0
 26 27  2  0
 27 28  1  0
 28 29  2  0
 12  7  1  0
 18 13  1  0
 29 20  1  0
 28 23  1  0
  3 30  1  0
  4 31  1  0
  4 32  1  0
  8 33  1  0
  8 34  1  0
  9 35  1  0
  9 36  1  0
 10 37  1  0
 10 38  1  0
 11 39  1  0
 11 40  1  0
 12 41  1  6
 14 42  1  0
 15 43  1  0
 16 44  1  0
 17 45  1  0
 21 46  1  0
 22 47  1  0
 24 48  1  0
 25 49  1  0
 26 50  1  0
 27 51  1  0
M  END
>  <smiles>  (52) 
O=C(NCC(=O)N1CCCCC1c1ccccc1Cl)c1ccc2ccccc2n1

>  <score_type>  (52) 
oracle

>  <origin>  (52) 
autodockgpu

>  <m_score__min__energy>  (52) 
-8.6899999999999995

>  <m_primary>  (52) 
energy

>  <rmsd>  (52) 
2.2784041510260975

>  <m_score__min__rmsd>  (52) 
2.2784041510260975

>  <meeko>  (52) 
{"free_energy": -8.53, "intermolecular_energy": -10.02, "internal_energy": -1.97, "cluster_size": 16, "cluster_id": 2, "rank_in_cluster": 4}

>  <energy>  (52) 
-8.55

>  <cluster_rmsd>  (52) 
0.56

>  <cluster>  (52) 
1

$$$$

     RDKit          3D

 51 54  0  0  0  0  0  0  0  0999 V2000
  140.3650   71.2610  221.1890 O   0  0  0  0  0  0  0  0  0  0  0  0
  140.0920   71.9320  222.2300 C   0  0  0  0  0  0  0  0  0  0  0  0
  139.7940   73.3450  222.0920 N   0  0  0  0  0  0  0  0  0  0  0  0
  139.7740   74.0420  220.8740 C   0  0  0  0  0  0  0  0  0  0  0  0
  140.8640   74.0630  219.9380 C   0  0  0  0  0  0  0  0  0  0  0  0
  140.5150   74.4290  218.7290 O   0  0  0  0  0  0  0  0  0  0  0  0
  142.2530   73.7460  220.1160 N   0  0  0  0  0  0  0  0  0  0  0  0
  142.7250   72.3880  220.0040 C   0  0  0  0  0  0  0  0  0  0  0  0
  144.1750   72.3630  219.5750 C   0  0  0  0  0  0  0  0  0  0  0  0
  144.9520   73.2180  220.5560 C   0  0  0  0  0  0  0  0  0  0  0  0
  144.5500   74.6720  220.3990 C   0  0  0  0  0  0  0  0  0  0  0  0
  143.0940   74.8870  220.4390 C   0  0  1  0  0  0  0  0  0  0  0  0
  142.7810   76.1150  219.6870 C   0  0  0  0  0  0  0  0  0  0  0  0
  142.2000   77.2010  220.3610 C   0  0  0  0  0  0  0  0  0  0  0  0
  141.8900   78.3740  219.7280 C   0  0  0  0  0  0  0  0  0  0  0  0
  142.1370   78.5460  218.3920 C   0  0  0  0  0  0  0  0  0  0  0  0
  142.7050   77.5060  217.7010 C   0  0  0  0  0  0  0  0  0  0  0  0
  143.0180   76.3130  218.3490 C   0  0  0  0  0  0  0  0  0  0  0  0
  143.7270   75.0540  217.3730 Cl  0  0  0  0  0  0  0  0  0  0  0  0
  140.0780   71.2920  223.5520 C   0  0  0  0  0  0  0  0  0  0  0  0
  139.5080   70.0430  223.6650 C   0  0  0  0  0  0  0  0  0  0  0  0
  139.4610   69.3890  224.8770 C   0  0  0  0  0  0  0  0  0  0  0  0
  139.9970   69.9970  226.0010 C   0  0  0  0  0  0  0  0  0  0  0  0
  139.9620   69.3580  227.2290 C   0  0  0  0  0  0  0  0  0  0  0  0
  140.5030   69.9920  228.3210 C   0  0  0  0  0  0  0  0  0  0  0  0
  141.0810   71.2600  228.2060 C   0  0  0  0  0  0  0  0  0  0  0  0
  141.1060   71.8830  226.9650 C   0  0  0  0  0  0  0  0  0  0  0  0
  140.5660   71.2560  225.8610 C   0  0  0  0  0  0  0  0  0  0  0  0
  140.5960   71.8770  224.6450 N   0  0  0  0  0  0  0  0  0  0  0  0
  139.5860   73.8080  223.0310 H   0  0  0  0  0  0  0  0  0  0  0  0
  138.9123   73.6442  220.3179 H   0  0  0  0  0  0  0  0  0  0  0  0
  139.7870   75.0825  221.2305 H   0  0  0  0  0  0  0  0  0  0  0  0
  142.6279   71.8897  220.9799 H   0  0  0  0  0  0  0  0  0  0  0  0
  142.1220   71.8638  219.2479 H   0  0  0  0  0  0  0  0  0  0  0  0
  144.5547   71.3308  219.5928 H   0  0  0  0  0  0  0  0  0  0  0  0
  144.2841   72.7498  218.5510 H   0  0  0  0  0  0  0  0  0  0  0  0
  144.7334   72.8872  221.5820 H   0  0  0  0  0  0  0  0  0  0  0  0
  146.0286   73.1146  220.3554 H   0  0  0  0  0  0  0  0  0  0  0  0
  145.0097   75.2502  221.2141 H   0  0  0  0  0  0  0  0  0  0  0  0
  144.8979   74.9984  219.4078 H   0  0  0  0  0  0  0  0  0  0  0  0
  142.8186   75.0226  221.4953 H   0  0  0  0  0  0  0  0  0  0  0  0
  141.9864   77.1056  221.4358 H   0  0  0  0  0  0  0  0  0  0  0  0
  141.4341   79.1937  220.3028 H   0  0  0  0  0  0  0  0  0  0  0  0
  141.8871   79.4910  217.8875 H   0  0  0  0  0  0  0  0  0  0  0  0
  142.9150   77.6148  216.6267 H   0  0  0  0  0  0  0  0  0  0  0  0
  139.0833   69.5596  222.7728 H   0  0  0  0  0  0  0  0  0  0  0  0
  139.0017   68.3923  224.9517 H   0  0  0  0  0  0  0  0  0  0  0  0
  139.5091   68.3605  227.3283 H   0  0  0  0  0  0  0  0  0  0  0  0
  140.4812   69.4941  229.3016 H   0  0  0  0  0  0  0  0  0  0  0  0
  141.5106   71.7580  229.0877 H   0  0  0  0  0  0  0  0  0  0  0  0
  141.5582   72.8804  226.8619 H   0  0  0  0  0  0  0  0  0  0  0  0
  1  2  2  0
  2  3  1  0
  3  4  1  0
  4  5  1  0
  5  6  2  0
  5  7  1  0
  7  8  1  0
  8  9  1  0
  9 10  1  0
 10 11  1  0
 11 12  1  0
 12 13  1  0
 13 14  2  0
 14 15  1  0
 15 16  2  0
 16 17  1  0
 17 18  2  0
 18 19  1  0
  2 20  1  0
 20 21  2  0
 21 22  1  0
 22 23  2  0
 23 24  1  0
 24 25  2  0
 25 26  1  0
 26 27  2  0
 27 28  1  0
 28 29  2  0
 12  7  1  0
 18 13  1  0
 29 20  1  0
 28 23  1  0
  3 30  1  0
  4 31  1  0
  4 32  1  0
  8 33  1  0
  8 34  1  0
  9 35  1  0
  9 36  1  0
 10 37  1  0
 10 38  1  0
 11 39  1  0
 11 40  1  0
 12 41  1  1
 14 42  1  0
 15 43  1  0
 16 44  1  0
 17 45  1  0
 21 46  1  0
 22 47  1  0
 24 48  1  0
 25 49  1  0
 26 50  1  0
 27 51  1  0
M  END
>  <smiles>  (53) 
O=C(NCC(=O)N1CCCCC1c1ccccc1Cl)c1ccc2ccccc2n1

>  <score_type>  (53) 
oracle

>  <origin>  (53) 
autodockgpu

>  <m_score__min__energy>  (53) 
-8.6899999999999995

>  <m_primary>  (53) 
energy

>  <rmsd>  (53) 
3.016372005120107

>  <m_score__min__rmsd>  (53) 
3.016372005120107

>  <meeko>  (53) 
{"free_energy": -8.3, "intermolecular_energy": -9.79, "internal_energy": -1.8, "cluster_size": 13, "cluster_id": 3, "rank_in_cluster": 12}

>  <energy>  (53) 
-8.54

>  <cluster_rmsd>  (53) 
1.02

>  <cluster>  (53) 
1

$$$$

     RDKit          3D

 51 54  0  0  0  0  0  0  0  0999 V2000
  139.6560   73.3860  222.6430 O   0  0  0  0  0  0  0  0  0  0  0  0
  140.1140   72.2050  222.5880 C   0  0  0  0  0  0  0  0  0  0  0  0
  140.6960   71.7390  221.3440 N   0  0  0  0  0  0  0  0  0  0  0  0
  140.8050   72.5080  220.1750 C   0  0  0  0  0  0  0  0  0  0  0  0
  142.0270   72.6950  219.4420 C   0  0  0  0  0  0  0  0  0  0  0  0
  141.8640   72.7330  218.1430 O   0  0  0  0  0  0  0  0  0  0  0  0
  143.3790   72.8390  219.9050 N   0  0  0  0  0  0  0  0  0  0  0  0
  144.3080   71.7390  219.8380 C   0  0  0  0  0  0  0  0  0  0  0  0
  145.7280   72.2490  219.7350 C   0  0  0  0  0  0  0  0  0  0  0  0
  145.9560   73.1930  220.8990 C   0  0  0  0  0  0  0  0  0  0  0  0
  145.1090   74.4380  220.7220 C   0  0  0  0  0  0  0  0  0  0  0  0
  143.6890   74.1490  220.4540 C   0  0  1  0  0  0  0  0  0  0  0  0
  143.1150   75.2820  219.7070 C   0  0  0  0  0  0  0  0  0  0  0  0
  143.7010   75.6660  218.4900 C   0  0  0  0  0  0  0  0  0  0  0  0
  143.2160   76.7030  217.7390 C   0  0  0  0  0  0  0  0  0  0  0  0
  142.1250   77.4220  218.1450 C   0  0  0  0  0  0  0  0  0  0  0  0
  141.5260   77.0760  219.3290 C   0  0  0  0  0  0  0  0  0  0  0  0
  142.0230   76.0200  220.0900 C   0  0  0  0  0  0  0  0  0  0  0  0
  141.1920   75.6720  221.5830 Cl  0  0  0  0  0  0  0  0  0  0  0  0
  140.0570   71.3230  223.7610 C   0  0  0  0  0  0  0  0  0  0  0  0
  139.4310   70.1030  223.6280 C   0  0  0  0  0  0  0  0  0  0  0  0
  139.3430   69.2290  224.6900 C   0  0  0  0  0  0  0  0  0  0  0  0
  139.8930   69.5830  225.9110 C   0  0  0  0  0  0  0  0  0  0  0  0
  139.8160   68.7200  226.9920 C   0  0  0  0  0  0  0  0  0  0  0  0
  140.3730   69.1050  228.1880 C   0  0  0  0  0  0  0  0  0  0  0  0
  141.0080   70.3440  228.3220 C   0  0  0  0  0  0  0  0  0  0  0  0
  141.0730   71.1940  227.2260 C   0  0  0  0  0  0  0  0  0  0  0  0
  140.5180   70.8180  226.0200 C   0  0  0  0  0  0  0  0  0  0  0  0
  140.5890   71.6610  224.9480 N   0  0  0  0  0  0  0  0  0  0  0  0
  141.0430   70.7310  221.4120 H   0  0  0  0  0  0  0  0  0  0  0  0
  140.0949   72.0655  219.4609 H   0  0  0  0  0  0  0  0  0  0  0  0
  140.6483   73.5197  220.5775 H   0  0  0  0  0  0  0  0  0  0  0  0
  144.2088   71.1258  220.7458 H   0  0  0  0  0  0  0  0  0  0  0  0
  144.0814   71.1364  218.9461 H   0  0  0  0  0  0  0  0  0  0  0  0
  146.4346   71.4077  219.7892 H   0  0  0  0  0  0  0  0  0  0  0  0
  145.8861   72.7673  218.7778 H   0  0  0  0  0  0  0  0  0  0  0  0
  145.6762   72.6910  221.8369 H   0  0  0  0  0  0  0  0  0  0  0  0
  147.0180   73.4774  220.9342 H   0  0  0  0  0  0  0  0  0  0  0  0
  145.1748   75.0377  221.6418 H   0  0  0  0  0  0  0  0  0  0  0  0
  145.5013   74.9746  219.8455 H   0  0  0  0  0  0  0  0  0  0  0  0
  143.1882   74.0602  221.4294 H   0  0  0  0  0  0  0  0  0  0  0  0
  144.5807   75.1142  218.1273 H   0  0  0  0  0  0  0  0  0  0  0  0
  143.7123   76.9627  216.7923 H   0  0  0  0  0  0  0  0  0  0  0  0
  141.7391   78.2545  217.5384 H   0  0  0  0  0  0  0  0  0  0  0  0
  140.6469   77.6361  219.6804 H   0  0  0  0  0  0  0  0  0  0  0  0
  138.9943   69.8219  222.6584 H   0  0  0  0  0  0  0  0  0  0  0  0
  138.8401   68.2582  224.5690 H   0  0  0  0  0  0  0  0  0  0  0  0
  139.3179   67.7440  226.8948 H   0  0  0  0  0  0  0  0  0  0  0  0
  140.3186   68.4281  229.0534 H   0  0  0  0  0  0  0  0  0  0  0  0
  141.4506   70.6415  229.2841 H   0  0  0  0  0  0  0  0  0  0  0  0
  141.5691   72.1713  227.3196 H   0  0  0  0  0  0  0  0  0  0  0  0
  1  2  2  0
  2  3  1  0
  3  4  1  0
  4  5  1  0
  5  6  2  0
  5  7  1  0
  7  8  1  0
  8  9  1  0
  9 10  1  0
 10 11  1  0
 11 12  1  0
 12 13  1  0
 13 14  2  0
 14 15  1  0
 15 16  2  0
 16 17  1  0
 17 18  2  0
 18 19  1  0
  2 20  1  0
 20 21  2  0
 21 22  1  0
 22 23  2  0
 23 24  1  0
 24 25  2  0
 25 26  1  0
 26 27  2  0
 27 28  1  0
 28 29  2  0
 12  7  1  0
 18 13  1  0
 29 20  1  0
 28 23  1  0
  3 30  1  0
  4 31  1  0
  4 32  1  0
  8 33  1  0
  8 34  1  0
  9 35  1  0
  9 36  1  0
 10 37  1  0
 10 38  1  0
 11 39  1  0
 11 40  1  0
 12 41  1  1
 14 42  1  0
 15 43  1  0
 16 44  1  0
 17 45  1  0
 21 46  1  0
 22 47  1  0
 24 48  1  0
 25 49  1  0
 26 50  1  0
 27 51  1  0
M  END
>  <smiles>  (54) 
O=C(NCC(=O)N1CCCCC1c1ccccc1Cl)c1ccc2ccccc2n1

>  <score_type>  (54) 
oracle

>  <origin>  (54) 
autodockgpu

>  <m_score__min__energy>  (54) 
-8.6899999999999995

>  <m_primary>  (54) 
energy

>  <rmsd>  (54) 
3.8151916621199216

>  <m_score__min__rmsd>  (54) 
3.8151916621199216

>  <meeko>  (54) 
{"free_energy": -8.45, "intermolecular_energy": -9.94, "internal_energy": -1.7, "cluster_size": 13, "cluster_id": 3, "rank_in_cluster": 5}

>  <energy>  (54) 
-8.56

>  <cluster_rmsd>  (54) 
0.0

>  <cluster>  (54) 
2

$$$$

     RDKit          3D

 51 54  0  0  0  0  0  0  0  0999 V2000
  141.5680   71.9690  221.6900 O   0  0  0  0  0  0  0  0  0  0  0  0
  140.5910   72.2910  222.4310 C   0  0  0  0  0  0  0  0  0  0  0  0
  139.7960   73.4500  222.0740 N   0  0  0  0  0  0  0  0  0  0  0  0
  140.0190   74.2570  220.9480 C   0  0  0  0  0  0  0  0  0  0  0  0
  140.9680   75.3360  220.9040 C   0  0  0  0  0  0  0  0  0  0  0  0
  141.4530   75.6620  222.0760 O   0  0  0  0  0  0  0  0  0  0  0  0
  141.4560   76.1040  219.7920 N   0  0  0  0  0  0  0  0  0  0  0  0
  141.0980   77.4910  219.6340 C   0  0  0  0  0  0  0  0  0  0  0  0
  142.1700   78.2320  218.8650 C   0  0  0  0  0  0  0  0  0  0  0  0
  142.3890   77.4870  217.5630 C   0  0  0  0  0  0  0  0  0  0  0  0
  143.0120   76.1340  217.8450 C   0  0  0  0  0  0  0  0  0  0  0  0
  142.2900   75.3560  218.8650 C   0  0  1  0  0  0  0  0  0  0  0  0
  143.2400   74.4270  219.5030 C   0  0  0  0  0  0  0  0  0  0  0  0
  144.3310   74.9470  220.2170 C   0  0  0  0  0  0  0  0  0  0  0  0
  145.2470   74.1440  220.8410 C   0  0  0  0  0  0  0  0  0  0  0  0
  145.1410   72.7800  220.7970 C   0  0  0  0  0  0  0  0  0  0  0  0
  144.0870   72.2360  220.1080 C   0  0  0  0  0  0  0  0  0  0  0  0
  143.1570   73.0560  219.4740 C   0  0  0  0  0  0  0  0  0  0  0  0
  141.8640   72.2590  218.6190 Cl  0  0  0  0  0  0  0  0  0  0  0  0
  140.2670   71.5050  223.6290 C   0  0  0  0  0  0  0  0  0  0  0  0
  139.5010   70.3700  223.4760 C   0  0  0  0  0  0  0  0  0  0  0  0
  139.1620   69.5880  224.5590 C   0  0  0  0  0  0  0  0  0  0  0  0
  139.5990   69.9500  225.8230 C   0  0  0  0  0  0  0  0  0  0  0  0
  139.2700   69.1790  226.9260 C   0  0  0  0  0  0  0  0  0  0  0  0
  139.7220   69.5690  228.1640 C   0  0  0  0  0  0  0  0  0  0  0  0
  140.4990   70.7210  228.3190 C   0  0  0  0  0  0  0  0  0  0  0  0
  140.8160   71.4790  227.2000 C   0  0  0  0  0  0  0  0  0  0  0  0
  140.3690   71.0980  225.9510 C   0  0  0  0  0  0  0  0  0  0  0  0
  140.6890   71.8500  224.8570 N   0  0  0  0  0  0  0  0  0  0  0  0
  139.0060   73.6300  222.7710 H   0  0  0  0  0  0  0  0  0  0  0  0
  140.3137   73.5686  220.1422 H   0  0  0  0  0  0  0  0  0  0  0  0
  139.0707   74.8124  220.8995 H   0  0  0  0  0  0  0  0  0  0  0  0
  140.1469   77.5589  219.0855 H   0  0  0  0  0  0  0  0  0  0  0  0
  140.9956   77.9471  220.6297 H   0  0  0  0  0  0  0  0  0  0  0  0
  141.8416   79.2614  218.6588 H   0  0  0  0  0  0  0  0  0  0  0  0
  143.1024   78.2810  219.4466 H   0  0  0  0  0  0  0  0  0  0  0  0
  141.4231   77.3459  217.0559 H   0  0  0  0  0  0  0  0  0  0  0  0
  143.0634   78.0707  216.9192 H   0  0  0  0  0  0  0  0  0  0  0  0
  143.0247   75.5549  216.9099 H   0  0  0  0  0  0  0  0  0  0  0  0
  144.0237   76.3188  218.2352 H   0  0  0  0  0  0  0  0  0  0  0  0
  141.5107   74.7832  218.3411 H   0  0  0  0  0  0  0  0  0  0  0  0
  144.4541   76.0384  220.2771 H   0  0  0  0  0  0  0  0  0  0  0  0
  146.0837   74.6032  221.3879 H   0  0  0  0  0  0  0  0  0  0  0  0
  145.8798   72.1386  221.2997 H   0  0  0  0  0  0  0  0  0  0  0  0
  143.9755   71.1429  220.0558 H   0  0  0  0  0  0  0  0  0  0  0  0
  139.1541   70.0831  222.4723 H   0  0  0  0  0  0  0  0  0  0  0  0
  138.5499   68.6845  224.4211 H   0  0  0  0  0  0  0  0  0  0  0  0
  138.6585   68.2717  226.8131 H   0  0  0  0  0  0  0  0  0  0  0  0
  139.4682   68.9648  229.0475 H   0  0  0  0  0  0  0  0  0  0  0  0
  140.8547   71.0229  229.3152 H   0  0  0  0  0  0  0  0  0  0  0  0
  141.4263   72.3876  227.3093 H   0  0  0  0  0  0  0  0  0  0  0  0
  1  2  2  0
  2  3  1  0
  3  4  1  0
  4  5  1  0
  5  6  2  0
  5  7  1  0
  7  8  1  0
  8  9  1  0
  9 10  1  0
 10 11  1  0
 11 12  1  0
 12 13  1  0
 13 14  2  0
 14 15  1  0
 15 16  2  0
 16 17  1  0
 17 18  2  0
 18 19  1  0
  2 20  1  0
 20 21  2  0
 21 22  1  0
 22 23  2  0
 23 24  1  0
 24 25  2  0
 25 26  1  0
 26 27  2  0
 27 28  1  0
 28 29  2  0
 12  7  1  0
 18 13  1  0
 29 20  1  0
 28 23  1  0
  3 30  1  0
  4 31  1  0
  4 32  1  0
  8 33  1  0
  8 34  1  0
  9 35  1  0
  9 36  1  0
 10 37  1  0
 10 38  1  0
 11 39  1  0
 11 40  1  0
 12 41  1  6
 14 42  1  0
 15 43  1  0
 16 44  1  0
 17 45  1  0
 21 46  1  0
 22 47  1  0
 24 48  1  0
 25 49  1  0
 26 50  1  0
 27 51  1  0
M  END
>  <smiles>  (55) 
O=C(NCC(=O)N1CCCCC1c1ccccc1Cl)c1ccc2ccccc2n1

>  <score_type>  (55) 
oracle

>  <origin>  (55) 
autodockgpu

>  <m_score__min__energy>  (55) 
-8.6899999999999995

>  <m_primary>  (55) 
energy

>  <rmsd>  (55) 
2.2519490793539805

>  <m_score__min__rmsd>  (55) 
2.2519490793539805

>  <meeko>  (55) 
{"free_energy": -8.51, "intermolecular_energy": -10.0, "internal_energy": -1.97, "cluster_size": 16, "cluster_id": 2, "rank_in_cluster": 6}

>  <energy>  (55) 
-8.54

>  <cluster_rmsd>  (55) 
0.03

>  <cluster>  (55) 
2

$$$$

     RDKit          3D

 51 54  0  0  0  0  0  0  0  0999 V2000
  141.5530   72.4460  221.8990 O   0  0  0  0  0  0  0  0  0  0  0  0
  140.5120   72.5460  222.6150 C   0  0  0  0  0  0  0  0  0  0  0  0
  139.5590   73.5990  222.3200 N   0  0  0  0  0  0  0  0  0  0  0  0
  139.6940   74.5300  221.2790 C   0  0  0  0  0  0  0  0  0  0  0  0
  140.7450   75.5080  221.2010 C   0  0  0  0  0  0  0  0  0  0  0  0
  141.4540   75.6080  222.2980 O   0  0  0  0  0  0  0  0  0  0  0  0
  141.1300   76.3810  220.1280 N   0  0  0  0  0  0  0  0  0  0  0  0
  140.7570   77.7740  220.1340 C   0  0  0  0  0  0  0  0  0  0  0  0
  141.7550   78.5930  219.3450 C   0  0  0  0  0  0  0  0  0  0  0  0
  141.8550   77.9760  217.9640 C   0  0  0  0  0  0  0  0  0  0  0  0
  142.5030   76.6090  218.0600 C   0  0  0  0  0  0  0  0  0  0  0  0
  141.8770   75.7310  219.0630 C   0  0  1  0  0  0  0  0  0  0  0  0
  142.8810   74.7550  219.5220 C   0  0  0  0  0  0  0  0  0  0  0  0
  144.0770   75.2200  220.0920 C   0  0  0  0  0  0  0  0  0  0  0  0
  145.0500   74.3720  220.5470 C   0  0  0  0  0  0  0  0  0  0  0  0
  144.9000   73.0140  220.4670 C   0  0  0  0  0  0  0  0  0  0  0  0
  143.7440   72.5220  219.9160 C   0  0  0  0  0  0  0  0  0  0  0  0
  142.7570   73.3890  219.4540 C   0  0  0  0  0  0  0  0  0  0  0  0
  141.3330   72.6580  218.7630 Cl  0  0  0  0  0  0  0  0  0  0  0  0
  140.2730   71.6130  223.7250 C   0  0  0  0  0  0  0  0  0  0  0  0
  139.5500   70.4690  223.4680 C   0  0  0  0  0  0  0  0  0  0  0  0
  139.2900   69.5530  224.4640 C   0  0  0  0  0  0  0  0  0  0  0  0
  139.7630   69.7870  225.7450 C   0  0  0  0  0  0  0  0  0  0  0  0
  139.5130   68.8800  226.7620 C   0  0  0  0  0  0  0  0  0  0  0  0
  139.9990   69.1460  228.0200 C   0  0  0  0  0  0  0  0  0  0  0  0
  140.7320   70.3090  228.2800 C   0  0  0  0  0  0  0  0  0  0  0  0
  140.9700   71.2040  227.2460 C   0  0  0  0  0  0  0  0  0  0  0  0
  140.4880   70.9480  225.9780 C   0  0  0  0  0  0  0  0  0  0  0  0
  140.7290   71.8350  224.9690 N   0  0  0  0  0  0  0  0  0  0  0  0
  138.7260   73.5910  222.9880 H   0  0  0  0  0  0  0  0  0  0  0  0
  139.7722   73.9355  220.3568 H   0  0  0  0  0  0  0  0  0  0  0  0
  138.8233   75.1761  221.4648 H   0  0  0  0  0  0  0  0  0  0  0  0
  139.7604   77.8839  219.6816 H   0  0  0  0  0  0  0  0  0  0  0  0
  140.7435   78.1343  221.1732 H   0  0  0  0  0  0  0  0  0  0  0  0
  141.4095   79.6345  219.2676 H   0  0  0  0  0  0  0  0  0  0  0  0
  142.7362   78.5947  219.8422 H   0  0  0  0  0  0  0  0  0  0  0  0
  140.8470   77.8734  217.5357 H   0  0  0  0  0  0  0  0  0  0  0  0
  142.4666   78.6242  217.3192 H   0  0  0  0  0  0  0  0  0  0  0  0
  142.4323   76.1204  217.0770 H   0  0  0  0  0  0  0  0  0  0  0  0
  143.5455   76.7666  218.3737 H   0  0  0  0  0  0  0  0  0  0  0  0
  141.0542   75.2024  218.5594 H   0  0  0  0  0  0  0  0  0  0  0  0
  144.2377   76.3050  220.1758 H   0  0  0  0  0  0  0  0  0  0  0  0
  145.9689   74.7892  220.9847 H   0  0  0  0  0  0  0  0  0  0  0  0
  145.6844   72.3359  220.8343 H   0  0  0  0  0  0  0  0  0  0  0  0
  143.5956   71.4348  219.8386 H   0  0  0  0  0  0  0  0  0  0  0  0
  139.1741   70.2837  222.4510 H   0  0  0  0  0  0  0  0  0  0  0  0
  138.7117   68.6435  224.2439 H   0  0  0  0  0  0  0  0  0  0  0  0
  138.9363   67.9640  226.5664 H   0  0  0  0  0  0  0  0  0  0  0  0
  139.8085   68.4329  228.8356 H   0  0  0  0  0  0  0  0  0  0  0  0
  141.1149   70.5116  229.2911 H   0  0  0  0  0  0  0  0  0  0  0  0
  141.5454   72.1216  227.4379 H   0  0  0  0  0  0  0  0  0  0  0  0
  1  2  2  0
  2  3  1  0
  3  4  1  0
  4  5  1  0
  5  6  2  0
  5  7  1  0
  7  8  1  0
  8  9  1  0
  9 10  1  0
 10 11  1  0
 11 12  1  0
 12 13  1  0
 13 14  2  0
 14 15  1  0
 15 16  2  0
 16 17  1  0
 17 18  2  0
 18 19  1  0
  2 20  1  0
 20 21  2  0
 21 22  1  0
 22 23  2  0
 23 24  1  0
 24 25  2  0
 25 26  1  0
 26 27  2  0
 27 28  1  0
 28 29  2  0
 12  7  1  0
 18 13  1  0
 29 20  1  0
 28 23  1  0
  3 30  1  0
  4 31  1  0
  4 32  1  0
  8 33  1  0
  8 34  1  0
  9 35  1  0
  9 36  1  0
 10 37  1  0
 10 38  1  0
 11 39  1  0
 11 40  1  0
 12 41  1  6
 14 42  1  0
 15 43  1  0
 16 44  1  0
 17 45  1  0
 21 46  1  0
 22 47  1  0
 24 48  1  0
 25 49  1  0
 26 50  1  0
 27 51  1  0
M  END
>  <smiles>  (56) 
O=C(NCC(=O)N1CCCCC1c1ccccc1Cl)c1ccc2ccccc2n1

>  <score_type>  (56) 
oracle

>  <origin>  (56) 
autodockgpu

>  <m_score__min__energy>  (56) 
-8.6899999999999995

>  <m_primary>  (56) 
energy

>  <rmsd>  (56) 
2.2195729938238182

>  <m_score__min__rmsd>  (56) 
2.2195729938238182

>  <meeko>  (56) 
{"free_energy": -8.31, "intermolecular_energy": -9.8, "internal_energy": -1.96, "cluster_size": 16, "cluster_id": 2, "rank_in_cluster": 13}

>  <energy>  (56) 
-8.54

>  <cluster_rmsd>  (56) 
0.04

>  <cluster>  (56) 
2

$$$$

     RDKit          3D

 51 54  0  0  0  0  0  0  0  0999 V2000
  140.8620   76.7460  217.9870 O   0  0  0  0  0  0  0  0  0  0  0  0
  141.9260   76.7670  218.6760 C   0  0  0  0  0  0  0  0  0  0  0  0
  142.3280   78.0120  219.3020 N   0  0  0  0  0  0  0  0  0  0  0  0
  141.6170   79.2180  219.2140 C   0  0  0  0  0  0  0  0  0  0  0  0
  141.0430   79.9010  220.3410 C   0  0  0  0  0  0  0  0  0  0  0  0
  139.8300   80.3480  220.1260 O   0  0  0  0  0  0  0  0  0  0  0  0
  141.5850   80.1710  221.6430 N   0  0  0  0  0  0  0  0  0  0  0  0
  141.8850   81.5190  222.0570 C   0  0  0  0  0  0  0  0  0  0  0  0
  141.7980   81.6440  223.5620 C   0  0  0  0  0  0  0  0  0  0  0  0
  142.7070   80.5870  224.1570 C   0  0  0  0  0  0  0  0  0  0  0  0
  142.1440   79.2080  223.8730 C   0  0  0  0  0  0  0  0  0  0  0  0
  141.8190   78.9870  222.4540 C   0  0  1  0  0  0  0  0  0  0  0  0
  140.7610   77.9650  222.3700 C   0  0  0  0  0  0  0  0  0  0  0  0
  141.0860   76.6800  221.9070 C   0  0  0  0  0  0  0  0  0  0  0  0
  140.1570   75.6790  221.8110 C   0  0  0  0  0  0  0  0  0  0  0  0
  138.8520   75.8880  222.1670 C   0  0  0  0  0  0  0  0  0  0  0  0
  138.4970   77.1310  222.6240 C   0  0  0  0  0  0  0  0  0  0  0  0
  139.4450   78.1470  222.7200 C   0  0  0  0  0  0  0  0  0  0  0  0
  138.8840   79.6900  223.3040 Cl  0  0  0  0  0  0  0  0  0  0  0  0
  142.7390   75.5540  218.8380 C   0  0  0  0  0  0  0  0  0  0  0  0
  142.4260   74.4540  218.0710 C   0  0  0  0  0  0  0  0  0  0  0  0
  143.1490   73.2850  218.1740 C   0  0  0  0  0  0  0  0  0  0  0  0
  144.2060   73.2140  219.0660 C   0  0  0  0  0  0  0  0  0  0  0  0
  144.9460   72.0500  219.1870 C   0  0  0  0  0  0  0  0  0  0  0  0
  145.9890   72.0180  220.0830 C   0  0  0  0  0  0  0  0  0  0  0  0
  146.3050   73.1350  220.8630 C   0  0  0  0  0  0  0  0  0  0  0  0
  145.5490   74.2920  220.7250 C   0  0  0  0  0  0  0  0  0  0  0  0
  144.5010   74.3370  219.8290 C   0  0  0  0  0  0  0  0  0  0  0  0
  143.7660   75.4800  219.7020 N   0  0  0  0  0  0  0  0  0  0  0  0
  143.2400   77.9130  219.8500 H   0  0  0  0  0  0  0  0  0  0  0  0
  142.3082   79.9375  218.7508 H   0  0  0  0  0  0  0  0  0  0  0  0
  140.7094   78.8856  218.6889 H   0  0  0  0  0  0  0  0  0  0  0  0
  142.9026   81.7797  221.7305 H   0  0  0  0  0  0  0  0  0  0  0  0
  141.1531   82.2019  221.6009 H   0  0  0  0  0  0  0  0  0  0  0  0
  142.1291   82.6449  223.8761 H   0  0  0  0  0  0  0  0  0  0  0  0
  140.7622   81.5035  223.9045 H   0  0  0  0  0  0  0  0  0  0  0  0
  143.7082   80.6722  223.7095 H   0  0  0  0  0  0  0  0  0  0  0  0
  142.7740   80.7355  225.2449 H   0  0  0  0  0  0  0  0  0  0  0  0
  142.8877   78.4582  224.1807 H   0  0  0  0  0  0  0  0  0  0  0  0
  141.2041   79.1197  224.4377 H   0  0  0  0  0  0  0  0  0  0  0  0
  142.7324   78.6113  221.9697 H   0  0  0  0  0  0  0  0  0  0  0  0
  142.1243   76.4700  221.6107 H   0  0  0  0  0  0  0  0  0  0  0  0
  140.4646   74.6897  221.4414 H   0  0  0  0  0  0  0  0  0  0  0  0
  138.1086   75.0810  222.0887 H   0  0  0  0  0  0  0  0  0  0  0  0
  137.4551   77.3275  222.9172 H   0  0  0  0  0  0  0  0  0  0  0  0
  141.5849   74.5091  217.3643 H   0  0  0  0  0  0  0  0  0  0  0  0
  142.8885   72.4155  217.5527 H   0  0  0  0  0  0  0  0  0  0  0  0
  144.7041   71.1668  218.5775 H   0  0  0  0  0  0  0  0  0  0  0  0
  146.5843   71.0989  220.1878 H   0  0  0  0  0  0  0  0  0  0  0  0
  147.1414   73.0977  221.5765 H   0  0  0  0  0  0  0  0  0  0  0  0
  145.7871   75.1770  221.3333 H   0  0  0  0  0  0  0  0  0  0  0  0
  1  2  2  0
  2  3  1  0
  3  4  1  0
  4  5  1  0
  5  6  2  0
  5  7  1  0
  7  8  1  0
  8  9  1  0
  9 10  1  0
 10 11  1  0
 11 12  1  0
 12 13  1  0
 13 14  2  0
 14 15  1  0
 15 16  2  0
 16 17  1  0
 17 18  2  0
 18 19  1  0
  2 20  1  0
 20 21  2  0
 21 22  1  0
 22 23  2  0
 23 24  1  0
 24 25  2  0
 25 26  1  0
 26 27  2  0
 27 28  1  0
 28 29  2  0
 12  7  1  0
 18 13  1  0
 29 20  1  0
 28 23  1  0
  3 30  1  0
  4 31  1  0
  4 32  1  0
  8 33  1  0
  8 34  1  0
  9 35  1  0
  9 36  1  0
 10 37  1  0
 10 38  1  0
 11 39  1  0
 11 40  1  0
 12 41  1  6
 14 42  1  0
 15 43  1  0
 16 44  1  0
 17 45  1  0
 21 46  1  0
 22 47  1  0
 24 48  1  0
 25 49  1  0
 26 50  1  0
 27 51  1  0
M  END
>  <smiles>  (57) 
O=C(NCC(=O)N1CCCCC1c1ccccc1Cl)c1ccc2ccccc2n1

>  <score_type>  (57) 
oracle

>  <origin>  (57) 
autodockgpu

>  <m_score__min__energy>  (57) 
-8.6899999999999995

>  <m_primary>  (57) 
energy

>  <rmsd>  (57) 
7.710282665639748

>  <m_score__min__rmsd>  (57) 
7.710282665639748

>  <meeko>  (57) 
{"free_energy": -7.72, "intermolecular_energy": -9.21, "internal_energy": -2.49, "cluster_size": 12, "cluster_id": 4, "rank_in_cluster": 12}

>  <energy>  (57) 
-8.53

>  <cluster_rmsd>  (57) 
0.08

>  <cluster>  (57) 
2

$$$$

     RDKit          3D

 51 54  0  0  0  0  0  0  0  0999 V2000
  138.8090   75.4000  221.7360 O   0  0  0  0  0  0  0  0  0  0  0  0
  139.9840   75.8170  221.9620 C   0  0  0  0  0  0  0  0  0  0  0  0
  141.0990   74.9110  221.7610 N   0  0  0  0  0  0  0  0  0  0  0  0
  140.9800   73.5840  221.3190 C   0  0  0  0  0  0  0  0  0  0  0  0
  141.7920   73.0030  220.2840 C   0  0  0  0  0  0  0  0  0  0  0  0
  141.1160   72.6470  219.2200 O   0  0  0  0  0  0  0  0  0  0  0  0
  143.2050   72.7510  220.2380 N   0  0  0  0  0  0  0  0  0  0  0  0
  143.7180   71.4050  220.1960 C   0  0  0  0  0  0  0  0  0  0  0  0
  145.0670   71.3720  219.5120 C   0  0  0  0  0  0  0  0  0  0  0  0
  145.9620   72.3620  220.2290 C   0  0  0  0  0  0  0  0  0  0  0  0
  145.4640   73.7730  219.9830 C   0  0  0  0  0  0  0  0  0  0  0  0
  144.0300   73.9480  220.2680 C   0  0  1  0  0  0  0  0  0  0  0  0
  143.5240   75.0660  219.4510 C   0  0  0  0  0  0  0  0  0  0  0  0
  143.1210   76.2500  220.0870 C   0  0  0  0  0  0  0  0  0  0  0  0
  142.6500   77.3310  219.3920 C   0  0  0  0  0  0  0  0  0  0  0  0
  142.5470   77.3060  218.0270 C   0  0  0  0  0  0  0  0  0  0  0  0
  142.9320   76.1650  217.3710 C   0  0  0  0  0  0  0  0  0  0  0  0
  143.4110   75.0670  218.0820 C   0  0  0  0  0  0  0  0  0  0  0  0
  143.8620   73.6650  217.1500 Cl  0  0  0  0  0  0  0  0  0  0  0  0
  140.2160   77.1940  222.4200 C   0  0  0  0  0  0  0  0  0  0  0  0
  139.1210   77.9730  222.7190 C   0  0  0  0  0  0  0  0  0  0  0  0
  139.2690   79.2730  223.1540 C   0  0  0  0  0  0  0  0  0  0  0  0
  140.5410   79.8040  223.2920 C   0  0  0  0  0  0  0  0  0  0  0  0
  140.7140   81.1070  223.7270 C   0  0  0  0  0  0  0  0  0  0  0  0
  141.9910   81.6000  223.8520 C   0  0  0  0  0  0  0  0  0  0  0  0
  143.1030   80.8080  223.5480 C   0  0  0  0  0  0  0  0  0  0  0  0
  142.9060   79.5040  223.1130 C   0  0  0  0  0  0  0  0  0  0  0  0
  141.6290   78.9980  222.9840 C   0  0  0  0  0  0  0  0  0  0  0  0
  141.4480   77.7140  222.5570 N   0  0  0  0  0  0  0  0  0  0  0  0
  142.0370   75.3670  221.9880 H   0  0  0  0  0  0  0  0  0  0  0  0
  141.1400   72.9582  222.2094 H   0  0  0  0  0  0  0  0  0  0  0  0
  140.0002   73.6180  220.8202 H   0  0  0  0  0  0  0  0  0  0  0  0
  143.8238   71.0259  221.2232 H   0  0  0  0  0  0  0  0  0  0  0  0
  143.0167   70.7751  219.6291 H   0  0  0  0  0  0  0  0  0  0  0  0
  145.4967   70.3614  219.5763 H   0  0  0  0  0  0  0  0  0  0  0  0
  144.9700   71.6352  218.4483 H   0  0  0  0  0  0  0  0  0  0  0  0
  145.9478   72.1523  221.3087 H   0  0  0  0  0  0  0  0  0  0  0  0
  146.9893   72.2667  219.8476 H   0  0  0  0  0  0  0  0  0  0  0  0
  146.0332   74.4602  220.6263 H   0  0  0  0  0  0  0  0  0  0  0  0
  145.6095   73.9856  218.9136 H   0  0  0  0  0  0  0  0  0  0  0  0
  143.9422   74.2030  221.3344 H   0  0  0  0  0  0  0  0  0  0  0  0
  143.1859   76.3117  221.1834 H   0  0  0  0  0  0  0  0  0  0  0  0
  142.3488   78.2360  219.9399 H   0  0  0  0  0  0  0  0  0  0  0  0
  142.1663   78.1763  217.4724 H   0  0  0  0  0  0  0  0  0  0  0  0
  142.8620   76.1164  216.2743 H   0  0  0  0  0  0  0  0  0  0  0  0
  138.1110   77.5512  222.6090 H   0  0  0  0  0  0  0  0  0  0  0  0
  138.3846   79.8832  223.3895 H   0  0  0  0  0  0  0  0  0  0  0  0
  139.8449   81.7366  223.9683 H   0  0  0  0  0  0  0  0  0  0  0  0
  142.1408   82.6338  224.1966 H   0  0  0  0  0  0  0  0  0  0  0  0
  144.1205   81.2128  223.6521 H   0  0  0  0  0  0  0  0  0  0  0  0
  143.7725   78.8713  222.8701 H   0  0  0  0  0  0  0  0  0  0  0  0
  1  2  2  0
  2  3  1  0
  3  4  1  0
  4  5  1  0
  5  6  2  0
  5  7  1  0
  7  8  1  0
  8  9  1  0
  9 10  1  0
 10 11  1  0
 11 12  1  0
 12 13  1  0
 13 14  2  0
 14 15  1  0
 15 16  2  0
 16 17  1  0
 17 18  2  0
 18 19  1  0
  2 20  1  0
 20 21  2  0
 21 22  1  0
 22 23  2  0
 23 24  1  0
 24 25  2  0
 25 26  1  0
 26 27  2  0
 27 28  1  0
 28 29  2  0
 12  7  1  0
 18 13  1  0
 29 20  1  0
 28 23  1  0
  3 30  1  0
  4 31  1  0
  4 32  1  0
  8 33  1  0
  8 34  1  0
  9 35  1  0
  9 36  1  0
 10 37  1  0
 10 38  1  0
 11 39  1  0
 11 40  1  0
 12 41  1  1
 14 42  1  0
 15 43  1  0
 16 44  1  0
 17 45  1  0
 21 46  1  0
 22 47  1  0
 24 48  1  0
 25 49  1  0
 26 50  1  0
 27 51  1  0
M  END
>  <smiles>  (58) 
O=C(NCC(=O)N1CCCCC1c1ccccc1Cl)c1ccc2ccccc2n1

>  <score_type>  (58) 
oracle

>  <origin>  (58) 
autodockgpu

>  <m_score__min__energy>  (58) 
-8.6899999999999995

>  <m_primary>  (58) 
energy

>  <rmsd>  (58) 
7.8051975324408955

>  <m_score__min__rmsd>  (58) 
7.8051975324408955

>  <meeko>  (58) 
{"free_energy": -7.59, "intermolecular_energy": -9.08, "internal_energy": -2.41, "cluster_size": 6, "cluster_id": 5, "rank_in_cluster": 5}

>  <energy>  (58) 
-8.52

>  <cluster_rmsd>  (58) 
0.1

>  <cluster>  (58) 
2

$$$$

     RDKit          3D

 51 54  0  0  0  0  0  0  0  0999 V2000
  140.4320   71.2460  221.2300 O   0  0  0  0  0  0  0  0  0  0  0  0
  140.1400   71.9150  222.2670 C   0  0  0  0  0  0  0  0  0  0  0  0
  139.8300   73.3250  222.1250 N   0  0  0  0  0  0  0  0  0  0  0  0
  139.8180   74.0220  220.9070 C   0  0  0  0  0  0  0  0  0  0  0  0
  140.8700   73.9590  219.9300 C   0  0  0  0  0  0  0  0  0  0  0  0
  140.4630   74.1560  218.7010 O   0  0  0  0  0  0  0  0  0  0  0  0
  142.2760   73.7120  220.0880 N   0  0  0  0  0  0  0  0  0  0  0  0
  142.8240   72.3900  219.9100 C   0  0  0  0  0  0  0  0  0  0  0  0
  144.2700   72.4690  219.4750 C   0  0  0  0  0  0  0  0  0  0  0  0
  145.0030   73.3190  220.4940 C   0  0  0  0  0  0  0  0  0  0  0  0
  144.5190   74.7530  220.4070 C   0  0  0  0  0  0  0  0  0  0  0  0
  143.0530   74.8830  220.4630 C   0  0  1  0  0  0  0  0  0  0  0  0
  142.6670   76.1260  219.7710 C   0  0  0  0  0  0  0  0  0  0  0  0
  143.2050   76.3980  218.5040 C   0  0  0  0  0  0  0  0  0  0  0  0
  142.8850   77.5280  217.8000 C   0  0  0  0  0  0  0  0  0  0  0  0
  142.0150   78.4560  218.3060 C   0  0  0  0  0  0  0  0  0  0  0  0
  141.4700   78.2230  219.5420 C   0  0  0  0  0  0  0  0  0  0  0  0
  141.7980   77.0720  220.2560 C   0  0  0  0  0  0  0  0  0  0  0  0
  141.0550   76.8820  221.8210 Cl  0  0  0  0  0  0  0  0  0  0  0  0
  140.1160   71.2750  223.5890 C   0  0  0  0  0  0  0  0  0  0  0  0
  139.5620   70.0190  223.6940 C   0  0  0  0  0  0  0  0  0  0  0  0
  139.5070   69.3630  224.9060 C   0  0  0  0  0  0  0  0  0  0  0  0
  140.0180   69.9790  226.0370 C   0  0  0  0  0  0  0  0  0  0  0  0
  139.9740   69.3400  227.2640 C   0  0  0  0  0  0  0  0  0  0  0  0
  140.4910   69.9820  228.3640 C   0  0  0  0  0  0  0  0  0  0  0  0
  141.0520   71.2590  228.2570 C   0  0  0  0  0  0  0  0  0  0  0  0
  141.0860   71.8810  227.0160 C   0  0  0  0  0  0  0  0  0  0  0  0
  140.5710   71.2470  225.9040 C   0  0  0  0  0  0  0  0  0  0  0  0
  140.6100   71.8680  224.6890 N   0  0  0  0  0  0  0  0  0  0  0  0
  139.6060   73.7860  223.0610 H   0  0  0  0  0  0  0  0  0  0  0  0
  138.9075   73.6926  220.3850 H   0  0  0  0  0  0  0  0  0  0  0  0
  139.9255   75.0581  221.2604 H   0  0  0  0  0  0  0  0  0  0  0  0
  142.7619   71.8415  220.8615 H   0  0  0  0  0  0  0  0  0  0  0  0
  142.2471   71.8680  219.1324 H   0  0  0  0  0  0  0  0  0  0  0  0
  144.7083   71.4607  219.4412 H   0  0  0  0  0  0  0  0  0  0  0  0
  144.3504   72.9103  218.4706 H   0  0  0  0  0  0  0  0  0  0  0  0
  144.8086   72.9282  221.5037 H   0  0  0  0  0  0  0  0  0  0  0  0
  146.0827   73.2860  220.2864 H   0  0  0  0  0  0  0  0  0  0  0  0
  144.9509   75.3177  221.2464 H   0  0  0  0  0  0  0  0  0  0  0  0
  144.8413   75.1445  219.4309 H   0  0  0  0  0  0  0  0  0  0  0  0
  142.7763   74.9526  221.5254 H   0  0  0  0  0  0  0  0  0  0  0  0
  143.9087   75.6781  218.0606 H   0  0  0  0  0  0  0  0  0  0  0  0
  143.3351   77.6931  216.8100 H   0  0  0  0  0  0  0  0  0  0  0  0
  141.7606   79.3625  217.7371 H   0  0  0  0  0  0  0  0  0  0  0  0
  140.7676   78.9509  219.9741 H   0  0  0  0  0  0  0  0  0  0  0  0
  139.1563   69.5303  222.7959 H   0  0  0  0  0  0  0  0  0  0  0  0
  139.0614   68.3596  224.9741 H   0  0  0  0  0  0  0  0  0  0  0  0
  139.5332   68.3365  227.3572 H   0  0  0  0  0  0  0  0  0  0  0  0
  140.4631   69.4836  229.3442 H   0  0  0  0  0  0  0  0  0  0  0  0
  141.4610   71.7639  229.1446 H   0  0  0  0  0  0  0  0  0  0  0  0
  141.5259   72.8845  226.9189 H   0  0  0  0  0  0  0  0  0  0  0  0
  1  2  2  0
  2  3  1  0
  3  4  1  0
  4  5  1  0
  5  6  2  0
  5  7  1  0
  7  8  1  0
  8  9  1  0
  9 10  1  0
 10 11  1  0
 11 12  1  0
 12 13  1  0
 13 14  2  0
 14 15  1  0
 15 16  2  0
 16 17  1  0
 17 18  2  0
 18 19  1  0
  2 20  1  0
 20 21  2  0
 21 22  1  0
 22 23  2  0
 23 24  1  0
 24 25  2  0
 25 26  1  0
 26 27  2  0
 27 28  1  0
 28 29  2  0
 12  7  1  0
 18 13  1  0
 29 20  1  0
 28 23  1  0
  3 30  1  0
  4 31  1  0
  4 32  1  0
  8 33  1  0
  8 34  1  0
  9 35  1  0
  9 36  1  0
 10 37  1  0
 10 38  1  0
 11 39  1  0
 11 40  1  0
 12 41  1  1
 14 42  1  0
 15 43  1  0
 16 44  1  0
 17 45  1  0
 21 46  1  0
 22 47  1  0
 24 48  1  0
 25 49  1  0
 26 50  1  0
 27 51  1  0
M  END
>  <smiles>  (59) 
O=C(NCC(=O)N1CCCCC1c1ccccc1Cl)c1ccc2ccccc2n1

>  <score_type>  (59) 
oracle

>  <origin>  (59) 
autodockgpu

>  <m_score__min__energy>  (59) 
-8.6899999999999995

>  <m_primary>  (59) 
energy

>  <rmsd>  (59) 
3.014945550697937

>  <m_score__min__rmsd>  (59) 
3.014945550697937

>  <meeko>  (59) 
{"free_energy": -8.47, "intermolecular_energy": -9.97, "internal_energy": -1.9, "cluster_size": 13, "cluster_id": 3, "rank_in_cluster": 2}

>  <energy>  (59) 
-8.51

>  <cluster_rmsd>  (59) 
0.11

>  <cluster>  (59) 
2

$$$$

     RDKit          3D

 51 54  0  0  0  0  0  0  0  0999 V2000
  140.9880   71.5760  221.3820 O   0  0  0  0  0  0  0  0  0  0  0  0
  140.3900   72.1230  222.3570 C   0  0  0  0  0  0  0  0  0  0  0  0
  139.8690   73.4670  222.1920 N   0  0  0  0  0  0  0  0  0  0  0  0
  139.9670   74.2240  221.0140 C   0  0  0  0  0  0  0  0  0  0  0  0
  141.0980   75.0440  220.6740 C   0  0  0  0  0  0  0  0  0  0  0  0
  141.8850   75.3060  221.6870 O   0  0  0  0  0  0  0  0  0  0  0  0
  141.4890   75.6170  219.4160 N   0  0  0  0  0  0  0  0  0  0  0  0
  140.9730   76.8930  218.9890 C   0  0  0  0  0  0  0  0  0  0  0  0
  141.9500   77.5750  218.0560 C   0  0  0  0  0  0  0  0  0  0  0  0
  142.2470   76.6080  216.9270 C   0  0  0  0  0  0  0  0  0  0  0  0
  143.0230   75.4200  217.4610 C   0  0  0  0  0  0  0  0  0  0  0  0
  142.4000   74.7920  218.6380 C   0  0  1  0  0  0  0  0  0  0  0  0
  143.4530   74.1260  219.4250 C   0  0  0  0  0  0  0  0  0  0  0  0
  144.4120   74.9090  220.0850 C   0  0  0  0  0  0  0  0  0  0  0  0
  145.4130   74.3590  220.8400 C   0  0  0  0  0  0  0  0  0  0  0  0
  145.5260   73.0030  220.9870 C   0  0  0  0  0  0  0  0  0  0  0  0
  144.6060   72.2060  220.3560 C   0  0  0  0  0  0  0  0  0  0  0  0
  143.5890   72.7690  219.5890 C   0  0  0  0  0  0  0  0  0  0  0  0
  142.4810   71.6630  218.8220 Cl  0  0  0  0  0  0  0  0  0  0  0  0
  140.2260   71.4110  223.6310 C   0  0  0  0  0  0  0  0  0  0  0  0
  139.5700   70.2010  223.6210 C   0  0  0  0  0  0  0  0  0  0  0  0
  139.3830   69.4820  224.7820 C   0  0  0  0  0  0  0  0  0  0  0  0
  139.8630   69.9860  225.9800 C   0  0  0  0  0  0  0  0  0  0  0  0
  139.6860   69.2810  227.1590 C   0  0  0  0  0  0  0  0  0  0  0  0
  140.1770   69.8120  228.3280 C   0  0  0  0  0  0  0  0  0  0  0  0
  140.8430   71.0420  228.3380 C   0  0  0  0  0  0  0  0  0  0  0  0
  141.0090   71.7320  227.1440 C   0  0  0  0  0  0  0  0  0  0  0  0
  140.5210   71.2080  225.9640 C   0  0  0  0  0  0  0  0  0  0  0  0
  140.6910   71.8950  224.7960 N   0  0  0  0  0  0  0  0  0  0  0  0
  139.3930   73.8280  223.0770 H   0  0  0  0  0  0  0  0  0  0  0  0
  139.8621   73.5047  220.1885 H   0  0  0  0  0  0  0  0  0  0  0  0
  139.2008   74.9920  221.1962 H   0  0  0  0  0  0  0  0  0  0  0  0
  140.0183   76.7401  218.4645 H   0  0  0  0  0  0  0  0  0  0  0  0
  140.8224   77.5296  219.8733 H   0  0  0  0  0  0  0  0  0  0  0  0
  141.5052   78.4973  217.6542 H   0  0  0  0  0  0  0  0  0  0  0  0
  142.8732   77.8454  218.5895 H   0  0  0  0  0  0  0  0  0  0  0  0
  141.3014   76.2588  216.4867 H   0  0  0  0  0  0  0  0  0  0  0  0
  142.8464   77.1186  216.1589 H   0  0  0  0  0  0  0  0  0  0  0  0
  143.0982   74.6664  216.6633 H   0  0  0  0  0  0  0  0  0  0  0  0
  144.0083   75.7931  217.7771 H   0  0  0  0  0  0  0  0  0  0  0  0
  141.6900   74.0398  218.2638 H   0  0  0  0  0  0  0  0  0  0  0  0
  144.3577   76.0038  219.9926 H   0  0  0  0  0  0  0  0  0  0  0  0
  146.1393   75.0187  221.3373 H   0  0  0  0  0  0  0  0  0  0  0  0
  146.3320   72.5651  221.5941 H   0  0  0  0  0  0  0  0  0  0  0  0
  144.6717   71.1126  220.4564 H   0  0  0  0  0  0  0  0  0  0  0  0
  139.1884   69.8009  222.6701 H   0  0  0  0  0  0  0  0  0  0  0  0
  138.8571   68.5162  224.7576 H   0  0  0  0  0  0  0  0  0  0  0  0
  139.1621   68.3138  227.1599 H   0  0  0  0  0  0  0  0  0  0  0  0
  140.0440   69.2608  229.2706 H   0  0  0  0  0  0  0  0  0  0  0  0
  141.2305   71.4577  229.2798 H   0  0  0  0  0  0  0  0  0  0  0  0
  141.5315   72.7000  227.1388 H   0  0  0  0  0  0  0  0  0  0  0  0
  1  2  2  0
  2  3  1  0
  3  4  1  0
  4  5  1  0
  5  6  2  0
  5  7  1  0
  7  8  1  0
  8  9  1  0
  9 10  1  0
 10 11  1  0
 11 12  1  0
 12 13  1  0
 13 14  2  0
 14 15  1  0
 15 16  2  0
 16 17  1  0
 17 18  2  0
 18 19  1  0
  2 20  1  0
 20 21  2  0
 21 22  1  0
 22 23  2  0
 23 24  1  0
 24 25  2  0
 25 26  1  0
 26 27  2  0
 27 28  1  0
 28 29  2  0
 12  7  1  0
 18 13  1  0
 29 20  1  0
 28 23  1  0
  3 30  1  0
  4 31  1  0
  4 32  1  0
  8 33  1  0
  8 34  1  0
  9 35  1  0
  9 36  1  0
 10 37  1  0
 10 38  1  0
 11 39  1  0
 11 40  1  0
 12 41  1  6
 14 42  1  0
 15 43  1  0
 16 44  1  0
 17 45  1  0
 21 46  1  0
 22 47  1  0
 24 48  1  0
 25 49  1  0
 26 50  1  0
 27 51  1  0
M  END
>  <smiles>  (60) 
O=C(NCC(=O)N1CCCCC1c1ccccc1Cl)c1ccc2ccccc2n1

>  <score_type>  (60) 
oracle

>  <origin>  (60) 
autodockgpu

>  <m_score__min__energy>  (60) 
-8.6899999999999995

>  <m_primary>  (60) 
energy

>  <rmsd>  (60) 
2.1316227289332677

>  <m_score__min__rmsd>  (60) 
2.1316227289332677

>  <meeko>  (60) 
{"free_energy": -8.23, "intermolecular_energy": -9.72, "internal_energy": -1.93, "cluster_size": 16, "cluster_id": 2, "rank_in_cluster": 14}

>  <energy>  (60) 
-8.5

>  <cluster_rmsd>  (60) 
0.26

>  <cluster>  (60) 
2

$$$$

     RDKit          3D

 51 54  0  0  0  0  0  0  0  0999 V2000
  139.8540   73.4610  222.4750 O   0  0  0  0  0  0  0  0  0  0  0  0
  140.2440   72.2550  222.4950 C   0  0  0  0  0  0  0  0  0  0  0  0
  140.8030   71.6820  221.2850 N   0  0  0  0  0  0  0  0  0  0  0  0
  140.9580   72.3700  220.0720 C   0  0  0  0  0  0  0  0  0  0  0  0
  142.2200   72.5670  219.4120 C   0  0  0  0  0  0  0  0  0  0  0  0
  142.1440   72.5290  218.1050 O   0  0  0  0  0  0  0  0  0  0  0  0
  143.5310   72.7910  219.9540 N   0  0  0  0  0  0  0  0  0  0  0  0
  144.5150   71.7380  219.9770 C   0  0  0  0  0  0  0  0  0  0  0  0
  145.9130   72.3160  219.9480 C   0  0  0  0  0  0  0  0  0  0  0  0
  146.0190   73.3000  221.0960 C   0  0  0  0  0  0  0  0  0  0  0  0
  145.1260   74.4950  220.8300 C   0  0  0  0  0  0  0  0  0  0  0  0
  143.7420   74.1290  220.4830 C   0  0  1  0  0  0  0  0  0  0  0  0
  143.1630   75.2120  219.6680 C   0  0  0  0  0  0  0  0  0  0  0  0
  143.7190   75.4960  218.4110 C   0  0  0  0  0  0  0  0  0  0  0  0
  143.2280   76.4810  217.5980 C   0  0  0  0  0  0  0  0  0  0  0  0
  142.1580   77.2450  217.9780 C   0  0  0  0  0  0  0  0  0  0  0  0
  141.5870   76.9960  219.2000 C   0  0  0  0  0  0  0  0  0  0  0  0
  142.0900   75.9930  220.0250 C   0  0  0  0  0  0  0  0  0  0  0  0
  141.2970   75.7690  221.5610 Cl  0  0  0  0  0  0  0  0  0  0  0  0
  140.1330   71.4500  223.7190 C   0  0  0  0  0  0  0  0  0  0  0  0
  139.4620   70.2490  223.6490 C   0  0  0  0  0  0  0  0  0  0  0  0
  139.3220   69.4460  224.7600 C   0  0  0  0  0  0  0  0  0  0  0  0
  139.8640   69.8540  225.9680 C   0  0  0  0  0  0  0  0  0  0  0  0
  139.7360   69.0630  227.0980 C   0  0  0  0  0  0  0  0  0  0  0  0
  140.2870   69.5010  228.2780 C   0  0  0  0  0  0  0  0  0  0  0  0
  140.9670   70.7210  228.3490 C   0  0  0  0  0  0  0  0  0  0  0  0
  141.0840   71.4980  227.2030 C   0  0  0  0  0  0  0  0  0  0  0  0
  140.5350   71.0690  226.0120 C   0  0  0  0  0  0  0  0  0  0  0  0
  140.6570   71.8400  224.8930 N   0  0  0  0  0  0  0  0  0  0  0  0
  141.0900   70.6610  221.4160 H   0  0  0  0  0  0  0  0  0  0  0  0
  140.3222   71.8412  219.3466 H   0  0  0  0  0  0  0  0  0  0  0  0
  140.7246   73.3983  220.3851 H   0  0  0  0  0  0  0  0  0  0  0  0
  144.3880   71.1443  220.8943 H   0  0  0  0  0  0  0  0  0  0  0  0
  144.3753   71.1021  219.0904 H   0  0  0  0  0  0  0  0  0  0  0  0
  146.6547   71.5131  220.0710 H   0  0  0  0  0  0  0  0  0  0  0  0
  146.1073   72.8162  218.9878 H   0  0  0  0  0  0  0  0  0  0  0  0
  145.7041   72.8089  222.0285 H   0  0  0  0  0  0  0  0  0  0  0  0
  147.0614   73.6385  221.1899 H   0  0  0  0  0  0  0  0  0  0  0  0
  145.1042   75.1214  221.7340 H   0  0  0  0  0  0  0  0  0  0  0  0
  145.5468   75.0267  219.9639 H   0  0  0  0  0  0  0  0  0  0  0  0
  143.1851   74.0414  221.4276 H   0  0  0  0  0  0  0  0  0  0  0  0
  144.5808   74.9053  218.0669 H   0  0  0  0  0  0  0  0  0  0  0  0
  143.7016   76.6620  216.6218 H   0  0  0  0  0  0  0  0  0  0  0  0
  141.7669   78.0365  217.3218 H   0  0  0  0  0  0  0  0  0  0  0  0
  140.7248   77.5934  219.5311 H   0  0  0  0  0  0  0  0  0  0  0  0
  139.0307   69.9256  222.6902 H   0  0  0  0  0  0  0  0  0  0  0  0
  138.7844   68.4890  224.6884 H   0  0  0  0  0  0  0  0  0  0  0  0
  139.2030   68.1019  227.0515 H   0  0  0  0  0  0  0  0  0  0  0  0
  140.1917   68.8816  229.1821 H   0  0  0  0  0  0  0  0  0  0  0  0
  141.4035   71.0611  229.2997 H   0  0  0  0  0  0  0  0  0  0  0  0
  141.6167   72.4595  227.2454 H   0  0  0  0  0  0  0  0  0  0  0  0
  1  2  2  0
  2  3  1  0
  3  4  1  0
  4  5  1  0
  5  6  2  0
  5  7  1  0
  7  8  1  0
  8  9  1  0
  9 10  1  0
 10 11  1  0
 11 12  1  0
 12 13  1  0
 13 14  2  0
 14 15  1  0
 15 16  2  0
 16 17  1  0
 17 18  2  0
 18 19  1  0
  2 20  1  0
 20 21  2  0
 21 22  1  0
 22 23  2  0
 23 24  1  0
 24 25  2  0
 25 26  1  0
 26 27  2  0
 27 28  1  0
 28 29  2  0
 12  7  1  0
 18 13  1  0
 29 20  1  0
 28 23  1  0
  3 30  1  0
  4 31  1  0
  4 32  1  0
  8 33  1  0
  8 34  1  0
  9 35  1  0
  9 36  1  0
 10 37  1  0
 10 38  1  0
 11 39  1  0
 11 40  1  0
 12 41  1  1
 14 42  1  0
 15 43  1  0
 16 44  1  0
 17 45  1  0
 21 46  1  0
 22 47  1  0
 24 48  1  0
 25 49  1  0
 26 50  1  0
 27 51  1  0
M  END
>  <smiles>  (61) 
O=C(NCC(=O)N1CCCCC1c1ccccc1Cl)c1ccc2ccccc2n1

>  <score_type>  (61) 
oracle

>  <origin>  (61) 
autodockgpu

>  <m_score__min__energy>  (61) 
-8.6899999999999995

>  <m_primary>  (61) 
energy

>  <rmsd>  (61) 
3.928110313465479

>  <m_score__min__rmsd>  (61) 
3.928110313465479

>  <meeko>  (61) 
{"free_energy": -8.45, "intermolecular_energy": -9.94, "internal_energy": -1.72, "cluster_size": 13, "cluster_id": 3, "rank_in_cluster": 6}

>  <energy>  (61) 
-8.48

>  <cluster_rmsd>  (61) 
0.21

>  <cluster>  (61) 
2

$$$$

     RDKit          3D

 51 54  0  0  0  0  0  0  0  0999 V2000
  141.5730   71.8080  221.6210 O   0  0  0  0  0  0  0  0  0  0  0  0
  140.6760   72.2260  222.4120 C   0  0  0  0  0  0  0  0  0  0  0  0
  139.9820   73.4600  222.0930 N   0  0  0  0  0  0  0  0  0  0  0  0
  140.2220   74.2400  220.9510 C   0  0  0  0  0  0  0  0  0  0  0  0
  141.0760   75.3960  220.9290 C   0  0  0  0  0  0  0  0  0  0  0  0
  141.4370   75.8100  222.1180 O   0  0  0  0  0  0  0  0  0  0  0  0
  141.5840   76.1590  219.8230 N   0  0  0  0  0  0  0  0  0  0  0  0
  141.2530   77.5540  219.6690 C   0  0  0  0  0  0  0  0  0  0  0  0
  142.3430   78.2770  218.9090 C   0  0  0  0  0  0  0  0  0  0  0  0
  142.5540   77.5340  217.6040 C   0  0  0  0  0  0  0  0  0  0  0  0
  143.1500   76.1680  217.8830 C   0  0  0  0  0  0  0  0  0  0  0  0
  142.4080   75.3990  218.8970 C   0  0  1  0  0  0  0  0  0  0  0  0
  143.3370   74.4490  219.5350 C   0  0  0  0  0  0  0  0  0  0  0  0
  144.4220   74.9460  220.2740 C   0  0  0  0  0  0  0  0  0  0  0  0
  145.3190   74.1230  220.9000 C   0  0  0  0  0  0  0  0  0  0  0  0
  145.1980   72.7610  220.8330 C   0  0  0  0  0  0  0  0  0  0  0  0
  144.1500   72.2400  220.1200 C   0  0  0  0  0  0  0  0  0  0  0  0
  143.2390   73.0800  219.4840 C   0  0  0  0  0  0  0  0  0  0  0  0
  141.9510   72.3120  218.5960 Cl  0  0  0  0  0  0  0  0  0  0  0  0
  140.3420   71.4770  223.6310 C   0  0  0  0  0  0  0  0  0  0  0  0
  139.5860   70.3330  223.5050 C   0  0  0  0  0  0  0  0  0  0  0  0
  139.2380   69.5840  224.6090 C   0  0  0  0  0  0  0  0  0  0  0  0
  139.6550   69.9900  225.8660 C   0  0  0  0  0  0  0  0  0  0  0  0
  139.3180   69.2530  226.9890 C   0  0  0  0  0  0  0  0  0  0  0  0
  139.7500   69.6860  228.2190 C   0  0  0  0  0  0  0  0  0  0  0  0
  140.5170   70.8490  228.3470 C   0  0  0  0  0  0  0  0  0  0  0  0
  140.8440   71.5720  227.2070 C   0  0  0  0  0  0  0  0  0  0  0  0
  140.4160   71.1470  225.9660 C   0  0  0  0  0  0  0  0  0  0  0  0
  140.7440   71.8650  224.8530 N   0  0  0  0  0  0  0  0  0  0  0  0
  139.2540   73.7170  222.8300 H   0  0  0  0  0  0  0  0  0  0  0  0
  140.6359   73.5500  220.2010 H   0  0  0  0  0  0  0  0  0  0  0  0
  139.2364   74.7070  220.8074 H   0  0  0  0  0  0  0  0  0  0  0  0
  140.3064   77.6424  219.1158 H   0  0  0  0  0  0  0  0  0  0  0  0
  141.1537   78.0080  220.6660 H   0  0  0  0  0  0  0  0  0  0  0  0
  142.0360   79.3137  218.7062 H   0  0  0  0  0  0  0  0  0  0  0  0
  143.2732   78.3046  219.4955 H   0  0  0  0  0  0  0  0  0  0  0  0
  141.5880   77.4136  217.0917 H   0  0  0  0  0  0  0  0  0  0  0  0
  143.2422   78.1077  216.9658 H   0  0  0  0  0  0  0  0  0  0  0  0
  143.1561   75.5927  216.9454 H   0  0  0  0  0  0  0  0  0  0  0  0
  144.1632   76.3318  218.2787 H   0  0  0  0  0  0  0  0  0  0  0  0
  141.6202   74.8432  218.3673 H   0  0  0  0  0  0  0  0  0  0  0  0
  144.5561   76.0349  220.3528 H   0  0  0  0  0  0  0  0  0  0  0  0
  146.1520   74.5640  221.4671 H   0  0  0  0  0  0  0  0  0  0  0  0
  145.9215   72.1034  221.3372 H   0  0  0  0  0  0  0  0  0  0  0  0
  144.0272   71.1492  220.0494 H   0  0  0  0  0  0  0  0  0  0  0  0
  139.2542   70.0113  222.5068 H   0  0  0  0  0  0  0  0  0  0  0  0
  138.6344   68.6718  224.4926 H   0  0  0  0  0  0  0  0  0  0  0  0
  138.7152   68.3374  226.8977 H   0  0  0  0  0  0  0  0  0  0  0  0
  139.4886   69.1088  229.1181 H   0  0  0  0  0  0  0  0  0  0  0  0
  140.8566   71.1864  229.3374 H   0  0  0  0  0  0  0  0  0  0  0  0
  141.4471   72.4878  227.2939 H   0  0  0  0  0  0  0  0  0  0  0  0
  1  2  2  0
  2  3  1  0
  3  4  1  0
  4  5  1  0
  5  6  2  0
  5  7  1  0
  7  8  1  0
  8  9  1  0
  9 10  1  0
 10 11  1  0
 11 12  1  0
 12 13  1  0
 13 14  2  0
 14 15  1  0
 15 16  2  0
 16 17  1  0
 17 18  2  0
 18 19  1  0
  2 20  1  0
 20 21  2  0
 21 22  1  0
 22 23  2  0
 23 24  1  0
 24 25  2  0
 25 26  1  0
 26 27  2  0
 27 28  1  0
 28 29  2  0
 12  7  1  0
 18 13  1  0
 29 20  1  0
 28 23  1  0
  3 30  1  0
  4 31  1  0
  4 32  1  0
  8 33  1  0
  8 34  1  0
  9 35  1  0
  9 36  1  0
 10 37  1  0
 10 38  1  0
 11 39  1  0
 11 40  1  0
 12 41  1  6
 14 42  1  0
 15 43  1  0
 16 44  1  0
 17 45  1  0
 21 46  1  0
 22 47  1  0
 24 48  1  0
 25 49  1  0
 26 50  1  0
 27 51  1  0
M  END
>  <smiles>  (62) 
O=C(NCC(=O)N1CCCCC1c1ccccc1Cl)c1ccc2ccccc2n1

>  <score_type>  (62) 
oracle

>  <origin>  (62) 
autodockgpu

>  <m_score__min__energy>  (62) 
-8.6899999999999995

>  <m_primary>  (62) 
energy

>  <rmsd>  (62) 
2.329505783060303

>  <m_score__min__rmsd>  (62) 
2.329505783060303

>  <meeko>  (62) 
{"free_energy": -8.54, "intermolecular_energy": -10.03, "internal_energy": -1.97, "cluster_size": 16, "cluster_id": 2, "rank_in_cluster": 3}

>  <energy>  (62) 
-8.47

>  <cluster_rmsd>  (62) 
0.15

>  <cluster>  (62) 
2

$$$$

     RDKit          3D

 51 54  0  0  0  0  0  0  0  0999 V2000
  141.2440   71.6720  221.5120 O   0  0  0  0  0  0  0  0  0  0  0  0
  140.4900   72.1560  222.4070 C   0  0  0  0  0  0  0  0  0  0  0  0
  139.8880   73.4570  222.1860 N   0  0  0  0  0  0  0  0  0  0  0  0
  140.0710   74.2370  221.0330 C   0  0  0  0  0  0  0  0  0  0  0  0
  140.9690   75.3550  220.9490 C   0  0  0  0  0  0  0  0  0  0  0  0
  141.4380   75.7450  222.1090 O   0  0  0  0  0  0  0  0  0  0  0  0
  141.4230   76.1040  219.8110 N   0  0  0  0  0  0  0  0  0  0  0  0
  141.0470   77.4850  219.6330 C   0  0  0  0  0  0  0  0  0  0  0  0
  142.0930   78.2190  218.8230 C   0  0  0  0  0  0  0  0  0  0  0  0
  142.2870   77.4500  217.5320 C   0  0  0  0  0  0  0  0  0  0  0  0
  142.9310   76.1090  217.8260 C   0  0  0  0  0  0  0  0  0  0  0  0
  142.2420   75.3450  218.8800 C   0  0  1  0  0  0  0  0  0  0  0  0
  143.2160   74.4390  219.5130 C   0  0  0  0  0  0  0  0  0  0  0  0
  144.3000   74.9850  220.2190 C   0  0  0  0  0  0  0  0  0  0  0  0
  145.2380   74.2040  220.8390 C   0  0  0  0  0  0  0  0  0  0  0  0
  145.1610   72.8380  220.7980 C   0  0  0  0  0  0  0  0  0  0  0  0
  144.1160   72.2690  220.1180 C   0  0  0  0  0  0  0  0  0  0  0  0
  143.1630   73.0670  219.4880 C   0  0  0  0  0  0  0  0  0  0  0  0
  141.8820   72.2390  218.6430 Cl  0  0  0  0  0  0  0  0  0  0  0  0
  140.2270   71.4140  223.6480 C   0  0  0  0  0  0  0  0  0  0  0  0
  139.5000   70.2470  223.5670 C   0  0  0  0  0  0  0  0  0  0  0  0
  139.2180   69.5040  224.6930 C   0  0  0  0  0  0  0  0  0  0  0  0
  139.6730   69.9390  225.9270 C   0  0  0  0  0  0  0  0  0  0  0  0
  139.4030   69.2080  227.0720 C   0  0  0  0  0  0  0  0  0  0  0  0
  139.8720   69.6700  228.2790 C   0  0  0  0  0  0  0  0  0  0  0  0
  140.6090   70.8560  228.3610 C   0  0  0  0  0  0  0  0  0  0  0  0
  140.8690   71.5720  227.2000 C   0  0  0  0  0  0  0  0  0  0  0  0
  140.4040   71.1190  225.9830 C   0  0  0  0  0  0  0  0  0  0  0  0
  140.6670   71.8300  224.8480 N   0  0  0  0  0  0  0  0  0  0  0  0
  139.2790   73.7670  223.0070 H   0  0  0  0  0  0  0  0  0  0  0  0
  140.3940   73.5367  220.2486 H   0  0  0  0  0  0  0  0  0  0  0  0
  139.0985   74.7474  220.9718 H   0  0  0  0  0  0  0  0  0  0  0  0
  140.0824   77.5325  219.1064 H   0  0  0  0  0  0  0  0  0  0  0  0
  140.9636   77.9611  220.6211 H   0  0  0  0  0  0  0  0  0  0  0  0
  141.7503   79.2411  218.6041 H   0  0  0  0  0  0  0  0  0  0  0  0
  143.0388   78.2877  219.3805 H   0  0  0  0  0  0  0  0  0  0  0  0
  141.3103   77.2889  217.0523 H   0  0  0  0  0  0  0  0  0  0  0  0
  142.9389   78.0269  216.8595 H   0  0  0  0  0  0  0  0  0  0  0  0
  142.9266   75.5108  216.9029 H   0  0  0  0  0  0  0  0  0  0  0  0
  143.9502   76.3116  218.1869 H   0  0  0  0  0  0  0  0  0  0  0  0
  141.4562   74.7534  218.3875 H   0  0  0  0  0  0  0  0  0  0  0  0
  144.3990   76.0791  220.2759 H   0  0  0  0  0  0  0  0  0  0  0  0
  146.0680   74.6825  221.3795 H   0  0  0  0  0  0  0  0  0  0  0  0
  145.9171   72.2141  221.2971 H   0  0  0  0  0  0  0  0  0  0  0  0
  144.0288   71.1735  220.0691 H   0  0  0  0  0  0  0  0  0  0  0  0
  139.1383   69.9022  222.5871 H   0  0  0  0  0  0  0  0  0  0  0  0
  138.6367   68.5736  224.6125 H   0  0  0  0  0  0  0  0  0  0  0  0
  138.8237   68.2745  227.0167 H   0  0  0  0  0  0  0  0  0  0  0  0
  139.6643   69.0976  229.1951 H   0  0  0  0  0  0  0  0  0  0  0  0
  140.9778   71.2168  229.3325 H   0  0  0  0  0  0  0  0  0  0  0  0
  141.4489   72.5054  227.2511 H   0  0  0  0  0  0  0  0  0  0  0  0
  1  2  2  0
  2  3  1  0
  3  4  1  0
  4  5  1  0
  5  6  2  0
  5  7  1  0
  7  8  1  0
  8  9  1  0
  9 10  1  0
 10 11  1  0
 11 12  1  0
 12 13  1  0
 13 14  2  0
 14 15  1  0
 15 16  2  0
 16 17  1  0
 17 18  2  0
 18 19  1  0
  2 20  1  0
 20 21  2  0
 21 22  1  0
 22 23  2  0
 23 24  1  0
 24 25  2  0
 25 26  1  0
 26 27  2  0
 27 28  1  0
 28 29  2  0
 12  7  1  0
 18 13  1  0
 29 20  1  0
 28 23  1  0
  3 30  1  0
  4 31  1  0
  4 32  1  0
  8 33  1  0
  8 34  1  0
  9 35  1  0
  9 36  1  0
 10 37  1  0
 10 38  1  0
 11 39  1  0
 11 40  1  0
 12 41  1  6
 14 42  1  0
 15 43  1  0
 16 44  1  0
 17 45  1  0
 21 46  1  0
 22 47  1  0
 24 48  1  0
 25 49  1  0
 26 50  1  0
 27 51  1  0
M  END
>  <smiles>  (63) 
O=C(NCC(=O)N1CCCCC1c1ccccc1Cl)c1ccc2ccccc2n1

>  <score_type>  (63) 
oracle

>  <origin>  (63) 
autodockgpu

>  <m_score__min__energy>  (63) 
-8.6899999999999995

>  <m_primary>  (63) 
energy

>  <rmsd>  (63) 
2.211444025005381

>  <m_score__min__rmsd>  (63) 
2.211444025005381

>  <meeko>  (63) 
{"free_energy": -8.47, "intermolecular_energy": -9.97, "internal_energy": -1.98, "cluster_size": 16, "cluster_id": 2, "rank_in_cluster": 9}

>  <energy>  (63) 
-8.47

>  <cluster_rmsd>  (63) 
0.23

>  <cluster>  (63) 
2

$$$$

     RDKit          3D

 51 54  0  0  0  0  0  0  0  0999 V2000
  141.3400   72.2510  221.5050 O   0  0  0  0  0  0  0  0  0  0  0  0
  140.4730   72.5320  222.3860 C   0  0  0  0  0  0  0  0  0  0  0  0
  139.7230   73.7670  222.2580 N   0  0  0  0  0  0  0  0  0  0  0  0
  139.8750   74.6910  221.2130 C   0  0  0  0  0  0  0  0  0  0  0  0
  140.8210   75.7730  221.2230 C   0  0  0  0  0  0  0  0  0  0  0  0
  141.4290   75.9320  222.3730 O   0  0  0  0  0  0  0  0  0  0  0  0
  141.1940   76.6960  220.1880 N   0  0  0  0  0  0  0  0  0  0  0  0
  141.2840   76.2730  218.8120 C   0  0  0  0  0  0  0  0  0  0  0  0
  141.0330   77.4380  217.8810 C   0  0  0  0  0  0  0  0  0  0  0  0
  142.0010   78.5390  218.2630 C   0  0  0  0  0  0  0  0  0  0  0  0
  141.6430   79.0840  219.6320 C   0  0  0  0  0  0  0  0  0  0  0  0
  141.4900   78.0400  220.6580 C   0  0  1  0  0  0  0  0  0  0  0  0
  140.5790   78.5410  221.7030 C   0  0  0  0  0  0  0  0  0  0  0  0
  139.2010   78.2960  221.5840 C   0  0  0  0  0  0  0  0  0  0  0  0
  138.2980   78.7250  222.5190 C   0  0  0  0  0  0  0  0  0  0  0  0
  138.7020   79.4200  223.6270 C   0  0  0  0  0  0  0  0  0  0  0  0
  140.0400   79.6780  223.7770 C   0  0  0  0  0  0  0  0  0  0  0  0
  140.9560   79.2410  222.8230 C   0  0  0  0  0  0  0  0  0  0  0  0
  142.6310   79.6310  223.1070 Cl  0  0  0  0  0  0  0  0  0  0  0  0
  140.2310   71.6260  223.5170 C   0  0  0  0  0  0  0  0  0  0  0  0
  139.5270   70.4660  223.2810 C   0  0  0  0  0  0  0  0  0  0  0  0
  139.2660   69.5730  224.2990 C   0  0  0  0  0  0  0  0  0  0  0  0
  139.7180   69.8480  225.5790 C   0  0  0  0  0  0  0  0  0  0  0  0
  139.4670   68.9650  226.6160 C   0  0  0  0  0  0  0  0  0  0  0  0
  139.9310   69.2720  227.8730 C   0  0  0  0  0  0  0  0  0  0  0  0
  140.6450   70.4500  228.1110 C   0  0  0  0  0  0  0  0  0  0  0  0
  140.8850   71.3210  227.0570 C   0  0  0  0  0  0  0  0  0  0  0  0
  140.4240   71.0250  225.7900 C   0  0  0  0  0  0  0  0  0  0  0  0
  140.6670   71.8870  224.7610 N   0  0  0  0  0  0  0  0  0  0  0  0
  139.0280   73.9030  223.0580 H   0  0  0  0  0  0  0  0  0  0  0  0
  140.1156   74.0940  220.3210 H   0  0  0  0  0  0  0  0  0  0  0  0
  138.9270   75.2441  221.2860 H   0  0  0  0  0  0  0  0  0  0  0  0
  142.2894   75.8688  218.6228 H   0  0  0  0  0  0  0  0  0  0  0  0
  140.5231   75.5004  218.6274 H   0  0  0  0  0  0  0  0  0  0  0  0
  141.2052   77.1306  216.8390 H   0  0  0  0  0  0  0  0  0  0  0  0
  139.9935   77.7873  217.9670 H   0  0  0  0  0  0  0  0  0  0  0  0
  143.0236   78.1344  218.2868 H   0  0  0  0  0  0  0  0  0  0  0  0
  141.9408   79.3495  217.5218 H   0  0  0  0  0  0  0  0  0  0  0  0
  142.4392   79.7724  219.9518 H   0  0  0  0  0  0  0  0  0  0  0  0
  140.6699   79.5876  219.5353 H   0  0  0  0  0  0  0  0  0  0  0  0
  142.4864   77.8664  221.0904 H   0  0  0  0  0  0  0  0  0  0  0  0
  138.8346   77.7398  220.7086 H   0  0  0  0  0  0  0  0  0  0  0  0
  137.2290   78.5075  222.3776 H   0  0  0  0  0  0  0  0  0  0  0  0
  137.9730   79.7621  224.3764 H   0  0  0  0  0  0  0  0  0  0  0  0
  140.3930   80.2345  224.6577 H   0  0  0  0  0  0  0  0  0  0  0  0
  139.1672   70.2484  222.2645 H   0  0  0  0  0  0  0  0  0  0  0  0
  138.7034   68.6498  224.0960 H   0  0  0  0  0  0  0  0  0  0  0  0
  138.9068   68.0354  226.4371 H   0  0  0  0  0  0  0  0  0  0  0  0
  139.7373   68.5793  228.7053 H   0  0  0  0  0  0  0  0  0  0  0  0
  141.0122   70.6839  229.1212 H   0  0  0  0  0  0  0  0  0  0  0  0
  141.4451   72.2513  227.2323 H   0  0  0  0  0  0  0  0  0  0  0  0
  1  2  2  0
  2  3  1  0
  3  4  1  0
  4  5  1  0
  5  6  2  0
  5  7  1  0
  7  8  1  0
  8  9  1  0
  9 10  1  0
 10 11  1  0
 11 12  1  0
 12 13  1  0
 13 14  2  0
 14 15  1  0
 15 16  2  0
 16 17  1  0
 17 18  2  0
 18 19  1  0
  2 20  1  0
 20 21  2  0
 21 22  1  0
 22 23  2  0
 23 24  1  0
 24 25  2  0
 25 26  1  0
 26 27  2  0
 27 28  1  0
 28 29  2  0
 12  7  1  0
 18 13  1  0
 29 20  1  0
 28 23  1  0
  3 30  1  0
  4 31  1  0
  4 32  1  0
  8 33  1  0
  8 34  1  0
  9 35  1  0
  9 36  1  0
 10 37  1  0
 10 38  1  0
 11 39  1  0
 11 40  1  0
 12 41  1  1
 14 42  1  0
 15 43  1  0
 16 44  1  0
 17 45  1  0
 21 46  1  0
 22 47  1  0
 24 48  1  0
 25 49  1  0
 26 50  1  0
 27 51  1  0
M  END
>  <smiles>  (64) 
O=C(NCC(=O)N1CCCCC1c1ccccc1Cl)c1ccc2ccccc2n1

>  <score_type>  (64) 
oracle

>  <origin>  (64) 
autodockgpu

>  <m_score__min__energy>  (64) 
-8.6899999999999995

>  <m_primary>  (64) 
energy

>  <rmsd>  (64) 
1.8521448892859367

>  <m_score__min__rmsd>  (64) 
1.8521448892859367

>  <meeko>  (64) 
{"free_energy": -8.69, "intermolecular_energy": -10.18, "internal_energy": -1.38, "cluster_size": 3, "cluster_id": 1, "rank_in_cluster": 1}

>  <energy>  (64) 
-8.39

>  <cluster_rmsd>  (64) 
0.23

>  <cluster>  (64) 
2

$$$$

     RDKit          3D

 51 54  0  0  0  0  0  0  0  0999 V2000
  140.6000   76.5540  218.5280 O   0  0  0  0  0  0  0  0  0  0  0  0
  141.8050   76.6530  218.9090 C   0  0  0  0  0  0  0  0  0  0  0  0
  142.3260   77.9640  219.2450 N   0  0  0  0  0  0  0  0  0  0  0  0
  141.5880   79.1560  219.1880 C   0  0  0  0  0  0  0  0  0  0  0  0
  140.9960   79.7940  220.3330 C   0  0  0  0  0  0  0  0  0  0  0  0
  139.7480   80.1490  220.1530 O   0  0  0  0  0  0  0  0  0  0  0  0
  141.5530   80.1030  221.6200 N   0  0  0  0  0  0  0  0  0  0  0  0
  141.8650   81.4610  221.9880 C   0  0  0  0  0  0  0  0  0  0  0  0
  141.7920   81.6350  223.4890 C   0  0  0  0  0  0  0  0  0  0  0  0
  142.7020   80.5920  224.1090 C   0  0  0  0  0  0  0  0  0  0  0  0
  142.1290   79.2080  223.8750 C   0  0  0  0  0  0  0  0  0  0  0  0
  141.7880   78.9440  222.4670 C   0  0  1  0  0  0  0  0  0  0  0  0
  140.7240   77.9260  222.4260 C   0  0  0  0  0  0  0  0  0  0  0  0
  141.0410   76.6200  222.0170 C   0  0  0  0  0  0  0  0  0  0  0  0
  140.1050   75.6220  221.9640 C   0  0  0  0  0  0  0  0  0  0  0  0
  138.8020   75.8540  222.3110 C   0  0  0  0  0  0  0  0  0  0  0  0
  138.4550   77.1170  222.7160 C   0  0  0  0  0  0  0  0  0  0  0  0
  139.4090   78.1300  222.7690 C   0  0  0  0  0  0  0  0  0  0  0  0
  138.8580   79.7000  223.2880 Cl  0  0  0  0  0  0  0  0  0  0  0  0
  142.6600   75.4620  219.0110 C   0  0  0  0  0  0  0  0  0  0  0  0
  142.4000   74.4010  218.1730 C   0  0  0  0  0  0  0  0  0  0  0  0
  143.1640   73.2550  218.2170 C   0  0  0  0  0  0  0  0  0  0  0  0
  144.2110   73.1690  219.1200 C   0  0  0  0  0  0  0  0  0  0  0  0
  144.9920   72.0270  219.1820 C   0  0  0  0  0  0  0  0  0  0  0  0
  146.0230   71.9780  220.0910 C   0  0  0  0  0  0  0  0  0  0  0  0
  146.2860   73.0560  220.9420 C   0  0  0  0  0  0  0  0  0  0  0  0
  145.4900   74.1910  220.8620 C   0  0  0  0  0  0  0  0  0  0  0  0
  144.4530   74.2520  219.9540 C   0  0  0  0  0  0  0  0  0  0  0  0
  143.6770   75.3740  219.8840 N   0  0  0  0  0  0  0  0  0  0  0  0
  143.3500   77.9280  219.5460 H   0  0  0  0  0  0  0  0  0  0  0  0
  142.2638   79.9036  218.7471 H   0  0  0  0  0  0  0  0  0  0  0  0
  140.6895   78.8186  218.6505 H   0  0  0  0  0  0  0  0  0  0  0  0
  142.8813   81.7044  221.6447 H   0  0  0  0  0  0  0  0  0  0  0  0
  141.1334   82.1337  221.5166 H   0  0  0  0  0  0  0  0  0  0  0  0
  142.1308   82.6437  223.7679 H   0  0  0  0  0  0  0  0  0  0  0  0
  140.7587   81.5115  223.8455 H   0  0  0  0  0  0  0  0  0  0  0  0
  143.6991   80.6572  223.6491 H   0  0  0  0  0  0  0  0  0  0  0  0
  142.7808   80.7749  225.1908 H   0  0  0  0  0  0  0  0  0  0  0  0
  142.8720   78.4642  224.1987 H   0  0  0  0  0  0  0  0  0  0  0  0
  141.1947   79.1427  224.4520 H   0  0  0  0  0  0  0  0  0  0  0  0
  142.6945   78.5479  221.9861 H   0  0  0  0  0  0  0  0  0  0  0  0
  142.0777   76.3910  221.7292 H   0  0  0  0  0  0  0  0  0  0  0  0
  140.4060   74.6159  221.6366 H   0  0  0  0  0  0  0  0  0  0  0  0
  138.0534   75.0493  222.2663 H   0  0  0  0  0  0  0  0  0  0  0  0
  137.4146   77.3319  223.0014 H   0  0  0  0  0  0  0  0  0  0  0  0
  141.5684   74.4692  217.4563 H   0  0  0  0  0  0  0  0  0  0  0  0
  142.9443   72.4156  217.5408 H   0  0  0  0  0  0  0  0  0  0  0  0
  144.7914   71.1746  218.5163 H   0  0  0  0  0  0  0  0  0  0  0  0
  146.6506   71.0765  220.1495 H   0  0  0  0  0  0  0  0  0  0  0  0
  147.1129   73.0055  221.6656 H   0  0  0  0  0  0  0  0  0  0  0  0
  145.6872   75.0457  221.5258 H   0  0  0  0  0  0  0  0  0  0  0  0
  1  2  2  0
  2  3  1  0
  3  4  1  0
  4  5  1  0
  5  6  2  0
  5  7  1  0
  7  8  1  0
  8  9  1  0
  9 10  1  0
 10 11  1  0
 11 12  1  0
 12 13  1  0
 13 14  2  0
 14 15  1  0
 15 16  2  0
 16 17  1  0
 17 18  2  0
 18 19  1  0
  2 20  1  0
 20 21  2  0
 21 22  1  0
 22 23  2  0
 23 24  1  0
 24 25  2  0
 25 26  1  0
 26 27  2  0
 27 28  1  0
 28 29  2  0
 12  7  1  0
 18 13  1  0
 29 20  1  0
 28 23  1  0
  3 30  1  0
  4 31  1  0
  4 32  1  0
  8 33  1  0
  8 34  1  0
  9 35  1  0
  9 36  1  0
 10 37  1  0
 10 38  1  0
 11 39  1  0
 11 40  1  0
 12 41  1  6
 14 42  1  0
 15 43  1  0
 16 44  1  0
 17 45  1  0
 21 46  1  0
 22 47  1  0
 24 48  1  0
 25 49  1  0
 26 50  1  0
 27 51  1  0
M  END
>  <smiles>  (65) 
O=C(NCC(=O)N1CCCCC1c1ccccc1Cl)c1ccc2ccccc2n1

>  <score_type>  (65) 
oracle

>  <origin>  (65) 
autodockgpu

>  <m_score__min__energy>  (65) 
-8.6899999999999995

>  <m_primary>  (65) 
energy

>  <rmsd>  (65) 
7.637782322350177

>  <m_score__min__rmsd>  (65) 
7.637782322350177

>  <meeko>  (65) 
{"free_energy": -7.81, "intermolecular_energy": -9.3, "internal_energy": -2.44, "cluster_size": 12, "cluster_id": 4, "rank_in_cluster": 5}

>  <energy>  (65) 
-8.35

>  <cluster_rmsd>  (65) 
0.27

>  <cluster>  (65) 
2

$$$$

     RDKit          3D

 51 54  0  0  0  0  0  0  0  0999 V2000
  140.3830   71.2150  221.1950 O   0  0  0  0  0  0  0  0  0  0  0  0
  139.8790   71.8170  222.1900 C   0  0  0  0  0  0  0  0  0  0  0  0
  139.2060   73.0840  221.9730 N   0  0  0  0  0  0  0  0  0  0  0  0
  139.0580   73.7060  220.7240 C   0  0  0  0  0  0  0  0  0  0  0  0
  140.0960   73.7840  219.7330 C   0  0  0  0  0  0  0  0  0  0  0  0
  139.6790   74.2010  218.5620 O   0  0  0  0  0  0  0  0  0  0  0  0
  141.4960   73.4770  219.8220 N   0  0  0  0  0  0  0  0  0  0  0  0
  142.0980   72.4970  218.9520 C   0  0  0  0  0  0  0  0  0  0  0  0
  143.5670   72.7980  218.7500 C   0  0  0  0  0  0  0  0  0  0  0  0
  144.2020   72.8930  220.1230 C   0  0  0  0  0  0  0  0  0  0  0  0
  143.6760   74.1180  220.8470 C   0  0  0  0  0  0  0  0  0  0  0  0
  142.2060   74.2060  220.8600 C   0  0  1  0  0  0  0  0  0  0  0  0
  141.8250   75.6240  220.9880 C   0  0  0  0  0  0  0  0  0  0  0  0
  141.0770   76.0330  222.1040 C   0  0  0  0  0  0  0  0  0  0  0  0
  140.6950   77.3330  222.2920 C   0  0  0  0  0  0  0  0  0  0  0  0
  141.0280   78.3080  221.3900 C   0  0  0  0  0  0  0  0  0  0  0  0
  141.7580   77.9460  220.2880 C   0  0  0  0  0  0  0  0  0  0  0  0
  142.1450   76.6210  220.1000 C   0  0  0  0  0  0  0  0  0  0  0  0
  143.0620   76.2690  218.6590 Cl  0  0  0  0  0  0  0  0  0  0  0  0
  139.9720   71.2440  223.5400 C   0  0  0  0  0  0  0  0  0  0  0  0
  139.5210   69.9570  223.7330 C   0  0  0  0  0  0  0  0  0  0  0  0
  139.5800   69.3610  224.9740 C   0  0  0  0  0  0  0  0  0  0  0  0
  140.1000   70.0680  226.0460 C   0  0  0  0  0  0  0  0  0  0  0  0
  140.1690   69.4890  227.3020 C   0  0  0  0  0  0  0  0  0  0  0  0
  140.6920   70.2220  228.3410 C   0  0  0  0  0  0  0  0  0  0  0  0
  141.1490   71.5290  228.1440 C   0  0  0  0  0  0  0  0  0  0  0  0
  141.0700   72.0890  226.8760 C   0  0  0  0  0  0  0  0  0  0  0  0
  140.5480   71.3640  225.8250 C   0  0  0  0  0  0  0  0  0  0  0  0
  140.4760   71.9250  224.5830 N   0  0  0  0  0  0  0  0  0  0  0  0
  138.8270   73.5020  222.8790 H   0  0  0  0  0  0  0  0  0  0  0  0
  138.2172   73.1930  220.2342 H   0  0  0  0  0  0  0  0  0  0  0  0
  138.9799   74.7609  221.0258 H   0  0  0  0  0  0  0  0  0  0  0  0
  141.9917   71.4992  219.4026 H   0  0  0  0  0  0  0  0  0  0  0  0
  141.5912   72.5288  217.9762 H   0  0  0  0  0  0  0  0  0  0  0  0
  144.0403   71.9909  218.1717 H   0  0  0  0  0  0  0  0  0  0  0  0
  143.6985   73.7385  218.1948 H   0  0  0  0  0  0  0  0  0  0  0  0
  143.9551   71.9916  220.7030 H   0  0  0  0  0  0  0  0  0  0  0  0
  145.2935   72.9753  220.0142 H   0  0  0  0  0  0  0  0  0  0  0  0
  144.0323   74.0875  221.8873 H   0  0  0  0  0  0  0  0  0  0  0  0
  144.0483   74.9995  220.3045 H   0  0  0  0  0  0  0  0  0  0  0  0
  141.8574   73.6498  221.7427 H   0  0  0  0  0  0  0  0  0  0  0  0
  140.7881   75.2814  222.8534 H   0  0  0  0  0  0  0  0  0  0  0  0
  140.1096   77.6001  223.1842 H   0  0  0  0  0  0  0  0  0  0  0  0
  140.7184   79.3520  221.5455 H   0  0  0  0  0  0  0  0  0  0  0  0
  142.0405   78.7076  219.5462 H   0  0  0  0  0  0  0  0  0  0  0  0
  139.1069   69.3957  222.8825 H   0  0  0  0  0  0  0  0  0  0  0  0
  139.2171   68.3319  225.1124 H   0  0  0  0  0  0  0  0  0  0  0  0
  139.8119   68.4615  227.4655 H   0  0  0  0  0  0  0  0  0  0  0  0
  140.7520   69.7732  229.3435 H   0  0  0  0  0  0  0  0  0  0  0  0
  141.5657   72.1059  228.9828 H   0  0  0  0  0  0  0  0  0  0  0  0
  141.4256   73.1164  226.7086 H   0  0  0  0  0  0  0  0  0  0  0  0
  1  2  2  0
  2  3  1  0
  3  4  1  0
  4  5  1  0
  5  6  2  0
  5  7  1  0
  7  8  1  0
  8  9  1  0
  9 10  1  0
 10 11  1  0
 11 12  1  0
 12 13  1  0
 13 14  2  0
 14 15  1  0
 15 16  2  0
 16 17  1  0
 17 18  2  0
 18 19  1  0
  2 20  1  0
 20 21  2  0
 21 22  1  0
 22 23  2  0
 23 24  1  0
 24 25  2  0
 25 26  1  0
 26 27  2  0
 27 28  1  0
 28 29  2  0
 12  7  1  0
 18 13  1  0
 29 20  1  0
 28 23  1  0
  3 30  1  0
  4 31  1  0
  4 32  1  0
  8 33  1  0
  8 34  1  0
  9 35  1  0
  9 36  1  0
 10 37  1  0
 10 38  1  0
 11 39  1  0
 11 40  1  0
 12 41  1  1
 14 42  1  0
 15 43  1  0
 16 44  1  0
 17 45  1  0
 21 46  1  0
 22 47  1  0
 24 48  1  0
 25 49  1  0
 26 50  1  0
 27 51  1  0
M  END
>  <smiles>  (66) 
O=C(NCC(=O)N1CCCCC1c1ccccc1Cl)c1ccc2ccccc2n1

>  <score_type>  (66) 
oracle

>  <origin>  (66) 
autodockgpu

>  <m_score__min__energy>  (66) 
-8.6899999999999995

>  <m_primary>  (66) 
energy

>  <rmsd>  (66) 
2.7394775216145932

>  <m_score__min__rmsd>  (66) 
2.7394775216145932

>  <meeko>  (66) 
{"free_energy": -7.94, "intermolecular_energy": -9.43, "internal_energy": -2.02, "cluster_size": 13, "cluster_id": 3, "rank_in_cluster": 13}

>  <energy>  (66) 
-8.31

>  <cluster_rmsd>  (66) 
0.51

>  <cluster>  (66) 
2

$$$$

     RDKit          3D

 51 54  0  0  0  0  0  0  0  0999 V2000
  141.5700   71.8160  221.6280 O   0  0  0  0  0  0  0  0  0  0  0  0
  140.6680   72.2270  222.4170 C   0  0  0  0  0  0  0  0  0  0  0  0
  139.9660   73.4550  222.0970 N   0  0  0  0  0  0  0  0  0  0  0  0
  140.2040   74.2380  220.9570 C   0  0  0  0  0  0  0  0  0  0  0  0
  141.0450   75.4030  220.9380 C   0  0  0  0  0  0  0  0  0  0  0  0
  141.4100   75.8100  222.1290 O   0  0  0  0  0  0  0  0  0  0  0  0
  141.5380   76.1810  219.8360 N   0  0  0  0  0  0  0  0  0  0  0  0
  141.1980   77.5760  219.7010 C   0  0  0  0  0  0  0  0  0  0  0  0
  142.2750   78.3130  218.9380 C   0  0  0  0  0  0  0  0  0  0  0  0
  142.4760   77.5860  217.6230 C   0  0  0  0  0  0  0  0  0  0  0  0
  143.0820   76.2210  217.8800 C   0  0  0  0  0  0  0  0  0  0  0  0
  142.3560   75.4360  218.8930 C   0  0  1  0  0  0  0  0  0  0  0  0
  143.2960   74.4850  219.5100 C   0  0  0  0  0  0  0  0  0  0  0  0
  144.3950   74.9790  220.2300 C   0  0  0  0  0  0  0  0  0  0  0  0
  145.3040   74.1540  220.8370 C   0  0  0  0  0  0  0  0  0  0  0  0
  145.1820   72.7920  220.7680 C   0  0  0  0  0  0  0  0  0  0  0  0
  144.1200   72.2730  220.0730 C   0  0  0  0  0  0  0  0  0  0  0  0
  143.1970   73.1160  219.4570 C   0  0  0  0  0  0  0  0  0  0  0  0
  141.8920   72.3500  218.5920 Cl  0  0  0  0  0  0  0  0  0  0  0  0
  140.3360   71.4740  223.6340 C   0  0  0  0  0  0  0  0  0  0  0  0
  139.5700   70.3370  223.5080 C   0  0  0  0  0  0  0  0  0  0  0  0
  139.2230   69.5850  224.6100 C   0  0  0  0  0  0  0  0  0  0  0  0
  139.6520   69.9810  225.8660 C   0  0  0  0  0  0  0  0  0  0  0  0
  139.3160   69.2410  226.9880 C   0  0  0  0  0  0  0  0  0  0  0  0
  139.7610   69.6650  228.2180 C   0  0  0  0  0  0  0  0  0  0  0  0
  140.5390   70.8200  228.3460 C   0  0  0  0  0  0  0  0  0  0  0  0
  140.8640   71.5460  227.2080 C   0  0  0  0  0  0  0  0  0  0  0  0
  140.4240   71.1320  225.9670 C   0  0  0  0  0  0  0  0  0  0  0  0
  140.7500   71.8530  224.8550 N   0  0  0  0  0  0  0  0  0  0  0  0
  139.2340   73.7070  222.8330 H   0  0  0  0  0  0  0  0  0  0  0  0
  140.6292   73.5524  220.2092 H   0  0  0  0  0  0  0  0  0  0  0  0
  139.2143   74.6950  220.8098 H   0  0  0  0  0  0  0  0  0  0  0  0
  140.2450   77.6653  219.1590 H   0  0  0  0  0  0  0  0  0  0  0  0
  141.1072   78.0183  220.7041 H   0  0  0  0  0  0  0  0  0  0  0  0
  141.9601   79.3501  218.7501 H   0  0  0  0  0  0  0  0  0  0  0  0
  143.2113   78.3393  219.5148 H   0  0  0  0  0  0  0  0  0  0  0  0
  141.5053   77.4660  217.1197 H   0  0  0  0  0  0  0  0  0  0  0  0
  143.1542   78.1706  216.9841 H   0  0  0  0  0  0  0  0  0  0  0  0
  143.0810   75.6565  216.9359 H   0  0  0  0  0  0  0  0  0  0  0  0
  144.0984   76.3864  218.2668 H   0  0  0  0  0  0  0  0  0  0  0  0
  141.5664   74.8809  218.3654 H   0  0  0  0  0  0  0  0  0  0  0  0
  144.5310   76.0677  220.3095 H   0  0  0  0  0  0  0  0  0  0  0  0
  146.1473   74.5934  221.3899 H   0  0  0  0  0  0  0  0  0  0  0  0
  145.9150   72.1329  221.2562 H   0  0  0  0  0  0  0  0  0  0  0  0
  143.9956   71.1824  220.0011 H   0  0  0  0  0  0  0  0  0  0  0  0
  139.2289   70.0231  222.5104 H   0  0  0  0  0  0  0  0  0  0  0  0
  138.6109   68.6786  224.4929 H   0  0  0  0  0  0  0  0  0  0  0  0
  138.7046   68.3312  226.8966 H   0  0  0  0  0  0  0  0  0  0  0  0
  139.5007   69.0860  229.1163 H   0  0  0  0  0  0  0  0  0  0  0  0
  140.8890   71.1491  229.3355 H   0  0  0  0  0  0  0  0  0  0  0  0
  141.4755   72.4561  227.2959 H   0  0  0  0  0  0  0  0  0  0  0  0
  1  2  2  0
  2  3  1  0
  3  4  1  0
  4  5  1  0
  5  6  2  0
  5  7  1  0
  7  8  1  0
  8  9  1  0
  9 10  1  0
 10 11  1  0
 11 12  1  0
 12 13  1  0
 13 14  2  0
 14 15  1  0
 15 16  2  0
 16 17  1  0
 17 18  2  0
 18 19  1  0
  2 20  1  0
 20 21  2  0
 21 22  1  0
 22 23  2  0
 23 24  1  0
 24 25  2  0
 25 26  1  0
 26 27  2  0
 27 28  1  0
 28 29  2  0
 12  7  1  0
 18 13  1  0
 29 20  1  0
 28 23  1  0
  3 30  1  0
  4 31  1  0
  4 32  1  0
  8 33  1  0
  8 34  1  0
  9 35  1  0
  9 36  1  0
 10 37  1  0
 10 38  1  0
 11 39  1  0
 11 40  1  0
 12 41  1  6
 14 42  1  0
 15 43  1  0
 16 44  1  0
 17 45  1  0
 21 46  1  0
 22 47  1  0
 24 48  1  0
 25 49  1  0
 26 50  1  0
 27 51  1  0
M  END
>  <smiles>  (67) 
O=C(NCC(=O)N1CCCCC1c1ccccc1Cl)c1ccc2ccccc2n1

>  <score_type>  (67) 
oracle

>  <origin>  (67) 
autodockgpu

>  <m_score__min__energy>  (67) 
-8.6899999999999995

>  <m_primary>  (67) 
energy

>  <rmsd>  (67) 
2.3138753068589155

>  <m_score__min__rmsd>  (67) 
2.3138753068589155

>  <meeko>  (67) 
{"free_energy": -8.54, "intermolecular_energy": -10.04, "internal_energy": -1.96, "cluster_size": 16, "cluster_id": 2, "rank_in_cluster": 2}

>  <energy>  (67) 
-8.23

>  <cluster_rmsd>  (67) 
0.55

>  <cluster>  (67) 
2

$$$$

     RDKit          3D

 51 54  0  0  0  0  0  0  0  0999 V2000
  140.5760   71.2850  221.2650 O   0  0  0  0  0  0  0  0  0  0  0  0
  140.2320   71.9380  222.2950 C   0  0  0  0  0  0  0  0  0  0  0  0
  139.9090   73.3460  222.1550 N   0  0  0  0  0  0  0  0  0  0  0  0
  139.9400   74.0560  220.9450 C   0  0  0  0  0  0  0  0  0  0  0  0
  140.9940   73.9520  219.9740 C   0  0  0  0  0  0  0  0  0  0  0  0
  140.5890   74.0980  218.7370 O   0  0  0  0  0  0  0  0  0  0  0  0
  142.4000   73.7100  220.1450 N   0  0  0  0  0  0  0  0  0  0  0  0
  142.9450   72.3820  220.0230 C   0  0  0  0  0  0  0  0  0  0  0  0
  144.3930   72.4410  219.5880 C   0  0  0  0  0  0  0  0  0  0  0  0
  145.1250   73.3310  220.5730 C   0  0  0  0  0  0  0  0  0  0  0  0
  144.6430   74.7610  220.4260 C   0  0  0  0  0  0  0  0  0  0  0  0
  143.1770   74.8950  220.4730 C   0  0  1  0  0  0  0  0  0  0  0  0
  142.7940   76.1080  219.7300 C   0  0  0  0  0  0  0  0  0  0  0  0
  142.2050   77.1770  220.4230 C   0  0  0  0  0  0  0  0  0  0  0  0
  141.8320   78.3370  219.8000 C   0  0  0  0  0  0  0  0  0  0  0  0
  142.0180   78.5100  218.4550 C   0  0  0  0  0  0  0  0  0  0  0  0
  142.5910   77.4870  217.7450 C   0  0  0  0  0  0  0  0  0  0  0  0
  142.9690   76.3080  218.3830 C   0  0  0  0  0  0  0  0  0  0  0  0
  143.6790   75.0690  217.3840 Cl  0  0  0  0  0  0  0  0  0  0  0  0
  140.1590   71.2840  223.6090 C   0  0  0  0  0  0  0  0  0  0  0  0
  139.5630   70.0450  223.6870 C   0  0  0  0  0  0  0  0  0  0  0  0
  139.4630   69.3770  224.8880 C   0  0  0  0  0  0  0  0  0  0  0  0
  139.9700   69.9630  226.0370 C   0  0  0  0  0  0  0  0  0  0  0  0
  139.8800   69.3100  227.2550 C   0  0  0  0  0  0  0  0  0  0  0  0
  140.3940   69.9230  228.3740 C   0  0  0  0  0  0  0  0  0  0  0  0
  140.9980   71.1810  228.2940 C   0  0  0  0  0  0  0  0  0  0  0  0
  141.0770   71.8170  227.0620 C   0  0  0  0  0  0  0  0  0  0  0  0
  140.5650   71.2130  225.9320 C   0  0  0  0  0  0  0  0  0  0  0  0
  140.6490   71.8470  224.7260 N   0  0  0  0  0  0  0  0  0  0  0  0
  139.6390   73.7940  223.0860 H   0  0  0  0  0  0  0  0  0  0  0  0
  139.0179   73.7778  220.4136 H   0  0  0  0  0  0  0  0  0  0  0  0
  140.0964   75.0815  221.3109 H   0  0  0  0  0  0  0  0  0  0  0  0
  142.8799   71.8732  220.9961 H   0  0  0  0  0  0  0  0  0  0  0  0
  142.3687   71.8292  219.2665 H   0  0  0  0  0  0  0  0  0  0  0  0
  144.8298   71.4315  219.5965 H   0  0  0  0  0  0  0  0  0  0  0  0
  144.4763   72.8406  218.5665 H   0  0  0  0  0  0  0  0  0  0  0  0
  144.9278   72.9822  221.5974 H   0  0  0  0  0  0  0  0  0  0  0  0
  146.2052   73.2880  220.3696 H   0  0  0  0  0  0  0  0  0  0  0  0
  145.0736   75.3592  221.2426 H   0  0  0  0  0  0  0  0  0  0  0  0
  144.9682   75.1117  219.4354 H   0  0  0  0  0  0  0  0  0  0  0  0
  142.8977   75.0092  221.5308 H   0  0  0  0  0  0  0  0  0  0  0  0
  142.0372   77.0789  221.5057 H   0  0  0  0  0  0  0  0  0  0  0  0
  141.3747   79.1446  220.3905 H   0  0  0  0  0  0  0  0  0  0  0  0
  141.7162   79.4437  217.9579 H   0  0  0  0  0  0  0  0  0  0  0  0
  142.7536   77.5981  216.6628 H   0  0  0  0  0  0  0  0  0  0  0  0
  139.1599   69.5806  222.7749 H   0  0  0  0  0  0  0  0  0  0  0  0
  138.9850   68.3874  224.9344 H   0  0  0  0  0  0  0  0  0  0  0  0
  139.4064   68.3197  227.3262 H   0  0  0  0  0  0  0  0  0  0  0  0
  140.3286   69.4150  229.3475 H   0  0  0  0  0  0  0  0  0  0  0  0
  141.4057   71.6613  229.1957 H   0  0  0  0  0  0  0  0  0  0  0  0
  141.5501   72.8072  226.9866 H   0  0  0  0  0  0  0  0  0  0  0  0
  1  2  2  0
  2  3  1  0
  3  4  1  0
  4  5  1  0
  5  6  2  0
  5  7  1  0
  7  8  1  0
  8  9  1  0
  9 10  1  0
 10 11  1  0
 11 12  1  0
 12 13  1  0
 13 14  2  0
 14 15  1  0
 15 16  2  0
 16 17  1  0
 17 18  2  0
 18 19  1  0
  2 20  1  0
 20 21  2  0
 21 22  1  0
 22 23  2  0
 23 24  1  0
 24 25  2  0
 25 26  1  0
 26 27  2  0
 27 28  1  0
 28 29  2  0
 12  7  1  0
 18 13  1  0
 29 20  1  0
 28 23  1  0
  3 30  1  0
  4 31  1  0
  4 32  1  0
  8 33  1  0
  8 34  1  0
  9 35  1  0
  9 36  1  0
 10 37  1  0
 10 38  1  0
 11 39  1  0
 11 40  1  0
 12 41  1  1
 14 42  1  0
 15 43  1  0
 16 44  1  0
 17 45  1  0
 21 46  1  0
 22 47  1  0
 24 48  1  0
 25 49  1  0
 26 50  1  0
 27 51  1  0
M  END
>  <smiles>  (68) 
O=C(NCC(=O)N1CCCCC1c1ccccc1Cl)c1ccc2ccccc2n1

>  <score_type>  (68) 
oracle

>  <origin>  (68) 
autodockgpu

>  <m_score__min__energy>  (68) 
-8.6899999999999995

>  <m_primary>  (68) 
energy

>  <rmsd>  (68) 
3.0894006104476506

>  <m_score__min__rmsd>  (68) 
3.0894006104476506

>  <meeko>  (68) 
{"free_energy": -8.32, "intermolecular_energy": -9.81, "internal_energy": -1.82, "cluster_size": 13, "cluster_id": 3, "rank_in_cluster": 11}

>  <energy>  (68) 
-8.22

>  <cluster_rmsd>  (68) 
0.48

>  <cluster>  (68) 
2

$$$$

     RDKit          3D

 51 54  0  0  0  0  0  0  0  0999 V2000
  140.6690   76.7070  218.3050 O   0  0  0  0  0  0  0  0  0  0  0  0
  141.8260   76.7860  218.8160 C   0  0  0  0  0  0  0  0  0  0  0  0
  142.3000   78.0780  219.2770 N   0  0  0  0  0  0  0  0  0  0  0  0
  141.5630   79.2700  219.2100 C   0  0  0  0  0  0  0  0  0  0  0  0
  141.0040   79.9390  220.3530 C   0  0  0  0  0  0  0  0  0  0  0  0
  139.7820   80.3720  220.1660 O   0  0  0  0  0  0  0  0  0  0  0  0
  141.5700   80.2080  221.6450 N   0  0  0  0  0  0  0  0  0  0  0  0
  141.8850   81.5550  222.0520 C   0  0  0  0  0  0  0  0  0  0  0  0
  141.8240   81.6820  223.5580 C   0  0  0  0  0  0  0  0  0  0  0  0
  142.7370   80.6210  224.1390 C   0  0  0  0  0  0  0  0  0  0  0  0
  142.1620   79.2450  223.8670 C   0  0  0  0  0  0  0  0  0  0  0  0
  141.8110   79.0240  222.4540 C   0  0  1  0  0  0  0  0  0  0  0  0
  140.7460   78.0080  222.3900 C   0  0  0  0  0  0  0  0  0  0  0  0
  141.0640   76.7100  221.9590 C   0  0  0  0  0  0  0  0  0  0  0  0
  140.1280   75.7140  221.8830 C   0  0  0  0  0  0  0  0  0  0  0  0
  138.8230   75.9400  222.2270 C   0  0  0  0  0  0  0  0  0  0  0  0
  138.4750   77.1960  222.6540 C   0  0  0  0  0  0  0  0  0  0  0  0
  139.4300   78.2070  222.7300 C   0  0  0  0  0  0  0  0  0  0  0  0
  138.8780   79.7680  223.2740 Cl  0  0  0  0  0  0  0  0  0  0  0  0
  142.6750   75.5930  218.9410 C   0  0  0  0  0  0  0  0  0  0  0  0
  142.4150   74.5220  218.1160 C   0  0  0  0  0  0  0  0  0  0  0  0
  143.1730   73.3720  218.1820 C   0  0  0  0  0  0  0  0  0  0  0  0
  144.2130   73.2940  219.0940 C   0  0  0  0  0  0  0  0  0  0  0  0
  144.9880   72.1490  219.1780 C   0  0  0  0  0  0  0  0  0  0  0  0
  146.0110   72.1080  220.0950 C   0  0  0  0  0  0  0  0  0  0  0  0
  146.2730   73.1960  220.9330 C   0  0  0  0  0  0  0  0  0  0  0  0
  145.4840   74.3340  220.8320 C   0  0  0  0  0  0  0  0  0  0  0  0
  144.4540   74.3880  219.9150 C   0  0  0  0  0  0  0  0  0  0  0  0
  143.6850   75.5120  219.8230 N   0  0  0  0  0  0  0  0  0  0  0  0
  143.2870   78.0260  219.6830 H   0  0  0  0  0  0  0  0  0  0  0  0
  142.2279   80.0042  218.7316 H   0  0  0  0  0  0  0  0  0  0  0  0
  140.6493   78.9207  218.7069 H   0  0  0  0  0  0  0  0  0  0  0  0
  142.8985   81.8093  221.7081 H   0  0  0  0  0  0  0  0  0  0  0  0
  141.1498   82.2418  221.6073 H   0  0  0  0  0  0  0  0  0  0  0  0
  142.1656   82.6814  223.8653 H   0  0  0  0  0  0  0  0  0  0  0  0
  140.7933   81.5474  223.9180 H   0  0  0  0  0  0  0  0  0  0  0  0
  143.7309   80.7000  223.6744 H   0  0  0  0  0  0  0  0  0  0  0  0
  142.8232   80.7708  225.2254 H   0  0  0  0  0  0  0  0  0  0  0  0
  142.9070   78.4916  224.1627 H   0  0  0  0  0  0  0  0  0  0  0  0
  141.2318   79.1623  224.4483 H   0  0  0  0  0  0  0  0  0  0  0  0
  142.7138   78.6426  221.9546 H   0  0  0  0  0  0  0  0  0  0  0  0
  142.1020   76.4856  221.6723 H   0  0  0  0  0  0  0  0  0  0  0  0
  140.4304   74.7138  221.5392 H   0  0  0  0  0  0  0  0  0  0  0  0
  138.0741   75.1369  222.1629 H   0  0  0  0  0  0  0  0  0  0  0  0
  137.4336   77.4066  222.9387 H   0  0  0  0  0  0  0  0  0  0  0  0
  141.5890   74.5847  217.3923 H   0  0  0  0  0  0  0  0  0  0  0  0
  142.9539   72.5241  217.5164 H   0  0  0  0  0  0  0  0  0  0  0  0
  144.7884   71.2883  218.5228 H   0  0  0  0  0  0  0  0  0  0  0  0
  146.6337   71.2044  220.1708 H   0  0  0  0  0  0  0  0  0  0  0  0
  147.0942   73.1510  221.6635 H   0  0  0  0  0  0  0  0  0  0  0  0
  145.6807   75.1964  221.4858 H   0  0  0  0  0  0  0  0  0  0  0  0
  1  2  2  0
  2  3  1  0
  3  4  1  0
  4  5  1  0
  5  6  2  0
  5  7  1  0
  7  8  1  0
  8  9  1  0
  9 10  1  0
 10 11  1  0
 11 12  1  0
 12 13  1  0
 13 14  2  0
 14 15  1  0
 15 16  2  0
 16 17  1  0
 17 18  2  0
 18 19  1  0
  2 20  1  0
 20 21  2  0
 21 22  1  0
 22 23  2  0
 23 24  1  0
 24 25  2  0
 25 26  1  0
 26 27  2  0
 27 28  1  0
 28 29  2  0
 12  7  1  0
 18 13  1  0
 29 20  1  0
 28 23  1  0
  3 30  1  0
  4 31  1  0
  4 32  1  0
  8 33  1  0
  8 34  1  0
  9 35  1  0
  9 36  1  0
 10 37  1  0
 10 38  1  0
 11 39  1  0
 11 40  1  0
 12 41  1  6
 14 42  1  0
 15 43  1  0
 16 44  1  0
 17 45  1  0
 21 46  1  0
 22 47  1  0
 24 48  1  0
 25 49  1  0
 26 50  1  0
 27 51  1  0
M  END
>  <smiles>  (69) 
O=C(NCC(=O)N1CCCCC1c1ccccc1Cl)c1ccc2ccccc2n1

>  <score_type>  (69) 
oracle

>  <origin>  (69) 
autodockgpu

>  <m_score__min__energy>  (69) 
-8.6899999999999995

>  <m_primary>  (69) 
energy

>  <rmsd>  (69) 
7.714340672261721

>  <m_score__min__rmsd>  (69) 
7.714340672261721

>  <meeko>  (69) 
{"free_energy": -7.8, "intermolecular_energy": -9.29, "internal_energy": -2.48, "cluster_size": 12, "cluster_id": 4, "rank_in_cluster": 9}

>  <energy>  (69) 
-8.05

>  <cluster_rmsd>  (69) 
0.73

>  <cluster>  (69) 
2

$$$$

     RDKit          3D

 51 54  0  0  0  0  0  0  0  0999 V2000
  140.7830   76.7270  218.0170 O   0  0  0  0  0  0  0  0  0  0  0  0
  141.8580   76.7790  218.6860 C   0  0  0  0  0  0  0  0  0  0  0  0
  142.2410   78.0370  219.2970 N   0  0  0  0  0  0  0  0  0  0  0  0
  141.4980   79.2250  219.2130 C   0  0  0  0  0  0  0  0  0  0  0  0
  140.9750   79.9310  220.3510 C   0  0  0  0  0  0  0  0  0  0  0  0
  139.7720   80.4140  220.1650 O   0  0  0  0  0  0  0  0  0  0  0  0
  141.5590   80.1900  221.6370 N   0  0  0  0  0  0  0  0  0  0  0  0
  141.8690   81.5350  222.0550 C   0  0  0  0  0  0  0  0  0  0  0  0
  141.8300   81.6440  223.5630 C   0  0  0  0  0  0  0  0  0  0  0  0
  142.7610   80.5840  224.1180 C   0  0  0  0  0  0  0  0  0  0  0  0
  142.1930   79.2070  223.8390 C   0  0  0  0  0  0  0  0  0  0  0  0
  141.8220   78.9990  222.4290 C   0  0  1  0  0  0  0  0  0  0  0  0
  140.7650   77.9740  222.3700 C   0  0  0  0  0  0  0  0  0  0  0  0
  141.0840   76.6880  221.9070 C   0  0  0  0  0  0  0  0  0  0  0  0
  140.1550   75.6850  221.8330 C   0  0  0  0  0  0  0  0  0  0  0  0
  138.8560   75.8930  222.2110 C   0  0  0  0  0  0  0  0  0  0  0  0
  138.5070   77.1380  222.6680 C   0  0  0  0  0  0  0  0  0  0  0  0
  139.4550   78.1560  222.7420 C   0  0  0  0  0  0  0  0  0  0  0  0
  138.9020   79.7010  223.3280 Cl  0  0  0  0  0  0  0  0  0  0  0  0
  142.7040   75.5870  218.8410 C   0  0  0  0  0  0  0  0  0  0  0  0
  142.4620   74.5070  218.0210 C   0  0  0  0  0  0  0  0  0  0  0  0
  143.2190   73.3590  218.1150 C   0  0  0  0  0  0  0  0  0  0  0  0
  144.2390   73.2890  219.0500 C   0  0  0  0  0  0  0  0  0  0  0  0
  145.0120   72.1460  219.1620 C   0  0  0  0  0  0  0  0  0  0  0  0
  146.0150   72.1140  220.1020 C   0  0  0  0  0  0  0  0  0  0  0  0
  146.2590   73.2110  220.9340 C   0  0  0  0  0  0  0  0  0  0  0  0
  145.4710   74.3480  220.8040 C   0  0  0  0  0  0  0  0  0  0  0  0
  144.4620   74.3920  219.8650 C   0  0  0  0  0  0  0  0  0  0  0  0
  143.6950   75.5150  219.7460 N   0  0  0  0  0  0  0  0  0  0  0  0
  143.1650   77.9650  219.8280 H   0  0  0  0  0  0  0  0  0  0  0  0
  142.1444   79.9438  218.6881 H   0  0  0  0  0  0  0  0  0  0  0  0
  140.5695   78.8574  218.7517 H   0  0  0  0  0  0  0  0  0  0  0  0
  142.8749   81.8019  221.6988 H   0  0  0  0  0  0  0  0  0  0  0  0
  141.1214   82.2207  221.6296 H   0  0  0  0  0  0  0  0  0  0  0  0
  142.1678   82.6427  223.8767 H   0  0  0  0  0  0  0  0  0  0  0  0
  140.8061   81.4962  223.9369 H   0  0  0  0  0  0  0  0  0  0  0  0
  143.7469   80.6765  223.6391 H   0  0  0  0  0  0  0  0  0  0  0  0
  142.8631   80.7222  225.2045 H   0  0  0  0  0  0  0  0  0  0  0  0
  142.9484   78.4564  224.1146 H   0  0  0  0  0  0  0  0  0  0  0  0
  141.2724   79.1103  224.4333 H   0  0  0  0  0  0  0  0  0  0  0  0
  142.7201   78.6313  221.9110 H   0  0  0  0  0  0  0  0  0  0  0  0
  142.1170   76.4785  221.5924 H   0  0  0  0  0  0  0  0  0  0  0  0
  140.4579   74.6943  221.4632 H   0  0  0  0  0  0  0  0  0  0  0  0
  138.1129   75.0843  222.1499 H   0  0  0  0  0  0  0  0  0  0  0  0
  137.4702   77.3343  222.9786 H   0  0  0  0  0  0  0  0  0  0  0  0
  141.6516   74.5616  217.2792 H   0  0  0  0  0  0  0  0  0  0  0  0
  143.0148   72.5048  217.4527 H   0  0  0  0  0  0  0  0  0  0  0  0
  144.8271   71.2790  218.5107 H   0  0  0  0  0  0  0  0  0  0  0  0
  146.6353   71.2110  220.2011 H   0  0  0  0  0  0  0  0  0  0  0  0
  147.0647   73.1743  221.6820 H   0  0  0  0  0  0  0  0  0  0  0  0
  145.6529   75.2172  221.4532 H   0  0  0  0  0  0  0  0  0  0  0  0
  1  2  2  0
  2  3  1  0
  3  4  1  0
  4  5  1  0
  5  6  2  0
  5  7  1  0
  7  8  1  0
  8  9  1  0
  9 10  1  0
 10 11  1  0
 11 12  1  0
 12 13  1  0
 13 14  2  0
 14 15  1  0
 15 16  2  0
 16 17  1  0
 17 18  2  0
 18 19  1  0
  2 20  1  0
 20 21  2  0
 21 22  1  0
 22 23  2  0
 23 24  1  0
 24 25  2  0
 25 26  1  0
 26 27  2  0
 27 28  1  0
 28 29  2  0
 12  7  1  0
 18 13  1  0
 29 20  1  0
 28 23  1  0
  3 30  1  0
  4 31  1  0
  4 32  1  0
  8 33  1  0
  8 34  1  0
  9 35  1  0
  9 36  1  0
 10 37  1  0
 10 38  1  0
 11 39  1  0
 11 40  1  0
 12 41  1  6
 14 42  1  0
 15 43  1  0
 16 44  1  0
 17 45  1  0
 21 46  1  0
 22 47  1  0
 24 48  1  0
 25 49  1  0
 26 50  1  0
 27 51  1  0
M  END
>  <smiles>  (70) 
O=C(NCC(=O)N1CCCCC1c1ccccc1Cl)c1ccc2ccccc2n1

>  <score_type>  (70) 
oracle

>  <origin>  (70) 
autodockgpu

>  <m_score__min__energy>  (70) 
-8.6899999999999995

>  <m_primary>  (70) 
energy

>  <rmsd>  (70) 
7.7155186999883645

>  <m_score__min__rmsd>  (70) 
7.7155186999883645

>  <meeko>  (70) 
{"free_energy": -7.81, "intermolecular_energy": -9.3, "internal_energy": -2.48, "cluster_size": 12, "cluster_id": 4, "rank_in_cluster": 7}

>  <energy>  (70) 
-8.52

>  <cluster_rmsd>  (70) 
0.0

>  <cluster>  (70) 
3

$$$$

     RDKit          3D

 51 54  0  0  0  0  0  0  0  0999 V2000
  138.8260   75.5970  221.4940 O   0  0  0  0  0  0  0  0  0  0  0  0
  139.9870   75.9600  221.8490 C   0  0  0  0  0  0  0  0  0  0  0  0
  141.0810   75.0140  221.7340 N   0  0  0  0  0  0  0  0  0  0  0  0
  140.9570   73.7050  221.2440 C   0  0  0  0  0  0  0  0  0  0  0  0
  141.8440   73.1180  220.2760 C   0  0  0  0  0  0  0  0  0  0  0  0
  141.2390   72.6980  219.1930 O   0  0  0  0  0  0  0  0  0  0  0  0
  143.2650   72.9190  220.3140 N   0  0  0  0  0  0  0  0  0  0  0  0
  143.8290   71.5920  220.3300 C   0  0  0  0  0  0  0  0  0  0  0  0
  145.2140   71.5970  219.7220 C   0  0  0  0  0  0  0  0  0  0  0  0
  146.0310   72.6350  220.4660 C   0  0  0  0  0  0  0  0  0  0  0  0
  145.4970   74.0210  220.1630 C   0  0  0  0  0  0  0  0  0  0  0  0
  144.0430   74.1470  220.3640 C   0  0  1  0  0  0  0  0  0  0  0  0
  143.5430   75.2280  219.4960 C   0  0  0  0  0  0  0  0  0  0  0  0
  143.0720   76.4130  220.0830 C   0  0  0  0  0  0  0  0  0  0  0  0
  142.6010   77.4620  219.3390 C   0  0  0  0  0  0  0  0  0  0  0  0
  142.5680   77.4020  217.9720 C   0  0  0  0  0  0  0  0  0  0  0  0
  143.0210   76.2600  217.3640 C   0  0  0  0  0  0  0  0  0  0  0  0
  143.4990   75.1950  218.1240 C   0  0  0  0  0  0  0  0  0  0  0  0
  144.0400   73.7870  217.2490 Cl  0  0  0  0  0  0  0  0  0  0  0  0
  140.2240   77.3140  222.3670 C   0  0  0  0  0  0  0  0  0  0  0  0
  139.1320   78.0780  222.7130 C   0  0  0  0  0  0  0  0  0  0  0  0
  139.2840   79.3570  223.2050 C   0  0  0  0  0  0  0  0  0  0  0  0
  140.5580   79.8820  223.3530 C   0  0  0  0  0  0  0  0  0  0  0  0
  140.7350   81.1640  223.8460 C   0  0  0  0  0  0  0  0  0  0  0  0
  142.0140   81.6510  223.9790 C   0  0  0  0  0  0  0  0  0  0  0  0
  143.1220   80.8750  223.6260 C   0  0  0  0  0  0  0  0  0  0  0  0
  142.9210   79.5920  223.1340 C   0  0  0  0  0  0  0  0  0  0  0  0
  141.6420   79.0920  222.9960 C   0  0  0  0  0  0  0  0  0  0  0  0
  141.4560   77.8290  222.5130 N   0  0  0  0  0  0  0  0  0  0  0  0
  142.0080   75.4250  222.0660 H   0  0  0  0  0  0  0  0  0  0  0  0
  141.0057   73.0510  222.1271 H   0  0  0  0  0  0  0  0  0  0  0  0
  140.0330   73.7911  220.6534 H   0  0  0  0  0  0  0  0  0  0  0  0
  143.8914   71.2378  221.3696 H   0  0  0  0  0  0  0  0  0  0  0  0
  143.1840   70.9245  219.7397 H   0  0  0  0  0  0  0  0  0  0  0  0
  145.6765   70.6050  219.8316 H   0  0  0  0  0  0  0  0  0  0  0  0
  145.1668   71.8353  218.6492 H   0  0  0  0  0  0  0  0  0  0  0  0
  145.9641   72.4461  221.5476 H   0  0  0  0  0  0  0  0  0  0  0  0
  147.0807   72.5712  220.1433 H   0  0  0  0  0  0  0  0  0  0  0  0
  146.0034   74.7412  220.8224 H   0  0  0  0  0  0  0  0  0  0  0  0
  145.6951   74.2189  219.0992 H   0  0  0  0  0  0  0  0  0  0  0  0
  143.8865   74.4193  221.4182 H   0  0  0  0  0  0  0  0  0  0  0  0
  143.0816   76.5022  221.1793 H   0  0  0  0  0  0  0  0  0  0  0  0
  142.2430   78.3685  219.8490 H   0  0  0  0  0  0  0  0  0  0  0  0
  142.1886   78.2465  217.3779 H   0  0  0  0  0  0  0  0  0  0  0  0
  143.0069   76.1840  216.2667 H   0  0  0  0  0  0  0  0  0  0  0  0
  138.1211   77.6608  222.5949 H   0  0  0  0  0  0  0  0  0  0  0  0
  138.4021   79.9553  223.4776 H   0  0  0  0  0  0  0  0  0  0  0  0
  139.8686   81.7812  224.1260 H   0  0  0  0  0  0  0  0  0  0  0  0
  142.1679   82.6678  224.3695 H   0  0  0  0  0  0  0  0  0  0  0  0
  144.1404   81.2757  223.7366 H   0  0  0  0  0  0  0  0  0  0  0  0
  143.7848   78.9716  222.8531 H   0  0  0  0  0  0  0  0  0  0  0  0
  1  2  2  0
  2  3  1  0
  3  4  1  0
  4  5  1  0
  5  6  2  0
  5  7  1  0
  7  8  1  0
  8  9  1  0
  9 10  1  0
 10 11  1  0
 11 12  1  0
 12 13  1  0
 13 14  2  0
 14 15  1  0
 15 16  2  0
 16 17  1  0
 17 18  2  0
 18 19  1  0
  2 20  1  0
 20 21  2  0
 21 22  1  0
 22 23  2  0
 23 24  1  0
 24 25  2  0
 25 26  1  0
 26 27  2  0
 27 28  1  0
 28 29  2  0
 12  7  1  0
 18 13  1  0
 29 20  1  0
 28 23  1  0
  3 30  1  0
  4 31  1  0
  4 32  1  0
  8 33  1  0
  8 34  1  0
  9 35  1  0
  9 36  1  0
 10 37  1  0
 10 38  1  0
 11 39  1  0
 11 40  1  0
 12 41  1  1
 14 42  1  0
 15 43  1  0
 16 44  1  0
 17 45  1  0
 21 46  1  0
 22 47  1  0
 24 48  1  0
 25 49  1  0
 26 50  1  0
 27 51  1  0
M  END
>  <smiles>  (71) 
O=C(NCC(=O)N1CCCCC1c1ccccc1Cl)c1ccc2ccccc2n1

>  <score_type>  (71) 
oracle

>  <origin>  (71) 
autodockgpu

>  <m_score__min__energy>  (71) 
-8.6899999999999995

>  <m_primary>  (71) 
energy

>  <rmsd>  (71) 
7.838043668856907

>  <m_score__min__rmsd>  (71) 
7.838043668856907

>  <meeko>  (71) 
{"free_energy": -7.7, "intermolecular_energy": -9.2, "internal_energy": -2.41, "cluster_size": 6, "cluster_id": 5, "rank_in_cluster": 4}

>  <energy>  (71) 
-8.47

>  <cluster_rmsd>  (71) 
1.29

>  <cluster>  (71) 
3

$$$$

     RDKit          3D

 51 54  0  0  0  0  0  0  0  0999 V2000
  138.7890   75.6000  221.5780 O   0  0  0  0  0  0  0  0  0  0  0  0
  139.9680   75.9720  221.8580 C   0  0  0  0  0  0  0  0  0  0  0  0
  141.0600   75.0380  221.6660 N   0  0  0  0  0  0  0  0  0  0  0  0
  140.9170   73.7300  221.1760 C   0  0  0  0  0  0  0  0  0  0  0  0
  141.8260   73.1110  220.2510 C   0  0  0  0  0  0  0  0  0  0  0  0
  141.2420   72.6130  219.1890 O   0  0  0  0  0  0  0  0  0  0  0  0
  143.2520   72.9500  220.3110 N   0  0  0  0  0  0  0  0  0  0  0  0
  143.8520   71.6390  220.3340 C   0  0  0  0  0  0  0  0  0  0  0  0
  145.2460   71.6820  219.7480 C   0  0  0  0  0  0  0  0  0  0  0  0
  146.0220   72.7400  220.5070 C   0  0  0  0  0  0  0  0  0  0  0  0
  145.4550   74.1120  220.1970 C   0  0  0  0  0  0  0  0  0  0  0  0
  143.9950   74.1980  220.3750 C   0  0  1  0  0  0  0  0  0  0  0  0
  143.4810   75.2670  219.5010 C   0  0  0  0  0  0  0  0  0  0  0  0
  143.0430   76.4700  220.0780 C   0  0  0  0  0  0  0  0  0  0  0  0
  142.5610   77.5090  219.3280 C   0  0  0  0  0  0  0  0  0  0  0  0
  142.4820   77.4210  217.9640 C   0  0  0  0  0  0  0  0  0  0  0  0
  142.9010   76.2610  217.3650 C   0  0  0  0  0  0  0  0  0  0  0  0
  143.3910   75.2060  218.1320 C   0  0  0  0  0  0  0  0  0  0  0  0
  143.8860   73.7740  217.2710 Cl  0  0  0  0  0  0  0  0  0  0  0  0
  140.2250   77.3250  222.3690 C   0  0  0  0  0  0  0  0  0  0  0  0
  139.1450   78.1060  222.7170 C   0  0  0  0  0  0  0  0  0  0  0  0
  139.3180   79.3850  223.2020 C   0  0  0  0  0  0  0  0  0  0  0  0
  140.5990   79.8930  223.3420 C   0  0  0  0  0  0  0  0  0  0  0  0
  140.7970   81.1750  223.8280 C   0  0  0  0  0  0  0  0  0  0  0  0
  142.0820   81.6440  223.9540 C   0  0  0  0  0  0  0  0  0  0  0  0
  143.1780   80.8510  223.6000 C   0  0  0  0  0  0  0  0  0  0  0  0
  142.9570   79.5690  223.1150 C   0  0  0  0  0  0  0  0  0  0  0  0
  141.6710   79.0860  222.9850 C   0  0  0  0  0  0  0  0  0  0  0  0
  141.4660   77.8230  222.5080 N   0  0  0  0  0  0  0  0  0  0  0  0
  142.0040   75.4560  221.9390 H   0  0  0  0  0  0  0  0  0  0  0  0
  140.9067   73.0796  222.0631 H   0  0  0  0  0  0  0  0  0  0  0  0
  140.0230   73.8415  220.5449 H   0  0  0  0  0  0  0  0  0  0  0  0
  143.9076   71.2849  221.3740 H   0  0  0  0  0  0  0  0  0  0  0  0
  143.2349   70.9556  219.7323 H   0  0  0  0  0  0  0  0  0  0  0  0
  145.7332   70.7026  219.8635 H   0  0  0  0  0  0  0  0  0  0  0  0
  145.2099   71.9206  218.6748 H   0  0  0  0  0  0  0  0  0  0  0  0
  145.9424   72.5472  221.5870 H   0  0  0  0  0  0  0  0  0  0  0  0
  147.0783   72.7054  220.2020 H   0  0  0  0  0  0  0  0  0  0  0  0
  145.9311   74.8447  220.8653 H   0  0  0  0  0  0  0  0  0  0  0  0
  145.6645   74.3169  219.1368 H   0  0  0  0  0  0  0  0  0  0  0  0
  143.8131   74.4634  221.4269 H   0  0  0  0  0  0  0  0  0  0  0  0
  143.0888   76.5815  221.1714 H   0  0  0  0  0  0  0  0  0  0  0  0
  142.2315   78.4306  219.8301 H   0  0  0  0  0  0  0  0  0  0  0  0
  142.0931   78.2578  217.3652 H   0  0  0  0  0  0  0  0  0  0  0  0
  142.8499   76.1625  216.2706 H   0  0  0  0  0  0  0  0  0  0  0  0
  138.1277   77.7026  222.6061 H   0  0  0  0  0  0  0  0  0  0  0  0
  138.4458   79.9970  223.4755 H   0  0  0  0  0  0  0  0  0  0  0  0
  139.9407   81.8061  224.1080 H   0  0  0  0  0  0  0  0  0  0  0  0
  142.2516   82.6601  224.3397 H   0  0  0  0  0  0  0  0  0  0  0  0
  144.2023   81.2380  223.7045 H   0  0  0  0  0  0  0  0  0  0  0  0
  143.8109   78.9355  222.8331 H   0  0  0  0  0  0  0  0  0  0  0  0
  1  2  2  0
  2  3  1  0
  3  4  1  0
  4  5  1  0
  5  6  2  0
  5  7  1  0
  7  8  1  0
  8  9  1  0
  9 10  1  0
 10 11  1  0
 11 12  1  0
 12 13  1  0
 13 14  2  0
 14 15  1  0
 15 16  2  0
 16 17  1  0
 17 18  2  0
 18 19  1  0
  2 20  1  0
 20 21  2  0
 21 22  1  0
 22 23  2  0
 23 24  1  0
 24 25  2  0
 25 26  1  0
 26 27  2  0
 27 28  1  0
 28 29  2  0
 12  7  1  0
 18 13  1  0
 29 20  1  0
 28 23  1  0
  3 30  1  0
  4 31  1  0
  4 32  1  0
  8 33  1  0
  8 34  1  0
  9 35  1  0
  9 36  1  0
 10 37  1  0
 10 38  1  0
 11 39  1  0
 11 40  1  0
 12 41  1  1
 14 42  1  0
 15 43  1  0
 16 44  1  0
 17 45  1  0
 21 46  1  0
 22 47  1  0
 24 48  1  0
 25 49  1  0
 26 50  1  0
 27 51  1  0
M  END
>  <smiles>  (72) 
O=C(NCC(=O)N1CCCCC1c1ccccc1Cl)c1ccc2ccccc2n1

>  <score_type>  (72) 
oracle

>  <origin>  (72) 
autodockgpu

>  <m_score__min__energy>  (72) 
-8.6899999999999995

>  <m_primary>  (72) 
energy

>  <rmsd>  (72) 
7.836743602342472

>  <m_score__min__rmsd>  (72) 
7.836743602342472

>  <meeko>  (72) 
{"free_energy": -7.72, "intermolecular_energy": -9.21, "internal_energy": -2.43, "cluster_size": 6, "cluster_id": 5, "rank_in_cluster": 3}

>  <energy>  (72) 
-8.47

>  <cluster_rmsd>  (72) 
1.32

>  <cluster>  (72) 
3

$$$$

     RDKit          3D

 51 54  0  0  0  0  0  0  0  0999 V2000
  140.1640   71.1860  221.2210 O   0  0  0  0  0  0  0  0  0  0  0  0
  139.9830   71.8690  222.2730 C   0  0  0  0  0  0  0  0  0  0  0  0
  139.7430   73.2940  222.1490 N   0  0  0  0  0  0  0  0  0  0  0  0
  139.6850   73.9920  220.9320 C   0  0  0  0  0  0  0  0  0  0  0  0
  140.7520   74.0250  219.9700 C   0  0  0  0  0  0  0  0  0  0  0  0
  140.3730   74.4020  218.7740 O   0  0  0  0  0  0  0  0  0  0  0  0
  142.1470   73.7110  220.1110 N   0  0  0  0  0  0  0  0  0  0  0  0
  142.6300   72.3690  219.9050 C   0  0  0  0  0  0  0  0  0  0  0  0
  144.0750   72.3880  219.4580 C   0  0  0  0  0  0  0  0  0  0  0  0
  144.8550   73.1850  220.4850 C   0  0  0  0  0  0  0  0  0  0  0  0
  144.4380   74.6410  220.4270 C   0  0  0  0  0  0  0  0  0  0  0  0
  142.9800   74.8380  220.4990 C   0  0  1  0  0  0  0  0  0  0  0  0
  142.6470   76.1090  219.8320 C   0  0  0  0  0  0  0  0  0  0  0  0
  143.1980   76.3850  218.5710 C   0  0  0  0  0  0  0  0  0  0  0  0
  142.9260   77.5410  217.8900 C   0  0  0  0  0  0  0  0  0  0  0  0
  142.0940   78.4930  218.4140 C   0  0  0  0  0  0  0  0  0  0  0  0
  141.5360   78.2580  219.6440 C   0  0  0  0  0  0  0  0  0  0  0  0
  141.8160   77.0800  220.3340 C   0  0  0  0  0  0  0  0  0  0  0  0
  141.0620   76.8880  221.8940 Cl  0  0  0  0  0  0  0  0  0  0  0  0
  140.0150   71.2310  223.5960 C   0  0  0  0  0  0  0  0  0  0  0  0
  139.5290   69.9470  223.7120 C   0  0  0  0  0  0  0  0  0  0  0  0
  139.5300   69.2920  224.9240 C   0  0  0  0  0  0  0  0  0  0  0  0
  140.0280   69.9350  226.0460 C   0  0  0  0  0  0  0  0  0  0  0  0
  140.0390   69.2960  227.2740 C   0  0  0  0  0  0  0  0  0  0  0  0
  140.5400   69.9660  228.3650 C   0  0  0  0  0  0  0  0  0  0  0  0
  141.0330   71.2700  228.2470 C   0  0  0  0  0  0  0  0  0  0  0  0
  141.0120   71.8910  227.0050 C   0  0  0  0  0  0  0  0  0  0  0  0
  140.5110   71.2290  225.9030 C   0  0  0  0  0  0  0  0  0  0  0  0
  140.4970   71.8500  224.6870 N   0  0  0  0  0  0  0  0  0  0  0  0
  139.6120   73.7670  223.0970 H   0  0  0  0  0  0  0  0  0  0  0  0
  138.8143   73.5851  220.3968 H   0  0  0  0  0  0  0  0  0  0  0  0
  139.6945   75.0325  221.2886 H   0  0  0  0  0  0  0  0  0  0  0  0
  142.5501   71.8070  220.8472 H   0  0  0  0  0  0  0  0  0  0  0  0
  142.0226   71.8886  219.1238 H   0  0  0  0  0  0  0  0  0  0  0  0
  144.4654   71.3611  219.4030 H   0  0  0  0  0  0  0  0  0  0  0  0
  144.1678   72.8424  218.4605 H   0  0  0  0  0  0  0  0  0  0  0  0
  144.6505   72.7860  221.4895 H   0  0  0  0  0  0  0  0  0  0  0  0
  145.9303   73.1054  220.2673 H   0  0  0  0  0  0  0  0  0  0  0  0
  144.9030   75.1702  221.2718 H   0  0  0  0  0  0  0  0  0  0  0  0
  144.7700   75.0341  219.4548 H   0  0  0  0  0  0  0  0  0  0  0  0
  142.7151   74.9021  221.5647 H   0  0  0  0  0  0  0  0  0  0  0  0
  143.8724   75.6461  218.1136 H   0  0  0  0  0  0  0  0  0  0  0  0
  143.3843   77.7077  216.9040 H   0  0  0  0  0  0  0  0  0  0  0  0
  141.8790   79.4208  217.8636 H   0  0  0  0  0  0  0  0  0  0  0  0
  140.8623   79.0047  220.0896 H   0  0  0  0  0  0  0  0  0  0  0  0
  139.1335   69.4362  222.8217 H   0  0  0  0  0  0  0  0  0  0  0  0
  139.1386   68.2668  225.0005 H   0  0  0  0  0  0  0  0  0  0  0  0
  139.6538   68.2706  227.3750 H   0  0  0  0  0  0  0  0  0  0  0  0
  140.5534   69.4690  229.3462 H   0  0  0  0  0  0  0  0  0  0  0  0
  141.4321   71.7965  229.1265 H   0  0  0  0  0  0  0  0  0  0  0  0
  141.3968   72.9161  226.8993 H   0  0  0  0  0  0  0  0  0  0  0  0
  1  2  2  0
  2  3  1  0
  3  4  1  0
  4  5  1  0
  5  6  2  0
  5  7  1  0
  7  8  1  0
  8  9  1  0
  9 10  1  0
 10 11  1  0
 11 12  1  0
 12 13  1  0
 13 14  2  0
 14 15  1  0
 15 16  2  0
 16 17  1  0
 17 18  2  0
 18 19  1  0
  2 20  1  0
 20 21  2  0
 21 22  1  0
 22 23  2  0
 23 24  1  0
 24 25  2  0
 25 26  1  0
 26 27  2  0
 27 28  1  0
 28 29  2  0
 12  7  1  0
 18 13  1  0
 29 20  1  0
 28 23  1  0
  3 30  1  0
  4 31  1  0
  4 32  1  0
  8 33  1  0
  8 34  1  0
  9 35  1  0
  9 36  1  0
 10 37  1  0
 10 38  1  0
 11 39  1  0
 11 40  1  0
 12 41  1  1
 14 42  1  0
 15 43  1  0
 16 44  1  0
 17 45  1  0
 21 46  1  0
 22 47  1  0
 24 48  1  0
 25 49  1  0
 26 50  1  0
 27 51  1  0
M  END
>  <smiles>  (73) 
O=C(NCC(=O)N1CCCCC1c1ccccc1Cl)c1ccc2ccccc2n1

>  <score_type>  (73) 
oracle

>  <origin>  (73) 
autodockgpu

>  <m_score__min__energy>  (73) 
-8.6899999999999995

>  <m_primary>  (73) 
energy

>  <rmsd>  (73) 
2.9545573210568046

>  <m_score__min__rmsd>  (73) 
2.9545573210568046

>  <meeko>  (73) 
{"free_energy": -8.44, "intermolecular_energy": -9.93, "internal_energy": -1.97, "cluster_size": 13, "cluster_id": 3, "rank_in_cluster": 7}

>  <energy>  (73) 
-8.46

>  <cluster_rmsd>  (73) 
1.33

>  <cluster>  (73) 
3

$$$$

     RDKit          3D

 51 54  0  0  0  0  0  0  0  0999 V2000
  140.7110   76.6520  218.2530 O   0  0  0  0  0  0  0  0  0  0  0  0
  141.8600   76.7290  218.7820 C   0  0  0  0  0  0  0  0  0  0  0  0
  142.3240   78.0170  219.2620 N   0  0  0  0  0  0  0  0  0  0  0  0
  141.5850   79.2080  219.1950 C   0  0  0  0  0  0  0  0  0  0  0  0
  141.0120   79.8680  220.3360 C   0  0  0  0  0  0  0  0  0  0  0  0
  139.7790   80.2710  220.1490 O   0  0  0  0  0  0  0  0  0  0  0  0
  141.5720   80.1540  221.6270 N   0  0  0  0  0  0  0  0  0  0  0  0
  141.8750   81.5070  222.0220 C   0  0  0  0  0  0  0  0  0  0  0  0
  141.8090   81.6490  223.5260 C   0  0  0  0  0  0  0  0  0  0  0  0
  142.7290   80.6010  224.1200 C   0  0  0  0  0  0  0  0  0  0  0  0
  142.1660   79.2180  223.8600 C   0  0  0  0  0  0  0  0  0  0  0  0
  141.8200   78.9800  222.4480 C   0  0  1  0  0  0  0  0  0  0  0  0
  140.7640   77.9540  222.3920 C   0  0  0  0  0  0  0  0  0  0  0  0
  141.0890   76.6600  221.9560 C   0  0  0  0  0  0  0  0  0  0  0  0
  140.1610   75.6560  221.8860 C   0  0  0  0  0  0  0  0  0  0  0  0
  138.8570   75.8700  222.2420 C   0  0  0  0  0  0  0  0  0  0  0  0
  138.5020   77.1230  222.6730 C   0  0  0  0  0  0  0  0  0  0  0  0
  139.4490   78.1420  222.7420 C   0  0  0  0  0  0  0  0  0  0  0  0
  138.8880   79.6970  223.2940 Cl  0  0  0  0  0  0  0  0  0  0  0  0
  142.7090   75.5370  218.9090 C   0  0  0  0  0  0  0  0  0  0  0  0
  142.4690   74.4740  218.0660 C   0  0  0  0  0  0  0  0  0  0  0  0
  143.2290   73.3260  218.1320 C   0  0  0  0  0  0  0  0  0  0  0  0
  144.2510   73.2390  219.0630 C   0  0  0  0  0  0  0  0  0  0  0  0
  145.0280   72.0960  219.1480 C   0  0  0  0  0  0  0  0  0  0  0  0
  146.0330   72.0460  220.0840 C   0  0  0  0  0  0  0  0  0  0  0  0
  146.2760   73.1250  220.9400 C   0  0  0  0  0  0  0  0  0  0  0  0
  145.4850   74.2620  220.8370 C   0  0  0  0  0  0  0  0  0  0  0  0
  144.4730   74.3240  219.9020 C   0  0  0  0  0  0  0  0  0  0  0  0
  143.7030   75.4470  219.8090 N   0  0  0  0  0  0  0  0  0  0  0  0
  143.3040   77.9640  219.6820 H   0  0  0  0  0  0  0  0  0  0  0  0
  142.2535   79.9468  218.7289 H   0  0  0  0  0  0  0  0  0  0  0  0
  140.6776   78.8601  218.6796 H   0  0  0  0  0  0  0  0  0  0  0  0
  142.8874   81.7660  221.6784 H   0  0  0  0  0  0  0  0  0  0  0  0
  141.1351   82.1832  221.5688 H   0  0  0  0  0  0  0  0  0  0  0  0
  142.1420   82.6542  223.8239 H   0  0  0  0  0  0  0  0  0  0  0  0
  140.7785   81.5101  223.8848 H   0  0  0  0  0  0  0  0  0  0  0  0
  143.7236   80.6835  223.6573 H   0  0  0  0  0  0  0  0  0  0  0  0
  142.8109   80.7621  225.2051 H   0  0  0  0  0  0  0  0  0  0  0  0
  142.9164   78.4737  224.1648 H   0  0  0  0  0  0  0  0  0  0  0  0
  141.2350   79.1336  224.4398 H   0  0  0  0  0  0  0  0  0  0  0  0
  142.7266   78.6011  221.9536 H   0  0  0  0  0  0  0  0  0  0  0  0
  142.1264   76.4450  221.6600 H   0  0  0  0  0  0  0  0  0  0  0  0
  140.4690   74.6592  221.5373 H   0  0  0  0  0  0  0  0  0  0  0  0
  138.1147   75.0603  222.1842 H   0  0  0  0  0  0  0  0  0  0  0  0
  137.4612   77.3246  222.9664 H   0  0  0  0  0  0  0  0  0  0  0  0
  141.6567   74.5427  217.3274 H   0  0  0  0  0  0  0  0  0  0  0  0
  143.0257   72.4862  217.4513 H   0  0  0  0  0  0  0  0  0  0  0  0
  144.8441   71.2431  218.4781 H   0  0  0  0  0  0  0  0  0  0  0  0
  146.6563   71.1429  220.1612 H   0  0  0  0  0  0  0  0  0  0  0  0
  147.0833   73.0738  221.6854 H   0  0  0  0  0  0  0  0  0  0  0  0
  145.6666   75.1173  221.5045 H   0  0  0  0  0  0  0  0  0  0  0  0
  1  2  2  0
  2  3  1  0
  3  4  1  0
  4  5  1  0
  5  6  2  0
  5  7  1  0
  7  8  1  0
  8  9  1  0
  9 10  1  0
 10 11  1  0
 11 12  1  0
 12 13  1  0
 13 14  2  0
 14 15  1  0
 15 16  2  0
 16 17  1  0
 17 18  2  0
 18 19  1  0
  2 20  1  0
 20 21  2  0
 21 22  1  0
 22 23  2  0
 23 24  1  0
 24 25  2  0
 25 26  1  0
 26 27  2  0
 27 28  1  0
 28 29  2  0
 12  7  1  0
 18 13  1  0
 29 20  1  0
 28 23  1  0
  3 30  1  0
  4 31  1  0
  4 32  1  0
  8 33  1  0
  8 34  1  0
  9 35  1  0
  9 36  1  0
 10 37  1  0
 10 38  1  0
 11 39  1  0
 11 40  1  0
 12 41  1  6
 14 42  1  0
 15 43  1  0
 16 44  1  0
 17 45  1  0
 21 46  1  0
 22 47  1  0
 24 48  1  0
 25 49  1  0
 26 50  1  0
 27 51  1  0
M  END
>  <smiles>  (74) 
O=C(NCC(=O)N1CCCCC1c1ccccc1Cl)c1ccc2ccccc2n1

>  <score_type>  (74) 
oracle

>  <origin>  (74) 
autodockgpu

>  <m_score__min__energy>  (74) 
-8.6899999999999995

>  <m_primary>  (74) 
energy

>  <rmsd>  (74) 
7.69763586769542

>  <m_score__min__rmsd>  (74) 
7.69763586769542

>  <meeko>  (74) 
{"free_energy": -7.81, "intermolecular_energy": -9.3, "internal_energy": -2.47, "cluster_size": 12, "cluster_id": 4, "rank_in_cluster": 6}

>  <energy>  (74) 
-8.45

>  <cluster_rmsd>  (74) 
0.26

>  <cluster>  (74) 
3

$$$$

     RDKit          3D

 51 54  0  0  0  0  0  0  0  0999 V2000
  140.8650   76.8850  217.8690 O   0  0  0  0  0  0  0  0  0  0  0  0
  141.8790   76.9120  218.6280 C   0  0  0  0  0  0  0  0  0  0  0  0
  142.1950   78.1430  219.3280 N   0  0  0  0  0  0  0  0  0  0  0  0
  141.4490   79.3280  219.2380 C   0  0  0  0  0  0  0  0  0  0  0  0
  140.9880   80.0800  220.3730 C   0  0  0  0  0  0  0  0  0  0  0  0
  139.8580   80.7110  220.1640 O   0  0  0  0  0  0  0  0  0  0  0  0
  141.5640   80.2480  221.6770 N   0  0  0  0  0  0  0  0  0  0  0  0
  141.8830   81.5600  222.1840 C   0  0  0  0  0  0  0  0  0  0  0  0
  141.8340   81.5700  223.6960 C   0  0  0  0  0  0  0  0  0  0  0  0
  142.7520   80.4680  224.1860 C   0  0  0  0  0  0  0  0  0  0  0  0
  142.1740   79.1170  223.8130 C   0  0  0  0  0  0  0  0  0  0  0  0
  141.8120   79.0060  222.3900 C   0  0  1  0  0  0  0  0  0  0  0  0
  140.7460   77.9970  222.2570 C   0  0  0  0  0  0  0  0  0  0  0  0
  141.0670   76.7250  221.7570 C   0  0  0  0  0  0  0  0  0  0  0  0
  140.1310   75.7360  221.6140 C   0  0  0  0  0  0  0  0  0  0  0  0
  138.8220   75.9450  221.9560 C   0  0  0  0  0  0  0  0  0  0  0  0
  138.4710   77.1760  222.4480 C   0  0  0  0  0  0  0  0  0  0  0  0
  139.4270   78.1790  222.5920 C   0  0  0  0  0  0  0  0  0  0  0  0
  138.8700   79.7080  223.2180 Cl  0  0  0  0  0  0  0  0  0  0  0  0
  142.7210   75.7200  218.7990 C   0  0  0  0  0  0  0  0  0  0  0  0
  142.5050   74.6470  217.9630 C   0  0  0  0  0  0  0  0  0  0  0  0
  143.2600   73.4990  218.0700 C   0  0  0  0  0  0  0  0  0  0  0  0
  144.2510   73.4230  219.0350 C   0  0  0  0  0  0  0  0  0  0  0  0
  145.0220   72.2790  219.1610 C   0  0  0  0  0  0  0  0  0  0  0  0
  145.9970   72.2400  220.1300 C   0  0  0  0  0  0  0  0  0  0  0  0
  146.2140   73.3300  220.9780 C   0  0  0  0  0  0  0  0  0  0  0  0
  145.4300   74.4670  220.8340 C   0  0  0  0  0  0  0  0  0  0  0  0
  144.4480   74.5180  219.8660 C   0  0  0  0  0  0  0  0  0  0  0  0
  143.6840   75.6410  219.7320 N   0  0  0  0  0  0  0  0  0  0  0  0
  143.0710   78.0520  219.9320 H   0  0  0  0  0  0  0  0  0  0  0  0
  142.0662   80.0240  218.6510 H   0  0  0  0  0  0  0  0  0  0  0  0
  140.4968   78.9440  218.8432 H   0  0  0  0  0  0  0  0  0  0  0  0
  142.8938   81.8402  221.8527 H   0  0  0  0  0  0  0  0  0  0  0  0
  141.1449   82.2792  221.7994 H   0  0  0  0  0  0  0  0  0  0  0  0
  142.1777   82.5430  224.0770 H   0  0  0  0  0  0  0  0  0  0  0  0
  140.8063   81.4069  224.0526 H   0  0  0  0  0  0  0  0  0  0  0  0
  143.7421   80.5831  223.7207 H   0  0  0  0  0  0  0  0  0  0  0  0
  142.8478   80.5335  225.2799 H   0  0  0  0  0  0  0  0  0  0  0  0
  142.9208   78.3430  224.0438 H   0  0  0  0  0  0  0  0  0  0  0  0
  141.2483   78.9895  224.3934 H   0  0  0  0  0  0  0  0  0  0  0  0
  142.7110   78.6657  221.8552 H   0  0  0  0  0  0  0  0  0  0  0  0
  142.1080   76.5154  221.4698 H   0  0  0  0  0  0  0  0  0  0  0  0
  140.4361   74.7564  221.2174 H   0  0  0  0  0  0  0  0  0  0  0  0
  138.0729   75.1480  221.8394 H   0  0  0  0  0  0  0  0  0  0  0  0
  137.4265   77.3730  222.7311 H   0  0  0  0  0  0  0  0  0  0  0  0
  141.7173   74.7073  217.1976 H   0  0  0  0  0  0  0  0  0  0  0  0
  143.0772   72.6501  217.3948 H   0  0  0  0  0  0  0  0  0  0  0  0
  144.8572   71.4171  218.4977 H   0  0  0  0  0  0  0  0  0  0  0  0
  146.6157   71.3371  220.2396 H   0  0  0  0  0  0  0  0  0  0  0  0
  146.9964   73.2875  221.7500 H   0  0  0  0  0  0  0  0  0  0  0  0
  145.5926   75.3312  221.4948 H   0  0  0  0  0  0  0  0  0  0  0  0
  1  2  2  0
  2  3  1  0
  3  4  1  0
  4  5  1  0
  5  6  2  0
  5  7  1  0
  7  8  1  0
  8  9  1  0
  9 10  1  0
 10 11  1  0
 11 12  1  0
 12 13  1  0
 13 14  2  0
 14 15  1  0
 15 16  2  0
 16 17  1  0
 17 18  2  0
 18 19  1  0
  2 20  1  0
 20 21  2  0
 21 22  1  0
 22 23  2  0
 23 24  1  0
 24 25  2  0
 25 26  1  0
 26 27  2  0
 27 28  1  0
 28 29  2  0
 12  7  1  0
 18 13  1  0
 29 20  1  0
 28 23  1  0
  3 30  1  0
  4 31  1  0
  4 32  1  0
  8 33  1  0
  8 34  1  0
  9 35  1  0
  9 36  1  0
 10 37  1  0
 10 38  1  0
 11 39  1  0
 11 40  1  0
 12 41  1  6
 14 42  1  0
 15 43  1  0
 16 44  1  0
 17 45  1  0
 21 46  1  0
 22 47  1  0
 24 48  1  0
 25 49  1  0
 26 50  1  0
 27 51  1  0
M  END
>  <smiles>  (75) 
O=C(NCC(=O)N1CCCCC1c1ccccc1Cl)c1ccc2ccccc2n1

>  <score_type>  (75) 
oracle

>  <origin>  (75) 
autodockgpu

>  <m_score__min__energy>  (75) 
-8.6899999999999995

>  <m_primary>  (75) 
energy

>  <rmsd>  (75) 
7.77225779530139

>  <m_score__min__rmsd>  (75) 
7.77225779530139

>  <meeko>  (75) 
{"free_energy": -7.75, "intermolecular_energy": -9.24, "internal_energy": -2.47, "cluster_size": 12, "cluster_id": 4, "rank_in_cluster": 10}

>  <energy>  (75) 
-8.45

>  <cluster_rmsd>  (75) 
0.25

>  <cluster>  (75) 
3

$$$$

     RDKit          3D

 51 54  0  0  0  0  0  0  0  0999 V2000
  138.7760   75.5740  221.5830 O   0  0  0  0  0  0  0  0  0  0  0  0
  139.9520   75.9460  221.8740 C   0  0  0  0  0  0  0  0  0  0  0  0
  141.0450   75.0100  221.6910 N   0  0  0  0  0  0  0  0  0  0  0  0
  140.9050   73.7020  221.2000 C   0  0  0  0  0  0  0  0  0  0  0  0
  141.8020   73.0930  220.2570 C   0  0  0  0  0  0  0  0  0  0  0  0
  141.2080   72.6280  219.1860 O   0  0  0  0  0  0  0  0  0  0  0  0
  143.2260   72.9140  220.3060 N   0  0  0  0  0  0  0  0  0  0  0  0
  143.8090   71.5950  220.3180 C   0  0  0  0  0  0  0  0  0  0  0  0
  145.1990   71.6230  219.7230 C   0  0  0  0  0  0  0  0  0  0  0  0
  145.9940   72.6670  220.4820 C   0  0  0  0  0  0  0  0  0  0  0  0
  145.4430   74.0480  220.1840 C   0  0  0  0  0  0  0  0  0  0  0  0
  143.9860   74.1520  220.3720 C   0  0  1  0  0  0  0  0  0  0  0  0
  143.4800   75.2320  219.5070 C   0  0  0  0  0  0  0  0  0  0  0  0
  143.0250   76.4230  220.0950 C   0  0  0  0  0  0  0  0  0  0  0  0
  142.5500   77.4710  219.3540 C   0  0  0  0  0  0  0  0  0  0  0  0
  142.4930   77.4050  217.9880 C   0  0  0  0  0  0  0  0  0  0  0  0
  142.9290   76.2570  217.3780 C   0  0  0  0  0  0  0  0  0  0  0  0
  143.4120   75.1920  218.1360 C   0  0  0  0  0  0  0  0  0  0  0  0
  143.9300   73.7770  217.2590 Cl  0  0  0  0  0  0  0  0  0  0  0  0
  140.2070   77.2990  222.3860 C   0  0  0  0  0  0  0  0  0  0  0  0
  139.1250   78.0770  222.7350 C   0  0  0  0  0  0  0  0  0  0  0  0
  139.2950   79.3550  223.2220 C   0  0  0  0  0  0  0  0  0  0  0  0
  140.5750   79.8650  223.3630 C   0  0  0  0  0  0  0  0  0  0  0  0
  140.7700   81.1470  223.8510 C   0  0  0  0  0  0  0  0  0  0  0  0
  142.0550   81.6190  223.9770 C   0  0  0  0  0  0  0  0  0  0  0  0
  143.1520   80.8290  223.6230 C   0  0  0  0  0  0  0  0  0  0  0  0
  142.9340   79.5470  223.1360 C   0  0  0  0  0  0  0  0  0  0  0  0
  141.6490   79.0610  223.0050 C   0  0  0  0  0  0  0  0  0  0  0  0
  141.4460   77.7990  222.5260 N   0  0  0  0  0  0  0  0  0  0  0  0
  141.9870   75.4270  221.9730 H   0  0  0  0  0  0  0  0  0  0  0  0
  140.9166   73.0494  222.0854 H   0  0  0  0  0  0  0  0  0  0  0  0
  139.9989   73.8076  220.5853 H   0  0  0  0  0  0  0  0  0  0  0  0
  143.8670   71.2346  221.3557 H   0  0  0  0  0  0  0  0  0  0  0  0
  143.1790   70.9229  219.7168 H   0  0  0  0  0  0  0  0  0  0  0  0
  145.6742   70.6368  219.8303 H   0  0  0  0  0  0  0  0  0  0  0  0
  145.1587   71.8677  218.6513 H   0  0  0  0  0  0  0  0  0  0  0  0
  145.9198   72.4692  221.5615 H   0  0  0  0  0  0  0  0  0  0  0  0
  147.0474   72.6205  220.1686 H   0  0  0  0  0  0  0  0  0  0  0  0
  145.9329   74.7703  220.8535 H   0  0  0  0  0  0  0  0  0  0  0  0
  145.6482   74.2565  219.1236 H   0  0  0  0  0  0  0  0  0  0  0  0
  143.8150   74.4141  221.4265 H   0  0  0  0  0  0  0  0  0  0  0  0
  143.0512   76.5172  221.1906 H   0  0  0  0  0  0  0  0  0  0  0  0
  142.2079   78.3828  219.8654 H   0  0  0  0  0  0  0  0  0  0  0  0
  142.1084   78.2489  217.3965 H   0  0  0  0  0  0  0  0  0  0  0  0
  142.8973   76.1760  216.2814 H   0  0  0  0  0  0  0  0  0  0  0  0
  138.1086   77.6715  222.6231 H   0  0  0  0  0  0  0  0  0  0  0  0
  138.4216   79.9648  223.4964 H   0  0  0  0  0  0  0  0  0  0  0  0
  139.9123   81.7756  224.1324 H   0  0  0  0  0  0  0  0  0  0  0  0
  142.2225   82.6354  224.3629 H   0  0  0  0  0  0  0  0  0  0  0  0
  144.1755   81.2179  223.7288 H   0  0  0  0  0  0  0  0  0  0  0  0
  143.7895   78.9159  222.8533 H   0  0  0  0  0  0  0  0  0  0  0  0
  1  2  2  0
  2  3  1  0
  3  4  1  0
  4  5  1  0
  5  6  2  0
  5  7  1  0
  7  8  1  0
  8  9  1  0
  9 10  1  0
 10 11  1  0
 11 12  1  0
 12 13  1  0
 13 14  2  0
 14 15  1  0
 15 16  2  0
 16 17  1  0
 17 18  2  0
 18 19  1  0
  2 20  1  0
 20 21  2  0
 21 22  1  0
 22 23  2  0
 23 24  1  0
 24 25  2  0
 25 26  1  0
 26 27  2  0
 27 28  1  0
 28 29  2  0
 12  7  1  0
 18 13  1  0
 29 20  1  0
 28 23  1  0
  3 30  1  0
  4 31  1  0
  4 32  1  0
  8 33  1  0
  8 34  1  0
  9 35  1  0
  9 36  1  0
 10 37  1  0
 10 38  1  0
 11 39  1  0
 11 40  1  0
 12 41  1  1
 14 42  1  0
 15 43  1  0
 16 44  1  0
 17 45  1  0
 21 46  1  0
 22 47  1  0
 24 48  1  0
 25 49  1  0
 26 50  1  0
 27 51  1  0
M  END
>  <smiles>  (76) 
O=C(NCC(=O)N1CCCCC1c1ccccc1Cl)c1ccc2ccccc2n1

>  <score_type>  (76) 
oracle

>  <origin>  (76) 
autodockgpu

>  <m_score__min__energy>  (76) 
-8.6899999999999995

>  <m_primary>  (76) 
energy

>  <rmsd>  (76) 
7.817345896460381

>  <m_score__min__rmsd>  (76) 
7.817345896460381

>  <meeko>  (76) 
{"free_energy": -7.74, "intermolecular_energy": -9.23, "internal_energy": -2.42, "cluster_size": 6, "cluster_id": 5, "rank_in_cluster": 2}

>  <energy>  (76) 
-8.44

>  <cluster_rmsd>  (76) 
1.31

>  <cluster>  (76) 
3

$$$$

     RDKit          3D

 51 54  0  0  0  0  0  0  0  0999 V2000
  140.6030   76.6160  218.4540 O   0  0  0  0  0  0  0  0  0  0  0  0
  141.7920   76.7110  218.8850 C   0  0  0  0  0  0  0  0  0  0  0  0
  142.2940   78.0170  219.2690 N   0  0  0  0  0  0  0  0  0  0  0  0
  141.5530   79.2070  219.2090 C   0  0  0  0  0  0  0  0  0  0  0  0
  140.9900   79.8660  220.3560 C   0  0  0  0  0  0  0  0  0  0  0  0
  139.7560   80.2710  220.1810 O   0  0  0  0  0  0  0  0  0  0  0  0
  141.5630   80.1510  221.6420 N   0  0  0  0  0  0  0  0  0  0  0  0
  141.8740   81.5030  222.0340 C   0  0  0  0  0  0  0  0  0  0  0  0
  141.8210   81.6450  223.5390 C   0  0  0  0  0  0  0  0  0  0  0  0
  142.7420   80.5940  224.1250 C   0  0  0  0  0  0  0  0  0  0  0  0
  142.1720   79.2130  223.8700 C   0  0  0  0  0  0  0  0  0  0  0  0
  141.8140   78.9760  222.4610 C   0  0  1  0  0  0  0  0  0  0  0  0
  140.7530   77.9540  222.4140 C   0  0  0  0  0  0  0  0  0  0  0  0
  141.0740   76.6550  221.9900 C   0  0  0  0  0  0  0  0  0  0  0  0
  140.1420   75.6530  221.9300 C   0  0  0  0  0  0  0  0  0  0  0  0
  138.8390   75.8760  222.2830 C   0  0  0  0  0  0  0  0  0  0  0  0
  138.4880   77.1340  222.7020 C   0  0  0  0  0  0  0  0  0  0  0  0
  139.4390   78.1500  222.7630 C   0  0  0  0  0  0  0  0  0  0  0  0
  138.8840   79.7130  223.2990 Cl  0  0  0  0  0  0  0  0  0  0  0  0
  142.6470   75.5220  218.9950 C   0  0  0  0  0  0  0  0  0  0  0  0
  142.3800   74.4490  218.1730 C   0  0  0  0  0  0  0  0  0  0  0  0
  143.1440   73.3040  218.2260 C   0  0  0  0  0  0  0  0  0  0  0  0
  144.1990   73.2290  219.1210 C   0  0  0  0  0  0  0  0  0  0  0  0
  144.9810   72.0880  219.1910 C   0  0  0  0  0  0  0  0  0  0  0  0
  146.0190   72.0510  220.0910 C   0  0  0  0  0  0  0  0  0  0  0  0
  146.2900   73.1400  220.9250 C   0  0  0  0  0  0  0  0  0  0  0  0
  145.4930   74.2740  220.8380 C   0  0  0  0  0  0  0  0  0  0  0  0
  144.4480   74.3240  219.9380 C   0  0  0  0  0  0  0  0  0  0  0  0
  143.6720   75.4440  219.8600 N   0  0  0  0  0  0  0  0  0  0  0  0
  143.3050   77.9780  219.6090 H   0  0  0  0  0  0  0  0  0  0  0  0
  142.2161   79.9468  218.7367 H   0  0  0  0  0  0  0  0  0  0  0  0
  140.6413   78.8583  218.7019 H   0  0  0  0  0  0  0  0  0  0  0  0
  142.8843   81.7584  221.6819 H   0  0  0  0  0  0  0  0  0  0  0  0
  141.1330   82.1819  221.5868 H   0  0  0  0  0  0  0  0  0  0  0  0
  142.1599   82.6490  223.8343 H   0  0  0  0  0  0  0  0  0  0  0  0
  140.7930   81.5096  223.9064 H   0  0  0  0  0  0  0  0  0  0  0  0
  143.7329   80.6729  223.6539 H   0  0  0  0  0  0  0  0  0  0  0  0
  142.8336   80.7548  225.2093 H   0  0  0  0  0  0  0  0  0  0  0  0
  142.9221   78.4661  224.1690 H   0  0  0  0  0  0  0  0  0  0  0  0
  141.2454   79.1320  224.4572 H   0  0  0  0  0  0  0  0  0  0  0  0
  142.7152   78.5936  221.9594 H   0  0  0  0  0  0  0  0  0  0  0  0
  142.1105   76.4339  221.6956 H   0  0  0  0  0  0  0  0  0  0  0  0
  140.4464   74.6514  221.5921 H   0  0  0  0  0  0  0  0  0  0  0  0
  138.0936   75.0687  222.2322 H   0  0  0  0  0  0  0  0  0  0  0  0
  137.4476   77.3422  222.9921 H   0  0  0  0  0  0  0  0  0  0  0  0
  141.5425   74.5077  217.4623 H   0  0  0  0  0  0  0  0  0  0  0  0
  142.9183   72.4558  217.5629 H   0  0  0  0  0  0  0  0  0  0  0  0
  144.7750   71.2270  218.5381 H   0  0  0  0  0  0  0  0  0  0  0  0
  146.6467   71.1501  220.1563 H   0  0  0  0  0  0  0  0  0  0  0  0
  147.1240   73.0991  221.6411 H   0  0  0  0  0  0  0  0  0  0  0  0
  145.6957   75.1367  221.4897 H   0  0  0  0  0  0  0  0  0  0  0  0
  1  2  2  0
  2  3  1  0
  3  4  1  0
  4  5  1  0
  5  6  2  0
  5  7  1  0
  7  8  1  0
  8  9  1  0
  9 10  1  0
 10 11  1  0
 11 12  1  0
 12 13  1  0
 13 14  2  0
 14 15  1  0
 15 16  2  0
 16 17  1  0
 17 18  2  0
 18 19  1  0
  2 20  1  0
 20 21  2  0
 21 22  1  0
 22 23  2  0
 23 24  1  0
 24 25  2  0
 25 26  1  0
 26 27  2  0
 27 28  1  0
 28 29  2  0
 12  7  1  0
 18 13  1  0
 29 20  1  0
 28 23  1  0
  3 30  1  0
  4 31  1  0
  4 32  1  0
  8 33  1  0
  8 34  1  0
  9 35  1  0
  9 36  1  0
 10 37  1  0
 10 38  1  0
 11 39  1  0
 11 40  1  0
 12 41  1  6
 14 42  1  0
 15 43  1  0
 16 44  1  0
 17 45  1  0
 21 46  1  0
 22 47  1  0
 24 48  1  0
 25 49  1  0
 26 50  1  0
 27 51  1  0
M  END
>  <smiles>  (77) 
O=C(NCC(=O)N1CCCCC1c1ccccc1Cl)c1ccc2ccccc2n1

>  <score_type>  (77) 
oracle

>  <origin>  (77) 
autodockgpu

>  <m_score__min__energy>  (77) 
-8.6899999999999995

>  <m_primary>  (77) 
energy

>  <rmsd>  (77) 
7.667617633456825

>  <m_score__min__rmsd>  (77) 
7.667617633456825

>  <meeko>  (77) 
{"free_energy": -7.83, "intermolecular_energy": -9.32, "internal_energy": -2.47, "cluster_size": 12, "cluster_id": 4, "rank_in_cluster": 2}

>  <energy>  (77) 
-8.43

>  <cluster_rmsd>  (77) 
1.34

>  <cluster>  (77) 
3

$$$$

     RDKit          3D

 51 54  0  0  0  0  0  0  0  0999 V2000
  140.2100   71.1940  221.2100 O   0  0  0  0  0  0  0  0  0  0  0  0
  139.9970   71.8680  222.2610 C   0  0  0  0  0  0  0  0  0  0  0  0
  139.7200   73.2870  222.1370 N   0  0  0  0  0  0  0  0  0  0  0  0
  139.6590   73.9860  220.9220 C   0  0  0  0  0  0  0  0  0  0  0  0
  140.7290   74.0330  219.9640 C   0  0  0  0  0  0  0  0  0  0  0  0
  140.3550   74.4340  218.7740 O   0  0  0  0  0  0  0  0  0  0  0  0
  142.1210   73.7090  220.1030 N   0  0  0  0  0  0  0  0  0  0  0  0
  142.5960   72.3650  219.8870 C   0  0  0  0  0  0  0  0  0  0  0  0
  144.0410   72.3790  219.4410 C   0  0  0  0  0  0  0  0  0  0  0  0
  144.8260   73.1630  220.4730 C   0  0  0  0  0  0  0  0  0  0  0  0
  144.4180   74.6220  220.4270 C   0  0  0  0  0  0  0  0  0  0  0  0
  142.9610   74.8280  220.4990 C   0  0  1  0  0  0  0  0  0  0  0  0
  142.6360   76.1060  219.8420 C   0  0  0  0  0  0  0  0  0  0  0  0
  143.1940   76.3900  218.5860 C   0  0  0  0  0  0  0  0  0  0  0  0
  142.9300   77.5530  217.9140 C   0  0  0  0  0  0  0  0  0  0  0  0
  142.0990   78.5040  218.4420 C   0  0  0  0  0  0  0  0  0  0  0  0
  141.5350   78.2610  219.6680 C   0  0  0  0  0  0  0  0  0  0  0  0
  141.8070   77.0760  220.3490 C   0  0  0  0  0  0  0  0  0  0  0  0
  141.0450   76.8740  221.9040 Cl  0  0  0  0  0  0  0  0  0  0  0  0
  140.0280   71.2270  223.5830 C   0  0  0  0  0  0  0  0  0  0  0  0
  139.5410   69.9440  223.6960 C   0  0  0  0  0  0  0  0  0  0  0  0
  139.5420   69.2860  224.9070 C   0  0  0  0  0  0  0  0  0  0  0  0
  140.0400   69.9270  226.0300 C   0  0  0  0  0  0  0  0  0  0  0  0
  140.0510   69.2850  227.2570 C   0  0  0  0  0  0  0  0  0  0  0  0
  140.5540   69.9520  228.3490 C   0  0  0  0  0  0  0  0  0  0  0  0
  141.0480   71.2550  228.2330 C   0  0  0  0  0  0  0  0  0  0  0  0
  141.0280   71.8790  226.9930 C   0  0  0  0  0  0  0  0  0  0  0  0
  140.5250   71.2200  225.8900 C   0  0  0  0  0  0  0  0  0  0  0  0
  140.5110   71.8430  224.6750 N   0  0  0  0  0  0  0  0  0  0  0  0
  139.5620   73.7530  223.0850 H   0  0  0  0  0  0  0  0  0  0  0  0
  138.7950   73.5704  220.3828 H   0  0  0  0  0  0  0  0  0  0  0  0
  139.6557   75.0259  221.2807 H   0  0  0  0  0  0  0  0  0  0  0  0
  142.5122   71.7964  220.8249 H   0  0  0  0  0  0  0  0  0  0  0  0
  141.9860   71.8940  219.1020 H   0  0  0  0  0  0  0  0  0  0  0  0
  144.4251   71.3502  219.3783 H   0  0  0  0  0  0  0  0  0  0  0  0
  144.1364   72.8409  218.4472 H   0  0  0  0  0  0  0  0  0  0  0  0
  144.6199   72.7573  221.4745 H   0  0  0  0  0  0  0  0  0  0  0  0
  145.9006   73.0788  220.2536 H   0  0  0  0  0  0  0  0  0  0  0  0
  144.8853   75.1410  221.2768 H   0  0  0  0  0  0  0  0  0  0  0  0
  144.7534   75.0211  219.4584 H   0  0  0  0  0  0  0  0  0  0  0  0
  142.6960   74.8862  221.5650 H   0  0  0  0  0  0  0  0  0  0  0  0
  143.8672   75.6521  218.1253 H   0  0  0  0  0  0  0  0  0  0  0  0
  143.3940   77.7265  216.9319 H   0  0  0  0  0  0  0  0  0  0  0  0
  141.8896   79.4369  217.8981 H   0  0  0  0  0  0  0  0  0  0  0  0
  140.8629   79.0069  220.1173 H   0  0  0  0  0  0  0  0  0  0  0  0
  139.1445   69.4357  222.8047 H   0  0  0  0  0  0  0  0  0  0  0  0
  139.1508   68.2606  224.9814 H   0  0  0  0  0  0  0  0  0  0  0  0
  139.6643   68.2600  227.3562 H   0  0  0  0  0  0  0  0  0  0  0  0
  140.5680   69.4529  229.3291 H   0  0  0  0  0  0  0  0  0  0  0  0
  141.4476   71.7793  229.1136 H   0  0  0  0  0  0  0  0  0  0  0  0
  141.4149   72.9035  226.8893 H   0  0  0  0  0  0  0  0  0  0  0  0
  1  2  2  0
  2  3  1  0
  3  4  1  0
  4  5  1  0
  5  6  2  0
  5  7  1  0
  7  8  1  0
  8  9  1  0
  9 10  1  0
 10 11  1  0
 11 12  1  0
 12 13  1  0
 13 14  2  0
 14 15  1  0
 15 16  2  0
 16 17  1  0
 17 18  2  0
 18 19  1  0
  2 20  1  0
 20 21  2  0
 21 22  1  0
 22 23  2  0
 23 24  1  0
 24 25  2  0
 25 26  1  0
 26 27  2  0
 27 28  1  0
 28 29  2  0
 12  7  1  0
 18 13  1  0
 29 20  1  0
 28 23  1  0
  3 30  1  0
  4 31  1  0
  4 32  1  0
  8 33  1  0
  8 34  1  0
  9 35  1  0
  9 36  1  0
 10 37  1  0
 10 38  1  0
 11 39  1  0
 11 40  1  0
 12 41  1  1
 14 42  1  0
 15 43  1  0
 16 44  1  0
 17 45  1  0
 21 46  1  0
 22 47  1  0
 24 48  1  0
 25 49  1  0
 26 50  1  0
 27 51  1  0
M  END
>  <smiles>  (78) 
O=C(NCC(=O)N1CCCCC1c1ccccc1Cl)c1ccc2ccccc2n1

>  <score_type>  (78) 
oracle

>  <origin>  (78) 
autodockgpu

>  <m_score__min__energy>  (78) 
-8.6899999999999995

>  <m_primary>  (78) 
energy

>  <rmsd>  (78) 
2.942074469857415

>  <m_score__min__rmsd>  (78) 
2.942074469857415

>  <meeko>  (78) 
{"free_energy": -8.47, "intermolecular_energy": -9.96, "internal_energy": -1.95, "cluster_size": 13, "cluster_id": 3, "rank_in_cluster": 3}

>  <energy>  (78) 
-8.41

>  <cluster_rmsd>  (78) 
1.31

>  <cluster>  (78) 
3

$$$$

     RDKit          3D

 51 54  0  0  0  0  0  0  0  0999 V2000
  141.5660   71.9660  221.7080 O   0  0  0  0  0  0  0  0  0  0  0  0
  140.5970   72.3020  222.4530 C   0  0  0  0  0  0  0  0  0  0  0  0
  139.8170   73.4730  222.1000 N   0  0  0  0  0  0  0  0  0  0  0  0
  140.0460   74.2760  220.9730 C   0  0  0  0  0  0  0  0  0  0  0  0
  140.9700   75.3770  220.9420 C   0  0  0  0  0  0  0  0  0  0  0  0
  141.4230   75.7200  222.1220 O   0  0  0  0  0  0  0  0  0  0  0  0
  141.4620   76.1510  219.8360 N   0  0  0  0  0  0  0  0  0  0  0  0
  141.1180   77.5440  219.6940 C   0  0  0  0  0  0  0  0  0  0  0  0
  142.1950   78.2800  218.9280 C   0  0  0  0  0  0  0  0  0  0  0  0
  142.4000   77.5470  217.6170 C   0  0  0  0  0  0  0  0  0  0  0  0
  143.0090   76.1850  217.8820 C   0  0  0  0  0  0  0  0  0  0  0  0
  142.2830   75.4030  218.8980 C   0  0  1  0  0  0  0  0  0  0  0  0
  143.2250   74.4570  219.5210 C   0  0  0  0  0  0  0  0  0  0  0  0
  144.3240   74.9580  220.2370 C   0  0  0  0  0  0  0  0  0  0  0  0
  145.2340   74.1390  220.8490 C   0  0  0  0  0  0  0  0  0  0  0  0
  145.1130   72.7770  220.7900 C   0  0  0  0  0  0  0  0  0  0  0  0
  144.0520   72.2510  220.0990 C   0  0  0  0  0  0  0  0  0  0  0  0
  143.1280   73.0880  219.4780 C   0  0  0  0  0  0  0  0  0  0  0  0
  141.8230   72.3150  218.6180 Cl  0  0  0  0  0  0  0  0  0  0  0  0
  140.2680   71.5200  223.6530 C   0  0  0  0  0  0  0  0  0  0  0  0
  139.4730   70.4050  223.5050 C   0  0  0  0  0  0  0  0  0  0  0  0
  139.1270   69.6280  224.5900 C   0  0  0  0  0  0  0  0  0  0  0  0
  139.5860   69.9750  225.8500 C   0  0  0  0  0  0  0  0  0  0  0  0
  139.2510   69.2100  226.9540 C   0  0  0  0  0  0  0  0  0  0  0  0
  139.7250   69.5860  228.1890 C   0  0  0  0  0  0  0  0  0  0  0  0
  140.5300   70.7190  228.3380 C   0  0  0  0  0  0  0  0  0  0  0  0
  140.8540   71.4720  227.2170 C   0  0  0  0  0  0  0  0  0  0  0  0
  140.3850   71.1050  225.9730 C   0  0  0  0  0  0  0  0  0  0  0  0
  140.7100   71.8520  224.8780 N   0  0  0  0  0  0  0  0  0  0  0  0
  139.0330   73.6630  222.8000 H   0  0  0  0  0  0  0  0  0  0  0  0
  140.3752   73.5887  220.1798 H   0  0  0  0  0  0  0  0  0  0  0  0
  139.0861   74.8079  220.8981 H   0  0  0  0  0  0  0  0  0  0  0  0
  140.1654   77.6281  219.1504 H   0  0  0  0  0  0  0  0  0  0  0  0
  141.0242   77.9912  220.6946 H   0  0  0  0  0  0  0  0  0  0  0  0
  141.8779   79.3153  218.7343 H   0  0  0  0  0  0  0  0  0  0  0  0
  143.1304   78.3112  219.5060 H   0  0  0  0  0  0  0  0  0  0  0  0
  141.4304   77.4219  217.1127 H   0  0  0  0  0  0  0  0  0  0  0  0
  143.0777   78.1302  216.9762 H   0  0  0  0  0  0  0  0  0  0  0  0
  143.0112   75.6157  216.9408 H   0  0  0  0  0  0  0  0  0  0  0  0
  144.0242   76.3550  218.2698 H   0  0  0  0  0  0  0  0  0  0  0  0
  141.4953   74.8433  218.3725 H   0  0  0  0  0  0  0  0  0  0  0  0
  144.4584   76.0474  220.3086 H   0  0  0  0  0  0  0  0  0  0  0  0
  146.0774   74.5833  221.3979 H   0  0  0  0  0  0  0  0  0  0  0  0
  145.8467   72.1225  221.2833 H   0  0  0  0  0  0  0  0  0  0  0  0
  143.9296   71.1597  220.0346 H   0  0  0  0  0  0  0  0  0  0  0  0
  139.1081   70.1299  222.5044 H   0  0  0  0  0  0  0  0  0  0  0  0
  138.4918   68.7400  224.4562 H   0  0  0  0  0  0  0  0  0  0  0  0
  138.6172   68.3175  226.8454 H   0  0  0  0  0  0  0  0  0  0  0  0
  139.4665   68.9856  229.0737 H   0  0  0  0  0  0  0  0  0  0  0  0
  140.9023   71.0106  229.3311 H   0  0  0  0  0  0  0  0  0  0  0  0
  141.4875   72.3651  227.3217 H   0  0  0  0  0  0  0  0  0  0  0  0
  1  2  2  0
  2  3  1  0
  3  4  1  0
  4  5  1  0
  5  6  2  0
  5  7  1  0
  7  8  1  0
  8  9  1  0
  9 10  1  0
 10 11  1  0
 11 12  1  0
 12 13  1  0
 13 14  2  0
 14 15  1  0
 15 16  2  0
 16 17  1  0
 17 18  2  0
 18 19  1  0
  2 20  1  0
 20 21  2  0
 21 22  1  0
 22 23  2  0
 23 24  1  0
 24 25  2  0
 25 26  1  0
 26 27  2  0
 27 28  1  0
 28 29  2  0
 12  7  1  0
 18 13  1  0
 29 20  1  0
 28 23  1  0
  3 30  1  0
  4 31  1  0
  4 32  1  0
  8 33  1  0
  8 34  1  0
  9 35  1  0
  9 36  1  0
 10 37  1  0
 10 38  1  0
 11 39  1  0
 11 40  1  0
 12 41  1  6
 14 42  1  0
 15 43  1  0
 16 44  1  0
 17 45  1  0
 21 46  1  0
 22 47  1  0
 24 48  1  0
 25 49  1  0
 26 50  1  0
 27 51  1  0
M  END
>  <smiles>  (79) 
O=C(NCC(=O)N1CCCCC1c1ccccc1Cl)c1ccc2ccccc2n1

>  <score_type>  (79) 
oracle

>  <origin>  (79) 
autodockgpu

>  <m_score__min__energy>  (79) 
-8.6899999999999995

>  <m_primary>  (79) 
energy

>  <rmsd>  (79) 
2.2747396033851643

>  <m_score__min__rmsd>  (79) 
2.2747396033851643

>  <meeko>  (79) 
{"free_energy": -8.52, "intermolecular_energy": -10.01, "internal_energy": -1.96, "cluster_size": 16, "cluster_id": 2, "rank_in_cluster": 5}

>  <energy>  (79) 
-8.41

>  <cluster_rmsd>  (79) 
1.3

>  <cluster>  (79) 
3

$$$$

     RDKit          3D

 51 54  0  0  0  0  0  0  0  0999 V2000
  138.7810   75.5970  221.5270 O   0  0  0  0  0  0  0  0  0  0  0  0
  139.9560   75.9620  221.8320 C   0  0  0  0  0  0  0  0  0  0  0  0
  141.0480   75.0230  221.6580 N   0  0  0  0  0  0  0  0  0  0  0  0
  140.9080   73.7190  221.1590 C   0  0  0  0  0  0  0  0  0  0  0  0
  141.8160   73.1100  220.2260 C   0  0  0  0  0  0  0  0  0  0  0  0
  141.2320   72.6360  219.1530 O   0  0  0  0  0  0  0  0  0  0  0  0
  143.2400   72.9380  220.2870 N   0  0  0  0  0  0  0  0  0  0  0  0
  143.8290   71.6220  220.3030 C   0  0  0  0  0  0  0  0  0  0  0  0
  145.2250   71.6580  219.7200 C   0  0  0  0  0  0  0  0  0  0  0  0
  146.0080   72.7050  220.4860 C   0  0  0  0  0  0  0  0  0  0  0  0
  145.4520   74.0830  220.1830 C   0  0  0  0  0  0  0  0  0  0  0  0
  143.9930   74.1800  220.3590 C   0  0  1  0  0  0  0  0  0  0  0  0
  143.4880   75.2580  219.4910 C   0  0  0  0  0  0  0  0  0  0  0  0
  143.0280   76.4480  220.0760 C   0  0  0  0  0  0  0  0  0  0  0  0
  142.5530   77.4940  219.3310 C   0  0  0  0  0  0  0  0  0  0  0  0
  142.5040   77.4260  217.9650 C   0  0  0  0  0  0  0  0  0  0  0  0
  142.9450   76.2790  217.3580 C   0  0  0  0  0  0  0  0  0  0  0  0
  143.4280   75.2170  218.1190 C   0  0  0  0  0  0  0  0  0  0  0  0
  143.9530   73.8020  217.2470 Cl  0  0  0  0  0  0  0  0  0  0  0  0
  140.2100   77.3120  222.3540 C   0  0  0  0  0  0  0  0  0  0  0  0
  139.1280   78.0850  222.7130 C   0  0  0  0  0  0  0  0  0  0  0  0
  139.2970   79.3590  223.2100 C   0  0  0  0  0  0  0  0  0  0  0  0
  140.5760   79.8720  223.3490 C   0  0  0  0  0  0  0  0  0  0  0  0
  140.7700   81.1500  223.8460 C   0  0  0  0  0  0  0  0  0  0  0  0
  142.0540   81.6240  223.9710 C   0  0  0  0  0  0  0  0  0  0  0  0
  143.1520   80.8390  223.6050 C   0  0  0  0  0  0  0  0  0  0  0  0
  142.9350   79.5600  223.1100 C   0  0  0  0  0  0  0  0  0  0  0  0
  141.6500   79.0730  222.9800 C   0  0  0  0  0  0  0  0  0  0  0  0
  141.4490   77.8140  222.4920 N   0  0  0  0  0  0  0  0  0  0  0  0
  141.9880   75.4350  221.9520 H   0  0  0  0  0  0  0  0  0  0  0  0
  140.9031   73.0620  222.0412 H   0  0  0  0  0  0  0  0  0  0  0  0
  140.0114   73.8321  220.5319 H   0  0  0  0  0  0  0  0  0  0  0  0
  143.8795   71.2608  221.3408 H   0  0  0  0  0  0  0  0  0  0  0  0
  143.2077   70.9472  219.6959 H   0  0  0  0  0  0  0  0  0  0  0  0
  145.7044   70.6741  219.8307 H   0  0  0  0  0  0  0  0  0  0  0  0
  145.1926   71.9036  218.6483 H   0  0  0  0  0  0  0  0  0  0  0  0
  145.9254   72.5066  221.5648 H   0  0  0  0  0  0  0  0  0  0  0  0
  147.0645   72.6639  220.1824 H   0  0  0  0  0  0  0  0  0  0  0  0
  145.9328   74.8081  220.8561 H   0  0  0  0  0  0  0  0  0  0  0  0
  145.6646   74.2918  219.1241 H   0  0  0  0  0  0  0  0  0  0  0  0
  143.8123   74.4414  221.4121 H   0  0  0  0  0  0  0  0  0  0  0  0
  143.0499   76.5437  221.1716 H   0  0  0  0  0  0  0  0  0  0  0  0
  142.2046   78.4051  219.8394 H   0  0  0  0  0  0  0  0  0  0  0  0
  142.1212   78.2687  217.3706 H   0  0  0  0  0  0  0  0  0  0  0  0
  142.9173   76.1965  216.2615 H   0  0  0  0  0  0  0  0  0  0  0  0
  138.1120   77.6785  222.6011 H   0  0  0  0  0  0  0  0  0  0  0  0
  138.4232   79.9637  223.4941 H   0  0  0  0  0  0  0  0  0  0  0  0
  139.9119   81.7744  224.1355 H   0  0  0  0  0  0  0  0  0  0  0  0
  142.2207   82.6373  224.3653 H   0  0  0  0  0  0  0  0  0  0  0  0
  144.1750   81.2300  223.7080 H   0  0  0  0  0  0  0  0  0  0  0  0
  143.7906   78.9323  222.8203 H   0  0  0  0  0  0  0  0  0  0  0  0
  1  2  2  0
  2  3  1  0
  3  4  1  0
  4  5  1  0
  5  6  2  0
  5  7  1  0
  7  8  1  0
  8  9  1  0
  9 10  1  0
 10 11  1  0
 11 12  1  0
 12 13  1  0
 13 14  2  0
 14 15  1  0
 15 16  2  0
 16 17  1  0
 17 18  2  0
 18 19  1  0
  2 20  1  0
 20 21  2  0
 21 22  1  0
 22 23  2  0
 23 24  1  0
 24 25  2  0
 25 26  1  0
 26 27  2  0
 27 28  1  0
 28 29  2  0
 12  7  1  0
 18 13  1  0
 29 20  1  0
 28 23  1  0
  3 30  1  0
  4 31  1  0
  4 32  1  0
  8 33  1  0
  8 34  1  0
  9 35  1  0
  9 36  1  0
 10 37  1  0
 10 38  1  0
 11 39  1  0
 11 40  1  0
 12 41  1  1
 14 42  1  0
 15 43  1  0
 16 44  1  0
 17 45  1  0
 21 46  1  0
 22 47  1  0
 24 48  1  0
 25 49  1  0
 26 50  1  0
 27 51  1  0
M  END
>  <smiles>  (80) 
O=C(NCC(=O)N1CCCCC1c1ccccc1Cl)c1ccc2ccccc2n1

>  <score_type>  (80) 
oracle

>  <origin>  (80) 
autodockgpu

>  <m_score__min__energy>  (80) 
-8.6899999999999995

>  <m_primary>  (80) 
energy

>  <rmsd>  (80) 
7.822439013350287

>  <m_score__min__rmsd>  (80) 
7.822439013350287

>  <meeko>  (80) 
{"free_energy": -7.75, "intermolecular_energy": -9.24, "internal_energy": -2.42, "cluster_size": 6, "cluster_id": 5, "rank_in_cluster": 1}

>  <energy>  (80) 
-8.32

>  <cluster_rmsd>  (80) 
1.56

>  <cluster>  (80) 
3

$$$$

     RDKit          3D

 51 54  0  0  0  0  0  0  0  0999 V2000
  140.6700   76.7070  218.1670 O   0  0  0  0  0  0  0  0  0  0  0  0
  141.7860   76.7830  218.7640 C   0  0  0  0  0  0  0  0  0  0  0  0
  142.2030   78.0620  219.3060 N   0  0  0  0  0  0  0  0  0  0  0  0
  141.4530   79.2460  219.2300 C   0  0  0  0  0  0  0  0  0  0  0  0
  140.9340   79.9480  220.3720 C   0  0  0  0  0  0  0  0  0  0  0  0
  139.7320   80.4360  220.1910 O   0  0  0  0  0  0  0  0  0  0  0  0
  141.5210   80.1980  221.6580 N   0  0  0  0  0  0  0  0  0  0  0  0
  141.8360   81.5400  222.0830 C   0  0  0  0  0  0  0  0  0  0  0  0
  141.8000   81.6410  223.5920 C   0  0  0  0  0  0  0  0  0  0  0  0
  142.7300   80.5760  224.1380 C   0  0  0  0  0  0  0  0  0  0  0  0
  142.1580   79.2010  223.8520 C   0  0  0  0  0  0  0  0  0  0  0  0
  141.7830   79.0020  222.4420 C   0  0  1  0  0  0  0  0  0  0  0  0
  140.7240   77.9800  222.3800 C   0  0  0  0  0  0  0  0  0  0  0  0
  141.0430   76.6890  221.9300 C   0  0  0  0  0  0  0  0  0  0  0  0
  140.1120   75.6890  221.8540 C   0  0  0  0  0  0  0  0  0  0  0  0
  138.8100   75.9040  222.2170 C   0  0  0  0  0  0  0  0  0  0  0  0
  138.4600   77.1530  222.6610 C   0  0  0  0  0  0  0  0  0  0  0  0
  139.4110   78.1680  222.7370 C   0  0  0  0  0  0  0  0  0  0  0  0
  138.8560   79.7200  223.3060 Cl  0  0  0  0  0  0  0  0  0  0  0  0
  142.6420   75.5980  218.9060 C   0  0  0  0  0  0  0  0  0  0  0  0
  142.3980   74.5160  218.0890 C   0  0  0  0  0  0  0  0  0  0  0  0
  143.1650   73.3740  218.1710 C   0  0  0  0  0  0  0  0  0  0  0  0
  144.1980   73.3120  219.0920 C   0  0  0  0  0  0  0  0  0  0  0  0
  144.9820   72.1750  219.1920 C   0  0  0  0  0  0  0  0  0  0  0  0
  145.9990   72.1500  220.1170 C   0  0  0  0  0  0  0  0  0  0  0  0
  146.2460   73.2480  220.9460 C   0  0  0  0  0  0  0  0  0  0  0  0
  145.4480   74.3790  220.8290 C   0  0  0  0  0  0  0  0  0  0  0  0
  144.4240   74.4160  219.9040 C   0  0  0  0  0  0  0  0  0  0  0  0
  143.6470   75.5320  219.7970 N   0  0  0  0  0  0  0  0  0  0  0  0
  143.1580   78.0090  219.7800 H   0  0  0  0  0  0  0  0  0  0  0  0
  142.0917   79.9691  218.7016 H   0  0  0  0  0  0  0  0  0  0  0  0
  140.5231   78.8733  218.7758 H   0  0  0  0  0  0  0  0  0  0  0  0
  142.8421   81.8057  221.7265 H   0  0  0  0  0  0  0  0  0  0  0  0
  141.0897   82.2303  221.6627 H   0  0  0  0  0  0  0  0  0  0  0  0
  142.1405   82.6372  223.9107 H   0  0  0  0  0  0  0  0  0  0  0  0
  140.7766   81.4937  223.9676 H   0  0  0  0  0  0  0  0  0  0  0  0
  143.7149   80.6694  223.6571 H   0  0  0  0  0  0  0  0  0  0  0  0
  142.8352   80.7074  225.2250 H   0  0  0  0  0  0  0  0  0  0  0  0
  142.9125   78.4472  224.1212 H   0  0  0  0  0  0  0  0  0  0  0  0
  141.2387   79.1028  224.4480 H   0  0  0  0  0  0  0  0  0  0  0  0
  142.6786   78.6352  221.9192 H   0  0  0  0  0  0  0  0  0  0  0  0
  142.0785   76.4736  221.6276 H   0  0  0  0  0  0  0  0  0  0  0  0
  140.4155   74.6946  221.4948 H   0  0  0  0  0  0  0  0  0  0  0  0
  138.0651   75.0971  222.1542 H   0  0  0  0  0  0  0  0  0  0  0  0
  137.4207   77.3551  222.9594 H   0  0  0  0  0  0  0  0  0  0  0  0
  141.5769   74.5644  217.3587 H   0  0  0  0  0  0  0  0  0  0  0  0
  142.9587   72.5188  217.5107 H   0  0  0  0  0  0  0  0  0  0  0  0
  144.7945   71.3070  218.5428 H   0  0  0  0  0  0  0  0  0  0  0  0
  146.6280   71.2520  220.2060 H   0  0  0  0  0  0  0  0  0  0  0  0
  147.0626   73.2168  221.6823 H   0  0  0  0  0  0  0  0  0  0  0  0
  145.6329   75.2490  221.4763 H   0  0  0  0  0  0  0  0  0  0  0  0
  1  2  2  0
  2  3  1  0
  3  4  1  0
  4  5  1  0
  5  6  2  0
  5  7  1  0
  7  8  1  0
  8  9  1  0
  9 10  1  0
 10 11  1  0
 11 12  1  0
 12 13  1  0
 13 14  2  0
 14 15  1  0
 15 16  2  0
 16 17  1  0
 17 18  2  0
 18 19  1  0
  2 20  1  0
 20 21  2  0
 21 22  1  0
 22 23  2  0
 23 24  1  0
 24 25  2  0
 25 26  1  0
 26 27  2  0
 27 28  1  0
 28 29  2  0
 12  7  1  0
 18 13  1  0
 29 20  1  0
 28 23  1  0
  3 30  1  0
  4 31  1  0
  4 32  1  0
  8 33  1  0
  8 34  1  0
  9 35  1  0
  9 36  1  0
 10 37  1  0
 10 38  1  0
 11 39  1  0
 11 40  1  0
 12 41  1  6
 14 42  1  0
 15 43  1  0
 16 44  1  0
 17 45  1  0
 21 46  1  0
 22 47  1  0
 24 48  1  0
 25 49  1  0
 26 50  1  0
 27 51  1  0
M  END
>  <smiles>  (81) 
O=C(NCC(=O)N1CCCCC1c1ccccc1Cl)c1ccc2ccccc2n1

>  <score_type>  (81) 
oracle

>  <origin>  (81) 
autodockgpu

>  <m_score__min__energy>  (81) 
-8.6899999999999995

>  <m_primary>  (81) 
energy

>  <rmsd>  (81) 
7.697936681710674

>  <m_score__min__rmsd>  (81) 
7.697936681710674

>  <meeko>  (81) 
{"free_energy": -7.81, "intermolecular_energy": -9.3, "internal_energy": -2.49, "cluster_size": 12, "cluster_id": 4, "rank_in_cluster": 4}

>  <energy>  (81) 
-8.3

>  <cluster_rmsd>  (81) 
1.59

>  <cluster>  (81) 
3

$$$$

     RDKit          3D

 51 54  0  0  0  0  0  0  0  0999 V2000
  140.7950   76.6370  218.1730 O   0  0  0  0  0  0  0  0  0  0  0  0
  141.9210   76.7050  218.7490 C   0  0  0  0  0  0  0  0  0  0  0  0
  142.3620   77.9840  219.2740 N   0  0  0  0  0  0  0  0  0  0  0  0
  141.6230   79.1750  219.2010 C   0  0  0  0  0  0  0  0  0  0  0  0
  141.0370   79.8310  220.3380 C   0  0  0  0  0  0  0  0  0  0  0  0
  139.8020   80.2220  220.1420 O   0  0  0  0  0  0  0  0  0  0  0  0
  141.5860   80.1240  221.6320 N   0  0  0  0  0  0  0  0  0  0  0  0
  141.8930   81.4790  222.0180 C   0  0  0  0  0  0  0  0  0  0  0  0
  141.8130   81.6330  223.5210 C   0  0  0  0  0  0  0  0  0  0  0  0
  142.7210   80.5850  224.1320 C   0  0  0  0  0  0  0  0  0  0  0  0
  142.1530   79.2030  223.8780 C   0  0  0  0  0  0  0  0  0  0  0  0
  141.8190   78.9560  222.4640 C   0  0  1  0  0  0  0  0  0  0  0  0
  140.7580   77.9360  222.4060 C   0  0  0  0  0  0  0  0  0  0  0  0
  141.0740   76.6430  221.9590 C   0  0  0  0  0  0  0  0  0  0  0  0
  140.1410   75.6440  221.8870 C   0  0  0  0  0  0  0  0  0  0  0  0
  138.8400   75.8620  222.2510 C   0  0  0  0  0  0  0  0  0  0  0  0
  138.4930   77.1130  222.6940 C   0  0  0  0  0  0  0  0  0  0  0  0
  139.4460   78.1270  222.7660 C   0  0  0  0  0  0  0  0  0  0  0  0
  138.8950   79.6810  223.3320 Cl  0  0  0  0  0  0  0  0  0  0  0  0
  142.7680   75.5120  218.8850 C   0  0  0  0  0  0  0  0  0  0  0  0
  142.5250   74.4430  218.0510 C   0  0  0  0  0  0  0  0  0  0  0  0
  143.2830   73.2940  218.1260 C   0  0  0  0  0  0  0  0  0  0  0  0
  144.3050   73.2130  219.0580 C   0  0  0  0  0  0  0  0  0  0  0  0
  145.0790   72.0680  219.1510 C   0  0  0  0  0  0  0  0  0  0  0  0
  146.0850   72.0240  220.0870 C   0  0  0  0  0  0  0  0  0  0  0  0
  146.3310   73.1090  220.9350 C   0  0  0  0  0  0  0  0  0  0  0  0
  145.5420   74.2470  220.8230 C   0  0  0  0  0  0  0  0  0  0  0  0
  144.5300   74.3030  219.8870 C   0  0  0  0  0  0  0  0  0  0  0  0
  143.7610   75.4270  219.7860 N   0  0  0  0  0  0  0  0  0  0  0  0
  143.3250   77.9240  219.7310 H   0  0  0  0  0  0  0  0  0  0  0  0
  142.2962   79.9155  218.7444 H   0  0  0  0  0  0  0  0  0  0  0  0
  140.7220   78.8287  218.6735 H   0  0  0  0  0  0  0  0  0  0  0  0
  142.9101   81.7294  221.6821 H   0  0  0  0  0  0  0  0  0  0  0  0
  141.1621   82.1560  221.5517 H   0  0  0  0  0  0  0  0  0  0  0  0
  142.1485   82.6386  223.8144 H   0  0  0  0  0  0  0  0  0  0  0  0
  140.7783   81.5024  223.8706 H   0  0  0  0  0  0  0  0  0  0  0  0
  143.7204   80.6582  223.6782 H   0  0  0  0  0  0  0  0  0  0  0  0
  142.7932   80.7545  225.2165 H   0  0  0  0  0  0  0  0  0  0  0  0
  142.8965   78.4571  224.1957 H   0  0  0  0  0  0  0  0  0  0  0  0
  141.2163   79.1278  224.4499 H   0  0  0  0  0  0  0  0  0  0  0  0
  142.7281   78.5682  221.9812 H   0  0  0  0  0  0  0  0  0  0  0  0
  142.1087   76.4250  221.6557 H   0  0  0  0  0  0  0  0  0  0  0  0
  140.4424   74.6481  221.5301 H   0  0  0  0  0  0  0  0  0  0  0  0
  138.0933   75.0565  222.1901 H   0  0  0  0  0  0  0  0  0  0  0  0
  137.4548   77.3172  222.9946 H   0  0  0  0  0  0  0  0  0  0  0  0
  141.7122   74.5072  217.3125 H   0  0  0  0  0  0  0  0  0  0  0  0
  143.0783   72.4491  217.4520 H   0  0  0  0  0  0  0  0  0  0  0  0
  144.8922   71.2101  218.4884 H   0  0  0  0  0  0  0  0  0  0  0  0
  146.7069   71.1205  220.1705 H   0  0  0  0  0  0  0  0  0  0  0  0
  147.1384   73.0618  221.6806 H   0  0  0  0  0  0  0  0  0  0  0  0
  145.7250   75.1073  221.4836 H   0  0  0  0  0  0  0  0  0  0  0  0
  1  2  2  0
  2  3  1  0
  3  4  1  0
  4  5  1  0
  5  6  2  0
  5  7  1  0
  7  8  1  0
  8  9  1  0
  9 10  1  0
 10 11  1  0
 11 12  1  0
 12 13  1  0
 13 14  2  0
 14 15  1  0
 15 16  2  0
 16 17  1  0
 17 18  2  0
 18 19  1  0
  2 20  1  0
 20 21  2  0
 21 22  1  0
 22 23  2  0
 23 24  1  0
 24 25  2  0
 25 26  1  0
 26 27  2  0
 27 28  1  0
 28 29  2  0
 12  7  1  0
 18 13  1  0
 29 20  1  0
 28 23  1  0
  3 30  1  0
  4 31  1  0
  4 32  1  0
  8 33  1  0
  8 34  1  0
  9 35  1  0
  9 36  1  0
 10 37  1  0
 10 38  1  0
 11 39  1  0
 11 40  1  0
 12 41  1  6
 14 42  1  0
 15 43  1  0
 16 44  1  0
 17 45  1  0
 21 46  1  0
 22 47  1  0
 24 48  1  0
 25 49  1  0
 26 50  1  0
 27 51  1  0
M  END
>  <smiles>  (82) 
O=C(NCC(=O)N1CCCCC1c1ccccc1Cl)c1ccc2ccccc2n1

>  <score_type>  (82) 
oracle

>  <origin>  (82) 
autodockgpu

>  <m_score__min__energy>  (82) 
-8.6899999999999995

>  <m_primary>  (82) 
energy

>  <rmsd>  (82) 
7.703428962355992

>  <m_score__min__rmsd>  (82) 
7.703428962355992

>  <meeko>  (82) 
{"free_energy": -7.8, "intermolecular_energy": -9.29, "internal_energy": -2.46, "cluster_size": 12, "cluster_id": 4, "rank_in_cluster": 8}

>  <energy>  (82) 
-7.94

>  <cluster_rmsd>  (82) 
1.71

>  <cluster>  (82) 
3

$$$$

     RDKit          3D

 51 54  0  0  0  0  0  0  0  0999 V2000
  141.0740   71.5270  221.4010 O   0  0  0  0  0  0  0  0  0  0  0  0
  140.4860   72.0950  222.3700 C   0  0  0  0  0  0  0  0  0  0  0  0
  140.0570   73.4720  222.2150 N   0  0  0  0  0  0  0  0  0  0  0  0
  140.2350   74.2400  221.0540 C   0  0  0  0  0  0  0  0  0  0  0  0
  140.9660   75.4770  221.0080 C   0  0  0  0  0  0  0  0  0  0  0  0
  141.2140   75.9880  222.1880 O   0  0  0  0  0  0  0  0  0  0  0  0
  141.4550   76.2300  219.8870 N   0  0  0  0  0  0  0  0  0  0  0  0
  141.1400   77.6290  219.7380 C   0  0  0  0  0  0  0  0  0  0  0  0
  142.2190   78.3350  218.9480 C   0  0  0  0  0  0  0  0  0  0  0  0
  142.3850   77.5860  217.6400 C   0  0  0  0  0  0  0  0  0  0  0  0
  142.9690   76.2130  217.9070 C   0  0  0  0  0  0  0  0  0  0  0  0
  142.2440   75.4570  218.9420 C   0  0  1  0  0  0  0  0  0  0  0  0
  143.1750   74.4950  219.5570 C   0  0  0  0  0  0  0  0  0  0  0  0
  144.2650   74.9780  220.3000 C   0  0  0  0  0  0  0  0  0  0  0  0
  145.1650   74.1440  220.9060 C   0  0  0  0  0  0  0  0  0  0  0  0
  145.0430   72.7840  220.8150 C   0  0  0  0  0  0  0  0  0  0  0  0
  143.9910   72.2750  220.0970 C   0  0  0  0  0  0  0  0  0  0  0  0
  143.0770   73.1280  219.4820 C   0  0  0  0  0  0  0  0  0  0  0  0
  141.7840   72.3760  218.5860 Cl  0  0  0  0  0  0  0  0  0  0  0  0
  140.2430   71.3750  223.6270 C   0  0  0  0  0  0  0  0  0  0  0  0
  139.5800   70.1690  223.5680 C   0  0  0  0  0  0  0  0  0  0  0  0
  139.3200   69.4430  224.7110 C   0  0  0  0  0  0  0  0  0  0  0  0
  139.7310   69.9350  225.9380 C   0  0  0  0  0  0  0  0  0  0  0  0
  139.4810   69.2230  227.0990 C   0  0  0  0  0  0  0  0  0  0  0  0
  139.9050   69.7420  228.2990 C   0  0  0  0  0  0  0  0  0  0  0  0
  140.5780   70.9670  228.3580 C   0  0  0  0  0  0  0  0  0  0  0  0
  140.8180   71.6640  227.1820 C   0  0  0  0  0  0  0  0  0  0  0  0
  140.3980   71.1530  225.9710 C   0  0  0  0  0  0  0  0  0  0  0  0
  140.6410   71.8470  224.8210 N   0  0  0  0  0  0  0  0  0  0  0  0
  139.5810   73.8490  223.0940 H   0  0  0  0  0  0  0  0  0  0  0  0
  140.7299   73.5752  220.3308 H   0  0  0  0  0  0  0  0  0  0  0  0
  139.2093   74.5991  220.8840 H   0  0  0  0  0  0  0  0  0  0  0  0
  140.1804   77.7295  219.2097 H   0  0  0  0  0  0  0  0  0  0  0  0
  141.0738   78.0864  220.7362 H   0  0  0  0  0  0  0  0  0  0  0  0
  141.9211   79.3753  218.7506 H   0  0  0  0  0  0  0  0  0  0  0  0
  143.1647   78.3513  219.5096 H   0  0  0  0  0  0  0  0  0  0  0  0
  141.4042   77.4778  217.1538 H   0  0  0  0  0  0  0  0  0  0  0  0
  143.0638   78.1485  216.9822 H   0  0  0  0  0  0  0  0  0  0  0  0
  142.9424   75.6354  216.9712 H   0  0  0  0  0  0  0  0  0  0  0  0
  143.9944   76.3638  218.2754 H   0  0  0  0  0  0  0  0  0  0  0  0
  141.4349   74.9113  218.4346 H   0  0  0  0  0  0  0  0  0  0  0  0
  144.3999   76.0653  220.3982 H   0  0  0  0  0  0  0  0  0  0  0  0
  146.0013   74.5744  221.4764 H   0  0  0  0  0  0  0  0  0  0  0  0
  145.7686   72.1174  221.3042 H   0  0  0  0  0  0  0  0  0  0  0  0
  143.8681   71.1857  220.0061 H   0  0  0  0  0  0  0  0  0  0  0  0
  139.2526   69.7787  222.5930 H   0  0  0  0  0  0  0  0  0  0  0  0
  138.7904   68.4809  224.6484 H   0  0  0  0  0  0  0  0  0  0  0  0
  138.9524   68.2591  227.0616 H   0  0  0  0  0  0  0  0  0  0  0  0
  139.7121   69.1852  229.2278 H   0  0  0  0  0  0  0  0  0  0  0  0
  140.9127   71.3727  229.3241 H   0  0  0  0  0  0  0  0  0  0  0  0
  141.3457   72.6286  227.2155 H   0  0  0  0  0  0  0  0  0  0  0  0
  1  2  2  0
  2  3  1  0
  3  4  1  0
  4  5  1  0
  5  6  2  0
  5  7  1  0
  7  8  1  0
  8  9  1  0
  9 10  1  0
 10 11  1  0
 11 12  1  0
 12 13  1  0
 13 14  2  0
 14 15  1  0
 15 16  2  0
 16 17  1  0
 17 18  2  0
 18 19  1  0
  2 20  1  0
 20 21  2  0
 21 22  1  0
 22 23  2  0
 23 24  1  0
 24 25  2  0
 25 26  1  0
 26 27  2  0
 27 28  1  0
 28 29  2  0
 12  7  1  0
 18 13  1  0
 29 20  1  0
 28 23  1  0
  3 30  1  0
  4 31  1  0
  4 32  1  0
  8 33  1  0
  8 34  1  0
  9 35  1  0
  9 36  1  0
 10 37  1  0
 10 38  1  0
 11 39  1  0
 11 40  1  0
 12 41  1  6
 14 42  1  0
 15 43  1  0
 16 44  1  0
 17 45  1  0
 21 46  1  0
 22 47  1  0
 24 48  1  0
 25 49  1  0
 26 50  1  0
 27 51  1  0
M  END
>  <smiles>  (83) 
O=C(NCC(=O)N1CCCCC1c1ccccc1Cl)c1ccc2ccccc2n1

>  <score_type>  (83) 
oracle

>  <origin>  (83) 
autodockgpu

>  <m_score__min__energy>  (83) 
-8.6899999999999995

>  <m_primary>  (83) 
energy

>  <rmsd>  (83) 
2.267278437542613

>  <m_score__min__rmsd>  (83) 
2.267278437542613

>  <meeko>  (83) 
{"free_energy": -8.48, "intermolecular_energy": -9.97, "internal_energy": -2.03, "cluster_size": 16, "cluster_id": 2, "rank_in_cluster": 8}

>  <energy>  (83) 
-7.83

>  <cluster_rmsd>  (83) 
0.0

>  <cluster>  (83) 
4

$$$$

     RDKit          3D

 51 54  0  0  0  0  0  0  0  0999 V2000
  140.6770   76.6750  218.1780 O   0  0  0  0  0  0  0  0  0  0  0  0
  141.8000   76.7580  218.7590 C   0  0  0  0  0  0  0  0  0  0  0  0
  142.2210   78.0420  219.2870 N   0  0  0  0  0  0  0  0  0  0  0  0
  141.4670   79.2230  219.2130 C   0  0  0  0  0  0  0  0  0  0  0  0
  140.9410   79.9180  220.3560 C   0  0  0  0  0  0  0  0  0  0  0  0
  139.7310   80.3870  220.1790 O   0  0  0  0  0  0  0  0  0  0  0  0
  141.5290   80.1790  221.6410 N   0  0  0  0  0  0  0  0  0  0  0  0
  141.8450   81.5240  222.0530 C   0  0  0  0  0  0  0  0  0  0  0  0
  141.8100   81.6380  223.5610 C   0  0  0  0  0  0  0  0  0  0  0  0
  142.7380   80.5770  224.1170 C   0  0  0  0  0  0  0  0  0  0  0  0
  142.1640   79.2000  223.8430 C   0  0  0  0  0  0  0  0  0  0  0  0
  141.7890   78.9890  222.4350 C   0  0  1  0  0  0  0  0  0  0  0  0
  140.7280   77.9680  222.3820 C   0  0  0  0  0  0  0  0  0  0  0  0
  141.0440   76.6760  221.9340 C   0  0  0  0  0  0  0  0  0  0  0  0
  140.1110   75.6760  221.8660 C   0  0  0  0  0  0  0  0  0  0  0  0
  138.8120   75.8930  222.2360 C   0  0  0  0  0  0  0  0  0  0  0  0
  138.4660   77.1440  222.6790 C   0  0  0  0  0  0  0  0  0  0  0  0
  139.4180   78.1580  222.7470 C   0  0  0  0  0  0  0  0  0  0  0  0
  138.8680   79.7120  223.3150 Cl  0  0  0  0  0  0  0  0  0  0  0  0
  142.6630   75.5760  218.8970 C   0  0  0  0  0  0  0  0  0  0  0  0
  142.4230   74.4970  218.0760 C   0  0  0  0  0  0  0  0  0  0  0  0
  143.1950   73.3570  218.1550 C   0  0  0  0  0  0  0  0  0  0  0  0
  144.2290   73.2970  219.0750 C   0  0  0  0  0  0  0  0  0  0  0  0
  145.0170   72.1630  219.1710 C   0  0  0  0  0  0  0  0  0  0  0  0
  146.0340   72.1400  220.0950 C   0  0  0  0  0  0  0  0  0  0  0  0
  146.2770   73.2360  220.9290 C   0  0  0  0  0  0  0  0  0  0  0  0
  145.4740   74.3630  220.8150 C   0  0  0  0  0  0  0  0  0  0  0  0
  144.4500   74.3990  219.8910 C   0  0  0  0  0  0  0  0  0  0  0  0
  143.6670   75.5130  219.7870 N   0  0  0  0  0  0  0  0  0  0  0  0
  143.1830   77.9950  219.7480 H   0  0  0  0  0  0  0  0  0  0  0  0
  142.1050   79.9508  218.6902 H   0  0  0  0  0  0  0  0  0  0  0  0
  140.5403   78.8488  218.7534 H   0  0  0  0  0  0  0  0  0  0  0  0
  142.8510   81.7859  221.6934 H   0  0  0  0  0  0  0  0  0  0  0  0
  141.0993   82.2112  221.6268 H   0  0  0  0  0  0  0  0  0  0  0  0
  142.1521   82.6365  223.8707 H   0  0  0  0  0  0  0  0  0  0  0  0
  140.7865   81.4951  223.9378 H   0  0  0  0  0  0  0  0  0  0  0  0
  143.7233   80.6646  223.6358 H   0  0  0  0  0  0  0  0  0  0  0  0
  142.8429   80.7181  225.2029 H   0  0  0  0  0  0  0  0  0  0  0  0
  142.9174   78.4476  224.1190 H   0  0  0  0  0  0  0  0  0  0  0  0
  141.2445   79.1084  224.4397 H   0  0  0  0  0  0  0  0  0  0  0  0
  142.6837   78.6157  221.9152 H   0  0  0  0  0  0  0  0  0  0  0  0
  142.0777   76.4590  221.6267 H   0  0  0  0  0  0  0  0  0  0  0  0
  140.4114   74.6804  221.5074 H   0  0  0  0  0  0  0  0  0  0  0  0
  138.0659   75.0867  222.1798 H   0  0  0  0  0  0  0  0  0  0  0  0
  137.4287   77.3479  222.9829 H   0  0  0  0  0  0  0  0  0  0  0  0
  141.6022   74.5451  217.3453 H   0  0  0  0  0  0  0  0  0  0  0  0
  142.9914   72.5024  217.4930 H   0  0  0  0  0  0  0  0  0  0  0  0
  144.8325   71.2961  218.5196 H   0  0  0  0  0  0  0  0  0  0  0  0
  146.6674   71.2447  220.1800 H   0  0  0  0  0  0  0  0  0  0  0  0
  147.0934   73.2056  221.6655 H   0  0  0  0  0  0  0  0  0  0  0  0
  145.6552   75.2318  221.4649 H   0  0  0  0  0  0  0  0  0  0  0  0
  1  2  2  0
  2  3  1  0
  3  4  1  0
  4  5  1  0
  5  6  2  0
  5  7  1  0
  7  8  1  0
  8  9  1  0
  9 10  1  0
 10 11  1  0
 11 12  1  0
 12 13  1  0
 13 14  2  0
 14 15  1  0
 15 16  2  0
 16 17  1  0
 17 18  2  0
 18 19  1  0
  2 20  1  0
 20 21  2  0
 21 22  1  0
 22 23  2  0
 23 24  1  0
 24 25  2  0
 25 26  1  0
 26 27  2  0
 27 28  1  0
 28 29  2  0
 12  7  1  0
 18 13  1  0
 29 20  1  0
 28 23  1  0
  3 30  1  0
  4 31  1  0
  4 32  1  0
  8 33  1  0
  8 34  1  0
  9 35  1  0
  9 36  1  0
 10 37  1  0
 10 38  1  0
 11 39  1  0
 11 40  1  0
 12 41  1  6
 14 42  1  0
 15 43  1  0
 16 44  1  0
 17 45  1  0
 21 46  1  0
 22 47  1  0
 24 48  1  0
 25 49  1  0
 26 50  1  0
 27 51  1  0
M  END
>  <smiles>  (84) 
O=C(NCC(=O)N1CCCCC1c1ccccc1Cl)c1ccc2ccccc2n1

>  <score_type>  (84) 
oracle

>  <origin>  (84) 
autodockgpu

>  <m_score__min__energy>  (84) 
-8.6899999999999995

>  <m_primary>  (84) 
energy

>  <rmsd>  (84) 
7.699163864930103

>  <m_score__min__rmsd>  (84) 
7.699163864930103

>  <meeko>  (84) 
{"free_energy": -7.83, "intermolecular_energy": -9.32, "internal_energy": -2.48, "cluster_size": 12, "cluster_id": 4, "rank_in_cluster": 1}

>  <energy>  (84) 
-7.83

>  <cluster_rmsd>  (84) 
0.1

>  <cluster>  (84) 
4

$$$$

     RDKit          3D

 51 54  0  0  0  0  0  0  0  0999 V2000
  141.0500   71.4200  221.3640 O   0  0  0  0  0  0  0  0  0  0  0  0
  140.5210   72.0160  222.3500 C   0  0  0  0  0  0  0  0  0  0  0  0
  140.1370   73.4070  222.2020 N   0  0  0  0  0  0  0  0  0  0  0  0
  140.2980   74.1600  221.0290 C   0  0  0  0  0  0  0  0  0  0  0  0
  141.1100   75.3420  220.9340 C   0  0  0  0  0  0  0  0  0  0  0  0
  141.4600   75.8370  222.0960 O   0  0  0  0  0  0  0  0  0  0  0  0
  141.5870   76.0570  219.7840 N   0  0  0  0  0  0  0  0  0  0  0  0
  141.2380   77.4400  219.5710 C   0  0  0  0  0  0  0  0  0  0  0  0
  142.3040   78.1360  218.7540 C   0  0  0  0  0  0  0  0  0  0  0  0
  142.4960   77.3350  217.4820 C   0  0  0  0  0  0  0  0  0  0  0  0
  143.1120   75.9890  217.8130 C   0  0  0  0  0  0  0  0  0  0  0  0
  142.4000   75.2620  218.8770 C   0  0  1  0  0  0  0  0  0  0  0  0
  143.3510   74.3530  219.5390 C   0  0  0  0  0  0  0  0  0  0  0  0
  144.4240   74.8950  220.2640 C   0  0  0  0  0  0  0  0  0  0  0  0
  145.3410   74.1110  220.9110 C   0  0  0  0  0  0  0  0  0  0  0  0
  145.2540   72.7460  220.8800 C   0  0  0  0  0  0  0  0  0  0  0  0
  144.2190   72.1800  220.1820 C   0  0  0  0  0  0  0  0  0  0  0  0
  143.2870   72.9810  219.5240 C   0  0  0  0  0  0  0  0  0  0  0  0
  142.0180   72.1580  218.6580 Cl  0  0  0  0  0  0  0  0  0  0  0  0
  140.3000   71.3120  223.6210 C   0  0  0  0  0  0  0  0  0  0  0  0
  139.6510   70.0980  223.5870 C   0  0  0  0  0  0  0  0  0  0  0  0
  139.4120   69.3870  224.7440 C   0  0  0  0  0  0  0  0  0  0  0  0
  139.8310   69.9020  225.9590 C   0  0  0  0  0  0  0  0  0  0  0  0
  139.6020   69.2050  227.1340 C   0  0  0  0  0  0  0  0  0  0  0  0
  140.0320   69.7480  228.3210 C   0  0  0  0  0  0  0  0  0  0  0  0
  140.6900   70.9820  228.3540 C   0  0  0  0  0  0  0  0  0  0  0  0
  140.9090   71.6640  227.1640 C   0  0  0  0  0  0  0  0  0  0  0  0
  140.4820   71.1290  225.9660 C   0  0  0  0  0  0  0  0  0  0  0  0
  140.7040   71.8070  224.8020 N   0  0  0  0  0  0  0  0  0  0  0  0
  139.7080   73.8060  223.0950 H   0  0  0  0  0  0  0  0  0  0  0  0
  140.7004   73.4618  220.2803 H   0  0  0  0  0  0  0  0  0  0  0  0
  139.2917   74.5903  220.9190 H   0  0  0  0  0  0  0  0  0  0  0  0
  140.2790   77.4928  219.0348 H   0  0  0  0  0  0  0  0  0  0  0  0
  141.1550   77.9402  220.5472 H   0  0  0  0  0  0  0  0  0  0  0  0
  141.9818   79.1588  218.5091 H   0  0  0  0  0  0  0  0  0  0  0  0
  143.2459   78.1996  219.3185 H   0  0  0  0  0  0  0  0  0  0  0  0
  141.5212   77.1813  216.9961 H   0  0  0  0  0  0  0  0  0  0  0  0
  143.1648   77.8845  216.8032 H   0  0  0  0  0  0  0  0  0  0  0  0
  143.1049   75.3700  216.9037 H   0  0  0  0  0  0  0  0  0  0  0  0
  144.1312   76.1814  218.1793 H   0  0  0  0  0  0  0  0  0  0  0  0
  141.6077   74.6743  218.3903 H   0  0  0  0  0  0  0  0  0  0  0  0
  144.5318   75.9886  220.3140 H   0  0  0  0  0  0  0  0  0  0  0  0
  146.1628   74.5872  221.4659 H   0  0  0  0  0  0  0  0  0  0  0  0
  145.9939   72.1203  221.4006 H   0  0  0  0  0  0  0  0  0  0  0  0
  144.1231   71.0850  220.1408 H   0  0  0  0  0  0  0  0  0  0  0  0
  139.3180   69.6890  222.6217 H   0  0  0  0  0  0  0  0  0  0  0  0
  138.8926   68.4183  224.7020 H   0  0  0  0  0  0  0  0  0  0  0  0
  139.0852   68.2341  227.1173 H   0  0  0  0  0  0  0  0  0  0  0  0
  139.8559   69.2034  229.2604 H   0  0  0  0  0  0  0  0  0  0  0  0
  141.0296   71.4068  229.3101 H   0  0  0  0  0  0  0  0  0  0  0  0
  141.4253   72.6352  227.1767 H   0  0  0  0  0  0  0  0  0  0  0  0
  1  2  2  0
  2  3  1  0
  3  4  1  0
  4  5  1  0
  5  6  2  0
  5  7  1  0
  7  8  1  0
  8  9  1  0
  9 10  1  0
 10 11  1  0
 11 12  1  0
 12 13  1  0
 13 14  2  0
 14 15  1  0
 15 16  2  0
 16 17  1  0
 17 18  2  0
 18 19  1  0
  2 20  1  0
 20 21  2  0
 21 22  1  0
 22 23  2  0
 23 24  1  0
 24 25  2  0
 25 26  1  0
 26 27  2  0
 27 28  1  0
 28 29  2  0
 12  7  1  0
 18 13  1  0
 29 20  1  0
 28 23  1  0
  3 30  1  0
  4 31  1  0
  4 32  1  0
  8 33  1  0
  8 34  1  0
  9 35  1  0
  9 36  1  0
 10 37  1  0
 10 38  1  0
 11 39  1  0
 11 40  1  0
 12 41  1  6
 14 42  1  0
 15 43  1  0
 16 44  1  0
 17 45  1  0
 21 46  1  0
 22 47  1  0
 24 48  1  0
 25 49  1  0
 26 50  1  0
 27 51  1  0
M  END
>  <smiles>  (85) 
O=C(NCC(=O)N1CCCCC1c1ccccc1Cl)c1ccc2ccccc2n1

>  <score_type>  (85) 
oracle

>  <origin>  (85) 
autodockgpu

>  <m_score__min__energy>  (85) 
-8.6899999999999995

>  <m_primary>  (85) 
energy

>  <rmsd>  (85) 
2.268490958840978

>  <m_score__min__rmsd>  (85) 
2.268490958840978

>  <meeko>  (85) 
{"free_energy": -8.5, "intermolecular_energy": -9.99, "internal_energy": -2.04, "cluster_size": 16, "cluster_id": 2, "rank_in_cluster": 7}

>  <energy>  (85) 
-7.82

>  <cluster_rmsd>  (85) 
0.05

>  <cluster>  (85) 
4

$$$$

     RDKit          3D

 51 54  0  0  0  0  0  0  0  0999 V2000
  141.5840   71.8690  221.6390 O   0  0  0  0  0  0  0  0  0  0  0  0
  140.6680   72.2630  222.4220 C   0  0  0  0  0  0  0  0  0  0  0  0
  139.9470   73.4790  222.0980 N   0  0  0  0  0  0  0  0  0  0  0  0
  140.1790   74.2670  220.9600 C   0  0  0  0  0  0  0  0  0  0  0  0
  141.0540   75.4080  220.9330 C   0  0  0  0  0  0  0  0  0  0  0  0
  141.4520   75.7970  222.1190 O   0  0  0  0  0  0  0  0  0  0  0  0
  141.5490   76.1780  219.8270 N   0  0  0  0  0  0  0  0  0  0  0  0
  141.2140   77.5730  219.6840 C   0  0  0  0  0  0  0  0  0  0  0  0
  142.2940   78.3030  218.9170 C   0  0  0  0  0  0  0  0  0  0  0  0
  142.4920   77.5680  217.6060 C   0  0  0  0  0  0  0  0  0  0  0  0
  143.0940   76.2020  217.8700 C   0  0  0  0  0  0  0  0  0  0  0  0
  142.3640   75.4250  218.8870 C   0  0  1  0  0  0  0  0  0  0  0  0
  143.3020   74.4740  219.5100 C   0  0  0  0  0  0  0  0  0  0  0  0
  144.4020   74.9680  220.2280 C   0  0  0  0  0  0  0  0  0  0  0  0
  145.3080   74.1440  220.8390 C   0  0  0  0  0  0  0  0  0  0  0  0
  145.1820   72.7820  220.7770 C   0  0  0  0  0  0  0  0  0  0  0  0
  144.1190   72.2630  220.0840 C   0  0  0  0  0  0  0  0  0  0  0  0
  143.1990   73.1050  219.4630 C   0  0  0  0  0  0  0  0  0  0  0  0
  141.8920   72.3390  218.6010 Cl  0  0  0  0  0  0  0  0  0  0  0  0
  140.3400   71.5030  223.6360 C   0  0  0  0  0  0  0  0  0  0  0  0
  139.5910   70.3550  223.5030 C   0  0  0  0  0  0  0  0  0  0  0  0
  139.2490   69.5970  224.6010 C   0  0  0  0  0  0  0  0  0  0  0  0
  139.6660   69.9960  225.8610 C   0  0  0  0  0  0  0  0  0  0  0  0
  139.3340   69.2490  226.9790 C   0  0  0  0  0  0  0  0  0  0  0  0
  139.7660   69.6760  228.2120 C   0  0  0  0  0  0  0  0  0  0  0  0
  140.5260   70.8420  228.3470 C   0  0  0  0  0  0  0  0  0  0  0  0
  140.8470   71.5750  227.2120 C   0  0  0  0  0  0  0  0  0  0  0  0
  140.4200   71.1570  225.9690 C   0  0  0  0  0  0  0  0  0  0  0  0
  140.7420   71.8850  224.8600 N   0  0  0  0  0  0  0  0  0  0  0  0
  139.2050   73.7170  222.8280 H   0  0  0  0  0  0  0  0  0  0  0  0
  140.5652   73.5778  220.1946 H   0  0  0  0  0  0  0  0  0  0  0  0
  139.1997   74.7536  220.8413 H   0  0  0  0  0  0  0  0  0  0  0  0
  140.2615   77.6624  219.1411 H   0  0  0  0  0  0  0  0  0  0  0  0
  141.1247   78.0210  220.6847 H   0  0  0  0  0  0  0  0  0  0  0  0
  141.9827   79.3402  218.7237 H   0  0  0  0  0  0  0  0  0  0  0  0
  143.2304   78.3296  219.4935 H   0  0  0  0  0  0  0  0  0  0  0  0
  141.5206   77.4483  217.1039 H   0  0  0  0  0  0  0  0  0  0  0  0
  143.1719   78.1470  216.9637 H   0  0  0  0  0  0  0  0  0  0  0  0
  143.0917   75.6326  216.9288 H   0  0  0  0  0  0  0  0  0  0  0  0
  144.1110   76.3655  218.2560 H   0  0  0  0  0  0  0  0  0  0  0  0
  141.5721   74.8708  218.3620 H   0  0  0  0  0  0  0  0  0  0  0  0
  144.5410   76.0566  220.3024 H   0  0  0  0  0  0  0  0  0  0  0  0
  146.1525   74.5838  221.3898 H   0  0  0  0  0  0  0  0  0  0  0  0
  145.9127   72.1232  221.2690 H   0  0  0  0  0  0  0  0  0  0  0  0
  143.9914   71.1724  220.0177 H   0  0  0  0  0  0  0  0  0  0  0  0
  139.2603   70.0380  222.5029 H   0  0  0  0  0  0  0  0  0  0  0  0
  138.6499   68.6826  224.4788 H   0  0  0  0  0  0  0  0  0  0  0  0
  138.7357   68.3310  226.8820 H   0  0  0  0  0  0  0  0  0  0  0  0
  139.5096   69.0908  229.1074 H   0  0  0  0  0  0  0  0  0  0  0  0
  140.8652   71.1743  229.3393 H   0  0  0  0  0  0  0  0  0  0  0  0
  141.4449   72.4937  227.3048 H   0  0  0  0  0  0  0  0  0  0  0  0
  1  2  2  0
  2  3  1  0
  3  4  1  0
  4  5  1  0
  5  6  2  0
  5  7  1  0
  7  8  1  0
  8  9  1  0
  9 10  1  0
 10 11  1  0
 11 12  1  0
 12 13  1  0
 13 14  2  0
 14 15  1  0
 15 16  2  0
 16 17  1  0
 17 18  2  0
 18 19  1  0
  2 20  1  0
 20 21  2  0
 21 22  1  0
 22 23  2  0
 23 24  1  0
 24 25  2  0
 25 26  1  0
 26 27  2  0
 27 28  1  0
 28 29  2  0
 12  7  1  0
 18 13  1  0
 29 20  1  0
 28 23  1  0
  3 30  1  0
  4 31  1  0
  4 32  1  0
  8 33  1  0
  8 34  1  0
  9 35  1  0
  9 36  1  0
 10 37  1  0
 10 38  1  0
 11 39  1  0
 11 40  1  0
 12 41  1  6
 14 42  1  0
 15 43  1  0
 16 44  1  0
 17 45  1  0
 21 46  1  0
 22 47  1  0
 24 48  1  0
 25 49  1  0
 26 50  1  0
 27 51  1  0
M  END
>  <smiles>  (86) 
O=C(NCC(=O)N1CCCCC1c1ccccc1Cl)c1ccc2ccccc2n1

>  <score_type>  (86) 
oracle

>  <origin>  (86) 
autodockgpu

>  <m_score__min__energy>  (86) 
-8.6899999999999995

>  <m_primary>  (86) 
energy

>  <rmsd>  (86) 
2.318122018209911

>  <m_score__min__rmsd>  (86) 
2.318122018209911

>  <meeko>  (86) 
{"free_energy": -8.56, "intermolecular_energy": -10.05, "internal_energy": -1.97, "cluster_size": 16, "cluster_id": 2, "rank_in_cluster": 1}

>  <energy>  (86) 
-7.81

>  <cluster_rmsd>  (86) 
0.03

>  <cluster>  (86) 
4

$$$$

     RDKit          3D

 51 54  0  0  0  0  0  0  0  0999 V2000
  140.1130   71.1910  221.2140 O   0  0  0  0  0  0  0  0  0  0  0  0
  139.9760   71.8740  222.2730 C   0  0  0  0  0  0  0  0  0  0  0  0
  139.7850   73.3070  222.1610 N   0  0  0  0  0  0  0  0  0  0  0  0
  139.7300   74.0140  220.9500 C   0  0  0  0  0  0  0  0  0  0  0  0
  140.7970   74.0500  219.9880 C   0  0  0  0  0  0  0  0  0  0  0  0
  140.4140   74.4130  218.7880 O   0  0  0  0  0  0  0  0  0  0  0  0
  142.1940   73.7500  220.1320 N   0  0  0  0  0  0  0  0  0  0  0  0
  142.6850   72.4030  219.9770 C   0  0  0  0  0  0  0  0  0  0  0  0
  144.1260   72.4130  219.5200 C   0  0  0  0  0  0  0  0  0  0  0  0
  144.9080   73.2560  220.5070 C   0  0  0  0  0  0  0  0  0  0  0  0
  144.4820   74.7060  220.3930 C   0  0  0  0  0  0  0  0  0  0  0  0
  143.0230   74.8970  220.4670 C   0  0  1  0  0  0  0  0  0  0  0  0
  142.6780   76.1380  219.7510 C   0  0  0  0  0  0  0  0  0  0  0  0
  143.2290   76.3710  218.4810 C   0  0  0  0  0  0  0  0  0  0  0  0
  142.9460   77.4970  217.7560 C   0  0  0  0  0  0  0  0  0  0  0  0
  142.1020   78.4590  218.2410 C   0  0  0  0  0  0  0  0  0  0  0  0
  141.5440   78.2650  219.4780 C   0  0  0  0  0  0  0  0  0  0  0  0
  141.8340   77.1180  220.2140 C   0  0  0  0  0  0  0  0  0  0  0  0
  141.0790   76.9780  221.7780 Cl  0  0  0  0  0  0  0  0  0  0  0  0
  140.0090   71.2270  223.5920 C   0  0  0  0  0  0  0  0  0  0  0  0
  139.5610   69.9280  223.6910 C   0  0  0  0  0  0  0  0  0  0  0  0
  139.5650   69.2640  224.8990 C   0  0  0  0  0  0  0  0  0  0  0  0
  140.0280   69.9130  226.0320 C   0  0  0  0  0  0  0  0  0  0  0  0
  140.0410   69.2650  227.2560 C   0  0  0  0  0  0  0  0  0  0  0  0
  140.5080   69.9410  228.3580 C   0  0  0  0  0  0  0  0  0  0  0  0
  140.9620   71.2600  228.2560 C   0  0  0  0  0  0  0  0  0  0  0  0
  140.9400   71.8900  227.0190 C   0  0  0  0  0  0  0  0  0  0  0  0
  140.4740   71.2220  225.9060 C   0  0  0  0  0  0  0  0  0  0  0  0
  140.4570   71.8510  224.6940 N   0  0  0  0  0  0  0  0  0  0  0  0
  139.6880   73.7790  223.1150 H   0  0  0  0  0  0  0  0  0  0  0  0
  138.8576   73.6148  220.4118 H   0  0  0  0  0  0  0  0  0  0  0  0
  139.7441   75.0517  221.3146 H   0  0  0  0  0  0  0  0  0  0  0  0
  142.6150   71.8791  220.9417 H   0  0  0  0  0  0  0  0  0  0  0  0
  142.0757   71.8876  219.2200 H   0  0  0  0  0  0  0  0  0  0  0  0
  144.5227   71.3872  219.5044 H   0  0  0  0  0  0  0  0  0  0  0  0
  144.2087   72.8270  218.5042 H   0  0  0  0  0  0  0  0  0  0  0  0
  144.7134   72.8973  221.5285 H   0  0  0  0  0  0  0  0  0  0  0  0
  145.9821   73.1740  220.2842 H   0  0  0  0  0  0  0  0  0  0  0  0
  144.9493   75.2717  221.2125 H   0  0  0  0  0  0  0  0  0  0  0  0
  144.8053   75.0616  219.4035 H   0  0  0  0  0  0  0  0  0  0  0  0
  142.7646   75.0028  221.5310 H   0  0  0  0  0  0  0  0  0  0  0  0
  143.9122   75.6224  218.0535 H   0  0  0  0  0  0  0  0  0  0  0  0
  143.4053   77.6311  216.7655 H   0  0  0  0  0  0  0  0  0  0  0  0
  141.8777   79.3624  217.6548 H   0  0  0  0  0  0  0  0  0  0  0  0
  140.8615   79.0213  219.8931 H   0  0  0  0  0  0  0  0  0  0  0  0
  139.1941   69.4122  222.7914 H   0  0  0  0  0  0  0  0  0  0  0  0
  139.2034   68.2271  224.9629 H   0  0  0  0  0  0  0  0  0  0  0  0
  139.6841   68.2283  227.3446 H   0  0  0  0  0  0  0  0  0  0  0  0
  140.5249   69.4367  229.3354 H   0  0  0  0  0  0  0  0  0  0  0  0
  141.3320   71.7917  229.1450 H   0  0  0  0  0  0  0  0  0  0  0  0
  141.2959   72.9267  226.9262 H   0  0  0  0  0  0  0  0  0  0  0  0
  1  2  2  0
  2  3  1  0
  3  4  1  0
  4  5  1  0
  5  6  2  0
  5  7  1  0
  7  8  1  0
  8  9  1  0
  9 10  1  0
 10 11  1  0
 11 12  1  0
 12 13  1  0
 13 14  2  0
 14 15  1  0
 15 16  2  0
 16 17  1  0
 17 18  2  0
 18 19  1  0
  2 20  1  0
 20 21  2  0
 21 22  1  0
 22 23  2  0
 23 24  1  0
 24 25  2  0
 25 26  1  0
 26 27  2  0
 27 28  1  0
 28 29  2  0
 12  7  1  0
 18 13  1  0
 29 20  1  0
 28 23  1  0
  3 30  1  0
  4 31  1  0
  4 32  1  0
  8 33  1  0
  8 34  1  0
  9 35  1  0
  9 36  1  0
 10 37  1  0
 10 38  1  0
 11 39  1  0
 11 40  1  0
 12 41  1  1
 14 42  1  0
 15 43  1  0
 16 44  1  0
 17 45  1  0
 21 46  1  0
 22 47  1  0
 24 48  1  0
 25 49  1  0
 26 50  1  0
 27 51  1  0
M  END
>  <smiles>  (87) 
O=C(NCC(=O)N1CCCCC1c1ccccc1Cl)c1ccc2ccccc2n1

>  <score_type>  (87) 
oracle

>  <origin>  (87) 
autodockgpu

>  <m_score__min__energy>  (87) 
-8.6899999999999995

>  <m_primary>  (87) 
energy

>  <rmsd>  (87) 
2.965730211104588

>  <m_score__min__rmsd>  (87) 
2.965730211104588

>  <meeko>  (87) 
{"free_energy": -8.41, "intermolecular_energy": -9.91, "internal_energy": -1.97, "cluster_size": 13, "cluster_id": 3, "rank_in_cluster": 9}

>  <energy>  (87) 
-7.81

>  <cluster_rmsd>  (87) 
0.15

>  <cluster>  (87) 
4

$$$$

     RDKit          3D

 51 54  0  0  0  0  0  0  0  0999 V2000
  139.8330   73.4260  222.4520 O   0  0  0  0  0  0  0  0  0  0  0  0
  140.1920   72.2110  222.4520 C   0  0  0  0  0  0  0  0  0  0  0  0
  140.6300   71.6120  221.2050 N   0  0  0  0  0  0  0  0  0  0  0  0
  140.7000   72.2850  219.9760 C   0  0  0  0  0  0  0  0  0  0  0  0
  141.9230   72.7310  219.3670 C   0  0  0  0  0  0  0  0  0  0  0  0
  141.7900   73.0910  218.1150 O   0  0  0  0  0  0  0  0  0  0  0  0
  143.2490   72.8380  219.9090 N   0  0  0  0  0  0  0  0  0  0  0  0
  144.1540   71.7160  219.8840 C   0  0  0  0  0  0  0  0  0  0  0  0
  145.5900   72.1920  219.8680 C   0  0  0  0  0  0  0  0  0  0  0  0
  145.7720   73.1190  221.0530 C   0  0  0  0  0  0  0  0  0  0  0  0
  144.9660   74.3860  220.8410 C   0  0  0  0  0  0  0  0  0  0  0  0
  143.5580   74.1350  220.4890 C   0  0  1  0  0  0  0  0  0  0  0  0
  143.0560   75.2890  219.7220 C   0  0  0  0  0  0  0  0  0  0  0  0
  143.6630   75.6140  218.4990 C   0  0  0  0  0  0  0  0  0  0  0  0
  143.2440   76.6660  217.7300 C   0  0  0  0  0  0  0  0  0  0  0  0
  142.2000   77.4590  218.1230 C   0  0  0  0  0  0  0  0  0  0  0  0
  141.5810   77.1710  219.3130 C   0  0  0  0  0  0  0  0  0  0  0  0
  142.0110   76.1000  220.0920 C   0  0  0  0  0  0  0  0  0  0  0  0
  141.1610   75.8290  221.5900 Cl  0  0  0  0  0  0  0  0  0  0  0  0
  140.1660   71.4200  223.6900 C   0  0  0  0  0  0  0  0  0  0  0  0
  139.6330   70.1510  223.6400 C   0  0  0  0  0  0  0  0  0  0  0  0
  139.5780   69.3570  224.7650 C   0  0  0  0  0  0  0  0  0  0  0  0
  140.0660   69.8440  225.9670 C   0  0  0  0  0  0  0  0  0  0  0  0
  140.0210   69.0640  227.1100 C   0  0  0  0  0  0  0  0  0  0  0  0
  140.5160   69.5810  228.2840 C   0  0  0  0  0  0  0  0  0  0  0  0
  141.0560   70.8700  228.3340 C   0  0  0  0  0  0  0  0  0  0  0  0
  141.0910   71.6350  227.1750 C   0  0  0  0  0  0  0  0  0  0  0  0
  140.5980   71.1270  225.9910 C   0  0  0  0  0  0  0  0  0  0  0  0
  140.6380   71.8870  224.8570 N   0  0  0  0  0  0  0  0  0  0  0  0
  140.9020   70.5860  221.3220 H   0  0  0  0  0  0  0  0  0  0  0  0
  140.2306   71.6132  219.2423 H   0  0  0  0  0  0  0  0  0  0  0  0
  140.2381   73.2475  220.2409 H   0  0  0  0  0  0  0  0  0  0  0  0
  143.9879   71.0973  220.7782 H   0  0  0  0  0  0  0  0  0  0  0  0
  143.9648   71.1273  218.9743 H   0  0  0  0  0  0  0  0  0  0  0  0
  146.2720   71.3332  219.9539 H   0  0  0  0  0  0  0  0  0  0  0  0
  145.8160   72.7148  218.9269 H   0  0  0  0  0  0  0  0  0  0  0  0
  145.4266   72.6149  221.9677 H   0  0  0  0  0  0  0  0  0  0  0  0
  146.8366   73.3775  221.1524 H   0  0  0  0  0  0  0  0  0  0  0  0
  144.9930   74.9752  221.7695 H   0  0  0  0  0  0  0  0  0  0  0  0
  145.4207   74.9207  219.9940 H   0  0  0  0  0  0  0  0  0  0  0  0
  142.9993   74.0498  221.4327 H   0  0  0  0  0  0  0  0  0  0  0  0
  144.5056   75.0014  218.1458 H   0  0  0  0  0  0  0  0  0  0  0  0
  143.7554   76.8778  216.7794 H   0  0  0  0  0  0  0  0  0  0  0  0
  141.8666   78.3036  217.5021 H   0  0  0  0  0  0  0  0  0  0  0  0
  140.7387   77.7908  219.6543 H   0  0  0  0  0  0  0  0  0  0  0  0
  139.2447   69.7648  222.6860 H   0  0  0  0  0  0  0  0  0  0  0  0
  139.1503   68.3451  224.7093 H   0  0  0  0  0  0  0  0  0  0  0  0
  139.5971   68.0494  227.0795 H   0  0  0  0  0  0  0  0  0  0  0  0
  140.4868   68.9708  229.1987 H   0  0  0  0  0  0  0  0  0  0  0  0
  141.4482   71.2731  229.2793 H   0  0  0  0  0  0  0  0  0  0  0  0
  141.5137   72.6502  227.2015 H   0  0  0  0  0  0  0  0  0  0  0  0
  1  2  2  0
  2  3  1  0
  3  4  1  0
  4  5  1  0
  5  6  2  0
  5  7  1  0
  7  8  1  0
  8  9  1  0
  9 10  1  0
 10 11  1  0
 11 12  1  0
 12 13  1  0
 13 14  2  0
 14 15  1  0
 15 16  2  0
 16 17  1  0
 17 18  2  0
 18 19  1  0
  2 20  1  0
 20 21  2  0
 21 22  1  0
 22 23  2  0
 23 24  1  0
 24 25  2  0
 25 26  1  0
 26 27  2  0
 27 28  1  0
 28 29  2  0
 12  7  1  0
 18 13  1  0
 29 20  1  0
 28 23  1  0
  3 30  1  0
  4 31  1  0
  4 32  1  0
  8 33  1  0
  8 34  1  0
  9 35  1  0
  9 36  1  0
 10 37  1  0
 10 38  1  0
 11 39  1  0
 11 40  1  0
 12 41  1  1
 14 42  1  0
 15 43  1  0
 16 44  1  0
 17 45  1  0
 21 46  1  0
 22 47  1  0
 24 48  1  0
 25 49  1  0
 26 50  1  0
 27 51  1  0
M  END
>  <smiles>  (88) 
O=C(NCC(=O)N1CCCCC1c1ccccc1Cl)c1ccc2ccccc2n1

>  <score_type>  (88) 
oracle

>  <origin>  (88) 
autodockgpu

>  <m_score__min__energy>  (88) 
-8.6899999999999995

>  <m_primary>  (88) 
energy

>  <rmsd>  (88) 
3.7963872103128455

>  <m_score__min__rmsd>  (88) 
3.7963872103128455

>  <meeko>  (88) 
{"free_energy": -8.52, "intermolecular_energy": -10.01, "internal_energy": -1.76, "cluster_size": 13, "cluster_id": 3, "rank_in_cluster": 1}

>  <energy>  (88) 
-7.81

>  <cluster_rmsd>  (88) 
0.08

>  <cluster>  (88) 
4

$$$$

     RDKit          3D

 51 54  0  0  0  0  0  0  0  0999 V2000
  141.4700   72.3800  221.7980 O   0  0  0  0  0  0  0  0  0  0  0  0
  140.4830   72.5340  222.5790 C   0  0  0  0  0  0  0  0  0  0  0  0
  139.5730   73.6390  222.3460 N   0  0  0  0  0  0  0  0  0  0  0  0
  139.6940   74.5670  221.3000 C   0  0  0  0  0  0  0  0  0  0  0  0
  140.7490   75.5390  221.2010 C   0  0  0  0  0  0  0  0  0  0  0  0
  141.4410   75.6810  222.3040 O   0  0  0  0  0  0  0  0  0  0  0  0
  141.1520   76.3680  220.1000 N   0  0  0  0  0  0  0  0  0  0  0  0
  140.9960   75.9220  218.7380 C   0  0  0  0  0  0  0  0  0  0  0  0
  140.8460   77.1050  217.8060 C   0  0  0  0  0  0  0  0  0  0  0  0
  142.0370   78.0150  218.0360 C   0  0  0  0  0  0  0  0  0  0  0  0
  141.9520   78.6290  219.4190 C   0  0  0  0  0  0  0  0  0  0  0  0
  141.7400   77.6400  220.4890 C   0  0  1  0  0  0  0  0  0  0  0  0
  141.0690   78.3090  221.6180 C   0  0  0  0  0  0  0  0  0  0  0  0
  141.8260   78.6870  222.7380 C   0  0  0  0  0  0  0  0  0  0  0  0
  141.2710   79.3190  223.8180 C   0  0  0  0  0  0  0  0  0  0  0  0
  139.9350   79.6150  223.8560 C   0  0  0  0  0  0  0  0  0  0  0  0
  139.1630   79.2610  222.7790 C   0  0  0  0  0  0  0  0  0  0  0  0
  139.7320   78.6180  221.6820 C   0  0  0  0  0  0  0  0  0  0  0  0
  138.6580   78.2040  220.3730 Cl  0  0  0  0  0  0  0  0  0  0  0  0
  140.2630   71.6100  223.6990 C   0  0  0  0  0  0  0  0  0  0  0  0
  139.5830   70.4380  223.4520 C   0  0  0  0  0  0  0  0  0  0  0  0
  139.3430   69.5280  224.4600 C   0  0  0  0  0  0  0  0  0  0  0  0
  139.7920   69.7980  225.7420 C   0  0  0  0  0  0  0  0  0  0  0  0
  139.5610   68.8980  226.7700 C   0  0  0  0  0  0  0  0  0  0  0  0
  140.0220   69.2000  228.0290 C   0  0  0  0  0  0  0  0  0  0  0  0
  140.7110   70.3910  228.2800 C   0  0  0  0  0  0  0  0  0  0  0  0
  140.9310   71.2780  227.2340 C   0  0  0  0  0  0  0  0  0  0  0  0
  140.4740   70.9870  225.9650 C   0  0  0  0  0  0  0  0  0  0  0  0
  140.6960   71.8660  224.9450 N   0  0  0  0  0  0  0  0  0  0  0  0
  138.7860   73.6740  223.0660 H   0  0  0  0  0  0  0  0  0  0  0  0
  139.7523   73.9699  220.3780 H   0  0  0  0  0  0  0  0  0  0  0  0
  138.8302   75.2181  221.4995 H   0  0  0  0  0  0  0  0  0  0  0  0
  141.8819   75.3399  218.4442 H   0  0  0  0  0  0  0  0  0  0  0  0
  140.0923   75.2986  218.6694 H   0  0  0  0  0  0  0  0  0  0  0  0
  140.8312   76.7614  216.7611 H   0  0  0  0  0  0  0  0  0  0  0  0
  139.9046   77.6388  218.0031 H   0  0  0  0  0  0  0  0  0  0  0  0
  142.9651   77.4306  217.9519 H   0  0  0  0  0  0  0  0  0  0  0  0
  142.0345   78.8155  217.2816 H   0  0  0  0  0  0  0  0  0  0  0  0
  142.8917   79.1640  219.6207 H   0  0  0  0  0  0  0  0  0  0  0  0
  141.0806   79.3003  219.4218 H   0  0  0  0  0  0  0  0  0  0  0  0
  142.7340   77.2914  220.8060 H   0  0  0  0  0  0  0  0  0  0  0  0
  142.9038   78.4675  222.7482 H   0  0  0  0  0  0  0  0  0  0  0  0
  141.9098   79.5938  224.6703 H   0  0  0  0  0  0  0  0  0  0  0  0
  139.4929   80.1226  224.7260 H   0  0  0  0  0  0  0  0  0  0  0  0
  138.0864   79.4865  222.7815 H   0  0  0  0  0  0  0  0  0  0  0  0
  139.2254   70.2243  222.4339 H   0  0  0  0  0  0  0  0  0  0  0  0
  138.7995   68.5955  224.2476 H   0  0  0  0  0  0  0  0  0  0  0  0
  139.0189   67.9595  226.5819 H   0  0  0  0  0  0  0  0  0  0  0  0
  139.8461   68.4931  228.8532 H   0  0  0  0  0  0  0  0  0  0  0  0
  141.0738   70.6222  229.2924 H   0  0  0  0  0  0  0  0  0  0  0  0
  141.4725   72.2176  227.4183 H   0  0  0  0  0  0  0  0  0  0  0  0
  1  2  2  0
  2  3  1  0
  3  4  1  0
  4  5  1  0
  5  6  2  0
  5  7  1  0
  7  8  1  0
  8  9  1  0
  9 10  1  0
 10 11  1  0
 11 12  1  0
 12 13  1  0
 13 14  2  0
 14 15  1  0
 15 16  2  0
 16 17  1  0
 17 18  2  0
 18 19  1  0
  2 20  1  0
 20 21  2  0
 21 22  1  0
 22 23  2  0
 23 24  1  0
 24 25  2  0
 25 26  1  0
 26 27  2  0
 27 28  1  0
 28 29  2  0
 12  7  1  0
 18 13  1  0
 29 20  1  0
 28 23  1  0
  3 30  1  0
  4 31  1  0
  4 32  1  0
  8 33  1  0
  8 34  1  0
  9 35  1  0
  9 36  1  0
 10 37  1  0
 10 38  1  0
 11 39  1  0
 11 40  1  0
 12 41  1  1
 14 42  1  0
 15 43  1  0
 16 44  1  0
 17 45  1  0
 21 46  1  0
 22 47  1  0
 24 48  1  0
 25 49  1  0
 26 50  1  0
 27 51  1  0
M  END
>  <smiles>  (89) 
O=C(NCC(=O)N1CCCCC1c1ccccc1Cl)c1ccc2ccccc2n1

>  <score_type>  (89) 
oracle

>  <origin>  (89) 
autodockgpu

>  <m_score__min__energy>  (89) 
-8.6899999999999995

>  <m_primary>  (89) 
energy

>  <rmsd>  (89) 
1.6678462823126212

>  <m_score__min__rmsd>  (89) 
1.6678462823126212

>  <meeko>  (89) 
{"free_energy": -8.54, "intermolecular_energy": -10.03, "internal_energy": -1.44, "cluster_size": 3, "cluster_id": 1, "rank_in_cluster": 3}

>  <energy>  (89) 
-7.81

>  <cluster_rmsd>  (89) 
0.06

>  <cluster>  (89) 
4

$$$$

     RDKit          3D

 51 54  0  0  0  0  0  0  0  0999 V2000
  141.1040   71.5060  221.4070 O   0  0  0  0  0  0  0  0  0  0  0  0
  140.5130   72.0730  222.3740 C   0  0  0  0  0  0  0  0  0  0  0  0
  140.0790   73.4480  222.2190 N   0  0  0  0  0  0  0  0  0  0  0  0
  140.2570   74.2160  221.0570 C   0  0  0  0  0  0  0  0  0  0  0  0
  140.9480   75.4760  221.0210 C   0  0  0  0  0  0  0  0  0  0  0  0
  141.1450   76.0050  222.2030 O   0  0  0  0  0  0  0  0  0  0  0  0
  141.4440   76.2360  219.9070 N   0  0  0  0  0  0  0  0  0  0  0  0
  141.1370   77.6380  219.7700 C   0  0  0  0  0  0  0  0  0  0  0  0
  142.2220   78.3440  218.9870 C   0  0  0  0  0  0  0  0  0  0  0  0
  142.3850   77.6050  217.6740 C   0  0  0  0  0  0  0  0  0  0  0  0
  142.9610   76.2260  217.9290 C   0  0  0  0  0  0  0  0  0  0  0  0
  142.2290   75.4650  218.9560 C   0  0  1  0  0  0  0  0  0  0  0  0
  143.1540   74.4930  219.5650 C   0  0  0  0  0  0  0  0  0  0  0  0
  144.2430   74.9630  220.3160 C   0  0  0  0  0  0  0  0  0  0  0  0
  145.1370   74.1180  220.9170 C   0  0  0  0  0  0  0  0  0  0  0  0
  145.0080   72.7590  220.8110 C   0  0  0  0  0  0  0  0  0  0  0  0
  143.9560   72.2640  220.0860 C   0  0  0  0  0  0  0  0  0  0  0  0
  143.0490   73.1270  219.4760 C   0  0  0  0  0  0  0  0  0  0  0  0
  141.7540   72.3910  218.5690 Cl  0  0  0  0  0  0  0  0  0  0  0  0
  140.2700   71.3520  223.6310 C   0  0  0  0  0  0  0  0  0  0  0  0
  139.6110   70.1440  223.5720 C   0  0  0  0  0  0  0  0  0  0  0  0
  139.3510   69.4180  224.7140 C   0  0  0  0  0  0  0  0  0  0  0  0
  139.7600   69.9110  225.9420 C   0  0  0  0  0  0  0  0  0  0  0  0
  139.5100   69.1980  227.1030 C   0  0  0  0  0  0  0  0  0  0  0  0
  139.9310   69.7190  228.3030 C   0  0  0  0  0  0  0  0  0  0  0  0
  140.5990   70.9450  228.3630 C   0  0  0  0  0  0  0  0  0  0  0  0
  140.8390   71.6430  227.1870 C   0  0  0  0  0  0  0  0  0  0  0  0
  140.4220   71.1310  225.9760 C   0  0  0  0  0  0  0  0  0  0  0  0
  140.6650   71.8250  224.8250 N   0  0  0  0  0  0  0  0  0  0  0  0
  139.6000   73.8230  223.0960 H   0  0  0  0  0  0  0  0  0  0  0  0
  140.7892   73.5644  220.3484 H   0  0  0  0  0  0  0  0  0  0  0  0
  139.2241   74.5400  220.8619 H   0  0  0  0  0  0  0  0  0  0  0  0
  140.1787   77.7488  219.2414 H   0  0  0  0  0  0  0  0  0  0  0  0
  141.0716   78.0874  220.7719 H   0  0  0  0  0  0  0  0  0  0  0  0
  141.9309   79.3877  218.7977 H   0  0  0  0  0  0  0  0  0  0  0  0
  143.1670   78.3499  219.5500 H   0  0  0  0  0  0  0  0  0  0  0  0
  141.4040   77.5065  217.1861 H   0  0  0  0  0  0  0  0  0  0  0  0
  143.0682   78.1691  217.0221 H   0  0  0  0  0  0  0  0  0  0  0  0
  142.9328   75.6572  216.9879 H   0  0  0  0  0  0  0  0  0  0  0  0
  143.9868   76.3670  218.3002 H   0  0  0  0  0  0  0  0  0  0  0  0
  141.4177   74.9280  218.4428 H   0  0  0  0  0  0  0  0  0  0  0  0
  144.3830   76.0486  220.4254 H   0  0  0  0  0  0  0  0  0  0  0  0
  145.9733   74.5381  221.4950 H   0  0  0  0  0  0  0  0  0  0  0  0
  145.7289   72.0834  221.2945 H   0  0  0  0  0  0  0  0  0  0  0  0
  143.8268   71.1763  219.9850 H   0  0  0  0  0  0  0  0  0  0  0  0
  139.2867   69.7521  222.5967 H   0  0  0  0  0  0  0  0  0  0  0  0
  138.8231   68.4550  224.6509 H   0  0  0  0  0  0  0  0  0  0  0  0
  138.9842   68.2326  227.0652 H   0  0  0  0  0  0  0  0  0  0  0  0
  139.7390   69.1617  229.2317 H   0  0  0  0  0  0  0  0  0  0  0  0
  140.9305   71.3519  229.3297 H   0  0  0  0  0  0  0  0  0  0  0  0
  141.3642   72.6089  227.2212 H   0  0  0  0  0  0  0  0  0  0  0  0
  1  2  2  0
  2  3  1  0
  3  4  1  0
  4  5  1  0
  5  6  2  0
  5  7  1  0
  7  8  1  0
  8  9  1  0
  9 10  1  0
 10 11  1  0
 11 12  1  0
 12 13  1  0
 13 14  2  0
 14 15  1  0
 15 16  2  0
 16 17  1  0
 17 18  2  0
 18 19  1  0
  2 20  1  0
 20 21  2  0
 21 22  1  0
 22 23  2  0
 23 24  1  0
 24 25  2  0
 25 26  1  0
 26 27  2  0
 27 28  1  0
 28 29  2  0
 12  7  1  0
 18 13  1  0
 29 20  1  0
 28 23  1  0
  3 30  1  0
  4 31  1  0
  4 32  1  0
  8 33  1  0
  8 34  1  0
  9 35  1  0
  9 36  1  0
 10 37  1  0
 10 38  1  0
 11 39  1  0
 11 40  1  0
 12 41  1  6
 14 42  1  0
 15 43  1  0
 16 44  1  0
 17 45  1  0
 21 46  1  0
 22 47  1  0
 24 48  1  0
 25 49  1  0
 26 50  1  0
 27 51  1  0
M  END
>  <smiles>  (90) 
O=C(NCC(=O)N1CCCCC1c1ccccc1Cl)c1ccc2ccccc2n1

>  <score_type>  (90) 
oracle

>  <origin>  (90) 
autodockgpu

>  <m_score__min__energy>  (90) 
-8.6899999999999995

>  <m_primary>  (90) 
energy

>  <rmsd>  (90) 
2.270696719946883

>  <m_score__min__rmsd>  (90) 
2.270696719946883

>  <meeko>  (90) 
{"free_energy": -8.47, "intermolecular_energy": -9.96, "internal_energy": -2.03, "cluster_size": 16, "cluster_id": 2, "rank_in_cluster": 10}

>  <energy>  (90) 
-7.8

>  <cluster_rmsd>  (90) 
0.11

>  <cluster>  (90) 
4

$$$$

     RDKit          3D

 51 54  0  0  0  0  0  0  0  0999 V2000
  140.3400   71.1840  221.1840 O   0  0  0  0  0  0  0  0  0  0  0  0
  140.0160   71.8770  222.1940 C   0  0  0  0  0  0  0  0  0  0  0  0
  139.6470   73.2670  221.9990 N   0  0  0  0  0  0  0  0  0  0  0  0
  139.6110   73.9170  220.7560 C   0  0  0  0  0  0  0  0  0  0  0  0
  140.7120   73.9560  219.8330 C   0  0  0  0  0  0  0  0  0  0  0  0
  140.3810   74.3640  218.6330 O   0  0  0  0  0  0  0  0  0  0  0  0
  142.0960   73.6190  220.0170 N   0  0  0  0  0  0  0  0  0  0  0  0
  142.5720   72.2800  219.7780 C   0  0  0  0  0  0  0  0  0  0  0  0
  144.0340   72.2980  219.3900 C   0  0  0  0  0  0  0  0  0  0  0  0
  144.7810   73.0440  220.4770 C   0  0  0  0  0  0  0  0  0  0  0  0
  144.3830   74.5070  220.4610 C   0  0  0  0  0  0  0  0  0  0  0  0
  142.9260   74.7190  220.4820 C   0  0  1  0  0  0  0  0  0  0  0  0
  142.6340   76.0190  219.8530 C   0  0  0  0  0  0  0  0  0  0  0  0
  143.1990   76.3170  218.6030 C   0  0  0  0  0  0  0  0  0  0  0  0
  142.9660   77.5010  217.9570 C   0  0  0  0  0  0  0  0  0  0  0  0
  142.1590   78.4610  218.5060 C   0  0  0  0  0  0  0  0  0  0  0  0
  141.5890   78.2050  219.7270 C   0  0  0  0  0  0  0  0  0  0  0  0
  141.8290   77.0000  220.3810 C   0  0  0  0  0  0  0  0  0  0  0  0
  141.0630   76.7830  221.9320 Cl  0  0  0  0  0  0  0  0  0  0  0  0
  140.0130   71.2870  223.5400 C   0  0  0  0  0  0  0  0  0  0  0  0
  139.4100   70.0610  223.7110 C   0  0  0  0  0  0  0  0  0  0  0  0
  139.3720   69.4520  224.9470 C   0  0  0  0  0  0  0  0  0  0  0  0
  139.9500   70.0850  226.0360 C   0  0  0  0  0  0  0  0  0  0  0  0
  139.9240   69.4920  227.2870 C   0  0  0  0  0  0  0  0  0  0  0  0
  140.5090   70.1500  228.3440 C   0  0  0  0  0  0  0  0  0  0  0  0
  141.1200   71.3960  228.1690 C   0  0  0  0  0  0  0  0  0  0  0  0
  141.1340   71.9710  226.9050 C   0  0  0  0  0  0  0  0  0  0  0  0
  140.5520   71.3210  225.8370 C   0  0  0  0  0  0  0  0  0  0  0  0
  140.5720   71.8960  224.5990 N   0  0  0  0  0  0  0  0  0  0  0  0
  139.4000   73.7530  222.9170 H   0  0  0  0  0  0  0  0  0  0  0  0
  138.7770   73.4582  220.2047 H   0  0  0  0  0  0  0  0  0  0  0  0
  139.5696   74.9693  221.0737 H   0  0  0  0  0  0  0  0  0  0  0  0
  142.4479   71.6830  220.6936 H   0  0  0  0  0  0  0  0  0  0  0  0
  141.9913   71.8379  218.9550 H   0  0  0  0  0  0  0  0  0  0  0  0
  144.4147   71.2691  219.3101 H   0  0  0  0  0  0  0  0  0  0  0  0
  144.1717   72.7898  218.4158 H   0  0  0  0  0  0  0  0  0  0  0  0
  144.5325   72.6084  221.4560 H   0  0  0  0  0  0  0  0  0  0  0  0
  145.8631   72.9595  220.2982 H   0  0  0  0  0  0  0  0  0  0  0  0
  144.8189   74.9962  221.3445 H   0  0  0  0  0  0  0  0  0  0  0  0
  144.7589   74.9346  219.5198 H   0  0  0  0  0  0  0  0  0  0  0  0
  142.6198   74.7440  221.5382 H   0  0  0  0  0  0  0  0  0  0  0  0
  143.8526   75.5721  218.1254 H   0  0  0  0  0  0  0  0  0  0  0  0
  143.4355   77.6845  216.9793 H   0  0  0  0  0  0  0  0  0  0  0  0
  141.9730   79.4106  217.9828 H   0  0  0  0  0  0  0  0  0  0  0  0
  140.9368   78.9582  220.1932 H   0  0  0  0  0  0  0  0  0  0  0  0
  138.9508   69.5590  222.8466 H   0  0  0  0  0  0  0  0  0  0  0  0
  138.8871   68.4721  225.0680 H   0  0  0  0  0  0  0  0  0  0  0  0
  139.4444   68.5129  227.4329 H   0  0  0  0  0  0  0  0  0  0  0  0
  140.4961   69.6890  229.3426 H   0  0  0  0  0  0  0  0  0  0  0  0
  141.5835   71.9138  229.0217 H   0  0  0  0  0  0  0  0  0  0  0  0
  141.6119   72.9503  226.7548 H   0  0  0  0  0  0  0  0  0  0  0  0
  1  2  2  0
  2  3  1  0
  3  4  1  0
  4  5  1  0
  5  6  2  0
  5  7  1  0
  7  8  1  0
  8  9  1  0
  9 10  1  0
 10 11  1  0
 11 12  1  0
 12 13  1  0
 13 14  2  0
 14 15  1  0
 15 16  2  0
 16 17  1  0
 17 18  2  0
 18 19  1  0
  2 20  1  0
 20 21  2  0
 21 22  1  0
 22 23  2  0
 23 24  1  0
 24 25  2  0
 25 26  1  0
 26 27  2  0
 27 28  1  0
 28 29  2  0
 12  7  1  0
 18 13  1  0
 29 20  1  0
 28 23  1  0
  3 30  1  0
  4 31  1  0
  4 32  1  0
  8 33  1  0
  8 34  1  0
  9 35  1  0
  9 36  1  0
 10 37  1  0
 10 38  1  0
 11 39  1  0
 11 40  1  0
 12 41  1  1
 14 42  1  0
 15 43  1  0
 16 44  1  0
 17 45  1  0
 21 46  1  0
 22 47  1  0
 24 48  1  0
 25 49  1  0
 26 50  1  0
 27 51  1  0
M  END
>  <smiles>  (91) 
O=C(NCC(=O)N1CCCCC1c1ccccc1Cl)c1ccc2ccccc2n1

>  <score_type>  (91) 
oracle

>  <origin>  (91) 
autodockgpu

>  <m_score__min__energy>  (91) 
-8.6899999999999995

>  <m_primary>  (91) 
energy

>  <rmsd>  (91) 
2.97385007569905

>  <m_score__min__rmsd>  (91) 
2.97385007569905

>  <meeko>  (91) 
{"free_energy": -8.41, "intermolecular_energy": -9.9, "internal_energy": -1.93, "cluster_size": 13, "cluster_id": 3, "rank_in_cluster": 10}

>  <energy>  (91) 
-7.8

>  <cluster_rmsd>  (91) 
0.06

>  <cluster>  (91) 
4

$$$$

     RDKit          3D

 51 54  0  0  0  0  0  0  0  0999 V2000
  140.6950   76.6980  218.1520 O   0  0  0  0  0  0  0  0  0  0  0  0
  141.7990   76.7800  218.7700 C   0  0  0  0  0  0  0  0  0  0  0  0
  142.1950   78.0600  219.3260 N   0  0  0  0  0  0  0  0  0  0  0  0
  141.4370   79.2370  219.2430 C   0  0  0  0  0  0  0  0  0  0  0  0
  140.9280   79.9530  220.3810 C   0  0  0  0  0  0  0  0  0  0  0  0
  139.7340   80.4580  220.1970 O   0  0  0  0  0  0  0  0  0  0  0  0
  141.5190   80.2000  221.6670 N   0  0  0  0  0  0  0  0  0  0  0  0
  141.8320   81.5410  222.0940 C   0  0  0  0  0  0  0  0  0  0  0  0
  141.8010   81.6380  223.6030 C   0  0  0  0  0  0  0  0  0  0  0  0
  142.7330   80.5730  224.1440 C   0  0  0  0  0  0  0  0  0  0  0  0
  142.1620   79.1980  223.8570 C   0  0  0  0  0  0  0  0  0  0  0  0
  141.7840   79.0020  222.4470 C   0  0  1  0  0  0  0  0  0  0  0  0
  140.7260   77.9800  222.3850 C   0  0  0  0  0  0  0  0  0  0  0  0
  141.0460   76.6900  221.9310 C   0  0  0  0  0  0  0  0  0  0  0  0
  140.1160   75.6880  221.8550 C   0  0  0  0  0  0  0  0  0  0  0  0
  138.8140   75.9010  222.2220 C   0  0  0  0  0  0  0  0  0  0  0  0
  138.4640   77.1480  222.6700 C   0  0  0  0  0  0  0  0  0  0  0  0
  139.4140   78.1650  222.7460 C   0  0  0  0  0  0  0  0  0  0  0  0
  138.8580   79.7150  223.3200 Cl  0  0  0  0  0  0  0  0  0  0  0  0
  142.6630   75.6010  218.9210 C   0  0  0  0  0  0  0  0  0  0  0  0
  142.4160   74.5070  218.1220 C   0  0  0  0  0  0  0  0  0  0  0  0
  143.1900   73.3700  218.2140 C   0  0  0  0  0  0  0  0  0  0  0  0
  144.2320   73.3270  219.1250 C   0  0  0  0  0  0  0  0  0  0  0  0
  145.0230   72.1940  219.2350 C   0  0  0  0  0  0  0  0  0  0  0  0
  146.0480   72.1890  220.1500 C   0  0  0  0  0  0  0  0  0  0  0  0
  146.2980   73.3000  220.9610 C   0  0  0  0  0  0  0  0  0  0  0  0
  145.4930   74.4250  220.8340 C   0  0  0  0  0  0  0  0  0  0  0  0
  144.4600   74.4430  219.9190 C   0  0  0  0  0  0  0  0  0  0  0  0
  143.6760   75.5540  219.8030 N   0  0  0  0  0  0  0  0  0  0  0  0
  143.1420   78.0120  219.8180 H   0  0  0  0  0  0  0  0  0  0  0  0
  142.0641   79.9562  218.6957 H   0  0  0  0  0  0  0  0  0  0  0  0
  140.5036   78.8513  218.8071 H   0  0  0  0  0  0  0  0  0  0  0  0
  142.8362   81.8101  221.7346 H   0  0  0  0  0  0  0  0  0  0  0  0
  141.0826   82.2305  221.6780 H   0  0  0  0  0  0  0  0  0  0  0  0
  142.1417   82.6338  223.9230 H   0  0  0  0  0  0  0  0  0  0  0  0
  140.7789   81.4886  223.9812 H   0  0  0  0  0  0  0  0  0  0  0  0
  143.7165   80.6684  223.6606 H   0  0  0  0  0  0  0  0  0  0  0  0
  142.8407   80.7023  225.2311 H   0  0  0  0  0  0  0  0  0  0  0  0
  142.9180   78.4445  224.1229 H   0  0  0  0  0  0  0  0  0  0  0  0
  141.2444   79.0971  224.4552 H   0  0  0  0  0  0  0  0  0  0  0  0
  142.6785   78.6369  221.9212 H   0  0  0  0  0  0  0  0  0  0  0  0
  142.0810   76.4770  221.6255 H   0  0  0  0  0  0  0  0  0  0  0  0
  140.4199   74.6948  221.4929 H   0  0  0  0  0  0  0  0  0  0  0  0
  138.0697   75.0935  222.1590 H   0  0  0  0  0  0  0  0  0  0  0  0
  137.4253   77.3478  222.9719 H   0  0  0  0  0  0  0  0  0  0  0  0
  141.5879   74.5409  217.3988 H   0  0  0  0  0  0  0  0  0  0  0  0
  142.9816   72.5038  217.5689 H   0  0  0  0  0  0  0  0  0  0  0  0
  144.8336   71.3150  218.6014 H   0  0  0  0  0  0  0  0  0  0  0  0
  146.6827   71.2957  220.2460 H   0  0  0  0  0  0  0  0  0  0  0  0
  147.1214   73.2835  221.6902 H   0  0  0  0  0  0  0  0  0  0  0  0
  145.6798   75.3058  221.4659 H   0  0  0  0  0  0  0  0  0  0  0  0
  1  2  2  0
  2  3  1  0
  3  4  1  0
  4  5  1  0
  5  6  2  0
  5  7  1  0
  7  8  1  0
  8  9  1  0
  9 10  1  0
 10 11  1  0
 11 12  1  0
 12 13  1  0
 13 14  2  0
 14 15  1  0
 15 16  2  0
 16 17  1  0
 17 18  2  0
 18 19  1  0
  2 20  1  0
 20 21  2  0
 21 22  1  0
 22 23  2  0
 23 24  1  0
 24 25  2  0
 25 26  1  0
 26 27  2  0
 27 28  1  0
 28 29  2  0
 12  7  1  0
 18 13  1  0
 29 20  1  0
 28 23  1  0
  3 30  1  0
  4 31  1  0
  4 32  1  0
  8 33  1  0
  8 34  1  0
  9 35  1  0
  9 36  1  0
 10 37  1  0
 10 38  1  0
 11 39  1  0
 11 40  1  0
 12 41  1  6
 14 42  1  0
 15 43  1  0
 16 44  1  0
 17 45  1  0
 21 46  1  0
 22 47  1  0
 24 48  1  0
 25 49  1  0
 26 50  1  0
 27 51  1  0
M  END
>  <smiles>  (92) 
O=C(NCC(=O)N1CCCCC1c1ccccc1Cl)c1ccc2ccccc2n1

>  <score_type>  (92) 
oracle

>  <origin>  (92) 
autodockgpu

>  <m_score__min__energy>  (92) 
-8.6899999999999995

>  <m_primary>  (92) 
energy

>  <rmsd>  (92) 
7.699596315255644

>  <m_score__min__rmsd>  (92) 
7.699596315255644

>  <meeko>  (92) 
{"free_energy": -7.82, "intermolecular_energy": -9.31, "internal_energy": -2.49, "cluster_size": 12, "cluster_id": 4, "rank_in_cluster": 3}

>  <energy>  (92) 
-7.75

>  <cluster_rmsd>  (92) 
0.19

>  <cluster>  (92) 
4

$$$$

     RDKit          3D

 51 54  0  0  0  0  0  0  0  0999 V2000
  141.6230   72.2480  221.8550 O   0  0  0  0  0  0  0  0  0  0  0  0
  140.5750   72.4430  222.5410 C   0  0  0  0  0  0  0  0  0  0  0  0
  139.6830   73.5220  222.1620 N   0  0  0  0  0  0  0  0  0  0  0  0
  139.8850   74.3800  221.0700 C   0  0  0  0  0  0  0  0  0  0  0  0
  141.0550   75.1950  220.8900 C   0  0  0  0  0  0  0  0  0  0  0  0
  141.8190   75.2650  221.9530 O   0  0  0  0  0  0  0  0  0  0  0  0
  141.5090   75.9370  219.7470 N   0  0  0  0  0  0  0  0  0  0  0  0
  141.0920   77.3010  219.5340 C   0  0  0  0  0  0  0  0  0  0  0  0
  142.1310   78.0540  218.7330 C   0  0  0  0  0  0  0  0  0  0  0  0
  142.3770   77.2680  217.4610 C   0  0  0  0  0  0  0  0  0  0  0  0
  143.0570   75.9550  217.7940 C   0  0  0  0  0  0  0  0  0  0  0  0
  142.3710   75.1880  218.8480 C   0  0  1  0  0  0  0  0  0  0  0  0
  143.3600   74.3260  219.5180 C   0  0  0  0  0  0  0  0  0  0  0  0
  144.4430   74.9190  220.1870 C   0  0  0  0  0  0  0  0  0  0  0  0
  145.3940   74.1810  220.8380 C   0  0  0  0  0  0  0  0  0  0  0  0
  145.3340   72.8140  220.8670 C   0  0  0  0  0  0  0  0  0  0  0  0
  144.2900   72.2000  220.2250 C   0  0  0  0  0  0  0  0  0  0  0  0
  143.3230   72.9540  219.5640 C   0  0  0  0  0  0  0  0  0  0  0  0
  142.0460   72.0710  218.7720 Cl  0  0  0  0  0  0  0  0  0  0  0  0
  140.2670   71.5920  223.6990 C   0  0  0  0  0  0  0  0  0  0  0  0
  139.5160   70.4570  223.4910 C   0  0  0  0  0  0  0  0  0  0  0  0
  139.1920   69.6170  224.5340 C   0  0  0  0  0  0  0  0  0  0  0  0
  139.6290   69.9190  225.8130 C   0  0  0  0  0  0  0  0  0  0  0  0
  139.3150   69.0890  226.8770 C   0  0  0  0  0  0  0  0  0  0  0  0
  139.7670   69.4210  228.1320 C   0  0  0  0  0  0  0  0  0  0  0  0
  140.5300   70.5740  228.3420 C   0  0  0  0  0  0  0  0  0  0  0  0
  140.8320   71.3920  227.2610 C   0  0  0  0  0  0  0  0  0  0  0  0
  140.3850   71.0690  225.9970 C   0  0  0  0  0  0  0  0  0  0  0  0
  140.6890   71.8800  224.9420 N   0  0  0  0  0  0  0  0  0  0  0  0
  138.8390   73.5960  222.8120 H   0  0  0  0  0  0  0  0  0  0  0  0
  139.8264   73.7421  220.1758 H   0  0  0  0  0  0  0  0  0  0  0  0
  139.1243   75.1497  221.2674 H   0  0  0  0  0  0  0  0  0  0  0  0
  140.1384   77.3065  218.9857 H   0  0  0  0  0  0  0  0  0  0  0  0
  140.9709   77.7925  220.5106 H   0  0  0  0  0  0  0  0  0  0  0  0
  141.7606   79.0603  218.4878 H   0  0  0  0  0  0  0  0  0  0  0  0
  143.0618   78.1639  219.3088 H   0  0  0  0  0  0  0  0  0  0  0  0
  141.4164   77.0664  216.9644 H   0  0  0  0  0  0  0  0  0  0  0  0
  143.0241   77.8532  216.7911 H   0  0  0  0  0  0  0  0  0  0  0  0
  143.0917   75.3400  216.8826 H   0  0  0  0  0  0  0  0  0  0  0  0
  144.0610   76.1978  218.1723 H   0  0  0  0  0  0  0  0  0  0  0  0
  141.6155   74.5618  218.3510 H   0  0  0  0  0  0  0  0  0  0  0  0
  144.5300   76.0156  220.1878 H   0  0  0  0  0  0  0  0  0  0  0  0
  146.2219   74.6960  221.3473 H   0  0  0  0  0  0  0  0  0  0  0  0
  146.1015   72.2249  221.3904 H   0  0  0  0  0  0  0  0  0  0  0  0
  144.2152   71.1026  220.2319 H   0  0  0  0  0  0  0  0  0  0  0  0
  139.1689   70.2168  222.4752 H   0  0  0  0  0  0  0  0  0  0  0  0
  138.5911   68.7138  224.3523 H   0  0  0  0  0  0  0  0  0  0  0  0
  138.7148   68.1806  226.7203 H   0  0  0  0  0  0  0  0  0  0  0  0
  139.5247   68.7695  228.9845 H   0  0  0  0  0  0  0  0  0  0  0  0
  140.8865   70.8298  229.3507 H   0  0  0  0  0  0  0  0  0  0  0  0
  141.4307   72.3020  227.4138 H   0  0  0  0  0  0  0  0  0  0  0  0
  1  2  2  0
  2  3  1  0
  3  4  1  0
  4  5  1  0
  5  6  2  0
  5  7  1  0
  7  8  1  0
  8  9  1  0
  9 10  1  0
 10 11  1  0
 11 12  1  0
 12 13  1  0
 13 14  2  0
 14 15  1  0
 15 16  2  0
 16 17  1  0
 17 18  2  0
 18 19  1  0
  2 20  1  0
 20 21  2  0
 21 22  1  0
 22 23  2  0
 23 24  1  0
 24 25  2  0
 25 26  1  0
 26 27  2  0
 27 28  1  0
 28 29  2  0
 12  7  1  0
 18 13  1  0
 29 20  1  0
 28 23  1  0
  3 30  1  0
  4 31  1  0
  4 32  1  0
  8 33  1  0
  8 34  1  0
  9 35  1  0
  9 36  1  0
 10 37  1  0
 10 38  1  0
 11 39  1  0
 11 40  1  0
 12 41  1  6
 14 42  1  0
 15 43  1  0
 16 44  1  0
 17 45  1  0
 21 46  1  0
 22 47  1  0
 24 48  1  0
 25 49  1  0
 26 50  1  0
 27 51  1  0
M  END
>  <smiles>  (93) 
O=C(NCC(=O)N1CCCCC1c1ccccc1Cl)c1ccc2ccccc2n1

>  <score_type>  (93) 
oracle

>  <origin>  (93) 
autodockgpu

>  <m_score__min__energy>  (93) 
-8.6899999999999995

>  <m_primary>  (93) 
energy

>  <rmsd>  (93) 
2.23655285150799

>  <m_score__min__rmsd>  (93) 
2.23655285150799

>  <meeko>  (93) 
{"free_energy": -8.35, "intermolecular_energy": -9.84, "internal_energy": -1.97, "cluster_size": 16, "cluster_id": 2, "rank_in_cluster": 12}

>  <energy>  (93) 
-7.73

>  <cluster_rmsd>  (93) 
0.09

>  <cluster>  (93) 
4

$$$$

     RDKit          3D

 51 54  0  0  0  0  0  0  0  0999 V2000
  140.8230   76.7460  218.0470 O   0  0  0  0  0  0  0  0  0  0  0  0
  141.9080   76.7750  218.7020 C   0  0  0  0  0  0  0  0  0  0  0  0
  142.3280   78.0270  219.3030 N   0  0  0  0  0  0  0  0  0  0  0  0
  141.6130   79.2320  219.2240 C   0  0  0  0  0  0  0  0  0  0  0  0
  141.0410   79.9060  220.3570 C   0  0  0  0  0  0  0  0  0  0  0  0
  139.8220   80.3420  220.1530 O   0  0  0  0  0  0  0  0  0  0  0  0
  141.5900   80.1770  221.6570 N   0  0  0  0  0  0  0  0  0  0  0  0
  141.8970   81.5240  222.0670 C   0  0  0  0  0  0  0  0  0  0  0  0
  141.8160   81.6520  223.5720 C   0  0  0  0  0  0  0  0  0  0  0  0
  142.7240   80.5930  224.1650 C   0  0  0  0  0  0  0  0  0  0  0  0
  142.1550   79.2160  223.8860 C   0  0  0  0  0  0  0  0  0  0  0  0
  141.8220   78.9930  222.4690 C   0  0  1  0  0  0  0  0  0  0  0  0
  140.7600   77.9750  222.3920 C   0  0  0  0  0  0  0  0  0  0  0  0
  141.0800   76.6870  221.9350 C   0  0  0  0  0  0  0  0  0  0  0  0
  140.1470   75.6890  221.8450 C   0  0  0  0  0  0  0  0  0  0  0  0
  138.8430   75.9050  222.2020 C   0  0  0  0  0  0  0  0  0  0  0  0
  138.4930   77.1510  222.6540 C   0  0  0  0  0  0  0  0  0  0  0  0
  139.4460   78.1640  222.7430 C   0  0  0  0  0  0  0  0  0  0  0  0
  138.8920   79.7130  223.3200 Cl  0  0  0  0  0  0  0  0  0  0  0  0
  142.7270   75.5650  218.8510 C   0  0  0  0  0  0  0  0  0  0  0  0
  142.4310   74.4770  218.0590 C   0  0  0  0  0  0  0  0  0  0  0  0
  143.1600   73.3110  218.1500 C   0  0  0  0  0  0  0  0  0  0  0  0
  144.2080   73.2310  219.0530 C   0  0  0  0  0  0  0  0  0  0  0  0
  144.9540   72.0700  219.1610 C   0  0  0  0  0  0  0  0  0  0  0  0
  145.9860   72.0280  220.0680 C   0  0  0  0  0  0  0  0  0  0  0  0
  146.2860   73.1320  220.8720 C   0  0  0  0  0  0  0  0  0  0  0  0
  145.5240   74.2870  220.7470 C   0  0  0  0  0  0  0  0  0  0  0  0
  144.4860   74.3410  219.8400 C   0  0  0  0  0  0  0  0  0  0  0  0
  143.7450   75.4820  219.7250 N   0  0  0  0  0  0  0  0  0  0  0  0
  143.2560   77.9350  219.8230 H   0  0  0  0  0  0  0  0  0  0  0  0
  142.3007   79.9563  218.7630 H   0  0  0  0  0  0  0  0  0  0  0  0
  140.7048   78.9006  218.6993 H   0  0  0  0  0  0  0  0  0  0  0  0
  142.9144   81.7799  221.7363 H   0  0  0  0  0  0  0  0  0  0  0  0
  141.1665   82.2092  221.6122 H   0  0  0  0  0  0  0  0  0  0  0  0
  142.1514   82.6523  223.8831 H   0  0  0  0  0  0  0  0  0  0  0  0
  140.7811   81.5157  223.9189 H   0  0  0  0  0  0  0  0  0  0  0  0
  143.7236   80.6738  223.7129 H   0  0  0  0  0  0  0  0  0  0  0  0
  142.7965   80.7432  225.2523 H   0  0  0  0  0  0  0  0  0  0  0  0
  142.8976   78.4642  224.1914 H   0  0  0  0  0  0  0  0  0  0  0  0
  141.2175   79.1324  224.4553 H   0  0  0  0  0  0  0  0  0  0  0  0
  142.7309   78.6117  221.9806 H   0  0  0  0  0  0  0  0  0  0  0  0
  142.1172   76.4718  221.6386 H   0  0  0  0  0  0  0  0  0  0  0  0
  140.4503   74.6968  221.4797 H   0  0  0  0  0  0  0  0  0  0  0  0
  138.0964   75.1005  222.1281 H   0  0  0  0  0  0  0  0  0  0  0  0
  137.4525   77.3527  222.9486 H   0  0  0  0  0  0  0  0  0  0  0  0
  141.5990   74.5402  217.3422 H   0  0  0  0  0  0  0  0  0  0  0  0
  142.9119   72.4507  217.5109 H   0  0  0  0  0  0  0  0  0  0  0  0
  144.7251   71.1968  218.5324 H   0  0  0  0  0  0  0  0  0  0  0  0
  146.5857   71.1108  220.1629 H   0  0  0  0  0  0  0  0  0  0  0  0
  147.1146   73.0866  221.5941 H   0  0  0  0  0  0  0  0  0  0  0  0
  145.7494   75.1622  221.3740 H   0  0  0  0  0  0  0  0  0  0  0  0
  1  2  2  0
  2  3  1  0
  3  4  1  0
  4  5  1  0
  5  6  2  0
  5  7  1  0
  7  8  1  0
  8  9  1  0
  9 10  1  0
 10 11  1  0
 11 12  1  0
 12 13  1  0
 13 14  2  0
 14 15  1  0
 15 16  2  0
 16 17  1  0
 17 18  2  0
 18 19  1  0
  2 20  1  0
 20 21  2  0
 21 22  1  0
 22 23  2  0
 23 24  1  0
 24 25  2  0
 25 26  1  0
 26 27  2  0
 27 28  1  0
 28 29  2  0
 12  7  1  0
 18 13  1  0
 29 20  1  0
 28 23  1  0
  3 30  1  0
  4 31  1  0
  4 32  1  0
  8 33  1  0
  8 34  1  0
  9 35  1  0
  9 36  1  0
 10 37  1  0
 10 38  1  0
 11 39  1  0
 11 40  1  0
 12 41  1  6
 14 42  1  0
 15 43  1  0
 16 44  1  0
 17 45  1  0
 21 46  1  0
 22 47  1  0
 24 48  1  0
 25 49  1  0
 26 50  1  0
 27 51  1  0
M  END
>  <smiles>  (94) 
O=C(NCC(=O)N1CCCCC1c1ccccc1Cl)c1ccc2ccccc2n1

>  <score_type>  (94) 
oracle

>  <origin>  (94) 
autodockgpu

>  <m_score__min__energy>  (94) 
-8.6899999999999995

>  <m_primary>  (94) 
energy

>  <rmsd>  (94) 
7.71856873912187

>  <m_score__min__rmsd>  (94) 
7.71856873912187

>  <meeko>  (94) 
{"free_energy": -7.73, "intermolecular_energy": -9.22, "internal_energy": -2.49, "cluster_size": 12, "cluster_id": 4, "rank_in_cluster": 11}

>  <energy>  (94) 
-7.72

>  <cluster_rmsd>  (94) 
0.11

>  <cluster>  (94) 
4

$$$$

     RDKit          3D

 51 54  0  0  0  0  0  0  0  0999 V2000
  140.1490   71.1810  221.2320 O   0  0  0  0  0  0  0  0  0  0  0  0
  139.9640   71.8680  222.2810 C   0  0  0  0  0  0  0  0  0  0  0  0
  139.6990   73.2880  222.1490 N   0  0  0  0  0  0  0  0  0  0  0  0
  139.6210   73.9760  220.9280 C   0  0  0  0  0  0  0  0  0  0  0  0
  140.7010   74.0730  219.9850 C   0  0  0  0  0  0  0  0  0  0  0  0
  140.3440   74.5580  218.8220 O   0  0  0  0  0  0  0  0  0  0  0  0
  142.0870   73.7220  220.1150 N   0  0  0  0  0  0  0  0  0  0  0  0
  142.5370   72.3730  219.8760 C   0  0  0  0  0  0  0  0  0  0  0  0
  143.9820   72.3680  219.4260 C   0  0  0  0  0  0  0  0  0  0  0  0
  144.7830   73.1200  220.4700 C   0  0  0  0  0  0  0  0  0  0  0  0
  144.4010   74.5880  220.4480 C   0  0  0  0  0  0  0  0  0  0  0  0
  142.9490   74.8180  220.5280 C   0  0  1  0  0  0  0  0  0  0  0  0
  142.6450   76.1130  219.8930 C   0  0  0  0  0  0  0  0  0  0  0  0
  143.2100   76.4100  218.6420 C   0  0  0  0  0  0  0  0  0  0  0  0
  142.9650   77.5880  217.9900 C   0  0  0  0  0  0  0  0  0  0  0  0
  142.1500   78.5430  218.5340 C   0  0  0  0  0  0  0  0  0  0  0  0
  141.5800   78.2880  219.7550 C   0  0  0  0  0  0  0  0  0  0  0  0
  141.8310   77.0870  220.4160 C   0  0  0  0  0  0  0  0  0  0  0  0
  141.0650   76.8710  221.9660 Cl  0  0  0  0  0  0  0  0  0  0  0  0
  140.0170   71.2400  223.6080 C   0  0  0  0  0  0  0  0  0  0  0  0
  139.5420   69.9530  223.7380 C   0  0  0  0  0  0  0  0  0  0  0  0
  139.5620   69.3060  224.9550 C   0  0  0  0  0  0  0  0  0  0  0  0
  140.0680   69.9610  226.0660 C   0  0  0  0  0  0  0  0  0  0  0  0
  140.0990   69.3310  227.2990 C   0  0  0  0  0  0  0  0  0  0  0  0
  140.6090   70.0120  228.3780 C   0  0  0  0  0  0  0  0  0  0  0  0
  141.0900   71.3190  228.2460 C   0  0  0  0  0  0  0  0  0  0  0  0
  141.0490   71.9310  227.0000 C   0  0  0  0  0  0  0  0  0  0  0  0
  140.5410   71.2580  225.9090 C   0  0  0  0  0  0  0  0  0  0  0  0
  140.5070   71.8700  224.6890 N   0  0  0  0  0  0  0  0  0  0  0  0
  139.5660   73.7650  223.0950 H   0  0  0  0  0  0  0  0  0  0  0  0
  138.7877   73.5133  220.3789 H   0  0  0  0  0  0  0  0  0  0  0  0
  139.5598   75.0163  221.2802 H   0  0  0  0  0  0  0  0  0  0  0  0
  142.4451   71.7909  220.8048 H   0  0  0  0  0  0  0  0  0  0  0  0
  141.9166   71.9259  219.0853 H   0  0  0  0  0  0  0  0  0  0  0  0
  144.3472   71.3336  219.3448 H   0  0  0  0  0  0  0  0  0  0  0  0
  144.0839   72.8446  218.4399 H   0  0  0  0  0  0  0  0  0  0  0  0
  144.5706   72.7018  221.4650 H   0  0  0  0  0  0  0  0  0  0  0  0
  145.8557   73.0194  220.2483 H   0  0  0  0  0  0  0  0  0  0  0  0
  144.8800   75.0853  221.3042 H   0  0  0  0  0  0  0  0  0  0  0  0
  144.7408   74.9965  219.4848 H   0  0  0  0  0  0  0  0  0  0  0  0
  142.6890   74.8615  221.5960 H   0  0  0  0  0  0  0  0  0  0  0  0
  143.8727   75.6698  218.1697 H   0  0  0  0  0  0  0  0  0  0  0  0
  143.4318   77.7704  217.0108 H   0  0  0  0  0  0  0  0  0  0  0  0
  141.9573   79.4889  218.0067 H   0  0  0  0  0  0  0  0  0  0  0  0
  140.9196   79.0372  220.2162 H   0  0  0  0  0  0  0  0  0  0  0  0
  139.1401   69.4332  222.8558 H   0  0  0  0  0  0  0  0  0  0  0  0
  139.1795   68.2784  225.0433 H   0  0  0  0  0  0  0  0  0  0  0  0
  139.7221   68.3038  227.4125 H   0  0  0  0  0  0  0  0  0  0  0  0
  140.6396   69.5213  229.3620 H   0  0  0  0  0  0  0  0  0  0  0  0
  141.4951   71.8546  229.1172 H   0  0  0  0  0  0  0  0  0  0  0  0
  141.4239   72.9585  226.8828 H   0  0  0  0  0  0  0  0  0  0  0  0
  1  2  2  0
  2  3  1  0
  3  4  1  0
  4  5  1  0
  5  6  2  0
  5  7  1  0
  7  8  1  0
  8  9  1  0
  9 10  1  0
 10 11  1  0
 11 12  1  0
 12 13  1  0
 13 14  2  0
 14 15  1  0
 15 16  2  0
 16 17  1  0
 17 18  2  0
 18 19  1  0
  2 20  1  0
 20 21  2  0
 21 22  1  0
 22 23  2  0
 23 24  1  0
 24 25  2  0
 25 26  1  0
 26 27  2  0
 27 28  1  0
 28 29  2  0
 12  7  1  0
 18 13  1  0
 29 20  1  0
 28 23  1  0
  3 30  1  0
  4 31  1  0
  4 32  1  0
  8 33  1  0
  8 34  1  0
  9 35  1  0
  9 36  1  0
 10 37  1  0
 10 38  1  0
 11 39  1  0
 11 40  1  0
 12 41  1  1
 14 42  1  0
 15 43  1  0
 16 44  1  0
 17 45  1  0
 21 46  1  0
 22 47  1  0
 24 48  1  0
 25 49  1  0
 26 50  1  0
 27 51  1  0
M  END
>  <smiles>  (95) 
O=C(NCC(=O)N1CCCCC1c1ccccc1Cl)c1ccc2ccccc2n1

>  <score_type>  (95) 
oracle

>  <origin>  (95) 
autodockgpu

>  <m_score__min__energy>  (95) 
-8.6899999999999995

>  <m_primary>  (95) 
energy

>  <rmsd>  (95) 
2.9315122352165477

>  <m_score__min__rmsd>  (95) 
2.9315122352165477

>  <meeko>  (95) 
{"free_energy": -8.43, "intermolecular_energy": -9.93, "internal_energy": -1.97, "cluster_size": 13, "cluster_id": 3, "rank_in_cluster": 8}

>  <energy>  (95) 
-7.75

>  <cluster_rmsd>  (95) 
0.0

>  <cluster>  (95) 
5

$$$$

     RDKit          3D

 51 54  0  0  0  0  0  0  0  0999 V2000
  139.6410   71.1200  221.3100 O   0  0  0  0  0  0  0  0  0  0  0  0
  140.0820   71.6660  222.3660 C   0  0  0  0  0  0  0  0  0  0  0  0
  140.6350   73.0040  222.2810 N   0  0  0  0  0  0  0  0  0  0  0  0
  140.7160   73.7630  221.1030 C   0  0  0  0  0  0  0  0  0  0  0  0
  141.3080   75.0710  221.0240 C   0  0  0  0  0  0  0  0  0  0  0  0
  141.4480   75.6580  222.1870 O   0  0  0  0  0  0  0  0  0  0  0  0
  141.7570   75.8240  219.8870 N   0  0  0  0  0  0  0  0  0  0  0  0
  141.3170   77.1800  219.6740 C   0  0  0  0  0  0  0  0  0  0  0  0
  142.3490   77.9550  218.8840 C   0  0  0  0  0  0  0  0  0  0  0  0
  142.6220   77.1760  217.6120 C   0  0  0  0  0  0  0  0  0  0  0  0
  143.3240   75.8750  217.9490 C   0  0  0  0  0  0  0  0  0  0  0  0
  142.6420   75.0930  218.9940 C   0  0  1  0  0  0  0  0  0  0  0  0
  143.6410   74.2480  219.6720 C   0  0  0  0  0  0  0  0  0  0  0  0
  144.6680   74.8600  220.4090 C   0  0  0  0  0  0  0  0  0  0  0  0
  145.6240   74.1380  221.0710 C   0  0  0  0  0  0  0  0  0  0  0  0
  145.6240   72.7700  221.0440 C   0  0  0  0  0  0  0  0  0  0  0  0
  144.6360   72.1370  220.3340 C   0  0  0  0  0  0  0  0  0  0  0  0
  143.6640   72.8750  219.6620 C   0  0  0  0  0  0  0  0  0  0  0  0
  142.4610   71.9700  218.7820 Cl  0  0  0  0  0  0  0  0  0  0  0  0
  140.0350   70.9590  223.6530 C   0  0  0  0  0  0  0  0  0  0  0  0
  139.4260   69.7240  223.6950 C   0  0  0  0  0  0  0  0  0  0  0  0
  139.3480   69.0080  224.8700 C   0  0  0  0  0  0  0  0  0  0  0  0
  139.8910   69.5400  226.0280 C   0  0  0  0  0  0  0  0  0  0  0  0
  139.8240   68.8380  227.2210 C   0  0  0  0  0  0  0  0  0  0  0  0
  140.3750   69.3970  228.3490 C   0  0  0  0  0  0  0  0  0  0  0  0
  140.9920   70.6510  228.3060 C   0  0  0  0  0  0  0  0  0  0  0  0
  141.0480   71.3370  227.1000 C   0  0  0  0  0  0  0  0  0  0  0  0
  140.4990   70.7860  225.9600 C   0  0  0  0  0  0  0  0  0  0  0  0
  140.5610   71.4690  224.7790 N   0  0  0  0  0  0  0  0  0  0  0  0
  140.9810   73.3600  223.2270 H   0  0  0  0  0  0  0  0  0  0  0  0
  141.2724   73.1411  220.3863 H   0  0  0  0  0  0  0  0  0  0  0  0
  139.6556   74.0053  220.9393 H   0  0  0  0  0  0  0  0  0  0  0  0
  140.3683   77.1694  219.1173 H   0  0  0  0  0  0  0  0  0  0  0  0
  141.1785   77.6663  220.6509 H   0  0  0  0  0  0  0  0  0  0  0  0
  141.9615   78.9545  218.6374 H   0  0  0  0  0  0  0  0  0  0  0  0
  143.2721   78.0817  219.4686 H   0  0  0  0  0  0  0  0  0  0  0  0
  141.6701   76.9572  217.1060 H   0  0  0  0  0  0  0  0  0  0  0  0
  143.2640   77.7748  216.9493 H   0  0  0  0  0  0  0  0  0  0  0  0
  143.3797   75.2630  217.0367 H   0  0  0  0  0  0  0  0  0  0  0  0
  144.3194   76.1358  218.3379 H   0  0  0  0  0  0  0  0  0  0  0  0
  141.9030   74.4542  218.4882 H   0  0  0  0  0  0  0  0  0  0  0  0
  144.7054   75.9584  220.4559 H   0  0  0  0  0  0  0  0  0  0  0  0
  146.4064   74.6671  221.6349 H   0  0  0  0  0  0  0  0  0  0  0  0
  146.3949   72.1940  221.5769 H   0  0  0  0  0  0  0  0  0  0  0  0
  144.6108   71.0380  220.2948 H   0  0  0  0  0  0  0  0  0  0  0  0
  138.9947   69.3022  222.7752 H   0  0  0  0  0  0  0  0  0  0  0  0
  138.8589   68.0229  224.8881 H   0  0  0  0  0  0  0  0  0  0  0  0
  139.3388   67.8517  227.2642 H   0  0  0  0  0  0  0  0  0  0  0  0
  140.3299   68.8488  229.3016 H   0  0  0  0  0  0  0  0  0  0  0  0
  141.4277   71.0887  229.2163 H   0  0  0  0  0  0  0  0  0  0  0  0
  141.5320   72.3237  227.0531 H   0  0  0  0  0  0  0  0  0  0  0  0
  1  2  2  0
  2  3  1  0
  3  4  1  0
  4  5  1  0
  5  6  2  0
  5  7  1  0
  7  8  1  0
  8  9  1  0
  9 10  1  0
 10 11  1  0
 11 12  1  0
 12 13  1  0
 13 14  2  0
 14 15  1  0
 15 16  2  0
 16 17  1  0
 17 18  2  0
 18 19  1  0
  2 20  1  0
 20 21  2  0
 21 22  1  0
 22 23  2  0
 23 24  1  0
 24 25  2  0
 25 26  1  0
 26 27  2  0
 27 28  1  0
 28 29  2  0
 12  7  1  0
 18 13  1  0
 29 20  1  0
 28 23  1  0
  3 30  1  0
  4 31  1  0
  4 32  1  0
  8 33  1  0
  8 34  1  0
  9 35  1  0
  9 36  1  0
 10 37  1  0
 10 38  1  0
 11 39  1  0
 11 40  1  0
 12 41  1  6
 14 42  1  0
 15 43  1  0
 16 44  1  0
 17 45  1  0
 21 46  1  0
 22 47  1  0
 24 48  1  0
 25 49  1  0
 26 50  1  0
 27 51  1  0
M  END
>  <smiles>  (96) 
O=C(NCC(=O)N1CCCCC1c1ccccc1Cl)c1ccc2ccccc2n1

>  <score_type>  (96) 
oracle

>  <origin>  (96) 
autodockgpu

>  <m_score__min__energy>  (96) 
-8.6899999999999995

>  <m_primary>  (96) 
energy

>  <rmsd>  (96) 
2.2810846462053416

>  <m_score__min__rmsd>  (96) 
2.2810846462053416

>  <meeko>  (96) 
{"free_energy": -8.05, "intermolecular_energy": -9.54, "internal_energy": -2.21, "cluster_size": 16, "cluster_id": 2, "rank_in_cluster": 16}

>  <energy>  (96) 
-7.74

>  <cluster_rmsd>  (96) 
0.03

>  <cluster>  (96) 
5

$$$$

     RDKit          3D

 51 54  0  0  0  0  0  0  0  0999 V2000
  140.7690   74.3310  222.2400 O   0  0  0  0  0  0  0  0  0  0  0  0
  140.5000   75.3180  221.4910 C   0  0  0  0  0  0  0  0  0  0  0  0
  140.3110   75.0860  220.0710 N   0  0  0  0  0  0  0  0  0  0  0  0
  140.3950   73.8310  219.4480 C   0  0  0  0  0  0  0  0  0  0  0  0
  141.6280   73.2080  219.0510 C   0  0  0  0  0  0  0  0  0  0  0  0
  141.5700   72.6200  217.8810 O   0  0  0  0  0  0  0  0  0  0  0  0
  142.8920   73.1260  219.7270 N   0  0  0  0  0  0  0  0  0  0  0  0
  143.4990   71.8510  220.0150 C   0  0  0  0  0  0  0  0  0  0  0  0
  145.0030   71.9850  220.0960 C   0  0  0  0  0  0  0  0  0  0  0  0
  145.3060   73.0680  221.1130 C   0  0  0  0  0  0  0  0  0  0  0  0
  144.8500   74.4120  220.5800 C   0  0  0  0  0  0  0  0  0  0  0  0
  143.4560   74.4120  220.1030 C   0  0  1  0  0  0  0  0  0  0  0  0
  143.3110   75.4700  219.0880 C   0  0  0  0  0  0  0  0  0  0  0  0
  142.7330   76.6960  219.4540 C   0  0  0  0  0  0  0  0  0  0  0  0
  142.5730   77.7250  218.5660 C   0  0  0  0  0  0  0  0  0  0  0  0
  142.9740   77.6050  217.2630 C   0  0  0  0  0  0  0  0  0  0  0  0
  143.5440   76.4220  216.8680 C   0  0  0  0  0  0  0  0  0  0  0  0
  143.7040   75.3760  217.7750 C   0  0  0  0  0  0  0  0  0  0  0  0
  144.4300   73.9130  217.1650 Cl  0  0  0  0  0  0  0  0  0  0  0  0
  140.3810   76.6720  222.0470 C   0  0  0  0  0  0  0  0  0  0  0  0
  139.1220   77.1470  222.3400 C   0  0  0  0  0  0  0  0  0  0  0  0
  138.9410   78.4090  222.8640 C   0  0  0  0  0  0  0  0  0  0  0  0
  140.0430   79.2130  223.1000 C   0  0  0  0  0  0  0  0  0  0  0  0
  139.8850   80.4850  223.6260 C   0  0  0  0  0  0  0  0  0  0  0  0
  141.0030   81.2540  223.8460 C   0  0  0  0  0  0  0  0  0  0  0  0
  142.2810   80.7710  223.5470 C   0  0  0  0  0  0  0  0  0  0  0  0
  142.4160   79.4940  223.0200 C   0  0  0  0  0  0  0  0  0  0  0  0
  141.3020   78.7120  222.7950 C   0  0  0  0  0  0  0  0  0  0  0  0
  141.4470   77.4570  222.2780 N   0  0  0  0  0  0  0  0  0  0  0  0
  140.0960   75.9860  219.5390 H   0  0  0  0  0  0  0  0  0  0  0  0
  139.9131   73.1233  220.1386 H   0  0  0  0  0  0  0  0  0  0  0  0
  139.9512   74.0563  218.4670 H   0  0  0  0  0  0  0  0  0  0  0  0
  143.1168   71.4774  220.9764 H   0  0  0  0  0  0  0  0  0  0  0  0
  143.2481   71.1477  219.2073 H   0  0  0  0  0  0  0  0  0  0  0  0
  145.4489   71.0320  220.4170 H   0  0  0  0  0  0  0  0  0  0  0  0
  145.4239   72.2451  219.1136 H   0  0  0  0  0  0  0  0  0  0  0  0
  144.7753   72.8475  222.0509 H   0  0  0  0  0  0  0  0  0  0  0  0
  146.3895   73.0990  221.3000 H   0  0  0  0  0  0  0  0  0  0  0  0
  144.9426   75.1557  221.3852 H   0  0  0  0  0  0  0  0  0  0  0  0
  145.4879   74.6512  219.7163 H   0  0  0  0  0  0  0  0  0  0  0  0
  142.8179   74.6431  220.9687 H   0  0  0  0  0  0  0  0  0  0  0  0
  142.3966   76.8345  220.4921 H   0  0  0  0  0  0  0  0  0  0  0  0
  142.1139   78.6652  218.9056 H   0  0  0  0  0  0  0  0  0  0  0  0
  142.8427   78.4344  216.5524 H   0  0  0  0  0  0  0  0  0  0  0  0
  143.8776   76.2976  215.8272 H   0  0  0  0  0  0  0  0  0  0  0  0
  138.2460   76.5085  222.1527 H   0  0  0  0  0  0  0  0  0  0  0  0
  137.9290   78.7744  223.0928 H   0  0  0  0  0  0  0  0  0  0  0  0
  138.8832   80.8725  223.8633 H   0  0  0  0  0  0  0  0  0  0  0  0
  140.8907   82.2653  224.2638 H   0  0  0  0  0  0  0  0  0  0  0  0
  143.1684   81.3955  223.7273 H   0  0  0  0  0  0  0  0  0  0  0  0
  143.4162   79.1036  222.7806 H   0  0  0  0  0  0  0  0  0  0  0  0
  1  2  2  0
  2  3  1  0
  3  4  1  0
  4  5  1  0
  5  6  2  0
  5  7  1  0
  7  8  1  0
  8  9  1  0
  9 10  1  0
 10 11  1  0
 11 12  1  0
 12 13  1  0
 13 14  2  0
 14 15  1  0
 15 16  2  0
 16 17  1  0
 17 18  2  0
 18 19  1  0
  2 20  1  0
 20 21  2  0
 21 22  1  0
 22 23  2  0
 23 24  1  0
 24 25  2  0
 25 26  1  0
 26 27  2  0
 27 28  1  0
 28 29  2  0
 12  7  1  0
 18 13  1  0
 29 20  1  0
 28 23  1  0
  3 30  1  0
  4 31  1  0
  4 32  1  0
  8 33  1  0
  8 34  1  0
  9 35  1  0
  9 36  1  0
 10 37  1  0
 10 38  1  0
 11 39  1  0
 11 40  1  0
 12 41  1  1
 14 42  1  0
 15 43  1  0
 16 44  1  0
 17 45  1  0
 21 46  1  0
 22 47  1  0
 24 48  1  0
 25 49  1  0
 26 50  1  0
 27 51  1  0
M  END
>  <smiles>  (97) 
O=C(NCC(=O)N1CCCCC1c1ccccc1Cl)c1ccc2ccccc2n1

>  <score_type>  (97) 
oracle

>  <origin>  (97) 
autodockgpu

>  <m_score__min__energy>  (97) 
-8.6899999999999995

>  <m_primary>  (97) 
energy

>  <rmsd>  (97) 
7.442237071648309

>  <m_score__min__rmsd>  (97) 
7.442237071648309

>  <meeko>  (97) 
{"free_energy": -7.36, "intermolecular_energy": -8.85, "internal_energy": -2.31, "cluster_size": 6, "cluster_id": 5, "rank_in_cluster": 6}

>  <energy>  (97) 
-7.72

>  <cluster_rmsd>  (97) 
0.04

>  <cluster>  (97) 
5

$$$$

     RDKit          3D

 51 54  0  0  0  0  0  0  0  0999 V2000
  141.3980   73.0680  221.6910 O   0  0  0  0  0  0  0  0  0  0  0  0
  140.3680   72.9820  222.4240 C   0  0  0  0  0  0  0  0  0  0  0  0
  139.3580   74.0200  222.3360 N   0  0  0  0  0  0  0  0  0  0  0  0
  139.4260   75.1300  221.4810 C   0  0  0  0  0  0  0  0  0  0  0  0
  140.4770   76.1100  221.5120 C   0  0  0  0  0  0  0  0  0  0  0  0
  140.9820   76.3050  222.7050 O   0  0  0  0  0  0  0  0  0  0  0  0
  141.0490   76.8980  220.4560 N   0  0  0  0  0  0  0  0  0  0  0  0
  141.2090   76.3580  219.1290 C   0  0  0  0  0  0  0  0  0  0  0  0
  141.1830   77.4650  218.0990 C   0  0  0  0  0  0  0  0  0  0  0  0
  142.2390   78.4780  218.4970 C   0  0  0  0  0  0  0  0  0  0  0  0
  141.8280   79.1680  219.7820 C   0  0  0  0  0  0  0  0  0  0  0  0
  141.4600   78.2330  220.8590 C   0  0  1  0  0  0  0  0  0  0  0  0
  140.5270   78.9160  221.7720 C   0  0  0  0  0  0  0  0  0  0  0  0
  139.1480   78.8510  221.5160 C   0  0  0  0  0  0  0  0  0  0  0  0
  138.2230   79.4530  222.3250 C   0  0  0  0  0  0  0  0  0  0  0  0
  138.6040   80.1580  223.4350 C   0  0  0  0  0  0  0  0  0  0  0  0
  139.9430   80.2440  223.7170 C   0  0  0  0  0  0  0  0  0  0  0  0
  140.8820   79.6290  222.8910 C   0  0  0  0  0  0  0  0  0  0  0  0
  142.5570   79.8100  223.3380 Cl  0  0  0  0  0  0  0  0  0  0  0  0
  140.1970   71.8520  223.3480 C   0  0  0  0  0  0  0  0  0  0  0  0
  139.5330   70.7340  222.8920 C   0  0  0  0  0  0  0  0  0  0  0  0
  139.3390   69.6400  223.7070 C   0  0  0  0  0  0  0  0  0  0  0  0
  139.8190   69.6650  225.0070 C   0  0  0  0  0  0  0  0  0  0  0  0
  139.6350   68.5770  225.8440 C   0  0  0  0  0  0  0  0  0  0  0  0
  140.1250   68.6380  227.1270 C   0  0  0  0  0  0  0  0  0  0  0  0
  140.7980   69.7740  227.5890 C   0  0  0  0  0  0  0  0  0  0  0  0
  140.9700   70.8530  226.7320 C   0  0  0  0  0  0  0  0  0  0  0  0
  140.4830   70.8040  225.4420 C   0  0  0  0  0  0  0  0  0  0  0  0
  140.6600   71.8700  224.6090 N   0  0  0  0  0  0  0  0  0  0  0  0
  138.5400   73.8470  223.0010 H   0  0  0  0  0  0  0  0  0  0  0  0
  139.4325   74.7193  220.4606 H   0  0  0  0  0  0  0  0  0  0  0  0
  138.5766   75.7256  221.8468 H   0  0  0  0  0  0  0  0  0  0  0  0
  142.1714   75.8289  219.0673 H   0  0  0  0  0  0  0  0  0  0  0  0
  140.3803   75.6638  218.9255 H   0  0  0  0  0  0  0  0  0  0  0  0
  141.4094   77.0573  217.1027 H   0  0  0  0  0  0  0  0  0  0  0  0
  140.1892   77.9348  218.0581 H   0  0  0  0  0  0  0  0  0  0  0  0
  143.1995   77.9639  218.6493 H   0  0  0  0  0  0  0  0  0  0  0  0
  142.3431   79.2277  217.6988 H   0  0  0  0  0  0  0  0  0  0  0  0
  142.6689   79.7861  220.1297 H   0  0  0  0  0  0  0  0  0  0  0  0
  140.9347   79.7685  219.5555 H   0  0  0  0  0  0  0  0  0  0  0  0
  142.3852   77.9829  221.3988 H   0  0  0  0  0  0  0  0  0  0  0  0
  138.7985   78.2959  220.6330 H   0  0  0  0  0  0  0  0  0  0  0  0
  137.1542   79.3690  222.0790 H   0  0  0  0  0  0  0  0  0  0  0  0
  137.8573   80.6415  224.0820 H   0  0  0  0  0  0  0  0  0  0  0  0
  140.2789   80.8032  224.6027 H   0  0  0  0  0  0  0  0  0  0  0  0
  139.1516   70.7145  221.8604 H   0  0  0  0  0  0  0  0  0  0  0  0
  138.8076   68.7542  223.3290 H   0  0  0  0  0  0  0  0  0  0  0  0
  139.1063   67.6802  225.4886 H   0  0  0  0  0  0  0  0  0  0  0  0
  139.9857   67.7799  227.8010 H   0  0  0  0  0  0  0  0  0  0  0  0
  141.1859   69.8121  228.6177 H   0  0  0  0  0  0  0  0  0  0  0  0
  141.4975   71.7519  227.0836 H   0  0  0  0  0  0  0  0  0  0  0  0
  1  2  2  0
  2  3  1  0
  3  4  1  0
  4  5  1  0
  5  6  2  0
  5  7  1  0
  7  8  1  0
  8  9  1  0
  9 10  1  0
 10 11  1  0
 11 12  1  0
 12 13  1  0
 13 14  2  0
 14 15  1  0
 15 16  2  0
 16 17  1  0
 17 18  2  0
 18 19  1  0
  2 20  1  0
 20 21  2  0
 21 22  1  0
 22 23  2  0
 23 24  1  0
 24 25  2  0
 25 26  1  0
 26 27  2  0
 27 28  1  0
 28 29  2  0
 12  7  1  0
 18 13  1  0
 29 20  1  0
 28 23  1  0
  3 30  1  0
  4 31  1  0
  4 32  1  0
  8 33  1  0
  8 34  1  0
  9 35  1  0
  9 36  1  0
 10 37  1  0
 10 38  1  0
 11 39  1  0
 11 40  1  0
 12 41  1  1
 14 42  1  0
 15 43  1  0
 16 44  1  0
 17 45  1  0
 21 46  1  0
 22 47  1  0
 24 48  1  0
 25 49  1  0
 26 50  1  0
 27 51  1  0
M  END
>  <smiles>  (98) 
O=C(NCC(=O)N1CCCCC1c1ccccc1Cl)c1ccc2ccccc2n1

>  <score_type>  (98) 
oracle

>  <origin>  (98) 
autodockgpu

>  <m_score__min__energy>  (98) 
-8.6899999999999995

>  <m_primary>  (98) 
energy

>  <rmsd>  (98) 
1.9980365190708351

>  <m_score__min__rmsd>  (98) 
1.9980365190708351

>  <meeko>  (98) 
{"free_energy": -8.55, "intermolecular_energy": -10.04, "internal_energy": -1.4, "cluster_size": 3, "cluster_id": 1, "rank_in_cluster": 2}

>  <energy>  (98) 
-7.7

>  <cluster_rmsd>  (98) 
0.06

>  <cluster>  (98) 
5

$$$$

     RDKit          3D

 51 54  0  0  0  0  0  0  0  0999 V2000
  141.5440   72.1990  221.7990 O   0  0  0  0  0  0  0  0  0  0  0  0
  140.5280   72.4160  222.5250 C   0  0  0  0  0  0  0  0  0  0  0  0
  139.6430   73.5130  222.1800 N   0  0  0  0  0  0  0  0  0  0  0  0
  139.8190   74.3650  221.0790 C   0  0  0  0  0  0  0  0  0  0  0  0
  140.8550   75.3560  220.9820 C   0  0  0  0  0  0  0  0  0  0  0  0
  141.4670   75.5930  222.1170 O   0  0  0  0  0  0  0  0  0  0  0  0
  141.3150   76.1190  219.8560 N   0  0  0  0  0  0  0  0  0  0  0  0
  140.9500   77.5050  219.6990 C   0  0  0  0  0  0  0  0  0  0  0  0
  142.0020   78.2440  218.9010 C   0  0  0  0  0  0  0  0  0  0  0  0
  142.1900   77.4930  217.5980 C   0  0  0  0  0  0  0  0  0  0  0  0
  142.8230   76.1430  217.8710 C   0  0  0  0  0  0  0  0  0  0  0  0
  142.1280   75.3680  218.9130 C   0  0  1  0  0  0  0  0  0  0  0  0
  143.0940   74.4440  219.5320 C   0  0  0  0  0  0  0  0  0  0  0  0
  144.1930   74.9700  220.2300 C   0  0  0  0  0  0  0  0  0  0  0  0
  145.1250   74.1720  220.8360 C   0  0  0  0  0  0  0  0  0  0  0  0
  145.0280   72.8080  220.7900 C   0  0  0  0  0  0  0  0  0  0  0  0
  143.9670   72.2570  220.1170 C   0  0  0  0  0  0  0  0  0  0  0  0
  143.0210   73.0730  219.5010 C   0  0  0  0  0  0  0  0  0  0  0  0
  141.7200   72.2690  218.6640 Cl  0  0  0  0  0  0  0  0  0  0  0  0
  140.2500   71.5740  223.6970 C   0  0  0  0  0  0  0  0  0  0  0  0
  139.5150   70.4240  223.5110 C   0  0  0  0  0  0  0  0  0  0  0  0
  139.2190   69.5900  224.5680 C   0  0  0  0  0  0  0  0  0  0  0  0
  139.6670   69.9150  225.8380 C   0  0  0  0  0  0  0  0  0  0  0  0
  139.3810   69.0920  226.9150 C   0  0  0  0  0  0  0  0  0  0  0  0
  139.8430   69.4470  228.1600 C   0  0  0  0  0  0  0  0  0  0  0  0
  140.5880   70.6150  228.3470 C   0  0  0  0  0  0  0  0  0  0  0  0
  140.8630   71.4250  227.2540 C   0  0  0  0  0  0  0  0  0  0  0  0
  140.4050   71.0800  225.9990 C   0  0  0  0  0  0  0  0  0  0  0  0
  140.6820   71.8840  224.9310 N   0  0  0  0  0  0  0  0  0  0  0  0
  138.8270   73.6050  222.8620 H   0  0  0  0  0  0  0  0  0  0  0  0
  139.9580   73.7039  220.2109 H   0  0  0  0  0  0  0  0  0  0  0  0
  138.9285   75.0046  221.1679 H   0  0  0  0  0  0  0  0  0  0  0  0
  139.9861   77.5679  219.1727 H   0  0  0  0  0  0  0  0  0  0  0  0
  140.8699   77.9663  220.6944 H   0  0  0  0  0  0  0  0  0  0  0  0
  141.6672   79.2720  218.6980 H   0  0  0  0  0  0  0  0  0  0  0  0
  142.9481   78.2974  219.4596 H   0  0  0  0  0  0  0  0  0  0  0  0
  141.2120   77.3472  217.1160 H   0  0  0  0  0  0  0  0  0  0  0  0
  142.8467   78.0749  216.9346 H   0  0  0  0  0  0  0  0  0  0  0  0
  142.8139   75.5593  216.9387 H   0  0  0  0  0  0  0  0  0  0  0  0
  143.8437   76.3320  218.2351 H   0  0  0  0  0  0  0  0  0  0  0  0
  141.3378   74.7905  218.4108 H   0  0  0  0  0  0  0  0  0  0  0  0
  144.3089   76.0621  220.2919 H   0  0  0  0  0  0  0  0  0  0  0  0
  145.9676   74.6357  221.3699 H   0  0  0  0  0  0  0  0  0  0  0  0
  145.7797   72.1709  221.2789 H   0  0  0  0  0  0  0  0  0  0  0  0
  143.8626   71.1633  220.0635 H   0  0  0  0  0  0  0  0  0  0  0  0
  139.1584   70.1669  222.5026 H   0  0  0  0  0  0  0  0  0  0  0  0
  138.6320   68.6742  224.4044 H   0  0  0  0  0  0  0  0  0  0  0  0
  138.7950   68.1714  226.7764 H   0  0  0  0  0  0  0  0  0  0  0  0
  139.6229   68.8016  229.0231 H   0  0  0  0  0  0  0  0  0  0  0  0
  140.9519   70.8888  229.3483 H   0  0  0  0  0  0  0  0  0  0  0  0
  141.4488   72.3462  227.3889 H   0  0  0  0  0  0  0  0  0  0  0  0
  1  2  2  0
  2  3  1  0
  3  4  1  0
  4  5  1  0
  5  6  2  0
  5  7  1  0
  7  8  1  0
  8  9  1  0
  9 10  1  0
 10 11  1  0
 11 12  1  0
 12 13  1  0
 13 14  2  0
 14 15  1  0
 15 16  2  0
 16 17  1  0
 17 18  2  0
 18 19  1  0
  2 20  1  0
 20 21  2  0
 21 22  1  0
 22 23  2  0
 23 24  1  0
 24 25  2  0
 25 26  1  0
 26 27  2  0
 27 28  1  0
 28 29  2  0
 12  7  1  0
 18 13  1  0
 29 20  1  0
 28 23  1  0
  3 30  1  0
  4 31  1  0
  4 32  1  0
  8 33  1  0
  8 34  1  0
  9 35  1  0
  9 36  1  0
 10 37  1  0
 10 38  1  0
 11 39  1  0
 11 40  1  0
 12 41  1  6
 14 42  1  0
 15 43  1  0
 16 44  1  0
 17 45  1  0
 21 46  1  0
 22 47  1  0
 24 48  1  0
 25 49  1  0
 26 50  1  0
 27 51  1  0
M  END
>  <smiles>  (99) 
O=C(NCC(=O)N1CCCCC1c1ccccc1Cl)c1ccc2ccccc2n1

>  <score_type>  (99) 
oracle

>  <origin>  (99) 
autodockgpu

>  <m_score__min__energy>  (99) 
-8.6899999999999995

>  <m_primary>  (99) 
energy

>  <rmsd>  (99) 
2.198286302771364

>  <m_score__min__rmsd>  (99) 
2.198286302771364

>  <meeko>  (99) 
{"free_energy": -8.39, "intermolecular_energy": -9.88, "internal_energy": -1.98, "cluster_size": 16, "cluster_id": 2, "rank_in_cluster": 11}

>  <energy>  (99) 
-7.59

>  <cluster_rmsd>  (99) 
0.2

>  <cluster>  (99) 
5

$$$$

     RDKit          3D

 51 54  0  0  0  0  0  0  0  0999 V2000
  140.1800   71.2050  221.2150 O   0  0  0  0  0  0  0  0  0  0  0  0
  139.9910   71.8850  222.2670 C   0  0  0  0  0  0  0  0  0  0  0  0
  139.7280   73.3060  222.1430 N   0  0  0  0  0  0  0  0  0  0  0  0
  139.6540   74.0020  220.9260 C   0  0  0  0  0  0  0  0  0  0  0  0
  140.7220   74.0630  219.9660 C   0  0  0  0  0  0  0  0  0  0  0  0
  140.3480   74.4950  218.7870 O   0  0  0  0  0  0  0  0  0  0  0  0
  142.1120   73.7260  220.0940 N   0  0  0  0  0  0  0  0  0  0  0  0
  142.5750   72.3810  219.8580 C   0  0  0  0  0  0  0  0  0  0  0  0
  144.0180   72.3870  219.4040 C   0  0  0  0  0  0  0  0  0  0  0  0
  144.8140   73.1520  220.4430 C   0  0  0  0  0  0  0  0  0  0  0  0
  144.4190   74.6150  220.4170 C   0  0  0  0  0  0  0  0  0  0  0  0
  142.9640   74.8320  220.5000 C   0  0  1  0  0  0  0  0  0  0  0  0
  142.6470   76.1210  219.8610 C   0  0  0  0  0  0  0  0  0  0  0  0
  143.2000   76.4170  218.6050 C   0  0  0  0  0  0  0  0  0  0  0  0
  142.9430   77.5900  217.9490 C   0  0  0  0  0  0  0  0  0  0  0  0
  142.1240   78.5420  218.4940 C   0  0  0  0  0  0  0  0  0  0  0  0
  141.5640   78.2880  219.7200 C   0  0  0  0  0  0  0  0  0  0  0  0
  141.8290   77.0920  220.3850 C   0  0  0  0  0  0  0  0  0  0  0  0
  141.0750   76.8770  221.9420 Cl  0  0  0  0  0  0  0  0  0  0  0  0
  140.0380   71.2490  223.5910 C   0  0  0  0  0  0  0  0  0  0  0  0
  139.5520   69.9660  223.7130 C   0  0  0  0  0  0  0  0  0  0  0  0
  139.5660   69.3120  224.9260 C   0  0  0  0  0  0  0  0  0  0  0  0
  140.0780   69.9560  226.0410 C   0  0  0  0  0  0  0  0  0  0  0  0
  140.1020   69.3180  227.2700 C   0  0  0  0  0  0  0  0  0  0  0  0
  140.6170   69.9890  228.3540 C   0  0  0  0  0  0  0  0  0  0  0  0
  141.1100   71.2910  228.2290 C   0  0  0  0  0  0  0  0  0  0  0  0
  141.0750   71.9120  226.9870 C   0  0  0  0  0  0  0  0  0  0  0  0
  140.5610   71.2490  225.8920 C   0  0  0  0  0  0  0  0  0  0  0  0
  140.5330   71.8680  224.6750 N   0  0  0  0  0  0  0  0  0  0  0  0
  139.5910   73.7770  223.0910 H   0  0  0  0  0  0  0  0  0  0  0  0
  138.7955   73.5722  220.3891 H   0  0  0  0  0  0  0  0  0  0  0  0
  139.6352   75.0425  221.2824 H   0  0  0  0  0  0  0  0  0  0  0  0
  142.4913   71.8012  220.7890 H   0  0  0  0  0  0  0  0  0  0  0  0
  141.9570   71.9262  219.0698 H   0  0  0  0  0  0  0  0  0  0  0  0
  144.3927   71.3557  219.3269 H   0  0  0  0  0  0  0  0  0  0  0  0
  144.1133   72.8591  218.4150 H   0  0  0  0  0  0  0  0  0  0  0  0
  144.6081   72.7357  221.4402 H   0  0  0  0  0  0  0  0  0  0  0  0
  145.8869   73.0613  220.2180 H   0  0  0  0  0  0  0  0  0  0  0  0
  144.8956   75.1196  221.2703 H   0  0  0  0  0  0  0  0  0  0  0  0
  144.7527   75.0234  219.4517 H   0  0  0  0  0  0  0  0  0  0  0  0
  142.7053   74.8778  221.5682 H   0  0  0  0  0  0  0  0  0  0  0  0
  143.8640   75.6791  218.1310 H   0  0  0  0  0  0  0  0  0  0  0  0
  143.4027   77.7713  216.9662 H   0  0  0  0  0  0  0  0  0  0  0  0
  141.9208   79.4840  217.9637 H   0  0  0  0  0  0  0  0  0  0  0  0
  140.9006   79.0339  220.1820 H   0  0  0  0  0  0  0  0  0  0  0  0
  139.1460   69.4549  222.8276 H   0  0  0  0  0  0  0  0  0  0  0  0
  139.1741   68.2875  225.0084 H   0  0  0  0  0  0  0  0  0  0  0  0
  139.7162   68.2934  227.3769 H   0  0  0  0  0  0  0  0  0  0  0  0
  140.6415   69.4931  229.3356 H   0  0  0  0  0  0  0  0  0  0  0  0
  141.5206   71.8173  229.1033 H   0  0  0  0  0  0  0  0  0  0  0  0
  141.4588   72.9369  226.8762 H   0  0  0  0  0  0  0  0  0  0  0  0
  1  2  2  0
  2  3  1  0
  3  4  1  0
  4  5  1  0
  5  6  2  0
  5  7  1  0
  7  8  1  0
  8  9  1  0
  9 10  1  0
 10 11  1  0
 11 12  1  0
 12 13  1  0
 13 14  2  0
 14 15  1  0
 15 16  2  0
 16 17  1  0
 17 18  2  0
 18 19  1  0
  2 20  1  0
 20 21  2  0
 21 22  1  0
 22 23  2  0
 23 24  1  0
 24 25  2  0
 25 26  1  0
 26 27  2  0
 27 28  1  0
 28 29  2  0
 12  7  1  0
 18 13  1  0
 29 20  1  0
 28 23  1  0
  3 30  1  0
  4 31  1  0
  4 32  1  0
  8 33  1  0
  8 34  1  0
  9 35  1  0
  9 36  1  0
 10 37  1  0
 10 38  1  0
 11 39  1  0
 11 40  1  0
 12 41  1  1
 14 42  1  0
 15 43  1  0
 16 44  1  0
 17 45  1  0
 21 46  1  0
 22 47  1  0
 24 48  1  0
 25 49  1  0
 26 50  1  0
 27 51  1  0
M  END
>  <smiles>  (100) 
O=C(NCC(=O)N1CCCCC1c1ccccc1Cl)c1ccc2ccccc2n1

>  <score_type>  (100) 
oracle

>  <origin>  (100) 
autodockgpu

>  <m_score__min__energy>  (100) 
-8.6899999999999995

>  <m_primary>  (100) 
energy

>  <rmsd>  (100) 
2.9360492296811564

>  <m_score__min__rmsd>  (100) 
2.9360492296811564

>  <meeko>  (100) 
{"free_energy": -8.46, "intermolecular_energy": -9.95, "internal_energy": -1.96, "cluster_size": 13, "cluster_id": 3, "rank_in_cluster": 4}

>  <energy>  (100) 
-7.36

>  <cluster_rmsd>  (100) 
1.11

>  <cluster>  (100) 
5

$$$$
