
     RDKit          3D

 56 59  0  0  0  0  0  0  0  0999 V2000
  141.2200   72.0130  221.4420 O   0  0  0  0  0  0  0  0  0  0  0  0
  140.4920   72.3540  222.4110 C   0  0  0  0  0  0  0  0  0  0  0  0
  139.8270   73.6110  222.3380 N   0  0  0  0  0  0  0  0  0  0  0  0
  140.0830   74.3860  221.0870 C   0  0  0  0  0  0  0  0  0  0  0  0
  140.4870   75.7520  221.4430 C   0  0  0  0  0  0  0  0  0  0  0  0
  139.8640   76.2400  222.4750 O   0  0  0  0  0  0  0  0  0  0  0  0
  141.4220   76.6010  220.8660 N   0  0  0  0  0  0  0  0  0  0  0  0
  142.3670   76.0270  219.8260 C   0  0  0  0  0  0  0  0  0  0  0  0
  142.0820   77.0010  218.7010 C   0  0  2  0  0  0  0  0  0  0  0  0
  143.2690   77.2170  217.9840 O   0  0  0  0  0  0  0  0  0  0  0  0
  141.6380   78.3000  219.3980 C   0  0  2  0  0  0  0  0  0  0  0  0
  142.4990   79.3100  218.9850 O   0  0  0  0  0  0  0  0  0  0  0  0
  141.8320   77.9560  220.8680 C   0  0  1  0  0  0  0  0  0  0  0  0
  141.2090   78.8600  221.8330 C   0  0  0  0  0  0  0  0  0  0  0  0
  142.2610   79.6500  222.5750 C   0  0  0  0  0  0  0  0  0  0  0  0
  141.6420   80.2140  223.8260 C   0  0  0  0  0  0  0  0  0  0  0  0
  140.1660   80.4510  223.5520 C   0  0  0  0  0  0  0  0  0  0  0  0
  139.9720   80.9630  222.1540 C   0  0  0  0  0  0  0  0  0  0  0  0
  140.2930   79.8750  221.1630 C   0  0  0  0  0  0  0  0  0  0  0  0
  140.3050   71.5200  223.5990 C   0  0  0  0  0  0  0  0  0  0  0  0
  139.6320   70.3140  223.4160 C   0  0  0  0  0  0  0  0  0  0  0  0
  139.4090   69.4650  224.4760 C   0  0  0  0  0  0  0  0  0  0  0  0
  139.8730   69.8490  225.7180 C   0  0  0  0  0  0  0  0  0  0  0  0
  139.6460   68.9900  226.7770 C   0  0  0  0  0  0  0  0  0  0  0  0
  140.0940   69.3430  228.0190 C   0  0  0  0  0  0  0  0  0  0  0  0
  139.9030   68.5540  229.0860 F   0  0  0  0  0  0  0  0  0  0  0  0
  140.7670   70.5460  228.2140 C   0  0  0  0  0  0  0  0  0  0  0  0
  140.9760   71.3830  227.1210 C   0  0  0  0  0  0  0  0  0  0  0  0
  140.5340   71.0510  225.8520 C   0  0  0  0  0  0  0  0  0  0  0  0
  140.7540   71.8840  224.8170 N   0  0  0  0  0  0  0  0  0  0  0  0
  139.2070   73.9890  223.0750 H   0  0  0  0  0  0  0  0  0  0  0  0
  140.8862   73.9023  220.5118 H   0  0  0  0  0  0  0  0  0  0  0  0
  139.1686   74.4170  220.4763 H   0  0  0  0  0  0  0  0  0  0  0  0
  143.4166   76.0670  220.1528 H   0  0  0  0  0  0  0  0  0  0  0  0
  142.2227   74.9635  219.5849 H   0  0  0  0  0  0  0  0  0  0  0  0
  141.3173   76.6371  217.9990 H   0  0  0  0  0  0  0  0  0  0  0  0
  143.9290   77.7510  218.4880 H   0  0  0  0  0  0  0  0  0  0  0  0
  140.6137   78.6394  219.1844 H   0  0  0  0  0  0  0  0  0  0  0  0
  143.4080   78.9130  218.9710 H   0  0  0  0  0  0  0  0  0  0  0  0
  142.8576   78.0930  221.2413 H   0  0  0  0  0  0  0  0  0  0  0  0
  140.6266   78.2216  222.5136 H   0  0  0  0  0  0  0  0  0  0  0  0
  143.1006   78.9911  222.8412 H   0  0  0  0  0  0  0  0  0  0  0  0
  142.6369   80.4658  221.9400 H   0  0  0  0  0  0  0  0  0  0  0  0
  141.7582   79.5002  224.6549 H   0  0  0  0  0  0  0  0  0  0  0  0
  142.1355   81.1564  224.1060 H   0  0  0  0  0  0  0  0  0  0  0  0
  139.6181   79.5046  223.6713 H   0  0  0  0  0  0  0  0  0  0  0  0
  139.7852   81.1987  224.2633 H   0  0  0  0  0  0  0  0  0  0  0  0
  138.9268   81.2796  222.0228 H   0  0  0  0  0  0  0  0  0  0  0  0
  140.6425   81.8183  221.9842 H   0  0  0  0  0  0  0  0  0  0  0  0
  139.3642   79.3805  220.8423 H   0  0  0  0  0  0  0  0  0  0  0  0
  140.7911   80.3054  220.2817 H   0  0  0  0  0  0  0  0  0  0  0  0
  139.2749   70.0372  222.4131 H   0  0  0  0  0  0  0  0  0  0  0  0
  138.8783   68.5114  224.3379 H   0  0  0  0  0  0  0  0  0  0  0  0
  139.1143   68.0394  226.6228 H   0  0  0  0  0  0  0  0  0  0  0  0
  141.1272   70.8302  229.2137 H   0  0  0  0  0  0  0  0  0  0  0  0
  141.5072   72.3346  227.2702 H   0  0  0  0  0  0  0  0  0  0  0  0
  1  2  2  0
  2  3  1  0
  3  4  1  0
  4  5  1  0
  5  6  2  0
  5  7  1  0
  7  8  1  0
  8  9  1  0
  9 10  1  0
  9 11  1  0
 11 12  1  0
 11 13  1  0
 13 14  1  0
 14 15  1  0
 15 16  1  0
 16 17  1  0
 17 18  1  0
 18 19  1  0
  2 20  1  0
 20 21  2  0
 21 22  1  0
 22 23  2  0
 23 24  1  0
 24 25  2  0
 25 26  1  0
 25 27  1  0
 27 28  2  0
 28 29  1  0
 29 30  2  0
 13  7  1  0
 19 14  1  0
 30 20  1  0
 29 23  1  0
  3 31  1  0
  4 32  1  0
  4 33  1  0
  8 34  1  0
  8 35  1  0
  9 36  1  6
 10 37  1  0
 11 38  1  1
 12 39  1  0
 13 40  1  1
 14 41  1  0
 15 42  1  0
 15 43  1  0
 16 44  1  0
 16 45  1  0
 17 46  1  0
 17 47  1  0
 18 48  1  0
 18 49  1  0
 19 50  1  0
 19 51  1  0
 21 52  1  0
 22 53  1  0
 24 54  1  0
 27 55  1  0
 28 56  1  0
M  END
>  <smiles>  (1) 
O=C(NCC(=O)N1C[C@H](O)[C@H](O)[C@H]1C1CCCCC1)c1ccc2cc(F)ccc2n1

>  <score_type>  (1) 
oracle

>  <origin>  (1) 
autodockgpu

>  <m_score__min__energy>  (1) 
-8.8900000000000006

>  <m_primary>  (1) 
energy

>  <rmsd>  (1) 
2.427786833647225

>  <m_score__min__rmsd>  (1) 
2.427786833647225

>  <meeko>  (1) 
{"free_energy": -8.7, "intermolecular_energy": -10.79, "internal_energy": -2.96, "cluster_size": 38, "cluster_id": 1, "rank_in_cluster": 5}

>  <energy>  (1) 
-8.89

>  <cluster_rmsd>  (1) 
0.0

>  <cluster>  (1) 
1

$$$$

     RDKit          3D

 56 59  0  0  0  0  0  0  0  0999 V2000
  141.1340   71.9390  221.3660 O   0  0  0  0  0  0  0  0  0  0  0  0
  140.4870   72.3310  222.3710 C   0  0  0  0  0  0  0  0  0  0  0  0
  139.9320   73.6420  222.3420 N   0  0  0  0  0  0  0  0  0  0  0  0
  140.1960   74.4070  221.0860 C   0  0  0  0  0  0  0  0  0  0  0  0
  140.5400   75.7920  221.4310 C   0  0  0  0  0  0  0  0  0  0  0  0
  139.8980   76.2600  222.4610 O   0  0  0  0  0  0  0  0  0  0  0  0
  141.4360   76.6760  220.8460 N   0  0  0  0  0  0  0  0  0  0  0  0
  142.3440   76.1560  219.7460 C   0  0  0  0  0  0  0  0  0  0  0  0
  141.9950   77.1650  218.6700 C   0  0  2  0  0  0  0  0  0  0  0  0
  143.1470   77.4260  217.9120 O   0  0  0  0  0  0  0  0  0  0  0  0
  141.5630   78.4310  219.4320 C   0  0  2  0  0  0  0  0  0  0  0  0
  142.3890   79.4690  219.0200 O   0  0  0  0  0  0  0  0  0  0  0  0
  141.8250   78.0370  220.8790 C   0  0  1  0  0  0  0  0  0  0  0  0
  141.2310   78.8960  221.9020 C   0  0  0  0  0  0  0  0  0  0  0  0
  142.2830   79.7800  222.5290 C   0  0  0  0  0  0  0  0  0  0  0  0
  141.7500   80.3030  223.8370 C   0  0  0  0  0  0  0  0  0  0  0  0
  140.2390   80.4110  223.7170 C   0  0  0  0  0  0  0  0  0  0  0  0
  139.8590   80.8900  222.3470 C   0  0  0  0  0  0  0  0  0  0  0  0
  140.1670   79.8220  221.3290 C   0  0  0  0  0  0  0  0  0  0  0  0
  140.2840   71.5020  223.5600 C   0  0  0  0  0  0  0  0  0  0  0  0
  139.5980   70.3030  223.3770 C   0  0  0  0  0  0  0  0  0  0  0  0
  139.3600   69.4590  224.4370 C   0  0  0  0  0  0  0  0  0  0  0  0
  139.8220   69.8400  225.6810 C   0  0  0  0  0  0  0  0  0  0  0  0
  139.5790   68.9870  226.7410 C   0  0  0  0  0  0  0  0  0  0  0  0
  140.0250   69.3380  227.9840 C   0  0  0  0  0  0  0  0  0  0  0  0
  139.8200   68.5530  229.0520 F   0  0  0  0  0  0  0  0  0  0  0  0
  140.7110   70.5330  228.1800 C   0  0  0  0  0  0  0  0  0  0  0  0
  140.9350   71.3650  227.0860 C   0  0  0  0  0  0  0  0  0  0  0  0
  140.4960   71.0350  225.8150 C   0  0  0  0  0  0  0  0  0  0  0  0
  140.7300   71.8640  224.7800 N   0  0  0  0  0  0  0  0  0  0  0  0
  139.3850   74.0640  223.1110 H   0  0  0  0  0  0  0  0  0  0  0  0
  141.0324   73.9443  220.5417 H   0  0  0  0  0  0  0  0  0  0  0  0
  139.2991   74.3953  220.4492 H   0  0  0  0  0  0  0  0  0  0  0  0
  143.4060   76.2024  220.0288 H   0  0  0  0  0  0  0  0  0  0  0  0
  142.2061   75.0995  219.4726 H   0  0  0  0  0  0  0  0  0  0  0  0
  141.2057   76.8140  217.9890 H   0  0  0  0  0  0  0  0  0  0  0  0
  143.8110   77.9700  218.3990 H   0  0  0  0  0  0  0  0  0  0  0  0
  140.5257   78.7617  219.2746 H   0  0  0  0  0  0  0  0  0  0  0  0
  142.7620   79.1960  218.1430 H   0  0  0  0  0  0  0  0  0  0  0  0
  142.8638   78.1769  221.2127 H   0  0  0  0  0  0  0  0  0  0  0  0
  140.7792   78.2183  222.6413 H   0  0  0  0  0  0  0  0  0  0  0  0
  143.1987   79.1974  222.7079 H   0  0  0  0  0  0  0  0  0  0  0  0
  142.5208   80.6177  221.8569 H   0  0  0  0  0  0  0  0  0  0  0  0
  142.0116   79.6105  224.6507 H   0  0  0  0  0  0  0  0  0  0  0  0
  142.1874   81.2868  224.0626 H   0  0  0  0  0  0  0  0  0  0  0  0
  139.7893   79.4228  223.8937 H   0  0  0  0  0  0  0  0  0  0  0  0
  139.8711   81.1310  224.4629 H   0  0  0  0  0  0  0  0  0  0  0  0
  138.7827   81.1162  222.3247 H   0  0  0  0  0  0  0  0  0  0  0  0
  140.4334   81.7969  222.1071 H   0  0  0  0  0  0  0  0  0  0  0  0
  139.2556   79.2471  221.1080 H   0  0  0  0  0  0  0  0  0  0  0  0
  140.5319   80.2834  220.3995 H   0  0  0  0  0  0  0  0  0  0  0  0
  139.2425   70.0281  222.3730 H   0  0  0  0  0  0  0  0  0  0  0  0
  138.8191   68.5113  224.2979 H   0  0  0  0  0  0  0  0  0  0  0  0
  139.0364   68.0427  226.5868 H   0  0  0  0  0  0  0  0  0  0  0  0
  141.0697   70.8151  229.1809 H   0  0  0  0  0  0  0  0  0  0  0  0
  141.4759   72.3110  227.2358 H   0  0  0  0  0  0  0  0  0  0  0  0
  1  2  2  0
  2  3  1  0
  3  4  1  0
  4  5  1  0
  5  6  2  0
  5  7  1  0
  7  8  1  0
  8  9  1  0
  9 10  1  0
  9 11  1  0
 11 12  1  0
 11 13  1  0
 13 14  1  0
 14 15  1  0
 15 16  1  0
 16 17  1  0
 17 18  1  0
 18 19  1  0
  2 20  1  0
 20 21  2  0
 21 22  1  0
 22 23  2  0
 23 24  1  0
 24 25  2  0
 25 26  1  0
 25 27  1  0
 27 28  2  0
 28 29  1  0
 29 30  2  0
 13  7  1  0
 19 14  1  0
 30 20  1  0
 29 23  1  0
  3 31  1  0
  4 32  1  0
  4 33  1  0
  8 34  1  0
  8 35  1  0
  9 36  1  6
 10 37  1  0
 11 38  1  1
 12 39  1  0
 13 40  1  1
 14 41  1  0
 15 42  1  0
 15 43  1  0
 16 44  1  0
 16 45  1  0
 17 46  1  0
 17 47  1  0
 18 48  1  0
 18 49  1  0
 19 50  1  0
 19 51  1  0
 21 52  1  0
 22 53  1  0
 24 54  1  0
 27 55  1  0
 28 56  1  0
M  END
>  <smiles>  (2) 
O=C(NCC(=O)N1C[C@H](O)[C@H](O)[C@H]1C1CCCCC1)c1ccc2cc(F)ccc2n1

>  <score_type>  (2) 
oracle

>  <origin>  (2) 
autodockgpu

>  <m_score__min__energy>  (2) 
-8.8900000000000006

>  <m_primary>  (2) 
energy

>  <rmsd>  (2) 
2.431804909665403

>  <m_score__min__rmsd>  (2) 
2.431804909665403

>  <meeko>  (2) 
{"free_energy": -8.39, "intermolecular_energy": -10.48, "internal_energy": -3.18, "cluster_size": 38, "cluster_id": 1, "rank_in_cluster": 17}

>  <energy>  (2) 
-8.8

>  <cluster_rmsd>  (2) 
0.23

>  <cluster>  (2) 
1

$$$$

     RDKit          3D

 56 59  0  0  0  0  0  0  0  0999 V2000
  136.3550   77.2890  223.0980 O   0  0  0  0  0  0  0  0  0  0  0  0
  136.5560   76.0640  223.3080 C   0  0  0  0  0  0  0  0  0  0  0  0
  137.7050   75.4640  222.7210 N   0  0  0  0  0  0  0  0  0  0  0  0
  138.5510   76.3890  221.9080 C   0  0  0  0  0  0  0  0  0  0  0  0
  139.8790   75.7910  221.7270 C   0  0  0  0  0  0  0  0  0  0  0  0
  139.9850   74.5790  222.1880 O   0  0  0  0  0  0  0  0  0  0  0  0
  141.0320   76.3000  221.1450 N   0  0  0  0  0  0  0  0  0  0  0  0
  141.9370   75.3440  220.3890 C   0  0  0  0  0  0  0  0  0  0  0  0
  141.9930   76.0840  219.0680 C   0  0  2  0  0  0  0  0  0  0  0  0
  143.2690   75.9080  218.5110 O   0  0  0  0  0  0  0  0  0  0  0  0
  141.7690   77.5640  219.4270 C   0  0  2  0  0  0  0  0  0  0  0  0
  142.8670   78.2770  218.9620 O   0  0  0  0  0  0  0  0  0  0  0  0
  141.7230   77.5200  220.9480 C   0  0  1  0  0  0  0  0  0  0  0  0
  141.2100   78.7150  221.6160 C   0  0  0  0  0  0  0  0  0  0  0  0
  141.4610   78.6400  223.1030 C   0  0  0  0  0  0  0  0  0  0  0  0
  140.5560   79.6280  223.7900 C   0  0  0  0  0  0  0  0  0  0  0  0
  140.3130   80.7840  222.8340 C   0  0  0  0  0  0  0  0  0  0  0  0
  141.5680   81.1060  222.0770 C   0  0  0  0  0  0  0  0  0  0  0  0
  141.8890   79.9860  221.1210 C   0  0  0  0  0  0  0  0  0  0  0  0
  135.6620   75.2400  224.1240 C   0  0  0  0  0  0  0  0  0  0  0  0
  135.6750   73.8690  223.8730 C   0  0  0  0  0  0  0  0  0  0  0  0
  134.8680   73.0160  224.5900 C   0  0  0  0  0  0  0  0  0  0  0  0
  134.0510   73.5620  225.5590 C   0  0  0  0  0  0  0  0  0  0  0  0
  133.2440   72.6980  226.2750 C   0  0  0  0  0  0  0  0  0  0  0  0
  132.4230   73.2110  227.2400 C   0  0  0  0  0  0  0  0  0  0  0  0
  131.6170   72.4250  227.9680 F   0  0  0  0  0  0  0  0  0  0  0  0
  132.4010   74.5790  227.4990 C   0  0  0  0  0  0  0  0  0  0  0  0
  133.2300   75.4150  226.7550 C   0  0  0  0  0  0  0  0  0  0  0  0
  134.0710   74.9240  225.7720 C   0  0  0  0  0  0  0  0  0  0  0  0
  134.8600   75.7620  225.0720 N   0  0  0  0  0  0  0  0  0  0  0  0
  137.9650   74.4690  222.8280 H   0  0  0  0  0  0  0  0  0  0  0  0
  138.0823   76.5494  220.9259 H   0  0  0  0  0  0  0  0  0  0  0  0
  138.6469   77.3548  222.4257 H   0  0  0  0  0  0  0  0  0  0  0  0
  142.9287   75.2551  220.8565 H   0  0  0  0  0  0  0  0  0  0  0  0
  141.5926   74.3006  220.3375 H   0  0  0  0  0  0  0  0  0  0  0  0
  141.2477   75.7275  218.3418 H   0  0  0  0  0  0  0  0  0  0  0  0
  143.6270   76.7350  218.1060 H   0  0  0  0  0  0  0  0  0  0  0  0
  140.8721   78.0366  219.0000 H   0  0  0  0  0  0  0  0  0  0  0  0
  143.6660   77.8530  219.3680 H   0  0  0  0  0  0  0  0  0  0  0  0
  142.7074   77.5387  221.4386 H   0  0  0  0  0  0  0  0  0  0  0  0
  140.1343   78.7517  221.3891 H   0  0  0  0  0  0  0  0  0  0  0  0
  141.2445   77.6242  223.4652 H   0  0  0  0  0  0  0  0  0  0  0  0
  142.5128   78.8775  223.3204 H   0  0  0  0  0  0  0  0  0  0  0  0
  139.6004   79.1457  224.0434 H   0  0  0  0  0  0  0  0  0  0  0  0
  141.0205   79.9908  224.7188 H   0  0  0  0  0  0  0  0  0  0  0  0
  139.5212   80.5064  222.1227 H   0  0  0  0  0  0  0  0  0  0  0  0
  140.0069   81.6683  223.4122 H   0  0  0  0  0  0  0  0  0  0  0  0
  141.4244   82.0387  221.5118 H   0  0  0  0  0  0  0  0  0  0  0  0
  142.3995   81.2271  222.7869 H   0  0  0  0  0  0  0  0  0  0  0  0
  141.5172   80.2378  220.1168 H   0  0  0  0  0  0  0  0  0  0  0  0
  142.9775   79.8354  221.0704 H   0  0  0  0  0  0  0  0  0  0  0  0
  136.3375   73.4647  223.0934 H   0  0  0  0  0  0  0  0  0  0  0  0
  134.8738   71.9331  224.3970 H   0  0  0  0  0  0  0  0  0  0  0  0
  133.2621   71.6171  226.0719 H   0  0  0  0  0  0  0  0  0  0  0  0
  131.7413   74.9916  228.2765 H   0  0  0  0  0  0  0  0  0  0  0  0
  133.2158   76.4967  226.9546 H   0  0  0  0  0  0  0  0  0  0  0  0
  1  2  2  0
  2  3  1  0
  3  4  1  0
  4  5  1  0
  5  6  2  0
  5  7  1  0
  7  8  1  0
  8  9  1  0
  9 10  1  0
  9 11  1  0
 11 12  1  0
 11 13  1  0
 13 14  1  0
 14 15  1  0
 15 16  1  0
 16 17  1  0
 17 18  1  0
 18 19  1  0
  2 20  1  0
 20 21  2  0
 21 22  1  0
 22 23  2  0
 23 24  1  0
 24 25  2  0
 25 26  1  0
 25 27  1  0
 27 28  2  0
 28 29  1  0
 29 30  2  0
 13  7  1  0
 19 14  1  0
 30 20  1  0
 29 23  1  0
  3 31  1  0
  4 32  1  0
  4 33  1  0
  8 34  1  0
  8 35  1  0
  9 36  1  6
 10 37  1  0
 11 38  1  6
 12 39  1  0
 13 40  1  1
 14 41  1  0
 15 42  1  0
 15 43  1  0
 16 44  1  0
 16 45  1  0
 17 46  1  0
 17 47  1  0
 18 48  1  0
 18 49  1  0
 19 50  1  0
 19 51  1  0
 21 52  1  0
 22 53  1  0
 24 54  1  0
 27 55  1  0
 28 56  1  0
M  END
>  <smiles>  (3) 
O=C(NCC(=O)N1C[C@H](O)[C@H](O)[C@H]1C1CCCCC1)c1ccc2cc(F)ccc2n1

>  <score_type>  (3) 
oracle

>  <origin>  (3) 
autodockgpu

>  <m_score__min__energy>  (3) 
-8.8900000000000006

>  <m_primary>  (3) 
energy

>  <rmsd>  (3) 
5.731357415089676

>  <m_score__min__rmsd>  (3) 
5.731357415089676

>  <meeko>  (3) 
{"free_energy": -7.52, "intermolecular_energy": -9.61, "internal_energy": -3.35, "cluster_size": 3, "cluster_id": 4, "rank_in_cluster": 1}

>  <energy>  (3) 
-8.72

>  <cluster_rmsd>  (3) 
0.69

>  <cluster>  (3) 
1

$$$$

     RDKit          3D

 56 59  0  0  0  0  0  0  0  0999 V2000
  140.7930   71.9760  220.6600 O   0  0  0  0  0  0  0  0  0  0  0  0
  140.5500   72.5090  221.7740 C   0  0  0  0  0  0  0  0  0  0  0  0
  140.5160   73.9300  221.8440 N   0  0  0  0  0  0  0  0  0  0  0  0
  140.7810   74.6290  220.5500 C   0  0  0  0  0  0  0  0  0  0  0  0
  140.9970   76.0570  220.8110 C   0  0  0  0  0  0  0  0  0  0  0  0
  140.3030   76.5280  221.8060 O   0  0  0  0  0  0  0  0  0  0  0  0
  141.8170   76.9820  220.1780 N   0  0  0  0  0  0  0  0  0  0  0  0
  142.7020   76.4970  219.0430 C   0  0  0  0  0  0  0  0  0  0  0  0
  142.2520   77.4740  217.9760 C   0  0  2  0  0  0  0  0  0  0  0  0
  143.3530   77.7870  217.1640 O   0  0  0  0  0  0  0  0  0  0  0  0
  141.7870   78.7240  218.7450 C   0  0  2  0  0  0  0  0  0  0  0  0
  142.5370   79.8000  218.2870 O   0  0  0  0  0  0  0  0  0  0  0  0
  142.1340   78.3610  220.1820 C   0  0  1  0  0  0  0  0  0  0  0  0
  141.5410   79.1990  221.2240 C   0  0  0  0  0  0  0  0  0  0  0  0
  142.2700   79.0110  222.5330 C   0  0  0  0  0  0  0  0  0  0  0  0
  141.3900   79.5180  223.6460 C   0  0  0  0  0  0  0  0  0  0  0  0
  140.5260   80.6370  223.0880 C   0  0  0  0  0  0  0  0  0  0  0  0
  141.3190   81.4760  222.1290 C   0  0  0  0  0  0  0  0  0  0  0  0
  141.6240   80.6810  220.8860 C   0  0  0  0  0  0  0  0  0  0  0  0
  140.3040   71.7330  222.9910 C   0  0  0  0  0  0  0  0  0  0  0  0
  139.6070   70.5350  222.8380 C   0  0  0  0  0  0  0  0  0  0  0  0
  139.3290   69.7400  223.9260 C   0  0  0  0  0  0  0  0  0  0  0  0
  139.7620   70.1680  225.1650 C   0  0  0  0  0  0  0  0  0  0  0  0
  139.4800   69.3630  226.2530 C   0  0  0  0  0  0  0  0  0  0  0  0
  139.8950   69.7610  227.4920 C   0  0  0  0  0  0  0  0  0  0  0  0
  139.6510   69.0240  228.5860 F   0  0  0  0  0  0  0  0  0  0  0  0
  140.5920   70.9550  227.6570 C   0  0  0  0  0  0  0  0  0  0  0  0
  140.8560   71.7370  226.5350 C   0  0  0  0  0  0  0  0  0  0  0  0
  140.4480   71.3590  225.2680 C   0  0  0  0  0  0  0  0  0  0  0  0
  140.7220   72.1400  224.2060 N   0  0  0  0  0  0  0  0  0  0  0  0
  140.3270   74.4700  222.7050 H   0  0  0  0  0  0  0  0  0  0  0  0
  141.6774   74.2013  220.0771 H   0  0  0  0  0  0  0  0  0  0  0  0
  139.9205   74.5013  219.8768 H   0  0  0  0  0  0  0  0  0  0  0  0
  143.7716   76.6023  219.2771 H   0  0  0  0  0  0  0  0  0  0  0  0
  142.6088   75.4316  218.7857 H   0  0  0  0  0  0  0  0  0  0  0  0
  141.4527   77.0739  217.3349 H   0  0  0  0  0  0  0  0  0  0  0  0
  143.2930   78.6900  216.7680 H   0  0  0  0  0  0  0  0  0  0  0  0
  140.7276   78.9972  218.6313 H   0  0  0  0  0  0  0  0  0  0  0  0
  143.3970   79.4230  217.9650 H   0  0  0  0  0  0  0  0  0  0  0  0
  143.1776   78.5597  220.4674 H   0  0  0  0  0  0  0  0  0  0  0  0
  140.4878   78.8905  221.2994 H   0  0  0  0  0  0  0  0  0  0  0  0
  142.4862   77.9436  222.6876 H   0  0  0  0  0  0  0  0  0  0  0  0
  143.2193   79.5666  222.5195 H   0  0  0  0  0  0  0  0  0  0  0  0
  140.7514   78.7031  224.0178 H   0  0  0  0  0  0  0  0  0  0  0  0
  142.0038   79.8885  224.4802 H   0  0  0  0  0  0  0  0  0  0  0  0
  139.6631   80.2020  222.5624 H   0  0  0  0  0  0  0  0  0  0  0  0
  140.1802   81.2709  223.9178 H   0  0  0  0  0  0  0  0  0  0  0  0
  140.7369   82.3690  221.8575 H   0  0  0  0  0  0  0  0  0  0  0  0
  142.2624   81.7792  222.6065 H   0  0  0  0  0  0  0  0  0  0  0  0
  140.8916   80.9237  220.1020 H   0  0  0  0  0  0  0  0  0  0  0  0
  142.6320   80.9270  220.5208 H   0  0  0  0  0  0  0  0  0  0  0  0
  139.2759   70.2222  221.8367 H   0  0  0  0  0  0  0  0  0  0  0  0
  138.7795   68.7939  223.8123 H   0  0  0  0  0  0  0  0  0  0  0  0
  138.9311   68.4186  226.1232 H   0  0  0  0  0  0  0  0  0  0  0  0
  140.9278   71.2747  228.6545 H   0  0  0  0  0  0  0  0  0  0  0  0
  141.4046   72.6822  226.6597 H   0  0  0  0  0  0  0  0  0  0  0  0
  1  2  2  0
  2  3  1  0
  3  4  1  0
  4  5  1  0
  5  6  2  0
  5  7  1  0
  7  8  1  0
  8  9  1  0
  9 10  1  0
  9 11  1  0
 11 12  1  0
 11 13  1  0
 13 14  1  0
 14 15  1  0
 15 16  1  0
 16 17  1  0
 17 18  1  0
 18 19  1  0
  2 20  1  0
 20 21  2  0
 21 22  1  0
 22 23  2  0
 23 24  1  0
 24 25  2  0
 25 26  1  0
 25 27  1  0
 27 28  2  0
 28 29  1  0
 29 30  2  0
 13  7  1  0
 19 14  1  0
 30 20  1  0
 29 23  1  0
  3 31  1  0
  4 32  1  0
  4 33  1  0
  8 34  1  0
  8 35  1  0
  9 36  1  6
 10 37  1  0
 11 38  1  1
 12 39  1  0
 13 40  1  6
 14 41  1  0
 15 42  1  0
 15 43  1  0
 16 44  1  0
 16 45  1  0
 17 46  1  0
 17 47  1  0
 18 48  1  0
 18 49  1  0
 19 50  1  0
 19 51  1  0
 21 52  1  0
 22 53  1  0
 24 54  1  0
 27 55  1  0
 28 56  1  0
M  END
>  <smiles>  (4) 
O=C(NCC(=O)N1C[C@H](O)[C@H](O)[C@H]1C1CCCCC1)c1ccc2cc(F)ccc2n1

>  <score_type>  (4) 
oracle

>  <origin>  (4) 
autodockgpu

>  <m_score__min__energy>  (4) 
-8.8900000000000006

>  <m_primary>  (4) 
energy

>  <rmsd>  (4) 
2.5731126742173283

>  <m_score__min__rmsd>  (4) 
2.5731126742173283

>  <meeko>  (4) 
{"free_energy": -7.81, "intermolecular_energy": -9.9, "internal_energy": -3.27, "cluster_size": 38, "cluster_id": 1, "rank_in_cluster": 26}

>  <energy>  (4) 
-8.71

>  <cluster_rmsd>  (4) 
0.65

>  <cluster>  (4) 
1

$$$$

     RDKit          3D

 56 59  0  0  0  0  0  0  0  0999 V2000
  140.7840   71.8500  221.5050 O   0  0  0  0  0  0  0  0  0  0  0  0
  139.9630   71.9830  222.4500 C   0  0  0  0  0  0  0  0  0  0  0  0
  138.9610   72.9860  222.3300 N   0  0  0  0  0  0  0  0  0  0  0  0
  139.0110   73.7760  221.0630 C   0  0  0  0  0  0  0  0  0  0  0  0
  140.0120   74.8410  221.2010 C   0  0  0  0  0  0  0  0  0  0  0  0
  140.0810   75.3570  222.3930 O   0  0  0  0  0  0  0  0  0  0  0  0
  140.8960   75.3810  220.2760 N   0  0  0  0  0  0  0  0  0  0  0  0
  140.5240   76.6940  219.6110 C   0  0  0  0  0  0  0  0  0  0  0  0
  141.7720   77.4810  219.9560 C   0  0  2  0  0  0  0  0  0  0  0  0
  142.0590   78.3520  218.8930 O   0  0  0  0  0  0  0  0  0  0  0  0
  142.8860   76.4280  220.0940 C   0  0  2  0  0  0  0  0  0  0  0  0
  143.8890   76.7600  219.1910 O   0  0  0  0  0  0  0  0  0  0  0  0
  142.1650   75.1470  219.6950 C   0  0  1  0  0  0  0  0  0  0  0  0
  142.8470   73.8940  220.0150 C   0  0  0  0  0  0  0  0  0  0  0  0
  142.9360   73.0130  218.7920 C   0  0  0  0  0  0  0  0  0  0  0  0
  143.2220   71.6030  219.2380 C   0  0  0  0  0  0  0  0  0  0  0  0
  144.0210   71.6740  220.5290 C   0  0  0  0  0  0  0  0  0  0  0  0
  145.0060   72.8040  220.4700 C   0  0  0  0  0  0  0  0  0  0  0  0
  144.2740   74.1210  220.4960 C   0  0  0  0  0  0  0  0  0  0  0  0
  139.9990   71.1550  223.6560 C   0  0  0  0  0  0  0  0  0  0  0  0
  139.4500   69.8780  223.5550 C   0  0  0  0  0  0  0  0  0  0  0  0
  139.4380   69.0300  224.6380 C   0  0  0  0  0  0  0  0  0  0  0  0
  139.9840   69.4850  225.8200 C   0  0  0  0  0  0  0  0  0  0  0  0
  139.9690   68.6270  226.9040 C   0  0  0  0  0  0  0  0  0  0  0  0
  140.5020   69.0510  228.0880 C   0  0  0  0  0  0  0  0  0  0  0  0
  140.5160   68.2650  229.1740 F   0  0  0  0  0  0  0  0  0  0  0  0
  141.0530   70.3250  228.2020 C   0  0  0  0  0  0  0  0  0  0  0  0
  141.0490   71.1590  227.0870 C   0  0  0  0  0  0  0  0  0  0  0  0
  140.5160   70.7560  225.8750 C   0  0  0  0  0  0  0  0  0  0  0  0
  140.5290   71.5900  224.8170 N   0  0  0  0  0  0  0  0  0  0  0  0
  138.2390   73.1800  223.0440 H   0  0  0  0  0  0  0  0  0  0  0  0
  139.2880   73.1159  220.2278 H   0  0  0  0  0  0  0  0  0  0  0  0
  138.0240   74.2184  220.8625 H   0  0  0  0  0  0  0  0  0  0  0  0
  140.3896   76.5851  218.5247 H   0  0  0  0  0  0  0  0  0  0  0  0
  139.5724   77.1409  219.9345 H   0  0  0  0  0  0  0  0  0  0  0  0
  141.6648   78.0786  220.8733 H   0  0  0  0  0  0  0  0  0  0  0  0
  142.9850   78.6950  218.9170 H   0  0  0  0  0  0  0  0  0  0  0  0
  143.3566   76.3468  221.0849 H   0  0  0  0  0  0  0  0  0  0  0  0
  144.0760   77.7250  219.3260 H   0  0  0  0  0  0  0  0  0  0  0  0
  142.1126   74.9655  218.6114 H   0  0  0  0  0  0  0  0  0  0  0  0
  142.2548   73.4213  220.8124 H   0  0  0  0  0  0  0  0  0  0  0  0
  141.9830   73.0425  218.2434 H   0  0  0  0  0  0  0  0  0  0  0  0
  143.7386   73.3686  218.1292 H   0  0  0  0  0  0  0  0  0  0  0  0
  142.2772   71.0673  219.4123 H   0  0  0  0  0  0  0  0  0  0  0  0
  143.7901   71.0646  218.4651 H   0  0  0  0  0  0  0  0  0  0  0  0
  143.3338   71.8353  221.3727 H   0  0  0  0  0  0  0  0  0  0  0  0
  144.5679   70.7292  220.6638 H   0  0  0  0  0  0  0  0  0  0  0  0
  145.6820   72.7448  221.3357 H   0  0  0  0  0  0  0  0  0  0  0  0
  145.5881   72.7303  219.5395 H   0  0  0  0  0  0  0  0  0  0  0  0
  144.2605   74.5171  221.5221 H   0  0  0  0  0  0  0  0  0  0  0  0
  144.7804   74.8451  219.8409 H   0  0  0  0  0  0  0  0  0  0  0  0
  139.0214   69.5444  222.5984 H   0  0  0  0  0  0  0  0  0  0  0  0
  139.0066   68.0209  224.5637 H   0  0  0  0  0  0  0  0  0  0  0  0
  139.5352   67.6201  226.8145 H   0  0  0  0  0  0  0  0  0  0  0  0
  141.4833   70.6660  229.1552 H   0  0  0  0  0  0  0  0  0  0  0  0
  141.4817   72.1667  227.1719 H   0  0  0  0  0  0  0  0  0  0  0  0
  1  2  2  0
  2  3  1  0
  3  4  1  0
  4  5  1  0
  5  6  2  0
  5  7  1  0
  7  8  1  0
  8  9  1  0
  9 10  1  0
  9 11  1  0
 11 12  1  0
 11 13  1  0
 13 14  1  0
 14 15  1  0
 15 16  1  0
 16 17  1  0
 17 18  1  0
 18 19  1  0
  2 20  1  0
 20 21  2  0
 21 22  1  0
 22 23  2  0
 23 24  1  0
 24 25  2  0
 25 26  1  0
 25 27  1  0
 27 28  2  0
 28 29  1  0
 29 30  2  0
 13  7  1  0
 19 14  1  0
 30 20  1  0
 29 23  1  0
  3 31  1  0
  4 32  1  0
  4 33  1  0
  8 34  1  0
  8 35  1  0
  9 36  1  1
 10 37  1  0
 11 38  1  1
 12 39  1  0
 13 40  1  6
 14 41  1  0
 15 42  1  0
 15 43  1  0
 16 44  1  0
 16 45  1  0
 17 46  1  0
 17 47  1  0
 18 48  1  0
 18 49  1  0
 19 50  1  0
 19 51  1  0
 21 52  1  0
 22 53  1  0
 24 54  1  0
 27 55  1  0
 28 56  1  0
M  END
>  <smiles>  (5) 
O=C(NCC(=O)N1C[C@H](O)[C@H](O)[C@H]1C1CCCCC1)c1ccc2cc(F)ccc2n1

>  <score_type>  (5) 
oracle

>  <origin>  (5) 
autodockgpu

>  <m_score__min__energy>  (5) 
-8.8900000000000006

>  <m_primary>  (5) 
energy

>  <rmsd>  (5) 
2.203148584958144

>  <m_score__min__rmsd>  (5) 
2.203148584958144

>  <meeko>  (5) 
{"free_energy": -8.0, "intermolecular_energy": -10.08, "internal_energy": -3.18, "cluster_size": 38, "cluster_id": 1, "rank_in_cluster": 23}

>  <energy>  (5) 
-8.7

>  <cluster_rmsd>  (5) 
0.62

>  <cluster>  (5) 
1

$$$$

     RDKit          3D

 56 59  0  0  0  0  0  0  0  0999 V2000
  140.8860   71.8640  221.2550 O   0  0  0  0  0  0  0  0  0  0  0  0
  140.3730   72.3120  222.3140 C   0  0  0  0  0  0  0  0  0  0  0  0
  139.9340   73.6660  222.3240 N   0  0  0  0  0  0  0  0  0  0  0  0
  140.1420   74.4040  221.0420 C   0  0  0  0  0  0  0  0  0  0  0  0
  140.5890   75.7700  221.3420 C   0  0  0  0  0  0  0  0  0  0  0  0
  140.0230   76.2990  222.3870 O   0  0  0  0  0  0  0  0  0  0  0  0
  141.5130   76.5840  220.7000 N   0  0  0  0  0  0  0  0  0  0  0  0
  142.4570   75.9460  219.6970 C   0  0  0  0  0  0  0  0  0  0  0  0
  142.1560   76.8360  218.5080 C   0  0  2  0  0  0  0  0  0  0  0  0
  143.3370   77.0100  217.7700 O   0  0  0  0  0  0  0  0  0  0  0  0
  141.7060   78.1770  219.1140 C   0  0  2  0  0  0  0  0  0  0  0  0
  142.5550   79.1620  218.6250 O   0  0  0  0  0  0  0  0  0  0  0  0
  141.9110   77.9390  220.6040 C   0  0  1  0  0  0  0  0  0  0  0  0
  141.2860   78.9050  221.5060 C   0  0  0  0  0  0  0  0  0  0  0  0
  141.7580   78.6870  222.9240 C   0  0  0  0  0  0  0  0  0  0  0  0
  140.7930   79.3680  223.8580 C   0  0  0  0  0  0  0  0  0  0  0  0
  140.2030   80.5650  223.1320 C   0  0  0  0  0  0  0  0  0  0  0  0
  141.2540   81.2350  222.2950 C   0  0  0  0  0  0  0  0  0  0  0  0
  141.6360   80.3420  221.1440 C   0  0  0  0  0  0  0  0  0  0  0  0
  140.2140   71.5050  223.5240 C   0  0  0  0  0  0  0  0  0  0  0  0
  139.5290   70.2990  223.3860 C   0  0  0  0  0  0  0  0  0  0  0  0
  139.3300   69.4750  224.4690 C   0  0  0  0  0  0  0  0  0  0  0  0
  139.8290   69.8820  225.6900 C   0  0  0  0  0  0  0  0  0  0  0  0
  139.6260   69.0480  226.7730 C   0  0  0  0  0  0  0  0  0  0  0  0
  140.1080   69.4250  227.9950 C   0  0  0  0  0  0  0  0  0  0  0  0
  139.9420   68.6600  229.0830 F   0  0  0  0  0  0  0  0  0  0  0  0
  140.7930   70.6280  228.1460 C   0  0  0  0  0  0  0  0  0  0  0  0
  140.9770   71.4390  227.0290 C   0  0  0  0  0  0  0  0  0  0  0  0
  140.5000   71.0830  225.7800 C   0  0  0  0  0  0  0  0  0  0  0  0
  140.6960   71.8930  224.7210 N   0  0  0  0  0  0  0  0  0  0  0  0
  139.5010   74.1350  223.1380 H   0  0  0  0  0  0  0  0  0  0  0  0
  140.9063   73.8899  220.4407 H   0  0  0  0  0  0  0  0  0  0  0  0
  139.1991   74.4381  220.4764 H   0  0  0  0  0  0  0  0  0  0  0  0
  143.5081   76.0181  220.0131 H   0  0  0  0  0  0  0  0  0  0  0  0
  142.3212   74.8669  219.5326 H   0  0  0  0  0  0  0  0  0  0  0  0
  141.3895   76.4176  217.8390 H   0  0  0  0  0  0  0  0  0  0  0  0
  143.3700   77.8770  217.2980 H   0  0  0  0  0  0  0  0  0  0  0  0
  140.6778   78.4927  218.8835 H   0  0  0  0  0  0  0  0  0  0  0  0
  143.4780   78.8260  218.7590 H   0  0  0  0  0  0  0  0  0  0  0  0
  142.9372   78.1096  220.9614 H   0  0  0  0  0  0  0  0  0  0  0  0
  140.2011   78.7499  221.4118 H   0  0  0  0  0  0  0  0  0  0  0  0
  141.7891   77.6095  223.1433 H   0  0  0  0  0  0  0  0  0  0  0  0
  142.7672   79.1047  223.0540 H   0  0  0  0  0  0  0  0  0  0  0  0
  139.9910   78.6700  224.1402 H   0  0  0  0  0  0  0  0  0  0  0  0
  141.3109   79.6928  224.7725 H   0  0  0  0  0  0  0  0  0  0  0  0
  139.3822   80.2272  222.4823 H   0  0  0  0  0  0  0  0  0  0  0  0
  139.8242   81.2832  223.8741 H   0  0  0  0  0  0  0  0  0  0  0  0
  140.8594   82.1848  221.9049 H   0  0  0  0  0  0  0  0  0  0  0  0
  142.1422   81.4289  222.9143 H   0  0  0  0  0  0  0  0  0  0  0  0
  141.0820   80.6423  220.2424 H   0  0  0  0  0  0  0  0  0  0  0  0
  142.7145   80.4270  220.9448 H   0  0  0  0  0  0  0  0  0  0  0  0
  139.1431   70.0028  222.3994 H   0  0  0  0  0  0  0  0  0  0  0  0
  138.7904   68.5220  224.3655 H   0  0  0  0  0  0  0  0  0  0  0  0
  139.0859   68.0972  226.6536 H   0  0  0  0  0  0  0  0  0  0  0  0
  141.1815   70.9320  229.1292 H   0  0  0  0  0  0  0  0  0  0  0  0
  141.5173   72.3904  227.1430 H   0  0  0  0  0  0  0  0  0  0  0  0
  1  2  2  0
  2  3  1  0
  3  4  1  0
  4  5  1  0
  5  6  2  0
  5  7  1  0
  7  8  1  0
  8  9  1  0
  9 10  1  0
  9 11  1  0
 11 12  1  0
 11 13  1  0
 13 14  1  0
 14 15  1  0
 15 16  1  0
 16 17  1  0
 17 18  1  0
 18 19  1  0
  2 20  1  0
 20 21  2  0
 21 22  1  0
 22 23  2  0
 23 24  1  0
 24 25  2  0
 25 26  1  0
 25 27  1  0
 27 28  2  0
 28 29  1  0
 29 30  2  0
 13  7  1  0
 19 14  1  0
 30 20  1  0
 29 23  1  0
  3 31  1  0
  4 32  1  0
  4 33  1  0
  8 34  1  0
  8 35  1  0
  9 36  1  6
 10 37  1  0
 11 38  1  1
 12 39  1  0
 13 40  1  6
 14 41  1  0
 15 42  1  0
 15 43  1  0
 16 44  1  0
 16 45  1  0
 17 46  1  0
 17 47  1  0
 18 48  1  0
 18 49  1  0
 19 50  1  0
 19 51  1  0
 21 52  1  0
 22 53  1  0
 24 54  1  0
 27 55  1  0
 28 56  1  0
M  END
>  <smiles>  (6) 
O=C(NCC(=O)N1C[C@H](O)[C@H](O)[C@H]1C1CCCCC1)c1ccc2cc(F)ccc2n1

>  <score_type>  (6) 
oracle

>  <origin>  (6) 
autodockgpu

>  <m_score__min__energy>  (6) 
-8.8900000000000006

>  <m_primary>  (6) 
energy

>  <rmsd>  (6) 
2.322261497022451

>  <m_score__min__rmsd>  (6) 
2.322261497022451

>  <meeko>  (6) 
{"free_energy": -8.7, "intermolecular_energy": -10.78, "internal_energy": -3.15, "cluster_size": 38, "cluster_id": 1, "rank_in_cluster": 6}

>  <energy>  (6) 
-8.7

>  <cluster_rmsd>  (6) 
0.53

>  <cluster>  (6) 
1

$$$$

     RDKit          3D

 56 59  0  0  0  0  0  0  0  0999 V2000
  136.1390   77.4670  222.7420 O   0  0  0  0  0  0  0  0  0  0  0  0
  136.5260   76.3910  223.2680 C   0  0  0  0  0  0  0  0  0  0  0  0
  137.8720   75.9840  223.0500 N   0  0  0  0  0  0  0  0  0  0  0  0
  138.6780   76.9120  222.2000 C   0  0  0  0  0  0  0  0  0  0  0  0
  139.9440   76.2580  221.8430 C   0  0  0  0  0  0  0  0  0  0  0  0
  140.0360   75.0230  222.2410 O   0  0  0  0  0  0  0  0  0  0  0  0
  141.0490   76.7360  221.1530 N   0  0  0  0  0  0  0  0  0  0  0  0
  141.7800   75.7850  220.2220 C   0  0  0  0  0  0  0  0  0  0  0  0
  141.7240   76.6200  218.9580 C   0  0  2  0  0  0  0  0  0  0  0  0
  142.9030   76.4070  218.2290 O   0  0  0  0  0  0  0  0  0  0  0  0
  141.6550   78.0790  219.4440 C   0  0  2  0  0  0  0  0  0  0  0  0
  142.7360   78.7540  218.8900 O   0  0  0  0  0  0  0  0  0  0  0  0
  141.7970   77.9210  220.9510 C   0  0  1  0  0  0  0  0  0  0  0  0
  141.4610   79.0910  221.7610 C   0  0  0  0  0  0  0  0  0  0  0  0
  142.5620   79.3830  222.7530 C   0  0  0  0  0  0  0  0  0  0  0  0
  142.0070   80.2760  223.8320 C   0  0  0  0  0  0  0  0  0  0  0  0
  140.9100   81.1280  223.2160 C   0  0  0  0  0  0  0  0  0  0  0  0
  141.2940   81.5450  221.8270 C   0  0  0  0  0  0  0  0  0  0  0  0
  141.2920   80.3460  220.9150 C   0  0  0  0  0  0  0  0  0  0  0  0
  135.6540   75.5480  224.0880 C   0  0  0  0  0  0  0  0  0  0  0  0
  135.6700   74.1810  223.8160 C   0  0  0  0  0  0  0  0  0  0  0  0
  134.8820   73.3120  224.5350 C   0  0  0  0  0  0  0  0  0  0  0  0
  134.0810   73.8380  225.5270 C   0  0  0  0  0  0  0  0  0  0  0  0
  133.2930   72.9580  226.2450 C   0  0  0  0  0  0  0  0  0  0  0  0
  132.4890   73.4500  227.2350 C   0  0  0  0  0  0  0  0  0  0  0  0
  131.7010   72.6470  227.9650 F   0  0  0  0  0  0  0  0  0  0  0  0
  132.4630   74.8140  227.5150 C   0  0  0  0  0  0  0  0  0  0  0  0
  133.2720   75.6660  226.7690 C   0  0  0  0  0  0  0  0  0  0  0  0
  134.0970   75.1970  225.7610 C   0  0  0  0  0  0  0  0  0  0  0  0
  134.8660   76.0510  225.0600 N   0  0  0  0  0  0  0  0  0  0  0  0
  138.2930   75.1210  223.4330 H   0  0  0  0  0  0  0  0  0  0  0  0
  138.1175   77.1542  221.2850 H   0  0  0  0  0  0  0  0  0  0  0  0
  138.8831   77.8395  222.7548 H   0  0  0  0  0  0  0  0  0  0  0  0
  142.8133   75.5973  220.5492 H   0  0  0  0  0  0  0  0  0  0  0  0
  141.3566   74.7727  220.1448 H   0  0  0  0  0  0  0  0  0  0  0  0
  140.8698   76.3686  218.3121 H   0  0  0  0  0  0  0  0  0  0  0  0
  143.1790   77.1990  217.7070 H   0  0  0  0  0  0  0  0  0  0  0  0
  140.7484   78.6390  219.1710 H   0  0  0  0  0  0  0  0  0  0  0  0
  143.5460   78.2470  219.1530 H   0  0  0  0  0  0  0  0  0  0  0  0
  142.8340   77.8393  221.3086 H   0  0  0  0  0  0  0  0  0  0  0  0
  140.5146   78.8485  222.2664 H   0  0  0  0  0  0  0  0  0  0  0  0
  142.9205   78.4427  223.1972 H   0  0  0  0  0  0  0  0  0  0  0  0
  143.4034   79.8797  222.2477 H   0  0  0  0  0  0  0  0  0  0  0  0
  141.5919   79.6642  224.6465 H   0  0  0  0  0  0  0  0  0  0  0  0
  142.8009   80.9149  224.2460 H   0  0  0  0  0  0  0  0  0  0  0  0
  139.9776   80.5457  223.1756 H   0  0  0  0  0  0  0  0  0  0  0  0
  140.7657   82.0272  223.8330 H   0  0  0  0  0  0  0  0  0  0  0  0
  140.5720   82.2872  221.4559 H   0  0  0  0  0  0  0  0  0  0  0  0
  142.3019   81.9853  221.8457 H   0  0  0  0  0  0  0  0  0  0  0  0
  140.3390   80.2984  220.3678 H   0  0  0  0  0  0  0  0  0  0  0  0
  142.1158   80.4241  220.1902 H   0  0  0  0  0  0  0  0  0  0  0  0
  136.3197   73.7927  223.0178 H   0  0  0  0  0  0  0  0  0  0  0  0
  134.8906   72.2322  224.3254 H   0  0  0  0  0  0  0  0  0  0  0  0
  133.3126   71.8807  226.0236 H   0  0  0  0  0  0  0  0  0  0  0  0
  131.8153   75.2105  228.3108 H   0  0  0  0  0  0  0  0  0  0  0  0
  133.2554   76.7441  226.9867 H   0  0  0  0  0  0  0  0  0  0  0  0
  1  2  2  0
  2  3  1  0
  3  4  1  0
  4  5  1  0
  5  6  2  0
  5  7  1  0
  7  8  1  0
  8  9  1  0
  9 10  1  0
  9 11  1  0
 11 12  1  0
 11 13  1  0
 13 14  1  0
 14 15  1  0
 15 16  1  0
 16 17  1  0
 17 18  1  0
 18 19  1  0
  2 20  1  0
 20 21  2  0
 21 22  1  0
 22 23  2  0
 23 24  1  0
 24 25  2  0
 25 26  1  0
 25 27  1  0
 27 28  2  0
 28 29  1  0
 29 30  2  0
 13  7  1  0
 19 14  1  0
 30 20  1  0
 29 23  1  0
  3 31  1  0
  4 32  1  0
  4 33  1  0
  8 34  1  0
  8 35  1  0
  9 36  1  6
 10 37  1  0
 11 38  1  1
 12 39  1  0
 13 40  1  6
 14 41  1  0
 15 42  1  0
 15 43  1  0
 16 44  1  0
 16 45  1  0
 17 46  1  0
 17 47  1  0
 18 48  1  0
 18 49  1  0
 19 50  1  0
 19 51  1  0
 21 52  1  0
 22 53  1  0
 24 54  1  0
 27 55  1  0
 28 56  1  0
M  END
>  <smiles>  (7) 
O=C(NCC(=O)N1C[C@H](O)[C@H](O)[C@H]1C1CCCCC1)c1ccc2cc(F)ccc2n1

>  <score_type>  (7) 
oracle

>  <origin>  (7) 
autodockgpu

>  <m_score__min__energy>  (7) 
-8.8900000000000006

>  <m_primary>  (7) 
energy

>  <rmsd>  (7) 
5.882246708051514

>  <m_score__min__rmsd>  (7) 
5.882246708051514

>  <meeko>  (7) 
{"free_energy": -7.37, "intermolecular_energy": -9.46, "internal_energy": -3.3, "cluster_size": 3, "cluster_id": 4, "rank_in_cluster": 2}

>  <energy>  (7) 
-8.68

>  <cluster_rmsd>  (7) 
0.52

>  <cluster>  (7) 
1

$$$$

     RDKit          3D

 56 59  0  0  0  0  0  0  0  0999 V2000
  140.7450   71.7400  221.2100 O   0  0  0  0  0  0  0  0  0  0  0  0
  140.3100   72.2070  222.2950 C   0  0  0  0  0  0  0  0  0  0  0  0
  139.9160   73.5750  222.3250 N   0  0  0  0  0  0  0  0  0  0  0  0
  140.0730   74.3030  221.0300 C   0  0  0  0  0  0  0  0  0  0  0  0
  140.2260   75.7370  221.3000 C   0  0  0  0  0  0  0  0  0  0  0  0
  140.1960   76.0470  222.5640 O   0  0  0  0  0  0  0  0  0  0  0  0
  140.4010   76.8100  220.4370 N   0  0  0  0  0  0  0  0  0  0  0  0
  140.1420   76.5900  218.9570 C   0  0  0  0  0  0  0  0  0  0  0  0
  139.1380   77.7040  218.7370 C   0  0  2  0  0  0  0  0  0  0  0  0
  139.3260   78.2260  217.4480 O   0  0  0  0  0  0  0  0  0  0  0  0
  139.4810   78.7680  219.7960 C   0  0  2  0  0  0  0  0  0  0  0  0
  139.7470   79.9540  219.1240 O   0  0  0  0  0  0  0  0  0  0  0  0
  140.7320   78.1860  220.4390 C   0  0  1  0  0  0  0  0  0  0  0  0
  141.1510   78.7900  221.7030 C   0  0  0  0  0  0  0  0  0  0  0  0
  142.1840   79.8640  221.4600 C   0  0  0  0  0  0  0  0  0  0  0  0
  142.9000   80.1390  222.7570 C   0  0  0  0  0  0  0  0  0  0  0  0
  141.9300   79.8680  223.8940 C   0  0  0  0  0  0  0  0  0  0  0  0
  140.5520   80.3330  223.5240 C   0  0  0  0  0  0  0  0  0  0  0  0
  139.9930   79.4550  222.4350 C   0  0  0  0  0  0  0  0  0  0  0  0
  140.1960   71.4090  223.5160 C   0  0  0  0  0  0  0  0  0  0  0  0
  139.5770   70.1660  223.3950 C   0  0  0  0  0  0  0  0  0  0  0  0
  139.4250   69.3470  224.4900 C   0  0  0  0  0  0  0  0  0  0  0  0
  139.9020   69.7970  225.7040 C   0  0  0  0  0  0  0  0  0  0  0  0
  139.7450   68.9670  226.7990 C   0  0  0  0  0  0  0  0  0  0  0  0
  140.2080   69.3870  228.0140 C   0  0  0  0  0  0  0  0  0  0  0  0
  140.0840   68.6280  229.1130 F   0  0  0  0  0  0  0  0  0  0  0  0
  140.8270   70.6270  228.1480 C   0  0  0  0  0  0  0  0  0  0  0  0
  140.9650   71.4310  227.0200 C   0  0  0  0  0  0  0  0  0  0  0  0
  140.5070   71.0330  225.7770 C   0  0  0  0  0  0  0  0  0  0  0  0
  140.6580   71.8380  224.7080 N   0  0  0  0  0  0  0  0  0  0  0  0
  139.5470   74.0600  223.1610 H   0  0  0  0  0  0  0  0  0  0  0  0
  140.9641   73.9303  220.5038 H   0  0  0  0  0  0  0  0  0  0  0  0
  139.1852   74.1371  220.4020 H   0  0  0  0  0  0  0  0  0  0  0  0
  141.0509   76.7257  218.3525 H   0  0  0  0  0  0  0  0  0  0  0  0
  139.8057   75.5812  218.6755 H   0  0  0  0  0  0  0  0  0  0  0  0
  138.0942   77.3681  218.8247 H   0  0  0  0  0  0  0  0  0  0  0  0
  138.9060   79.1120  217.3280 H   0  0  0  0  0  0  0  0  0  0  0  0
  138.6983   78.9852  220.5377 H   0  0  0  0  0  0  0  0  0  0  0  0
  140.2130   79.7020  218.2860 H   0  0  0  0  0  0  0  0  0  0  0  0
  141.6680   78.4012  219.9028 H   0  0  0  0  0  0  0  0  0  0  0  0
  141.5565   77.9685  222.3119 H   0  0  0  0  0  0  0  0  0  0  0  0
  142.9050   79.5212  220.7033 H   0  0  0  0  0  0  0  0  0  0  0  0
  141.6970   80.7807  221.0959 H   0  0  0  0  0  0  0  0  0  0  0  0
  143.7754   79.4791  222.8476 H   0  0  0  0  0  0  0  0  0  0  0  0
  143.2454   81.1828  222.7894 H   0  0  0  0  0  0  0  0  0  0  0  0
  141.9054   78.7878  224.1005 H   0  0  0  0  0  0  0  0  0  0  0  0
  142.2644   80.4147  224.7880 H   0  0  0  0  0  0  0  0  0  0  0  0
  139.8990   80.2796  224.4076 H   0  0  0  0  0  0  0  0  0  0  0  0
  140.6033   81.3710  223.1635 H   0  0  0  0  0  0  0  0  0  0  0  0
  139.3432   78.6852  222.8768 H   0  0  0  0  0  0  0  0  0  0  0  0
  139.4021   80.0599  221.7315 H   0  0  0  0  0  0  0  0  0  0  0  0
  139.2060   69.8363  222.4134 H   0  0  0  0  0  0  0  0  0  0  0  0
  138.9386   68.3645  224.4005 H   0  0  0  0  0  0  0  0  0  0  0  0
  139.2565   67.9870  226.6938 H   0  0  0  0  0  0  0  0  0  0  0  0
  141.1998   70.9648  229.1262 H   0  0  0  0  0  0  0  0  0  0  0  0
  141.4527   72.4119  227.1201 H   0  0  0  0  0  0  0  0  0  0  0  0
  1  2  2  0
  2  3  1  0
  3  4  1  0
  4  5  1  0
  5  6  2  0
  5  7  1  0
  7  8  1  0
  8  9  1  0
  9 10  1  0
  9 11  1  0
 11 12  1  0
 11 13  1  0
 13 14  1  0
 14 15  1  0
 15 16  1  0
 16 17  1  0
 17 18  1  0
 18 19  1  0
  2 20  1  0
 20 21  2  0
 21 22  1  0
 22 23  2  0
 23 24  1  0
 24 25  2  0
 25 26  1  0
 25 27  1  0
 27 28  2  0
 28 29  1  0
 29 30  2  0
 13  7  1  0
 19 14  1  0
 30 20  1  0
 29 23  1  0
  3 31  1  0
  4 32  1  0
  4 33  1  0
  8 34  1  0
  8 35  1  0
  9 36  1  6
 10 37  1  0
 11 38  1  1
 12 39  1  0
 13 40  1  6
 14 41  1  0
 15 42  1  0
 15 43  1  0
 16 44  1  0
 16 45  1  0
 17 46  1  0
 17 47  1  0
 18 48  1  0
 18 49  1  0
 19 50  1  0
 19 51  1  0
 21 52  1  0
 22 53  1  0
 24 54  1  0
 27 55  1  0
 28 56  1  0
M  END
>  <smiles>  (8) 
O=C(NCC(=O)N1C[C@H](O)[C@H](O)[C@H]1C1CCCCC1)c1ccc2cc(F)ccc2n1

>  <score_type>  (8) 
oracle

>  <origin>  (8) 
autodockgpu

>  <m_score__min__energy>  (8) 
-8.8900000000000006

>  <m_primary>  (8) 
energy

>  <rmsd>  (8) 
2.292314642734644

>  <m_score__min__rmsd>  (8) 
2.292314642734644

>  <meeko>  (8) 
{"free_energy": -7.49, "intermolecular_energy": -9.58, "internal_energy": -3.39, "cluster_size": 38, "cluster_id": 1, "rank_in_cluster": 33}

>  <energy>  (8) 
-8.68

>  <cluster_rmsd>  (8) 
0.68

>  <cluster>  (8) 
1

$$$$

     RDKit          3D

 56 59  0  0  0  0  0  0  0  0999 V2000
  139.7600   70.6640  221.3960 O   0  0  0  0  0  0  0  0  0  0  0  0
  139.7030   71.2260  222.5210 C   0  0  0  0  0  0  0  0  0  0  0  0
  139.5400   72.6400  222.5550 N   0  0  0  0  0  0  0  0  0  0  0  0
  139.4550   73.2950  221.2150 C   0  0  0  0  0  0  0  0  0  0  0  0
  140.1140   74.6050  221.2800 C   0  0  0  0  0  0  0  0  0  0  0  0
  139.9590   75.2250  222.4130 O   0  0  0  0  0  0  0  0  0  0  0  0
  140.8740   75.2860  220.3380 N   0  0  0  0  0  0  0  0  0  0  0  0
  140.4960   76.7210  220.0130 C   0  0  0  0  0  0  0  0  0  0  0  0
  141.8380   77.3720  220.2820 C   0  0  2  0  0  0  0  0  0  0  0  0
  142.0120   78.4280  219.3740 O   0  0  0  0  0  0  0  0  0  0  0  0
  142.8800   76.2690  220.0200 C   0  0  2  0  0  0  0  0  0  0  0  0
  143.7450   76.7370  219.0390 O   0  0  0  0  0  0  0  0  0  0  0  0
  142.0120   75.1250  219.5120 C   0  0  1  0  0  0  0  0  0  0  0  0
  142.6430   73.8070  219.4610 C   0  0  0  0  0  0  0  0  0  0  0  0
  143.1300   73.4000  220.8310 C   0  0  0  0  0  0  0  0  0  0  0  0
  144.1360   72.2910  220.6700 C   0  0  0  0  0  0  0  0  0  0  0  0
  143.7720   71.5060  219.4200 C   0  0  0  0  0  0  0  0  0  0  0  0
  142.2820   71.3780  219.3030 C   0  0  0  0  0  0  0  0  0  0  0  0
  141.6760   72.7240  219.0010 C   0  0  0  0  0  0  0  0  0  0  0  0
  139.7980   70.4910  223.7830 C   0  0  0  0  0  0  0  0  0  0  0  0
  139.2440   69.2120  223.8060 C   0  0  0  0  0  0  0  0  0  0  0  0
  139.2850   68.4480  224.9490 C   0  0  0  0  0  0  0  0  0  0  0  0
  139.8900   68.9900  226.0650 C   0  0  0  0  0  0  0  0  0  0  0  0
  139.9270   68.2150  227.2100 C   0  0  0  0  0  0  0  0  0  0  0  0
  140.5190   68.7250  228.3310 C   0  0  0  0  0  0  0  0  0  0  0  0
  140.5870   68.0240  229.4710 F   0  0  0  0  0  0  0  0  0  0  0  0
  141.0750   70.0020  228.3210 C   0  0  0  0  0  0  0  0  0  0  0  0
  141.0160   70.7490  227.1480 C   0  0  0  0  0  0  0  0  0  0  0  0
  140.4240   70.2590  225.9970 C   0  0  0  0  0  0  0  0  0  0  0  0
  140.3850   71.0100  224.8800 N   0  0  0  0  0  0  0  0  0  0  0  0
  139.4820   73.2010  223.4210 H   0  0  0  0  0  0  0  0  0  0  0  0
  139.9573   72.6665  220.4649 H   0  0  0  0  0  0  0  0  0  0  0  0
  138.4002   73.4236  220.9308 H   0  0  0  0  0  0  0  0  0  0  0  0
  140.1800   76.8396  218.9661 H   0  0  0  0  0  0  0  0  0  0  0  0
  139.6445   77.1304  220.5763 H   0  0  0  0  0  0  0  0  0  0  0  0
  141.9249   77.7754  221.3017 H   0  0  0  0  0  0  0  0  0  0  0  0
  142.9560   78.7040  219.2840 H   0  0  0  0  0  0  0  0  0  0  0  0
  143.4971   75.9701  220.8801 H   0  0  0  0  0  0  0  0  0  0  0  0
  144.0320   77.6410  219.3290 H   0  0  0  0  0  0  0  0  0  0  0  0
  141.7720   75.1695  218.4394 H   0  0  0  0  0  0  0  0  0  0  0  0
  143.4741   73.8955  218.7458 H   0  0  0  0  0  0  0  0  0  0  0  0
  143.6023   74.2603  221.3277 H   0  0  0  0  0  0  0  0  0  0  0  0
  142.2846   73.0560  221.4449 H   0  0  0  0  0  0  0  0  0  0  0  0
  145.1455   72.7149  220.5641 H   0  0  0  0  0  0  0  0  0  0  0  0
  144.1248   71.6333  221.5516 H   0  0  0  0  0  0  0  0  0  0  0  0
  144.1620   72.0306  218.5353 H   0  0  0  0  0  0  0  0  0  0  0  0
  144.2140   70.5009  219.4865 H   0  0  0  0  0  0  0  0  0  0  0  0
  142.0384   70.6774  218.4907 H   0  0  0  0  0  0  0  0  0  0  0  0
  141.8743   71.0011  220.2526 H   0  0  0  0  0  0  0  0  0  0  0  0
  141.5023   72.8177  217.9189 H   0  0  0  0  0  0  0  0  0  0  0  0
  140.7156   72.8300  219.5268 H   0  0  0  0  0  0  0  0  0  0  0  0
  138.7686   68.8091  222.8996 H   0  0  0  0  0  0  0  0  0  0  0  0
  138.8499   67.4380  224.9730 H   0  0  0  0  0  0  0  0  0  0  0  0
  139.4879   67.2065  227.2181 H   0  0  0  0  0  0  0  0  0  0  0  0
  141.5518   70.4125  229.2233 H   0  0  0  0  0  0  0  0  0  0  0  0
  141.4528   71.7585  227.1355 H   0  0  0  0  0  0  0  0  0  0  0  0
  1  2  2  0
  2  3  1  0
  3  4  1  0
  4  5  1  0
  5  6  2  0
  5  7  1  0
  7  8  1  0
  8  9  1  0
  9 10  1  0
  9 11  1  0
 11 12  1  0
 11 13  1  0
 13 14  1  0
 14 15  1  0
 15 16  1  0
 16 17  1  0
 17 18  1  0
 18 19  1  0
  2 20  1  0
 20 21  2  0
 21 22  1  0
 22 23  2  0
 23 24  1  0
 24 25  2  0
 25 26  1  0
 25 27  1  0
 27 28  2  0
 28 29  1  0
 29 30  2  0
 13  7  1  0
 19 14  1  0
 30 20  1  0
 29 23  1  0
  3 31  1  0
  4 32  1  0
  4 33  1  0
  8 34  1  0
  8 35  1  0
  9 36  1  1
 10 37  1  0
 11 38  1  1
 12 39  1  0
 13 40  1  6
 14 41  1  0
 15 42  1  0
 15 43  1  0
 16 44  1  0
 16 45  1  0
 17 46  1  0
 17 47  1  0
 18 48  1  0
 18 49  1  0
 19 50  1  0
 19 51  1  0
 21 52  1  0
 22 53  1  0
 24 54  1  0
 27 55  1  0
 28 56  1  0
M  END
>  <smiles>  (9) 
O=C(NCC(=O)N1C[C@H](O)[C@H](O)[C@H]1C1CCCCC1)c1ccc2cc(F)ccc2n1

>  <score_type>  (9) 
oracle

>  <origin>  (9) 
autodockgpu

>  <m_score__min__energy>  (9) 
-8.8900000000000006

>  <m_primary>  (9) 
energy

>  <rmsd>  (9) 
2.230716109983176

>  <m_score__min__rmsd>  (9) 
2.230716109983176

>  <meeko>  (9) 
{"free_energy": -7.46, "intermolecular_energy": -9.55, "internal_energy": -3.61, "cluster_size": 38, "cluster_id": 1, "rank_in_cluster": 34}

>  <energy>  (9) 
-8.64

>  <cluster_rmsd>  (9) 
0.63

>  <cluster>  (9) 
1

$$$$

     RDKit          3D

 56 59  0  0  0  0  0  0  0  0999 V2000
  136.2920   77.4440  222.8990 O   0  0  0  0  0  0  0  0  0  0  0  0
  136.4350   76.2430  223.2490 C   0  0  0  0  0  0  0  0  0  0  0  0
  137.5350   75.5160  222.7130 N   0  0  0  0  0  0  0  0  0  0  0  0
  138.4040   76.2910  221.7770 C   0  0  0  0  0  0  0  0  0  0  0  0
  139.7390   75.6820  221.7470 C   0  0  0  0  0  0  0  0  0  0  0  0
  139.8100   74.5230  222.3350 O   0  0  0  0  0  0  0  0  0  0  0  0
  140.9300   76.1330  221.1940 N   0  0  0  0  0  0  0  0  0  0  0  0
  141.8270   75.1230  220.5000 C   0  0  0  0  0  0  0  0  0  0  0  0
  141.9570   75.8210  219.1610 C   0  0  2  0  0  0  0  0  0  0  0  0
  143.2450   75.5840  218.6570 O   0  0  0  0  0  0  0  0  0  0  0  0
  141.7740   77.3180  219.4690 C   0  0  2  0  0  0  0  0  0  0  0  0
  142.9130   77.9770  219.0250 O   0  0  0  0  0  0  0  0  0  0  0  0
  141.6720   77.3210  220.9880 C   0  0  1  0  0  0  0  0  0  0  0  0
  141.1790   78.5530  221.6020 C   0  0  0  0  0  0  0  0  0  0  0  0
  141.0440   78.3820  223.0960 C   0  0  0  0  0  0  0  0  0  0  0  0
  140.1410   79.4680  223.6210 C   0  0  0  0  0  0  0  0  0  0  0  0
  140.3010   80.6840  222.7240 C   0  0  0  0  0  0  0  0  0  0  0  0
  141.7360   80.8420  222.3130 C   0  0  0  0  0  0  0  0  0  0  0  0
  142.1260   79.7250  221.3800 C   0  0  0  0  0  0  0  0  0  0  0  0
  135.5230   75.5710  224.1760 C   0  0  0  0  0  0  0  0  0  0  0  0
  134.6950   76.3880  224.9420 C   0  0  0  0  0  0  0  0  0  0  0  0
  133.8060   75.8440  225.8400 C   0  0  0  0  0  0  0  0  0  0  0  0
  133.7650   74.4700  225.9550 C   0  0  0  0  0  0  0  0  0  0  0  0
  132.8690   73.9310  226.8600 C   0  0  0  0  0  0  0  0  0  0  0  0
  132.8060   72.5730  226.9960 C   0  0  0  0  0  0  0  0  0  0  0  0
  131.9590   71.9910  227.8570 F   0  0  0  0  0  0  0  0  0  0  0  0
  133.6300   71.7460  226.2370 C   0  0  0  0  0  0  0  0  0  0  0  0
  134.5180   72.3280  225.3360 C   0  0  0  0  0  0  0  0  0  0  0  0
  134.6030   73.7000  225.1770 C   0  0  0  0  0  0  0  0  0  0  0  0
  135.4750   74.2290  224.2970 N   0  0  0  0  0  0  0  0  0  0  0  0
  137.7460   74.5280  222.9320 H   0  0  0  0  0  0  0  0  0  0  0  0
  137.9674   76.2717  220.7675 H   0  0  0  0  0  0  0  0  0  0  0  0
  138.4796   77.3339  222.1186 H   0  0  0  0  0  0  0  0  0  0  0  0
  142.7974   75.0136  221.0064 H   0  0  0  0  0  0  0  0  0  0  0  0
  141.4476   74.0911  220.4660 H   0  0  0  0  0  0  0  0  0  0  0  0
  141.2258   75.4692  218.4183 H   0  0  0  0  0  0  0  0  0  0  0  0
  143.5660   76.3110  218.0700 H   0  0  0  0  0  0  0  0  0  0  0  0
  140.9108   77.8090  218.9959 H   0  0  0  0  0  0  0  0  0  0  0  0
  143.6820   77.5340  219.4680 H   0  0  0  0  0  0  0  0  0  0  0  0
  142.6382   77.3192  221.5139 H   0  0  0  0  0  0  0  0  0  0  0  0
  140.2081   78.7611  221.1287 H   0  0  0  0  0  0  0  0  0  0  0  0
  140.6083   77.3969  223.3190 H   0  0  0  0  0  0  0  0  0  0  0  0
  142.0323   78.4492  223.5742 H   0  0  0  0  0  0  0  0  0  0  0  0
  139.0958   79.1257  223.6034 H   0  0  0  0  0  0  0  0  0  0  0  0
  140.4078   79.7196  224.6581 H   0  0  0  0  0  0  0  0  0  0  0  0
  139.6781   80.5573  221.8263 H   0  0  0  0  0  0  0  0  0  0  0  0
  139.9860   81.5811  223.2772 H   0  0  0  0  0  0  0  0  0  0  0  0
  141.8651   81.8071  221.8012 H   0  0  0  0  0  0  0  0  0  0  0  0
  142.3756   80.8081  223.2073 H   0  0  0  0  0  0  0  0  0  0  0  0
  142.0513   80.0695  220.3380 H   0  0  0  0  0  0  0  0  0  0  0  0
  143.1621   79.4137  221.5791 H   0  0  0  0  0  0  0  0  0  0  0  0
  134.7525   77.4805  224.8277 H   0  0  0  0  0  0  0  0  0  0  0  0
  133.1489   76.4842  226.4469 H   0  0  0  0  0  0  0  0  0  0  0  0
  132.2183   74.5842  227.4599 H   0  0  0  0  0  0  0  0  0  0  0  0
  133.5804   70.6527  226.3472 H   0  0  0  0  0  0  0  0  0  0  0  0
  135.1704   71.6788  224.7336 H   0  0  0  0  0  0  0  0  0  0  0  0
  1  2  2  0
  2  3  1  0
  3  4  1  0
  4  5  1  0
  5  6  2  0
  5  7  1  0
  7  8  1  0
  8  9  1  0
  9 10  1  0
  9 11  1  0
 11 12  1  0
 11 13  1  0
 13 14  1  0
 14 15  1  0
 15 16  1  0
 16 17  1  0
 17 18  1  0
 18 19  1  0
  2 20  1  0
 20 21  2  0
 21 22  1  0
 22 23  2  0
 23 24  1  0
 24 25  2  0
 25 26  1  0
 25 27  1  0
 27 28  2  0
 28 29  1  0
 29 30  2  0
 13  7  1  0
 19 14  1  0
 30 20  1  0
 29 23  1  0
  3 31  1  0
  4 32  1  0
  4 33  1  0
  8 34  1  0
  8 35  1  0
  9 36  1  6
 10 37  1  0
 11 38  1  6
 12 39  1  0
 13 40  1  1
 14 41  1  0
 15 42  1  0
 15 43  1  0
 16 44  1  0
 16 45  1  0
 17 46  1  0
 17 47  1  0
 18 48  1  0
 18 49  1  0
 19 50  1  0
 19 51  1  0
 21 52  1  0
 22 53  1  0
 24 54  1  0
 27 55  1  0
 28 56  1  0
M  END
>  <smiles>  (10) 
O=C(NCC(=O)N1C[C@H](O)[C@H](O)[C@H]1C1CCCCC1)c1ccc2cc(F)ccc2n1

>  <score_type>  (10) 
oracle

>  <origin>  (10) 
autodockgpu

>  <m_score__min__energy>  (10) 
-8.8900000000000006

>  <m_primary>  (10) 
energy

>  <rmsd>  (10) 
5.979802601468547

>  <m_score__min__rmsd>  (10) 
5.979802601468547

>  <meeko>  (10) 
{"free_energy": -7.16, "intermolecular_energy": -9.25, "internal_energy": -3.58, "cluster_size": 3, "cluster_id": 4, "rank_in_cluster": 3}

>  <energy>  (10) 
-8.64

>  <cluster_rmsd>  (10) 
0.66

>  <cluster>  (10) 
1

$$$$

     RDKit          3D

 56 59  0  0  0  0  0  0  0  0999 V2000
  141.1350   71.9980  221.4260 O   0  0  0  0  0  0  0  0  0  0  0  0
  140.4260   72.3490  222.4050 C   0  0  0  0  0  0  0  0  0  0  0  0
  139.7740   73.6130  222.3410 N   0  0  0  0  0  0  0  0  0  0  0  0
  140.0210   74.3840  221.0850 C   0  0  0  0  0  0  0  0  0  0  0  0
  140.5000   75.7270  221.4320 C   0  0  0  0  0  0  0  0  0  0  0  0
  139.9510   76.2290  222.4990 O   0  0  0  0  0  0  0  0  0  0  0  0
  141.4400   76.5420  220.8170 N   0  0  0  0  0  0  0  0  0  0  0  0
  142.3040   75.9410  219.7220 C   0  0  0  0  0  0  0  0  0  0  0  0
  142.0040   76.9430  218.6240 C   0  0  2  0  0  0  0  0  0  0  0  0
  143.1600   77.1160  217.8490 O   0  0  0  0  0  0  0  0  0  0  0  0
  141.6550   78.2500  219.3580 C   0  0  2  0  0  0  0  0  0  0  0  0
  142.5370   79.2270  218.9120 O   0  0  0  0  0  0  0  0  0  0  0  0
  141.9090   77.8780  220.8120 C   0  0  1  0  0  0  0  0  0  0  0  0
  141.3780   78.7950  221.8190 C   0  0  0  0  0  0  0  0  0  0  0  0
  142.5030   79.4650  222.5710 C   0  0  0  0  0  0  0  0  0  0  0  0
  141.9490   80.0330  223.8520 C   0  0  0  0  0  0  0  0  0  0  0  0
  140.4960   80.4040  223.6090 C   0  0  0  0  0  0  0  0  0  0  0  0
  140.3290   80.9820  222.2340 C   0  0  0  0  0  0  0  0  0  0  0  0
  140.5430   79.9080  221.1990 C   0  0  0  0  0  0  0  0  0  0  0  0
  140.2480   71.5180  223.5970 C   0  0  0  0  0  0  0  0  0  0  0  0
  139.5680   70.3140  223.4240 C   0  0  0  0  0  0  0  0  0  0  0  0
  139.3520   69.4690  224.4880 C   0  0  0  0  0  0  0  0  0  0  0  0
  139.8300   69.8540  225.7240 C   0  0  0  0  0  0  0  0  0  0  0  0
  139.6090   68.9980  226.7880 C   0  0  0  0  0  0  0  0  0  0  0  0
  140.0700   69.3530  228.0250 C   0  0  0  0  0  0  0  0  0  0  0  0
  139.8870   68.5670  229.0950 F   0  0  0  0  0  0  0  0  0  0  0  0
  140.7500   70.5540  228.2100 C   0  0  0  0  0  0  0  0  0  0  0  0
  140.9510   71.3870  227.1120 C   0  0  0  0  0  0  0  0  0  0  0  0
  140.4960   71.0540  225.8490 C   0  0  0  0  0  0  0  0  0  0  0  0
  140.7090   71.8840  224.8100 N   0  0  0  0  0  0  0  0  0  0  0  0
  139.1700   73.9990  223.0860 H   0  0  0  0  0  0  0  0  0  0  0  0
  140.7799   73.8675  220.4790 H   0  0  0  0  0  0  0  0  0  0  0  0
  139.0876   74.4612  220.5081 H   0  0  0  0  0  0  0  0  0  0  0  0
  143.3698   75.9306  219.9938 H   0  0  0  0  0  0  0  0  0  0  0  0
  142.1006   74.8882  219.4767 H   0  0  0  0  0  0  0  0  0  0  0  0
  141.1882   76.6232  217.9590 H   0  0  0  0  0  0  0  0  0  0  0  0
  143.2130   78.0100  217.4340 H   0  0  0  0  0  0  0  0  0  0  0  0
  140.6370   78.6367  219.2022 H   0  0  0  0  0  0  0  0  0  0  0  0
  143.4460   78.8390  218.9910 H   0  0  0  0  0  0  0  0  0  0  0  0
  142.9578   77.9655  221.1320 H   0  0  0  0  0  0  0  0  0  0  0  0
  140.7526   78.1841  222.4866 H   0  0  0  0  0  0  0  0  0  0  0  0
  143.2869   78.7281  222.8001 H   0  0  0  0  0  0  0  0  0  0  0  0
  142.9394   80.2686  221.9596 H   0  0  0  0  0  0  0  0  0  0  0  0
  142.0139   79.2816  224.6528 H   0  0  0  0  0  0  0  0  0  0  0  0
  142.5244   80.9190  224.1584 H   0  0  0  0  0  0  0  0  0  0  0  0
  139.8711   79.5036  223.7025 H   0  0  0  0  0  0  0  0  0  0  0  0
  140.1892   81.1545  224.3523 H   0  0  0  0  0  0  0  0  0  0  0  0
  139.3132   81.3912  222.1309 H   0  0  0  0  0  0  0  0  0  0  0  0
  141.0683   81.7827  222.0845 H   0  0  0  0  0  0  0  0  0  0  0  0
  139.5714   79.5061  220.8756 H   0  0  0  0  0  0  0  0  0  0  0  0
  141.0641   80.3266  220.3253 H   0  0  0  0  0  0  0  0  0  0  0  0
  139.1997   70.0361  222.4254 H   0  0  0  0  0  0  0  0  0  0  0  0
  138.8157   68.5175  224.3577 H   0  0  0  0  0  0  0  0  0  0  0  0
  139.0722   68.0491  226.6414 H   0  0  0  0  0  0  0  0  0  0  0  0
  141.1216   70.8396  229.2051 H   0  0  0  0  0  0  0  0  0  0  0  0
  141.4871   72.3371  227.2533 H   0  0  0  0  0  0  0  0  0  0  0  0
  1  2  2  0
  2  3  1  0
  3  4  1  0
  4  5  1  0
  5  6  2  0
  5  7  1  0
  7  8  1  0
  8  9  1  0
  9 10  1  0
  9 11  1  0
 11 12  1  0
 11 13  1  0
 13 14  1  0
 14 15  1  0
 15 16  1  0
 16 17  1  0
 17 18  1  0
 18 19  1  0
  2 20  1  0
 20 21  2  0
 21 22  1  0
 22 23  2  0
 23 24  1  0
 24 25  2  0
 25 26  1  0
 25 27  1  0
 27 28  2  0
 28 29  1  0
 29 30  2  0
 13  7  1  0
 19 14  1  0
 30 20  1  0
 29 23  1  0
  3 31  1  0
  4 32  1  0
  4 33  1  0
  8 34  1  0
  8 35  1  0
  9 36  1  6
 10 37  1  0
 11 38  1  1
 12 39  1  0
 13 40  1  6
 14 41  1  0
 15 42  1  0
 15 43  1  0
 16 44  1  0
 16 45  1  0
 17 46  1  0
 17 47  1  0
 18 48  1  0
 18 49  1  0
 19 50  1  0
 19 51  1  0
 21 52  1  0
 22 53  1  0
 24 54  1  0
 27 55  1  0
 28 56  1  0
M  END
>  <smiles>  (11) 
O=C(NCC(=O)N1C[C@H](O)[C@H](O)[C@H]1C1CCCCC1)c1ccc2cc(F)ccc2n1

>  <score_type>  (11) 
oracle

>  <origin>  (11) 
autodockgpu

>  <m_score__min__energy>  (11) 
-8.8900000000000006

>  <m_primary>  (11) 
energy

>  <rmsd>  (11) 
2.375166836706042

>  <m_score__min__rmsd>  (11) 
2.375166836706042

>  <meeko>  (11) 
{"free_energy": -8.71, "intermolecular_energy": -10.8, "internal_energy": -3.09, "cluster_size": 38, "cluster_id": 1, "rank_in_cluster": 4}

>  <energy>  (11) 
-8.62

>  <cluster_rmsd>  (11) 
0.65

>  <cluster>  (11) 
1

$$$$

     RDKit          3D

 56 59  0  0  0  0  0  0  0  0999 V2000
  139.4650   70.9050  221.3910 O   0  0  0  0  0  0  0  0  0  0  0  0
  139.6530   71.4510  222.5090 C   0  0  0  0  0  0  0  0  0  0  0  0
  139.7910   72.8680  222.5480 N   0  0  0  0  0  0  0  0  0  0  0  0
  139.6920   73.5450  221.2200 C   0  0  0  0  0  0  0  0  0  0  0  0
  140.6570   74.6500  221.1720 C   0  0  0  0  0  0  0  0  0  0  0  0
  141.0180   75.0940  222.3410 O   0  0  0  0  0  0  0  0  0  0  0  0
  141.2490   75.2920  220.0920 N   0  0  0  0  0  0  0  0  0  0  0  0
  140.5300   76.4840  219.4850 C   0  0  0  0  0  0  0  0  0  0  0  0
  141.6540   77.4960  219.5820 C   0  0  2  0  0  0  0  0  0  0  0  0
  141.5820   78.3500  218.4700 O   0  0  0  0  0  0  0  0  0  0  0  0
  142.9480   76.6650  219.5310 C   0  0  2  0  0  0  0  0  0  0  0  0
  143.6970   77.1250  218.4550 O   0  0  0  0  0  0  0  0  0  0  0  0
  142.4160   75.2590  219.2930 C   0  0  1  0  0  0  0  0  0  0  0  0
  143.3620   74.1640  219.5030 C   0  0  0  0  0  0  0  0  0  0  0  0
  144.3530   74.5200  220.5850 C   0  0  0  0  0  0  0  0  0  0  0  0
  145.5400   73.6010  220.4670 C   0  0  0  0  0  0  0  0  0  0  0  0
  145.0540   72.2790  219.8970 C   0  0  0  0  0  0  0  0  0  0  0  0
  143.7120   71.9280  220.4690 C   0  0  0  0  0  0  0  0  0  0  0  0
  142.6690   72.8830  219.9480 C   0  0  0  0  0  0  0  0  0  0  0  0
  139.7360   70.6950  223.7600 C   0  0  0  0  0  0  0  0  0  0  0  0
  139.1940   69.4120  223.7520 C   0  0  0  0  0  0  0  0  0  0  0  0
  139.2260   68.6280  224.8830 C   0  0  0  0  0  0  0  0  0  0  0  0
  139.8100   69.1550  226.0160 C   0  0  0  0  0  0  0  0  0  0  0  0
  139.8380   68.3610  227.1480 C   0  0  0  0  0  0  0  0  0  0  0  0
  140.4090   68.8560  228.2860 C   0  0  0  0  0  0  0  0  0  0  0  0
  140.4670   68.1350  229.4150 F   0  0  0  0  0  0  0  0  0  0  0  0
  140.9540   70.1380  228.3060 C   0  0  0  0  0  0  0  0  0  0  0  0
  140.9050   70.9050  227.1450 C   0  0  0  0  0  0  0  0  0  0  0  0
  140.3330   70.4300  225.9780 C   0  0  0  0  0  0  0  0  0  0  0  0
  140.3040   71.2000  224.8740 N   0  0  0  0  0  0  0  0  0  0  0  0
  139.9480   73.4170  223.4100 H   0  0  0  0  0  0  0  0  0  0  0  0
  139.9178   72.8236  220.4209 H   0  0  0  0  0  0  0  0  0  0  0  0
  138.6735   73.9355  221.0777 H   0  0  0  0  0  0  0  0  0  0  0  0
  140.2270   76.2993  218.4438 H   0  0  0  0  0  0  0  0  0  0  0  0
  139.5854   76.7706  219.9704 H   0  0  0  0  0  0  0  0  0  0  0  0
  141.6048   78.1103  220.4931 H   0  0  0  0  0  0  0  0  0  0  0  0
  142.1180   78.0290  217.7060 H   0  0  0  0  0  0  0  0  0  0  0  0
  143.5933   76.7171  220.4203 H   0  0  0  0  0  0  0  0  0  0  0  0
  143.7520   78.1100  218.5540 H   0  0  0  0  0  0  0  0  0  0  0  0
  142.2071   75.0177  218.2403 H   0  0  0  0  0  0  0  0  0  0  0  0
  143.8603   74.0035  218.5356 H   0  0  0  0  0  0  0  0  0  0  0  0
  144.6780   75.5636  220.4617 H   0  0  0  0  0  0  0  0  0  0  0  0
  143.8866   74.4080  221.5749 H   0  0  0  0  0  0  0  0  0  0  0  0
  146.2901   74.0441  219.7954 H   0  0  0  0  0  0  0  0  0  0  0  0
  146.0030   73.4456  221.4526 H   0  0  0  0  0  0  0  0  0  0  0  0
  144.9716   72.3636  218.8034 H   0  0  0  0  0  0  0  0  0  0  0  0
  145.7732   71.4894  220.1604 H   0  0  0  0  0  0  0  0  0  0  0  0
  143.4468   70.9018  220.1749 H   0  0  0  0  0  0  0  0  0  0  0  0
  143.7547   72.0001  221.5658 H   0  0  0  0  0  0  0  0  0  0  0  0
  142.1448   72.4294  219.0939 H   0  0  0  0  0  0  0  0  0  0  0  0
  141.9366   73.1068  220.7376 H   0  0  0  0  0  0  0  0  0  0  0  0
  138.7354   69.0209  222.8318 H   0  0  0  0  0  0  0  0  0  0  0  0
  138.7996   67.6140  224.8832 H   0  0  0  0  0  0  0  0  0  0  0  0
  139.4080   67.3486  227.1323 H   0  0  0  0  0  0  0  0  0  0  0  0
  141.4144   70.5368  229.2219 H   0  0  0  0  0  0  0  0  0  0  0  0
  141.3335   71.9181  227.1558 H   0  0  0  0  0  0  0  0  0  0  0  0
  1  2  2  0
  2  3  1  0
  3  4  1  0
  4  5  1  0
  5  6  2  0
  5  7  1  0
  7  8  1  0
  8  9  1  0
  9 10  1  0
  9 11  1  0
 11 12  1  0
 11 13  1  0
 13 14  1  0
 14 15  1  0
 15 16  1  0
 16 17  1  0
 17 18  1  0
 18 19  1  0
  2 20  1  0
 20 21  2  0
 21 22  1  0
 22 23  2  0
 23 24  1  0
 24 25  2  0
 25 26  1  0
 25 27  1  0
 27 28  2  0
 28 29  1  0
 29 30  2  0
 13  7  1  0
 19 14  1  0
 30 20  1  0
 29 23  1  0
  3 31  1  0
  4 32  1  0
  4 33  1  0
  8 34  1  0
  8 35  1  0
  9 36  1  1
 10 37  1  0
 11 38  1  1
 12 39  1  0
 13 40  1  6
 14 41  1  0
 15 42  1  0
 15 43  1  0
 16 44  1  0
 16 45  1  0
 17 46  1  0
 17 47  1  0
 18 48  1  0
 18 49  1  0
 19 50  1  0
 19 51  1  0
 21 52  1  0
 22 53  1  0
 24 54  1  0
 27 55  1  0
 28 56  1  0
M  END
>  <smiles>  (12) 
O=C(NCC(=O)N1C[C@H](O)[C@H](O)[C@H]1C1CCCCC1)c1ccc2cc(F)ccc2n1

>  <score_type>  (12) 
oracle

>  <origin>  (12) 
autodockgpu

>  <m_score__min__energy>  (12) 
-8.8900000000000006

>  <m_primary>  (12) 
energy

>  <rmsd>  (12) 
2.1039044956289934

>  <m_score__min__rmsd>  (12) 
2.1039044956289934

>  <meeko>  (12) 
{"free_energy": -7.58, "intermolecular_energy": -9.67, "internal_energy": -3.51, "cluster_size": 38, "cluster_id": 1, "rank_in_cluster": 31}

>  <energy>  (12) 
-8.57

>  <cluster_rmsd>  (12) 
0.67

>  <cluster>  (12) 
1

$$$$

     RDKit          3D

 56 59  0  0  0  0  0  0  0  0999 V2000
  139.7480   70.6510  221.3470 O   0  0  0  0  0  0  0  0  0  0  0  0
  139.7360   71.2320  222.4630 C   0  0  0  0  0  0  0  0  0  0  0  0
  139.6720   72.6550  222.4760 N   0  0  0  0  0  0  0  0  0  0  0  0
  139.6270   73.2940  221.1260 C   0  0  0  0  0  0  0  0  0  0  0  0
  140.3860   74.5490  221.1630 C   0  0  0  0  0  0  0  0  0  0  0  0
  140.4200   75.1170  222.3340 O   0  0  0  0  0  0  0  0  0  0  0  0
  141.0730   75.2250  220.1640 N   0  0  0  0  0  0  0  0  0  0  0  0
  140.4230   76.4520  219.5500 C   0  0  0  0  0  0  0  0  0  0  0  0
  141.5480   77.4410  219.7810 C   0  0  2  0  0  0  0  0  0  0  0  0
  141.5800   78.3410  218.7050 O   0  0  0  0  0  0  0  0  0  0  0  0
  142.8310   76.5910  219.8020 C   0  0  2  0  0  0  0  0  0  0  0  0
  143.6730   77.0820  218.8110 O   0  0  0  0  0  0  0  0  0  0  0  0
  142.3020   75.2050  219.4620 C   0  0  1  0  0  0  0  0  0  0  0  0
  143.2120   74.0870  219.7030 C   0  0  0  0  0  0  0  0  0  0  0  0
  143.6910   73.5030  218.3950 C   0  0  0  0  0  0  0  0  0  0  0  0
  144.2410   72.1260  218.6600 C   0  0  0  0  0  0  0  0  0  0  0  0
  144.8010   72.1090  220.0730 C   0  0  0  0  0  0  0  0  0  0  0  0
  145.4800   73.4120  220.3780 C   0  0  0  0  0  0  0  0  0  0  0  0
  144.4550   74.5120  220.4730 C   0  0  0  0  0  0  0  0  0  0  0  0
  139.7860   70.5130  223.7360 C   0  0  0  0  0  0  0  0  0  0  0  0
  139.2100   69.2440  223.7600 C   0  0  0  0  0  0  0  0  0  0  0  0
  139.2090   68.4940  224.9140 C   0  0  0  0  0  0  0  0  0  0  0  0
  139.7940   69.0390  226.0380 C   0  0  0  0  0  0  0  0  0  0  0  0
  139.7880   68.2790  227.1930 C   0  0  0  0  0  0  0  0  0  0  0  0
  140.3600   68.7940  228.3230 C   0  0  0  0  0  0  0  0  0  0  0  0
  140.3860   68.1060  229.4730 F   0  0  0  0  0  0  0  0  0  0  0  0
  140.9370   70.0600  228.3110 C   0  0  0  0  0  0  0  0  0  0  0  0
  140.9220   70.7930  227.1280 C   0  0  0  0  0  0  0  0  0  0  0  0
  140.3510   70.2990  225.9680 C   0  0  0  0  0  0  0  0  0  0  0  0
  140.3530   71.0360  224.8410 N   0  0  0  0  0  0  0  0  0  0  0  0
  139.6570   73.2320  223.3330 H   0  0  0  0  0  0  0  0  0  0  0  0
  140.0721   72.6162  220.3827 H   0  0  0  0  0  0  0  0  0  0  0  0
  138.5828   73.5006  220.8486 H   0  0  0  0  0  0  0  0  0  0  0  0
  140.2051   76.3144  218.4806 H   0  0  0  0  0  0  0  0  0  0  0  0
  139.4453   76.7343  219.9676 H   0  0  0  0  0  0  0  0  0  0  0  0
  141.4310   78.0187  220.7097 H   0  0  0  0  0  0  0  0  0  0  0  0
  142.2080   78.0650  217.9940 H   0  0  0  0  0  0  0  0  0  0  0  0
  143.4009   76.5961  220.7429 H   0  0  0  0  0  0  0  0  0  0  0  0
  143.7200   78.0630  218.9470 H   0  0  0  0  0  0  0  0  0  0  0  0
  142.1780   75.0106  218.3865 H   0  0  0  0  0  0  0  0  0  0  0  0
  142.6412   73.3523  220.2899 H   0  0  0  0  0  0  0  0  0  0  0  0
  142.8508   73.4374  217.6880 H   0  0  0  0  0  0  0  0  0  0  0  0
  144.4719   74.1436  217.9594 H   0  0  0  0  0  0  0  0  0  0  0  0
  143.4388   71.3791  218.5672 H   0  0  0  0  0  0  0  0  0  0  0  0
  145.0297   71.8826  217.9329 H   0  0  0  0  0  0  0  0  0  0  0  0
  143.9795   71.9516  220.7874 H   0  0  0  0  0  0  0  0  0  0  0  0
  145.5347   71.2938  220.1581 H   0  0  0  0  0  0  0  0  0  0  0  0
  146.0163   73.3291  221.3348 H   0  0  0  0  0  0  0  0  0  0  0  0
  146.1918   73.6476  219.5731 H   0  0  0  0  0  0  0  0  0  0  0  0
  144.1957   74.6866  221.5277 H   0  0  0  0  0  0  0  0  0  0  0  0
  144.8611   75.4413  220.0469 H   0  0  0  0  0  0  0  0  0  0  0  0
  138.7512   68.8375  222.8466 H   0  0  0  0  0  0  0  0  0  0  0  0
  138.7561   67.4919  224.9392 H   0  0  0  0  0  0  0  0  0  0  0  0
  139.3314   67.2783  227.2026 H   0  0  0  0  0  0  0  0  0  0  0  0
  141.3969   70.4742  229.2204 H   0  0  0  0  0  0  0  0  0  0  0  0
  141.3773   71.7943  227.1145 H   0  0  0  0  0  0  0  0  0  0  0  0
  1  2  2  0
  2  3  1  0
  3  4  1  0
  4  5  1  0
  5  6  2  0
  5  7  1  0
  7  8  1  0
  8  9  1  0
  9 10  1  0
  9 11  1  0
 11 12  1  0
 11 13  1  0
 13 14  1  0
 14 15  1  0
 15 16  1  0
 16 17  1  0
 17 18  1  0
 18 19  1  0
  2 20  1  0
 20 21  2  0
 21 22  1  0
 22 23  2  0
 23 24  1  0
 24 25  2  0
 25 26  1  0
 25 27  1  0
 27 28  2  0
 28 29  1  0
 29 30  2  0
 13  7  1  0
 19 14  1  0
 30 20  1  0
 29 23  1  0
  3 31  1  0
  4 32  1  0
  4 33  1  0
  8 34  1  0
  8 35  1  0
  9 36  1  1
 10 37  1  0
 11 38  1  1
 12 39  1  0
 13 40  1  6
 14 41  1  0
 15 42  1  0
 15 43  1  0
 16 44  1  0
 16 45  1  0
 17 46  1  0
 17 47  1  0
 18 48  1  0
 18 49  1  0
 19 50  1  0
 19 51  1  0
 21 52  1  0
 22 53  1  0
 24 54  1  0
 27 55  1  0
 28 56  1  0
M  END
>  <smiles>  (13) 
O=C(NCC(=O)N1C[C@H](O)[C@H](O)[C@H]1C1CCCCC1)c1ccc2cc(F)ccc2n1

>  <score_type>  (13) 
oracle

>  <origin>  (13) 
autodockgpu

>  <m_score__min__energy>  (13) 
-8.8900000000000006

>  <m_primary>  (13) 
energy

>  <rmsd>  (13) 
2.138134183344257

>  <m_score__min__rmsd>  (13) 
2.138134183344257

>  <meeko>  (13) 
{"free_energy": -7.79, "intermolecular_energy": -9.87, "internal_energy": -3.46, "cluster_size": 38, "cluster_id": 1, "rank_in_cluster": 27}

>  <energy>  (13) 
-8.55

>  <cluster_rmsd>  (13) 
0.73

>  <cluster>  (13) 
1

$$$$

     RDKit          3D

 56 59  0  0  0  0  0  0  0  0999 V2000
  139.4300   70.7090  221.4190 O   0  0  0  0  0  0  0  0  0  0  0  0
  139.6250   71.2810  222.5220 C   0  0  0  0  0  0  0  0  0  0  0  0
  139.7400   72.7000  222.5300 N   0  0  0  0  0  0  0  0  0  0  0  0
  139.6110   73.3480  221.1900 C   0  0  0  0  0  0  0  0  0  0  0  0
  140.4250   74.5690  221.1670 C   0  0  0  0  0  0  0  0  0  0  0  0
  140.5450   75.1510  222.3250 O   0  0  0  0  0  0  0  0  0  0  0  0
  141.0870   75.1990  220.1220 N   0  0  0  0  0  0  0  0  0  0  0  0
  140.4530   76.4380  219.5140 C   0  0  0  0  0  0  0  0  0  0  0  0
  141.6230   77.3880  219.6710 C   0  0  2  0  0  0  0  0  0  0  0  0
  141.6350   78.2650  218.5750 O   0  0  0  0  0  0  0  0  0  0  0  0
  142.8740   76.4920  219.6490 C   0  0  2  0  0  0  0  0  0  0  0  0
  143.6840   76.9320  218.6090 O   0  0  0  0  0  0  0  0  0  0  0  0
  142.2790   75.1200  219.3630 C   0  0  1  0  0  0  0  0  0  0  0  0
  143.1590   73.9740  219.5840 C   0  0  0  0  0  0  0  0  0  0  0  0
  144.1190   73.8140  218.4300 C   0  0  0  0  0  0  0  0  0  0  0  0
  144.6820   72.4170  218.4660 C   0  0  0  0  0  0  0  0  0  0  0  0
  144.7140   71.9630  219.9160 C   0  0  0  0  0  0  0  0  0  0  0  0
  145.1070   73.1030  220.8090 C   0  0  0  0  0  0  0  0  0  0  0  0
  144.0060   74.1310  220.8390 C   0  0  0  0  0  0  0  0  0  0  0  0
  139.7390   70.5530  223.7870 C   0  0  0  0  0  0  0  0  0  0  0  0
  139.2140   69.2620  223.8150 C   0  0  0  0  0  0  0  0  0  0  0  0
  139.2750   68.5020  224.9600 C   0  0  0  0  0  0  0  0  0  0  0  0
  139.8690   69.0610  226.0740 C   0  0  0  0  0  0  0  0  0  0  0  0
  139.9270   68.2910  227.2210 C   0  0  0  0  0  0  0  0  0  0  0  0
  140.5090   68.8180  228.3390 C   0  0  0  0  0  0  0  0  0  0  0  0
  140.5950   68.1220  229.4820 F   0  0  0  0  0  0  0  0  0  0  0  0
  141.0360   70.1070  228.3240 C   0  0  0  0  0  0  0  0  0  0  0  0
  140.9580   70.8490  227.1480 C   0  0  0  0  0  0  0  0  0  0  0  0
  140.3740   70.3420  226.0010 C   0  0  0  0  0  0  0  0  0  0  0  0
  140.3160   71.0880  224.8810 N   0  0  0  0  0  0  0  0  0  0  0  0
  139.9010   73.2690  223.3780 H   0  0  0  0  0  0  0  0  0  0  0  0
  139.9628   72.6560  220.4107 H   0  0  0  0  0  0  0  0  0  0  0  0
  138.5574   73.6012  221.0005 H   0  0  0  0  0  0  0  0  0  0  0  0
  140.1790   76.2884  218.4592 H   0  0  0  0  0  0  0  0  0  0  0  0
  139.5074   76.7645  219.9714 H   0  0  0  0  0  0  0  0  0  0  0  0
  141.5725   77.9871  220.5922 H   0  0  0  0  0  0  0  0  0  0  0  0
  142.5020   78.7250  218.4630 H   0  0  0  0  0  0  0  0  0  0  0  0
  143.4884   76.4942  220.5614 H   0  0  0  0  0  0  0  0  0  0  0  0
  143.0730   77.2460  217.8940 H   0  0  0  0  0  0  0  0  0  0  0  0
  142.0959   74.9098  218.2989 H   0  0  0  0  0  0  0  0  0  0  0  0
  142.4987   73.1002  219.6860 H   0  0  0  0  0  0  0  0  0  0  0  0
  143.5878   73.9755  217.4804 H   0  0  0  0  0  0  0  0  0  0  0  0
  144.9323   74.5501  218.5118 H   0  0  0  0  0  0  0  0  0  0  0  0
  144.0440   71.7417  217.8770 H   0  0  0  0  0  0  0  0  0  0  0  0
  145.6949   72.4011  218.0373 H   0  0  0  0  0  0  0  0  0  0  0  0
  143.7160   71.6023  220.2056 H   0  0  0  0  0  0  0  0  0  0  0  0
  145.4519   71.1541  220.0219 H   0  0  0  0  0  0  0  0  0  0  0  0
  145.2820   72.7256  221.8273 H   0  0  0  0  0  0  0  0  0  0  0  0
  146.0264   73.5668  220.4224 H   0  0  0  0  0  0  0  0  0  0  0  0
  143.3797   73.9771  221.7301 H   0  0  0  0  0  0  0  0  0  0  0  0
  144.4376   75.1421  220.8764 H   0  0  0  0  0  0  0  0  0  0  0  0
  138.7454   68.8461  222.9109 H   0  0  0  0  0  0  0  0  0  0  0  0
  138.8639   67.4821  224.9872 H   0  0  0  0  0  0  0  0  0  0  0  0
  139.5120   67.2724  227.2331 H   0  0  0  0  0  0  0  0  0  0  0  0
  141.5050   70.5311  229.2241 H   0  0  0  0  0  0  0  0  0  0  0  0
  141.3728   71.8677  227.1307 H   0  0  0  0  0  0  0  0  0  0  0  0
  1  2  2  0
  2  3  1  0
  3  4  1  0
  4  5  1  0
  5  6  2  0
  5  7  1  0
  7  8  1  0
  8  9  1  0
  9 10  1  0
  9 11  1  0
 11 12  1  0
 11 13  1  0
 13 14  1  0
 14 15  1  0
 15 16  1  0
 16 17  1  0
 17 18  1  0
 18 19  1  0
  2 20  1  0
 20 21  2  0
 21 22  1  0
 22 23  2  0
 23 24  1  0
 24 25  2  0
 25 26  1  0
 25 27  1  0
 27 28  2  0
 28 29  1  0
 29 30  2  0
 13  7  1  0
 19 14  1  0
 30 20  1  0
 29 23  1  0
  3 31  1  0
  4 32  1  0
  4 33  1  0
  8 34  1  0
  8 35  1  0
  9 36  1  1
 10 37  1  0
 11 38  1  1
 12 39  1  0
 13 40  1  6
 14 41  1  0
 15 42  1  0
 15 43  1  0
 16 44  1  0
 16 45  1  0
 17 46  1  0
 17 47  1  0
 18 48  1  0
 18 49  1  0
 19 50  1  0
 19 51  1  0
 21 52  1  0
 22 53  1  0
 24 54  1  0
 27 55  1  0
 28 56  1  0
M  END
>  <smiles>  (14) 
O=C(NCC(=O)N1C[C@H](O)[C@H](O)[C@H]1C1CCCCC1)c1ccc2cc(F)ccc2n1

>  <score_type>  (14) 
oracle

>  <origin>  (14) 
autodockgpu

>  <m_score__min__energy>  (14) 
-8.8900000000000006

>  <m_primary>  (14) 
energy

>  <rmsd>  (14) 
2.045741243147175

>  <m_score__min__rmsd>  (14) 
2.045741243147175

>  <meeko>  (14) 
{"free_energy": -7.14, "intermolecular_energy": -9.23, "internal_energy": -3.54, "cluster_size": 38, "cluster_id": 1, "rank_in_cluster": 38}

>  <energy>  (14) 
-8.46

>  <cluster_rmsd>  (14) 
0.52

>  <cluster>  (14) 
1

$$$$

     RDKit          3D

 56 59  0  0  0  0  0  0  0  0999 V2000
  141.0690   71.8960  221.3660 O   0  0  0  0  0  0  0  0  0  0  0  0
  140.4560   72.3010  222.3880 C   0  0  0  0  0  0  0  0  0  0  0  0
  139.9080   73.6150  222.3630 N   0  0  0  0  0  0  0  0  0  0  0  0
  140.1370   74.3670  221.0920 C   0  0  0  0  0  0  0  0  0  0  0  0
  140.5310   75.7440  221.4130 C   0  0  0  0  0  0  0  0  0  0  0  0
  139.9340   76.2390  222.4580 O   0  0  0  0  0  0  0  0  0  0  0  0
  141.4340   76.5970  220.7930 N   0  0  0  0  0  0  0  0  0  0  0  0
  142.2530   76.0570  219.6340 C   0  0  0  0  0  0  0  0  0  0  0  0
  141.8920   77.1020  218.5980 C   0  0  2  0  0  0  0  0  0  0  0  0
  143.0100   77.3240  217.7800 O   0  0  0  0  0  0  0  0  0  0  0  0
  141.5650   78.3710  219.4060 C   0  0  2  0  0  0  0  0  0  0  0  0
  142.4160   79.3780  218.9650 O   0  0  0  0  0  0  0  0  0  0  0  0
  141.8890   77.9370  220.8290 C   0  0  1  0  0  0  0  0  0  0  0  0
  141.3950   78.8020  221.8990 C   0  0  0  0  0  0  0  0  0  0  0  0
  142.5300   79.5900  222.5090 C   0  0  0  0  0  0  0  0  0  0  0  0
  142.0850   80.1070  223.8510 C   0  0  0  0  0  0  0  0  0  0  0  0
  140.5820   80.3240  223.7940 C   0  0  0  0  0  0  0  0  0  0  0  0
  140.1860   80.8720  222.4540 C   0  0  0  0  0  0  0  0  0  0  0  0
  140.3790   79.8180  221.3950 C   0  0  0  0  0  0  0  0  0  0  0  0
  140.2860   71.4840  223.5900 C   0  0  0  0  0  0  0  0  0  0  0  0
  139.6360   70.2620  223.4290 C   0  0  0  0  0  0  0  0  0  0  0  0
  139.4310   69.4280  224.5030 C   0  0  0  0  0  0  0  0  0  0  0  0
  139.8880   69.8420  225.7380 C   0  0  0  0  0  0  0  0  0  0  0  0
  139.6780   68.9970  226.8130 C   0  0  0  0  0  0  0  0  0  0  0  0
  140.1190   69.3810  228.0480 C   0  0  0  0  0  0  0  0  0  0  0  0
  139.9440   68.6070  229.1280 F   0  0  0  0  0  0  0  0  0  0  0  0
  140.7680   70.6000  228.2220 C   0  0  0  0  0  0  0  0  0  0  0  0
  140.9600   71.4210  227.1130 C   0  0  0  0  0  0  0  0  0  0  0  0
  140.5250   71.0590  225.8510 C   0  0  0  0  0  0  0  0  0  0  0  0
  140.7270   71.8790  224.8010 N   0  0  0  0  0  0  0  0  0  0  0  0
  139.3880   74.0470  223.1450 H   0  0  0  0  0  0  0  0  0  0  0  0
  140.9369   73.8800  220.5149 H   0  0  0  0  0  0  0  0  0  0  0  0
  139.2132   74.3755  220.4949 H   0  0  0  0  0  0  0  0  0  0  0  0
  143.3303   76.0485  219.8562 H   0  0  0  0  0  0  0  0  0  0  0  0
  142.0502   75.0136  219.3509 H   0  0  0  0  0  0  0  0  0  0  0  0
  141.0495   76.8022  217.9575 H   0  0  0  0  0  0  0  0  0  0  0  0
  143.7220   77.8370  218.2340 H   0  0  0  0  0  0  0  0  0  0  0  0
  140.5373   78.7524  219.3143 H   0  0  0  0  0  0  0  0  0  0  0  0
  143.3350   79.0130  219.0300 H   0  0  0  0  0  0  0  0  0  0  0  0
  142.9500   78.0220  221.1065 H   0  0  0  0  0  0  0  0  0  0  0  0
  140.9234   78.1347  222.6354 H   0  0  0  0  0  0  0  0  0  0  0  0
  143.4081   78.9394  222.6345 H   0  0  0  0  0  0  0  0  0  0  0  0
  142.8015   80.4298  221.8525 H   0  0  0  0  0  0  0  0  0  0  0  0
  142.3270   79.3725  224.6333 H   0  0  0  0  0  0  0  0  0  0  0  0
  142.5992   81.0502  224.0876 H   0  0  0  0  0  0  0  0  0  0  0  0
  140.0702   79.3645  223.9595 H   0  0  0  0  0  0  0  0  0  0  0  0
  140.2942   81.0437  224.5745 H   0  0  0  0  0  0  0  0  0  0  0  0
  139.1285   81.1736  222.4807 H   0  0  0  0  0  0  0  0  0  0  0  0
  140.8139   81.7437  222.2178 H   0  0  0  0  0  0  0  0  0  0  0  0
  139.4214   79.3156  221.1936 H   0  0  0  0  0  0  0  0  0  0  0  0
  140.7411   80.2816  220.4655 H   0  0  0  0  0  0  0  0  0  0  0  0
  139.2829   69.9611  222.4316 H   0  0  0  0  0  0  0  0  0  0  0  0
  138.9192   68.4619  224.3818 H   0  0  0  0  0  0  0  0  0  0  0  0
  139.1653   68.0335  226.6761 H   0  0  0  0  0  0  0  0  0  0  0  0
  141.1226   70.9092  229.2163 H   0  0  0  0  0  0  0  0  0  0  0  0
  141.4725   72.3853  227.2449 H   0  0  0  0  0  0  0  0  0  0  0  0
  1  2  2  0
  2  3  1  0
  3  4  1  0
  4  5  1  0
  5  6  2  0
  5  7  1  0
  7  8  1  0
  8  9  1  0
  9 10  1  0
  9 11  1  0
 11 12  1  0
 11 13  1  0
 13 14  1  0
 14 15  1  0
 15 16  1  0
 16 17  1  0
 17 18  1  0
 18 19  1  0
  2 20  1  0
 20 21  2  0
 21 22  1  0
 22 23  2  0
 23 24  1  0
 24 25  2  0
 25 26  1  0
 25 27  1  0
 27 28  2  0
 28 29  1  0
 29 30  2  0
 13  7  1  0
 19 14  1  0
 30 20  1  0
 29 23  1  0
  3 31  1  0
  4 32  1  0
  4 33  1  0
  8 34  1  0
  8 35  1  0
  9 36  1  6
 10 37  1  0
 11 38  1  1
 12 39  1  0
 13 40  1  6
 14 41  1  0
 15 42  1  0
 15 43  1  0
 16 44  1  0
 16 45  1  0
 17 46  1  0
 17 47  1  0
 18 48  1  0
 18 49  1  0
 19 50  1  0
 19 51  1  0
 21 52  1  0
 22 53  1  0
 24 54  1  0
 27 55  1  0
 28 56  1  0
M  END
>  <smiles>  (15) 
O=C(NCC(=O)N1C[C@H](O)[C@H](O)[C@H]1C1CCCCC1)c1ccc2cc(F)ccc2n1

>  <score_type>  (15) 
oracle

>  <origin>  (15) 
autodockgpu

>  <m_score__min__energy>  (15) 
-8.8900000000000006

>  <m_primary>  (15) 
energy

>  <rmsd>  (15) 
2.406937554208346

>  <m_score__min__rmsd>  (15) 
2.406937554208346

>  <meeko>  (15) 
{"free_energy": -8.57, "intermolecular_energy": -10.66, "internal_energy": -3.07, "cluster_size": 38, "cluster_id": 1, "rank_in_cluster": 12}

>  <energy>  (15) 
-8.4

>  <cluster_rmsd>  (15) 
0.71

>  <cluster>  (15) 
1

$$$$

     RDKit          3D

 56 59  0  0  0  0  0  0  0  0999 V2000
  140.9110   71.5790  221.2560 O   0  0  0  0  0  0  0  0  0  0  0  0
  140.4020   72.0410  222.3100 C   0  0  0  0  0  0  0  0  0  0  0  0
  139.9660   73.3970  222.3040 N   0  0  0  0  0  0  0  0  0  0  0  0
  140.1720   74.1170  221.0120 C   0  0  0  0  0  0  0  0  0  0  0  0
  140.0870   75.5630  221.2500 C   0  0  0  0  0  0  0  0  0  0  0  0
  139.7090   75.8840  222.4530 O   0  0  0  0  0  0  0  0  0  0  0  0
  140.3460   76.6380  220.4100 N   0  0  0  0  0  0  0  0  0  0  0  0
  140.0560   76.4770  218.9280 C   0  0  0  0  0  0  0  0  0  0  0  0
  139.1500   77.6780  218.7450 C   0  0  2  0  0  0  0  0  0  0  0  0
  139.3700   78.2130  217.4670 O   0  0  0  0  0  0  0  0  0  0  0  0
  139.5920   78.6820  219.8250 C   0  0  2  0  0  0  0  0  0  0  0  0
  139.9530   79.8580  219.1790 O   0  0  0  0  0  0  0  0  0  0  0  0
  140.7940   77.9800  220.4410 C   0  0  1  0  0  0  0  0  0  0  0  0
  141.2740   78.5150  221.7140 C   0  0  0  0  0  0  0  0  0  0  0  0
  142.0200   79.8100  221.4980 C   0  0  0  0  0  0  0  0  0  0  0  0
  142.8590   80.0880  222.7180 C   0  0  0  0  0  0  0  0  0  0  0  0
  142.1510   79.4840  223.9200 C   0  0  0  0  0  0  0  0  0  0  0  0
  140.6680   79.6730  223.7990 C   0  0  0  0  0  0  0  0  0  0  0  0
  140.1340   78.8220  222.6760 C   0  0  0  0  0  0  0  0  0  0  0  0
  140.2450   71.2500  223.5310 C   0  0  0  0  0  0  0  0  0  0  0  0
  139.5920   70.0260  223.4030 C   0  0  0  0  0  0  0  0  0  0  0  0
  139.3980   69.2150  224.4970 C   0  0  0  0  0  0  0  0  0  0  0  0
  139.8680   69.6540  225.7180 C   0  0  0  0  0  0  0  0  0  0  0  0
  139.6690   68.8330  226.8120 C   0  0  0  0  0  0  0  0  0  0  0  0
  140.1240   69.2430  228.0340 C   0  0  0  0  0  0  0  0  0  0  0  0
  139.9610   68.4920  229.1330 F   0  0  0  0  0  0  0  0  0  0  0  0
  140.7770   70.4650  228.1750 C   0  0  0  0  0  0  0  0  0  0  0  0
  140.9570   71.2610  227.0470 C   0  0  0  0  0  0  0  0  0  0  0  0
  140.5080   70.8730  225.7980 C   0  0  0  0  0  0  0  0  0  0  0  0
  140.7000   71.6700  224.7290 N   0  0  0  0  0  0  0  0  0  0  0  0
  139.5360   73.8770  223.1130 H   0  0  0  0  0  0  0  0  0  0  0  0
  141.1633   73.8681  220.6054 H   0  0  0  0  0  0  0  0  0  0  0  0
  139.3987   73.8137  220.2909 H   0  0  0  0  0  0  0  0  0  0  0  0
  140.9679   76.5487  218.3170 H   0  0  0  0  0  0  0  0  0  0  0  0
  139.6316   75.5079  218.6267 H   0  0  0  0  0  0  0  0  0  0  0  0
  138.0820   77.4308  218.8359 H   0  0  0  0  0  0  0  0  0  0  0  0
  140.2350   78.6840  217.3930 H   0  0  0  0  0  0  0  0  0  0  0  0
  138.8367   78.9465  220.5797 H   0  0  0  0  0  0  0  0  0  0  0  0
  139.4480   79.8730  218.3250 H   0  0  0  0  0  0  0  0  0  0  0  0
  141.7406   78.1275  219.9004 H   0  0  0  0  0  0  0  0  0  0  0  0
  141.9262   77.7393  222.1416 H   0  0  0  0  0  0  0  0  0  0  0  0
  142.6686   79.7215  220.6140 H   0  0  0  0  0  0  0  0  0  0  0  0
  141.3078   80.6324  221.3351 H   0  0  0  0  0  0  0  0  0  0  0  0
  143.8524   79.6304  222.6006 H   0  0  0  0  0  0  0  0  0  0  0  0
  142.9889   81.1717  222.8547 H   0  0  0  0  0  0  0  0  0  0  0  0
  142.3769   78.4087  223.9718 H   0  0  0  0  0  0  0  0  0  0  0  0
  142.5028   79.9870  224.8328 H   0  0  0  0  0  0  0  0  0  0  0  0
  140.1843   79.3784  224.7420 H   0  0  0  0  0  0  0  0  0  0  0  0
  140.4532   80.7307  223.5864 H   0  0  0  0  0  0  0  0  0  0  0  0
  139.7294   77.8834  223.0825 H   0  0  0  0  0  0  0  0  0  0  0  0
  139.3310   79.3574  222.1482 H   0  0  0  0  0  0  0  0  0  0  0  0
  139.2275   69.7046  222.4162 H   0  0  0  0  0  0  0  0  0  0  0  0
  138.8844   68.2470  224.4016 H   0  0  0  0  0  0  0  0  0  0  0  0
  139.1539   67.8674  226.7013 H   0  0  0  0  0  0  0  0  0  0  0  0
  141.1434   70.7948  229.1584 H   0  0  0  0  0  0  0  0  0  0  0  0
  141.4718   72.2274  227.1525 H   0  0  0  0  0  0  0  0  0  0  0  0
  1  2  2  0
  2  3  1  0
  3  4  1  0
  4  5  1  0
  5  6  2  0
  5  7  1  0
  7  8  1  0
  8  9  1  0
  9 10  1  0
  9 11  1  0
 11 12  1  0
 11 13  1  0
 13 14  1  0
 14 15  1  0
 15 16  1  0
 16 17  1  0
 17 18  1  0
 18 19  1  0
  2 20  1  0
 20 21  2  0
 21 22  1  0
 22 23  2  0
 23 24  1  0
 24 25  2  0
 25 26  1  0
 25 27  1  0
 27 28  2  0
 28 29  1  0
 29 30  2  0
 13  7  1  0
 19 14  1  0
 30 20  1  0
 29 23  1  0
  3 31  1  0
  4 32  1  0
  4 33  1  0
  8 34  1  0
  8 35  1  0
  9 36  1  1
 10 37  1  0
 11 38  1  1
 12 39  1  0
 13 40  1  6
 14 41  1  0
 15 42  1  0
 15 43  1  0
 16 44  1  0
 16 45  1  0
 17 46  1  0
 17 47  1  0
 18 48  1  0
 18 49  1  0
 19 50  1  0
 19 51  1  0
 21 52  1  0
 22 53  1  0
 24 54  1  0
 27 55  1  0
 28 56  1  0
M  END
>  <smiles>  (16) 
O=C(NCC(=O)N1C[C@H](O)[C@H](O)[C@H]1C1CCCCC1)c1ccc2cc(F)ccc2n1

>  <score_type>  (16) 
oracle

>  <origin>  (16) 
autodockgpu

>  <m_score__min__energy>  (16) 
-8.8900000000000006

>  <m_primary>  (16) 
energy

>  <rmsd>  (16) 
2.274565528552063

>  <m_score__min__rmsd>  (16) 
2.274565528552063

>  <meeko>  (16) 
{"free_energy": -7.57, "intermolecular_energy": -9.66, "internal_energy": -3.38, "cluster_size": 38, "cluster_id": 1, "rank_in_cluster": 32}

>  <energy>  (16) 
-8.4

>  <cluster_rmsd>  (16) 
0.38

>  <cluster>  (16) 
1

$$$$

     RDKit          3D

 56 59  0  0  0  0  0  0  0  0999 V2000
  139.5760   71.1050  221.1290 O   0  0  0  0  0  0  0  0  0  0  0  0
  139.6360   71.6530  222.2610 C   0  0  0  0  0  0  0  0  0  0  0  0
  139.5890   73.0740  222.3190 N   0  0  0  0  0  0  0  0  0  0  0  0
  139.4720   73.7540  220.9940 C   0  0  0  0  0  0  0  0  0  0  0  0
  140.5780   74.7070  220.8440 C   0  0  0  0  0  0  0  0  0  0  0  0
  141.0630   75.1430  221.9700 O   0  0  0  0  0  0  0  0  0  0  0  0
  141.1920   75.2130  219.7060 N   0  0  0  0  0  0  0  0  0  0  0  0
  140.4750   76.3030  218.9290 C   0  0  0  0  0  0  0  0  0  0  0  0
  141.5820   77.3390  218.9240 C   0  0  2  0  0  0  0  0  0  0  0  0
  141.5320   78.0400  217.7090 O   0  0  0  0  0  0  0  0  0  0  0  0
  142.8890   76.5310  219.0170 C   0  0  2  0  0  0  0  0  0  0  0  0
  143.6630   76.8600  217.9110 O   0  0  0  0  0  0  0  0  0  0  0  0
  142.3830   75.0970  218.9500 C   0  0  1  0  0  0  0  0  0  0  0  0
  143.3360   74.0550  219.3270 C   0  0  0  0  0  0  0  0  0  0  0  0
  144.2050   74.5200  220.4700 C   0  0  0  0  0  0  0  0  0  0  0  0
  145.4260   73.6410  220.5310 C   0  0  0  0  0  0  0  0  0  0  0  0
  145.0390   72.2650  220.0140 C   0  0  0  0  0  0  0  0  0  0  0  0
  143.6590   71.9040  220.4790 C   0  0  0  0  0  0  0  0  0  0  0  0
  142.6430   72.7820  219.7940 C   0  0  0  0  0  0  0  0  0  0  0  0
  139.7510   70.8940  223.5070 C   0  0  0  0  0  0  0  0  0  0  0  0
  139.2350   69.6000  223.5020 C   0  0  0  0  0  0  0  0  0  0  0  0
  139.2980   68.8130  224.6290 C   0  0  0  0  0  0  0  0  0  0  0  0
  139.8870   69.3480  225.7570 C   0  0  0  0  0  0  0  0  0  0  0  0
  139.9470   68.5500  226.8840 C   0  0  0  0  0  0  0  0  0  0  0  0
  140.5230   69.0530  228.0170 C   0  0  0  0  0  0  0  0  0  0  0  0
  140.6110   68.3290  229.1420 F   0  0  0  0  0  0  0  0  0  0  0  0
  141.0420   70.3450  228.0340 C   0  0  0  0  0  0  0  0  0  0  0  0
  140.9620   71.1150  226.8770 C   0  0  0  0  0  0  0  0  0  0  0  0
  140.3840   70.6330  225.7160 C   0  0  0  0  0  0  0  0  0  0  0  0
  140.3230   71.4060  224.6150 N   0  0  0  0  0  0  0  0  0  0  0  0
  139.6310   73.6260  223.1930 H   0  0  0  0  0  0  0  0  0  0  0  0
  139.5197   73.0048  220.1900 H   0  0  0  0  0  0  0  0  0  0  0  0
  138.5121   74.2880  220.9350 H   0  0  0  0  0  0  0  0  0  0  0  0
  140.2056   75.9791  217.9129 H   0  0  0  0  0  0  0  0  0  0  0  0
  139.5126   76.6337  219.3466 H   0  0  0  0  0  0  0  0  0  0  0  0
  141.4967   78.0653  219.7457 H   0  0  0  0  0  0  0  0  0  0  0  0
  142.4150   78.3770  217.4240 H   0  0  0  0  0  0  0  0  0  0  0  0
  143.5075   76.7097  219.9089 H   0  0  0  0  0  0  0  0  0  0  0  0
  143.0970   76.6900  217.1150 H   0  0  0  0  0  0  0  0  0  0  0  0
  142.2088   74.7182  217.9321 H   0  0  0  0  0  0  0  0  0  0  0  0
  143.9306   73.8479  218.4250 H   0  0  0  0  0  0  0  0  0  0  0  0
  144.5078   75.5645  220.3047 H   0  0  0  0  0  0  0  0  0  0  0  0
  143.6479   74.4570  221.4164 H   0  0  0  0  0  0  0  0  0  0  0  0
  146.2234   74.0652  219.9032 H   0  0  0  0  0  0  0  0  0  0  0  0
  145.7960   73.5713  221.5646 H   0  0  0  0  0  0  0  0  0  0  0  0
  145.0616   72.2709  218.9143 H   0  0  0  0  0  0  0  0  0  0  0  0
  145.7529   71.5231  220.4013 H   0  0  0  0  0  0  0  0  0  0  0  0
  143.4553   70.8509  220.2349 H   0  0  0  0  0  0  0  0  0  0  0  0
  143.5921   72.0521  221.5669 H   0  0  0  0  0  0  0  0  0  0  0  0
  142.2191   72.2521  218.9283 H   0  0  0  0  0  0  0  0  0  0  0  0
  141.8305   73.0313  220.4924 H   0  0  0  0  0  0  0  0  0  0  0  0
  138.7719   69.2028  222.5867 H   0  0  0  0  0  0  0  0  0  0  0  0
  138.8921   67.7906  224.6310 H   0  0  0  0  0  0  0  0  0  0  0  0
  139.5387   67.5287  226.8694 H   0  0  0  0  0  0  0  0  0  0  0  0
  141.5068   70.7499  228.9451 H   0  0  0  0  0  0  0  0  0  0  0  0
  141.3702   72.1364  226.8861 H   0  0  0  0  0  0  0  0  0  0  0  0
  1  2  2  0
  2  3  1  0
  3  4  1  0
  4  5  1  0
  5  6  2  0
  5  7  1  0
  7  8  1  0
  8  9  1  0
  9 10  1  0
  9 11  1  0
 11 12  1  0
 11 13  1  0
 13 14  1  0
 14 15  1  0
 15 16  1  0
 16 17  1  0
 17 18  1  0
 18 19  1  0
  2 20  1  0
 20 21  2  0
 21 22  1  0
 22 23  2  0
 23 24  1  0
 24 25  2  0
 25 26  1  0
 25 27  1  0
 27 28  2  0
 28 29  1  0
 29 30  2  0
 13  7  1  0
 19 14  1  0
 30 20  1  0
 29 23  1  0
  3 31  1  0
  4 32  1  0
  4 33  1  0
  8 34  1  0
  8 35  1  0
  9 36  1  1
 10 37  1  0
 11 38  1  1
 12 39  1  0
 13 40  1  6
 14 41  1  0
 15 42  1  0
 15 43  1  0
 16 44  1  0
 16 45  1  0
 17 46  1  0
 17 47  1  0
 18 48  1  0
 18 49  1  0
 19 50  1  0
 19 51  1  0
 21 52  1  0
 22 53  1  0
 24 54  1  0
 27 55  1  0
 28 56  1  0
M  END
>  <smiles>  (17) 
O=C(NCC(=O)N1C[C@H](O)[C@H](O)[C@H]1C1CCCCC1)c1ccc2cc(F)ccc2n1

>  <score_type>  (17) 
oracle

>  <origin>  (17) 
autodockgpu

>  <m_score__min__energy>  (17) 
-8.8900000000000006

>  <m_primary>  (17) 
energy

>  <rmsd>  (17) 
1.8688183903512077

>  <m_score__min__rmsd>  (17) 
1.8688183903512077

>  <meeko>  (17) 
{"free_energy": -7.34, "intermolecular_energy": -9.43, "internal_energy": -3.46, "cluster_size": 38, "cluster_id": 1, "rank_in_cluster": 36}

>  <energy>  (17) 
-8.39

>  <cluster_rmsd>  (17) 
0.72

>  <cluster>  (17) 
1

$$$$

     RDKit          3D

 56 59  0  0  0  0  0  0  0  0999 V2000
  140.8330   71.8490  221.2240 O   0  0  0  0  0  0  0  0  0  0  0  0
  140.3680   72.3070  222.3000 C   0  0  0  0  0  0  0  0  0  0  0  0
  139.9580   73.6700  222.3260 N   0  0  0  0  0  0  0  0  0  0  0  0
  140.1350   74.4040  221.0370 C   0  0  0  0  0  0  0  0  0  0  0  0
  140.5860   75.7720  221.3220 C   0  0  0  0  0  0  0  0  0  0  0  0
  140.0040   76.3220  222.3470 O   0  0  0  0  0  0  0  0  0  0  0  0
  141.5270   76.5680  220.6840 N   0  0  0  0  0  0  0  0  0  0  0  0
  142.4610   75.9130  219.6810 C   0  0  0  0  0  0  0  0  0  0  0  0
  142.1810   76.8110  218.4940 C   0  0  2  0  0  0  0  0  0  0  0  0
  143.3670   76.9630  217.7590 O   0  0  0  0  0  0  0  0  0  0  0  0
  141.7560   78.1600  219.1020 C   0  0  2  0  0  0  0  0  0  0  0  0
  142.6260   79.1290  218.6160 O   0  0  0  0  0  0  0  0  0  0  0  0
  141.9530   77.9150  220.5910 C   0  0  1  0  0  0  0  0  0  0  0  0
  141.3450   78.8910  221.4940 C   0  0  0  0  0  0  0  0  0  0  0  0
  141.8210   78.6700  222.9100 C   0  0  0  0  0  0  0  0  0  0  0  0
  140.8690   79.3670  223.8480 C   0  0  0  0  0  0  0  0  0  0  0  0
  140.2930   80.5700  223.1210 C   0  0  0  0  0  0  0  0  0  0  0  0
  141.3490   81.2240  222.2780 C   0  0  0  0  0  0  0  0  0  0  0  0
  141.7140   80.3220  221.1270 C   0  0  0  0  0  0  0  0  0  0  0  0
  140.2360   71.5030  223.5160 C   0  0  0  0  0  0  0  0  0  0  0  0
  139.5960   70.2720  223.3840 C   0  0  0  0  0  0  0  0  0  0  0  0
  139.4250   69.4480  224.4730 C   0  0  0  0  0  0  0  0  0  0  0  0
  139.9070   69.8820  225.6920 C   0  0  0  0  0  0  0  0  0  0  0  0
  139.7310   69.0480  226.7810 C   0  0  0  0  0  0  0  0  0  0  0  0
  140.1970   69.4520  228.0010 C   0  0  0  0  0  0  0  0  0  0  0  0
  140.0570   68.6890  229.0940 F   0  0  0  0  0  0  0  0  0  0  0  0
  140.8370   70.6800  228.1450 C   0  0  0  0  0  0  0  0  0  0  0  0
  140.9940   71.4890  227.0230 C   0  0  0  0  0  0  0  0  0  0  0  0
  140.5330   71.1080  225.7750 C   0  0  0  0  0  0  0  0  0  0  0  0
  140.7010   71.9160  224.7110 N   0  0  0  0  0  0  0  0  0  0  0  0
  139.5640   74.1470  223.1550 H   0  0  0  0  0  0  0  0  0  0  0  0
  140.8863   73.8893  220.4200 H   0  0  0  0  0  0  0  0  0  0  0  0
  139.1793   74.4342  220.4931 H   0  0  0  0  0  0  0  0  0  0  0  0
  143.5126   75.9632  219.9998 H   0  0  0  0  0  0  0  0  0  0  0  0
  142.3039   74.8372  219.5137 H   0  0  0  0  0  0  0  0  0  0  0  0
  141.4080   76.4094  217.8223 H   0  0  0  0  0  0  0  0  0  0  0  0
  143.4150   77.8270  217.2840 H   0  0  0  0  0  0  0  0  0  0  0  0
  140.7347   78.4968  218.8705 H   0  0  0  0  0  0  0  0  0  0  0  0
  143.5430   78.7890  218.7840 H   0  0  0  0  0  0  0  0  0  0  0  0
  142.9820   78.0644  220.9499 H   0  0  0  0  0  0  0  0  0  0  0  0
  140.2576   78.7504  221.4057 H   0  0  0  0  0  0  0  0  0  0  0  0
  141.8386   77.5927  223.1318 H   0  0  0  0  0  0  0  0  0  0  0  0
  142.8365   79.0743  223.0340 H   0  0  0  0  0  0  0  0  0  0  0  0
  140.0586   78.6810  224.1356 H   0  0  0  0  0  0  0  0  0  0  0  0
  141.3950   79.6864  224.7597 H   0  0  0  0  0  0  0  0  0  0  0  0
  139.4651   80.2417  222.4754 H   0  0  0  0  0  0  0  0  0  0  0  0
  139.9275   81.2952  223.8629 H   0  0  0  0  0  0  0  0  0  0  0  0
  140.9653   82.1779  221.8871 H   0  0  0  0  0  0  0  0  0  0  0  0
  142.2424   81.4081  222.8928 H   0  0  0  0  0  0  0  0  0  0  0  0
  141.1608   80.6279  220.2268 H   0  0  0  0  0  0  0  0  0  0  0  0
  142.7928   80.3911  220.9234 H   0  0  0  0  0  0  0  0  0  0  0  0
  139.2234   69.9555  222.3986 H   0  0  0  0  0  0  0  0  0  0  0  0
  138.9207   68.4753  224.3755 H   0  0  0  0  0  0  0  0  0  0  0  0
  139.2255   68.0776  226.6676 H   0  0  0  0  0  0  0  0  0  0  0  0
  141.2116   71.0049  229.1269 H   0  0  0  0  0  0  0  0  0  0  0  0
  141.4995   72.4599  227.1316 H   0  0  0  0  0  0  0  0  0  0  0  0
  1  2  2  0
  2  3  1  0
  3  4  1  0
  4  5  1  0
  5  6  2  0
  5  7  1  0
  7  8  1  0
  8  9  1  0
  9 10  1  0
  9 11  1  0
 11 12  1  0
 11 13  1  0
 13 14  1  0
 14 15  1  0
 15 16  1  0
 16 17  1  0
 17 18  1  0
 18 19  1  0
  2 20  1  0
 20 21  2  0
 21 22  1  0
 22 23  2  0
 23 24  1  0
 24 25  2  0
 25 26  1  0
 25 27  1  0
 27 28  2  0
 28 29  1  0
 29 30  2  0
 13  7  1  0
 19 14  1  0
 30 20  1  0
 29 23  1  0
  3 31  1  0
  4 32  1  0
  4 33  1  0
  8 34  1  0
  8 35  1  0
  9 36  1  6
 10 37  1  0
 11 38  1  1
 12 39  1  0
 13 40  1  6
 14 41  1  0
 15 42  1  0
 15 43  1  0
 16 44  1  0
 16 45  1  0
 17 46  1  0
 17 47  1  0
 18 48  1  0
 18 49  1  0
 19 50  1  0
 19 51  1  0
 21 52  1  0
 22 53  1  0
 24 54  1  0
 27 55  1  0
 28 56  1  0
M  END
>  <smiles>  (18) 
O=C(NCC(=O)N1C[C@H](O)[C@H](O)[C@H]1C1CCCCC1)c1ccc2cc(F)ccc2n1

>  <score_type>  (18) 
oracle

>  <origin>  (18) 
autodockgpu

>  <m_score__min__energy>  (18) 
-8.8900000000000006

>  <m_primary>  (18) 
energy

>  <rmsd>  (18) 
2.3146737171549905

>  <m_score__min__rmsd>  (18) 
2.3146737171549905

>  <meeko>  (18) 
{"free_energy": -8.68, "intermolecular_energy": -10.77, "internal_energy": -3.15, "cluster_size": 38, "cluster_id": 1, "rank_in_cluster": 7}

>  <energy>  (18) 
-8.38

>  <cluster_rmsd>  (18) 
0.53

>  <cluster>  (18) 
1

$$$$

     RDKit          3D

 56 59  0  0  0  0  0  0  0  0999 V2000
  140.9760   71.9020  221.3070 O   0  0  0  0  0  0  0  0  0  0  0  0
  140.4160   72.3350  222.3470 C   0  0  0  0  0  0  0  0  0  0  0  0
  139.9490   73.6800  222.3450 N   0  0  0  0  0  0  0  0  0  0  0  0
  140.1880   74.4260  221.0730 C   0  0  0  0  0  0  0  0  0  0  0  0
  140.7060   75.7630  221.3910 C   0  0  0  0  0  0  0  0  0  0  0  0
  140.2460   76.2620  222.5010 O   0  0  0  0  0  0  0  0  0  0  0  0
  141.6030   76.5740  220.7100 N   0  0  0  0  0  0  0  0  0  0  0  0
  142.5150   75.9300  219.6800 C   0  0  0  0  0  0  0  0  0  0  0  0
  142.1680   76.8070  218.4940 C   0  0  2  0  0  0  0  0  0  0  0  0
  143.3220   76.9790  217.7130 O   0  0  0  0  0  0  0  0  0  0  0  0
  141.7330   78.1520  219.1020 C   0  0  2  0  0  0  0  0  0  0  0  0
  142.5610   79.1360  218.5740 O   0  0  0  0  0  0  0  0  0  0  0  0
  141.9920   77.9300  220.5860 C   0  0  1  0  0  0  0  0  0  0  0  0
  141.3940   78.9010  221.5010 C   0  0  0  0  0  0  0  0  0  0  0  0
  139.8870   78.8340  221.4340 C   0  0  0  0  0  0  0  0  0  0  0  0
  139.3260   80.1030  222.0210 C   0  0  0  0  0  0  0  0  0  0  0  0
  140.2990   80.6010  223.0770 C   0  0  0  0  0  0  0  0  0  0  0  0
  140.8710   79.4440  223.8430 C   0  0  0  0  0  0  0  0  0  0  0  0
  141.7800   78.6400  222.9500 C   0  0  0  0  0  0  0  0  0  0  0  0
  140.2290   71.5210  223.5490 C   0  0  0  0  0  0  0  0  0  0  0  0
  139.5580   70.3100  223.3850 C   0  0  0  0  0  0  0  0  0  0  0  0
  139.3360   69.4800  224.4590 C   0  0  0  0  0  0  0  0  0  0  0  0
  139.7980   69.8850  225.6950 C   0  0  0  0  0  0  0  0  0  0  0  0
  139.5700   69.0430  226.7690 C   0  0  0  0  0  0  0  0  0  0  0  0
  140.0160   69.4190  228.0050 C   0  0  0  0  0  0  0  0  0  0  0  0
  139.8260   68.6470  229.0840 F   0  0  0  0  0  0  0  0  0  0  0  0
  140.6870   70.6260  228.1800 C   0  0  0  0  0  0  0  0  0  0  0  0
  140.8960   71.4440  227.0730 C   0  0  0  0  0  0  0  0  0  0  0  0
  140.4560   71.0900  225.8090 C   0  0  0  0  0  0  0  0  0  0  0  0
  140.6760   71.9060  224.7610 N   0  0  0  0  0  0  0  0  0  0  0  0
  139.4760   74.1370  223.1430 H   0  0  0  0  0  0  0  0  0  0  0  0
  140.9219   73.8828  220.4595 H   0  0  0  0  0  0  0  0  0  0  0  0
  139.2453   74.5168  220.5135 H   0  0  0  0  0  0  0  0  0  0  0  0
  143.5762   76.0100  219.9583 H   0  0  0  0  0  0  0  0  0  0  0  0
  142.3789   74.8487  219.5308 H   0  0  0  0  0  0  0  0  0  0  0  0
  141.3803   76.3786  217.8568 H   0  0  0  0  0  0  0  0  0  0  0  0
  143.3730   77.8720  217.2960 H   0  0  0  0  0  0  0  0  0  0  0  0
  140.6958   78.4607  218.9045 H   0  0  0  0  0  0  0  0  0  0  0  0
  143.4910   78.8470  218.7600 H   0  0  0  0  0  0  0  0  0  0  0  0
  143.0298   78.1094  220.9035 H   0  0  0  0  0  0  0  0  0  0  0  0
  141.7693   79.8857  221.1857 H   0  0  0  0  0  0  0  0  0  0  0  0
  139.5660   78.7361  220.3864 H   0  0  0  0  0  0  0  0  0  0  0  0
  139.5227   77.9637  221.9995 H   0  0  0  0  0  0  0  0  0  0  0  0
  139.2113   80.8607  221.2319 H   0  0  0  0  0  0  0  0  0  0  0  0
  138.3393   79.9138  222.4688 H   0  0  0  0  0  0  0  0  0  0  0  0
  141.1157   81.1517  222.5874 H   0  0  0  0  0  0  0  0  0  0  0  0
  139.7639   81.2629  223.7739 H   0  0  0  0  0  0  0  0  0  0  0  0
  141.4444   79.8225  224.7020 H   0  0  0  0  0  0  0  0  0  0  0  0
  140.0509   78.8027  224.1983 H   0  0  0  0  0  0  0  0  0  0  0  0
  142.8244   78.9430  223.1154 H   0  0  0  0  0  0  0  0  0  0  0  0
  141.6789   77.5687  223.1783 H   0  0  0  0  0  0  0  0  0  0  0  0
  139.2025   70.0154  222.3866 H   0  0  0  0  0  0  0  0  0  0  0  0
  138.8068   68.5234  224.3368 H   0  0  0  0  0  0  0  0  0  0  0  0
  139.0399   68.0891  226.6307 H   0  0  0  0  0  0  0  0  0  0  0  0
  141.0457   70.9281  229.1750 H   0  0  0  0  0  0  0  0  0  0  0  0
  141.4258   72.3987  227.2065 H   0  0  0  0  0  0  0  0  0  0  0  0
  1  2  2  0
  2  3  1  0
  3  4  1  0
  4  5  1  0
  5  6  2  0
  5  7  1  0
  7  8  1  0
  8  9  1  0
  9 10  1  0
  9 11  1  0
 11 12  1  0
 11 13  1  0
 13 14  1  0
 14 15  1  0
 15 16  1  0
 16 17  1  0
 17 18  1  0
 18 19  1  0
  2 20  1  0
 20 21  2  0
 21 22  1  0
 22 23  2  0
 23 24  1  0
 24 25  2  0
 25 26  1  0
 25 27  1  0
 27 28  2  0
 28 29  1  0
 29 30  2  0
 13  7  1  0
 19 14  1  0
 30 20  1  0
 29 23  1  0
  3 31  1  0
  4 32  1  0
  4 33  1  0
  8 34  1  0
  8 35  1  0
  9 36  1  6
 10 37  1  0
 11 38  1  1
 12 39  1  0
 13 40  1  6
 14 41  1  0
 15 42  1  0
 15 43  1  0
 16 44  1  0
 16 45  1  0
 17 46  1  0
 17 47  1  0
 18 48  1  0
 18 49  1  0
 19 50  1  0
 19 51  1  0
 21 52  1  0
 22 53  1  0
 24 54  1  0
 27 55  1  0
 28 56  1  0
M  END
>  <smiles>  (19) 
O=C(NCC(=O)N1C[C@H](O)[C@H](O)[C@H]1C1CCCCC1)c1ccc2cc(F)ccc2n1

>  <score_type>  (19) 
oracle

>  <origin>  (19) 
autodockgpu

>  <m_score__min__energy>  (19) 
-8.8900000000000006

>  <m_primary>  (19) 
energy

>  <rmsd>  (19) 
2.368602879555091

>  <m_score__min__rmsd>  (19) 
2.368602879555091

>  <meeko>  (19) 
{"free_energy": -8.29, "intermolecular_energy": -10.38, "internal_energy": -3.11, "cluster_size": 38, "cluster_id": 1, "rank_in_cluster": 20}

>  <energy>  (19) 
-8.37

>  <cluster_rmsd>  (19) 
1.29

>  <cluster>  (19) 
1

$$$$

     RDKit          3D

 56 59  0  0  0  0  0  0  0  0999 V2000
  138.4680   70.9450  221.7470 O   0  0  0  0  0  0  0  0  0  0  0  0
  139.0620   71.4160  222.7520 C   0  0  0  0  0  0  0  0  0  0  0  0
  139.4430   72.7870  222.7240 N   0  0  0  0  0  0  0  0  0  0  0  0
  139.0780   73.5150  221.4710 C   0  0  0  0  0  0  0  0  0  0  0  0
  139.6600   74.8620  221.5110 C   0  0  0  0  0  0  0  0  0  0  0  0
  140.6510   74.9890  222.3440 O   0  0  0  0  0  0  0  0  0  0  0  0
  139.3320   76.0130  220.8080 N   0  0  0  0  0  0  0  0  0  0  0  0
  138.5930   75.8640  219.4900 C   0  0  0  0  0  0  0  0  0  0  0  0
  137.4110   76.7620  219.7930 C   0  0  2  0  0  0  0  0  0  0  0  0
  137.0300   77.4130  218.6090 O   0  0  0  0  0  0  0  0  0  0  0  0
  137.9350   77.7850  220.8170 C   0  0  2  0  0  0  0  0  0  0  0  0
  137.7410   79.0510  220.2780 O   0  0  0  0  0  0  0  0  0  0  0  0
  139.4110   77.4240  220.9020 C   0  0  1  0  0  0  0  0  0  0  0  0
  140.1550   77.9970  222.0220 C   0  0  0  0  0  0  0  0  0  0  0  0
  141.2420   78.9170  221.5200 C   0  0  0  0  0  0  0  0  0  0  0  0
  142.2400   79.1260  222.6290 C   0  0  0  0  0  0  0  0  0  0  0  0
  141.5000   79.0160  223.9520 C   0  0  0  0  0  0  0  0  0  0  0  0
  140.1450   79.6510  223.8430 C   0  0  0  0  0  0  0  0  0  0  0  0
  139.2660   78.8290  222.9370 C   0  0  0  0  0  0  0  0  0  0  0  0
  139.3770   70.6160  223.9370 C   0  0  0  0  0  0  0  0  0  0  0  0
  139.0390   69.2650  223.8880 C   0  0  0  0  0  0  0  0  0  0  0  0
  139.2960   68.4370  224.9560 C   0  0  0  0  0  0  0  0  0  0  0  0
  139.8960   68.9870  226.0700 C   0  0  0  0  0  0  0  0  0  0  0  0
  140.1510   68.1480  227.1380 C   0  0  0  0  0  0  0  0  0  0  0  0
  140.7440   68.6650  228.2550 C   0  0  0  0  0  0  0  0  0  0  0  0
  141.0170   67.9030  229.3240 F   0  0  0  0  0  0  0  0  0  0  0  0
  141.0860   70.0140  228.3170 C   0  0  0  0  0  0  0  0  0  0  0  0
  140.8120   70.8250  227.2190 C   0  0  0  0  0  0  0  0  0  0  0  0
  140.2130   70.3290  226.0740 C   0  0  0  0  0  0  0  0  0  0  0  0
  139.9620   71.1430  225.0310 N   0  0  0  0  0  0  0  0  0  0  0  0
  139.9340   73.2750  223.4920 H   0  0  0  0  0  0  0  0  0  0  0  0
  139.4711   72.9696  220.6003 H   0  0  0  0  0  0  0  0  0  0  0  0
  137.9834   73.5866  221.3896 H   0  0  0  0  0  0  0  0  0  0  0  0
  139.1852   76.2313  218.6389 H   0  0  0  0  0  0  0  0  0  0  0  0
  138.3468   74.8336  219.1941 H   0  0  0  0  0  0  0  0  0  0  0  0
  136.5403   76.2129  220.1808 H   0  0  0  0  0  0  0  0  0  0  0  0
  137.5030   78.2690  218.4730 H   0  0  0  0  0  0  0  0  0  0  0  0
  137.4500   77.7758  221.8043 H   0  0  0  0  0  0  0  0  0  0  0  0
  136.8050   79.0750  219.9530 H   0  0  0  0  0  0  0  0  0  0  0  0
  140.0399   77.8708  220.1179 H   0  0  0  0  0  0  0  0  0  0  0  0
  140.5714   77.1442  222.5782 H   0  0  0  0  0  0  0  0  0  0  0  0
  141.7416   78.4623  220.6519 H   0  0  0  0  0  0  0  0  0  0  0  0
  140.8092   79.8813  221.2152 H   0  0  0  0  0  0  0  0  0  0  0  0
  143.0249   78.3572  222.5750 H   0  0  0  0  0  0  0  0  0  0  0  0
  142.7135   80.1146  222.5364 H   0  0  0  0  0  0  0  0  0  0  0  0
  141.3835   77.9545  224.2158 H   0  0  0  0  0  0  0  0  0  0  0  0
  142.0780   79.5356  224.7304 H   0  0  0  0  0  0  0  0  0  0  0  0
  139.6874   79.7083  224.8417 H   0  0  0  0  0  0  0  0  0  0  0  0
  140.2514   80.6628  223.4247 H   0  0  0  0  0  0  0  0  0  0  0  0
  138.6302   78.1645  223.5405 H   0  0  0  0  0  0  0  0  0  0  0  0
  138.6225   79.4894  222.3371 H   0  0  0  0  0  0  0  0  0  0  0  0
  138.5614   68.8562  222.9854 H   0  0  0  0  0  0  0  0  0  0  0  0
  139.0314   67.3698  224.9229 H   0  0  0  0  0  0  0  0  0  0  0  0
  139.8813   67.0827  227.0897 H   0  0  0  0  0  0  0  0  0  0  0  0
  141.5634   70.4305  229.2162 H   0  0  0  0  0  0  0  0  0  0  0  0
  141.0794   71.8911  227.2627 H   0  0  0  0  0  0  0  0  0  0  0  0
  1  2  2  0
  2  3  1  0
  3  4  1  0
  4  5  1  0
  5  6  2  0
  5  7  1  0
  7  8  1  0
  8  9  1  0
  9 10  1  0
  9 11  1  0
 11 12  1  0
 11 13  1  0
 13 14  1  0
 14 15  1  0
 15 16  1  0
 16 17  1  0
 17 18  1  0
 18 19  1  0
  2 20  1  0
 20 21  2  0
 21 22  1  0
 22 23  2  0
 23 24  1  0
 24 25  2  0
 25 26  1  0
 25 27  1  0
 27 28  2  0
 28 29  1  0
 29 30  2  0
 13  7  1  0
 19 14  1  0
 30 20  1  0
 29 23  1  0
  3 31  1  0
  4 32  1  0
  4 33  1  0
  8 34  1  0
  8 35  1  0
  9 36  1  1
 10 37  1  0
 11 38  1  1
 12 39  1  0
 13 40  1  6
 14 41  1  0
 15 42  1  0
 15 43  1  0
 16 44  1  0
 16 45  1  0
 17 46  1  0
 17 47  1  0
 18 48  1  0
 18 49  1  0
 19 50  1  0
 19 51  1  0
 21 52  1  0
 22 53  1  0
 24 54  1  0
 27 55  1  0
 28 56  1  0
M  END
>  <smiles>  (20) 
O=C(NCC(=O)N1C[C@H](O)[C@H](O)[C@H]1C1CCCCC1)c1ccc2cc(F)ccc2n1

>  <score_type>  (20) 
oracle

>  <origin>  (20) 
autodockgpu

>  <m_score__min__energy>  (20) 
-8.8900000000000006

>  <m_primary>  (20) 
energy

>  <rmsd>  (20) 
2.5219050162526107

>  <m_score__min__rmsd>  (20) 
2.5219050162526107

>  <meeko>  (20) 
{"free_energy": -7.21, "intermolecular_energy": -9.3, "internal_energy": -3.49, "cluster_size": 2, "cluster_id": 5, "rank_in_cluster": 1}

>  <energy>  (20) 
-8.29

>  <cluster_rmsd>  (20) 
0.6

>  <cluster>  (20) 
1

$$$$

     RDKit          3D

 56 59  0  0  0  0  0  0  0  0999 V2000
  139.9570   73.3980  222.4080 O   0  0  0  0  0  0  0  0  0  0  0  0
  140.0750   72.1460  222.3790 C   0  0  0  0  0  0  0  0  0  0  0  0
  140.1990   71.5140  221.1090 N   0  0  0  0  0  0  0  0  0  0  0  0
  140.1730   72.4430  219.9400 C   0  0  0  0  0  0  0  0  0  0  0  0
  141.5250   72.5420  219.3750 C   0  0  0  0  0  0  0  0  0  0  0  0
  141.5840   72.3270  218.0940 O   0  0  0  0  0  0  0  0  0  0  0  0
  142.7410   72.8300  219.9790 N   0  0  0  0  0  0  0  0  0  0  0  0
  143.7000   71.6820  220.2440 C   0  0  0  0  0  0  0  0  0  0  0  0
  144.9170   72.2380  219.5300 C   0  0  2  0  0  0  0  0  0  0  0  0
  146.0660   71.8390  220.2310 O   0  0  0  0  0  0  0  0  0  0  0  0
  144.7580   73.7670  219.5970 C   0  0  2  0  0  0  0  0  0  0  0  0
  145.8850   74.2770  220.2290 O   0  0  0  0  0  0  0  0  0  0  0  0
  143.5080   73.9220  220.4520 C   0  0  1  0  0  0  0  0  0  0  0  0
  142.8870   75.2450  220.4590 C   0  0  0  0  0  0  0  0  0  0  0  0
  142.6310   75.7180  219.0480 C   0  0  0  0  0  0  0  0  0  0  0  0
  142.4210   77.2090  219.0750 C   0  0  0  0  0  0  0  0  0  0  0  0
  141.8120   77.5720  220.4190 C   0  0  0  0  0  0  0  0  0  0  0  0
  140.8210   76.5270  220.8400 C   0  0  0  0  0  0  0  0  0  0  0  0
  141.5410   75.2450  221.1710 C   0  0  0  0  0  0  0  0  0  0  0  0
  140.0880   71.3200  223.5870 C   0  0  0  0  0  0  0  0  0  0  0  0
  139.5440   70.0410  223.4760 C   0  0  0  0  0  0  0  0  0  0  0  0
  139.5130   69.1940  224.5600 C   0  0  0  0  0  0  0  0  0  0  0  0
  140.0340   69.6530  225.7520 C   0  0  0  0  0  0  0  0  0  0  0  0
  139.9990   68.7950  226.8360 C   0  0  0  0  0  0  0  0  0  0  0  0
  140.5070   69.2220  228.0310 C   0  0  0  0  0  0  0  0  0  0  0  0
  140.5010   68.4380  229.1180 F   0  0  0  0  0  0  0  0  0  0  0  0
  141.0520   70.4980  228.1540 C   0  0  0  0  0  0  0  0  0  0  0  0
  141.0680   71.3300  227.0380 C   0  0  0  0  0  0  0  0  0  0  0  0
  140.5610   70.9250  225.8160 C   0  0  0  0  0  0  0  0  0  0  0  0
  140.5930   71.7570  224.7570 N   0  0  0  0  0  0  0  0  0  0  0  0
  140.3010   70.4950  220.9700 H   0  0  0  0  0  0  0  0  0  0  0  0
  139.4822   72.0554  219.1767 H   0  0  0  0  0  0  0  0  0  0  0  0
  139.8331   73.4376  220.2644 H   0  0  0  0  0  0  0  0  0  0  0  0
  143.8817   71.5332  221.3186 H   0  0  0  0  0  0  0  0  0  0  0  0
  143.3618   70.6898  219.9106 H   0  0  0  0  0  0  0  0  0  0  0  0
  145.0065   71.8867  218.4914 H   0  0  0  0  0  0  0  0  0  0  0  0
  146.1310   72.2510  221.1260 H   0  0  0  0  0  0  0  0  0  0  0  0
  144.6652   74.2873  218.6323 H   0  0  0  0  0  0  0  0  0  0  0  0
  146.6670   73.9320  219.7260 H   0  0  0  0  0  0  0  0  0  0  0  0
  143.6852   73.8829  221.5369 H   0  0  0  0  0  0  0  0  0  0  0  0
  143.5898   75.9069  220.9863 H   0  0  0  0  0  0  0  0  0  0  0  0
  143.4961   75.4765  218.4129 H   0  0  0  0  0  0  0  0  0  0  0  0
  141.7401   75.2191  218.6389 H   0  0  0  0  0  0  0  0  0  0  0  0
  143.3848   77.7243  218.9503 H   0  0  0  0  0  0  0  0  0  0  0  0
  141.7531   77.5162  218.2568 H   0  0  0  0  0  0  0  0  0  0  0  0
  142.6102   77.6399  221.1728 H   0  0  0  0  0  0  0  0  0  0  0  0
  141.2960   78.5393  220.3289 H   0  0  0  0  0  0  0  0  0  0  0  0
  140.2743   76.8785  221.7275 H   0  0  0  0  0  0  0  0  0  0  0  0
  140.1138   76.3446  220.0174 H   0  0  0  0  0  0  0  0  0  0  0  0
  141.6968   75.1777  222.2578 H   0  0  0  0  0  0  0  0  0  0  0  0
  140.9424   74.3826  220.8424 H   0  0  0  0  0  0  0  0  0  0  0  0
  139.1352   69.7055  222.5115 H   0  0  0  0  0  0  0  0  0  0  0  0
  139.0865   68.1833  224.4787 H   0  0  0  0  0  0  0  0  0  0  0  0
  139.5700   67.7868  226.7383 H   0  0  0  0  0  0  0  0  0  0  0  0
  141.4621   70.8418  229.1151 H   0  0  0  0  0  0  0  0  0  0  0  0
  141.4963   72.3390  227.1304 H   0  0  0  0  0  0  0  0  0  0  0  0
  1  2  2  0
  2  3  1  0
  3  4  1  0
  4  5  1  0
  5  6  2  0
  5  7  1  0
  7  8  1  0
  8  9  1  0
  9 10  1  0
  9 11  1  0
 11 12  1  0
 11 13  1  0
 13 14  1  0
 14 15  1  0
 15 16  1  0
 16 17  1  0
 17 18  1  0
 18 19  1  0
  2 20  1  0
 20 21  2  0
 21 22  1  0
 22 23  2  0
 23 24  1  0
 24 25  2  0
 25 26  1  0
 25 27  1  0
 27 28  2  0
 28 29  1  0
 29 30  2  0
 13  7  1  0
 19 14  1  0
 30 20  1  0
 29 23  1  0
  3 31  1  0
  4 32  1  0
  4 33  1  0
  8 34  1  0
  8 35  1  0
  9 36  1  6
 10 37  1  0
 11 38  1  6
 12 39  1  0
 13 40  1  1
 14 41  1  0
 15 42  1  0
 15 43  1  0
 16 44  1  0
 16 45  1  0
 17 46  1  0
 17 47  1  0
 18 48  1  0
 18 49  1  0
 19 50  1  0
 19 51  1  0
 21 52  1  0
 22 53  1  0
 24 54  1  0
 27 55  1  0
 28 56  1  0
M  END
>  <smiles>  (21) 
O=C(NCC(=O)N1C[C@H](O)[C@H](O)[C@H]1C1CCCCC1)c1ccc2cc(F)ccc2n1

>  <score_type>  (21) 
oracle

>  <origin>  (21) 
autodockgpu

>  <m_score__min__energy>  (21) 
-8.8900000000000006

>  <m_primary>  (21) 
energy

>  <rmsd>  (21) 
3.5225052537083923

>  <m_score__min__rmsd>  (21) 
3.5225052537083923

>  <meeko>  (21) 
{"free_energy": -7.68, "intermolecular_energy": -9.77, "internal_energy": -2.93, "cluster_size": 2, "cluster_id": 2, "rank_in_cluster": 2}

>  <energy>  (21) 
-8.27

>  <cluster_rmsd>  (21) 
0.61

>  <cluster>  (21) 
1

$$$$

     RDKit          3D

 56 59  0  0  0  0  0  0  0  0999 V2000
  141.1280   71.9620  221.3750 O   0  0  0  0  0  0  0  0  0  0  0  0
  140.4720   72.3480  222.3770 C   0  0  0  0  0  0  0  0  0  0  0  0
  139.8920   73.6480  222.3370 N   0  0  0  0  0  0  0  0  0  0  0  0
  140.1420   74.4090  221.0760 C   0  0  0  0  0  0  0  0  0  0  0  0
  140.6160   75.7560  221.4150 C   0  0  0  0  0  0  0  0  0  0  0  0
  140.0780   76.2570  222.4890 O   0  0  0  0  0  0  0  0  0  0  0  0
  141.5420   76.5780  220.7850 N   0  0  0  0  0  0  0  0  0  0  0  0
  142.5070   75.9460  219.7980 C   0  0  0  0  0  0  0  0  0  0  0  0
  142.2160   76.8310  218.6030 C   0  0  2  0  0  0  0  0  0  0  0  0
  143.4060   77.0150  217.8820 O   0  0  0  0  0  0  0  0  0  0  0  0
  141.7430   78.1690  219.1990 C   0  0  2  0  0  0  0  0  0  0  0  0
  142.5900   79.1610  218.7200 O   0  0  0  0  0  0  0  0  0  0  0  0
  141.9280   77.9360  220.6920 C   0  0  1  0  0  0  0  0  0  0  0  0
  141.2800   78.8980  221.5820 C   0  0  0  0  0  0  0  0  0  0  0  0
  139.7800   78.8390  221.4240 C   0  0  0  0  0  0  0  0  0  0  0  0
  139.1890   80.1020  221.9930 C   0  0  0  0  0  0  0  0  0  0  0  0
  140.0980   80.5800  223.1140 C   0  0  0  0  0  0  0  0  0  0  0  0
  140.6170   79.4090  223.8960 C   0  0  0  0  0  0  0  0  0  0  0  0
  141.5760   78.6140  223.0490 C   0  0  0  0  0  0  0  0  0  0  0  0
  140.2840   71.5240  223.5710 C   0  0  0  0  0  0  0  0  0  0  0  0
  139.6030   70.3200  223.3990 C   0  0  0  0  0  0  0  0  0  0  0  0
  139.3790   69.4800  224.4660 C   0  0  0  0  0  0  0  0  0  0  0  0
  139.8490   69.8700  225.7030 C   0  0  0  0  0  0  0  0  0  0  0  0
  139.6200   69.0200  226.7700 C   0  0  0  0  0  0  0  0  0  0  0  0
  140.0730   69.3800  228.0080 C   0  0  0  0  0  0  0  0  0  0  0  0
  139.8810   68.5990  229.0810 F   0  0  0  0  0  0  0  0  0  0  0  0
  140.7530   70.5810  228.1920 C   0  0  0  0  0  0  0  0  0  0  0  0
  140.9640   71.4080  227.0920 C   0  0  0  0  0  0  0  0  0  0  0  0
  140.5170   71.0700  225.8270 C   0  0  0  0  0  0  0  0  0  0  0  0
  140.7380   71.8940  224.7850 N   0  0  0  0  0  0  0  0  0  0  0  0
  139.3350   74.0640  223.1030 H   0  0  0  0  0  0  0  0  0  0  0  0
  140.9048   73.8897  220.4773 H   0  0  0  0  0  0  0  0  0  0  0  0
  139.2111   74.4788  220.4941 H   0  0  0  0  0  0  0  0  0  0  0  0
  143.5525   76.0280  220.1299 H   0  0  0  0  0  0  0  0  0  0  0  0
  142.3836   74.8653  219.6339 H   0  0  0  0  0  0  0  0  0  0  0  0
  141.4640   76.4037  217.9233 H   0  0  0  0  0  0  0  0  0  0  0  0
  143.3660   77.7860  217.2670 H   0  0  0  0  0  0  0  0  0  0  0  0
  140.7153   78.4743  218.9528 H   0  0  0  0  0  0  0  0  0  0  0  0
  143.4930   78.7550  218.6680 H   0  0  0  0  0  0  0  0  0  0  0  0
  142.9470   78.1170  221.0646 H   0  0  0  0  0  0  0  0  0  0  0  0
  141.6779   79.8849  221.3032 H   0  0  0  0  0  0  0  0  0  0  0  0
  139.5223   78.7564  220.3578 H   0  0  0  0  0  0  0  0  0  0  0  0
  139.3794   77.9630  221.9553 H   0  0  0  0  0  0  0  0  0  0  0  0
  139.1261   80.8712  221.2092 H   0  0  0  0  0  0  0  0  0  0  0  0
  138.1756   79.9118  222.3763 H   0  0  0  0  0  0  0  0  0  0  0  0
  140.9454   81.1336  222.6834 H   0  0  0  0  0  0  0  0  0  0  0  0
  139.5243   81.2346  223.7866 H   0  0  0  0  0  0  0  0  0  0  0  0
  141.1378   79.7719  224.7944 H   0  0  0  0  0  0  0  0  0  0  0  0
  139.7740   78.7665  224.1901 H   0  0  0  0  0  0  0  0  0  0  0  0
  142.6094   78.9099  223.2825 H   0  0  0  0  0  0  0  0  0  0  0  0
  141.4575   77.5400  223.2550 H   0  0  0  0  0  0  0  0  0  0  0  0
  139.2406   70.0381  222.3994 H   0  0  0  0  0  0  0  0  0  0  0  0
  138.8425   68.5284  224.3366 H   0  0  0  0  0  0  0  0  0  0  0  0
  139.0828   68.0712  226.6246 H   0  0  0  0  0  0  0  0  0  0  0  0
  141.1170   70.8712  229.1886 H   0  0  0  0  0  0  0  0  0  0  0  0
  141.5015   72.3574  227.2327 H   0  0  0  0  0  0  0  0  0  0  0  0
  1  2  2  0
  2  3  1  0
  3  4  1  0
  4  5  1  0
  5  6  2  0
  5  7  1  0
  7  8  1  0
  8  9  1  0
  9 10  1  0
  9 11  1  0
 11 12  1  0
 11 13  1  0
 13 14  1  0
 14 15  1  0
 15 16  1  0
 16 17  1  0
 17 18  1  0
 18 19  1  0
  2 20  1  0
 20 21  2  0
 21 22  1  0
 22 23  2  0
 23 24  1  0
 24 25  2  0
 25 26  1  0
 25 27  1  0
 27 28  2  0
 28 29  1  0
 29 30  2  0
 13  7  1  0
 19 14  1  0
 30 20  1  0
 29 23  1  0
  3 31  1  0
  4 32  1  0
  4 33  1  0
  8 34  1  0
  8 35  1  0
  9 36  1  6
 10 37  1  0
 11 38  1  1
 12 39  1  0
 13 40  1  6
 14 41  1  0
 15 42  1  0
 15 43  1  0
 16 44  1  0
 16 45  1  0
 17 46  1  0
 17 47  1  0
 18 48  1  0
 18 49  1  0
 19 50  1  0
 19 51  1  0
 21 52  1  0
 22 53  1  0
 24 54  1  0
 27 55  1  0
 28 56  1  0
M  END
>  <smiles>  (22) 
O=C(NCC(=O)N1C[C@H](O)[C@H](O)[C@H]1C1CCCCC1)c1ccc2cc(F)ccc2n1

>  <score_type>  (22) 
oracle

>  <origin>  (22) 
autodockgpu

>  <m_score__min__energy>  (22) 
-8.8900000000000006

>  <m_primary>  (22) 
energy

>  <rmsd>  (22) 
2.3871392525892725

>  <m_score__min__rmsd>  (22) 
2.3871392525892725

>  <meeko>  (22) 
{"free_energy": -8.27, "intermolecular_energy": -10.36, "internal_energy": -3.05, "cluster_size": 38, "cluster_id": 1, "rank_in_cluster": 21}

>  <energy>  (22) 
-8.04

>  <cluster_rmsd>  (22) 
1.15

>  <cluster>  (22) 
1

$$$$

     RDKit          3D

 56 59  0  0  0  0  0  0  0  0999 V2000
  139.4010   70.7430  221.4390 O   0  0  0  0  0  0  0  0  0  0  0  0
  139.5410   71.3000  222.5590 C   0  0  0  0  0  0  0  0  0  0  0  0
  139.5650   72.7230  222.6010 N   0  0  0  0  0  0  0  0  0  0  0  0
  139.4170   73.3930  221.2740 C   0  0  0  0  0  0  0  0  0  0  0  0
  140.1510   74.6640  221.2930 C   0  0  0  0  0  0  0  0  0  0  0  0
  140.0000   75.3500  222.3870 O   0  0  0  0  0  0  0  0  0  0  0  0
  140.9790   75.2480  220.3440 N   0  0  0  0  0  0  0  0  0  0  0  0
  140.5650   76.5850  219.7550 C   0  0  0  0  0  0  0  0  0  0  0  0
  141.8270   77.3660  220.0620 C   0  0  2  0  0  0  0  0  0  0  0  0
  142.0490   78.2820  219.0230 O   0  0  0  0  0  0  0  0  0  0  0  0
  142.9510   76.3150  220.0940 C   0  0  2  0  0  0  0  0  0  0  0  0
  143.9010   76.6910  219.1520 O   0  0  0  0  0  0  0  0  0  0  0  0
  142.2150   75.0470  219.6840 C   0  0  1  0  0  0  0  0  0  0  0  0
  142.9190   73.7860  219.9120 C   0  0  0  0  0  0  0  0  0  0  0  0
  143.1230   73.0500  218.6100 C   0  0  0  0  0  0  0  0  0  0  0  0
  143.4290   71.6080  218.9190 C   0  0  0  0  0  0  0  0  0  0  0  0
  144.1370   71.5580  220.2630 C   0  0  0  0  0  0  0  0  0  0  0  0
  145.0810   72.7160  220.3970 C   0  0  0  0  0  0  0  0  0  0  0  0
  144.3020   74.0000  220.5140 C   0  0  0  0  0  0  0  0  0  0  0  0
  139.6800   70.5510  223.8090 C   0  0  0  0  0  0  0  0  0  0  0  0
  139.2010   69.2420  223.8100 C   0  0  0  0  0  0  0  0  0  0  0  0
  139.2890   68.4620  224.9400 C   0  0  0  0  0  0  0  0  0  0  0  0
  139.8640   69.0190  226.0650 C   0  0  0  0  0  0  0  0  0  0  0  0
  139.9480   68.2280  227.1960 C   0  0  0  0  0  0  0  0  0  0  0  0
  140.5120   68.7530  228.3250 C   0  0  0  0  0  0  0  0  0  0  0  0
  140.6220   68.0370  229.4530 F   0  0  0  0  0  0  0  0  0  0  0  0
  140.9930   70.0590  228.3360 C   0  0  0  0  0  0  0  0  0  0  0  0
  140.8890   70.8220  227.1750 C   0  0  0  0  0  0  0  0  0  0  0  0
  140.3240   70.3180  226.0180 C   0  0  0  0  0  0  0  0  0  0  0  0
  140.2390   71.0840  224.9130 N   0  0  0  0  0  0  0  0  0  0  0  0
  139.6760   73.2810  223.4640 H   0  0  0  0  0  0  0  0  0  0  0  0
  139.8256   72.7435  220.4858 H   0  0  0  0  0  0  0  0  0  0  0  0
  138.3526   73.5828  221.0714 H   0  0  0  0  0  0  0  0  0  0  0  0
  140.3707   76.5195  218.6743 H   0  0  0  0  0  0  0  0  0  0  0  0
  139.6311   77.0121  220.1492 H   0  0  0  0  0  0  0  0  0  0  0  0
  141.7698   77.9249  221.0077 H   0  0  0  0  0  0  0  0  0  0  0  0
  142.9740   78.6270  219.0080 H   0  0  0  0  0  0  0  0  0  0  0  0
  143.4763   76.1956  221.0531 H   0  0  0  0  0  0  0  0  0  0  0  0
  144.0830   77.6530  219.3100 H   0  0  0  0  0  0  0  0  0  0  0  0
  142.1032   74.9100  218.5983 H   0  0  0  0  0  0  0  0  0  0  0  0
  142.2917   73.2102  220.6084 H   0  0  0  0  0  0  0  0  0  0  0  0
  142.2092   73.1131  218.0010 H   0  0  0  0  0  0  0  0  0  0  0  0
  143.9553   73.5001  218.0490 H   0  0  0  0  0  0  0  0  0  0  0  0
  142.4945   71.0297  218.9672 H   0  0  0  0  0  0  0  0  0  0  0  0
  144.0663   71.1749  218.1340 H   0  0  0  0  0  0  0  0  0  0  0  0
  143.3897   71.6038  221.0689 H   0  0  0  0  0  0  0  0  0  0  0  0
  144.7083   70.6205  220.3320 H   0  0  0  0  0  0  0  0  0  0  0  0
  145.6990   72.5808  221.2969 H   0  0  0  0  0  0  0  0  0  0  0  0
  145.7260   72.7629  219.5072 H   0  0  0  0  0  0  0  0  0  0  0  0
  144.2057   74.2798  221.5735 H   0  0  0  0  0  0  0  0  0  0  0  0
  144.8243   74.8065  219.9785 H   0  0  0  0  0  0  0  0  0  0  0  0
  138.7476   68.8280  222.8973 H   0  0  0  0  0  0  0  0  0  0  0  0
  138.9134   67.4281  224.9470 H   0  0  0  0  0  0  0  0  0  0  0  0
  139.5681   67.1957  227.1873 H   0  0  0  0  0  0  0  0  0  0  0  0
  141.4469   70.4810  229.2447 H   0  0  0  0  0  0  0  0  0  0  0  0
  141.2672   71.8549  227.1789 H   0  0  0  0  0  0  0  0  0  0  0  0
  1  2  2  0
  2  3  1  0
  3  4  1  0
  4  5  1  0
  5  6  2  0
  5  7  1  0
  7  8  1  0
  8  9  1  0
  9 10  1  0
  9 11  1  0
 11 12  1  0
 11 13  1  0
 13 14  1  0
 14 15  1  0
 15 16  1  0
 16 17  1  0
 17 18  1  0
 18 19  1  0
  2 20  1  0
 20 21  2  0
 21 22  1  0
 22 23  2  0
 23 24  1  0
 24 25  2  0
 25 26  1  0
 25 27  1  0
 27 28  2  0
 28 29  1  0
 29 30  2  0
 13  7  1  0
 19 14  1  0
 30 20  1  0
 29 23  1  0
  3 31  1  0
  4 32  1  0
  4 33  1  0
  8 34  1  0
  8 35  1  0
  9 36  1  1
 10 37  1  0
 11 38  1  1
 12 39  1  0
 13 40  1  6
 14 41  1  0
 15 42  1  0
 15 43  1  0
 16 44  1  0
 16 45  1  0
 17 46  1  0
 17 47  1  0
 18 48  1  0
 18 49  1  0
 19 50  1  0
 19 51  1  0
 21 52  1  0
 22 53  1  0
 24 54  1  0
 27 55  1  0
 28 56  1  0
M  END
>  <smiles>  (23) 
O=C(NCC(=O)N1C[C@H](O)[C@H](O)[C@H]1C1CCCCC1)c1ccc2cc(F)ccc2n1

>  <score_type>  (23) 
oracle

>  <origin>  (23) 
autodockgpu

>  <m_score__min__energy>  (23) 
-8.8900000000000006

>  <m_primary>  (23) 
energy

>  <rmsd>  (23) 
2.2262766321469325

>  <m_score__min__rmsd>  (23) 
2.2262766321469325

>  <meeko>  (23) 
{"free_energy": -7.83, "intermolecular_energy": -9.92, "internal_energy": -3.36, "cluster_size": 38, "cluster_id": 1, "rank_in_cluster": 25}

>  <energy>  (23) 
-8.0

>  <cluster_rmsd>  (23) 
1.52

>  <cluster>  (23) 
1

$$$$

     RDKit          3D

 56 59  0  0  0  0  0  0  0  0999 V2000
  141.0650   71.9330  221.3490 O   0  0  0  0  0  0  0  0  0  0  0  0
  140.4410   72.3300  222.3670 C   0  0  0  0  0  0  0  0  0  0  0  0
  139.8770   73.6380  222.3390 N   0  0  0  0  0  0  0  0  0  0  0  0
  140.1050   74.3920  221.0690 C   0  0  0  0  0  0  0  0  0  0  0  0
  140.5420   75.7560  221.3930 C   0  0  0  0  0  0  0  0  0  0  0  0
  139.9570   76.2690  222.4360 O   0  0  0  0  0  0  0  0  0  0  0  0
  141.4730   76.5810  220.7770 N   0  0  0  0  0  0  0  0  0  0  0  0
  142.3190   75.9980  219.6590 C   0  0  0  0  0  0  0  0  0  0  0  0
  142.0030   77.0180  218.5840 C   0  0  2  0  0  0  0  0  0  0  0  0
  143.1480   77.2040  217.7940 O   0  0  0  0  0  0  0  0  0  0  0  0
  141.6680   78.3130  219.3460 C   0  0  2  0  0  0  0  0  0  0  0  0
  142.5440   79.2970  218.9020 O   0  0  0  0  0  0  0  0  0  0  0  0
  141.9440   77.9150  220.7890 C   0  0  1  0  0  0  0  0  0  0  0  0
  141.4300   78.8160  221.8190 C   0  0  0  0  0  0  0  0  0  0  0  0
  142.5670   79.4890  222.5500 C   0  0  0  0  0  0  0  0  0  0  0  0
  142.0410   80.0380  223.8500 C   0  0  0  0  0  0  0  0  0  0  0  0
  140.5780   80.3960  223.6500 C   0  0  0  0  0  0  0  0  0  0  0  0
  140.3690   80.9870  222.2870 C   0  0  0  0  0  0  0  0  0  0  0  0
  140.5670   79.9270  221.2340 C   0  0  0  0  0  0  0  0  0  0  0  0
  140.2730   71.5110  223.5680 C   0  0  0  0  0  0  0  0  0  0  0  0
  139.5990   70.3010  223.4110 C   0  0  0  0  0  0  0  0  0  0  0  0
  139.3940   69.4660  224.4850 C   0  0  0  0  0  0  0  0  0  0  0  0
  139.8760   69.8670  225.7150 C   0  0  0  0  0  0  0  0  0  0  0  0
  139.6660   69.0220  226.7890 C   0  0  0  0  0  0  0  0  0  0  0  0
  140.1310   69.3930  228.0200 C   0  0  0  0  0  0  0  0  0  0  0  0
  139.9580   68.6170  229.0990 F   0  0  0  0  0  0  0  0  0  0  0  0
  140.8050   70.5990  228.1890 C   0  0  0  0  0  0  0  0  0  0  0  0
  140.9950   71.4210  227.0810 C   0  0  0  0  0  0  0  0  0  0  0  0
  140.5360   71.0720  225.8240 C   0  0  0  0  0  0  0  0  0  0  0  0
  140.7380   71.8930  224.7750 N   0  0  0  0  0  0  0  0  0  0  0  0
  139.3470   74.0630  223.1170 H   0  0  0  0  0  0  0  0  0  0  0  0
  140.8815   73.8875  220.4752 H   0  0  0  0  0  0  0  0  0  0  0  0
  139.1722   74.4296  220.4873 H   0  0  0  0  0  0  0  0  0  0  0  0
  143.3890   75.9822  219.9138 H   0  0  0  0  0  0  0  0  0  0  0  0
  142.1109   74.9496  219.3991 H   0  0  0  0  0  0  0  0  0  0  0  0
  141.1765   76.7101  217.9267 H   0  0  0  0  0  0  0  0  0  0  0  0
  143.1950   78.1050  217.3930 H   0  0  0  0  0  0  0  0  0  0  0  0
  140.6485   78.7042  219.2136 H   0  0  0  0  0  0  0  0  0  0  0  0
  143.4530   78.9070  218.9620 H   0  0  0  0  0  0  0  0  0  0  0  0
  142.9975   77.9942  221.0955 H   0  0  0  0  0  0  0  0  0  0  0  0
  140.8280   78.1912  222.4952 H   0  0  0  0  0  0  0  0  0  0  0  0
  143.3633   78.7574  222.7514 H   0  0  0  0  0  0  0  0  0  0  0  0
  142.9798   80.3034  221.9365 H   0  0  0  0  0  0  0  0  0  0  0  0
  142.1350   79.2794  224.6410 H   0  0  0  0  0  0  0  0  0  0  0  0
  142.6148   80.9274  224.1496 H   0  0  0  0  0  0  0  0  0  0  0  0
  139.9652   79.4880  223.7498 H   0  0  0  0  0  0  0  0  0  0  0  0
  140.2830   81.1347  224.4097 H   0  0  0  0  0  0  0  0  0  0  0  0
  139.3466   81.3863  222.2152 H   0  0  0  0  0  0  0  0  0  0  0  0
  141.0959   81.7971  222.1275 H   0  0  0  0  0  0  0  0  0  0  0  0
  139.5916   79.5183  220.9316 H   0  0  0  0  0  0  0  0  0  0  0  0
  141.0603   80.3611  220.3519 H   0  0  0  0  0  0  0  0  0  0  0  0
  139.2269   70.0106  222.4174 H   0  0  0  0  0  0  0  0  0  0  0  0
  138.8632   68.5097  224.3675 H   0  0  0  0  0  0  0  0  0  0  0  0
  139.1343   68.0683  226.6554 H   0  0  0  0  0  0  0  0  0  0  0  0
  141.1805   70.8972  229.1790 H   0  0  0  0  0  0  0  0  0  0  0  0
  141.5257   72.3759  227.2094 H   0  0  0  0  0  0  0  0  0  0  0  0
  1  2  2  0
  2  3  1  0
  3  4  1  0
  4  5  1  0
  5  6  2  0
  5  7  1  0
  7  8  1  0
  8  9  1  0
  9 10  1  0
  9 11  1  0
 11 12  1  0
 11 13  1  0
 13 14  1  0
 14 15  1  0
 15 16  1  0
 16 17  1  0
 17 18  1  0
 18 19  1  0
  2 20  1  0
 20 21  2  0
 21 22  1  0
 22 23  2  0
 23 24  1  0
 24 25  2  0
 25 26  1  0
 25 27  1  0
 27 28  2  0
 28 29  1  0
 29 30  2  0
 13  7  1  0
 19 14  1  0
 30 20  1  0
 29 23  1  0
  3 31  1  0
  4 32  1  0
  4 33  1  0
  8 34  1  0
  8 35  1  0
  9 36  1  6
 10 37  1  0
 11 38  1  1
 12 39  1  0
 13 40  1  6
 14 41  1  0
 15 42  1  0
 15 43  1  0
 16 44  1  0
 16 45  1  0
 17 46  1  0
 17 47  1  0
 18 48  1  0
 18 49  1  0
 19 50  1  0
 19 51  1  0
 21 52  1  0
 22 53  1  0
 24 54  1  0
 27 55  1  0
 28 56  1  0
M  END
>  <smiles>  (24) 
O=C(NCC(=O)N1C[C@H](O)[C@H](O)[C@H]1C1CCCCC1)c1ccc2cc(F)ccc2n1

>  <score_type>  (24) 
oracle

>  <origin>  (24) 
autodockgpu

>  <m_score__min__energy>  (24) 
-8.8900000000000006

>  <m_primary>  (24) 
energy

>  <rmsd>  (24) 
2.3924644770629544

>  <m_score__min__rmsd>  (24) 
2.3924644770629544

>  <meeko>  (24) 
{"free_energy": -8.68, "intermolecular_energy": -10.76, "internal_energy": -3.13, "cluster_size": 38, "cluster_id": 1, "rank_in_cluster": 8}

>  <energy>  (24) 
-7.86

>  <cluster_rmsd>  (24) 
1.05

>  <cluster>  (24) 
1

$$$$

     RDKit          3D

 56 59  0  0  0  0  0  0  0  0999 V2000
  140.0630   70.6760  221.3360 O   0  0  0  0  0  0  0  0  0  0  0  0
  139.8730   71.2440  222.4430 C   0  0  0  0  0  0  0  0  0  0  0  0
  139.6330   72.6470  222.4430 N   0  0  0  0  0  0  0  0  0  0  0  0
  139.6360   73.2850  221.0920 C   0  0  0  0  0  0  0  0  0  0  0  0
  140.4160   74.5270  221.1490 C   0  0  0  0  0  0  0  0  0  0  0  0
  140.4840   75.0600  222.3340 O   0  0  0  0  0  0  0  0  0  0  0  0
  141.0920   75.2200  220.1540 N   0  0  0  0  0  0  0  0  0  0  0  0
  140.4680   76.4970  219.6180 C   0  0  0  0  0  0  0  0  0  0  0  0
  141.6370   77.4320  219.8490 C   0  0  2  0  0  0  0  0  0  0  0  0
  141.6660   78.3770  218.8120 O   0  0  0  0  0  0  0  0  0  0  0  0
  142.8870   76.5360  219.7860 C   0  0  2  0  0  0  0  0  0  0  0  0
  143.7110   77.0390  218.7870 O   0  0  0  0  0  0  0  0  0  0  0  0
  142.2940   75.1870  219.4070 C   0  0  1  0  0  0  0  0  0  0  0  0
  143.1690   74.0260  219.5660 C   0  0  0  0  0  0  0  0  0  0  0  0
  143.9830   74.1460  220.8320 C   0  0  0  0  0  0  0  0  0  0  0  0
  145.1530   73.2020  220.7390 C   0  0  0  0  0  0  0  0  0  0  0  0
  144.7340   72.0200  219.8800 C   0  0  0  0  0  0  0  0  0  0  0  0
  143.3100   71.6460  220.1710 C   0  0  0  0  0  0  0  0  0  0  0  0
  142.3850   72.7250  219.6710 C   0  0  0  0  0  0  0  0  0  0  0  0
  139.8920   70.5270  223.7190 C   0  0  0  0  0  0  0  0  0  0  0  0
  139.2480   69.2910  223.7520 C   0  0  0  0  0  0  0  0  0  0  0  0
  139.2140   68.5470  224.9080 C   0  0  0  0  0  0  0  0  0  0  0  0
  139.8340   69.0640  226.0270 C   0  0  0  0  0  0  0  0  0  0  0  0
  139.7950   68.3100  227.1850 C   0  0  0  0  0  0  0  0  0  0  0  0
  140.4000   68.7970  228.3090 C   0  0  0  0  0  0  0  0  0  0  0  0
  140.3960   68.1130  229.4620 F   0  0  0  0  0  0  0  0  0  0  0  0
  141.0450   70.0310  228.2900 C   0  0  0  0  0  0  0  0  0  0  0  0
  141.0620   70.7590  227.1030 C   0  0  0  0  0  0  0  0  0  0  0  0
  140.4580   70.2910  225.9490 C   0  0  0  0  0  0  0  0  0  0  0  0
  140.4940   71.0230  224.8190 N   0  0  0  0  0  0  0  0  0  0  0  0
  139.4660   73.2130  223.2920 H   0  0  0  0  0  0  0  0  0  0  0  0
  140.0892   72.5987  220.3616 H   0  0  0  0  0  0  0  0  0  0  0  0
  138.6036   73.5096  220.7860 H   0  0  0  0  0  0  0  0  0  0  0  0
  140.2069   76.4152  218.5526 H   0  0  0  0  0  0  0  0  0  0  0  0
  139.5175   76.7964  220.0838 H   0  0  0  0  0  0  0  0  0  0  0  0
  141.5745   77.9716  220.8055 H   0  0  0  0  0  0  0  0  0  0  0  0
  142.3790   78.2010  218.1530 H   0  0  0  0  0  0  0  0  0  0  0  0
  143.4898   76.4790  220.7043 H   0  0  0  0  0  0  0  0  0  0  0  0
  143.8000   78.0110  218.9620 H   0  0  0  0  0  0  0  0  0  0  0  0
  142.1249   75.0457  218.3293 H   0  0  0  0  0  0  0  0  0  0  0  0
  143.8109   74.0049  218.6730 H   0  0  0  0  0  0  0  0  0  0  0  0
  144.3469   75.1782  220.9428 H   0  0  0  0  0  0  0  0  0  0  0  0
  143.3627   73.8927  221.7044 H   0  0  0  0  0  0  0  0  0  0  0  0
  146.0102   73.7139  220.2774 H   0  0  0  0  0  0  0  0  0  0  0  0
  145.4497   72.8603  221.7416 H   0  0  0  0  0  0  0  0  0  0  0  0
  144.8286   72.2910  218.8181 H   0  0  0  0  0  0  0  0  0  0  0  0
  145.3839   71.1624  220.1084 H   0  0  0  0  0  0  0  0  0  0  0  0
  143.0713   70.6981  219.6666 H   0  0  0  0  0  0  0  0  0  0  0  0
  143.1799   71.5316  221.2573 H   0  0  0  0  0  0  0  0  0  0  0  0
  141.9927   72.4477  218.6814 H   0  0  0  0  0  0  0  0  0  0  0  0
  141.5417   72.8493  220.3663 H   0  0  0  0  0  0  0  0  0  0  0  0
  138.7617   68.9066  222.8433 H   0  0  0  0  0  0  0  0  0  0  0  0
  138.7085   67.5705  224.9396 H   0  0  0  0  0  0  0  0  0  0  0  0
  139.2858   67.3351  227.2012 H   0  0  0  0  0  0  0  0  0  0  0  0
  141.5317   70.4232  229.1952 H   0  0  0  0  0  0  0  0  0  0  0  0
  141.5702   71.7343  227.0819 H   0  0  0  0  0  0  0  0  0  0  0  0
  1  2  2  0
  2  3  1  0
  3  4  1  0
  4  5  1  0
  5  6  2  0
  5  7  1  0
  7  8  1  0
  8  9  1  0
  9 10  1  0
  9 11  1  0
 11 12  1  0
 11 13  1  0
 13 14  1  0
 14 15  1  0
 15 16  1  0
 16 17  1  0
 17 18  1  0
 18 19  1  0
  2 20  1  0
 20 21  2  0
 21 22  1  0
 22 23  2  0
 23 24  1  0
 24 25  2  0
 25 26  1  0
 25 27  1  0
 27 28  2  0
 28 29  1  0
 29 30  2  0
 13  7  1  0
 19 14  1  0
 30 20  1  0
 29 23  1  0
  3 31  1  0
  4 32  1  0
  4 33  1  0
  8 34  1  0
  8 35  1  0
  9 36  1  1
 10 37  1  0
 11 38  1  1
 12 39  1  0
 13 40  1  6
 14 41  1  0
 15 42  1  0
 15 43  1  0
 16 44  1  0
 16 45  1  0
 17 46  1  0
 17 47  1  0
 18 48  1  0
 18 49  1  0
 19 50  1  0
 19 51  1  0
 21 52  1  0
 22 53  1  0
 24 54  1  0
 27 55  1  0
 28 56  1  0
M  END
>  <smiles>  (25) 
O=C(NCC(=O)N1C[C@H](O)[C@H](O)[C@H]1C1CCCCC1)c1ccc2cc(F)ccc2n1

>  <score_type>  (25) 
oracle

>  <origin>  (25) 
autodockgpu

>  <m_score__min__energy>  (25) 
-8.8900000000000006

>  <m_primary>  (25) 
energy

>  <rmsd>  (25) 
2.15443966807473

>  <m_score__min__rmsd>  (25) 
2.15443966807473

>  <meeko>  (25) 
{"free_energy": -7.7, "intermolecular_energy": -9.79, "internal_energy": -3.49, "cluster_size": 38, "cluster_id": 1, "rank_in_cluster": 29}

>  <energy>  (25) 
-7.83

>  <cluster_rmsd>  (25) 
1.67

>  <cluster>  (25) 
1

$$$$

     RDKit          3D

 56 59  0  0  0  0  0  0  0  0999 V2000
  141.0760   71.9230  221.3930 O   0  0  0  0  0  0  0  0  0  0  0  0
  140.4060   72.3010  222.3890 C   0  0  0  0  0  0  0  0  0  0  0  0
  139.7800   73.5780  222.3310 N   0  0  0  0  0  0  0  0  0  0  0  0
  140.0040   74.3300  221.0590 C   0  0  0  0  0  0  0  0  0  0  0  0
  141.1580   75.2220  221.2260 C   0  0  0  0  0  0  0  0  0  0  0  0
  141.1170   75.9500  222.3040 O   0  0  0  0  0  0  0  0  0  0  0  0
  142.2790   75.4150  220.4300 N   0  0  0  0  0  0  0  0  0  0  0  0
  143.3300   74.3190  220.3950 C   0  0  0  0  0  0  0  0  0  0  0  0
  143.3820   74.1060  218.8960 C   0  0  2  0  0  0  0  0  0  0  0  0
  144.7000   73.7910  218.5340 O   0  0  0  0  0  0  0  0  0  0  0  0
  142.9720   75.4570  218.2830 C   0  0  2  0  0  0  0  0  0  0  0  0
  144.0090   75.8730  217.4570 O   0  0  0  0  0  0  0  0  0  0  0  0
  142.8390   76.3400  219.5170 C   0  0  1  0  0  0  0  0  0  0  0  0
  142.1560   77.6180  219.3290 C   0  0  0  0  0  0  0  0  0  0  0  0
  142.7790   78.3890  218.1890 C   0  0  0  0  0  0  0  0  0  0  0  0
  142.3700   79.8340  218.3100 C   0  0  0  0  0  0  0  0  0  0  0  0
  141.0020   79.8790  218.9700 C   0  0  0  0  0  0  0  0  0  0  0  0
  140.1470   78.7510  218.4720 C   0  0  0  0  0  0  0  0  0  0  0  0
  140.6840   77.4390  218.9820 C   0  0  0  0  0  0  0  0  0  0  0  0
  140.2470   71.4870  223.5960 C   0  0  0  0  0  0  0  0  0  0  0  0
  139.5980   70.2630  223.4430 C   0  0  0  0  0  0  0  0  0  0  0  0
  139.4030   69.4320  224.5220 C   0  0  0  0  0  0  0  0  0  0  0  0
  139.8670   69.8510  225.7520 C   0  0  0  0  0  0  0  0  0  0  0  0
  139.6670   69.0090  226.8300 C   0  0  0  0  0  0  0  0  0  0  0  0
  140.1160   69.3980  228.0610 C   0  0  0  0  0  0  0  0  0  0  0  0
  139.9510   68.6270  229.1450 F   0  0  0  0  0  0  0  0  0  0  0  0
  140.7640   70.6190  228.2260 C   0  0  0  0  0  0  0  0  0  0  0  0
  140.9460   71.4370  227.1140 C   0  0  0  0  0  0  0  0  0  0  0  0
  140.5030   71.0700  225.8560 C   0  0  0  0  0  0  0  0  0  0  0  0
  140.6960   71.8860  224.8020 N   0  0  0  0  0  0  0  0  0  0  0  0
  139.2090   73.9860  223.0900 H   0  0  0  0  0  0  0  0  0  0  0  0
  140.2016   73.6209  220.2416 H   0  0  0  0  0  0  0  0  0  0  0  0
  139.1095   74.9223  220.8159 H   0  0  0  0  0  0  0  0  0  0  0  0
  144.2954   74.6574  220.7993 H   0  0  0  0  0  0  0  0  0  0  0  0
  143.1088   73.4255  220.9972 H   0  0  0  0  0  0  0  0  0  0  0  0
  142.7264   73.2915  218.5542 H   0  0  0  0  0  0  0  0  0  0  0  0
  145.1840   74.5570  218.1420 H   0  0  0  0  0  0  0  0  0  0  0  0
  142.0554   75.4557  217.6749 H   0  0  0  0  0  0  0  0  0  0  0  0
  144.8240   75.8930  218.0220 H   0  0  0  0  0  0  0  0  0  0  0  0
  143.7833   76.7766  219.8744 H   0  0  0  0  0  0  0  0  0  0  0  0
  142.2530   78.1565  220.2833 H   0  0  0  0  0  0  0  0  0  0  0  0
  143.8748   78.3078  218.2411 H   0  0  0  0  0  0  0  0  0  0  0  0
  142.4383   77.9800  217.2264 H   0  0  0  0  0  0  0  0  0  0  0  0
  143.1003   80.3787  218.9264 H   0  0  0  0  0  0  0  0  0  0  0  0
  142.3318   80.3057  217.3170 H   0  0  0  0  0  0  0  0  0  0  0  0
  141.1217   79.7900  220.0598 H   0  0  0  0  0  0  0  0  0  0  0  0
  140.5156   80.8338  218.7214 H   0  0  0  0  0  0  0  0  0  0  0  0
  139.1164   78.8880  218.8312 H   0  0  0  0  0  0  0  0  0  0  0  0
  140.1588   78.7450  217.3721 H   0  0  0  0  0  0  0  0  0  0  0  0
  140.1261   77.1342  219.8797 H   0  0  0  0  0  0  0  0  0  0  0  0
  140.5715   76.6621  218.2114 H   0  0  0  0  0  0  0  0  0  0  0  0
  139.2380   69.9583  222.4492 H   0  0  0  0  0  0  0  0  0  0  0  0
  138.8932   68.4640  224.4077 H   0  0  0  0  0  0  0  0  0  0  0  0
  139.1559   68.0437  226.6995 H   0  0  0  0  0  0  0  0  0  0  0  0
  141.1256   70.9318  229.2166 H   0  0  0  0  0  0  0  0  0  0  0  0
  141.4569   72.4031  227.2395 H   0  0  0  0  0  0  0  0  0  0  0  0
  1  2  2  0
  2  3  1  0
  3  4  1  0
  4  5  1  0
  5  6  2  0
  5  7  1  0
  7  8  1  0
  8  9  1  0
  9 10  1  0
  9 11  1  0
 11 12  1  0
 11 13  1  0
 13 14  1  0
 14 15  1  0
 15 16  1  0
 16 17  1  0
 17 18  1  0
 18 19  1  0
  2 20  1  0
 20 21  2  0
 21 22  1  0
 22 23  2  0
 23 24  1  0
 24 25  2  0
 25 26  1  0
 25 27  1  0
 27 28  2  0
 28 29  1  0
 29 30  2  0
 13  7  1  0
 19 14  1  0
 30 20  1  0
 29 23  1  0
  3 31  1  0
  4 32  1  0
  4 33  1  0
  8 34  1  0
  8 35  1  0
  9 36  1  1
 10 37  1  0
 11 38  1  6
 12 39  1  0
 13 40  1  1
 14 41  1  0
 15 42  1  0
 15 43  1  0
 16 44  1  0
 16 45  1  0
 17 46  1  0
 17 47  1  0
 18 48  1  0
 18 49  1  0
 19 50  1  0
 19 51  1  0
 21 52  1  0
 22 53  1  0
 24 54  1  0
 27 55  1  0
 28 56  1  0
M  END
>  <smiles>  (26) 
O=C(NCC(=O)N1C[C@H](O)[C@H](O)[C@H]1C1CCCCC1)c1ccc2cc(F)ccc2n1

>  <score_type>  (26) 
oracle

>  <origin>  (26) 
autodockgpu

>  <m_score__min__energy>  (26) 
-8.8900000000000006

>  <m_primary>  (26) 
energy

>  <rmsd>  (26) 
2.361273030625666

>  <m_score__min__rmsd>  (26) 
2.361273030625666

>  <meeko>  (26) 
{"free_energy": -8.04, "intermolecular_energy": -10.13, "internal_energy": -2.83, "cluster_size": 38, "cluster_id": 1, "rank_in_cluster": 22}

>  <energy>  (26) 
-7.81

>  <cluster_rmsd>  (26) 
1.0

>  <cluster>  (26) 
1

$$$$

     RDKit          3D

 56 59  0  0  0  0  0  0  0  0999 V2000
  141.1500   71.9620  221.3410 O   0  0  0  0  0  0  0  0  0  0  0  0
  140.5170   72.3510  222.3570 C   0  0  0  0  0  0  0  0  0  0  0  0
  139.9590   73.6610  222.3380 N   0  0  0  0  0  0  0  0  0  0  0  0
  140.2010   74.4280  221.0790 C   0  0  0  0  0  0  0  0  0  0  0  0
  140.5510   75.8120  221.4210 C   0  0  0  0  0  0  0  0  0  0  0  0
  139.8880   76.2960  222.4310 O   0  0  0  0  0  0  0  0  0  0  0  0
  141.4700   76.6840  220.8510 N   0  0  0  0  0  0  0  0  0  0  0  0
  142.4140   76.1400  219.7930 C   0  0  0  0  0  0  0  0  0  0  0  0
  142.1060   77.1300  218.6880 C   0  0  2  0  0  0  0  0  0  0  0  0
  143.2840   77.3730  217.9650 O   0  0  0  0  0  0  0  0  0  0  0  0
  141.6510   78.4110  219.4100 C   0  0  2  0  0  0  0  0  0  0  0  0
  142.4950   79.4390  219.0080 O   0  0  0  0  0  0  0  0  0  0  0  0
  141.8620   78.0440  220.8730 C   0  0  1  0  0  0  0  0  0  0  0  0
  141.2350   78.9230  221.8580 C   0  0  0  0  0  0  0  0  0  0  0  0
  142.2760   79.7770  222.5440 C   0  0  0  0  0  0  0  0  0  0  0  0
  141.6840   80.3200  223.8180 C   0  0  0  0  0  0  0  0  0  0  0  0
  140.1860   80.4740  223.6100 C   0  0  0  0  0  0  0  0  0  0  0  0
  139.9020   80.9590  222.2190 C   0  0  0  0  0  0  0  0  0  0  0  0
  140.2350   79.8800  221.2220 C   0  0  0  0  0  0  0  0  0  0  0  0
  140.3340   71.5200  223.5480 C   0  0  0  0  0  0  0  0  0  0  0  0
  139.6650   70.3100  223.3690 C   0  0  0  0  0  0  0  0  0  0  0  0
  139.4470   69.4640  224.4320 C   0  0  0  0  0  0  0  0  0  0  0  0
  139.9100   69.8530  225.6720 C   0  0  0  0  0  0  0  0  0  0  0  0
  139.6870   68.9960  226.7340 C   0  0  0  0  0  0  0  0  0  0  0  0
  140.1330   69.3560  227.9750 C   0  0  0  0  0  0  0  0  0  0  0  0
  139.9470   68.5690  229.0440 F   0  0  0  0  0  0  0  0  0  0  0  0
  140.8020   70.5620  228.1660 C   0  0  0  0  0  0  0  0  0  0  0  0
  141.0060   71.3960  227.0700 C   0  0  0  0  0  0  0  0  0  0  0  0
  140.5660   71.0590  225.8020 C   0  0  0  0  0  0  0  0  0  0  0  0
  140.7810   71.8900  224.7640 N   0  0  0  0  0  0  0  0  0  0  0  0
  139.4220   74.0800  223.1160 H   0  0  0  0  0  0  0  0  0  0  0  0
  141.0278   73.9663  220.5193 H   0  0  0  0  0  0  0  0  0  0  0  0
  139.2934   74.4174  220.4576 H   0  0  0  0  0  0  0  0  0  0  0  0
  143.4658   76.1882  220.1115 H   0  0  0  0  0  0  0  0  0  0  0  0
  142.2820   75.0790  219.5346 H   0  0  0  0  0  0  0  0  0  0  0  0
  141.3393   76.7687  217.9869 H   0  0  0  0  0  0  0  0  0  0  0  0
  143.9350   77.9210  218.4670 H   0  0  0  0  0  0  0  0  0  0  0  0
  140.6208   78.7407  219.2100 H   0  0  0  0  0  0  0  0  0  0  0  0
  142.8600   79.1700  218.1260 H   0  0  0  0  0  0  0  0  0  0  0  0
  142.8888   78.1879  221.2404 H   0  0  0  0  0  0  0  0  0  0  0  0
  140.7196   78.2618  222.5701 H   0  0  0  0  0  0  0  0  0  0  0  0
  143.1616   79.1674  222.7766 H   0  0  0  0  0  0  0  0  0  0  0  0
  142.5781   80.6049  221.8857 H   0  0  0  0  0  0  0  0  0  0  0  0
  141.8763   79.6223  224.6463 H   0  0  0  0  0  0  0  0  0  0  0  0
  142.1375   81.2906  224.0675 H   0  0  0  0  0  0  0  0  0  0  0  0
  139.6963   79.5009  223.7623 H   0  0  0  0  0  0  0  0  0  0  0  0
  139.7975   81.2077  224.3317 H   0  0  0  0  0  0  0  0  0  0  0  0
  138.8364   81.2183  222.1336 H   0  0  0  0  0  0  0  0  0  0  0  0
  140.5183   81.8463  222.0119 H   0  0  0  0  0  0  0  0  0  0  0  0
  139.3207   79.3329  220.9487 H   0  0  0  0  0  0  0  0  0  0  0  0
  140.6672   80.3270  220.3146 H   0  0  0  0  0  0  0  0  0  0  0  0
  139.3077   70.0287  222.3674 H   0  0  0  0  0  0  0  0  0  0  0  0
  138.9202   68.5078  224.2974 H   0  0  0  0  0  0  0  0  0  0  0  0
  139.1604   68.0421  226.5830 H   0  0  0  0  0  0  0  0  0  0  0  0
  141.1627   70.8505  229.1643 H   0  0  0  0  0  0  0  0  0  0  0  0
  141.5323   72.3508  227.2163 H   0  0  0  0  0  0  0  0  0  0  0  0
  1  2  2  0
  2  3  1  0
  3  4  1  0
  4  5  1  0
  5  6  2  0
  5  7  1  0
  7  8  1  0
  8  9  1  0
  9 10  1  0
  9 11  1  0
 11 12  1  0
 11 13  1  0
 13 14  1  0
 14 15  1  0
 15 16  1  0
 16 17  1  0
 17 18  1  0
 18 19  1  0
  2 20  1  0
 20 21  2  0
 21 22  1  0
 22 23  2  0
 23 24  1  0
 24 25  2  0
 25 26  1  0
 25 27  1  0
 27 28  2  0
 28 29  1  0
 29 30  2  0
 13  7  1  0
 19 14  1  0
 30 20  1  0
 29 23  1  0
  3 31  1  0
  4 32  1  0
  4 33  1  0
  8 34  1  0
  8 35  1  0
  9 36  1  6
 10 37  1  0
 11 38  1  1
 12 39  1  0
 13 40  1  1
 14 41  1  0
 15 42  1  0
 15 43  1  0
 16 44  1  0
 16 45  1  0
 17 46  1  0
 17 47  1  0
 18 48  1  0
 18 49  1  0
 19 50  1  0
 19 51  1  0
 21 52  1  0
 22 53  1  0
 24 54  1  0
 27 55  1  0
 28 56  1  0
M  END
>  <smiles>  (27) 
O=C(NCC(=O)N1C[C@H](O)[C@H](O)[C@H]1C1CCCCC1)c1ccc2cc(F)ccc2n1

>  <score_type>  (27) 
oracle

>  <origin>  (27) 
autodockgpu

>  <m_score__min__energy>  (27) 
-8.8900000000000006

>  <m_primary>  (27) 
energy

>  <rmsd>  (27) 
2.4444550464677235

>  <m_score__min__rmsd>  (27) 
2.4444550464677235

>  <meeko>  (27) 
{"free_energy": -8.4, "intermolecular_energy": -10.49, "internal_energy": -3.16, "cluster_size": 38, "cluster_id": 1, "rank_in_cluster": 15}

>  <energy>  (27) 
-7.79

>  <cluster_rmsd>  (27) 
1.65

>  <cluster>  (27) 
1

$$$$

     RDKit          3D

 56 59  0  0  0  0  0  0  0  0999 V2000
  141.7340   73.7320  220.6390 O   0  0  0  0  0  0  0  0  0  0  0  0
  141.0080   74.4730  221.3520 C   0  0  0  0  0  0  0  0  0  0  0  0
  139.9450   73.8690  222.0810 N   0  0  0  0  0  0  0  0  0  0  0  0
  139.8220   72.3900  221.9030 C   0  0  0  0  0  0  0  0  0  0  0  0
  138.6210   71.9210  222.6040 C   0  0  0  0  0  0  0  0  0  0  0  0
  137.6920   72.8230  222.7340 O   0  0  0  0  0  0  0  0  0  0  0  0
  138.3120   70.6790  223.1440 N   0  0  0  0  0  0  0  0  0  0  0  0
  137.4610   69.7300  222.3200 C   0  0  0  0  0  0  0  0  0  0  0  0
  138.3870   68.5300  222.3310 C   0  0  2  0  0  0  0  0  0  0  0  0
  137.6070   67.3640  222.3650 O   0  0  0  0  0  0  0  0  0  0  0  0
  139.1990   68.6630  223.6320 C   0  0  2  0  0  0  0  0  0  0  0  0
  138.9910   67.5070  224.3740 O   0  0  0  0  0  0  0  0  0  0  0  0
  138.5590   69.8800  224.2860 C   0  0  1  0  0  0  0  0  0  0  0  0
  139.2940   70.4800  225.3980 C   0  0  0  0  0  0  0  0  0  0  0  0
  139.6440   69.4320  226.4280 C   0  0  0  0  0  0  0  0  0  0  0  0
  139.9840   70.1280  227.7200 C   0  0  0  0  0  0  0  0  0  0  0  0
  140.5710   71.4880  227.3800 C   0  0  0  0  0  0  0  0  0  0  0  0
  141.4490   71.3860  226.1670 C   0  0  0  0  0  0  0  0  0  0  0  0
  140.6070   71.1070  224.9490 C   0  0  0  0  0  0  0  0  0  0  0  0
  141.2100   75.9190  221.4600 C   0  0  0  0  0  0  0  0  0  0  0  0
  141.6020   76.5830  220.2990 C   0  0  0  0  0  0  0  0  0  0  0  0
  141.8160   77.9420  220.3060 C   0  0  0  0  0  0  0  0  0  0  0  0
  141.6320   78.6190  221.4940 C   0  0  0  0  0  0  0  0  0  0  0  0
  141.8490   79.9840  221.4920 C   0  0  0  0  0  0  0  0  0  0  0  0
  141.6740   80.6810  222.6550 C   0  0  0  0  0  0  0  0  0  0  0  0
  141.8700   82.0060  222.7170 F   0  0  0  0  0  0  0  0  0  0  0  0
  141.2840   80.0280  223.8210 C   0  0  0  0  0  0  0  0  0  0  0  0
  141.0750   78.6510  223.7800 C   0  0  0  0  0  0  0  0  0  0  0  0
  141.2440   77.9200  222.6180 C   0  0  0  0  0  0  0  0  0  0  0  0
  141.0340   76.5900  222.6150 N   0  0  0  0  0  0  0  0  0  0  0  0
  139.2900   74.3820  222.6940 H   0  0  0  0  0  0  0  0  0  0  0  0
  139.7395   72.1533  220.8319 H   0  0  0  0  0  0  0  0  0  0  0  0
  140.7112   71.8914  222.3163 H   0  0  0  0  0  0  0  0  0  0  0  0
  136.4964   69.5135  222.8023 H   0  0  0  0  0  0  0  0  0  0  0  0
  137.1646   70.0954  221.3257 H   0  0  0  0  0  0  0  0  0  0  0  0
  139.0415   68.4817  221.4482 H   0  0  0  0  0  0  0  0  0  0  0  0
  137.2790   67.1480  223.2710 H   0  0  0  0  0  0  0  0  0  0  0  0
  140.2863   68.7811  223.5147 H   0  0  0  0  0  0  0  0  0  0  0  0
  139.1390   66.7480  223.7540 H   0  0  0  0  0  0  0  0  0  0  0  0
  137.6482   69.6663  224.8646 H   0  0  0  0  0  0  0  0  0  0  0  0
  138.6333   71.2540  225.8157 H   0  0  0  0  0  0  0  0  0  0  0  0
  138.7855   68.7617  226.5821 H   0  0  0  0  0  0  0  0  0  0  0  0
  140.5018   68.8359  226.0834 H   0  0  0  0  0  0  0  0  0  0  0  0
  139.0750   70.2547  228.3263 H   0  0  0  0  0  0  0  0  0  0  0  0
  140.7075   69.5325  228.2961 H   0  0  0  0  0  0  0  0  0  0  0  0
  139.7538   72.1962  227.1783 H   0  0  0  0  0  0  0  0  0  0  0  0
  141.1734   71.8412  228.2300 H   0  0  0  0  0  0  0  0  0  0  0  0
  141.9904   72.3333  226.0274 H   0  0  0  0  0  0  0  0  0  0  0  0
  142.1679   70.5653  226.3072 H   0  0  0  0  0  0  0  0  0  0  0  0
  140.4050   72.0473  224.4151 H   0  0  0  0  0  0  0  0  0  0  0  0
  141.1392   70.4207  224.2740 H   0  0  0  0  0  0  0  0  0  0  0  0
  141.7417   76.0147  219.3676 H   0  0  0  0  0  0  0  0  0  0  0  0
  142.1242   78.4723  219.3929 H   0  0  0  0  0  0  0  0  0  0  0  0
  142.1571   80.5004  220.5709 H   0  0  0  0  0  0  0  0  0  0  0  0
  141.1435   80.5885  224.7570 H   0  0  0  0  0  0  0  0  0  0  0  0
  140.7666   78.1301  224.6985 H   0  0  0  0  0  0  0  0  0  0  0  0
  1  2  2  0
  2  3  1  0
  3  4  1  0
  4  5  1  0
  5  6  2  0
  5  7  1  0
  7  8  1  0
  8  9  1  0
  9 10  1  0
  9 11  1  0
 11 12  1  0
 11 13  1  0
 13 14  1  0
 14 15  1  0
 15 16  1  0
 16 17  1  0
 17 18  1  0
 18 19  1  0
  2 20  1  0
 20 21  2  0
 21 22  1  0
 22 23  2  0
 23 24  1  0
 24 25  2  0
 25 26  1  0
 25 27  1  0
 27 28  2  0
 28 29  1  0
 29 30  2  0
 13  7  1  0
 19 14  1  0
 30 20  1  0
 29 23  1  0
  3 31  1  0
  4 32  1  0
  4 33  1  0
  8 34  1  0
  8 35  1  0
  9 36  1  6
 10 37  1  0
 11 38  1  6
 12 39  1  0
 13 40  1  1
 14 41  1  0
 15 42  1  0
 15 43  1  0
 16 44  1  0
 16 45  1  0
 17 46  1  0
 17 47  1  0
 18 48  1  0
 18 49  1  0
 19 50  1  0
 19 51  1  0
 21 52  1  0
 22 53  1  0
 24 54  1  0
 27 55  1  0
 28 56  1  0
M  END
>  <smiles>  (28) 
O=C(NCC(=O)N1C[C@H](O)[C@H](O)[C@H]1C1CCCCC1)c1ccc2cc(F)ccc2n1

>  <score_type>  (28) 
oracle

>  <origin>  (28) 
autodockgpu

>  <m_score__min__energy>  (28) 
-8.8900000000000006

>  <m_primary>  (28) 
energy

>  <rmsd>  (28) 
8.686593668853495

>  <m_score__min__rmsd>  (28) 
8.686593668853495

>  <meeko>  (28) 
{"free_energy": -7.68, "intermolecular_energy": -9.77, "internal_energy": -3.37, "cluster_size": 5, "cluster_id": 3, "rank_in_cluster": 3}

>  <energy>  (28) 
-7.74

>  <cluster_rmsd>  (28) 
1.61

>  <cluster>  (28) 
1

$$$$

     RDKit          3D

 56 59  0  0  0  0  0  0  0  0999 V2000
  141.2470   72.3880  221.6570 O   0  0  0  0  0  0  0  0  0  0  0  0
  140.3290   72.4950  222.5120 C   0  0  0  0  0  0  0  0  0  0  0  0
  139.3820   73.5460  222.3500 N   0  0  0  0  0  0  0  0  0  0  0  0
  139.6040   74.4130  221.1540 C   0  0  0  0  0  0  0  0  0  0  0  0
  140.4110   75.5740  221.5470 C   0  0  0  0  0  0  0  0  0  0  0  0
  140.0840   76.0860  222.6970 O   0  0  0  0  0  0  0  0  0  0  0  0
  141.4620   76.2100  220.8990 N   0  0  0  0  0  0  0  0  0  0  0  0
  142.4380   75.3580  220.1070 C   0  0  0  0  0  0  0  0  0  0  0  0
  142.3340   76.0760  218.7760 C   0  0  2  0  0  0  0  0  0  0  0  0
  143.5920   76.0480  218.1540 O   0  0  0  0  0  0  0  0  0  0  0  0
  141.9490   77.5240  219.1300 C   0  0  2  0  0  0  0  0  0  0  0  0
  142.9270   78.3570  218.6000 O   0  0  0  0  0  0  0  0  0  0  0  0
  141.9870   77.5010  220.6520 C   0  0  1  0  0  0  0  0  0  0  0  0
  141.3670   78.6370  221.3330 C   0  0  0  0  0  0  0  0  0  0  0  0
  142.1090   78.9600  222.6070 C   0  0  0  0  0  0  0  0  0  0  0  0
  141.2160   79.8020  223.4800 C   0  0  0  0  0  0  0  0  0  0  0  0
  140.3050   80.6140  222.5730 C   0  0  0  0  0  0  0  0  0  0  0  0
  141.0590   81.0780  221.3610 C   0  0  0  0  0  0  0  0  0  0  0  0
  141.3880   79.9000  220.4820 C   0  0  0  0  0  0  0  0  0  0  0  0
  140.1970   71.5900  223.6550 C   0  0  0  0  0  0  0  0  0  0  0  0
  139.5250   70.3900  223.4300 C   0  0  0  0  0  0  0  0  0  0  0  0
  139.3530   69.4790  224.4460 C   0  0  0  0  0  0  0  0  0  0  0  0
  139.8650   69.7940  225.6880 C   0  0  0  0  0  0  0  0  0  0  0  0
  139.6880   68.8730  226.7040 C   0  0  0  0  0  0  0  0  0  0  0  0
  140.1840   69.1580  227.9450 C   0  0  0  0  0  0  0  0  0  0  0  0
  140.0440   68.3050  228.9700 F   0  0  0  0  0  0  0  0  0  0  0  0
  140.8560   70.3530  228.1830 C   0  0  0  0  0  0  0  0  0  0  0  0
  141.0140   71.2540  227.1320 C   0  0  0  0  0  0  0  0  0  0  0  0
  140.5220   70.9930  225.8660 C   0  0  0  0  0  0  0  0  0  0  0  0
  140.6930   71.8870  224.8730 N   0  0  0  0  0  0  0  0  0  0  0  0
  138.5910   73.7250  222.9910 H   0  0  0  0  0  0  0  0  0  0  0  0
  140.1340   73.8415  220.3778 H   0  0  0  0  0  0  0  0  0  0  0  0
  138.6359   74.7515  220.7563 H   0  0  0  0  0  0  0  0  0  0  0  0
  143.4559   75.3996  220.5219 H   0  0  0  0  0  0  0  0  0  0  0  0
  142.2228   74.2795  220.0861 H   0  0  0  0  0  0  0  0  0  0  0  0
  141.6017   75.6181  218.0948 H   0  0  0  0  0  0  0  0  0  0  0  0
  144.2480   76.6420  218.5900 H   0  0  0  0  0  0  0  0  0  0  0  0
  140.9804   77.8765  218.7458 H   0  0  0  0  0  0  0  0  0  0  0  0
  143.7900   78.0500  218.9790 H   0  0  0  0  0  0  0  0  0  0  0  0
  142.9855   77.6474  221.0897 H   0  0  0  0  0  0  0  0  0  0  0  0
  140.3275   78.3390  221.5346 H   0  0  0  0  0  0  0  0  0  0  0  0
  142.3690   78.0286  223.1312 H   0  0  0  0  0  0  0  0  0  0  0  0
  143.0345   79.5075  222.3755 H   0  0  0  0  0  0  0  0  0  0  0  0
  140.6124   79.1538  224.1322 H   0  0  0  0  0  0  0  0  0  0  0  0
  141.8189   80.4693  224.1135 H   0  0  0  0  0  0  0  0  0  0  0  0
  139.4572   79.9889  222.2561 H   0  0  0  0  0  0  0  0  0  0  0  0
  139.9389   81.4919  223.1255 H   0  0  0  0  0  0  0  0  0  0  0  0
  140.4406   81.7924  220.7977 H   0  0  0  0  0  0  0  0  0  0  0  0
  141.9924   81.5655  221.6789 H   0  0  0  0  0  0  0  0  0  0  0  0
  140.6415   79.8176  219.6782 H   0  0  0  0  0  0  0  0  0  0  0  0
  142.3830   80.0333  220.0323 H   0  0  0  0  0  0  0  0  0  0  0  0
  139.1276   70.1689  222.4284 H   0  0  0  0  0  0  0  0  0  0  0  0
  138.8243   68.5299  224.2740 H   0  0  0  0  0  0  0  0  0  0  0  0
  139.1574   67.9278  226.5167 H   0  0  0  0  0  0  0  0  0  0  0  0
  141.2550   70.5821  229.1822 H   0  0  0  0  0  0  0  0  0  0  0  0
  141.5452   72.1998  227.3143 H   0  0  0  0  0  0  0  0  0  0  0  0
  1  2  2  0
  2  3  1  0
  3  4  1  0
  4  5  1  0
  5  6  2  0
  5  7  1  0
  7  8  1  0
  8  9  1  0
  9 10  1  0
  9 11  1  0
 11 12  1  0
 11 13  1  0
 13 14  1  0
 14 15  1  0
 15 16  1  0
 16 17  1  0
 17 18  1  0
 18 19  1  0
  2 20  1  0
 20 21  2  0
 21 22  1  0
 22 23  2  0
 23 24  1  0
 24 25  2  0
 25 26  1  0
 25 27  1  0
 27 28  2  0
 28 29  1  0
 29 30  2  0
 13  7  1  0
 19 14  1  0
 30 20  1  0
 29 23  1  0
  3 31  1  0
  4 32  1  0
  4 33  1  0
  8 34  1  0
  8 35  1  0
  9 36  1  6
 10 37  1  0
 11 38  1  1
 12 39  1  0
 13 40  1  6
 14 41  1  0
 15 42  1  0
 15 43  1  0
 16 44  1  0
 16 45  1  0
 17 46  1  0
 17 47  1  0
 18 48  1  0
 18 49  1  0
 19 50  1  0
 19 51  1  0
 21 52  1  0
 22 53  1  0
 24 54  1  0
 27 55  1  0
 28 56  1  0
M  END
>  <smiles>  (29) 
O=C(NCC(=O)N1C[C@H](O)[C@H](O)[C@H]1C1CCCCC1)c1ccc2cc(F)ccc2n1

>  <score_type>  (29) 
oracle

>  <origin>  (29) 
autodockgpu

>  <m_score__min__energy>  (29) 
-8.8900000000000006

>  <m_primary>  (29) 
energy

>  <rmsd>  (29) 
2.22271395473472

>  <m_score__min__rmsd>  (29) 
2.22271395473472

>  <meeko>  (29) 
{"free_energy": -8.8, "intermolecular_energy": -10.89, "internal_energy": -2.79, "cluster_size": 38, "cluster_id": 1, "rank_in_cluster": 2}

>  <energy>  (29) 
-7.7

>  <cluster_rmsd>  (29) 
1.62

>  <cluster>  (29) 
1

$$$$

     RDKit          3D

 56 59  0  0  0  0  0  0  0  0999 V2000
  140.9620   71.7950  221.3040 O   0  0  0  0  0  0  0  0  0  0  0  0
  140.4260   72.2600  222.3440 C   0  0  0  0  0  0  0  0  0  0  0  0
  139.9840   73.6130  222.3220 N   0  0  0  0  0  0  0  0  0  0  0  0
  140.2190   74.3300  221.0320 C   0  0  0  0  0  0  0  0  0  0  0  0
  140.5340   75.7350  221.3140 C   0  0  0  0  0  0  0  0  0  0  0  0
  139.8330   76.2550  222.2790 O   0  0  0  0  0  0  0  0  0  0  0  0
  141.4530   76.5950  220.7290 N   0  0  0  0  0  0  0  0  0  0  0  0
  142.2800   76.0770  219.5650 C   0  0  0  0  0  0  0  0  0  0  0  0
  141.9430   77.1550  218.5540 C   0  0  2  0  0  0  0  0  0  0  0  0
  143.0740   77.3860  217.7550 O   0  0  0  0  0  0  0  0  0  0  0  0
  141.6200   78.4050  219.3920 C   0  0  2  0  0  0  0  0  0  0  0  0
  142.4870   79.4130  218.9880 O   0  0  0  0  0  0  0  0  0  0  0  0
  141.9230   77.9280  220.8060 C   0  0  1  0  0  0  0  0  0  0  0  0
  141.4260   78.7700  221.8930 C   0  0  0  0  0  0  0  0  0  0  0  0
  142.5480   79.5890  222.4840 C   0  0  0  0  0  0  0  0  0  0  0  0
  142.1170   80.0830  223.8400 C   0  0  0  0  0  0  0  0  0  0  0  0
  140.6060   80.2510  223.8180 C   0  0  0  0  0  0  0  0  0  0  0  0
  140.1630   80.7950  222.4910 C   0  0  0  0  0  0  0  0  0  0  0  0
  140.3660   79.7560  221.4200 C   0  0  0  0  0  0  0  0  0  0  0  0
  140.2410   71.4730  223.5640 C   0  0  0  0  0  0  0  0  0  0  0  0
  139.5610   70.2640  223.4310 C   0  0  0  0  0  0  0  0  0  0  0  0
  139.3390   69.4580  224.5240 C   0  0  0  0  0  0  0  0  0  0  0  0
  139.8110   69.8860  225.7480 C   0  0  0  0  0  0  0  0  0  0  0  0
  139.5840   69.0700  226.8400 C   0  0  0  0  0  0  0  0  0  0  0  0
  140.0400   69.4690  228.0660 C   0  0  0  0  0  0  0  0  0  0  0  0
  139.8510   68.7230  229.1630 F   0  0  0  0  0  0  0  0  0  0  0  0
  140.7200   70.6760  228.2110 C   0  0  0  0  0  0  0  0  0  0  0  0
  140.9270   71.4680  227.0850 C   0  0  0  0  0  0  0  0  0  0  0  0
  140.4780   71.0900  225.8320 C   0  0  0  0  0  0  0  0  0  0  0  0
  140.6960   71.8820  224.7650 N   0  0  0  0  0  0  0  0  0  0  0  0
  139.5320   74.0950  223.1170 H   0  0  0  0  0  0  0  0  0  0  0  0
  141.0608   73.8635  220.4994 H   0  0  0  0  0  0  0  0  0  0  0  0
  139.3167   74.2711  220.4056 H   0  0  0  0  0  0  0  0  0  0  0  0
  143.3544   76.0497  219.7994 H   0  0  0  0  0  0  0  0  0  0  0  0
  142.0689   75.0442  219.2509 H   0  0  0  0  0  0  0  0  0  0  0  0
  141.1047   76.8829  217.8958 H   0  0  0  0  0  0  0  0  0  0  0  0
  143.1180   78.3110  217.4120 H   0  0  0  0  0  0  0  0  0  0  0  0
  140.5979   78.8009  219.2995 H   0  0  0  0  0  0  0  0  0  0  0  0
  143.3920   79.0090  218.9640 H   0  0  0  0  0  0  0  0  0  0  0  0
  142.9818   77.9919  221.0972 H   0  0  0  0  0  0  0  0  0  0  0  0
  140.9926   78.0828  222.6346 H   0  0  0  0  0  0  0  0  0  0  0  0
  143.4487   78.9657  222.5853 H   0  0  0  0  0  0  0  0  0  0  0  0
  142.7779   80.4416  221.8281 H   0  0  0  0  0  0  0  0  0  0  0  0
  142.4005   79.3520  224.6115 H   0  0  0  0  0  0  0  0  0  0  0  0
  142.6056   81.0409  224.0718 H   0  0  0  0  0  0  0  0  0  0  0  0
  140.1295   79.2741  223.9874 H   0  0  0  0  0  0  0  0  0  0  0  0
  140.3121   80.9553  224.6102 H   0  0  0  0  0  0  0  0  0  0  0  0
  139.0972   81.0621  222.5433 H   0  0  0  0  0  0  0  0  0  0  0  0
  140.7575   81.6880  222.2479 H   0  0  0  0  0  0  0  0  0  0  0  0
  139.4209   79.2240  221.2362 H   0  0  0  0  0  0  0  0  0  0  0  0
  140.6915   80.2379  220.4863 H   0  0  0  0  0  0  0  0  0  0  0  0
  139.1976   69.9504  222.4412 H   0  0  0  0  0  0  0  0  0  0  0  0
  138.8024   68.5029  224.4251 H   0  0  0  0  0  0  0  0  0  0  0  0
  139.0465   68.1172  226.7252 H   0  0  0  0  0  0  0  0  0  0  0  0
  141.0867   70.9974  229.1970 H   0  0  0  0  0  0  0  0  0  0  0  0
  141.4632   72.4222  227.1946 H   0  0  0  0  0  0  0  0  0  0  0  0
  1  2  2  0
  2  3  1  0
  3  4  1  0
  4  5  1  0
  5  6  2  0
  5  7  1  0
  7  8  1  0
  8  9  1  0
  9 10  1  0
  9 11  1  0
 11 12  1  0
 11 13  1  0
 13 14  1  0
 14 15  1  0
 15 16  1  0
 16 17  1  0
 17 18  1  0
 18 19  1  0
  2 20  1  0
 20 21  2  0
 21 22  1  0
 22 23  2  0
 23 24  1  0
 24 25  2  0
 25 26  1  0
 25 27  1  0
 27 28  2  0
 28 29  1  0
 29 30  2  0
 13  7  1  0
 19 14  1  0
 30 20  1  0
 29 23  1  0
  3 31  1  0
  4 32  1  0
  4 33  1  0
  8 34  1  0
  8 35  1  0
  9 36  1  6
 10 37  1  0
 11 38  1  1
 12 39  1  0
 13 40  1  6
 14 41  1  0
 15 42  1  0
 15 43  1  0
 16 44  1  0
 16 45  1  0
 17 46  1  0
 17 47  1  0
 18 48  1  0
 18 49  1  0
 19 50  1  0
 19 51  1  0
 21 52  1  0
 22 53  1  0
 24 54  1  0
 27 55  1  0
 28 56  1  0
M  END
>  <smiles>  (30) 
O=C(NCC(=O)N1C[C@H](O)[C@H](O)[C@H]1C1CCCCC1)c1ccc2cc(F)ccc2n1

>  <score_type>  (30) 
oracle

>  <origin>  (30) 
autodockgpu

>  <m_score__min__energy>  (30) 
-8.8900000000000006

>  <m_primary>  (30) 
energy

>  <rmsd>  (30) 
2.4178150668027585

>  <m_score__min__rmsd>  (30) 
2.4178150668027585

>  <meeko>  (30) 
{"free_energy": -8.55, "intermolecular_energy": -10.64, "internal_energy": -3.19, "cluster_size": 38, "cluster_id": 1, "rank_in_cluster": 13}

>  <energy>  (30) 
-7.68

>  <cluster_rmsd>  (30) 
1.55

>  <cluster>  (30) 
1

$$$$

     RDKit          3D

 56 59  0  0  0  0  0  0  0  0999 V2000
  141.8260   73.5600  220.7650 O   0  0  0  0  0  0  0  0  0  0  0  0
  141.0450   74.3060  221.4110 C   0  0  0  0  0  0  0  0  0  0  0  0
  139.9820   73.6960  222.1350 N   0  0  0  0  0  0  0  0  0  0  0  0
  139.9260   72.2060  222.0330 C   0  0  0  0  0  0  0  0  0  0  0  0
  138.7130   71.7240  222.7030 C   0  0  0  0  0  0  0  0  0  0  0  0
  137.7510   72.5990  222.7570 O   0  0  0  0  0  0  0  0  0  0  0  0
  138.4220   70.4960  223.2820 N   0  0  0  0  0  0  0  0  0  0  0  0
  137.6200   69.4930  222.4720 C   0  0  0  0  0  0  0  0  0  0  0  0
  138.5770   68.3210  222.5540 C   0  0  2  0  0  0  0  0  0  0  0  0
  137.8280   67.1360  222.6110 O   0  0  0  0  0  0  0  0  0  0  0  0
  139.3490   68.5250  223.8700 C   0  0  2  0  0  0  0  0  0  0  0  0
  139.1510   67.3920  224.6500 O   0  0  0  0  0  0  0  0  0  0  0  0
  138.6580   69.7470  224.4590 C   0  0  1  0  0  0  0  0  0  0  0  0
  139.3450   70.4080  225.5680 C   0  0  0  0  0  0  0  0  0  0  0  0
  139.7280   69.4040  226.6280 C   0  0  0  0  0  0  0  0  0  0  0  0
  140.0130   70.1460  227.9080 C   0  0  0  0  0  0  0  0  0  0  0  0
  140.5400   71.5240  227.5430 C   0  0  0  0  0  0  0  0  0  0  0  0
  141.4420   71.4350  226.3460 C   0  0  0  0  0  0  0  0  0  0  0  0
  140.6350   71.0870  225.1230 C   0  0  0  0  0  0  0  0  0  0  0  0
  141.1840   75.7630  221.4470 C   0  0  0  0  0  0  0  0  0  0  0  0
  141.7990   76.3600  220.3480 C   0  0  0  0  0  0  0  0  0  0  0  0
  141.9730   77.7230  220.2950 C   0  0  0  0  0  0  0  0  0  0  0  0
  141.5220   78.4740  221.3620 C   0  0  0  0  0  0  0  0  0  0  0  0
  141.7010   79.8430  221.3000 C   0  0  0  0  0  0  0  0  0  0  0  0
  141.2640   80.6120  222.3420 C   0  0  0  0  0  0  0  0  0  0  0  0
  141.4090   81.9450  222.3420 F   0  0  0  0  0  0  0  0  0  0  0  0
  140.6490   80.0270  223.4460 C   0  0  0  0  0  0  0  0  0  0  0  0
  140.4880   78.6440  223.4680 C   0  0  0  0  0  0  0  0  0  0  0  0
  140.9200   77.8400  222.4280 C   0  0  0  0  0  0  0  0  0  0  0  0
  140.7470   76.5060  222.4840 N   0  0  0  0  0  0  0  0  0  0  0  0
  139.2850   74.2120  222.6970 H   0  0  0  0  0  0  0  0  0  0  0  0
  139.9041   71.9099  220.9738 H   0  0  0  0  0  0  0  0  0  0  0  0
  140.8134   71.7681  222.5133 H   0  0  0  0  0  0  0  0  0  0  0  0
  136.6484   69.2679  222.9360 H   0  0  0  0  0  0  0  0  0  0  0  0
  137.3419   69.8123  221.4568 H   0  0  0  0  0  0  0  0  0  0  0  0
  139.2572   68.2581  221.6918 H   0  0  0  0  0  0  0  0  0  0  0  0
  138.0550   66.5760  223.3920 H   0  0  0  0  0  0  0  0  0  0  0  0
  140.4357   68.6686  223.7777 H   0  0  0  0  0  0  0  0  0  0  0  0
  139.3550   66.6150  224.0690 H   0  0  0  0  0  0  0  0  0  0  0  0
  137.7368   69.5296  225.0194 H   0  0  0  0  0  0  0  0  0  0  0  0
  138.6408   71.1583  225.9568 H   0  0  0  0  0  0  0  0  0  0  0  0
  138.9005   68.6966  226.7855 H   0  0  0  0  0  0  0  0  0  0  0  0
  140.6193   68.8426  226.3111 H   0  0  0  0  0  0  0  0  0  0  0  0
  139.0891   70.2434  228.4970 H   0  0  0  0  0  0  0  0  0  0  0  0
  140.7542   69.5999  228.5100 H   0  0  0  0  0  0  0  0  0  0  0  0
  139.6933   72.1869  227.3112 H   0  0  0  0  0  0  0  0  0  0  0  0
  141.1109   71.9262  228.3929 H   0  0  0  0  0  0  0  0  0  0  0  0
  141.9400   72.4036  226.1913 H   0  0  0  0  0  0  0  0  0  0  0  0
  142.1965   70.6531  226.5175 H   0  0  0  0  0  0  0  0  0  0  0  0
  140.3972   72.0034  224.5629 H   0  0  0  0  0  0  0  0  0  0  0  0
  141.2103   70.4112  224.4732 H   0  0  0  0  0  0  0  0  0  0  0  0
  142.1490   75.7340  219.5139 H   0  0  0  0  0  0  0  0  0  0  0  0
  142.4564   78.2000  219.4296 H   0  0  0  0  0  0  0  0  0  0  0  0
  142.1864   80.3053  220.4279 H   0  0  0  0  0  0  0  0  0  0  0  0
  140.2971   80.6456  224.2847 H   0  0  0  0  0  0  0  0  0  0  0  0
  140.0031   78.1769  224.3379 H   0  0  0  0  0  0  0  0  0  0  0  0
  1  2  2  0
  2  3  1  0
  3  4  1  0
  4  5  1  0
  5  6  2  0
  5  7  1  0
  7  8  1  0
  8  9  1  0
  9 10  1  0
  9 11  1  0
 11 12  1  0
 11 13  1  0
 13 14  1  0
 14 15  1  0
 15 16  1  0
 16 17  1  0
 17 18  1  0
 18 19  1  0
  2 20  1  0
 20 21  2  0
 21 22  1  0
 22 23  2  0
 23 24  1  0
 24 25  2  0
 25 26  1  0
 25 27  1  0
 27 28  2  0
 28 29  1  0
 29 30  2  0
 13  7  1  0
 19 14  1  0
 30 20  1  0
 29 23  1  0
  3 31  1  0
  4 32  1  0
  4 33  1  0
  8 34  1  0
  8 35  1  0
  9 36  1  6
 10 37  1  0
 11 38  1  6
 12 39  1  0
 13 40  1  1
 14 41  1  0
 15 42  1  0
 15 43  1  0
 16 44  1  0
 16 45  1  0
 17 46  1  0
 17 47  1  0
 18 48  1  0
 18 49  1  0
 19 50  1  0
 19 51  1  0
 21 52  1  0
 22 53  1  0
 24 54  1  0
 27 55  1  0
 28 56  1  0
M  END
>  <smiles>  (31) 
O=C(NCC(=O)N1C[C@H](O)[C@H](O)[C@H]1C1CCCCC1)c1ccc2cc(F)ccc2n1

>  <score_type>  (31) 
oracle

>  <origin>  (31) 
autodockgpu

>  <m_score__min__energy>  (31) 
-8.8900000000000006

>  <m_primary>  (31) 
energy

>  <rmsd>  (31) 
8.759845788173658

>  <m_score__min__rmsd>  (31) 
8.759845788173658

>  <meeko>  (31) 
{"free_energy": -7.71, "intermolecular_energy": -9.8, "internal_energy": -3.32, "cluster_size": 5, "cluster_id": 3, "rank_in_cluster": 2}

>  <energy>  (31) 
-7.58

>  <cluster_rmsd>  (31) 
1.62

>  <cluster>  (31) 
1

$$$$

     RDKit          3D

 56 59  0  0  0  0  0  0  0  0999 V2000
  141.2100   72.1690  221.4590 O   0  0  0  0  0  0  0  0  0  0  0  0
  140.4220   72.4390  222.4030 C   0  0  0  0  0  0  0  0  0  0  0  0
  139.6680   73.6440  222.3230 N   0  0  0  0  0  0  0  0  0  0  0  0
  139.9150   74.4580  221.0950 C   0  0  0  0  0  0  0  0  0  0  0  0
  140.5980   75.7020  221.4730 C   0  0  0  0  0  0  0  0  0  0  0  0
  140.2690   76.1540  222.6480 O   0  0  0  0  0  0  0  0  0  0  0  0
  141.5330   76.4680  220.7890 N   0  0  0  0  0  0  0  0  0  0  0  0
  142.4460   75.7690  219.7980 C   0  0  0  0  0  0  0  0  0  0  0  0
  142.1520   76.6220  218.5810 C   0  0  2  0  0  0  0  0  0  0  0  0
  143.3260   76.7390  217.8220 O   0  0  0  0  0  0  0  0  0  0  0  0
  141.7440   77.9960  219.1430 C   0  0  2  0  0  0  0  0  0  0  0  0
  142.6110   78.9400  218.6070 O   0  0  0  0  0  0  0  0  0  0  0  0
  141.9640   77.8070  220.6380 C   0  0  1  0  0  0  0  0  0  0  0  0
  141.3760   78.8210  221.5120 C   0  0  0  0  0  0  0  0  0  0  0  0
  139.8680   78.7590  221.4560 C   0  0  0  0  0  0  0  0  0  0  0  0
  139.3170   80.0550  221.9890 C   0  0  0  0  0  0  0  0  0  0  0  0
  140.2970   80.5930  223.0180 C   0  0  0  0  0  0  0  0  0  0  0  0
  140.8670   79.4670  223.8310 C   0  0  0  0  0  0  0  0  0  0  0  0
  141.7670   78.6200  222.9700 C   0  0  0  0  0  0  0  0  0  0  0  0
  140.2510   71.5710  223.5700 C   0  0  0  0  0  0  0  0  0  0  0  0
  139.5720   70.3720  223.3640 C   0  0  0  0  0  0  0  0  0  0  0  0
  139.3640   69.4950  224.4020 C   0  0  0  0  0  0  0  0  0  0  0  0
  139.8480   69.8420  225.6470 C   0  0  0  0  0  0  0  0  0  0  0  0
  139.6350   68.9540  226.6860 C   0  0  0  0  0  0  0  0  0  0  0  0
  140.1030   69.2720  227.9300 C   0  0  0  0  0  0  0  0  0  0  0  0
  139.9270   68.4530  228.9770 F   0  0  0  0  0  0  0  0  0  0  0  0
  140.7820   70.4670  228.1480 C   0  0  0  0  0  0  0  0  0  0  0  0
  140.9760   71.3340  227.0750 C   0  0  0  0  0  0  0  0  0  0  0  0
  140.5140   71.0390  225.8050 C   0  0  0  0  0  0  0  0  0  0  0  0
  140.7190   71.9010  224.7900 N   0  0  0  0  0  0  0  0  0  0  0  0
  138.9950   73.9620  223.0390 H   0  0  0  0  0  0  0  0  0  0  0  0
  140.5459   73.8889  220.3964 H   0  0  0  0  0  0  0  0  0  0  0  0
  138.9574   74.6940  220.6078 H   0  0  0  0  0  0  0  0  0  0  0  0
  143.5029   75.8248  220.0976 H   0  0  0  0  0  0  0  0  0  0  0  0
  142.2797   74.6886  219.6754 H   0  0  0  0  0  0  0  0  0  0  0  0
  141.3666   76.1987  217.9377 H   0  0  0  0  0  0  0  0  0  0  0  0
  143.4590   77.6470  217.4590 H   0  0  0  0  0  0  0  0  0  0  0  0
  140.7210   78.3297  218.9145 H   0  0  0  0  0  0  0  0  0  0  0  0
  143.5280   78.6330  218.8270 H   0  0  0  0  0  0  0  0  0  0  0  0
  142.9993   77.9637  220.9751 H   0  0  0  0  0  0  0  0  0  0  0  0
  141.7552   79.7887  221.1518 H   0  0  0  0  0  0  0  0  0  0  0  0
  139.5408   78.6166  220.4155 H   0  0  0  0  0  0  0  0  0  0  0  0
  139.5024   77.9164  222.0613 H   0  0  0  0  0  0  0  0  0  0  0  0
  139.2031   80.7781  221.1680 H   0  0  0  0  0  0  0  0  0  0  0  0
  138.3312   79.8912  222.4487 H   0  0  0  0  0  0  0  0  0  0  0  0
  141.1141   81.1179  222.5016 H   0  0  0  0  0  0  0  0  0  0  0  0
  139.7683   81.2870  223.6880 H   0  0  0  0  0  0  0  0  0  0  0  0
  141.4467   79.8794  224.6699 H   0  0  0  0  0  0  0  0  0  0  0  0
  140.0453   78.8463  224.2177 H   0  0  0  0  0  0  0  0  0  0  0  0
  142.8139   78.9234  223.1179 H   0  0  0  0  0  0  0  0  0  0  0  0
  141.6605   77.5602  223.2446 H   0  0  0  0  0  0  0  0  0  0  0  0
  139.1982   70.1243  222.3596 H   0  0  0  0  0  0  0  0  0  0  0  0
  138.8288   68.5468  224.2452 H   0  0  0  0  0  0  0  0  0  0  0  0
  139.0987   68.0091  226.5141 H   0  0  0  0  0  0  0  0  0  0  0  0
  141.1587   70.7224  229.1494 H   0  0  0  0  0  0  0  0  0  0  0  0
  141.5118   72.2800  227.2424 H   0  0  0  0  0  0  0  0  0  0  0  0
  1  2  2  0
  2  3  1  0
  3  4  1  0
  4  5  1  0
  5  6  2  0
  5  7  1  0
  7  8  1  0
  8  9  1  0
  9 10  1  0
  9 11  1  0
 11 12  1  0
 11 13  1  0
 13 14  1  0
 14 15  1  0
 15 16  1  0
 16 17  1  0
 17 18  1  0
 18 19  1  0
  2 20  1  0
 20 21  2  0
 21 22  1  0
 22 23  2  0
 23 24  1  0
 24 25  2  0
 25 26  1  0
 25 27  1  0
 27 28  2  0
 28 29  1  0
 29 30  2  0
 13  7  1  0
 19 14  1  0
 30 20  1  0
 29 23  1  0
  3 31  1  0
  4 32  1  0
  4 33  1  0
  8 34  1  0
  8 35  1  0
  9 36  1  6
 10 37  1  0
 11 38  1  1
 12 39  1  0
 13 40  1  6
 14 41  1  0
 15 42  1  0
 15 43  1  0
 16 44  1  0
 16 45  1  0
 17 46  1  0
 17 47  1  0
 18 48  1  0
 18 49  1  0
 19 50  1  0
 19 51  1  0
 21 52  1  0
 22 53  1  0
 24 54  1  0
 27 55  1  0
 28 56  1  0
M  END
>  <smiles>  (32) 
O=C(NCC(=O)N1C[C@H](O)[C@H](O)[C@H]1C1CCCCC1)c1ccc2cc(F)ccc2n1

>  <score_type>  (32) 
oracle

>  <origin>  (32) 
autodockgpu

>  <m_score__min__energy>  (32) 
-8.8900000000000006

>  <m_primary>  (32) 
energy

>  <rmsd>  (32) 
2.3117035902116108

>  <m_score__min__rmsd>  (32) 
2.3117035902116108

>  <meeko>  (32) 
{"free_energy": -8.38, "intermolecular_energy": -10.47, "internal_energy": -2.94, "cluster_size": 38, "cluster_id": 1, "rank_in_cluster": 18}

>  <energy>  (32) 
-7.57

>  <cluster_rmsd>  (32) 
1.69

>  <cluster>  (32) 
1

$$$$

     RDKit          3D

 56 59  0  0  0  0  0  0  0  0999 V2000
  140.9710   73.0210  220.9990 O   0  0  0  0  0  0  0  0  0  0  0  0
  140.1270   73.1390  221.9250 C   0  0  0  0  0  0  0  0  0  0  0  0
  139.3630   74.3390  221.9860 N   0  0  0  0  0  0  0  0  0  0  0  0
  139.6670   75.3320  220.9120 C   0  0  0  0  0  0  0  0  0  0  0  0
  140.9380   75.9980  221.2210 C   0  0  0  0  0  0  0  0  0  0  0  0
  141.4440   75.6720  222.3750 O   0  0  0  0  0  0  0  0  0  0  0  0
  141.6870   76.9090  220.4880 N   0  0  0  0  0  0  0  0  0  0  0  0
  142.5290   76.3850  219.3380 C   0  0  0  0  0  0  0  0  0  0  0  0
  141.9850   77.2750  218.2390 C   0  0  2  0  0  0  0  0  0  0  0  0
  143.0280   77.5750  217.3490 O   0  0  0  0  0  0  0  0  0  0  0  0
  141.5130   78.5540  218.9540 C   0  0  2  0  0  0  0  0  0  0  0  0
  142.1960   79.6250  218.3890 O   0  0  0  0  0  0  0  0  0  0  0  0
  141.9500   78.2960  220.3890 C   0  0  1  0  0  0  0  0  0  0  0  0
  141.3800   79.1770  221.4080 C   0  0  0  0  0  0  0  0  0  0  0  0
  141.8270   78.7510  222.7860 C   0  0  0  0  0  0  0  0  0  0  0  0
  140.9000   79.3680  223.8010 C   0  0  0  0  0  0  0  0  0  0  0  0
  140.3930   80.6840  223.2320 C   0  0  0  0  0  0  0  0  0  0  0  0
  141.4910   81.3850  222.4880 C   0  0  0  0  0  0  0  0  0  0  0  0
  141.8250   80.6230  221.2320 C   0  0  0  0  0  0  0  0  0  0  0  0
  139.9040   72.1030  222.9350 C   0  0  0  0  0  0  0  0  0  0  0  0
  138.8070   71.2650  222.7380 C   0  0  0  0  0  0  0  0  0  0  0  0
  138.5190   70.2630  223.6360 C   0  0  0  0  0  0  0  0  0  0  0  0
  139.3470   70.1190  224.7300 C   0  0  0  0  0  0  0  0  0  0  0  0
  139.0500   69.1100  225.6270 C   0  0  0  0  0  0  0  0  0  0  0  0
  139.8520   68.9440  226.7210 C   0  0  0  0  0  0  0  0  0  0  0  0
  139.6160   67.9840  227.6270 F   0  0  0  0  0  0  0  0  0  0  0  0
  140.9500   69.7750  226.9290 C   0  0  0  0  0  0  0  0  0  0  0  0
  141.2140   70.7800  226.0010 C   0  0  0  0  0  0  0  0  0  0  0  0
  140.4200   70.9720  224.8840 C   0  0  0  0  0  0  0  0  0  0  0  0
  140.7050   71.9530  224.0080 N   0  0  0  0  0  0  0  0  0  0  0  0
  138.6450   74.5400  222.7020 H   0  0  0  0  0  0  0  0  0  0  0  0
  139.7474   74.8152  219.9443 H   0  0  0  0  0  0  0  0  0  0  0  0
  138.8607   76.0782  220.8576 H   0  0  0  0  0  0  0  0  0  0  0  0
  143.6045   76.5436  219.5057 H   0  0  0  0  0  0  0  0  0  0  0  0
  142.4644   75.3027  219.1526 H   0  0  0  0  0  0  0  0  0  0  0  0
  141.1692   76.8062  217.6692 H   0  0  0  0  0  0  0  0  0  0  0  0
  143.0970   78.5400  217.1510 H   0  0  0  0  0  0  0  0  0  0  0  0
  140.4392   78.7816  218.8828 H   0  0  0  0  0  0  0  0  0  0  0  0
  143.1610   79.4130  218.4700 H   0  0  0  0  0  0  0  0  0  0  0  0
  142.9988   78.5492  220.6032 H   0  0  0  0  0  0  0  0  0  0  0  0
  140.2881   79.1045  221.2960 H   0  0  0  0  0  0  0  0  0  0  0  0
  141.7883   77.6546  222.8663 H   0  0  0  0  0  0  0  0  0  0  0  0
  142.8597   79.0839  222.9671 H   0  0  0  0  0  0  0  0  0  0  0  0
  140.0531   78.6928  223.9927 H   0  0  0  0  0  0  0  0  0  0  0  0
  141.4300   79.5395  224.7495 H   0  0  0  0  0  0  0  0  0  0  0  0
  139.5580   80.4846  222.5442 H   0  0  0  0  0  0  0  0  0  0  0  0
  140.0540   81.3253  224.0589 H   0  0  0  0  0  0  0  0  0  0  0  0
  141.1614   82.4003  222.2222 H   0  0  0  0  0  0  0  0  0  0  0  0
  142.3845   81.4403  223.1272 H   0  0  0  0  0  0  0  0  0  0  0  0
  141.2992   81.0709  220.3759 H   0  0  0  0  0  0  0  0  0  0  0  0
  142.9083   80.6627  221.0452 H   0  0  0  0  0  0  0  0  0  0  0  0
  138.1654   71.4064  221.8558 H   0  0  0  0  0  0  0  0  0  0  0  0
  137.6558   69.5978  223.4863 H   0  0  0  0  0  0  0  0  0  0  0  0
  138.1836   68.4524  225.4631 H   0  0  0  0  0  0  0  0  0  0  0  0
  141.5963   69.6405  227.8089 H   0  0  0  0  0  0  0  0  0  0  0  0
  142.0791   71.4403  226.1609 H   0  0  0  0  0  0  0  0  0  0  0  0
  1  2  2  0
  2  3  1  0
  3  4  1  0
  4  5  1  0
  5  6  2  0
  5  7  1  0
  7  8  1  0
  8  9  1  0
  9 10  1  0
  9 11  1  0
 11 12  1  0
 11 13  1  0
 13 14  1  0
 14 15  1  0
 15 16  1  0
 16 17  1  0
 17 18  1  0
 18 19  1  0
  2 20  1  0
 20 21  2  0
 21 22  1  0
 22 23  2  0
 23 24  1  0
 24 25  2  0
 25 26  1  0
 25 27  1  0
 27 28  2  0
 28 29  1  0
 29 30  2  0
 13  7  1  0
 19 14  1  0
 30 20  1  0
 29 23  1  0
  3 31  1  0
  4 32  1  0
  4 33  1  0
  8 34  1  0
  8 35  1  0
  9 36  1  6
 10 37  1  0
 11 38  1  1
 12 39  1  0
 13 40  1  6
 14 41  1  0
 15 42  1  0
 15 43  1  0
 16 44  1  0
 16 45  1  0
 17 46  1  0
 17 47  1  0
 18 48  1  0
 18 49  1  0
 19 50  1  0
 19 51  1  0
 21 52  1  0
 22 53  1  0
 24 54  1  0
 27 55  1  0
 28 56  1  0
M  END
>  <smiles>  (33) 
O=C(NCC(=O)N1C[C@H](O)[C@H](O)[C@H]1C1CCCCC1)c1ccc2cc(F)ccc2n1

>  <score_type>  (33) 
oracle

>  <origin>  (33) 
autodockgpu

>  <m_score__min__energy>  (33) 
-8.8900000000000006

>  <m_primary>  (33) 
energy

>  <rmsd>  (33) 
2.604823340319052

>  <m_score__min__rmsd>  (33) 
2.604823340319052

>  <meeko>  (33) 
{"free_energy": -7.86, "intermolecular_energy": -9.95, "internal_energy": -2.77, "cluster_size": 38, "cluster_id": 1, "rank_in_cluster": 24}

>  <energy>  (33) 
-7.49

>  <cluster_rmsd>  (33) 
1.76

>  <cluster>  (33) 
1

$$$$

     RDKit          3D

 56 59  0  0  0  0  0  0  0  0999 V2000
  141.6840   73.5390  220.6990 O   0  0  0  0  0  0  0  0  0  0  0  0
  140.9480   74.2950  221.3850 C   0  0  0  0  0  0  0  0  0  0  0  0
  139.8870   73.7030  222.1270 N   0  0  0  0  0  0  0  0  0  0  0  0
  139.7790   72.2190  221.9930 C   0  0  0  0  0  0  0  0  0  0  0  0
  138.5850   71.7570  222.7120 C   0  0  0  0  0  0  0  0  0  0  0  0
  137.6350   72.6430  222.7900 O   0  0  0  0  0  0  0  0  0  0  0  0
  138.3020   70.5390  223.3140 N   0  0  0  0  0  0  0  0  0  0  0  0
  137.4630   69.5350  222.5430 C   0  0  0  0  0  0  0  0  0  0  0  0
  138.4110   68.3540  222.6070 C   0  0  2  0  0  0  0  0  0  0  0  0
  137.6530   67.1770  222.7020 O   0  0  0  0  0  0  0  0  0  0  0  0
  139.2280   68.5650  223.8940 C   0  0  2  0  0  0  0  0  0  0  0  0
  139.0450   67.4430  224.6930 O   0  0  0  0  0  0  0  0  0  0  0  0
  138.5700   69.8010  224.4920 C   0  0  1  0  0  0  0  0  0  0  0  0
  139.3000   70.4680  225.5690 C   0  0  0  0  0  0  0  0  0  0  0  0
  139.6650   69.4800  226.6510 C   0  0  0  0  0  0  0  0  0  0  0  0
  140.0000   70.2470  227.9040 C   0  0  0  0  0  0  0  0  0  0  0  0
  140.5690   71.5940  227.4900 C   0  0  0  0  0  0  0  0  0  0  0  0
  141.4450   71.4390  226.2820 C   0  0  0  0  0  0  0  0  0  0  0  0
  140.6040   71.0860  225.0830 C   0  0  0  0  0  0  0  0  0  0  0  0
  141.1350   75.7450  221.4490 C   0  0  0  0  0  0  0  0  0  0  0  0
  141.8390   76.3320  220.3980 C   0  0  0  0  0  0  0  0  0  0  0  0
  142.0640   77.6890  220.3740 C   0  0  0  0  0  0  0  0  0  0  0  0
  141.5730   78.4430  221.4200 C   0  0  0  0  0  0  0  0  0  0  0  0
  141.8040   79.8060  221.3880 C   0  0  0  0  0  0  0  0  0  0  0  0
  141.3290   80.5780  222.4110 C   0  0  0  0  0  0  0  0  0  0  0  0
  141.5210   81.9050  222.4370 F   0  0  0  0  0  0  0  0  0  0  0  0
  140.6260   80.0040  223.4670 C   0  0  0  0  0  0  0  0  0  0  0  0
  140.4150   78.6270  223.4600 C   0  0  0  0  0  0  0  0  0  0  0  0
  140.8830   77.8200  222.4390 C   0  0  0  0  0  0  0  0  0  0  0  0
  140.6610   76.4920  222.4660 N   0  0  0  0  0  0  0  0  0  0  0  0
  139.2240   74.2280  222.7210 H   0  0  0  0  0  0  0  0  0  0  0  0
  139.6955   71.9503  220.9296 H   0  0  0  0  0  0  0  0  0  0  0  0
  140.6748   71.7425  222.4178 H   0  0  0  0  0  0  0  0  0  0  0  0
  136.5053   69.3253  223.0419 H   0  0  0  0  0  0  0  0  0  0  0  0
  137.1540   69.8454  221.5340 H   0  0  0  0  0  0  0  0  0  0  0  0
  139.0617   68.2746  221.7236 H   0  0  0  0  0  0  0  0  0  0  0  0
  138.1830   66.4040  223.0120 H   0  0  0  0  0  0  0  0  0  0  0  0
  140.3123   68.6965  223.7638 H   0  0  0  0  0  0  0  0  0  0  0  0
  139.2150   66.6570  224.1130 H   0  0  0  0  0  0  0  0  0  0  0  0
  137.6666   69.5993  225.0863 H   0  0  0  0  0  0  0  0  0  0  0  0
  138.6313   71.2549  225.9478 H   0  0  0  0  0  0  0  0  0  0  0  0
  138.8150   68.8086  226.8428 H   0  0  0  0  0  0  0  0  0  0  0  0
  140.5290   68.8768  226.3354 H   0  0  0  0  0  0  0  0  0  0  0  0
  139.0912   70.3944  228.5060 H   0  0  0  0  0  0  0  0  0  0  0  0
  140.7321   69.6916  228.5086 H   0  0  0  0  0  0  0  0  0  0  0  0
  139.7424   72.2801  227.2534 H   0  0  0  0  0  0  0  0  0  0  0  0
  141.1691   71.9992  228.3181 H   0  0  0  0  0  0  0  0  0  0  0  0
  141.9743   72.3842  226.0912 H   0  0  0  0  0  0  0  0  0  0  0  0
  142.1742   70.6356  226.4631 H   0  0  0  0  0  0  0  0  0  0  0  0
  140.3893   71.9942  224.5007 H   0  0  0  0  0  0  0  0  0  0  0  0
  141.1429   70.3716  224.4433 H   0  0  0  0  0  0  0  0  0  0  0  0
  142.2186   75.7031  219.5792 H   0  0  0  0  0  0  0  0  0  0  0  0
  142.6177   78.1580  219.5472 H   0  0  0  0  0  0  0  0  0  0  0  0
  142.3598   80.2605  220.5546 H   0  0  0  0  0  0  0  0  0  0  0  0
  140.2448   80.6256  224.2906 H   0  0  0  0  0  0  0  0  0  0  0  0
  139.8597   78.1680  224.2912 H   0  0  0  0  0  0  0  0  0  0  0  0
  1  2  2  0
  2  3  1  0
  3  4  1  0
  4  5  1  0
  5  6  2  0
  5  7  1  0
  7  8  1  0
  8  9  1  0
  9 10  1  0
  9 11  1  0
 11 12  1  0
 11 13  1  0
 13 14  1  0
 14 15  1  0
 15 16  1  0
 16 17  1  0
 17 18  1  0
 18 19  1  0
  2 20  1  0
 20 21  2  0
 21 22  1  0
 22 23  2  0
 23 24  1  0
 24 25  2  0
 25 26  1  0
 25 27  1  0
 27 28  2  0
 28 29  1  0
 29 30  2  0
 13  7  1  0
 19 14  1  0
 30 20  1  0
 29 23  1  0
  3 31  1  0
  4 32  1  0
  4 33  1  0
  8 34  1  0
  8 35  1  0
  9 36  1  6
 10 37  1  0
 11 38  1  6
 12 39  1  0
 13 40  1  1
 14 41  1  0
 15 42  1  0
 15 43  1  0
 16 44  1  0
 16 45  1  0
 17 46  1  0
 17 47  1  0
 18 48  1  0
 18 49  1  0
 19 50  1  0
 19 51  1  0
 21 52  1  0
 22 53  1  0
 24 54  1  0
 27 55  1  0
 28 56  1  0
M  END
>  <smiles>  (34) 
O=C(NCC(=O)N1C[C@H](O)[C@H](O)[C@H]1C1CCCCC1)c1ccc2cc(F)ccc2n1

>  <score_type>  (34) 
oracle

>  <origin>  (34) 
autodockgpu

>  <m_score__min__energy>  (34) 
-8.8900000000000006

>  <m_primary>  (34) 
energy

>  <rmsd>  (34) 
8.74178898794133

>  <m_score__min__rmsd>  (34) 
8.74178898794133

>  <meeko>  (34) 
{"free_energy": -7.81, "intermolecular_energy": -9.9, "internal_energy": -3.31, "cluster_size": 5, "cluster_id": 3, "rank_in_cluster": 1}

>  <energy>  (34) 
-7.46

>  <cluster_rmsd>  (34) 
1.64

>  <cluster>  (34) 
1

$$$$

     RDKit          3D

 56 59  0  0  0  0  0  0  0  0999 V2000
  141.0580   71.6750  221.3610 O   0  0  0  0  0  0  0  0  0  0  0  0
  140.4740   72.1200  222.3840 C   0  0  0  0  0  0  0  0  0  0  0  0
  139.9650   73.4480  222.3400 N   0  0  0  0  0  0  0  0  0  0  0  0
  140.1940   74.1670  221.0500 C   0  0  0  0  0  0  0  0  0  0  0  0
  140.2550   75.6100  221.3090 C   0  0  0  0  0  0  0  0  0  0  0  0
  139.9380   75.9470  222.5250 O   0  0  0  0  0  0  0  0  0  0  0  0
  140.5980   76.6680  220.4780 N   0  0  0  0  0  0  0  0  0  0  0  0
  140.4300   76.4860  218.9790 C   0  0  0  0  0  0  0  0  0  0  0  0
  139.5590   77.6950  218.7030 C   0  0  2  0  0  0  0  0  0  0  0  0
  139.8920   78.2070  217.4400 O   0  0  0  0  0  0  0  0  0  0  0  0
  139.9230   78.7110  219.8010 C   0  0  2  0  0  0  0  0  0  0  0  0
  140.3530   79.8720  219.1690 O   0  0  0  0  0  0  0  0  0  0  0  0
  141.0600   78.0050  220.5250 C   0  0  1  0  0  0  0  0  0  0  0  0
  141.4410   78.5540  221.8260 C   0  0  0  0  0  0  0  0  0  0  0  0
  142.1910   79.8530  221.6530 C   0  0  0  0  0  0  0  0  0  0  0  0
  142.9350   80.1470  222.9300 C   0  0  0  0  0  0  0  0  0  0  0  0
  142.1440   79.5490  224.0810 C   0  0  0  0  0  0  0  0  0  0  0  0
  140.6720   79.7260  223.8480 C   0  0  0  0  0  0  0  0  0  0  0  0
  140.2300   78.8610  222.6970 C   0  0  0  0  0  0  0  0  0  0  0  0
  140.3010   71.3330  223.6060 C   0  0  0  0  0  0  0  0  0  0  0  0
  139.6270   70.1190  223.4780 C   0  0  0  0  0  0  0  0  0  0  0  0
  139.4170   69.3140  224.5730 C   0  0  0  0  0  0  0  0  0  0  0  0
  139.8930   69.7470  225.7940 C   0  0  0  0  0  0  0  0  0  0  0  0
  139.6770   68.9300  226.8890 C   0  0  0  0  0  0  0  0  0  0  0  0
  140.1370   69.3340  228.1110 C   0  0  0  0  0  0  0  0  0  0  0  0
  139.9580   68.5870  229.2100 F   0  0  0  0  0  0  0  0  0  0  0  0
  140.8100   70.5440  228.2520 C   0  0  0  0  0  0  0  0  0  0  0  0
  141.0070   71.3360  227.1230 C   0  0  0  0  0  0  0  0  0  0  0  0
  140.5530   70.9540  225.8730 C   0  0  0  0  0  0  0  0  0  0  0  0
  140.7610   71.7460  224.8040 N   0  0  0  0  0  0  0  0  0  0  0  0
  139.4700   73.9120  223.1210 H   0  0  0  0  0  0  0  0  0  0  0  0
  141.1426   73.8322  220.6050 H   0  0  0  0  0  0  0  0  0  0  0  0
  139.3707   73.9499  220.3535 H   0  0  0  0  0  0  0  0  0  0  0  0
  141.3904   76.5363  218.4450 H   0  0  0  0  0  0  0  0  0  0  0  0
  140.0189   75.5175  218.6582 H   0  0  0  0  0  0  0  0  0  0  0  0
  138.4839   77.4622  218.7081 H   0  0  0  0  0  0  0  0  0  0  0  0
  140.6330   78.8590  217.4740 H   0  0  0  0  0  0  0  0  0  0  0  0
  139.1112   78.9967  220.4860 H   0  0  0  0  0  0  0  0  0  0  0  0
  139.6750   80.0790  218.4750 H   0  0  0  0  0  0  0  0  0  0  0  0
  142.0495   78.1331  220.0619 H   0  0  0  0  0  0  0  0  0  0  0  0
  142.0651   77.7874  222.3086 H   0  0  0  0  0  0  0  0  0  0  0  0
  142.9039   79.7622  220.8203 H   0  0  0  0  0  0  0  0  0  0  0  0
  141.4874   80.6685  221.4295 H   0  0  0  0  0  0  0  0  0  0  0  0
  143.9371   79.6952  222.8909 H   0  0  0  0  0  0  0  0  0  0  0  0
  143.0473   81.2328  223.0662 H   0  0  0  0  0  0  0  0  0  0  0  0
  142.3726   78.4759  224.1597 H   0  0  0  0  0  0  0  0  0  0  0  0
  142.4234   80.0628  225.0126 H   0  0  0  0  0  0  0  0  0  0  0  0
  140.1213   79.4363  224.7551 H   0  0  0  0  0  0  0  0  0  0  0  0
  140.4661   80.7801  223.6102 H   0  0  0  0  0  0  0  0  0  0  0  0
  139.8027   77.9230  223.0812 H   0  0  0  0  0  0  0  0  0  0  0  0
  139.4651   79.3853  222.1053 H   0  0  0  0  0  0  0  0  0  0  0  0
  139.2595   69.8020  222.4909 H   0  0  0  0  0  0  0  0  0  0  0  0
  138.8863   68.3551  224.4787 H   0  0  0  0  0  0  0  0  0  0  0  0
  139.1452   67.9735  226.7785 H   0  0  0  0  0  0  0  0  0  0  0  0
  141.1793   70.8687  229.2360 H   0  0  0  0  0  0  0  0  0  0  0  0
  141.5390   72.2930  227.2283 H   0  0  0  0  0  0  0  0  0  0  0  0
  1  2  2  0
  2  3  1  0
  3  4  1  0
  4  5  1  0
  5  6  2  0
  5  7  1  0
  7  8  1  0
  8  9  1  0
  9 10  1  0
  9 11  1  0
 11 12  1  0
 11 13  1  0
 13 14  1  0
 14 15  1  0
 15 16  1  0
 16 17  1  0
 17 18  1  0
 18 19  1  0
  2 20  1  0
 20 21  2  0
 21 22  1  0
 22 23  2  0
 23 24  1  0
 24 25  2  0
 25 26  1  0
 25 27  1  0
 27 28  2  0
 28 29  1  0
 29 30  2  0
 13  7  1  0
 19 14  1  0
 30 20  1  0
 29 23  1  0
  3 31  1  0
  4 32  1  0
  4 33  1  0
  8 34  1  0
  8 35  1  0
  9 36  1  6
 10 37  1  0
 11 38  1  1
 12 39  1  0
 13 40  1  6
 14 41  1  0
 15 42  1  0
 15 43  1  0
 16 44  1  0
 16 45  1  0
 17 46  1  0
 17 47  1  0
 18 48  1  0
 18 49  1  0
 19 50  1  0
 19 51  1  0
 21 52  1  0
 22 53  1  0
 24 54  1  0
 27 55  1  0
 28 56  1  0
M  END
>  <smiles>  (35) 
O=C(NCC(=O)N1C[C@H](O)[C@H](O)[C@H]1C1CCCCC1)c1ccc2cc(F)ccc2n1

>  <score_type>  (35) 
oracle

>  <origin>  (35) 
autodockgpu

>  <m_score__min__energy>  (35) 
-8.8900000000000006

>  <m_primary>  (35) 
energy

>  <rmsd>  (35) 
2.3170215372774607

>  <m_score__min__rmsd>  (35) 
2.3170215372774607

>  <meeko>  (35) 
{"free_energy": -7.68, "intermolecular_energy": -9.77, "internal_energy": -3.34, "cluster_size": 38, "cluster_id": 1, "rank_in_cluster": 30}

>  <energy>  (35) 
-7.38

>  <cluster_rmsd>  (35) 
1.68

>  <cluster>  (35) 
1

$$$$

     RDKit          3D

 56 59  0  0  0  0  0  0  0  0999 V2000
  141.0120   71.9410  221.3050 O   0  0  0  0  0  0  0  0  0  0  0  0
  140.3940   72.3360  222.3280 C   0  0  0  0  0  0  0  0  0  0  0  0
  139.8460   73.6500  222.3130 N   0  0  0  0  0  0  0  0  0  0  0  0
  140.0800   74.4140  221.0510 C   0  0  0  0  0  0  0  0  0  0  0  0
  140.6110   75.7410  221.3840 C   0  0  0  0  0  0  0  0  0  0  0  0
  140.1360   76.2430  222.4870 O   0  0  0  0  0  0  0  0  0  0  0  0
  141.5330   76.5420  220.7250 N   0  0  0  0  0  0  0  0  0  0  0  0
  142.4580   75.8880  219.7130 C   0  0  0  0  0  0  0  0  0  0  0  0
  142.1490   76.7720  218.5220 C   0  0  2  0  0  0  0  0  0  0  0  0
  143.3220   76.9300  217.7670 O   0  0  0  0  0  0  0  0  0  0  0  0
  141.7190   78.1220  219.1240 C   0  0  2  0  0  0  0  0  0  0  0  0
  142.5700   79.0960  218.6170 O   0  0  0  0  0  0  0  0  0  0  0  0
  141.9420   77.8930  220.6130 C   0  0  1  0  0  0  0  0  0  0  0  0
  141.3380   78.8700  221.5170 C   0  0  0  0  0  0  0  0  0  0  0  0
  141.8080   78.6430  222.9330 C   0  0  0  0  0  0  0  0  0  0  0  0
  140.8580   79.3430  223.8700 C   0  0  0  0  0  0  0  0  0  0  0  0
  140.2910   80.5520  223.1440 C   0  0  0  0  0  0  0  0  0  0  0  0
  141.3540   81.2010  222.3060 C   0  0  0  0  0  0  0  0  0  0  0  0
  141.7170   80.3000  221.1540 C   0  0  0  0  0  0  0  0  0  0  0  0
  140.2190   71.5070  223.5220 C   0  0  0  0  0  0  0  0  0  0  0  0
  139.5270   70.3090  223.3550 C   0  0  0  0  0  0  0  0  0  0  0  0
  139.3130   69.4660  224.4210 C   0  0  0  0  0  0  0  0  0  0  0  0
  139.8050   69.8470  225.6530 C   0  0  0  0  0  0  0  0  0  0  0  0
  139.5860   68.9950  226.7190 C   0  0  0  0  0  0  0  0  0  0  0  0
  140.0610   69.3460  227.9520 C   0  0  0  0  0  0  0  0  0  0  0  0
  139.8800   68.5620  229.0240 F   0  0  0  0  0  0  0  0  0  0  0  0
  140.7530   70.5410  228.1310 C   0  0  0  0  0  0  0  0  0  0  0  0
  140.9520   71.3710  227.0310 C   0  0  0  0  0  0  0  0  0  0  0  0
  140.4830   71.0420  225.7710 C   0  0  0  0  0  0  0  0  0  0  0  0
  140.6940   71.8700  224.7300 N   0  0  0  0  0  0  0  0  0  0  0  0
  139.3220   74.0750  223.0970 H   0  0  0  0  0  0  0  0  0  0  0  0
  140.8042   73.8746  220.4228 H   0  0  0  0  0  0  0  0  0  0  0  0
  139.1329   74.5211  220.5018 H   0  0  0  0  0  0  0  0  0  0  0  0
  143.5140   75.9527  220.0143 H   0  0  0  0  0  0  0  0  0  0  0  0
  142.3101   74.8091  219.5581 H   0  0  0  0  0  0  0  0  0  0  0  0
  141.3698   76.3558  217.8666 H   0  0  0  0  0  0  0  0  0  0  0  0
  143.8010   77.7680  217.9750 H   0  0  0  0  0  0  0  0  0  0  0  0
  140.6907   78.4451  218.9044 H   0  0  0  0  0  0  0  0  0  0  0  0
  142.7080   78.8740  217.6600 H   0  0  0  0  0  0  0  0  0  0  0  0
  142.9748   78.0577  220.9540 H   0  0  0  0  0  0  0  0  0  0  0  0
  140.2500   78.7359  221.4259 H   0  0  0  0  0  0  0  0  0  0  0  0
  141.8185   77.5651  223.1522 H   0  0  0  0  0  0  0  0  0  0  0  0
  142.8254   79.0412  223.0609 H   0  0  0  0  0  0  0  0  0  0  0  0
  140.0427   78.6612  224.1536 H   0  0  0  0  0  0  0  0  0  0  0  0
  141.3834   79.6568  224.7841 H   0  0  0  0  0  0  0  0  0  0  0  0
  139.4630   80.2305  222.4951 H   0  0  0  0  0  0  0  0  0  0  0  0
  139.9273   81.2776  223.8864 H   0  0  0  0  0  0  0  0  0  0  0  0
  140.9779   82.1584  221.9163 H   0  0  0  0  0  0  0  0  0  0  0  0
  142.2465   81.3773  222.9243 H   0  0  0  0  0  0  0  0  0  0  0  0
  141.1683   80.6114  220.2529 H   0  0  0  0  0  0  0  0  0  0  0  0
  142.7967   80.3631  220.9535 H   0  0  0  0  0  0  0  0  0  0  0  0
  139.1476   70.0343  222.3597 H   0  0  0  0  0  0  0  0  0  0  0  0
  138.7675   68.5191  224.2955 H   0  0  0  0  0  0  0  0  0  0  0  0
  139.0391   68.0511  226.5778 H   0  0  0  0  0  0  0  0  0  0  0  0
  141.1353   70.8240  229.1229 H   0  0  0  0  0  0  0  0  0  0  0  0
  141.4980   72.3161  227.1673 H   0  0  0  0  0  0  0  0  0  0  0  0
  1  2  2  0
  2  3  1  0
  3  4  1  0
  4  5  1  0
  5  6  2  0
  5  7  1  0
  7  8  1  0
  8  9  1  0
  9 10  1  0
  9 11  1  0
 11 12  1  0
 11 13  1  0
 13 14  1  0
 14 15  1  0
 15 16  1  0
 16 17  1  0
 17 18  1  0
 18 19  1  0
  2 20  1  0
 20 21  2  0
 21 22  1  0
 22 23  2  0
 23 24  1  0
 24 25  2  0
 25 26  1  0
 25 27  1  0
 27 28  2  0
 28 29  1  0
 29 30  2  0
 13  7  1  0
 19 14  1  0
 30 20  1  0
 29 23  1  0
  3 31  1  0
  4 32  1  0
  4 33  1  0
  8 34  1  0
  8 35  1  0
  9 36  1  6
 10 37  1  0
 11 38  1  1
 12 39  1  0
 13 40  1  6
 14 41  1  0
 15 42  1  0
 15 43  1  0
 16 44  1  0
 16 45  1  0
 17 46  1  0
 17 47  1  0
 18 48  1  0
 18 49  1  0
 19 50  1  0
 19 51  1  0
 21 52  1  0
 22 53  1  0
 24 54  1  0
 27 55  1  0
 28 56  1  0
M  END
>  <smiles>  (36) 
O=C(NCC(=O)N1C[C@H](O)[C@H](O)[C@H]1C1CCCCC1)c1ccc2cc(F)ccc2n1

>  <score_type>  (36) 
oracle

>  <origin>  (36) 
autodockgpu

>  <m_score__min__energy>  (36) 
-8.8900000000000006

>  <m_primary>  (36) 
energy

>  <rmsd>  (36) 
2.2610220108159833

>  <m_score__min__rmsd>  (36) 
2.2610220108159833

>  <meeko>  (36) 
{"free_energy": -8.46, "intermolecular_energy": -10.55, "internal_energy": -3.07, "cluster_size": 38, "cluster_id": 1, "rank_in_cluster": 14}

>  <energy>  (36) 
-7.34

>  <cluster_rmsd>  (36) 
1.63

>  <cluster>  (36) 
1

$$$$

     RDKit          3D

 56 59  0  0  0  0  0  0  0  0999 V2000
  139.4560   70.8150  221.3400 O   0  0  0  0  0  0  0  0  0  0  0  0
  139.5830   71.3740  222.4600 C   0  0  0  0  0  0  0  0  0  0  0  0
  139.6310   72.7970  222.4960 N   0  0  0  0  0  0  0  0  0  0  0  0
  139.5230   73.4630  221.1640 C   0  0  0  0  0  0  0  0  0  0  0  0
  140.3420   74.6810  221.1680 C   0  0  0  0  0  0  0  0  0  0  0  0
  140.4250   75.2640  222.3280 O   0  0  0  0  0  0  0  0  0  0  0  0
  141.0430   75.3060  220.1450 N   0  0  0  0  0  0  0  0  0  0  0  0
  140.3960   76.4940  219.4540 C   0  0  0  0  0  0  0  0  0  0  0  0
  141.5100   77.5020  219.6520 C   0  0  2  0  0  0  0  0  0  0  0  0
  141.5560   78.3420  218.5280 O   0  0  0  0  0  0  0  0  0  0  0  0
  142.7990   76.6650  219.7420 C   0  0  2  0  0  0  0  0  0  0  0  0
  143.6550   77.1080  218.7420 O   0  0  0  0  0  0  0  0  0  0  0  0
  142.2850   75.2580  219.4680 C   0  0  1  0  0  0  0  0  0  0  0  0
  143.1990   74.1620  219.7860 C   0  0  0  0  0  0  0  0  0  0  0  0
  143.6260   73.4460  218.5270 C   0  0  0  0  0  0  0  0  0  0  0  0
  144.1780   72.0980  218.9080 C   0  0  0  0  0  0  0  0  0  0  0  0
  144.7910   72.2180  220.2940 C   0  0  0  0  0  0  0  0  0  0  0  0
  145.4870   73.5390  220.4420 C   0  0  0  0  0  0  0  0  0  0  0  0
  144.4720   74.6520  220.4630 C   0  0  0  0  0  0  0  0  0  0  0  0
  139.6820   70.6290  223.7150 C   0  0  0  0  0  0  0  0  0  0  0  0
  139.1930   69.3230  223.7080 C   0  0  0  0  0  0  0  0  0  0  0  0
  139.2440   68.5470  224.8430 C   0  0  0  0  0  0  0  0  0  0  0  0
  139.7930   69.1030  225.9800 C   0  0  0  0  0  0  0  0  0  0  0  0
  139.8410   68.3160  227.1160 C   0  0  0  0  0  0  0  0  0  0  0  0
  140.3780   68.8400  228.2580 C   0  0  0  0  0  0  0  0  0  0  0  0
  140.4520   68.1270  229.3910 F   0  0  0  0  0  0  0  0  0  0  0  0
  140.8690   70.1430  228.2780 C   0  0  0  0  0  0  0  0  0  0  0  0
  140.8020   70.9020  227.1130 C   0  0  0  0  0  0  0  0  0  0  0  0
  140.2640   70.3980  225.9420 C   0  0  0  0  0  0  0  0  0  0  0  0
  140.2150   71.1610  224.8330 N   0  0  0  0  0  0  0  0  0  0  0  0
  139.7330   73.3570  223.3590 H   0  0  0  0  0  0  0  0  0  0  0  0
  139.8827   72.7799  220.3804 H   0  0  0  0  0  0  0  0  0  0  0  0
  138.4731   73.7232  220.9639 H   0  0  0  0  0  0  0  0  0  0  0  0
  140.1988   76.2977  218.3898 H   0  0  0  0  0  0  0  0  0  0  0  0
  139.4089   76.7909  219.8380 H   0  0  0  0  0  0  0  0  0  0  0  0
  141.3718   78.1275  220.5462 H   0  0  0  0  0  0  0  0  0  0  0  0
  142.4080   78.8370  218.4540 H   0  0  0  0  0  0  0  0  0  0  0  0
  143.3520   76.7257  220.6910 H   0  0  0  0  0  0  0  0  0  0  0  0
  143.7000   78.0950  218.8300 H   0  0  0  0  0  0  0  0  0  0  0  0
  142.1814   75.0046  218.4026 H   0  0  0  0  0  0  0  0  0  0  0  0
  142.6472   73.4944  220.4642 H   0  0  0  0  0  0  0  0  0  0  0  0
  142.7598   73.3176  217.8612 H   0  0  0  0  0  0  0  0  0  0  0  0
  144.3938   74.0329  218.0015 H   0  0  0  0  0  0  0  0  0  0  0  0
  143.3689   71.3529  218.9206 H   0  0  0  0  0  0  0  0  0  0  0  0
  144.9372   71.7755  218.1802 H   0  0  0  0  0  0  0  0  0  0  0  0
  143.9963   72.1396  221.0505 H   0  0  0  0  0  0  0  0  0  0  0  0
  145.5238   71.4095  220.4328 H   0  0  0  0  0  0  0  0  0  0  0  0
  146.0576   73.5476  221.3824 H   0  0  0  0  0  0  0  0  0  0  0  0
  146.1698   73.6866  219.5923 H   0  0  0  0  0  0  0  0  0  0  0  0
  144.2532   74.9344  221.5034 H   0  0  0  0  0  0  0  0  0  0  0  0
  144.8664   75.5301  219.9307 H   0  0  0  0  0  0  0  0  0  0  0  0
  138.7617   68.9087  222.7848 H   0  0  0  0  0  0  0  0  0  0  0  0
  138.8594   67.5164  224.8438 H   0  0  0  0  0  0  0  0  0  0  0  0
  139.4538   67.2865  227.1006 H   0  0  0  0  0  0  0  0  0  0  0  0
  141.3017   70.5646  229.1972 H   0  0  0  0  0  0  0  0  0  0  0  0
  141.1878   71.9321  227.1236 H   0  0  0  0  0  0  0  0  0  0  0  0
  1  2  2  0
  2  3  1  0
  3  4  1  0
  4  5  1  0
  5  6  2  0
  5  7  1  0
  7  8  1  0
  8  9  1  0
  9 10  1  0
  9 11  1  0
 11 12  1  0
 11 13  1  0
 13 14  1  0
 14 15  1  0
 15 16  1  0
 16 17  1  0
 17 18  1  0
 18 19  1  0
  2 20  1  0
 20 21  2  0
 21 22  1  0
 22 23  2  0
 23 24  1  0
 24 25  2  0
 25 26  1  0
 25 27  1  0
 27 28  2  0
 28 29  1  0
 29 30  2  0
 13  7  1  0
 19 14  1  0
 30 20  1  0
 29 23  1  0
  3 31  1  0
  4 32  1  0
  4 33  1  0
  8 34  1  0
  8 35  1  0
  9 36  1  1
 10 37  1  0
 11 38  1  1
 12 39  1  0
 13 40  1  6
 14 41  1  0
 15 42  1  0
 15 43  1  0
 16 44  1  0
 16 45  1  0
 17 46  1  0
 17 47  1  0
 18 48  1  0
 18 49  1  0
 19 50  1  0
 19 51  1  0
 21 52  1  0
 22 53  1  0
 24 54  1  0
 27 55  1  0
 28 56  1  0
M  END
>  <smiles>  (37) 
O=C(NCC(=O)N1C[C@H](O)[C@H](O)[C@H]1C1CCCCC1)c1ccc2cc(F)ccc2n1

>  <score_type>  (37) 
oracle

>  <origin>  (37) 
autodockgpu

>  <m_score__min__energy>  (37) 
-8.8900000000000006

>  <m_primary>  (37) 
energy

>  <rmsd>  (37) 
2.0862793988250172

>  <m_score__min__rmsd>  (37) 
2.0862793988250172

>  <meeko>  (37) 
{"free_energy": -7.74, "intermolecular_energy": -9.83, "internal_energy": -3.36, "cluster_size": 38, "cluster_id": 1, "rank_in_cluster": 28}

>  <energy>  (37) 
-7.32

>  <cluster_rmsd>  (37) 
1.72

>  <cluster>  (37) 
1

$$$$

     RDKit          3D

 56 59  0  0  0  0  0  0  0  0999 V2000
  141.1080   74.1250  221.4820 O   0  0  0  0  0  0  0  0  0  0  0  0
  140.1150   74.7430  221.9460 C   0  0  0  0  0  0  0  0  0  0  0  0
  138.9730   73.9840  222.3270 N   0  0  0  0  0  0  0  0  0  0  0  0
  139.1020   72.5090  222.1230 C   0  0  0  0  0  0  0  0  0  0  0  0
  138.0480   71.8260  222.8830 C   0  0  0  0  0  0  0  0  0  0  0  0
  136.9980   72.5580  223.1160 O   0  0  0  0  0  0  0  0  0  0  0  0
  137.9850   70.5330  223.3860 N   0  0  0  0  0  0  0  0  0  0  0  0
  137.1780   69.5020  222.6170 C   0  0  0  0  0  0  0  0  0  0  0  0
  138.2570   68.4500  222.4540 C   0  0  2  0  0  0  0  0  0  0  0  0
  137.6580   67.1820  222.5150 O   0  0  0  0  0  0  0  0  0  0  0  0
  139.1990   68.6500  223.6550 C   0  0  2  0  0  0  0  0  0  0  0  0
  139.2480   67.4490  224.3520 O   0  0  0  0  0  0  0  0  0  0  0  0
  138.4810   69.7360  224.4460 C   0  0  1  0  0  0  0  0  0  0  0  0
  139.2580   70.3940  225.4950 C   0  0  0  0  0  0  0  0  0  0  0  0
  139.6280   69.4080  226.5770 C   0  0  0  0  0  0  0  0  0  0  0  0
  140.0170   70.1780  227.8120 C   0  0  0  0  0  0  0  0  0  0  0  0
  140.6080   71.5060  227.3690 C   0  0  0  0  0  0  0  0  0  0  0  0
  141.4460   71.3170  226.1380 C   0  0  0  0  0  0  0  0  0  0  0  0
  140.5630   70.9750  224.9670 C   0  0  0  0  0  0  0  0  0  0  0  0
  140.0860   76.1980  222.1070 C   0  0  0  0  0  0  0  0  0  0  0  0
  138.8380   76.7780  222.3240 C   0  0  0  0  0  0  0  0  0  0  0  0
  138.7140   78.1390  222.4860 C   0  0  0  0  0  0  0  0  0  0  0  0
  139.8620   78.9030  222.4240 C   0  0  0  0  0  0  0  0  0  0  0  0
  139.7280   80.2690  222.5880 C   0  0  0  0  0  0  0  0  0  0  0  0
  140.8470   81.0520  222.5320 C   0  0  0  0  0  0  0  0  0  0  0  0
  140.7830   82.3820  222.6820 F   0  0  0  0  0  0  0  0  0  0  0  0
  142.1000   80.4830  222.3140 C   0  0  0  0  0  0  0  0  0  0  0  0
  142.1900   79.1030  222.1540 C   0  0  0  0  0  0  0  0  0  0  0  0
  141.0750   78.2860  222.2070 C   0  0  0  0  0  0  0  0  0  0  0  0
  141.2000   76.9540  222.0480 N   0  0  0  0  0  0  0  0  0  0  0  0
  138.1050   74.3880  222.7180 H   0  0  0  0  0  0  0  0  0  0  0  0
  138.9963   72.2742  221.0536 H   0  0  0  0  0  0  0  0  0  0  0  0
  140.0891   72.1712  222.4716 H   0  0  0  0  0  0  0  0  0  0  0  0
  136.3204   69.1300  223.1969 H   0  0  0  0  0  0  0  0  0  0  0  0
  136.7118   69.8570  221.6861 H   0  0  0  0  0  0  0  0  0  0  0  0
  138.7971   68.5314  221.4992 H   0  0  0  0  0  0  0  0  0  0  0  0
  138.3080   66.4590  222.6840 H   0  0  0  0  0  0  0  0  0  0  0  0
  140.2362   68.9285  223.4168 H   0  0  0  0  0  0  0  0  0  0  0  0
  139.4290   66.7440  223.6790 H   0  0  0  0  0  0  0  0  0  0  0  0
  137.6877   69.3712  225.1150 H   0  0  0  0  0  0  0  0  0  0  0  0
  138.6199   71.2012  225.8839 H   0  0  0  0  0  0  0  0  0  0  0  0
  138.7670   68.7604  226.7992 H   0  0  0  0  0  0  0  0  0  0  0  0
  140.4676   68.7802  226.2440 H   0  0  0  0  0  0  0  0  0  0  0  0
  139.1294   70.3542  228.4374 H   0  0  0  0  0  0  0  0  0  0  0  0
  140.7516   69.6099  228.4016 H   0  0  0  0  0  0  0  0  0  0  0  0
  139.7927   72.2108  227.1486 H   0  0  0  0  0  0  0  0  0  0  0  0
  141.2411   71.9035  228.1760 H   0  0  0  0  0  0  0  0  0  0  0  0
  141.9939   72.2463  225.9230 H   0  0  0  0  0  0  0  0  0  0  0  0
  142.1592   70.4967  226.3067 H   0  0  0  0  0  0  0  0  0  0  0  0
  140.3545   71.8833  224.3825 H   0  0  0  0  0  0  0  0  0  0  0  0
  141.0656   70.2417  224.3192 H   0  0  0  0  0  0  0  0  0  0  0  0
  137.9421   76.1412  222.3663 H   0  0  0  0  0  0  0  0  0  0  0  0
  137.7318   78.6030  222.6593 H   0  0  0  0  0  0  0  0  0  0  0  0
  138.7386   80.7178  222.7605 H   0  0  0  0  0  0  0  0  0  0  0  0
  143.0011   81.1123  222.2691 H   0  0  0  0  0  0  0  0  0  0  0  0
  143.1768   78.6489  221.9804 H   0  0  0  0  0  0  0  0  0  0  0  0
  1  2  2  0
  2  3  1  0
  3  4  1  0
  4  5  1  0
  5  6  2  0
  5  7  1  0
  7  8  1  0
  8  9  1  0
  9 10  1  0
  9 11  1  0
 11 12  1  0
 11 13  1  0
 13 14  1  0
 14 15  1  0
 15 16  1  0
 16 17  1  0
 17 18  1  0
 18 19  1  0
  2 20  1  0
 20 21  2  0
 21 22  1  0
 22 23  2  0
 23 24  1  0
 24 25  2  0
 25 26  1  0
 25 27  1  0
 27 28  2  0
 28 29  1  0
 29 30  2  0
 13  7  1  0
 19 14  1  0
 30 20  1  0
 29 23  1  0
  3 31  1  0
  4 32  1  0
  4 33  1  0
  8 34  1  0
  8 35  1  0
  9 36  1  6
 10 37  1  0
 11 38  1  6
 12 39  1  0
 13 40  1  1
 14 41  1  0
 15 42  1  0
 15 43  1  0
 16 44  1  0
 16 45  1  0
 17 46  1  0
 17 47  1  0
 18 48  1  0
 18 49  1  0
 19 50  1  0
 19 51  1  0
 21 52  1  0
 22 53  1  0
 24 54  1  0
 27 55  1  0
 28 56  1  0
M  END
>  <smiles>  (38) 
O=C(NCC(=O)N1C[C@H](O)[C@H](O)[C@H]1C1CCCCC1)c1ccc2cc(F)ccc2n1

>  <score_type>  (38) 
oracle

>  <origin>  (38) 
autodockgpu

>  <m_score__min__energy>  (38) 
-8.8900000000000006

>  <m_primary>  (38) 
energy

>  <rmsd>  (38) 
8.794397838981805

>  <m_score__min__rmsd>  (38) 
8.794397838981805

>  <meeko>  (38) 
{"free_energy": -7.63, "intermolecular_energy": -9.72, "internal_energy": -3.27, "cluster_size": 5, "cluster_id": 3, "rank_in_cluster": 4}

>  <energy>  (38) 
-7.14

>  <cluster_rmsd>  (38) 
1.68

>  <cluster>  (38) 
1

$$$$

     RDKit          3D

 56 59  0  0  0  0  0  0  0  0999 V2000
  140.9240   71.9670  221.6880 O   0  0  0  0  0  0  0  0  0  0  0  0
  140.0440   72.0080  222.5870 C   0  0  0  0  0  0  0  0  0  0  0  0
  138.9820   72.9450  222.4430 N   0  0  0  0  0  0  0  0  0  0  0  0
  139.0480   73.7840  221.2090 C   0  0  0  0  0  0  0  0  0  0  0  0
  139.2590   75.1860  221.5910 C   0  0  0  0  0  0  0  0  0  0  0  0
  138.2270   75.7460  222.1520 O   0  0  0  0  0  0  0  0  0  0  0  0
  140.3710   76.0060  221.4590 N   0  0  0  0  0  0  0  0  0  0  0  0
  141.6280   75.4160  220.8440 C   0  0  0  0  0  0  0  0  0  0  0  0
  141.8350   76.4320  219.7380 C   0  0  2  0  0  0  0  0  0  0  0  0
  143.2140   76.6110  219.5480 O   0  0  0  0  0  0  0  0  0  0  0  0
  141.1980   77.7310  220.2630 C   0  0  2  0  0  0  0  0  0  0  0  0
  142.1840   78.7100  220.2590 O   0  0  0  0  0  0  0  0  0  0  0  0
  140.7920   77.3390  221.6770 C   0  0  1  0  0  0  0  0  0  0  0  0
  139.8720   78.2460  222.3620 C   0  0  0  0  0  0  0  0  0  0  0  0
  140.5660   79.5420  222.7090 C   0  0  0  0  0  0  0  0  0  0  0  0
  139.7620   80.2440  223.7720 C   0  0  0  0  0  0  0  0  0  0  0  0
  138.3030   79.8650  223.5820 C   0  0  0  0  0  0  0  0  0  0  0  0
  137.9720   79.7900  222.1200 C   0  0  0  0  0  0  0  0  0  0  0  0
  138.6730   78.6110  221.4970 C   0  0  0  0  0  0  0  0  0  0  0  0
  140.0690   71.1400  223.7660 C   0  0  0  0  0  0  0  0  0  0  0  0
  139.5490   69.8570  223.6080 C   0  0  0  0  0  0  0  0  0  0  0  0
  139.5300   68.9710  224.6600 C   0  0  0  0  0  0  0  0  0  0  0  0
  140.0410   69.3970  225.8700 C   0  0  0  0  0  0  0  0  0  0  0  0
  140.0180   68.5000  226.9230 C   0  0  0  0  0  0  0  0  0  0  0  0
  140.5160   68.8940  228.1330 C   0  0  0  0  0  0  0  0  0  0  0  0
  140.5220   68.0720  229.1920 F   0  0  0  0  0  0  0  0  0  0  0  0
  141.0380   70.1740  228.3030 C   0  0  0  0  0  0  0  0  0  0  0  0
  141.0420   71.0450  227.2170 C   0  0  0  0  0  0  0  0  0  0  0  0
  140.5450   70.6750  225.9800 C   0  0  0  0  0  0  0  0  0  0  0  0
  140.5640   71.5450  224.9520 N   0  0  0  0  0  0  0  0  0  0  0  0
  138.2100   73.0630  223.1200 H   0  0  0  0  0  0  0  0  0  0  0  0
  139.8823   73.4449  220.5774 H   0  0  0  0  0  0  0  0  0  0  0  0
  138.1069   73.6909  220.6472 H   0  0  0  0  0  0  0  0  0  0  0  0
  142.4681   75.3991  221.5538 H   0  0  0  0  0  0  0  0  0  0  0  0
  141.5550   74.3669  220.5215 H   0  0  0  0  0  0  0  0  0  0  0  0
  141.3922   76.1232  218.7796 H   0  0  0  0  0  0  0  0  0  0  0  0
  143.5050   77.5410  219.7090 H   0  0  0  0  0  0  0  0  0  0  0  0
  140.3494   78.1241  219.6839 H   0  0  0  0  0  0  0  0  0  0  0  0
  142.9320   78.3540  220.8030 H   0  0  0  0  0  0  0  0  0  0  0  0
  141.5951   77.4174  222.4246 H   0  0  0  0  0  0  0  0  0  0  0  0
  139.5354   77.7127  223.2633 H   0  0  0  0  0  0  0  0  0  0  0  0
  141.5775   79.3319  223.0868 H   0  0  0  0  0  0  0  0  0  0  0  0
  140.6463   80.1780  221.8151 H   0  0  0  0  0  0  0  0  0  0  0  0
  140.1034   79.9275  224.7686 H   0  0  0  0  0  0  0  0  0  0  0  0
  139.8882   81.3337  223.6902 H   0  0  0  0  0  0  0  0  0  0  0  0
  138.1188   78.8852  224.0468 H   0  0  0  0  0  0  0  0  0  0  0  0
  137.6694   80.6303  224.0542 H   0  0  0  0  0  0  0  0  0  0  0  0
  136.8849   79.6749  221.9973 H   0  0  0  0  0  0  0  0  0  0  0  0
  138.3056   80.7137  221.6246 H   0  0  0  0  0  0  0  0  0  0  0  0
  137.9826   77.7565  221.4411 H   0  0  0  0  0  0  0  0  0  0  0  0
  139.0068   78.8664  220.4805 H   0  0  0  0  0  0  0  0  0  0  0  0
  139.1490   69.5491  222.6307 H   0  0  0  0  0  0  0  0  0  0  0  0
  139.1213   67.9567  224.5413 H   0  0  0  0  0  0  0  0  0  0  0  0
  139.6066   67.4887  226.7888 H   0  0  0  0  0  0  0  0  0  0  0  0
  141.4395   70.4907  229.2769 H   0  0  0  0  0  0  0  0  0  0  0  0
  141.4525   72.0573  227.3462 H   0  0  0  0  0  0  0  0  0  0  0  0
  1  2  2  0
  2  3  1  0
  3  4  1  0
  4  5  1  0
  5  6  2  0
  5  7  1  0
  7  8  1  0
  8  9  1  0
  9 10  1  0
  9 11  1  0
 11 12  1  0
 11 13  1  0
 13 14  1  0
 14 15  1  0
 15 16  1  0
 16 17  1  0
 17 18  1  0
 18 19  1  0
  2 20  1  0
 20 21  2  0
 21 22  1  0
 22 23  2  0
 23 24  1  0
 24 25  2  0
 25 26  1  0
 25 27  1  0
 27 28  2  0
 28 29  1  0
 29 30  2  0
 13  7  1  0
 19 14  1  0
 30 20  1  0
 29 23  1  0
  3 31  1  0
  4 32  1  0
  4 33  1  0
  8 34  1  0
  8 35  1  0
  9 36  1  6
 10 37  1  0
 11 38  1  6
 12 39  1  0
 13 40  1  1
 14 41  1  0
 15 42  1  0
 15 43  1  0
 16 44  1  0
 16 45  1  0
 17 46  1  0
 17 47  1  0
 18 48  1  0
 18 49  1  0
 19 50  1  0
 19 51  1  0
 21 52  1  0
 22 53  1  0
 24 54  1  0
 27 55  1  0
 28 56  1  0
M  END
>  <smiles>  (39) 
O=C(NCC(=O)N1C[C@H](O)[C@H](O)[C@H]1C1CCCCC1)c1ccc2cc(F)ccc2n1

>  <score_type>  (39) 
oracle

>  <origin>  (39) 
autodockgpu

>  <m_score__min__energy>  (39) 
-8.8900000000000006

>  <m_primary>  (39) 
energy

>  <rmsd>  (39) 
2.46003300645667

>  <m_score__min__rmsd>  (39) 
2.46003300645667

>  <meeko>  (39) 
{"free_energy": -8.37, "intermolecular_energy": -10.45, "internal_energy": -2.82, "cluster_size": 38, "cluster_id": 1, "rank_in_cluster": 19}

>  <energy>  (39) 
-8.77

>  <cluster_rmsd>  (39) 
0.0

>  <cluster>  (39) 
2

$$$$

     RDKit          3D

 56 59  0  0  0  0  0  0  0  0999 V2000
  141.2720   72.1950  221.5850 O   0  0  0  0  0  0  0  0  0  0  0  0
  140.4190   72.3920  222.4900 C   0  0  0  0  0  0  0  0  0  0  0  0
  139.5810   73.5380  222.3830 N   0  0  0  0  0  0  0  0  0  0  0  0
  139.8270   74.3850  221.1770 C   0  0  0  0  0  0  0  0  0  0  0  0
  140.2760   75.7140  221.6080 C   0  0  0  0  0  0  0  0  0  0  0  0
  139.6350   76.1860  222.6380 O   0  0  0  0  0  0  0  0  0  0  0  0
  141.2690   76.5440  221.1050 N   0  0  0  0  0  0  0  0  0  0  0  0
  142.2670   75.9550  220.1240 C   0  0  0  0  0  0  0  0  0  0  0  0
  142.0830   76.9480  218.9940 C   0  0  2  0  0  0  0  0  0  0  0  0
  143.3200   77.1400  218.3610 O   0  0  0  0  0  0  0  0  0  0  0  0
  141.6270   78.2520  219.6750 C   0  0  2  0  0  0  0  0  0  0  0  0
  142.5390   79.2420  219.3320 O   0  0  0  0  0  0  0  0  0  0  0  0
  141.7130   77.8870  221.1500 C   0  0  1  0  0  0  0  0  0  0  0  0
  141.0500   78.7990  222.0820 C   0  0  0  0  0  0  0  0  0  0  0  0
  141.9970   79.8910  222.5190 C   0  0  0  0  0  0  0  0  0  0  0  0
  141.4530   80.5210  223.7740 C   0  0  0  0  0  0  0  0  0  0  0  0
  139.9380   80.4150  223.7320 C   0  0  0  0  0  0  0  0  0  0  0  0
  139.4390   80.6410  222.3350 C   0  0  0  0  0  0  0  0  0  0  0  0
  139.8470   79.4890  221.4540 C   0  0  0  0  0  0  0  0  0  0  0  0
  140.2570   71.4980  223.6380 C   0  0  0  0  0  0  0  0  0  0  0  0
  139.6080   70.2870  223.4010 C   0  0  0  0  0  0  0  0  0  0  0  0
  139.4100   69.3850  224.4200 C   0  0  0  0  0  0  0  0  0  0  0  0
  139.8720   69.7200  225.6770 C   0  0  0  0  0  0  0  0  0  0  0  0
  139.6680   68.8070  226.6960 C   0  0  0  0  0  0  0  0  0  0  0  0
  140.1150   69.1110  227.9510 C   0  0  0  0  0  0  0  0  0  0  0  0
  139.9470   68.2680  228.9800 F   0  0  0  0  0  0  0  0  0  0  0  0
  140.7630   70.3180  228.2000 C   0  0  0  0  0  0  0  0  0  0  0  0
  140.9480   71.2090  227.1460 C   0  0  0  0  0  0  0  0  0  0  0  0
  140.5070   70.9280  225.8650 C   0  0  0  0  0  0  0  0  0  0  0  0
  140.7030   71.8140  224.8700 N   0  0  0  0  0  0  0  0  0  0  0  0
  138.8500   73.7940  223.0670 H   0  0  0  0  0  0  0  0  0  0  0  0
  140.6025   73.9190  220.5514 H   0  0  0  0  0  0  0  0  0  0  0  0
  138.8991   74.4781  220.5936 H   0  0  0  0  0  0  0  0  0  0  0  0
  143.2929   75.9639  220.5207 H   0  0  0  0  0  0  0  0  0  0  0  0
  142.1122   74.8981  219.8614 H   0  0  0  0  0  0  0  0  0  0  0  0
  141.3577   76.6113  218.2386 H   0  0  0  0  0  0  0  0  0  0  0  0
  143.9750   77.6080  218.9330 H   0  0  0  0  0  0  0  0  0  0  0  0
  140.6287   78.6218  219.3979 H   0  0  0  0  0  0  0  0  0  0  0  0
  143.2990   78.7810  218.8930 H   0  0  0  0  0  0  0  0  0  0  0  0
  142.7146   77.9913  221.5926 H   0  0  0  0  0  0  0  0  0  0  0  0
  140.7256   78.1808  222.9320 H   0  0  0  0  0  0  0  0  0  0  0  0
  142.9902   79.4627  222.7192 H   0  0  0  0  0  0  0  0  0  0  0  0
  142.0902   80.6485  221.7268 H   0  0  0  0  0  0  0  0  0  0  0  0
  141.8403   79.9906  224.6564 H   0  0  0  0  0  0  0  0  0  0  0  0
  141.7614   81.5750  223.8379 H   0  0  0  0  0  0  0  0  0  0  0  0
  139.6349   79.4124  224.0679 H   0  0  0  0  0  0  0  0  0  0  0  0
  139.5071   81.1804  224.3942 H   0  0  0  0  0  0  0  0  0  0  0  0
  138.3419   80.7202  222.3476 H   0  0  0  0  0  0  0  0  0  0  0  0
  139.8736   81.5713  221.9404 H   0  0  0  0  0  0  0  0  0  0  0  0
  139.0141   78.7756  221.3675 H   0  0  0  0  0  0  0  0  0  0  0  0
  140.1067   79.8572  220.4505 H   0  0  0  0  0  0  0  0  0  0  0  0
  139.2505   70.0505  222.3880 H   0  0  0  0  0  0  0  0  0  0  0  0
  138.8999   68.4273  224.2393 H   0  0  0  0  0  0  0  0  0  0  0  0
  139.1554   67.8538  226.4996 H   0  0  0  0  0  0  0  0  0  0  0  0
  141.1221   70.5631  229.2104 H   0  0  0  0  0  0  0  0  0  0  0  0
  141.4595   72.1638  227.3373 H   0  0  0  0  0  0  0  0  0  0  0  0
  1  2  2  0
  2  3  1  0
  3  4  1  0
  4  5  1  0
  5  6  2  0
  5  7  1  0
  7  8  1  0
  8  9  1  0
  9 10  1  0
  9 11  1  0
 11 12  1  0
 11 13  1  0
 13 14  1  0
 14 15  1  0
 15 16  1  0
 16 17  1  0
 17 18  1  0
 18 19  1  0
  2 20  1  0
 20 21  2  0
 21 22  1  0
 22 23  2  0
 23 24  1  0
 24 25  2  0
 25 26  1  0
 25 27  1  0
 27 28  2  0
 28 29  1  0
 29 30  2  0
 13  7  1  0
 19 14  1  0
 30 20  1  0
 29 23  1  0
  3 31  1  0
  4 32  1  0
  4 33  1  0
  8 34  1  0
  8 35  1  0
  9 36  1  6
 10 37  1  0
 11 38  1  6
 12 39  1  0
 13 40  1  1
 14 41  1  0
 15 42  1  0
 15 43  1  0
 16 44  1  0
 16 45  1  0
 17 46  1  0
 17 47  1  0
 18 48  1  0
 18 49  1  0
 19 50  1  0
 19 51  1  0
 21 52  1  0
 22 53  1  0
 24 54  1  0
 27 55  1  0
 28 56  1  0
M  END
>  <smiles>  (40) 
O=C(NCC(=O)N1C[C@H](O)[C@H](O)[C@H]1C1CCCCC1)c1ccc2cc(F)ccc2n1

>  <score_type>  (40) 
oracle

>  <origin>  (40) 
autodockgpu

>  <m_score__min__energy>  (40) 
-8.8900000000000006

>  <m_primary>  (40) 
energy

>  <rmsd>  (40) 
2.4465689030586786

>  <m_score__min__rmsd>  (40) 
2.4465689030586786

>  <meeko>  (40) 
{"free_energy": -8.72, "intermolecular_energy": -10.81, "internal_energy": -2.9, "cluster_size": 38, "cluster_id": 1, "rank_in_cluster": 3}

>  <energy>  (40) 
-7.68

>  <cluster_rmsd>  (40) 
1.28

>  <cluster>  (40) 
2

$$$$

     RDKit          3D

 56 59  0  0  0  0  0  0  0  0999 V2000
  141.7690   73.6670  220.6270 O   0  0  0  0  0  0  0  0  0  0  0  0
  141.0380   74.4100  221.3330 C   0  0  0  0  0  0  0  0  0  0  0  0
  139.9930   73.8020  222.0840 N   0  0  0  0  0  0  0  0  0  0  0  0
  139.8930   72.3190  221.9350 C   0  0  0  0  0  0  0  0  0  0  0  0
  138.6710   71.8520  222.6000 C   0  0  0  0  0  0  0  0  0  0  0  0
  137.7430   72.7570  222.7080 O   0  0  0  0  0  0  0  0  0  0  0  0
  138.3420   70.6090  223.1260 N   0  0  0  0  0  0  0  0  0  0  0  0
  137.5140   69.6650  222.2720 C   0  0  0  0  0  0  0  0  0  0  0  0
  138.4360   68.4630  222.3090 C   0  0  2  0  0  0  0  0  0  0  0  0
  137.6520   67.2990  222.3130 O   0  0  0  0  0  0  0  0  0  0  0  0
  139.2080   68.5890  223.6350 C   0  0  2  0  0  0  0  0  0  0  0  0
  138.9730   67.4310  224.3660 O   0  0  0  0  0  0  0  0  0  0  0  0
  138.5500   69.8050  224.2720 C   0  0  1  0  0  0  0  0  0  0  0  0
  139.2510   70.3990  225.4090 C   0  0  0  0  0  0  0  0  0  0  0  0
  139.6410   69.3340  226.4060 C   0  0  0  0  0  0  0  0  0  0  0  0
  139.9430   70.0000  227.7230 C   0  0  0  0  0  0  0  0  0  0  0  0
  140.4710   71.3950  227.4330 C   0  0  0  0  0  0  0  0  0  0  0  0
  141.3600   71.3730  226.2240 C   0  0  0  0  0  0  0  0  0  0  0  0
  140.5380   71.0980  224.9910 C   0  0  0  0  0  0  0  0  0  0  0  0
  141.2180   75.8610  221.4110 C   0  0  0  0  0  0  0  0  0  0  0  0
  141.8100   76.4780  220.3110 C   0  0  0  0  0  0  0  0  0  0  0  0
  142.0200   77.8370  220.2960 C   0  0  0  0  0  0  0  0  0  0  0  0
  141.6250   78.5630  221.4010 C   0  0  0  0  0  0  0  0  0  0  0  0
  141.8390   79.9290  221.3780 C   0  0  0  0  0  0  0  0  0  0  0  0
  141.4590   80.6740  222.4590 C   0  0  0  0  0  0  0  0  0  0  0  0
  141.6410   82.0020  222.4960 F   0  0  0  0  0  0  0  0  0  0  0  0
  140.8670   80.0690  223.5640 C   0  0  0  0  0  0  0  0  0  0  0  0
  140.6690   78.6900  223.5470 C   0  0  0  0  0  0  0  0  0  0  0  0
  141.0440   77.9110  222.4670 C   0  0  0  0  0  0  0  0  0  0  0  0
  140.8370   76.5800  222.4860 N   0  0  0  0  0  0  0  0  0  0  0  0
  139.3360   74.3160  222.6950 H   0  0  0  0  0  0  0  0  0  0  0  0
  139.8544   72.0576  220.8672 H   0  0  0  0  0  0  0  0  0  0  0  0
  140.7709   71.8400  222.3930 H   0  0  0  0  0  0  0  0  0  0  0  0
  136.5340   69.4498  222.7228 H   0  0  0  0  0  0  0  0  0  0  0  0
  137.2499   70.0342  221.2700 H   0  0  0  0  0  0  0  0  0  0  0  0
  139.1187   68.4162  221.4478 H   0  0  0  0  0  0  0  0  0  0  0  0
  137.1940   67.1480  223.1750 H   0  0  0  0  0  0  0  0  0  0  0  0
  140.2988   68.7042  223.5526 H   0  0  0  0  0  0  0  0  0  0  0  0
  139.1330   66.6730  223.7460 H   0  0  0  0  0  0  0  0  0  0  0  0
  137.6202   69.5915  224.8196 H   0  0  0  0  0  0  0  0  0  0  0  0
  138.5539   71.1284  225.8471 H   0  0  0  0  0  0  0  0  0  0  0  0
  138.8120   68.6220  226.5317 H   0  0  0  0  0  0  0  0  0  0  0  0
  140.5264   68.7883  226.0478 H   0  0  0  0  0  0  0  0  0  0  0  0
  139.0260   70.0659  228.3270 H   0  0  0  0  0  0  0  0  0  0  0  0
  140.6890   69.4177  228.2837 H   0  0  0  0  0  0  0  0  0  0  0  0
  139.6244   72.0727  227.2489 H   0  0  0  0  0  0  0  0  0  0  0  0
  141.0520   71.7455  228.2988 H   0  0  0  0  0  0  0  0  0  0  0  0
  141.8594   72.3476  226.1201 H   0  0  0  0  0  0  0  0  0  0  0  0
  142.1141   70.5809  226.3420 H   0  0  0  0  0  0  0  0  0  0  0  0
  140.2978   72.0458  224.4871 H   0  0  0  0  0  0  0  0  0  0  0  0
  141.1041   70.4585  224.2977 H   0  0  0  0  0  0  0  0  0  0  0  0
  142.1128   75.8713  219.4448 H   0  0  0  0  0  0  0  0  0  0  0  0
  142.4879   78.3295  219.4308 H   0  0  0  0  0  0  0  0  0  0  0  0
  142.3069   80.4076  220.5050 H   0  0  0  0  0  0  0  0  0  0  0  0
  140.5613   80.6683  224.4342 H   0  0  0  0  0  0  0  0  0  0  0  0
  140.2011   78.2068  224.4173 H   0  0  0  0  0  0  0  0  0  0  0  0
  1  2  2  0
  2  3  1  0
  3  4  1  0
  4  5  1  0
  5  6  2  0
  5  7  1  0
  7  8  1  0
  8  9  1  0
  9 10  1  0
  9 11  1  0
 11 12  1  0
 11 13  1  0
 13 14  1  0
 14 15  1  0
 15 16  1  0
 16 17  1  0
 17 18  1  0
 18 19  1  0
  2 20  1  0
 20 21  2  0
 21 22  1  0
 22 23  2  0
 23 24  1  0
 24 25  2  0
 25 26  1  0
 25 27  1  0
 27 28  2  0
 28 29  1  0
 29 30  2  0
 13  7  1  0
 19 14  1  0
 30 20  1  0
 29 23  1  0
  3 31  1  0
  4 32  1  0
  4 33  1  0
  8 34  1  0
  8 35  1  0
  9 36  1  6
 10 37  1  0
 11 38  1  6
 12 39  1  0
 13 40  1  1
 14 41  1  0
 15 42  1  0
 15 43  1  0
 16 44  1  0
 16 45  1  0
 17 46  1  0
 17 47  1  0
 18 48  1  0
 18 49  1  0
 19 50  1  0
 19 51  1  0
 21 52  1  0
 22 53  1  0
 24 54  1  0
 27 55  1  0
 28 56  1  0
M  END
>  <smiles>  (41) 
O=C(NCC(=O)N1C[C@H](O)[C@H](O)[C@H]1C1CCCCC1)c1ccc2cc(F)ccc2n1

>  <score_type>  (41) 
oracle

>  <origin>  (41) 
autodockgpu

>  <m_score__min__energy>  (41) 
-8.8900000000000006

>  <m_primary>  (41) 
energy

>  <rmsd>  (41) 
8.722235663530814

>  <m_score__min__rmsd>  (41) 
8.722235663530814

>  <meeko>  (41) 
{"free_energy": -7.63, "intermolecular_energy": -9.72, "internal_energy": -3.38, "cluster_size": 5, "cluster_id": 3, "rank_in_cluster": 5}

>  <energy>  (41) 
-7.81

>  <cluster_rmsd>  (41) 
0.0

>  <cluster>  (41) 
3

$$$$

     RDKit          3D

 56 59  0  0  0  0  0  0  0  0999 V2000
  141.1300   71.9250  221.3470 O   0  0  0  0  0  0  0  0  0  0  0  0
  140.4780   72.2980  222.3560 C   0  0  0  0  0  0  0  0  0  0  0  0
  139.8880   73.5940  222.3310 N   0  0  0  0  0  0  0  0  0  0  0  0
  140.1250   74.3670  221.0740 C   0  0  0  0  0  0  0  0  0  0  0  0
  140.5070   75.7410  221.4220 C   0  0  0  0  0  0  0  0  0  0  0  0
  139.8510   76.2380  222.4300 O   0  0  0  0  0  0  0  0  0  0  0  0
  141.4480   76.5920  220.8580 N   0  0  0  0  0  0  0  0  0  0  0  0
  142.3930   76.0250  219.8130 C   0  0  0  0  0  0  0  0  0  0  0  0
  142.1160   77.0150  218.6990 C   0  0  2  0  0  0  0  0  0  0  0  0
  143.3070   77.2320  217.9890 O   0  0  0  0  0  0  0  0  0  0  0  0
  141.6790   78.3080  219.4110 C   0  0  2  0  0  0  0  0  0  0  0  0
  142.5470   79.3170  219.0130 O   0  0  0  0  0  0  0  0  0  0  0  0
  141.8660   77.9440  220.8770 C   0  0  1  0  0  0  0  0  0  0  0  0
  141.2460   78.8410  221.8520 C   0  0  0  0  0  0  0  0  0  0  0  0
  142.2960   79.6670  222.5540 C   0  0  0  0  0  0  0  0  0  0  0  0
  141.6970   80.2270  223.8180 C   0  0  0  0  0  0  0  0  0  0  0  0
  140.2070   80.4190  223.5840 C   0  0  0  0  0  0  0  0  0  0  0  0
  139.9600   80.9110  222.1890 C   0  0  0  0  0  0  0  0  0  0  0  0
  140.2820   79.8220  221.1980 C   0  0  0  0  0  0  0  0  0  0  0  0
  140.3030   71.4620  223.5450 C   0  0  0  0  0  0  0  0  0  0  0  0
  139.6480   70.2450  223.3630 C   0  0  0  0  0  0  0  0  0  0  0  0
  139.4380   69.3950  224.4240 C   0  0  0  0  0  0  0  0  0  0  0  0
  139.8950   69.7870  225.6660 C   0  0  0  0  0  0  0  0  0  0  0  0
  139.6810   68.9260  226.7260 C   0  0  0  0  0  0  0  0  0  0  0  0
  140.1220   69.2880  227.9680 C   0  0  0  0  0  0  0  0  0  0  0  0
  139.9430   68.4970  229.0360 F   0  0  0  0  0  0  0  0  0  0  0  0
  140.7760   70.5020  228.1620 C   0  0  0  0  0  0  0  0  0  0  0  0
  140.9720   71.3400  227.0680 C   0  0  0  0  0  0  0  0  0  0  0  0
  140.5370   71.0000  225.7990 C   0  0  0  0  0  0  0  0  0  0  0  0
  140.7440   71.8350  224.7630 N   0  0  0  0  0  0  0  0  0  0  0  0
  139.3330   74.0000  223.1030 H   0  0  0  0  0  0  0  0  0  0  0  0
  140.9338   73.8943  220.4974 H   0  0  0  0  0  0  0  0  0  0  0  0
  139.2078   74.3790  220.4669 H   0  0  0  0  0  0  0  0  0  0  0  0
  143.4419   76.0551  220.1429 H   0  0  0  0  0  0  0  0  0  0  0  0
  142.2436   74.9653  219.5585 H   0  0  0  0  0  0  0  0  0  0  0  0
  141.3504   76.6653  217.9908 H   0  0  0  0  0  0  0  0  0  0  0  0
  143.9710   77.7500  218.5040 H   0  0  0  0  0  0  0  0  0  0  0  0
  140.6577   78.6573  219.1989 H   0  0  0  0  0  0  0  0  0  0  0  0
  143.4410   78.8980  218.9280 H   0  0  0  0  0  0  0  0  0  0  0  0
  142.8915   78.0693  221.2546 H   0  0  0  0  0  0  0  0  0  0  0  0
  140.7023   78.1949  222.5569 H   0  0  0  0  0  0  0  0  0  0  0  0
  143.1612   79.0346  222.8018 H   0  0  0  0  0  0  0  0  0  0  0  0
  142.6307   80.4860  221.9003 H   0  0  0  0  0  0  0  0  0  0  0  0
  141.8573   79.5257  224.6501 H   0  0  0  0  0  0  0  0  0  0  0  0
  142.1712   81.1858  224.0746 H   0  0  0  0  0  0  0  0  0  0  0  0
  139.6902   79.4586  223.7272 H   0  0  0  0  0  0  0  0  0  0  0  0
  139.8246   81.1621  224.2992 H   0  0  0  0  0  0  0  0  0  0  0  0
  138.9033   81.1983  222.0850 H   0  0  0  0  0  0  0  0  0  0  0  0
  140.6025   81.7820  221.9924 H   0  0  0  0  0  0  0  0  0  0  0  0
  139.3587   79.2981  220.9097 H   0  0  0  0  0  0  0  0  0  0  0  0
  140.7406   80.2564  220.2974 H   0  0  0  0  0  0  0  0  0  0  0  0
  139.2953   69.9614  222.3604 H   0  0  0  0  0  0  0  0  0  0  0  0
  138.9221   68.4332  224.2869 H   0  0  0  0  0  0  0  0  0  0  0  0
  139.1650   67.9667  226.5727 H   0  0  0  0  0  0  0  0  0  0  0  0
  141.1312   70.7934  229.1615 H   0  0  0  0  0  0  0  0  0  0  0  0
  141.4876   72.3003  227.2164 H   0  0  0  0  0  0  0  0  0  0  0  0
  1  2  2  0
  2  3  1  0
  3  4  1  0
  4  5  1  0
  5  6  2  0
  5  7  1  0
  7  8  1  0
  8  9  1  0
  9 10  1  0
  9 11  1  0
 11 12  1  0
 11 13  1  0
 13 14  1  0
 14 15  1  0
 15 16  1  0
 16 17  1  0
 17 18  1  0
 18 19  1  0
  2 20  1  0
 20 21  2  0
 21 22  1  0
 22 23  2  0
 23 24  1  0
 24 25  2  0
 25 26  1  0
 25 27  1  0
 27 28  2  0
 28 29  1  0
 29 30  2  0
 13  7  1  0
 19 14  1  0
 30 20  1  0
 29 23  1  0
  3 31  1  0
  4 32  1  0
  4 33  1  0
  8 34  1  0
  8 35  1  0
  9 36  1  6
 10 37  1  0
 11 38  1  1
 12 39  1  0
 13 40  1  1
 14 41  1  0
 15 42  1  0
 15 43  1  0
 16 44  1  0
 16 45  1  0
 17 46  1  0
 17 47  1  0
 18 48  1  0
 18 49  1  0
 19 50  1  0
 19 51  1  0
 21 52  1  0
 22 53  1  0
 24 54  1  0
 27 55  1  0
 28 56  1  0
M  END
>  <smiles>  (42) 
O=C(NCC(=O)N1C[C@H](O)[C@H](O)[C@H]1C1CCCCC1)c1ccc2cc(F)ccc2n1

>  <score_type>  (42) 
oracle

>  <origin>  (42) 
autodockgpu

>  <m_score__min__energy>  (42) 
-8.8900000000000006

>  <m_primary>  (42) 
energy

>  <rmsd>  (42) 
2.4257850824716938

>  <m_score__min__rmsd>  (42) 
2.4257850824716938

>  <meeko>  (42) 
{"free_energy": -8.64, "intermolecular_energy": -10.73, "internal_energy": -2.99, "cluster_size": 38, "cluster_id": 1, "rank_in_cluster": 9}

>  <energy>  (42) 
-7.71

>  <cluster_rmsd>  (42) 
0.14

>  <cluster>  (42) 
3

$$$$

     RDKit          3D

 56 59  0  0  0  0  0  0  0  0999 V2000
  139.8070   73.4490  222.6520 O   0  0  0  0  0  0  0  0  0  0  0  0
  140.2980   72.2910  222.6390 C   0  0  0  0  0  0  0  0  0  0  0  0
  140.9330   71.8460  221.4450 N   0  0  0  0  0  0  0  0  0  0  0  0
  140.9350   72.8380  220.3280 C   0  0  0  0  0  0  0  0  0  0  0  0
  141.9940   73.8270  220.5670 C   0  0  0  0  0  0  0  0  0  0  0  0
  141.6140   74.8560  221.2660 O   0  0  0  0  0  0  0  0  0  0  0  0
  143.3260   73.8430  220.1760 N   0  0  0  0  0  0  0  0  0  0  0  0
  144.2800   72.8660  220.8390 C   0  0  0  0  0  0  0  0  0  0  0  0
  144.8300   72.2060  219.5900 C   0  0  2  0  0  0  0  0  0  0  0  0
  146.1790   71.8880  219.8100 O   0  0  0  0  0  0  0  0  0  0  0  0
  144.7080   73.2710  218.4860 C   0  0  2  0  0  0  0  0  0  0  0  0
  145.9800   73.4840  217.9700 O   0  0  0  0  0  0  0  0  0  0  0  0
  144.2010   74.4790  219.2620 C   0  0  1  0  0  0  0  0  0  0  0  0
  143.6750   75.5870  218.4660 C   0  0  0  0  0  0  0  0  0  0  0  0
  142.5440   75.1150  217.5840 C   0  0  0  0  0  0  0  0  0  0  0  0
  142.3360   76.1310  216.4910 C   0  0  0  0  0  0  0  0  0  0  0  0
  142.7300   77.4930  217.0370 C   0  0  0  0  0  0  0  0  0  0  0  0
  142.2970   77.6250  218.4670 C   0  0  0  0  0  0  0  0  0  0  0  0
  143.1140   76.7040  219.3360 C   0  0  0  0  0  0  0  0  0  0  0  0
  140.2430   71.3900  223.7920 C   0  0  0  0  0  0  0  0  0  0  0  0
  139.6600   70.1410  223.5820 C   0  0  0  0  0  0  0  0  0  0  0  0
  139.5640   69.2290  224.6070 C   0  0  0  0  0  0  0  0  0  0  0  0
  140.0610   69.5920  225.8430 C   0  0  0  0  0  0  0  0  0  0  0  0
  139.9600   68.6700  226.8670 C   0  0  0  0  0  0  0  0  0  0  0  0
  140.4430   69.0020  228.1020 C   0  0  0  0  0  0  0  0  0  0  0  0
  140.3740   68.1510  229.1360 F   0  0  0  0  0  0  0  0  0  0  0  0
  141.0270   70.2460  228.3240 C   0  0  0  0  0  0  0  0  0  0  0  0
  141.1090   71.1460  227.2650 C   0  0  0  0  0  0  0  0  0  0  0  0
  140.6290   70.8380  226.0040 C   0  0  0  0  0  0  0  0  0  0  0  0
  140.7240   71.7340  225.0030 N   0  0  0  0  0  0  0  0  0  0  0  0
  141.3680   70.9160  221.3250 H   0  0  0  0  0  0  0  0  0  0  0  0
  141.1223   72.3203  219.3757 H   0  0  0  0  0  0  0  0  0  0  0  0
  139.9593   73.3436  220.2790 H   0  0  0  0  0  0  0  0  0  0  0  0
  145.0636   73.3788  221.4161 H   0  0  0  0  0  0  0  0  0  0  0  0
  143.8308   72.1877  221.5793 H   0  0  0  0  0  0  0  0  0  0  0  0
  144.2975   71.2821  219.3200 H   0  0  0  0  0  0  0  0  0  0  0  0
  146.3490   71.5480  220.7210 H   0  0  0  0  0  0  0  0  0  0  0  0
  144.0528   73.0190  217.6391 H   0  0  0  0  0  0  0  0  0  0  0  0
  146.5430   73.7840  218.7300 H   0  0  0  0  0  0  0  0  0  0  0  0
  144.9853   75.0687  219.7591 H   0  0  0  0  0  0  0  0  0  0  0  0
  144.5212   75.9633  217.8724 H   0  0  0  0  0  0  0  0  0  0  0  0
  142.7998   74.1409  217.1417 H   0  0  0  0  0  0  0  0  0  0  0  0
  141.6240   75.0045  218.1767 H   0  0  0  0  0  0  0  0  0  0  0  0
  142.9642   75.8803  215.6235 H   0  0  0  0  0  0  0  0  0  0  0  0
  141.2841   76.1372  216.1693 H   0  0  0  0  0  0  0  0  0  0  0  0
  143.8225   77.6061  216.9766 H   0  0  0  0  0  0  0  0  0  0  0  0
  142.2370   78.2744  216.4400 H   0  0  0  0  0  0  0  0  0  0  0  0
  142.4427   78.6638  218.7981 H   0  0  0  0  0  0  0  0  0  0  0  0
  141.2341   77.3544  218.5506 H   0  0  0  0  0  0  0  0  0  0  0  0
  143.9401   77.2653  219.7970 H   0  0  0  0  0  0  0  0  0  0  0  0
  142.4837   76.2804  220.1318 H   0  0  0  0  0  0  0  0  0  0  0  0
  139.2726   69.8822  222.5856 H   0  0  0  0  0  0  0  0  0  0  0  0
  139.1058   68.2418  224.4472 H   0  0  0  0  0  0  0  0  0  0  0  0
  139.4993   67.6866  226.6917 H   0  0  0  0  0  0  0  0  0  0  0  0
  141.4164   70.5129  229.3176 H   0  0  0  0  0  0  0  0  0  0  0  0
  141.5687   72.1307  227.4355 H   0  0  0  0  0  0  0  0  0  0  0  0
  1  2  2  0
  2  3  1  0
  3  4  1  0
  4  5  1  0
  5  6  2  0
  5  7  1  0
  7  8  1  0
  8  9  1  0
  9 10  1  0
  9 11  1  0
 11 12  1  0
 11 13  1  0
 13 14  1  0
 14 15  1  0
 15 16  1  0
 16 17  1  0
 17 18  1  0
 18 19  1  0
  2 20  1  0
 20 21  2  0
 21 22  1  0
 22 23  2  0
 23 24  1  0
 24 25  2  0
 25 26  1  0
 25 27  1  0
 27 28  2  0
 28 29  1  0
 29 30  2  0
 13  7  1  0
 19 14  1  0
 30 20  1  0
 29 23  1  0
  3 31  1  0
  4 32  1  0
  4 33  1  0
  8 34  1  0
  8 35  1  0
  9 36  1  6
 10 37  1  0
 11 38  1  6
 12 39  1  0
 13 40  1  1
 14 41  1  0
 15 42  1  0
 15 43  1  0
 16 44  1  0
 16 45  1  0
 17 46  1  0
 17 47  1  0
 18 48  1  0
 18 49  1  0
 19 50  1  0
 19 51  1  0
 21 52  1  0
 22 53  1  0
 24 54  1  0
 27 55  1  0
 28 56  1  0
M  END
>  <smiles>  (43) 
O=C(NCC(=O)N1C[C@H](O)[C@H](O)[C@H]1C1CCCCC1)c1ccc2cc(F)ccc2n1

>  <score_type>  (43) 
oracle

>  <origin>  (43) 
autodockgpu

>  <m_score__min__energy>  (43) 
-8.8900000000000006

>  <m_primary>  (43) 
energy

>  <rmsd>  (43) 
3.443806573046853

>  <m_score__min__rmsd>  (43) 
3.443806573046853

>  <meeko>  (43) 
{"free_energy": -8.77, "intermolecular_energy": -10.86, "internal_energy": -2.11, "cluster_size": 2, "cluster_id": 2, "rank_in_cluster": 1}

>  <energy>  (43) 
-7.68

>  <cluster_rmsd>  (43) 
0.38

>  <cluster>  (43) 
3

$$$$

     RDKit          3D

 56 59  0  0  0  0  0  0  0  0999 V2000
  141.3580   72.5730  221.9130 O   0  0  0  0  0  0  0  0  0  0  0  0
  140.3300   72.5120  222.6350 C   0  0  0  0  0  0  0  0  0  0  0  0
  139.2390   73.3720  222.3220 N   0  0  0  0  0  0  0  0  0  0  0  0
  139.4610   74.2630  221.1440 C   0  0  0  0  0  0  0  0  0  0  0  0
  140.2310   75.4380  221.5690 C   0  0  0  0  0  0  0  0  0  0  0  0
  139.8430   75.9490  222.7010 O   0  0  0  0  0  0  0  0  0  0  0  0
  141.3000   76.0880  220.9680 N   0  0  0  0  0  0  0  0  0  0  0  0
  142.2830   75.2580  220.1600 C   0  0  0  0  0  0  0  0  0  0  0  0
  142.2130   76.0310  218.8590 C   0  0  2  0  0  0  0  0  0  0  0  0
  143.4820   76.0140  218.2600 O   0  0  0  0  0  0  0  0  0  0  0  0
  141.8360   77.4670  219.2640 C   0  0  2  0  0  0  0  0  0  0  0  0
  142.8320   78.3100  218.7870 O   0  0  0  0  0  0  0  0  0  0  0  0
  141.8440   77.3820  220.7840 C   0  0  1  0  0  0  0  0  0  0  0  0
  141.2220   78.4960  221.4990 C   0  0  0  0  0  0  0  0  0  0  0  0
  141.5130   78.4040  222.9780 C   0  0  0  0  0  0  0  0  0  0  0  0
  140.5240   79.2700  223.7130 C   0  0  0  0  0  0  0  0  0  0  0  0
  140.1380   80.4210  222.7990 C   0  0  0  0  0  0  0  0  0  0  0  0
  141.3340   80.8960  222.0290 C   0  0  0  0  0  0  0  0  0  0  0  0
  141.7510   79.8460  221.0320 C   0  0  0  0  0  0  0  0  0  0  0  0
  140.2110   71.6000  223.7740 C   0  0  0  0  0  0  0  0  0  0  0  0
  139.5320   70.4040  223.5500 C   0  0  0  0  0  0  0  0  0  0  0  0
  139.3710   69.4860  224.5620 C   0  0  0  0  0  0  0  0  0  0  0  0
  139.9000   69.7920  225.8000 C   0  0  0  0  0  0  0  0  0  0  0  0
  139.7330   68.8640  226.8120 C   0  0  0  0  0  0  0  0  0  0  0  0
  140.2470   69.1390  228.0480 C   0  0  0  0  0  0  0  0  0  0  0  0
  140.1170   68.2810  229.0700 F   0  0  0  0  0  0  0  0  0  0  0  0
  140.9250   70.3320  228.2850 C   0  0  0  0  0  0  0  0  0  0  0  0
  141.0710   71.2390  227.2380 C   0  0  0  0  0  0  0  0  0  0  0  0
  140.5630   70.9870  225.9760 C   0  0  0  0  0  0  0  0  0  0  0  0
  140.7230   71.8880  224.9870 N   0  0  0  0  0  0  0  0  0  0  0  0
  138.3500   73.4040  222.8480 H   0  0  0  0  0  0  0  0  0  0  0  0
  140.0195   73.7171  220.3693 H   0  0  0  0  0  0  0  0  0  0  0  0
  138.4919   74.5835  220.7339 H   0  0  0  0  0  0  0  0  0  0  0  0
  143.2928   75.2709  220.5960 H   0  0  0  0  0  0  0  0  0  0  0  0
  142.0570   74.1837  220.0902 H   0  0  0  0  0  0  0  0  0  0  0  0
  141.4892   75.6096  218.1458 H   0  0  0  0  0  0  0  0  0  0  0  0
  144.1360   76.5820  218.7330 H   0  0  0  0  0  0  0  0  0  0  0  0
  140.8787   77.8453  218.8761 H   0  0  0  0  0  0  0  0  0  0  0  0
  143.3040   77.8080  218.0740 H   0  0  0  0  0  0  0  0  0  0  0  0
  142.8354   77.4995  221.2459 H   0  0  0  0  0  0  0  0  0  0  0  0
  140.1437   78.4249  221.2935 H   0  0  0  0  0  0  0  0  0  0  0  0
  141.4130   77.3607  223.3119 H   0  0  0  0  0  0  0  0  0  0  0  0
  142.5386   78.7449  223.1828 H   0  0  0  0  0  0  0  0  0  0  0  0
  139.6309   78.6814  223.9697 H   0  0  0  0  0  0  0  0  0  0  0  0
  140.9687   79.6532  224.6433 H   0  0  0  0  0  0  0  0  0  0  0  0
  139.3641   80.0817  222.0948 H   0  0  0  0  0  0  0  0  0  0  0  0
  139.7528   81.2504  223.4103 H   0  0  0  0  0  0  0  0  0  0  0  0
  141.0800   81.8244  221.4965 H   0  0  0  0  0  0  0  0  0  0  0  0
  142.1635   81.0832  222.7268 H   0  0  0  0  0  0  0  0  0  0  0  0
  141.3324   80.0864  220.0435 H   0  0  0  0  0  0  0  0  0  0  0  0
  142.8479   79.8142  220.9559 H   0  0  0  0  0  0  0  0  0  0  0  0
  139.1199   70.1914  222.5525 H   0  0  0  0  0  0  0  0  0  0  0  0
  138.8382   68.5391  224.3904 H   0  0  0  0  0  0  0  0  0  0  0  0
  139.1964   67.9221  226.6254 H   0  0  0  0  0  0  0  0  0  0  0  0
  141.3375   70.5539  229.2803 H   0  0  0  0  0  0  0  0  0  0  0  0
  141.6057   72.1830  227.4198 H   0  0  0  0  0  0  0  0  0  0  0  0
  1  2  2  0
  2  3  1  0
  3  4  1  0
  4  5  1  0
  5  6  2  0
  5  7  1  0
  7  8  1  0
  8  9  1  0
  9 10  1  0
  9 11  1  0
 11 12  1  0
 11 13  1  0
 13 14  1  0
 14 15  1  0
 15 16  1  0
 16 17  1  0
 17 18  1  0
 18 19  1  0
  2 20  1  0
 20 21  2  0
 21 22  1  0
 22 23  2  0
 23 24  1  0
 24 25  2  0
 25 26  1  0
 25 27  1  0
 27 28  2  0
 28 29  1  0
 29 30  2  0
 13  7  1  0
 19 14  1  0
 30 20  1  0
 29 23  1  0
  3 31  1  0
  4 32  1  0
  4 33  1  0
  8 34  1  0
  8 35  1  0
  9 36  1  6
 10 37  1  0
 11 38  1  6
 12 39  1  0
 13 40  1  1
 14 41  1  0
 15 42  1  0
 15 43  1  0
 16 44  1  0
 16 45  1  0
 17 46  1  0
 17 47  1  0
 18 48  1  0
 18 49  1  0
 19 50  1  0
 19 51  1  0
 21 52  1  0
 22 53  1  0
 24 54  1  0
 27 55  1  0
 28 56  1  0
M  END
>  <smiles>  (44) 
O=C(NCC(=O)N1C[C@H](O)[C@H](O)[C@H]1C1CCCCC1)c1ccc2cc(F)ccc2n1

>  <score_type>  (44) 
oracle

>  <origin>  (44) 
autodockgpu

>  <m_score__min__energy>  (44) 
-8.8900000000000006

>  <m_primary>  (44) 
energy

>  <rmsd>  (44) 
2.141281757230265

>  <m_score__min__rmsd>  (44) 
2.141281757230265

>  <meeko>  (44) 
{"free_energy": -8.4, "intermolecular_energy": -10.49, "internal_energy": -2.87, "cluster_size": 38, "cluster_id": 1, "rank_in_cluster": 16}

>  <energy>  (44) 
-7.63

>  <cluster_rmsd>  (44) 
0.88

>  <cluster>  (44) 
3

$$$$

     RDKit          3D

 56 59  0  0  0  0  0  0  0  0999 V2000
  141.1850   72.0790  221.5070 O   0  0  0  0  0  0  0  0  0  0  0  0
  140.3920   72.3450  222.4480 C   0  0  0  0  0  0  0  0  0  0  0  0
  139.6020   73.5250  222.3450 N   0  0  0  0  0  0  0  0  0  0  0  0
  139.8200   74.3200  221.0990 C   0  0  0  0  0  0  0  0  0  0  0  0
  140.5090   75.5700  221.4430 C   0  0  0  0  0  0  0  0  0  0  0  0
  140.0750   76.1360  222.5310 O   0  0  0  0  0  0  0  0  0  0  0  0
  141.5420   76.2420  220.8040 N   0  0  0  0  0  0  0  0  0  0  0  0
  142.5340   75.4270  219.9930 C   0  0  0  0  0  0  0  0  0  0  0  0
  142.4090   76.1680  218.6760 C   0  0  2  0  0  0  0  0  0  0  0  0
  143.6650   76.1800  218.0500 O   0  0  0  0  0  0  0  0  0  0  0  0
  141.9930   77.5990  219.0590 C   0  0  2  0  0  0  0  0  0  0  0  0
  142.9490   78.4650  218.5410 O   0  0  0  0  0  0  0  0  0  0  0  0
  142.0370   77.5490  220.5800 C   0  0  1  0  0  0  0  0  0  0  0  0
  141.3930   78.6570  221.2840 C   0  0  0  0  0  0  0  0  0  0  0  0
  141.7810   78.6550  222.7430 C   0  0  0  0  0  0  0  0  0  0  0  0
  140.7880   79.4940  223.5030 C   0  0  0  0  0  0  0  0  0  0  0  0
  140.2740   80.5740  222.5660 C   0  0  0  0  0  0  0  0  0  0  0  0
  141.3880   81.0830  221.6980 C   0  0  0  0  0  0  0  0  0  0  0  0
  141.8060   80.0120  220.7240 C   0  0  0  0  0  0  0  0  0  0  0  0
  140.2520   71.4970  223.6330 C   0  0  0  0  0  0  0  0  0  0  0  0
  139.6340   70.2620  223.4490 C   0  0  0  0  0  0  0  0  0  0  0  0
  139.4580   69.4000  224.5070 C   0  0  0  0  0  0  0  0  0  0  0  0
  139.9120   69.7990  225.7470 C   0  0  0  0  0  0  0  0  0  0  0  0
  139.7310   68.9260  226.8040 C   0  0  0  0  0  0  0  0  0  0  0  0
  140.1710   69.2950  228.0450 C   0  0  0  0  0  0  0  0  0  0  0  0
  140.0240   68.4930  229.1090 F   0  0  0  0  0  0  0  0  0  0  0  0
  140.7900   70.5260  228.2410 C   0  0  0  0  0  0  0  0  0  0  0  0
  140.9520   71.3760  227.1500 C   0  0  0  0  0  0  0  0  0  0  0  0
  140.5180   71.0300  225.8820 C   0  0  0  0  0  0  0  0  0  0  0  0
  140.6910   71.8770  224.8500 N   0  0  0  0  0  0  0  0  0  0  0  0
  138.9220   73.8370  223.0580 H   0  0  0  0  0  0  0  0  0  0  0  0
  140.4362   73.7410  220.3954 H   0  0  0  0  0  0  0  0  0  0  0  0
  138.8516   74.5470  220.6292 H   0  0  0  0  0  0  0  0  0  0  0  0
  143.5522   75.4834  220.4054 H   0  0  0  0  0  0  0  0  0  0  0  0
  142.3430   74.3445  219.9523 H   0  0  0  0  0  0  0  0  0  0  0  0
  141.6847   75.7071  217.9882 H   0  0  0  0  0  0  0  0  0  0  0  0
  144.3150   76.7680  218.5050 H   0  0  0  0  0  0  0  0  0  0  0  0
  141.0149   77.9358  218.6850 H   0  0  0  0  0  0  0  0  0  0  0  0
  143.8200   78.1700  218.9110 H   0  0  0  0  0  0  0  0  0  0  0  0
  143.0334   77.7105  221.0171 H   0  0  0  0  0  0  0  0  0  0  0  0
  140.3106   78.5112  221.1529 H   0  0  0  0  0  0  0  0  0  0  0  0
  141.7685   77.6249  223.1288 H   0  0  0  0  0  0  0  0  0  0  0  0
  142.7935   79.0675  222.8641 H   0  0  0  0  0  0  0  0  0  0  0  0
  139.9516   78.8660  223.8438 H   0  0  0  0  0  0  0  0  0  0  0  0
  141.2650   79.9472  224.3845 H   0  0  0  0  0  0  0  0  0  0  0  0
  139.4805   80.1550  221.9297 H   0  0  0  0  0  0  0  0  0  0  0  0
  139.8765   81.4074  223.1639 H   0  0  0  0  0  0  0  0  0  0  0  0
  141.0431   81.9675  221.1424 H   0  0  0  0  0  0  0  0  0  0  0  0
  142.2463   81.3541  222.3303 H   0  0  0  0  0  0  0  0  0  0  0  0
  141.3119   80.1788  219.7555 H   0  0  0  0  0  0  0  0  0  0  0  0
  142.8959   80.0417  220.5781 H   0  0  0  0  0  0  0  0  0  0  0  0
  139.2831   69.9729  222.4474 H   0  0  0  0  0  0  0  0  0  0  0  0
  138.9707   68.4236  224.3684 H   0  0  0  0  0  0  0  0  0  0  0  0
  139.2422   67.9528  226.6494 H   0  0  0  0  0  0  0  0  0  0  0  0
  141.1447   70.8220  229.2393 H   0  0  0  0  0  0  0  0  0  0  0  0
  141.4390   72.3508  227.3002 H   0  0  0  0  0  0  0  0  0  0  0  0
  1  2  2  0
  2  3  1  0
  3  4  1  0
  4  5  1  0
  5  6  2  0
  5  7  1  0
  7  8  1  0
  8  9  1  0
  9 10  1  0
  9 11  1  0
 11 12  1  0
 11 13  1  0
 13 14  1  0
 14 15  1  0
 15 16  1  0
 16 17  1  0
 17 18  1  0
 18 19  1  0
  2 20  1  0
 20 21  2  0
 21 22  1  0
 22 23  2  0
 23 24  1  0
 24 25  2  0
 25 26  1  0
 25 27  1  0
 27 28  2  0
 28 29  1  0
 29 30  2  0
 13  7  1  0
 19 14  1  0
 30 20  1  0
 29 23  1  0
  3 31  1  0
  4 32  1  0
  4 33  1  0
  8 34  1  0
  8 35  1  0
  9 36  1  6
 10 37  1  0
 11 38  1  1
 12 39  1  0
 13 40  1  6
 14 41  1  0
 15 42  1  0
 15 43  1  0
 16 44  1  0
 16 45  1  0
 17 46  1  0
 17 47  1  0
 18 48  1  0
 18 49  1  0
 19 50  1  0
 19 51  1  0
 21 52  1  0
 22 53  1  0
 24 54  1  0
 27 55  1  0
 28 56  1  0
M  END
>  <smiles>  (45) 
O=C(NCC(=O)N1C[C@H](O)[C@H](O)[C@H]1C1CCCCC1)c1ccc2cc(F)ccc2n1

>  <score_type>  (45) 
oracle

>  <origin>  (45) 
autodockgpu

>  <m_score__min__energy>  (45) 
-8.8900000000000006

>  <m_primary>  (45) 
energy

>  <rmsd>  (45) 
2.225440514758452

>  <m_score__min__rmsd>  (45) 
2.225440514758452

>  <meeko>  (45) 
{"free_energy": -8.89, "intermolecular_energy": -10.97, "internal_energy": -2.83, "cluster_size": 38, "cluster_id": 1, "rank_in_cluster": 1}

>  <energy>  (45) 
-7.63

>  <cluster_rmsd>  (45) 
0.31

>  <cluster>  (45) 
3

$$$$

     RDKit          3D

 56 59  0  0  0  0  0  0  0  0999 V2000
  139.1650   70.7060  221.5130 O   0  0  0  0  0  0  0  0  0  0  0  0
  139.4300   71.2480  222.6170 C   0  0  0  0  0  0  0  0  0  0  0  0
  139.5480   72.6660  222.6560 N   0  0  0  0  0  0  0  0  0  0  0  0
  139.3360   73.3500  221.3460 C   0  0  0  0  0  0  0  0  0  0  0  0
  140.0010   74.6580  221.3740 C   0  0  0  0  0  0  0  0  0  0  0  0
  139.8420   75.3140  222.4860 O   0  0  0  0  0  0  0  0  0  0  0  0
  140.7720   75.3050  220.4170 N   0  0  0  0  0  0  0  0  0  0  0  0
  140.4610   76.7600  220.1090 C   0  0  0  0  0  0  0  0  0  0  0  0
  141.8410   77.3380  220.3480 C   0  0  2  0  0  0  0  0  0  0  0  0
  142.0470   78.3900  219.4420 O   0  0  0  0  0  0  0  0  0  0  0  0
  142.8170   76.1850  220.0530 C   0  0  2  0  0  0  0  0  0  0  0  0
  143.6810   76.6140  219.0530 O   0  0  0  0  0  0  0  0  0  0  0  0
  141.8790   75.0910  219.5620 C   0  0  1  0  0  0  0  0  0  0  0  0
  142.4390   73.7420  219.4870 C   0  0  0  0  0  0  0  0  0  0  0  0
  142.9180   73.2920  220.8470 C   0  0  0  0  0  0  0  0  0  0  0  0
  143.8630   72.1340  220.6610 C   0  0  0  0  0  0  0  0  0  0  0  0
  143.4450   71.3860  219.4060 C   0  0  0  0  0  0  0  0  0  0  0  0
  141.9490   71.3380  219.3030 C   0  0  0  0  0  0  0  0  0  0  0  0
  141.4120   72.7180  219.0250 C   0  0  0  0  0  0  0  0  0  0  0  0
  139.6230   70.4850  223.8520 C   0  0  0  0  0  0  0  0  0  0  0  0
  139.1960   69.1580  223.8400 C   0  0  0  0  0  0  0  0  0  0  0  0
  139.3350   68.3650  224.9560 C   0  0  0  0  0  0  0  0  0  0  0  0
  139.9090   68.9260  226.0790 C   0  0  0  0  0  0  0  0  0  0  0  0
  140.0460   68.1220  227.1950 C   0  0  0  0  0  0  0  0  0  0  0  0
  140.6090   68.6510  228.3220 C   0  0  0  0  0  0  0  0  0  0  0  0
  140.7690   67.9230  229.4360 F   0  0  0  0  0  0  0  0  0  0  0  0
  141.0390   69.9750  228.3460 C   0  0  0  0  0  0  0  0  0  0  0  0
  140.8830   70.7510  227.2000 C   0  0  0  0  0  0  0  0  0  0  0  0
  140.3160   70.2430  226.0450 C   0  0  0  0  0  0  0  0  0  0  0  0
  140.1810   71.0230  224.9550 N   0  0  0  0  0  0  0  0  0  0  0  0
  139.7630   73.2120  223.5070 H   0  0  0  0  0  0  0  0  0  0  0  0
  139.7618   72.7375  220.5375 H   0  0  0  0  0  0  0  0  0  0  0  0
  138.2589   73.4856  221.1688 H   0  0  0  0  0  0  0  0  0  0  0  0
  140.1260   76.9018  219.0709 H   0  0  0  0  0  0  0  0  0  0  0  0
  139.6459   77.2095  220.6952 H   0  0  0  0  0  0  0  0  0  0  0  0
  141.9742   77.7285  221.3677 H   0  0  0  0  0  0  0  0  0  0  0  0
  143.0000   78.6300  219.3430 H   0  0  0  0  0  0  0  0  0  0  0  0
  143.4394   75.8490  220.8954 H   0  0  0  0  0  0  0  0  0  0  0  0
  144.0140   77.5040  219.3360 H   0  0  0  0  0  0  0  0  0  0  0  0
  141.6151   75.1550  218.4960 H   0  0  0  0  0  0  0  0  0  0  0  0
  143.2657   73.7959  218.7634 H   0  0  0  0  0  0  0  0  0  0  0  0
  143.4397   74.1199  221.3494 H   0  0  0  0  0  0  0  0  0  0  0  0
  142.0620   72.9847  221.4657 H   0  0  0  0  0  0  0  0  0  0  0  0
  144.8921   72.5059  220.5489 H   0  0  0  0  0  0  0  0  0  0  0  0
  143.8271   71.4664  221.5345 H   0  0  0  0  0  0  0  0  0  0  0  0
  143.8533   71.9007  218.5237 H   0  0  0  0  0  0  0  0  0  0  0  0
  143.8336   70.3581  219.4557 H   0  0  0  0  0  0  0  0  0  0  0  0
  141.6608   70.6622  218.4843 H   0  0  0  0  0  0  0  0  0  0  0  0
  141.5313   70.9700  220.2517 H   0  0  0  0  0  0  0  0  0  0  0  0
  141.2318   72.8349  217.9462 H   0  0  0  0  0  0  0  0  0  0  0  0
  140.4644   72.8675  219.5633 H   0  0  0  0  0  0  0  0  0  0  0  0
  138.7431   68.7403  222.9287 H   0  0  0  0  0  0  0  0  0  0  0  0
  138.9994   67.3174  224.9532 H   0  0  0  0  0  0  0  0  0  0  0  0
  139.7080   67.0754  227.1762 H   0  0  0  0  0  0  0  0  0  0  0  0
  141.4934   70.4002  229.2530 H   0  0  0  0  0  0  0  0  0  0  0  0
  141.2203   71.7979  227.2137 H   0  0  0  0  0  0  0  0  0  0  0  0
  1  2  2  0
  2  3  1  0
  3  4  1  0
  4  5  1  0
  5  6  2  0
  5  7  1  0
  7  8  1  0
  8  9  1  0
  9 10  1  0
  9 11  1  0
 11 12  1  0
 11 13  1  0
 13 14  1  0
 14 15  1  0
 15 16  1  0
 16 17  1  0
 17 18  1  0
 18 19  1  0
  2 20  1  0
 20 21  2  0
 21 22  1  0
 22 23  2  0
 23 24  1  0
 24 25  2  0
 25 26  1  0
 25 27  1  0
 27 28  2  0
 28 29  1  0
 29 30  2  0
 13  7  1  0
 19 14  1  0
 30 20  1  0
 29 23  1  0
  3 31  1  0
  4 32  1  0
  4 33  1  0
  8 34  1  0
  8 35  1  0
  9 36  1  1
 10 37  1  0
 11 38  1  1
 12 39  1  0
 13 40  1  6
 14 41  1  0
 15 42  1  0
 15 43  1  0
 16 44  1  0
 16 45  1  0
 17 46  1  0
 17 47  1  0
 18 48  1  0
 18 49  1  0
 19 50  1  0
 19 51  1  0
 21 52  1  0
 22 53  1  0
 24 54  1  0
 27 55  1  0
 28 56  1  0
M  END
>  <smiles>  (46) 
O=C(NCC(=O)N1C[C@H](O)[C@H](O)[C@H]1C1CCCCC1)c1ccc2cc(F)ccc2n1

>  <score_type>  (46) 
oracle

>  <origin>  (46) 
autodockgpu

>  <m_score__min__energy>  (46) 
-8.8900000000000006

>  <m_primary>  (46) 
energy

>  <rmsd>  (46) 
2.226275646284592

>  <m_score__min__rmsd>  (46) 
2.226275646284592

>  <meeko>  (46) 
{"free_energy": -7.38, "intermolecular_energy": -9.47, "internal_energy": -3.61, "cluster_size": 38, "cluster_id": 1, "rank_in_cluster": 35}

>  <energy>  (46) 
-7.52

>  <cluster_rmsd>  (46) 
0.0

>  <cluster>  (46) 
4

$$$$

     RDKit          3D

 56 59  0  0  0  0  0  0  0  0999 V2000
  140.2770   70.8410  221.6170 O   0  0  0  0  0  0  0  0  0  0  0  0
  140.1660   71.5540  222.6480 C   0  0  0  0  0  0  0  0  0  0  0  0
  139.9500   72.9500  222.4770 N   0  0  0  0  0  0  0  0  0  0  0  0
  139.8800   73.4060  221.0560 C   0  0  0  0  0  0  0  0  0  0  0  0
  140.6710   74.6330  220.9060 C   0  0  0  0  0  0  0  0  0  0  0  0
  140.8700   75.2780  222.0190 O   0  0  0  0  0  0  0  0  0  0  0  0
  141.2430   75.2130  219.7810 N   0  0  0  0  0  0  0  0  0  0  0  0
  140.4790   76.3220  219.0800 C   0  0  0  0  0  0  0  0  0  0  0  0
  141.5590   77.3860  219.1010 C   0  0  2  0  0  0  0  0  0  0  0  0
  141.4590   78.1470  217.9260 O   0  0  0  0  0  0  0  0  0  0  0  0
  142.8870   76.6090  219.1200 C   0  0  2  0  0  0  0  0  0  0  0  0
  143.6240   77.0140  218.0140 O   0  0  0  0  0  0  0  0  0  0  0  0
  142.4160   75.1670  218.9910 C   0  0  1  0  0  0  0  0  0  0  0  0
  143.4050   74.1330  219.2890 C   0  0  0  0  0  0  0  0  0  0  0  0
  144.1990   74.4980  220.5210 C   0  0  0  0  0  0  0  0  0  0  0  0
  145.4600   73.6750  220.5380 C   0  0  0  0  0  0  0  0  0  0  0  0
  145.1660   72.3550  219.8450 C   0  0  0  0  0  0  0  0  0  0  0  0
  143.7880   71.8780  220.1970 C   0  0  0  0  0  0  0  0  0  0  0  0
  142.7590   72.7830  219.5710 C   0  0  0  0  0  0  0  0  0  0  0  0
  140.2510   71.0090  224.0040 C   0  0  0  0  0  0  0  0  0  0  0  0
  140.7060   71.8740  224.9980 C   0  0  0  0  0  0  0  0  0  0  0  0
  140.8190   71.4500  226.3020 C   0  0  0  0  0  0  0  0  0  0  0  0
  140.4690   70.1460  226.5880 C   0  0  0  0  0  0  0  0  0  0  0  0
  140.5860   69.7270  227.9010 C   0  0  0  0  0  0  0  0  0  0  0  0
  140.2470   68.4410  228.2140 C   0  0  0  0  0  0  0  0  0  0  0  0
  140.3390   67.9760  229.4680 F   0  0  0  0  0  0  0  0  0  0  0  0
  139.7920   67.5670  227.2300 C   0  0  0  0  0  0  0  0  0  0  0  0
  139.6890   68.0290  225.9200 C   0  0  0  0  0  0  0  0  0  0  0  0
  140.0250   69.3250  225.5730 C   0  0  0  0  0  0  0  0  0  0  0  0
  139.9130   69.7370  224.2960 N   0  0  0  0  0  0  0  0  0  0  0  0
  139.8460   73.6260  223.2530 H   0  0  0  0  0  0  0  0  0  0  0  0
  140.2854   72.6236  220.3977 H   0  0  0  0  0  0  0  0  0  0  0  0
  138.8334   73.6039  220.7814 H   0  0  0  0  0  0  0  0  0  0  0  0
  140.1911   76.0436  218.0555 H   0  0  0  0  0  0  0  0  0  0  0  0
  139.5200   76.6053  219.5383 H   0  0  0  0  0  0  0  0  0  0  0  0
  141.4775   78.0672  219.9608 H   0  0  0  0  0  0  0  0  0  0  0  0
  141.9550   77.7500  217.1700 H   0  0  0  0  0  0  0  0  0  0  0  0
  143.5231   76.7583  220.0049 H   0  0  0  0  0  0  0  0  0  0  0  0
  143.6110   78.0060  218.0190 H   0  0  0  0  0  0  0  0  0  0  0  0
  142.2248   74.8356  217.9597 H   0  0  0  0  0  0  0  0  0  0  0  0
  144.0475   74.0630  218.3989 H   0  0  0  0  0  0  0  0  0  0  0  0
  144.4544   75.5676  220.4944 H   0  0  0  0  0  0  0  0  0  0  0  0
  143.6055   74.2970  221.4251 H   0  0  0  0  0  0  0  0  0  0  0  0
  146.2608   74.2073  220.0038 H   0  0  0  0  0  0  0  0  0  0  0  0
  145.7889   73.4994  221.5729 H   0  0  0  0  0  0  0  0  0  0  0  0
  145.2349   72.4936  218.7559 H   0  0  0  0  0  0  0  0  0  0  0  0
  145.8997   71.6055  220.1765 H   0  0  0  0  0  0  0  0  0  0  0  0
  143.6494   70.8532  219.8220 H   0  0  0  0  0  0  0  0  0  0  0  0
  143.6671   71.8923  221.2902 H   0  0  0  0  0  0  0  0  0  0  0  0
  142.3999   72.3405  218.6301 H   0  0  0  0  0  0  0  0  0  0  0  0
  141.9060   72.9103  220.2538 H   0  0  0  0  0  0  0  0  0  0  0  0
  140.9778   72.9074  224.7368 H   0  0  0  0  0  0  0  0  0  0  0  0
  141.1766   72.1282  227.0908 H   0  0  0  0  0  0  0  0  0  0  0  0
  140.9454   70.4166  228.6790 H   0  0  0  0  0  0  0  0  0  0  0  0
  139.5192   66.5317  227.4824 H   0  0  0  0  0  0  0  0  0  0  0  0
  139.3299   67.3431  225.1386 H   0  0  0  0  0  0  0  0  0  0  0  0
  1  2  2  0
  2  3  1  0
  3  4  1  0
  4  5  1  0
  5  6  2  0
  5  7  1  0
  7  8  1  0
  8  9  1  0
  9 10  1  0
  9 11  1  0
 11 12  1  0
 11 13  1  0
 13 14  1  0
 14 15  1  0
 15 16  1  0
 16 17  1  0
 17 18  1  0
 18 19  1  0
  2 20  1  0
 20 21  2  0
 21 22  1  0
 22 23  2  0
 23 24  1  0
 24 25  2  0
 25 26  1  0
 25 27  1  0
 27 28  2  0
 28 29  1  0
 29 30  2  0
 13  7  1  0
 19 14  1  0
 30 20  1  0
 29 23  1  0
  3 31  1  0
  4 32  1  0
  4 33  1  0
  8 34  1  0
  8 35  1  0
  9 36  1  1
 10 37  1  0
 11 38  1  1
 12 39  1  0
 13 40  1  6
 14 41  1  0
 15 42  1  0
 15 43  1  0
 16 44  1  0
 16 45  1  0
 17 46  1  0
 17 47  1  0
 18 48  1  0
 18 49  1  0
 19 50  1  0
 19 51  1  0
 21 52  1  0
 22 53  1  0
 24 54  1  0
 27 55  1  0
 28 56  1  0
M  END
>  <smiles>  (47) 
O=C(NCC(=O)N1C[C@H](O)[C@H](O)[C@H]1C1CCCCC1)c1ccc2cc(F)ccc2n1

>  <score_type>  (47) 
oracle

>  <origin>  (47) 
autodockgpu

>  <m_score__min__energy>  (47) 
-8.8900000000000006

>  <m_primary>  (47) 
energy

>  <rmsd>  (47) 
3.001495487686051

>  <m_score__min__rmsd>  (47) 
3.001495487686051

>  <meeko>  (47) 
{"free_energy": -7.32, "intermolecular_energy": -9.41, "internal_energy": -3.46, "cluster_size": 38, "cluster_id": 1, "rank_in_cluster": 37}

>  <energy>  (47) 
-7.37

>  <cluster_rmsd>  (47) 
0.61

>  <cluster>  (47) 
4

$$$$

     RDKit          3D

 56 59  0  0  0  0  0  0  0  0999 V2000
  141.0220   71.9850  221.3200 O   0  0  0  0  0  0  0  0  0  0  0  0
  140.4070   72.3780  222.3460 C   0  0  0  0  0  0  0  0  0  0  0  0
  139.8710   73.6970  222.3410 N   0  0  0  0  0  0  0  0  0  0  0  0
  140.1130   74.4680  221.0850 C   0  0  0  0  0  0  0  0  0  0  0  0
  140.6520   75.7890  221.4300 C   0  0  0  0  0  0  0  0  0  0  0  0
  140.1890   76.2800  222.5420 O   0  0  0  0  0  0  0  0  0  0  0  0
  141.5720   76.5940  220.7710 N   0  0  0  0  0  0  0  0  0  0  0  0
  142.4350   75.9630  219.6930 C   0  0  0  0  0  0  0  0  0  0  0  0
  142.1070   76.9130  218.5590 C   0  0  2  0  0  0  0  0  0  0  0  0
  143.2530   77.0740  217.7650 O   0  0  0  0  0  0  0  0  0  0  0  0
  141.7430   78.2440  219.2420 C   0  0  2  0  0  0  0  0  0  0  0  0
  142.6040   79.2160  218.7460 O   0  0  0  0  0  0  0  0  0  0  0  0
  142.0180   77.9360  220.7070 C   0  0  1  0  0  0  0  0  0  0  0  0
  141.4810   78.8860  221.6810 C   0  0  0  0  0  0  0  0  0  0  0  0
  142.5930   79.4790  222.5110 C   0  0  0  0  0  0  0  0  0  0  0  0
  141.9920   80.0810  223.7540 C   0  0  0  0  0  0  0  0  0  0  0  0
  140.5860   80.5470  223.4160 C   0  0  0  0  0  0  0  0  0  0  0  0
  140.5520   81.1360  222.0360 C   0  0  0  0  0  0  0  0  0  0  0  0
  140.7650   80.0520  221.0120 C   0  0  0  0  0  0  0  0  0  0  0  0
  140.2240   71.5410  223.5330 C   0  0  0  0  0  0  0  0  0  0  0  0
  139.5500   70.3350  223.3500 C   0  0  0  0  0  0  0  0  0  0  0  0
  139.3300   69.4850  224.4090 C   0  0  0  0  0  0  0  0  0  0  0  0
  139.7980   69.8660  225.6500 C   0  0  0  0  0  0  0  0  0  0  0  0
  139.5730   69.0050  226.7090 C   0  0  0  0  0  0  0  0  0  0  0  0
  140.0240   69.3570  227.9500 C   0  0  0  0  0  0  0  0  0  0  0  0
  139.8370   68.5650  229.0160 F   0  0  0  0  0  0  0  0  0  0  0  0
  140.6980   70.5590  228.1450 C   0  0  0  0  0  0  0  0  0  0  0  0
  140.9040   71.3970  227.0520 C   0  0  0  0  0  0  0  0  0  0  0  0
  140.4590   71.0680  225.7840 C   0  0  0  0  0  0  0  0  0  0  0  0
  140.6750   71.9030  224.7500 N   0  0  0  0  0  0  0  0  0  0  0  0
  139.3510   74.1200  223.1280 H   0  0  0  0  0  0  0  0  0  0  0  0
  140.8352   73.9284  220.4547 H   0  0  0  0  0  0  0  0  0  0  0  0
  139.1684   74.5851  220.5336 H   0  0  0  0  0  0  0  0  0  0  0  0
  143.5035   75.9817  219.9536 H   0  0  0  0  0  0  0  0  0  0  0  0
  142.2475   74.8976  219.4934 H   0  0  0  0  0  0  0  0  0  0  0  0
  141.2902   76.5518  217.9169 H   0  0  0  0  0  0  0  0  0  0  0  0
  143.3300   77.9810  217.3820 H   0  0  0  0  0  0  0  0  0  0  0  0
  140.7173   78.6077  219.0816 H   0  0  0  0  0  0  0  0  0  0  0  0
  143.5230   78.8750  218.8930 H   0  0  0  0  0  0  0  0  0  0  0  0
  143.0681   78.0530  221.0130 H   0  0  0  0  0  0  0  0  0  0  0  0
  140.7727   78.3172  222.3013 H   0  0  0  0  0  0  0  0  0  0  0  0
  143.3091   78.6916  222.7889 H   0  0  0  0  0  0  0  0  0  0  0  0
  143.1220   80.2526  221.9351 H   0  0  0  0  0  0  0  0  0  0  0  0
  141.9533   79.3263  224.5534 H   0  0  0  0  0  0  0  0  0  0  0  0
  142.6021   80.9273  224.1027 H   0  0  0  0  0  0  0  0  0  0  0  0
  139.8983   79.6897  223.4620 H   0  0  0  0  0  0  0  0  0  0  0  0
  140.2787   81.3148  224.1413 H   0  0  0  0  0  0  0  0  0  0  0  0
  139.5748   81.6116  221.8661 H   0  0  0  0  0  0  0  0  0  0  0  0
  141.3512   81.8860  221.9419 H   0  0  0  0  0  0  0  0  0  0  0  0
  139.7935   79.7153  220.6211 H   0  0  0  0  0  0  0  0  0  0  0  0
  141.3705   80.4364  220.1780 H   0  0  0  0  0  0  0  0  0  0  0  0
  139.1900   70.0597  222.3477 H   0  0  0  0  0  0  0  0  0  0  0  0
  138.7981   68.5321  224.2710 H   0  0  0  0  0  0  0  0  0  0  0  0
  139.0409   68.0546  226.5550 H   0  0  0  0  0  0  0  0  0  0  0  0
  141.0613   70.8418  229.1440 H   0  0  0  0  0  0  0  0  0  0  0  0
  141.4360   72.3482  227.2012 H   0  0  0  0  0  0  0  0  0  0  0  0
  1  2  2  0
  2  3  1  0
  3  4  1  0
  4  5  1  0
  5  6  2  0
  5  7  1  0
  7  8  1  0
  8  9  1  0
  9 10  1  0
  9 11  1  0
 11 12  1  0
 11 13  1  0
 13 14  1  0
 14 15  1  0
 15 16  1  0
 16 17  1  0
 17 18  1  0
 18 19  1  0
  2 20  1  0
 20 21  2  0
 21 22  1  0
 22 23  2  0
 23 24  1  0
 24 25  2  0
 25 26  1  0
 25 27  1  0
 27 28  2  0
 28 29  1  0
 29 30  2  0
 13  7  1  0
 19 14  1  0
 30 20  1  0
 29 23  1  0
  3 31  1  0
  4 32  1  0
  4 33  1  0
  8 34  1  0
  8 35  1  0
  9 36  1  6
 10 37  1  0
 11 38  1  1
 12 39  1  0
 13 40  1  6
 14 41  1  0
 15 42  1  0
 15 43  1  0
 16 44  1  0
 16 45  1  0
 17 46  1  0
 17 47  1  0
 18 48  1  0
 18 49  1  0
 19 50  1  0
 19 51  1  0
 21 52  1  0
 22 53  1  0
 24 54  1  0
 27 55  1  0
 28 56  1  0
M  END
>  <smiles>  (48) 
O=C(NCC(=O)N1C[C@H](O)[C@H](O)[C@H]1C1CCCCC1)c1ccc2cc(F)ccc2n1

>  <score_type>  (48) 
oracle

>  <origin>  (48) 
autodockgpu

>  <m_score__min__energy>  (48) 
-8.8900000000000006

>  <m_primary>  (48) 
energy

>  <rmsd>  (48) 
2.3889529595395373

>  <m_score__min__rmsd>  (48) 
2.3889529595395373

>  <meeko>  (48) 
{"free_energy": -8.62, "intermolecular_energy": -10.7, "internal_energy": -3.14, "cluster_size": 38, "cluster_id": 1, "rank_in_cluster": 11}

>  <energy>  (48) 
-7.16

>  <cluster_rmsd>  (48) 
0.65

>  <cluster>  (48) 
4

$$$$

     RDKit          3D

 56 59  0  0  0  0  0  0  0  0999 V2000
  140.9380   71.8560  221.2480 O   0  0  0  0  0  0  0  0  0  0  0  0
  140.4170   72.2960  222.3060 C   0  0  0  0  0  0  0  0  0  0  0  0
  139.9710   73.6480  222.3200 N   0  0  0  0  0  0  0  0  0  0  0  0
  140.1840   74.3930  221.0430 C   0  0  0  0  0  0  0  0  0  0  0  0
  140.6090   75.7640  221.3520 C   0  0  0  0  0  0  0  0  0  0  0  0
  140.0310   76.2780  222.3980 O   0  0  0  0  0  0  0  0  0  0  0  0
  141.5240   76.5950  220.7190 N   0  0  0  0  0  0  0  0  0  0  0  0
  142.3890   76.0040  219.6200 C   0  0  0  0  0  0  0  0  0  0  0  0
  142.0550   76.9880  218.5180 C   0  0  2  0  0  0  0  0  0  0  0  0
  143.1990   77.1810  217.7280 O   0  0  0  0  0  0  0  0  0  0  0  0
  141.6840   78.2940  219.2440 C   0  0  2  0  0  0  0  0  0  0  0  0
  142.5390   79.2860  218.7790 O   0  0  0  0  0  0  0  0  0  0  0  0
  141.9620   77.9400  220.6980 C   0  0  1  0  0  0  0  0  0  0  0  0
  141.4210   78.8550  221.7020 C   0  0  0  0  0  0  0  0  0  0  0  0
  142.5210   79.3630  222.6030 C   0  0  0  0  0  0  0  0  0  0  0  0
  141.8940   79.9190  223.8550 C   0  0  0  0  0  0  0  0  0  0  0  0
  140.5180   80.4510  223.4930 C   0  0  0  0  0  0  0  0  0  0  0  0
  140.5540   81.1140  222.1470 C   0  0  0  0  0  0  0  0  0  0  0  0
  140.7700   80.0790  221.0740 C   0  0  0  0  0  0  0  0  0  0  0  0
  140.2530   71.4820  223.5110 C   0  0  0  0  0  0  0  0  0  0  0  0
  139.6010   70.2600  223.3570 C   0  0  0  0  0  0  0  0  0  0  0  0
  139.4010   69.4280  224.4340 C   0  0  0  0  0  0  0  0  0  0  0  0
  139.8660   69.8450  225.6650 C   0  0  0  0  0  0  0  0  0  0  0  0
  139.6610   69.0030  226.7430 C   0  0  0  0  0  0  0  0  0  0  0  0
  140.1090   69.3900  227.9750 C   0  0  0  0  0  0  0  0  0  0  0  0
  139.9410   68.6180  229.0580 F   0  0  0  0  0  0  0  0  0  0  0  0
  140.7610   70.6090  228.1420 C   0  0  0  0  0  0  0  0  0  0  0  0
  140.9470   71.4270  227.0300 C   0  0  0  0  0  0  0  0  0  0  0  0
  140.5040   71.0620  225.7710 C   0  0  0  0  0  0  0  0  0  0  0  0
  140.7020   71.8790  224.7190 N   0  0  0  0  0  0  0  0  0  0  0  0
  139.5300   74.1100  223.1330 H   0  0  0  0  0  0  0  0  0  0  0  0
  140.9621   73.8911  220.4491 H   0  0  0  0  0  0  0  0  0  0  0  0
  139.2473   74.4163  220.4668 H   0  0  0  0  0  0  0  0  0  0  0  0
  143.4577   76.0199  219.8800 H   0  0  0  0  0  0  0  0  0  0  0  0
  142.2067   74.9447  219.3861 H   0  0  0  0  0  0  0  0  0  0  0  0
  141.2396   76.6431  217.8651 H   0  0  0  0  0  0  0  0  0  0  0  0
  143.2580   78.0930  217.3560 H   0  0  0  0  0  0  0  0  0  0  0  0
  140.6562   78.6571  219.0965 H   0  0  0  0  0  0  0  0  0  0  0  0
  143.4600   78.9440  218.9080 H   0  0  0  0  0  0  0  0  0  0  0  0
  143.0117   78.0525  221.0069 H   0  0  0  0  0  0  0  0  0  0  0  0
  140.6709   78.2792  222.2640 H   0  0  0  0  0  0  0  0  0  0  0  0
  143.1992   78.5368  222.8629 H   0  0  0  0  0  0  0  0  0  0  0  0
  143.0972   80.1468  222.0896 H   0  0  0  0  0  0  0  0  0  0  0  0
  141.8006   79.1248  224.6104 H   0  0  0  0  0  0  0  0  0  0  0  0
  142.5182   80.7237  224.2707 H   0  0  0  0  0  0  0  0  0  0  0  0
  139.8014   79.6168  223.4677 H   0  0  0  0  0  0  0  0  0  0  0  0
  140.2097   81.1895  224.2477 H   0  0  0  0  0  0  0  0  0  0  0  0
  139.5995   81.6309  221.9689 H   0  0  0  0  0  0  0  0  0  0  0  0
  141.3794   81.8407  222.1221 H   0  0  0  0  0  0  0  0  0  0  0  0
  139.8033   79.7979  220.6307 H   0  0  0  0  0  0  0  0  0  0  0  0
  141.4195   80.4863  220.2852 H   0  0  0  0  0  0  0  0  0  0  0  0
  139.2420   69.9572  222.3623 H   0  0  0  0  0  0  0  0  0  0  0  0
  138.8874   68.4622  224.3181 H   0  0  0  0  0  0  0  0  0  0  0  0
  139.1468   68.0395  226.6113 H   0  0  0  0  0  0  0  0  0  0  0  0
  141.1223   70.9201  229.1333 H   0  0  0  0  0  0  0  0  0  0  0  0
  141.4611   72.3912  227.1564 H   0  0  0  0  0  0  0  0  0  0  0  0
  1  2  2  0
  2  3  1  0
  3  4  1  0
  4  5  1  0
  5  6  2  0
  5  7  1  0
  7  8  1  0
  8  9  1  0
  9 10  1  0
  9 11  1  0
 11 12  1  0
 11 13  1  0
 13 14  1  0
 14 15  1  0
 15 16  1  0
 16 17  1  0
 17 18  1  0
 18 19  1  0
  2 20  1  0
 20 21  2  0
 21 22  1  0
 22 23  2  0
 23 24  1  0
 24 25  2  0
 25 26  1  0
 25 27  1  0
 27 28  2  0
 28 29  1  0
 29 30  2  0
 13  7  1  0
 19 14  1  0
 30 20  1  0
 29 23  1  0
  3 31  1  0
  4 32  1  0
  4 33  1  0
  8 34  1  0
  8 35  1  0
  9 36  1  6
 10 37  1  0
 11 38  1  1
 12 39  1  0
 13 40  1  6
 14 41  1  0
 15 42  1  0
 15 43  1  0
 16 44  1  0
 16 45  1  0
 17 46  1  0
 17 47  1  0
 18 48  1  0
 18 49  1  0
 19 50  1  0
 19 51  1  0
 21 52  1  0
 22 53  1  0
 24 54  1  0
 27 55  1  0
 28 56  1  0
M  END
>  <smiles>  (49) 
O=C(NCC(=O)N1C[C@H](O)[C@H](O)[C@H]1C1CCCCC1)c1ccc2cc(F)ccc2n1

>  <score_type>  (49) 
oracle

>  <origin>  (49) 
autodockgpu

>  <m_score__min__energy>  (49) 
-8.8900000000000006

>  <m_primary>  (49) 
energy

>  <rmsd>  (49) 
2.3768028855432304

>  <m_score__min__rmsd>  (49) 
2.3768028855432304

>  <meeko>  (49) 
{"free_energy": -8.64, "intermolecular_energy": -10.73, "internal_energy": -3.19, "cluster_size": 38, "cluster_id": 1, "rank_in_cluster": 10}

>  <energy>  (49) 
-7.21

>  <cluster_rmsd>  (49) 
0.0

>  <cluster>  (49) 
5

$$$$

     RDKit          3D

 56 59  0  0  0  0  0  0  0  0999 V2000
  140.2070   71.7960  221.0630 O   0  0  0  0  0  0  0  0  0  0  0  0
  140.0100   72.2570  222.2180 C   0  0  0  0  0  0  0  0  0  0  0  0
  139.7450   73.6500  222.3470 N   0  0  0  0  0  0  0  0  0  0  0  0
  139.7350   74.4090  221.0600 C   0  0  0  0  0  0  0  0  0  0  0  0
  139.5250   75.8340  221.3450 C   0  0  0  0  0  0  0  0  0  0  0  0
  139.3880   76.1100  222.6090 O   0  0  0  0  0  0  0  0  0  0  0  0
  139.4540   76.9290  220.4940 N   0  0  0  0  0  0  0  0  0  0  0  0
  138.9810   76.7010  219.0700 C   0  0  0  0  0  0  0  0  0  0  0  0
  137.8530   77.7120  219.0440 C   0  0  2  0  0  0  0  0  0  0  0  0
  137.7780   78.2650  217.7560 O   0  0  0  0  0  0  0  0  0  0  0  0
  138.2570   78.7920  220.0630 C   0  0  2  0  0  0  0  0  0  0  0  0
  138.2960   80.0070  219.3900 O   0  0  0  0  0  0  0  0  0  0  0  0
  139.6470   78.3310  220.4820 C   0  0  1  0  0  0  0  0  0  0  0  0
  140.2040   78.9580  221.6790 C   0  0  0  0  0  0  0  0  0  0  0  0
  141.5010   78.2910  222.0710 C   0  0  0  0  0  0  0  0  0  0  0  0
  141.8030   78.6420  223.5050 C   0  0  0  0  0  0  0  0  0  0  0  0
  141.2140   80.0150  223.7850 C   0  0  0  0  0  0  0  0  0  0  0  0
  141.3910   80.9100  222.5940 C   0  0  0  0  0  0  0  0  0  0  0  0
  140.5190   80.4330  221.4620 C   0  0  0  0  0  0  0  0  0  0  0  0
  140.0430   71.4260  223.4220 C   0  0  0  0  0  0  0  0  0  0  0  0
  139.5540   70.1270  223.2990 C   0  0  0  0  0  0  0  0  0  0  0  0
  139.5440   69.2740  224.3790 C   0  0  0  0  0  0  0  0  0  0  0  0
  140.0320   69.7480  225.5800 C   0  0  0  0  0  0  0  0  0  0  0  0
  140.0200   68.8850  226.6590 C   0  0  0  0  0  0  0  0  0  0  0  0
  140.4960   69.3270  227.8620 C   0  0  0  0  0  0  0  0  0  0  0  0
  140.5100   68.5380  228.9450 F   0  0  0  0  0  0  0  0  0  0  0  0
  140.9860   70.6230  227.9970 C   0  0  0  0  0  0  0  0  0  0  0  0
  140.9810   71.4610  226.8850 C   0  0  0  0  0  0  0  0  0  0  0  0
  140.5050   71.0410  225.6550 C   0  0  0  0  0  0  0  0  0  0  0  0
  140.5160   71.8790  224.6000 N   0  0  0  0  0  0  0  0  0  0  0  0
  139.5700   74.1320  223.2440 H   0  0  0  0  0  0  0  0  0  0  0  0
  140.6977   74.2742  220.5452 H   0  0  0  0  0  0  0  0  0  0  0  0
  138.9249   74.0363  220.4159 H   0  0  0  0  0  0  0  0  0  0  0  0
  139.7626   76.9328  218.3315 H   0  0  0  0  0  0  0  0  0  0  0  0
  138.7019   75.6670  218.8189 H   0  0  0  0  0  0  0  0  0  0  0  0
  136.8747   77.2725  219.2884 H   0  0  0  0  0  0  0  0  0  0  0  0
  138.3730   79.0440  217.6380 H   0  0  0  0  0  0  0  0  0  0  0  0
  137.5861   78.9207  220.9252 H   0  0  0  0  0  0  0  0  0  0  0  0
  137.4510   80.0670  218.8740 H   0  0  0  0  0  0  0  0  0  0  0  0
  140.4591   78.6459  219.8102 H   0  0  0  0  0  0  0  0  0  0  0  0
  139.4397   78.8493  222.4627 H   0  0  0  0  0  0  0  0  0  0  0  0
  141.4034   77.2002  221.9683 H   0  0  0  0  0  0  0  0  0  0  0  0
  142.3159   78.6368  221.4180 H   0  0  0  0  0  0  0  0  0  0  0  0
  141.3494   77.8971  224.1754 H   0  0  0  0  0  0  0  0  0  0  0  0
  142.8895   78.6494  223.6766 H   0  0  0  0  0  0  0  0  0  0  0  0
  140.1412   79.9117  224.0051 H   0  0  0  0  0  0  0  0  0  0  0  0
  141.7343   80.4587  224.6466 H   0  0  0  0  0  0  0  0  0  0  0  0
  141.1080   81.9379  222.8646 H   0  0  0  0  0  0  0  0  0  0  0  0
  142.4437   80.8865  222.2758 H   0  0  0  0  0  0  0  0  0  0  0  0
  139.5844   81.0128  221.4445 H   0  0  0  0  0  0  0  0  0  0  0  0
  141.0406   80.5687  220.5031 H   0  0  0  0  0  0  0  0  0  0  0  0
  139.1717   69.7794  222.3279 H   0  0  0  0  0  0  0  0  0  0  0  0
  139.1595   68.2474  224.2880 H   0  0  0  0  0  0  0  0  0  0  0  0
  139.6343   67.8604  226.5520 H   0  0  0  0  0  0  0  0  0  0  0  0
  141.3701   70.9786  228.9645 H   0  0  0  0  0  0  0  0  0  0  0  0
  141.3664   72.4862  226.9869 H   0  0  0  0  0  0  0  0  0  0  0  0
  1  2  2  0
  2  3  1  0
  3  4  1  0
  4  5  1  0
  5  6  2  0
  5  7  1  0
  7  8  1  0
  8  9  1  0
  9 10  1  0
  9 11  1  0
 11 12  1  0
 11 13  1  0
 13 14  1  0
 14 15  1  0
 15 16  1  0
 16 17  1  0
 17 18  1  0
 18 19  1  0
  2 20  1  0
 20 21  2  0
 21 22  1  0
 22 23  2  0
 23 24  1  0
 24 25  2  0
 25 26  1  0
 25 27  1  0
 27 28  2  0
 28 29  1  0
 29 30  2  0
 13  7  1  0
 19 14  1  0
 30 20  1  0
 29 23  1  0
  3 31  1  0
  4 32  1  0
  4 33  1  0
  8 34  1  0
  8 35  1  0
  9 36  1  1
 10 37  1  0
 11 38  1  1
 12 39  1  0
 13 40  1  6
 14 41  1  0
 15 42  1  0
 15 43  1  0
 16 44  1  0
 16 45  1  0
 17 46  1  0
 17 47  1  0
 18 48  1  0
 18 49  1  0
 19 50  1  0
 19 51  1  0
 21 52  1  0
 22 53  1  0
 24 54  1  0
 27 55  1  0
 28 56  1  0
M  END
>  <smiles>  (50) 
O=C(NCC(=O)N1C[C@H](O)[C@H](O)[C@H]1C1CCCCC1)c1ccc2cc(F)ccc2n1

>  <score_type>  (50) 
oracle

>  <origin>  (50) 
autodockgpu

>  <m_score__min__energy>  (50) 
-8.8900000000000006

>  <m_primary>  (50) 
energy

>  <rmsd>  (50) 
2.55866592655035

>  <m_score__min__rmsd>  (50) 
2.55866592655035

>  <meeko>  (50) 
{"free_energy": -6.97, "intermolecular_energy": -9.05, "internal_energy": -3.41, "cluster_size": 2, "cluster_id": 5, "rank_in_cluster": 2}

>  <energy>  (50) 
-6.97

>  <cluster_rmsd>  (50) 
1.17

>  <cluster>  (50) 
5

$$$$
