
     RDKit          3D

 55 58  0  0  0  0  0  0  0  0999 V2000
  140.6690   77.0330  218.4820 O   0  0  0  0  0  0  0  0  0  0  0  0
  141.7910   76.9260  219.0420 C   0  0  0  0  0  0  0  0  0  0  0  0
  142.2960   78.1630  219.6130 N   0  0  0  0  0  0  0  0  0  0  0  0
  141.4650   79.3070  219.4670 C   0  0  0  0  0  0  0  0  0  0  0  0
  140.4200   79.5790  220.4440 C   0  0  0  0  0  0  0  0  0  0  0  0
  139.2180   79.4370  219.9570 O   0  0  0  0  0  0  0  0  0  0  0  0
  140.4720   79.9600  221.7810 N   0  0  0  0  0  0  0  0  0  0  0  0
  140.4360   81.3110  222.3260 C   0  0  0  0  0  0  0  0  0  0  0  0
  141.6880   81.6250  223.0840 C   0  0  0  0  0  0  0  0  0  0  0  0
  142.2600   80.4800  223.8500 C   0  0  0  0  0  0  0  0  0  0  0  0
  142.0530   79.1120  223.2910 C   0  0  0  0  0  0  0  0  0  0  0  0
  140.6340   78.9530  222.8670 C   0  0  2  0  0  0  0  0  0  0  0  0
  140.1610   77.6260  222.5550 C   0  0  0  0  0  0  0  0  0  0  0  0
  141.0800   76.6440  222.2080 C   0  0  0  0  0  0  0  0  0  0  0  0
  140.7120   75.3430  221.9310 C   0  0  0  0  0  0  0  0  0  0  0  0
  139.3860   74.9640  221.9890 C   0  0  0  0  0  0  0  0  0  0  0  0
  138.9510   73.6730  221.7210 O   0  0  0  0  0  0  0  0  0  0  0  0
  139.7940   72.5400  221.8600 C   0  0  0  0  0  0  0  0  0  0  0  0
  139.0750   71.3700  221.8590 F   0  0  0  0  0  0  0  0  0  0  0  0
  140.4430   72.6320  223.0970 F   0  0  0  0  0  0  0  0  0  0  0  0
  140.7790   72.5130  220.9010 F   0  0  0  0  0  0  0  0  0  0  0  0
  138.4670   75.9330  222.3330 C   0  0  0  0  0  0  0  0  0  0  0  0
  138.8420   77.2310  222.6090 C   0  0  0  0  0  0  0  0  0  0  0  0
  142.5400   75.6870  219.1290 C   0  0  0  0  0  0  0  0  0  0  0  0
  142.0750   74.6110  218.4100 C   0  0  0  0  0  0  0  0  0  0  0  0
  142.8220   73.4360  218.5180 C   0  0  0  0  0  0  0  0  0  0  0  0
  143.9600   73.3890  219.3110 C   0  0  0  0  0  0  0  0  0  0  0  0
  144.7260   72.2540  219.4470 C   0  0  0  0  0  0  0  0  0  0  0  0
  145.8420   72.2490  220.2390 C   0  0  0  0  0  0  0  0  0  0  0  0
  146.2590   73.3800  220.9440 C   0  0  0  0  0  0  0  0  0  0  0  0
  145.4940   74.5190  220.8100 C   0  0  0  0  0  0  0  0  0  0  0  0
  144.3710   74.5100  220.0070 C   0  0  0  0  0  0  0  0  0  0  0  0
  143.6450   75.6370  219.8980 N   0  0  0  0  0  0  0  0  0  0  0  0
  143.2250   78.1510  220.0930 H   0  0  0  0  0  0  0  0  0  0  0  0
  142.1298   80.1834  219.4612 H   0  0  0  0  0  0  0  0  0  0  0  0
  140.9008   79.0931  218.5472 H   0  0  0  0  0  0  0  0  0  0  0  0
  140.3283   82.0283  221.4990 H   0  0  0  0  0  0  0  0  0  0  0  0
  139.5838   81.3839  223.0177 H   0  0  0  0  0  0  0  0  0  0  0  0
  142.4463   81.9683  222.3649 H   0  0  0  0  0  0  0  0  0  0  0  0
  141.4164   82.3894  223.8269 H   0  0  0  0  0  0  0  0  0  0  0  0
  143.3448   80.6442  223.9290 H   0  0  0  0  0  0  0  0  0  0  0  0
  141.7164   80.4799  224.8063 H   0  0  0  0  0  0  0  0  0  0  0  0
  142.7126   78.9681  222.4225 H   0  0  0  0  0  0  0  0  0  0  0  0
  142.2892   78.3636  224.0618 H   0  0  0  0  0  0  0  0  0  0  0  0
  139.9656   79.1305  223.7224 H   0  0  0  0  0  0  0  0  0  0  0  0
  142.1448   76.9143  222.1517 H   0  0  0  0  0  0  0  0  0  0  0  0
  141.4805   74.6032  221.6622 H   0  0  0  0  0  0  0  0  0  0  0  0
  137.4023   75.6622  222.3889 H   0  0  0  0  0  0  0  0  0  0  0  0
  138.0708   77.9677  222.8783 H   0  0  0  0  0  0  0  0  0  0  0  0
  141.1699   74.6721  217.7878 H   0  0  0  0  0  0  0  0  0  0  0  0
  142.5048   72.5375  217.9683 H   0  0  0  0  0  0  0  0  0  0  0  0
  144.4372   71.3376  218.9115 H   0  0  0  0  0  0  0  0  0  0  0  0
  146.4302   71.3233  220.3231 H   0  0  0  0  0  0  0  0  0  0  0  0
  147.1578   73.3628  221.5780 H   0  0  0  0  0  0  0  0  0  0  0  0
  145.7791   75.4373  221.3442 H   0  0  0  0  0  0  0  0  0  0  0  0
  1  2  2  0
  2  3  1  0
  3  4  1  0
  4  5  1  0
  5  6  2  0
  5  7  1  0
  7  8  1  0
  8  9  1  0
  9 10  1  0
 10 11  1  0
 11 12  1  0
 12 13  1  0
 13 14  2  0
 14 15  1  0
 15 16  2  0
 16 17  1  0
 17 18  1  0
 18 19  1  0
 18 20  1  0
 18 21  1  0
 16 22  1  0
 22 23  2  0
  2 24  1  0
 24 25  2  0
 25 26  1  0
 26 27  2  0
 27 28  1  0
 28 29  2  0
 29 30  1  0
 30 31  2  0
 31 32  1  0
 32 33  2  0
 12  7  1  0
 23 13  1  0
 33 24  1  0
 32 27  1  0
  3 34  1  0
  4 35  1  0
  4 36  1  0
  8 37  1  0
  8 38  1  0
  9 39  1  0
  9 40  1  0
 10 41  1  0
 10 42  1  0
 11 43  1  0
 11 44  1  0
 12 45  1  1
 14 46  1  0
 15 47  1  0
 22 48  1  0
 23 49  1  0
 25 50  1  0
 26 51  1  0
 28 52  1  0
 29 53  1  0
 30 54  1  0
 31 55  1  0
M  END
>  <smiles>  (1) 
O=C(NCC(=O)N1CCCCC1c1ccc(OC(F)(F)F)cc1)c1ccc2ccccc2n1

>  <score_type>  (1) 
oracle

>  <origin>  (1) 
autodockgpu

>  <m_score__min__energy>  (1) 
-8.5999999999999996

>  <m_primary>  (1) 
energy

>  <rmsd>  (1) 
7.4843331426504305

>  <m_score__min__rmsd>  (1) 
7.4843331426504305

>  <meeko>  (1) 
{"free_energy": -6.93, "intermolecular_energy": -9.02, "internal_energy": -2.89, "cluster_size": 8, "cluster_id": 7, "rank_in_cluster": 1}

>  <energy>  (1) 
-8.6

>  <cluster_rmsd>  (1) 
0.0

>  <cluster>  (1) 
1

$$$$

     RDKit          3D

 55 58  0  0  0  0  0  0  0  0999 V2000
  140.8920   71.7680  221.5110 O   0  0  0  0  0  0  0  0  0  0  0  0
  140.1380   72.0320  222.4840 C   0  0  0  0  0  0  0  0  0  0  0  0
  139.2960   73.2000  222.2910 N   0  0  0  0  0  0  0  0  0  0  0  0
  139.4330   73.8740  221.0470 C   0  0  0  0  0  0  0  0  0  0  0  0
  140.4190   74.9360  220.8980 C   0  0  0  0  0  0  0  0  0  0  0  0
  141.0680   75.1880  222.0000 O   0  0  0  0  0  0  0  0  0  0  0  0
  140.7850   75.7190  219.8080 N   0  0  0  0  0  0  0  0  0  0  0  0
  140.9090   75.3100  218.4150 C   0  0  0  0  0  0  0  0  0  0  0  0
  142.3080   75.4920  217.9160 C   0  0  0  0  0  0  0  0  0  0  0  0
  143.0110   76.6940  218.4500 C   0  0  0  0  0  0  0  0  0  0  0  0
  142.6480   77.1440  219.8250 C   0  0  0  0  0  0  0  0  0  0  0  0
  141.1660   77.1500  219.9770 C   0  0  2  0  0  0  0  0  0  0  0  0
  140.6010   77.8090  221.1290 C   0  0  0  0  0  0  0  0  0  0  0  0
  141.4520   78.4040  222.0520 C   0  0  0  0  0  0  0  0  0  0  0  0
  140.9900   79.0830  223.1610 C   0  0  0  0  0  0  0  0  0  0  0  0
  139.6350   79.1960  223.3980 C   0  0  0  0  0  0  0  0  0  0  0  0
  139.1060   79.8650  224.4940 O   0  0  0  0  0  0  0  0  0  0  0  0
  138.0580   80.8140  224.3740 C   0  0  0  0  0  0  0  0  0  0  0  0
  136.8510   80.2080  224.1270 F   0  0  0  0  0  0  0  0  0  0  0  0
  138.3440   81.6390  223.2810 F   0  0  0  0  0  0  0  0  0  0  0  0
  137.9800   81.6340  225.4760 F   0  0  0  0  0  0  0  0  0  0  0  0
  138.7830   78.6080  222.4860 C   0  0  0  0  0  0  0  0  0  0  0  0
  139.2530   77.9300  221.3800 C   0  0  0  0  0  0  0  0  0  0  0  0
  140.0890   71.2540  223.7080 C   0  0  0  0  0  0  0  0  0  0  0  0
  139.5510   69.9900  223.6360 C   0  0  0  0  0  0  0  0  0  0  0  0
  139.5200   69.2720  224.8340 C   0  0  0  0  0  0  0  0  0  0  0  0
  140.0100   69.8270  226.0070 C   0  0  0  0  0  0  0  0  0  0  0  0
  140.0020   69.1560  227.2090 C   0  0  0  0  0  0  0  0  0  0  0  0
  140.4950   69.7400  228.3440 C   0  0  0  0  0  0  0  0  0  0  0  0
  141.0280   71.0300  228.3460 C   0  0  0  0  0  0  0  0  0  0  0  0
  141.0390   71.7050  227.1440 C   0  0  0  0  0  0  0  0  0  0  0  0
  140.5380   71.1040  226.0070 C   0  0  0  0  0  0  0  0  0  0  0  0
  140.5630   71.7900  224.8500 N   0  0  0  0  0  0  0  0  0  0  0  0
  138.6450   73.4810  223.0600 H   0  0  0  0  0  0  0  0  0  0  0  0
  139.6757   73.1079  220.2959 H   0  0  0  0  0  0  0  0  0  0  0  0
  138.4743   74.4025  220.9392 H   0  0  0  0  0  0  0  0  0  0  0  0
  140.6328   74.2488  218.3274 H   0  0  0  0  0  0  0  0  0  0  0  0
  140.2401   75.9383  217.8084 H   0  0  0  0  0  0  0  0  0  0  0  0
  142.8901   74.6020  218.1972 H   0  0  0  0  0  0  0  0  0  0  0  0
  142.2325   75.6353  216.8280 H   0  0  0  0  0  0  0  0  0  0  0  0
  144.0889   76.4745  218.4479 H   0  0  0  0  0  0  0  0  0  0  0  0
  142.7003   77.5187  217.7917 H   0  0  0  0  0  0  0  0  0  0  0  0
  143.0883   76.4570  220.5626 H   0  0  0  0  0  0  0  0  0  0  0  0
  143.0350   78.1605  219.9894 H   0  0  0  0  0  0  0  0  0  0  0  0
  140.7150   77.8084  219.2200 H   0  0  0  0  0  0  0  0  0  0  0  0
  142.5379   78.3309  221.8924 H   0  0  0  0  0  0  0  0  0  0  0  0
  141.7067   79.5373  223.8610 H   0  0  0  0  0  0  0  0  0  0  0  0
  137.6971   78.6819  222.6452 H   0  0  0  0  0  0  0  0  0  0  0  0
  138.5338   77.4756  220.6827 H   0  0  0  0  0  0  0  0  0  0  0  0
  139.1689   69.5706  222.6936 H   0  0  0  0  0  0  0  0  0  0  0  0
  139.1021   68.2546  224.8472 H   0  0  0  0  0  0  0  0  0  0  0  0
  139.5935   68.1358  227.2577 H   0  0  0  0  0  0  0  0  0  0  0  0
  140.4704   69.1737  229.2867 H   0  0  0  0  0  0  0  0  0  0  0  0
  141.4217   71.4876  229.2656 H   0  0  0  0  0  0  0  0  0  0  0  0
  141.4480   72.7248  227.0910 H   0  0  0  0  0  0  0  0  0  0  0  0
  1  2  2  0
  2  3  1  0
  3  4  1  0
  4  5  1  0
  5  6  2  0
  5  7  1  0
  7  8  1  0
  8  9  1  0
  9 10  1  0
 10 11  1  0
 11 12  1  0
 12 13  1  0
 13 14  2  0
 14 15  1  0
 15 16  2  0
 16 17  1  0
 17 18  1  0
 18 19  1  0
 18 20  1  0
 18 21  1  0
 16 22  1  0
 22 23  2  0
  2 24  1  0
 24 25  2  0
 25 26  1  0
 26 27  2  0
 27 28  1  0
 28 29  2  0
 29 30  1  0
 30 31  2  0
 31 32  1  0
 32 33  2  0
 12  7  1  0
 23 13  1  0
 33 24  1  0
 32 27  1  0
  3 34  1  0
  4 35  1  0
  4 36  1  0
  8 37  1  0
  8 38  1  0
  9 39  1  0
  9 40  1  0
 10 41  1  0
 10 42  1  0
 11 43  1  0
 11 44  1  0
 12 45  1  6
 14 46  1  0
 15 47  1  0
 22 48  1  0
 23 49  1  0
 25 50  1  0
 26 51  1  0
 28 52  1  0
 29 53  1  0
 30 54  1  0
 31 55  1  0
M  END
>  <smiles>  (2) 
O=C(NCC(=O)N1CCCCC1c1ccc(OC(F)(F)F)cc1)c1ccc2ccccc2n1

>  <score_type>  (2) 
oracle

>  <origin>  (2) 
autodockgpu

>  <m_score__min__energy>  (2) 
-8.5999999999999996

>  <m_primary>  (2) 
energy

>  <rmsd>  (2) 
1.6028587179047862

>  <m_score__min__rmsd>  (2) 
1.6028587179047862

>  <meeko>  (2) 
{"free_energy": -8.34, "intermolecular_energy": -10.43, "internal_energy": -1.49, "cluster_size": 3, "cluster_id": 2, "rank_in_cluster": 2}

>  <energy>  (2) 
-7.98

>  <cluster_rmsd>  (2) 
1.85

>  <cluster>  (2) 
1

$$$$

     RDKit          3D

 55 58  0  0  0  0  0  0  0  0999 V2000
  140.4980   76.9760  218.5350 O   0  0  0  0  0  0  0  0  0  0  0  0
  141.6140   76.8780  219.1100 C   0  0  0  0  0  0  0  0  0  0  0  0
  142.1080   78.1200  219.6780 N   0  0  0  0  0  0  0  0  0  0  0  0
  141.2760   79.2610  219.5130 C   0  0  0  0  0  0  0  0  0  0  0  0
  140.3170   79.6200  220.5500 C   0  0  0  0  0  0  0  0  0  0  0  0
  139.0880   79.6580  220.1170 O   0  0  0  0  0  0  0  0  0  0  0  0
  140.4750   79.9270  221.8970 N   0  0  0  0  0  0  0  0  0  0  0  0
  140.4680   81.2450  222.5200 C   0  0  0  0  0  0  0  0  0  0  0  0
  141.7740   81.5390  223.1880 C   0  0  0  0  0  0  0  0  0  0  0  0
  142.4230   80.3640  223.8380 C   0  0  0  0  0  0  0  0  0  0  0  0
  142.1880   79.0250  223.2220 C   0  0  0  0  0  0  0  0  0  0  0  0
  140.7410   78.8650  222.9080 C   0  0  2  0  0  0  0  0  0  0  0  0
  140.2610   77.5490  222.5620 C   0  0  0  0  0  0  0  0  0  0  0  0
  138.8930   77.3380  222.4450 C   0  0  0  0  0  0  0  0  0  0  0  0
  138.3560   76.1180  222.0840 C   0  0  0  0  0  0  0  0  0  0  0  0
  139.1790   75.0410  221.8230 C   0  0  0  0  0  0  0  0  0  0  0  0
  138.7020   73.7890  221.4560 O   0  0  0  0  0  0  0  0  0  0  0  0
  139.4550   72.6010  221.6480 C   0  0  0  0  0  0  0  0  0  0  0  0
  138.6830   71.4790  221.4730 F   0  0  0  0  0  0  0  0  0  0  0  0
  139.9170   72.5900  222.9680 F   0  0  0  0  0  0  0  0  0  0  0  0
  140.5680   72.5640  220.8410 F   0  0  0  0  0  0  0  0  0  0  0  0
  140.5390   75.2430  221.9370 C   0  0  0  0  0  0  0  0  0  0  0  0
  141.0680   76.4640  222.2980 C   0  0  0  0  0  0  0  0  0  0  0  0
  142.3670   75.6420  219.2150 C   0  0  0  0  0  0  0  0  0  0  0  0
  141.8790   74.5430  218.5480 C   0  0  0  0  0  0  0  0  0  0  0  0
  142.6290   73.3710  218.6720 C   0  0  0  0  0  0  0  0  0  0  0  0
  143.7920   73.3500  219.4290 C   0  0  0  0  0  0  0  0  0  0  0  0
  144.5630   72.2210  219.5790 C   0  0  0  0  0  0  0  0  0  0  0  0
  145.7030   72.2420  220.3350 C   0  0  0  0  0  0  0  0  0  0  0  0
  146.1420   73.3960  220.9870 C   0  0  0  0  0  0  0  0  0  0  0  0
  145.3730   74.5300  220.8400 C   0  0  0  0  0  0  0  0  0  0  0  0
  144.2250   74.4940  220.0740 C   0  0  0  0  0  0  0  0  0  0  0  0
  143.4960   75.6180  219.9500 N   0  0  0  0  0  0  0  0  0  0  0  0
  143.0310   78.1150  220.1700 H   0  0  0  0  0  0  0  0  0  0  0  0
  141.9442   80.1254  219.3855 H   0  0  0  0  0  0  0  0  0  0  0  0
  140.6363   78.9862  218.6614 H   0  0  0  0  0  0  0  0  0  0  0  0
  140.2819   82.0054  221.7472 H   0  0  0  0  0  0  0  0  0  0  0  0
  139.6763   81.2632  223.2835 H   0  0  0  0  0  0  0  0  0  0  0  0
  142.4649   81.9351  222.4292 H   0  0  0  0  0  0  0  0  0  0  0  0
  141.5554   82.2563  223.9928 H   0  0  0  0  0  0  0  0  0  0  0  0
  143.5084   80.5428  223.8359 H   0  0  0  0  0  0  0  0  0  0  0  0
  141.9613   80.3016  224.8344 H   0  0  0  0  0  0  0  0  0  0  0  0
  142.7749   78.9405  222.2955 H   0  0  0  0  0  0  0  0  0  0  0  0
  142.4971   78.2397  223.9275 H   0  0  0  0  0  0  0  0  0  0  0  0
  140.1445   78.9841  223.8245 H   0  0  0  0  0  0  0  0  0  0  0  0
  138.2102   78.1762  222.6480 H   0  0  0  0  0  0  0  0  0  0  0  0
  137.2649   76.0037  222.0039 H   0  0  0  0  0  0  0  0  0  0  0  0
  141.2218   74.4048  221.7338 H   0  0  0  0  0  0  0  0  0  0  0  0
  142.1596   76.5744  222.3771 H   0  0  0  0  0  0  0  0  0  0  0  0
  140.9546   74.5842  217.9532 H   0  0  0  0  0  0  0  0  0  0  0  0
  142.2941   72.4546  218.1640 H   0  0  0  0  0  0  0  0  0  0  0  0
  144.2585   71.2872  219.0837 H   0  0  0  0  0  0  0  0  0  0  0  0
  146.2934   71.3190  220.4325 H   0  0  0  0  0  0  0  0  0  0  0  0
  147.0611   73.3998  221.5913 H   0  0  0  0  0  0  0  0  0  0  0  0
  145.6744   75.4656  221.3339 H   0  0  0  0  0  0  0  0  0  0  0  0
  1  2  2  0
  2  3  1  0
  3  4  1  0
  4  5  1  0
  5  6  2  0
  5  7  1  0
  7  8  1  0
  8  9  1  0
  9 10  1  0
 10 11  1  0
 11 12  1  0
 12 13  1  0
 13 14  2  0
 14 15  1  0
 15 16  2  0
 16 17  1  0
 17 18  1  0
 18 19  1  0
 18 20  1  0
 18 21  1  0
 16 22  1  0
 22 23  2  0
  2 24  1  0
 24 25  2  0
 25 26  1  0
 26 27  2  0
 27 28  1  0
 28 29  2  0
 29 30  1  0
 30 31  2  0
 31 32  1  0
 32 33  2  0
 12  7  1  0
 23 13  1  0
 33 24  1  0
 32 27  1  0
  3 34  1  0
  4 35  1  0
  4 36  1  0
  8 37  1  0
  8 38  1  0
  9 39  1  0
  9 40  1  0
 10 41  1  0
 10 42  1  0
 11 43  1  0
 11 44  1  0
 12 45  1  1
 14 46  1  0
 15 47  1  0
 22 48  1  0
 23 49  1  0
 25 50  1  0
 26 51  1  0
 28 52  1  0
 29 53  1  0
 30 54  1  0
 31 55  1  0
M  END
>  <smiles>  (3) 
O=C(NCC(=O)N1CCCCC1c1ccc(OC(F)(F)F)cc1)c1ccc2ccccc2n1

>  <score_type>  (3) 
oracle

>  <origin>  (3) 
autodockgpu

>  <m_score__min__energy>  (3) 
-8.5999999999999996

>  <m_primary>  (3) 
energy

>  <rmsd>  (3) 
7.383521621504331

>  <m_score__min__rmsd>  (3) 
7.383521621504331

>  <meeko>  (3) 
{"free_energy": -6.76, "intermolecular_energy": -8.85, "internal_energy": -3.0, "cluster_size": 8, "cluster_id": 7, "rank_in_cluster": 7}

>  <energy>  (3) 
-7.97

>  <cluster_rmsd>  (3) 
0.79

>  <cluster>  (3) 
1

$$$$

     RDKit          3D

 55 58  0  0  0  0  0  0  0  0999 V2000
  139.0240   75.0560  221.7010 O   0  0  0  0  0  0  0  0  0  0  0  0
  140.1000   75.6730  221.9160 C   0  0  0  0  0  0  0  0  0  0  0  0
  141.2950   74.8550  221.7890 N   0  0  0  0  0  0  0  0  0  0  0  0
  141.0900   73.4930  221.4400 C   0  0  0  0  0  0  0  0  0  0  0  0
  141.3880   73.0330  220.0910 C   0  0  0  0  0  0  0  0  0  0  0  0
  140.3180   72.7760  219.3910 O   0  0  0  0  0  0  0  0  0  0  0  0
  142.5910   72.8180  219.4250 N   0  0  0  0  0  0  0  0  0  0  0  0
  143.1490   71.5490  218.9750 C   0  0  0  0  0  0  0  0  0  0  0  0
  144.4600   71.2650  219.6370 C   0  0  0  0  0  0  0  0  0  0  0  0
  145.3160   72.4640  219.8700 C   0  0  0  0  0  0  0  0  0  0  0  0
  144.6230   73.7620  220.1210 C   0  0  0  0  0  0  0  0  0  0  0  0
  143.5240   73.9420  219.1320 C   0  0  2  0  0  0  0  0  0  0  0  0
  142.9110   75.2440  219.0250 C   0  0  0  0  0  0  0  0  0  0  0  0
  141.9350   75.4540  218.0600 C   0  0  0  0  0  0  0  0  0  0  0  0
  141.2760   76.6590  217.9170 C   0  0  0  0  0  0  0  0  0  0  0  0
  141.5720   77.7210  218.7470 C   0  0  0  0  0  0  0  0  0  0  0  0
  140.9460   78.9570  218.6550 O   0  0  0  0  0  0  0  0  0  0  0  0
  141.6360   80.1780  218.8730 C   0  0  0  0  0  0  0  0  0  0  0  0
  140.9520   81.2480  218.3480 F   0  0  0  0  0  0  0  0  0  0  0  0
  142.8670   80.1040  218.2130 F   0  0  0  0  0  0  0  0  0  0  0  0
  141.9160   80.3790  220.2050 F   0  0  0  0  0  0  0  0  0  0  0  0
  142.5400   77.5200  219.7090 C   0  0  0  0  0  0  0  0  0  0  0  0
  143.1940   76.3130  219.8450 C   0  0  0  0  0  0  0  0  0  0  0  0
  140.1750   77.0790  222.2620 C   0  0  0  0  0  0  0  0  0  0  0  0
  138.9940   77.7820  222.3210 C   0  0  0  0  0  0  0  0  0  0  0  0
  139.1050   79.1340  222.6570 C   0  0  0  0  0  0  0  0  0  0  0  0
  140.3450   79.7030  222.9090 C   0  0  0  0  0  0  0  0  0  0  0  0
  140.5020   81.0280  223.2440 C   0  0  0  0  0  0  0  0  0  0  0  0
  141.7430   81.5510  223.4840 C   0  0  0  0  0  0  0  0  0  0  0  0
  142.9040   80.7790  223.4060 C   0  0  0  0  0  0  0  0  0  0  0  0
  142.7510   79.4500  223.0720 C   0  0  0  0  0  0  0  0  0  0  0  0
  141.4930   78.9360  222.8310 C   0  0  0  0  0  0  0  0  0  0  0  0
  141.3770   77.6360  222.5070 N   0  0  0  0  0  0  0  0  0  0  0  0
  142.2270   75.3010  221.9550 H   0  0  0  0  0  0  0  0  0  0  0  0
  141.7092   72.8936  222.1236 H   0  0  0  0  0  0  0  0  0  0  0  0
  139.9986   73.3760  221.5110 H   0  0  0  0  0  0  0  0  0  0  0  0
  142.4429   70.7412  219.2177 H   0  0  0  0  0  0  0  0  0  0  0  0
  143.3147   71.6088  217.8892 H   0  0  0  0  0  0  0  0  0  0  0  0
  144.2570   70.7951  220.6106 H   0  0  0  0  0  0  0  0  0  0  0  0
  145.0196   70.6141  218.9491 H   0  0  0  0  0  0  0  0  0  0  0  0
  145.9491   72.2530  220.7444 H   0  0  0  0  0  0  0  0  0  0  0  0
  145.8582   72.6118  218.9244 H   0  0  0  0  0  0  0  0  0  0  0  0
  144.2038   73.7623  221.1380 H   0  0  0  0  0  0  0  0  0  0  0  0
  145.3442   74.5864  220.0193 H   0  0  0  0  0  0  0  0  0  0  0  0
  143.9307   73.9070  218.1105 H   0  0  0  0  0  0  0  0  0  0  0  0
  141.6763   74.6272  217.3821 H   0  0  0  0  0  0  0  0  0  0  0  0
  140.5098   76.7732  217.1361 H   0  0  0  0  0  0  0  0  0  0  0  0
  142.7980   78.3464  220.3876 H   0  0  0  0  0  0  0  0  0  0  0  0
  143.9596   76.2021  220.6270 H   0  0  0  0  0  0  0  0  0  0  0  0
  138.0222   77.3091  222.1163 H   0  0  0  0  0  0  0  0  0  0  0  0
  138.1988   79.7541  222.7224 H   0  0  0  0  0  0  0  0  0  0  0  0
  139.6167   81.6764  223.3200 H   0  0  0  0  0  0  0  0  0  0  0  0
  141.8293   82.6155  223.7473 H   0  0  0  0  0  0  0  0  0  0  0  0
  143.8961   81.2117  223.6022 H   0  0  0  0  0  0  0  0  0  0  0  0
  143.6337   78.7979  222.9975 H   0  0  0  0  0  0  0  0  0  0  0  0
  1  2  2  0
  2  3  1  0
  3  4  1  0
  4  5  1  0
  5  6  2  0
  5  7  1  0
  7  8  1  0
  8  9  1  0
  9 10  1  0
 10 11  1  0
 11 12  1  0
 12 13  1  0
 13 14  2  0
 14 15  1  0
 15 16  2  0
 16 17  1  0
 17 18  1  0
 18 19  1  0
 18 20  1  0
 18 21  1  0
 16 22  1  0
 22 23  2  0
  2 24  1  0
 24 25  2  0
 25 26  1  0
 26 27  2  0
 27 28  1  0
 28 29  2  0
 29 30  1  0
 30 31  2  0
 31 32  1  0
 32 33  2  0
 12  7  1  0
 23 13  1  0
 33 24  1  0
 32 27  1  0
  3 34  1  0
  4 35  1  0
  4 36  1  0
  8 37  1  0
  8 38  1  0
  9 39  1  0
  9 40  1  0
 10 41  1  0
 10 42  1  0
 11 43  1  0
 11 44  1  0
 12 45  1  6
 14 46  1  0
 15 47  1  0
 22 48  1  0
 23 49  1  0
 25 50  1  0
 26 51  1  0
 28 52  1  0
 29 53  1  0
 30 54  1  0
 31 55  1  0
M  END
>  <smiles>  (4) 
O=C(NCC(=O)N1CCCCC1c1ccc(OC(F)(F)F)cc1)c1ccc2ccccc2n1

>  <score_type>  (4) 
oracle

>  <origin>  (4) 
autodockgpu

>  <m_score__min__energy>  (4) 
-8.5999999999999996

>  <m_primary>  (4) 
energy

>  <rmsd>  (4) 
7.643319158174506

>  <m_score__min__rmsd>  (4) 
7.643319158174506

>  <meeko>  (4) 
{"free_energy": -6.52, "intermolecular_energy": -8.6, "internal_energy": -3.16, "cluster_size": 26, "cluster_id": 5, "rank_in_cluster": 26}

>  <energy>  (4) 
-7.67

>  <cluster_rmsd>  (4) 
1.24

>  <cluster>  (4) 
1

$$$$

     RDKit          3D

 55 58  0  0  0  0  0  0  0  0999 V2000
  139.1190   75.0530  221.7470 O   0  0  0  0  0  0  0  0  0  0  0  0
  140.1900   75.6900  221.9230 C   0  0  0  0  0  0  0  0  0  0  0  0
  141.3940   74.9350  221.6210 N   0  0  0  0  0  0  0  0  0  0  0  0
  141.2010   73.6000  221.1710 C   0  0  0  0  0  0  0  0  0  0  0  0
  141.8200   73.1530  219.9300 C   0  0  0  0  0  0  0  0  0  0  0  0
  140.9680   72.6260  219.0960 O   0  0  0  0  0  0  0  0  0  0  0  0
  143.1380   73.1830  219.4840 N   0  0  0  0  0  0  0  0  0  0  0  0
  144.0020   72.0520  219.1730 C   0  0  0  0  0  0  0  0  0  0  0  0
  145.2100   72.0310  220.0550 C   0  0  0  0  0  0  0  0  0  0  0  0
  145.7620   73.3750  220.3920 C   0  0  0  0  0  0  0  0  0  0  0  0
  144.7960   74.5080  220.4830 C   0  0  0  0  0  0  0  0  0  0  0  0
  143.8690   74.4710  219.3180 C   0  0  2  0  0  0  0  0  0  0  0  0
  143.0390   75.6250  219.0700 C   0  0  0  0  0  0  0  0  0  0  0  0
  142.1260   75.5900  218.0240 C   0  0  0  0  0  0  0  0  0  0  0  0
  141.2730   76.6380  217.7440 C   0  0  0  0  0  0  0  0  0  0  0  0
  141.3000   77.7860  218.5100 C   0  0  0  0  0  0  0  0  0  0  0  0
  140.4700   78.8750  218.2810 O   0  0  0  0  0  0  0  0  0  0  0  0
  140.6200   80.1060  218.9710 C   0  0  0  0  0  0  0  0  0  0  0  0
  141.9210   80.5470  218.9440 F   0  0  0  0  0  0  0  0  0  0  0  0
  140.2770   79.8960  220.3110 F   0  0  0  0  0  0  0  0  0  0  0  0
  139.7640   81.0700  218.4930 F   0  0  0  0  0  0  0  0  0  0  0  0
  142.2040   77.8290  219.5510 C   0  0  0  0  0  0  0  0  0  0  0  0
  143.0530   76.7770  219.8250 C   0  0  0  0  0  0  0  0  0  0  0  0
  140.2520   77.0640  222.3850 C   0  0  0  0  0  0  0  0  0  0  0  0
  139.0610   77.6940  222.6650 C   0  0  0  0  0  0  0  0  0  0  0  0
  139.1590   79.0150  223.1070 C   0  0  0  0  0  0  0  0  0  0  0  0
  140.3960   79.6270  223.2470 C   0  0  0  0  0  0  0  0  0  0  0  0
  140.5410   80.9250  223.6800 C   0  0  0  0  0  0  0  0  0  0  0  0
  141.7810   81.4920  223.8030 C   0  0  0  0  0  0  0  0  0  0  0  0
  142.9510   80.7930  223.5020 C   0  0  0  0  0  0  0  0  0  0  0  0
  142.8110   79.4920  223.0680 C   0  0  0  0  0  0  0  0  0  0  0  0
  141.5550   78.9330  222.9480 C   0  0  0  0  0  0  0  0  0  0  0  0
  141.4510   77.6620  222.5220 N   0  0  0  0  0  0  0  0  0  0  0  0
  142.3220   75.4000  221.7460 H   0  0  0  0  0  0  0  0  0  0  0  0
  141.5736   72.9393  221.9677 H   0  0  0  0  0  0  0  0  0  0  0  0
  140.1252   73.5624  220.9449 H   0  0  0  0  0  0  0  0  0  0  0  0
  143.4369   71.1193  219.3173 H   0  0  0  0  0  0  0  0  0  0  0  0
  144.3362   72.1476  218.1294 H   0  0  0  0  0  0  0  0  0  0  0  0
  144.9390   71.5270  220.9944 H   0  0  0  0  0  0  0  0  0  0  0  0
  145.9956   71.5061  219.4917 H   0  0  0  0  0  0  0  0  0  0  0  0
  146.2652   73.2907  221.3665 H   0  0  0  0  0  0  0  0  0  0  0  0
  146.4184   73.6307  219.5472 H   0  0  0  0  0  0  0  0  0  0  0  0
  144.2169   74.4211  221.4142 H   0  0  0  0  0  0  0  0  0  0  0  0
  145.3483   75.4593  220.4794 H   0  0  0  0  0  0  0  0  0  0  0  0
  144.4440   74.5225  218.3817 H   0  0  0  0  0  0  0  0  0  0  0  0
  142.0810   74.6901  217.3930 H   0  0  0  0  0  0  0  0  0  0  0  0
  140.5666   76.5580  216.9046 H   0  0  0  0  0  0  0  0  0  0  0  0
  142.2492   78.7292  220.1815 H   0  0  0  0  0  0  0  0  0  0  0  0
  143.7574   76.8599  220.6658 H   0  0  0  0  0  0  0  0  0  0  0  0
  138.0913   77.1880  222.5478 H   0  0  0  0  0  0  0  0  0  0  0  0
  138.2444   79.5770  223.3470 H   0  0  0  0  0  0  0  0  0  0  0  0
  139.6476   81.5157  223.9310 H   0  0  0  0  0  0  0  0  0  0  0  0
  141.8578   82.5328  224.1505 H   0  0  0  0  0  0  0  0  0  0  0  0
  143.9415   81.2598  223.6065 H   0  0  0  0  0  0  0  0  0  0  0  0
  143.7023   78.8983  222.8168 H   0  0  0  0  0  0  0  0  0  0  0  0
  1  2  2  0
  2  3  1  0
  3  4  1  0
  4  5  1  0
  5  6  2  0
  5  7  1  0
  7  8  1  0
  8  9  1  0
  9 10  1  0
 10 11  1  0
 11 12  1  0
 12 13  1  0
 13 14  2  0
 14 15  1  0
 15 16  2  0
 16 17  1  0
 17 18  1  0
 18 19  1  0
 18 20  1  0
 18 21  1  0
 16 22  1  0
 22 23  2  0
  2 24  1  0
 24 25  2  0
 25 26  1  0
 26 27  2  0
 27 28  1  0
 28 29  2  0
 29 30  1  0
 30 31  2  0
 31 32  1  0
 32 33  2  0
 12  7  1  0
 23 13  1  0
 33 24  1  0
 32 27  1  0
  3 34  1  0
  4 35  1  0
  4 36  1  0
  8 37  1  0
  8 38  1  0
  9 39  1  0
  9 40  1  0
 10 41  1  0
 10 42  1  0
 11 43  1  0
 11 44  1  0
 12 45  1  6
 14 46  1  0
 15 47  1  0
 22 48  1  0
 23 49  1  0
 25 50  1  0
 26 51  1  0
 28 52  1  0
 29 53  1  0
 30 54  1  0
 31 55  1  0
M  END
>  <smiles>  (5) 
O=C(NCC(=O)N1CCCCC1c1ccc(OC(F)(F)F)cc1)c1ccc2ccccc2n1

>  <score_type>  (5) 
oracle

>  <origin>  (5) 
autodockgpu

>  <m_score__min__energy>  (5) 
-8.5999999999999996

>  <m_primary>  (5) 
energy

>  <rmsd>  (5) 
7.628921037019178

>  <m_score__min__rmsd>  (5) 
7.628921037019178

>  <meeko>  (5) 
{"free_energy": -6.89, "intermolecular_energy": -8.97, "internal_energy": -3.02, "cluster_size": 26, "cluster_id": 5, "rank_in_cluster": 10}

>  <energy>  (5) 
-7.67

>  <cluster_rmsd>  (5) 
0.79

>  <cluster>  (5) 
1

$$$$

     RDKit          3D

 55 58  0  0  0  0  0  0  0  0999 V2000
  140.9470   72.1360  221.6350 O   0  0  0  0  0  0  0  0  0  0  0  0
  140.0920   72.2280  222.5540 C   0  0  0  0  0  0  0  0  0  0  0  0
  139.0930   73.2620  222.3420 N   0  0  0  0  0  0  0  0  0  0  0  0
  139.2120   74.0150  221.1430 C   0  0  0  0  0  0  0  0  0  0  0  0
  140.2960   74.9760  220.9900 C   0  0  0  0  0  0  0  0  0  0  0  0
  141.0010   75.1260  222.0770 O   0  0  0  0  0  0  0  0  0  0  0  0
  140.7050   75.7530  219.9120 N   0  0  0  0  0  0  0  0  0  0  0  0
  140.8580   75.3420  218.5220 C   0  0  0  0  0  0  0  0  0  0  0  0
  142.2730   75.4980  218.0600 C   0  0  0  0  0  0  0  0  0  0  0  0
  142.9850   76.6860  218.6140 C   0  0  0  0  0  0  0  0  0  0  0  0
  142.5940   77.1420  219.9800 C   0  0  0  0  0  0  0  0  0  0  0  0
  141.1090   77.1760  220.0920 C   0  0  2  0  0  0  0  0  0  0  0  0
  140.5270   77.8450  221.2300 C   0  0  0  0  0  0  0  0  0  0  0  0
  141.3630   78.3590  222.2130 C   0  0  0  0  0  0  0  0  0  0  0  0
  140.8870   79.0420  223.3140 C   0  0  0  0  0  0  0  0  0  0  0  0
  139.5310   79.2420  223.4800 C   0  0  0  0  0  0  0  0  0  0  0  0
  138.9880   79.9190  224.5640 O   0  0  0  0  0  0  0  0  0  0  0  0
  137.9360   80.8610  224.4240 C   0  0  0  0  0  0  0  0  0  0  0  0
  137.7610   81.6000  225.5690 F   0  0  0  0  0  0  0  0  0  0  0  0
  136.7500   80.1540  224.1970 F   0  0  0  0  0  0  0  0  0  0  0  0
  138.1200   81.6790  223.3340 F   0  0  0  0  0  0  0  0  0  0  0  0
  138.6940   78.7350  222.5080 C   0  0  0  0  0  0  0  0  0  0  0  0
  139.1780   78.0530  221.4110 C   0  0  0  0  0  0  0  0  0  0  0  0
  140.0770   71.3880  223.7360 C   0  0  0  0  0  0  0  0  0  0  0  0
  139.5490   70.1240  223.6100 C   0  0  0  0  0  0  0  0  0  0  0  0
  139.5510   69.3430  224.7690 C   0  0  0  0  0  0  0  0  0  0  0  0
  140.0620   69.8410  225.9590 C   0  0  0  0  0  0  0  0  0  0  0  0
  140.0860   69.1090  227.1240 C   0  0  0  0  0  0  0  0  0  0  0  0
  140.5980   69.6380  228.2770 C   0  0  0  0  0  0  0  0  0  0  0  0
  141.1200   70.9320  228.3350 C   0  0  0  0  0  0  0  0  0  0  0  0
  141.0980   71.6690  227.1700 C   0  0  0  0  0  0  0  0  0  0  0  0
  140.5780   71.1230  226.0140 C   0  0  0  0  0  0  0  0  0  0  0  0
  140.5710   71.8680  224.8940 N   0  0  0  0  0  0  0  0  0  0  0  0
  138.3510   73.3970  223.0670 H   0  0  0  0  0  0  0  0  0  0  0  0
  139.3122   73.2902  220.3217 H   0  0  0  0  0  0  0  0  0  0  0  0
  138.3127   74.6483  221.1524 H   0  0  0  0  0  0  0  0  0  0  0  0
  140.5645   74.2862  218.4264 H   0  0  0  0  0  0  0  0  0  0  0  0
  140.2172   75.9828  217.8985 H   0  0  0  0  0  0  0  0  0  0  0  0
  142.8305   74.5968  218.3549 H   0  0  0  0  0  0  0  0  0  0  0  0
  142.2285   75.6441  216.9706 H   0  0  0  0  0  0  0  0  0  0  0  0
  144.0581   76.4456  218.6403 H   0  0  0  0  0  0  0  0  0  0  0  0
  142.7083   77.5171  217.9486 H   0  0  0  0  0  0  0  0  0  0  0  0
  143.0013   76.4462  220.7283 H   0  0  0  0  0  0  0  0  0  0  0  0
  142.9958   78.1507  220.1563 H   0  0  0  0  0  0  0  0  0  0  0  0
  140.6910   77.8426  219.3233 H   0  0  0  0  0  0  0  0  0  0  0  0
  142.4488   78.2159  222.1098 H   0  0  0  0  0  0  0  0  0  0  0  0
  141.5924   79.4294  224.0639 H   0  0  0  0  0  0  0  0  0  0  0  0
  137.6083   78.8788  222.6106 H   0  0  0  0  0  0  0  0  0  0  0  0
  138.4698   77.6663  220.6634 H   0  0  0  0  0  0  0  0  0  0  0  0
  139.1496   69.7508  222.6554 H   0  0  0  0  0  0  0  0  0  0  0  0
  139.1429   68.3220  224.7375 H   0  0  0  0  0  0  0  0  0  0  0  0
  139.6877   68.0836  227.1282 H   0  0  0  0  0  0  0  0  0  0  0  0
  140.5986   69.0234  229.1892 H   0  0  0  0  0  0  0  0  0  0  0  0
  141.5303   71.3448  229.2684 H   0  0  0  0  0  0  0  0  0  0  0  0
  141.4958   72.6945  227.1618 H   0  0  0  0  0  0  0  0  0  0  0  0
  1  2  2  0
  2  3  1  0
  3  4  1  0
  4  5  1  0
  5  6  2  0
  5  7  1  0
  7  8  1  0
  8  9  1  0
  9 10  1  0
 10 11  1  0
 11 12  1  0
 12 13  1  0
 13 14  2  0
 14 15  1  0
 15 16  2  0
 16 17  1  0
 17 18  1  0
 18 19  1  0
 18 20  1  0
 18 21  1  0
 16 22  1  0
 22 23  2  0
  2 24  1  0
 24 25  2  0
 25 26  1  0
 26 27  2  0
 27 28  1  0
 28 29  2  0
 29 30  1  0
 30 31  2  0
 31 32  1  0
 32 33  2  0
 12  7  1  0
 23 13  1  0
 33 24  1  0
 32 27  1  0
  3 34  1  0
  4 35  1  0
  4 36  1  0
  8 37  1  0
  8 38  1  0
  9 39  1  0
  9 40  1  0
 10 41  1  0
 10 42  1  0
 11 43  1  0
 11 44  1  0
 12 45  1  6
 14 46  1  0
 15 47  1  0
 22 48  1  0
 23 49  1  0
 25 50  1  0
 26 51  1  0
 28 52  1  0
 29 53  1  0
 30 54  1  0
 31 55  1  0
M  END
>  <smiles>  (6) 
O=C(NCC(=O)N1CCCCC1c1ccc(OC(F)(F)F)cc1)c1ccc2ccccc2n1

>  <score_type>  (6) 
oracle

>  <origin>  (6) 
autodockgpu

>  <m_score__min__energy>  (6) 
-8.5999999999999996

>  <m_primary>  (6) 
energy

>  <rmsd>  (6) 
1.6135971870170807

>  <m_score__min__rmsd>  (6) 
1.6135971870170807

>  <meeko>  (6) 
{"free_energy": -8.36, "intermolecular_energy": -10.44, "internal_energy": -1.51, "cluster_size": 3, "cluster_id": 2, "rank_in_cluster": 1}

>  <energy>  (6) 
-7.66

>  <cluster_rmsd>  (6) 
0.78

>  <cluster>  (6) 
1

$$$$

     RDKit          3D

 55 58  0  0  0  0  0  0  0  0999 V2000
  140.5600   77.0050  218.6160 O   0  0  0  0  0  0  0  0  0  0  0  0
  141.6990   76.9200  219.1450 C   0  0  0  0  0  0  0  0  0  0  0  0
  142.2130   78.1750  219.6670 N   0  0  0  0  0  0  0  0  0  0  0  0
  141.3710   79.3100  219.5150 C   0  0  0  0  0  0  0  0  0  0  0  0
  140.4020   79.6420  220.5510 C   0  0  0  0  0  0  0  0  0  0  0  0
  139.1700   79.6180  220.1230 O   0  0  0  0  0  0  0  0  0  0  0  0
  140.5520   79.9790  221.8920 N   0  0  0  0  0  0  0  0  0  0  0  0
  140.5670   81.3120  222.4820 C   0  0  0  0  0  0  0  0  0  0  0  0
  141.8720   81.5940  223.1580 C   0  0  0  0  0  0  0  0  0  0  0  0
  142.4880   80.4210  223.8440 C   0  0  0  0  0  0  0  0  0  0  0  0
  142.2300   79.0730  223.2570 C   0  0  0  0  0  0  0  0  0  0  0  0
  140.7840   78.9360  222.9310 C   0  0  2  0  0  0  0  0  0  0  0  0
  140.2790   77.6230  222.6120 C   0  0  0  0  0  0  0  0  0  0  0  0
  138.9060   77.4110  222.6010 C   0  0  0  0  0  0  0  0  0  0  0  0
  138.3430   76.1940  222.2730 C   0  0  0  0  0  0  0  0  0  0  0  0
  139.1430   75.1210  221.9360 C   0  0  0  0  0  0  0  0  0  0  0  0
  138.6400   73.8720  221.5960 O   0  0  0  0  0  0  0  0  0  0  0  0
  139.4280   72.6930  221.6490 C   0  0  0  0  0  0  0  0  0  0  0  0
  140.3630   72.6630  220.6430 F   0  0  0  0  0  0  0  0  0  0  0  0
  138.5790   71.5960  221.4640 F   0  0  0  0  0  0  0  0  0  0  0  0
  140.0220   72.5270  222.8780 F   0  0  0  0  0  0  0  0  0  0  0  0
  140.5080   75.3230  221.9440 C   0  0  0  0  0  0  0  0  0  0  0  0
  141.0630   76.5420  222.2740 C   0  0  0  0  0  0  0  0  0  0  0  0
  142.4600   75.6880  219.2430 C   0  0  0  0  0  0  0  0  0  0  0  0
  141.9660   74.5840  218.5890 C   0  0  0  0  0  0  0  0  0  0  0  0
  142.7250   73.4160  218.7050 C   0  0  0  0  0  0  0  0  0  0  0  0
  143.9000   73.4040  219.4430 C   0  0  0  0  0  0  0  0  0  0  0  0
  144.6790   72.2790  219.5840 C   0  0  0  0  0  0  0  0  0  0  0  0
  145.8320   72.3090  220.3210 C   0  0  0  0  0  0  0  0  0  0  0  0
  146.2760   73.4680  220.9610 C   0  0  0  0  0  0  0  0  0  0  0  0
  145.4980   74.5980  220.8210 C   0  0  0  0  0  0  0  0  0  0  0  0
  144.3380   74.5530  220.0750 C   0  0  0  0  0  0  0  0  0  0  0  0
  143.6010   75.6730  219.9580 N   0  0  0  0  0  0  0  0  0  0  0  0
  143.1560   78.1810  220.1190 H   0  0  0  0  0  0  0  0  0  0  0  0
  142.0313   80.1830  219.4063 H   0  0  0  0  0  0  0  0  0  0  0  0
  140.7398   79.0432  218.6545 H   0  0  0  0  0  0  0  0  0  0  0  0
  140.4065   82.0567  221.6885 H   0  0  0  0  0  0  0  0  0  0  0  0
  139.7673   81.3667  223.2354 H   0  0  0  0  0  0  0  0  0  0  0  0
  142.5798   81.9563  222.3979 H   0  0  0  0  0  0  0  0  0  0  0  0
  141.6603   82.3353  223.9426 H   0  0  0  0  0  0  0  0  0  0  0  0
  143.5770   80.5760  223.8503 H   0  0  0  0  0  0  0  0  0  0  0  0
  142.0145   80.3928  224.8365 H   0  0  0  0  0  0  0  0  0  0  0  0
  142.8246   78.9540  222.3392 H   0  0  0  0  0  0  0  0  0  0  0  0
  142.5143   78.2985  223.9845 H   0  0  0  0  0  0  0  0  0  0  0  0
  140.1803   79.0895  223.8376 H   0  0  0  0  0  0  0  0  0  0  0  0
  138.2408   78.2466  222.8643 H   0  0  0  0  0  0  0  0  0  0  0  0
  137.2491   76.0786  222.2803 H   0  0  0  0  0  0  0  0  0  0  0  0
  141.1730   74.4876  221.6795 H   0  0  0  0  0  0  0  0  0  0  0  0
  142.1573   76.6534  222.2671 H   0  0  0  0  0  0  0  0  0  0  0  0
  141.0312   74.6179  218.0102 H   0  0  0  0  0  0  0  0  0  0  0  0
  142.3870   72.4960  218.2056 H   0  0  0  0  0  0  0  0  0  0  0  0
  144.3709   71.3418  219.0975 H   0  0  0  0  0  0  0  0  0  0  0  0
  146.4288   71.3895  220.4122 H   0  0  0  0  0  0  0  0  0  0  0  0
  147.2047   73.4791  221.5504 H   0  0  0  0  0  0  0  0  0  0  0  0
  145.8029   75.5375  221.3052 H   0  0  0  0  0  0  0  0  0  0  0  0
  1  2  2  0
  2  3  1  0
  3  4  1  0
  4  5  1  0
  5  6  2  0
  5  7  1  0
  7  8  1  0
  8  9  1  0
  9 10  1  0
 10 11  1  0
 11 12  1  0
 12 13  1  0
 13 14  2  0
 14 15  1  0
 15 16  2  0
 16 17  1  0
 17 18  1  0
 18 19  1  0
 18 20  1  0
 18 21  1  0
 16 22  1  0
 22 23  2  0
  2 24  1  0
 24 25  2  0
 25 26  1  0
 26 27  2  0
 27 28  1  0
 28 29  2  0
 29 30  1  0
 30 31  2  0
 31 32  1  0
 32 33  2  0
 12  7  1  0
 23 13  1  0
 33 24  1  0
 32 27  1  0
  3 34  1  0
  4 35  1  0
  4 36  1  0
  8 37  1  0
  8 38  1  0
  9 39  1  0
  9 40  1  0
 10 41  1  0
 10 42  1  0
 11 43  1  0
 11 44  1  0
 12 45  1  1
 14 46  1  0
 15 47  1  0
 22 48  1  0
 23 49  1  0
 25 50  1  0
 26 51  1  0
 28 52  1  0
 29 53  1  0
 30 54  1  0
 31 55  1  0
M  END
>  <smiles>  (7) 
O=C(NCC(=O)N1CCCCC1c1ccc(OC(F)(F)F)cc1)c1ccc2ccccc2n1

>  <score_type>  (7) 
oracle

>  <origin>  (7) 
autodockgpu

>  <m_score__min__energy>  (7) 
-8.5999999999999996

>  <m_primary>  (7) 
energy

>  <rmsd>  (7) 
7.44969050513534

>  <m_score__min__rmsd>  (7) 
7.44969050513534

>  <meeko>  (7) 
{"free_energy": -6.85, "intermolecular_energy": -8.94, "internal_energy": -2.93, "cluster_size": 8, "cluster_id": 7, "rank_in_cluster": 5}

>  <energy>  (7) 
-7.56

>  <cluster_rmsd>  (7) 
1.22

>  <cluster>  (7) 
1

$$$$

     RDKit          3D

 55 58  0  0  0  0  0  0  0  0999 V2000
  140.2360   71.8530  221.4870 O   0  0  0  0  0  0  0  0  0  0  0  0
  139.4830   71.9370  222.4920 C   0  0  0  0  0  0  0  0  0  0  0  0
  138.3390   72.8140  222.3120 N   0  0  0  0  0  0  0  0  0  0  0  0
  138.2240   73.4450  221.0440 C   0  0  0  0  0  0  0  0  0  0  0  0
  138.5310   74.8620  220.9030 C   0  0  0  0  0  0  0  0  0  0  0  0
  138.6460   75.2380  219.6600 O   0  0  0  0  0  0  0  0  0  0  0  0
  138.7240   75.8690  221.8430 N   0  0  0  0  0  0  0  0  0  0  0  0
  137.8220   76.2790  222.9110 C   0  0  0  0  0  0  0  0  0  0  0  0
  137.3950   77.7040  222.7460 C   0  0  0  0  0  0  0  0  0  0  0  0
  138.4470   78.6150  222.2100 C   0  0  0  0  0  0  0  0  0  0  0  0
  139.4490   78.0260  221.2740 C   0  0  0  0  0  0  0  0  0  0  0  0
  139.9410   76.7290  221.8160 C   0  0  2  0  0  0  0  0  0  0  0  0
  141.1060   76.1340  221.2080 C   0  0  0  0  0  0  0  0  0  0  0  0
  141.4330   74.8200  221.5170 C   0  0  0  0  0  0  0  0  0  0  0  0
  142.5100   74.1670  220.9510 C   0  0  0  0  0  0  0  0  0  0  0  0
  143.3180   74.8140  220.0380 C   0  0  0  0  0  0  0  0  0  0  0  0
  144.4160   74.2150  219.4330 O   0  0  0  0  0  0  0  0  0  0  0  0
  145.3340   73.4060  220.1520 C   0  0  0  0  0  0  0  0  0  0  0  0
  145.9420   74.1080  221.1650 F   0  0  0  0  0  0  0  0  0  0  0  0
  146.3360   72.9960  219.2660 F   0  0  0  0  0  0  0  0  0  0  0  0
  144.7430   72.2610  220.6330 F   0  0  0  0  0  0  0  0  0  0  0  0
  143.0000   76.1190  219.7250 C   0  0  0  0  0  0  0  0  0  0  0  0
  141.9220   76.7640  220.2950 C   0  0  0  0  0  0  0  0  0  0  0  0
  139.7110   71.2310  223.7390 C   0  0  0  0  0  0  0  0  0  0  0  0
  139.3280   69.9110  223.8000 C   0  0  0  0  0  0  0  0  0  0  0  0
  139.5620   69.2640  225.0160 C   0  0  0  0  0  0  0  0  0  0  0  0
  140.1480   69.9390  226.0770 C   0  0  0  0  0  0  0  0  0  0  0  0
  140.3990   69.3420  227.2920 C   0  0  0  0  0  0  0  0  0  0  0  0
  140.9780   70.0430  228.3140 C   0  0  0  0  0  0  0  0  0  0  0  0
  141.3430   71.3840  228.1830 C   0  0  0  0  0  0  0  0  0  0  0  0
  141.0940   71.9850  226.9680 C   0  0  0  0  0  0  0  0  0  0  0  0
  140.5090   71.2670  225.9460 C   0  0  0  0  0  0  0  0  0  0  0  0
  140.2790   71.8820  224.7720 N   0  0  0  0  0  0  0  0  0  0  0  0
  137.6700   72.9350  223.1080 H   0  0  0  0  0  0  0  0  0  0  0  0
  138.8949   72.9055  220.3593 H   0  0  0  0  0  0  0  0  0  0  0  0
  137.1447   73.3993  220.8368 H   0  0  0  0  0  0  0  0  0  0  0  0
  136.9311   75.6340  222.8948 H   0  0  0  0  0  0  0  0  0  0  0  0
  138.3537   76.1849  223.8694 H   0  0  0  0  0  0  0  0  0  0  0  0
  136.5388   77.7268  222.0558 H   0  0  0  0  0  0  0  0  0  0  0  0
  137.1510   78.0723  223.7534 H   0  0  0  0  0  0  0  0  0  0  0  0
  137.9373   79.4316  221.6776 H   0  0  0  0  0  0  0  0  0  0  0  0
  139.0296   78.9233  223.0906 H   0  0  0  0  0  0  0  0  0  0  0  0
  138.9790   77.8579  220.2938 H   0  0  0  0  0  0  0  0  0  0  0  0
  140.2959   78.7193  221.1638 H   0  0  0  0  0  0  0  0  0  0  0  0
  140.3815   76.8830  222.8121 H   0  0  0  0  0  0  0  0  0  0  0  0
  140.8086   74.2774  222.2421 H   0  0  0  0  0  0  0  0  0  0  0  0
  142.7253   73.1248  221.2294 H   0  0  0  0  0  0  0  0  0  0  0  0
  143.6242   76.6614  218.9996 H   0  0  0  0  0  0  0  0  0  0  0  0
  141.7092   77.8059  220.0136 H   0  0  0  0  0  0  0  0  0  0  0  0
  138.8661   69.3968  222.9443 H   0  0  0  0  0  0  0  0  0  0  0  0
  139.2784   68.2077  225.1334 H   0  0  0  0  0  0  0  0  0  0  0  0
  140.1301   68.2861  227.4430 H   0  0  0  0  0  0  0  0  0  0  0  0
  141.1621   69.5330  229.2711 H   0  0  0  0  0  0  0  0  0  0  0  0
  141.8086   71.9364  229.0125 H   0  0  0  0  0  0  0  0  0  0  0  0
  141.3626   73.0404  226.8129 H   0  0  0  0  0  0  0  0  0  0  0  0
  1  2  2  0
  2  3  1  0
  3  4  1  0
  4  5  1  0
  5  6  2  0
  5  7  1  0
  7  8  1  0
  8  9  1  0
  9 10  1  0
 10 11  1  0
 11 12  1  0
 12 13  1  0
 13 14  2  0
 14 15  1  0
 15 16  2  0
 16 17  1  0
 17 18  1  0
 18 19  1  0
 18 20  1  0
 18 21  1  0
 16 22  1  0
 22 23  2  0
  2 24  1  0
 24 25  2  0
 25 26  1  0
 26 27  2  0
 27 28  1  0
 28 29  2  0
 29 30  1  0
 30 31  2  0
 31 32  1  0
 32 33  2  0
 12  7  1  0
 23 13  1  0
 33 24  1  0
 32 27  1  0
  3 34  1  0
  4 35  1  0
  4 36  1  0
  8 37  1  0
  8 38  1  0
  9 39  1  0
  9 40  1  0
 10 41  1  0
 10 42  1  0
 11 43  1  0
 11 44  1  0
 12 45  1  1
 14 46  1  0
 15 47  1  0
 22 48  1  0
 23 49  1  0
 25 50  1  0
 26 51  1  0
 28 52  1  0
 29 53  1  0
 30 54  1  0
 31 55  1  0
M  END
>  <smiles>  (8) 
O=C(NCC(=O)N1CCCCC1c1ccc(OC(F)(F)F)cc1)c1ccc2ccccc2n1

>  <score_type>  (8) 
oracle

>  <origin>  (8) 
autodockgpu

>  <m_score__min__energy>  (8) 
-8.5999999999999996

>  <m_primary>  (8) 
energy

>  <rmsd>  (8) 
2.8242145064612725

>  <m_score__min__rmsd>  (8) 
2.8242145064612725

>  <meeko>  (8) 
{"free_energy": -7.79, "intermolecular_energy": -9.88, "internal_energy": -1.73, "cluster_size": 2, "cluster_id": 3, "rank_in_cluster": 2}

>  <energy>  (8) 
-7.53

>  <cluster_rmsd>  (8) 
0.87

>  <cluster>  (8) 
1

$$$$

     RDKit          3D

 55 58  0  0  0  0  0  0  0  0999 V2000
  139.0370   75.2920  221.5310 O   0  0  0  0  0  0  0  0  0  0  0  0
  140.1140   75.8620  221.8460 C   0  0  0  0  0  0  0  0  0  0  0  0
  141.2990   75.0400  221.6760 N   0  0  0  0  0  0  0  0  0  0  0  0
  141.0860   73.7250  221.1800 C   0  0  0  0  0  0  0  0  0  0  0  0
  141.6660   73.3230  219.9050 C   0  0  0  0  0  0  0  0  0  0  0  0
  140.7700   72.9690  219.0270 O   0  0  0  0  0  0  0  0  0  0  0  0
  142.9830   73.2480  219.4650 N   0  0  0  0  0  0  0  0  0  0  0  0
  143.7730   72.0490  219.2130 C   0  0  0  0  0  0  0  0  0  0  0  0
  144.9760   71.9930  220.1010 C   0  0  0  0  0  0  0  0  0  0  0  0
  145.6130   73.3140  220.3770 C   0  0  0  0  0  0  0  0  0  0  0  0
  144.7210   74.5100  220.4090 C   0  0  0  0  0  0  0  0  0  0  0  0
  143.7960   74.4760  219.2420 C   0  0  2  0  0  0  0  0  0  0  0  0
  143.0440   75.6680  218.9350 C   0  0  0  0  0  0  0  0  0  0  0  0
  142.9730   76.6850  219.8780 C   0  0  0  0  0  0  0  0  0  0  0  0
  142.3030   77.8700  219.6480 C   0  0  0  0  0  0  0  0  0  0  0  0
  141.6650   78.0900  218.4440 C   0  0  0  0  0  0  0  0  0  0  0  0
  140.9750   79.2590  218.1500 O   0  0  0  0  0  0  0  0  0  0  0  0
  140.8140   80.3070  219.0940 C   0  0  0  0  0  0  0  0  0  0  0  0
  140.0440   79.9130  220.1610 F   0  0  0  0  0  0  0  0  0  0  0  0
  140.1460   81.3610  218.4610 F   0  0  0  0  0  0  0  0  0  0  0  0
  142.0230   80.8060  219.5180 F   0  0  0  0  0  0  0  0  0  0  0  0
  141.7310   77.0860  217.5010 C   0  0  0  0  0  0  0  0  0  0  0  0
  142.4020   75.9040  217.7390 C   0  0  0  0  0  0  0  0  0  0  0  0
  140.1980   77.2240  222.3390 C   0  0  0  0  0  0  0  0  0  0  0  0
  139.0180   77.8690  222.6280 C   0  0  0  0  0  0  0  0  0  0  0  0
  139.1380   79.1780  223.1000 C   0  0  0  0  0  0  0  0  0  0  0  0
  140.3860   79.7640  223.2580 C   0  0  0  0  0  0  0  0  0  0  0  0
  140.5520   81.0490  223.7200 C   0  0  0  0  0  0  0  0  0  0  0  0
  141.8010   81.5900  223.8610 C   0  0  0  0  0  0  0  0  0  0  0  0
  142.9600   80.8780  223.5490 C   0  0  0  0  0  0  0  0  0  0  0  0
  142.7980   79.5890  223.0860 C   0  0  0  0  0  0  0  0  0  0  0  0
  141.5320   79.0560  222.9480 C   0  0  0  0  0  0  0  0  0  0  0  0
  141.4080   77.7960  222.4940 N   0  0  0  0  0  0  0  0  0  0  0  0
  142.2310   75.4470  221.9200 H   0  0  0  0  0  0  0  0  0  0  0  0
  141.4778   73.0322  221.9393 H   0  0  0  0  0  0  0  0  0  0  0  0
  140.0040   73.7018  220.9834 H   0  0  0  0  0  0  0  0  0  0  0  0
  143.1485   71.1629  219.3996 H   0  0  0  0  0  0  0  0  0  0  0  0
  144.1144   72.0719  218.1676 H   0  0  0  0  0  0  0  0  0  0  0  0
  144.6716   71.5526  221.0619 H   0  0  0  0  0  0  0  0  0  0  0  0
  145.7272   71.3929  219.5666 H   0  0  0  0  0  0  0  0  0  0  0  0
  146.1075   73.2442  221.3571 H   0  0  0  0  0  0  0  0  0  0  0  0
  146.2867   73.4865  219.5247 H   0  0  0  0  0  0  0  0  0  0  0  0
  144.1355   74.5050  221.3402 H   0  0  0  0  0  0  0  0  0  0  0  0
  145.3329   75.4229  220.3631 H   0  0  0  0  0  0  0  0  0  0  0  0
  144.3750   74.4438  218.3072 H   0  0  0  0  0  0  0  0  0  0  0  0
  143.4711   76.5405  220.8481 H   0  0  0  0  0  0  0  0  0  0  0  0
  142.2775   78.6439  220.4293 H   0  0  0  0  0  0  0  0  0  0  0  0
  141.2341   77.2317  216.5305 H   0  0  0  0  0  0  0  0  0  0  0  0
  142.4249   75.1321  216.9556 H   0  0  0  0  0  0  0  0  0  0  0  0
  138.0398   77.3836  222.4955 H   0  0  0  0  0  0  0  0  0  0  0  0
  138.2328   79.7511  223.3494 H   0  0  0  0  0  0  0  0  0  0  0  0
  139.6682   81.6502  223.9798 H   0  0  0  0  0  0  0  0  0  0  0  0
  141.8946   82.6210  224.2328 H   0  0  0  0  0  0  0  0  0  0  0  0
  143.9582   81.3249  223.6671 H   0  0  0  0  0  0  0  0  0  0  0  0
  143.6794   78.9843  222.8261 H   0  0  0  0  0  0  0  0  0  0  0  0
  1  2  2  0
  2  3  1  0
  3  4  1  0
  4  5  1  0
  5  6  2  0
  5  7  1  0
  7  8  1  0
  8  9  1  0
  9 10  1  0
 10 11  1  0
 11 12  1  0
 12 13  1  0
 13 14  2  0
 14 15  1  0
 15 16  2  0
 16 17  1  0
 17 18  1  0
 18 19  1  0
 18 20  1  0
 18 21  1  0
 16 22  1  0
 22 23  2  0
  2 24  1  0
 24 25  2  0
 25 26  1  0
 26 27  2  0
 27 28  1  0
 28 29  2  0
 29 30  1  0
 30 31  2  0
 31 32  1  0
 32 33  2  0
 12  7  1  0
 23 13  1  0
 33 24  1  0
 32 27  1  0
  3 34  1  0
  4 35  1  0
  4 36  1  0
  8 37  1  0
  8 38  1  0
  9 39  1  0
  9 40  1  0
 10 41  1  0
 10 42  1  0
 11 43  1  0
 11 44  1  0
 12 45  1  6
 14 46  1  0
 15 47  1  0
 22 48  1  0
 23 49  1  0
 25 50  1  0
 26 51  1  0
 28 52  1  0
 29 53  1  0
 30 54  1  0
 31 55  1  0
M  END
>  <smiles>  (9) 
O=C(NCC(=O)N1CCCCC1c1ccc(OC(F)(F)F)cc1)c1ccc2ccccc2n1

>  <score_type>  (9) 
oracle

>  <origin>  (9) 
autodockgpu

>  <m_score__min__energy>  (9) 
-8.5999999999999996

>  <m_primary>  (9) 
energy

>  <rmsd>  (9) 
7.659836878593599

>  <m_score__min__rmsd>  (9) 
7.659836878593599

>  <meeko>  (9) 
{"free_energy": -6.88, "intermolecular_energy": -8.96, "internal_energy": -3.05, "cluster_size": 26, "cluster_id": 5, "rank_in_cluster": 11}

>  <energy>  (9) 
-7.45

>  <cluster_rmsd>  (9) 
1.28

>  <cluster>  (9) 
1

$$$$

     RDKit          3D

 55 58  0  0  0  0  0  0  0  0999 V2000
  139.0750   75.2840  221.5280 O   0  0  0  0  0  0  0  0  0  0  0  0
  140.1540   75.8570  221.8340 C   0  0  0  0  0  0  0  0  0  0  0  0
  141.3410   75.0450  221.6350 N   0  0  0  0  0  0  0  0  0  0  0  0
  141.1290   73.7350  221.1250 C   0  0  0  0  0  0  0  0  0  0  0  0
  141.7320   73.3390  219.8600 C   0  0  0  0  0  0  0  0  0  0  0  0
  140.8510   72.9940  218.9620 O   0  0  0  0  0  0  0  0  0  0  0  0
  143.0570   73.2590  219.4450 N   0  0  0  0  0  0  0  0  0  0  0  0
  143.8370   72.0580  219.1710 C   0  0  0  0  0  0  0  0  0  0  0  0
  145.0200   71.9580  220.0830 C   0  0  0  0  0  0  0  0  0  0  0  0
  145.6670   73.2600  220.4130 C   0  0  0  0  0  0  0  0  0  0  0  0
  144.7900   74.4670  220.4640 C   0  0  0  0  0  0  0  0  0  0  0  0
  143.8900   74.4820  219.2770 C   0  0  2  0  0  0  0  0  0  0  0  0
  143.1600   75.6940  218.9920 C   0  0  0  0  0  0  0  0  0  0  0  0
  142.5370   75.8330  217.7590 C   0  0  0  0  0  0  0  0  0  0  0  0
  141.7910   76.9450  217.4230 C   0  0  0  0  0  0  0  0  0  0  0  0
  141.6360   77.9810  218.3210 C   0  0  0  0  0  0  0  0  0  0  0  0
  140.8990   79.1260  218.0450 O   0  0  0  0  0  0  0  0  0  0  0  0
  140.5640   80.0760  219.0440 C   0  0  0  0  0  0  0  0  0  0  0  0
  139.8050   81.1010  218.5350 F   0  0  0  0  0  0  0  0  0  0  0  0
  141.7530   80.6350  219.5260 F   0  0  0  0  0  0  0  0  0  0  0  0
  139.9410   79.4900  220.1210 F   0  0  0  0  0  0  0  0  0  0  0  0
  142.2510   77.8500  219.5490 C   0  0  0  0  0  0  0  0  0  0  0  0
  142.9950   76.7360  219.8770 C   0  0  0  0  0  0  0  0  0  0  0  0
  140.2360   77.2130  222.3440 C   0  0  0  0  0  0  0  0  0  0  0  0
  139.0570   77.8460  222.6580 C   0  0  0  0  0  0  0  0  0  0  0  0
  139.1750   79.1500  223.1450 C   0  0  0  0  0  0  0  0  0  0  0  0
  140.4220   79.7420  223.2920 C   0  0  0  0  0  0  0  0  0  0  0  0
  140.5870   81.0220  223.7690 C   0  0  0  0  0  0  0  0  0  0  0  0
  141.8350   81.5690  223.8980 C   0  0  0  0  0  0  0  0  0  0  0  0
  142.9930   80.8680  223.5600 C   0  0  0  0  0  0  0  0  0  0  0  0
  142.8320   79.5850  223.0820 C   0  0  0  0  0  0  0  0  0  0  0  0
  141.5680   79.0460  222.9560 C   0  0  0  0  0  0  0  0  0  0  0  0
  141.4450   77.7910  222.4870 N   0  0  0  0  0  0  0  0  0  0  0  0
  142.2740   75.4550  221.8700 H   0  0  0  0  0  0  0  0  0  0  0  0
  141.5003   73.0338  221.8869 H   0  0  0  0  0  0  0  0  0  0  0  0
  140.0510   73.7205  220.9064 H   0  0  0  0  0  0  0  0  0  0  0  0
  143.1975   71.1747  219.3154 H   0  0  0  0  0  0  0  0  0  0  0  0
  144.2011   72.1095  218.1343 H   0  0  0  0  0  0  0  0  0  0  0  0
  144.6890   71.4924  221.0230 H   0  0  0  0  0  0  0  0  0  0  0  0
  145.7750   71.3642  219.5468 H   0  0  0  0  0  0  0  0  0  0  0  0
  146.1398   73.1531  221.4005 H   0  0  0  0  0  0  0  0  0  0  0  0
  146.3604   73.4498  219.5804 H   0  0  0  0  0  0  0  0  0  0  0  0
  144.1846   74.4409  221.3820 H   0  0  0  0  0  0  0  0  0  0  0  0
  145.4146   75.3725  220.4601 H   0  0  0  0  0  0  0  0  0  0  0  0
  144.4877   74.4710  218.3536 H   0  0  0  0  0  0  0  0  0  0  0  0
  142.6420   75.0248  217.0203 H   0  0  0  0  0  0  0  0  0  0  0  0
  141.3168   77.0055  216.4323 H   0  0  0  0  0  0  0  0  0  0  0  0
  142.1449   78.6577  220.2881 H   0  0  0  0  0  0  0  0  0  0  0  0
  143.4676   76.6785  220.8686 H   0  0  0  0  0  0  0  0  0  0  0  0
  138.0802   77.3557  222.5334 H   0  0  0  0  0  0  0  0  0  0  0  0
  138.2699   79.7139  223.4149 H   0  0  0  0  0  0  0  0  0  0  0  0
  139.7036   81.6139  224.0506 H   0  0  0  0  0  0  0  0  0  0  0  0
  141.9282   82.5959  224.2811 H   0  0  0  0  0  0  0  0  0  0  0  0
  143.9902   81.3190  223.6700 H   0  0  0  0  0  0  0  0  0  0  0  0
  143.7131   78.9896  222.8004 H   0  0  0  0  0  0  0  0  0  0  0  0
  1  2  2  0
  2  3  1  0
  3  4  1  0
  4  5  1  0
  5  6  2  0
  5  7  1  0
  7  8  1  0
  8  9  1  0
  9 10  1  0
 10 11  1  0
 11 12  1  0
 12 13  1  0
 13 14  2  0
 14 15  1  0
 15 16  2  0
 16 17  1  0
 17 18  1  0
 18 19  1  0
 18 20  1  0
 18 21  1  0
 16 22  1  0
 22 23  2  0
  2 24  1  0
 24 25  2  0
 25 26  1  0
 26 27  2  0
 27 28  1  0
 28 29  2  0
 29 30  1  0
 30 31  2  0
 31 32  1  0
 32 33  2  0
 12  7  1  0
 23 13  1  0
 33 24  1  0
 32 27  1  0
  3 34  1  0
  4 35  1  0
  4 36  1  0
  8 37  1  0
  8 38  1  0
  9 39  1  0
  9 40  1  0
 10 41  1  0
 10 42  1  0
 11 43  1  0
 11 44  1  0
 12 45  1  6
 14 46  1  0
 15 47  1  0
 22 48  1  0
 23 49  1  0
 25 50  1  0
 26 51  1  0
 28 52  1  0
 29 53  1  0
 30 54  1  0
 31 55  1  0
M  END
>  <smiles>  (10) 
O=C(NCC(=O)N1CCCCC1c1ccc(OC(F)(F)F)cc1)c1ccc2ccccc2n1

>  <score_type>  (10) 
oracle

>  <origin>  (10) 
autodockgpu

>  <m_score__min__energy>  (10) 
-8.5999999999999996

>  <m_primary>  (10) 
energy

>  <rmsd>  (10) 
7.6668583127579595

>  <m_score__min__rmsd>  (10) 
7.6668583127579595

>  <meeko>  (10) 
{"free_energy": -6.91, "intermolecular_energy": -9.0, "internal_energy": -3.01, "cluster_size": 26, "cluster_id": 5, "rank_in_cluster": 9}

>  <energy>  (10) 
-8.36

>  <cluster_rmsd>  (10) 
0.0

>  <cluster>  (10) 
2

$$$$

     RDKit          3D

 55 58  0  0  0  0  0  0  0  0999 V2000
  139.0440   75.3410  221.4790 O   0  0  0  0  0  0  0  0  0  0  0  0
  140.1190   75.8940  221.8290 C   0  0  0  0  0  0  0  0  0  0  0  0
  141.2950   75.0490  221.7060 N   0  0  0  0  0  0  0  0  0  0  0  0
  141.0760   73.7360  221.2100 C   0  0  0  0  0  0  0  0  0  0  0  0
  141.6380   73.3370  219.9270 C   0  0  0  0  0  0  0  0  0  0  0  0
  140.7290   73.0010  219.0540 O   0  0  0  0  0  0  0  0  0  0  0  0
  142.9500   73.2500  219.4730 N   0  0  0  0  0  0  0  0  0  0  0  0
  143.7290   72.0450  219.2190 C   0  0  0  0  0  0  0  0  0  0  0  0
  144.9410   71.9850  220.0950 C   0  0  0  0  0  0  0  0  0  0  0  0
  145.5900   73.3020  220.3560 C   0  0  0  0  0  0  0  0  0  0  0  0
  144.7070   74.5050  220.3900 C   0  0  0  0  0  0  0  0  0  0  0  0
  143.7690   74.4710  219.2330 C   0  0  2  0  0  0  0  0  0  0  0  0
  143.0220   75.6670  218.9280 C   0  0  0  0  0  0  0  0  0  0  0  0
  142.9670   76.6880  219.8670 C   0  0  0  0  0  0  0  0  0  0  0  0
  142.3030   77.8770  219.6380 C   0  0  0  0  0  0  0  0  0  0  0  0
  141.6550   78.0960  218.4380 C   0  0  0  0  0  0  0  0  0  0  0  0
  140.9700   79.2680  218.1450 O   0  0  0  0  0  0  0  0  0  0  0  0
  141.3020   80.5130  218.7390 C   0  0  0  0  0  0  0  0  0  0  0  0
  140.6620   81.5570  218.1180 F   0  0  0  0  0  0  0  0  0  0  0  0
  142.6780   80.7130  218.5850 F   0  0  0  0  0  0  0  0  0  0  0  0
  141.0530   80.5190  220.0920 F   0  0  0  0  0  0  0  0  0  0  0  0
  141.7060   77.0860  217.5000 C   0  0  0  0  0  0  0  0  0  0  0  0
  142.3710   75.9010  217.7370 C   0  0  0  0  0  0  0  0  0  0  0  0
  140.2100   77.2570  222.3170 C   0  0  0  0  0  0  0  0  0  0  0  0
  139.0320   77.9160  222.5820 C   0  0  0  0  0  0  0  0  0  0  0  0
  139.1590   79.2260  223.0500 C   0  0  0  0  0  0  0  0  0  0  0  0
  140.4100   79.7990  223.2270 C   0  0  0  0  0  0  0  0  0  0  0  0
  140.5830   81.0840  223.6860 C   0  0  0  0  0  0  0  0  0  0  0  0
  141.8350   81.6120  223.8460 C   0  0  0  0  0  0  0  0  0  0  0  0
  142.9910   80.8850  223.5580 C   0  0  0  0  0  0  0  0  0  0  0  0
  142.8230   79.5970  223.0980 C   0  0  0  0  0  0  0  0  0  0  0  0
  141.5540   79.0770  222.9410 C   0  0  0  0  0  0  0  0  0  0  0  0
  141.4230   77.8160  222.4900 N   0  0  0  0  0  0  0  0  0  0  0  0
  142.2250   75.4420  221.9810 H   0  0  0  0  0  0  0  0  0  0  0  0
  141.4785   73.0416  221.9622 H   0  0  0  0  0  0  0  0  0  0  0  0
  139.9914   73.7132  221.0280 H   0  0  0  0  0  0  0  0  0  0  0  0
  143.1005   71.1640  219.4163 H   0  0  0  0  0  0  0  0  0  0  0  0
  144.0598   72.0607  218.1700 H   0  0  0  0  0  0  0  0  0  0  0  0
  144.6434   71.5526  221.0617 H   0  0  0  0  0  0  0  0  0  0  0  0
  145.6821   71.3759  219.5568 H   0  0  0  0  0  0  0  0  0  0  0  0
  146.0943   73.2345  221.3313 H   0  0  0  0  0  0  0  0  0  0  0  0
  146.2559   73.4644  219.4956 H   0  0  0  0  0  0  0  0  0  0  0  0
  144.1316   74.5100  221.3275 H   0  0  0  0  0  0  0  0  0  0  0  0
  145.3252   75.4130  220.3318 H   0  0  0  0  0  0  0  0  0  0  0  0
  144.3366   74.4293  218.2917 H   0  0  0  0  0  0  0  0  0  0  0  0
  143.4730   76.5440  220.8330 H   0  0  0  0  0  0  0  0  0  0  0  0
  142.2901   78.6545  220.4160 H   0  0  0  0  0  0  0  0  0  0  0  0
  141.2009   77.2299  216.5335 H   0  0  0  0  0  0  0  0  0  0  0  0
  142.3816   75.1253  216.9571 H   0  0  0  0  0  0  0  0  0  0  0  0
  138.0509   77.4409  222.4345 H   0  0  0  0  0  0  0  0  0  0  0  0
  138.2561   79.8104  223.2810 H   0  0  0  0  0  0  0  0  0  0  0  0
  139.7017   81.6962  223.9280 H   0  0  0  0  0  0  0  0  0  0  0  0
  141.9338   82.6439  224.2139 H   0  0  0  0  0  0  0  0  0  0  0  0
  143.9920   81.3209  223.6923 H   0  0  0  0  0  0  0  0  0  0  0  0
  143.7021   78.9819  222.8554 H   0  0  0  0  0  0  0  0  0  0  0  0
  1  2  2  0
  2  3  1  0
  3  4  1  0
  4  5  1  0
  5  6  2  0
  5  7  1  0
  7  8  1  0
  8  9  1  0
  9 10  1  0
 10 11  1  0
 11 12  1  0
 12 13  1  0
 13 14  2  0
 14 15  1  0
 15 16  2  0
 16 17  1  0
 17 18  1  0
 18 19  1  0
 18 20  1  0
 18 21  1  0
 16 22  1  0
 22 23  2  0
  2 24  1  0
 24 25  2  0
 25 26  1  0
 26 27  2  0
 27 28  1  0
 28 29  2  0
 29 30  1  0
 30 31  2  0
 31 32  1  0
 32 33  2  0
 12  7  1  0
 23 13  1  0
 33 24  1  0
 32 27  1  0
  3 34  1  0
  4 35  1  0
  4 36  1  0
  8 37  1  0
  8 38  1  0
  9 39  1  0
  9 40  1  0
 10 41  1  0
 10 42  1  0
 11 43  1  0
 11 44  1  0
 12 45  1  6
 14 46  1  0
 15 47  1  0
 22 48  1  0
 23 49  1  0
 25 50  1  0
 26 51  1  0
 28 52  1  0
 29 53  1  0
 30 54  1  0
 31 55  1  0
M  END
>  <smiles>  (11) 
O=C(NCC(=O)N1CCCCC1c1ccc(OC(F)(F)F)cc1)c1ccc2ccccc2n1

>  <score_type>  (11) 
oracle

>  <origin>  (11) 
autodockgpu

>  <m_score__min__energy>  (11) 
-8.5999999999999996

>  <m_primary>  (11) 
energy

>  <rmsd>  (11) 
7.672499698221085

>  <m_score__min__rmsd>  (11) 
7.672499698221085

>  <meeko>  (11) 
{"free_energy": -6.96, "intermolecular_energy": -9.05, "internal_energy": -2.96, "cluster_size": 26, "cluster_id": 5, "rank_in_cluster": 4}

>  <energy>  (11) 
-8.34

>  <cluster_rmsd>  (11) 
0.17

>  <cluster>  (11) 
2

$$$$

     RDKit          3D

 55 58  0  0  0  0  0  0  0  0999 V2000
  139.1520   74.9250  221.8340 O   0  0  0  0  0  0  0  0  0  0  0  0
  140.2100   75.6010  221.9300 C   0  0  0  0  0  0  0  0  0  0  0  0
  141.4160   74.8810  221.5580 N   0  0  0  0  0  0  0  0  0  0  0  0
  141.2400   73.5340  221.1380 C   0  0  0  0  0  0  0  0  0  0  0  0
  141.9130   73.0500  219.9400 C   0  0  0  0  0  0  0  0  0  0  0  0
  141.1230   72.3790  219.1490 O   0  0  0  0  0  0  0  0  0  0  0  0
  143.2260   73.1700  219.4980 N   0  0  0  0  0  0  0  0  0  0  0  0
  144.1750   72.1010  219.2170 C   0  0  0  0  0  0  0  0  0  0  0  0
  145.3780   72.1940  220.1040 C   0  0  0  0  0  0  0  0  0  0  0  0
  145.8240   73.5840  220.4100 C   0  0  0  0  0  0  0  0  0  0  0  0
  144.7730   74.6420  220.4700 C   0  0  0  0  0  0  0  0  0  0  0  0
  143.8580   74.5060  219.3030 C   0  0  2  0  0  0  0  0  0  0  0  0
  142.9440   75.5870  219.0240 C   0  0  0  0  0  0  0  0  0  0  0  0
  143.0500   76.7660  219.7510 C   0  0  0  0  0  0  0  0  0  0  0  0
  142.2380   77.8580  219.5210 C   0  0  0  0  0  0  0  0  0  0  0  0
  141.2700   77.8160  218.5380 C   0  0  0  0  0  0  0  0  0  0  0  0
  140.4210   78.8790  218.2580 O   0  0  0  0  0  0  0  0  0  0  0  0
  139.8330   79.6730  219.2760 C   0  0  0  0  0  0  0  0  0  0  0  0
  138.9470   78.9480  220.0350 F   0  0  0  0  0  0  0  0  0  0  0  0
  139.1120   80.7020  218.6600 F   0  0  0  0  0  0  0  0  0  0  0  0
  140.7810   80.2770  220.0690 F   0  0  0  0  0  0  0  0  0  0  0  0
  141.1580   76.6490  217.8110 C   0  0  0  0  0  0  0  0  0  0  0  0
  141.9730   75.5610  218.0470 C   0  0  0  0  0  0  0  0  0  0  0  0
  140.2550   76.9820  222.3700 C   0  0  0  0  0  0  0  0  0  0  0  0
  139.0570   77.6020  222.6380 C   0  0  0  0  0  0  0  0  0  0  0  0
  139.1390   78.9320  223.0590 C   0  0  0  0  0  0  0  0  0  0  0  0
  140.3690   79.5600  223.1900 C   0  0  0  0  0  0  0  0  0  0  0  0
  140.4980   80.8670  223.6020 C   0  0  0  0  0  0  0  0  0  0  0  0
  141.7310   81.4500  223.7180 C   0  0  0  0  0  0  0  0  0  0  0  0
  142.9100   80.7600  223.4290 C   0  0  0  0  0  0  0  0  0  0  0  0
  142.7850   79.4510  223.0160 C   0  0  0  0  0  0  0  0  0  0  0  0
  141.5350   78.8750  222.9040 C   0  0  0  0  0  0  0  0  0  0  0  0
  141.4470   77.5960  222.4980 N   0  0  0  0  0  0  0  0  0  0  0  0
  142.3340   75.3790  221.6150 H   0  0  0  0  0  0  0  0  0  0  0  0
  141.5742   72.8960  221.9695 H   0  0  0  0  0  0  0  0  0  0  0  0
  140.1755   73.4919  220.8641 H   0  0  0  0  0  0  0  0  0  0  0  0
  143.6820   71.1316  219.3823 H   0  0  0  0  0  0  0  0  0  0  0  0
  144.5059   72.1963  218.1723 H   0  0  0  0  0  0  0  0  0  0  0  0
  145.1417   71.6934  221.0546 H   0  0  0  0  0  0  0  0  0  0  0  0
  146.2042   71.7175  219.5560 H   0  0  0  0  0  0  0  0  0  0  0  0
  146.3270   73.5620  221.3880 H   0  0  0  0  0  0  0  0  0  0  0  0
  146.4636   73.8688  219.5616 H   0  0  0  0  0  0  0  0  0  0  0  0
  144.1972   74.5333  221.4009 H   0  0  0  0  0  0  0  0  0  0  0  0
  145.2508   75.6325  220.4453 H   0  0  0  0  0  0  0  0  0  0  0  0
  144.4325   74.5782  218.3677 H   0  0  0  0  0  0  0  0  0  0  0  0
  143.8118   76.8319  220.5418 H   0  0  0  0  0  0  0  0  0  0  0  0
  142.3632   78.7685  220.1255 H   0  0  0  0  0  0  0  0  0  0  0  0
  140.3965   76.5839  217.0199 H   0  0  0  0  0  0  0  0  0  0  0  0
  141.8445   74.6519  217.4411 H   0  0  0  0  0  0  0  0  0  0  0  0
  138.0935   77.0829  222.5277 H   0  0  0  0  0  0  0  0  0  0  0  0
  138.2177   79.4873  223.2891 H   0  0  0  0  0  0  0  0  0  0  0  0
  139.5973   81.4513  223.8415 H   0  0  0  0  0  0  0  0  0  0  0  0
  141.7952   82.4968  224.0499 H   0  0  0  0  0  0  0  0  0  0  0  0
  143.8950   81.2399  223.5266 H   0  0  0  0  0  0  0  0  0  0  0  0
  143.6833   78.8636  222.7750 H   0  0  0  0  0  0  0  0  0  0  0  0
  1  2  2  0
  2  3  1  0
  3  4  1  0
  4  5  1  0
  5  6  2  0
  5  7  1  0
  7  8  1  0
  8  9  1  0
  9 10  1  0
 10 11  1  0
 11 12  1  0
 12 13  1  0
 13 14  2  0
 14 15  1  0
 15 16  2  0
 16 17  1  0
 17 18  1  0
 18 19  1  0
 18 20  1  0
 18 21  1  0
 16 22  1  0
 22 23  2  0
  2 24  1  0
 24 25  2  0
 25 26  1  0
 26 27  2  0
 27 28  1  0
 28 29  2  0
 29 30  1  0
 30 31  2  0
 31 32  1  0
 32 33  2  0
 12  7  1  0
 23 13  1  0
 33 24  1  0
 32 27  1  0
  3 34  1  0
  4 35  1  0
  4 36  1  0
  8 37  1  0
  8 38  1  0
  9 39  1  0
  9 40  1  0
 10 41  1  0
 10 42  1  0
 11 43  1  0
 11 44  1  0
 12 45  1  6
 14 46  1  0
 15 47  1  0
 22 48  1  0
 23 49  1  0
 25 50  1  0
 26 51  1  0
 28 52  1  0
 29 53  1  0
 30 54  1  0
 31 55  1  0
M  END
>  <smiles>  (12) 
O=C(NCC(=O)N1CCCCC1c1ccc(OC(F)(F)F)cc1)c1ccc2ccccc2n1

>  <score_type>  (12) 
oracle

>  <origin>  (12) 
autodockgpu

>  <m_score__min__energy>  (12) 
-8.5999999999999996

>  <m_primary>  (12) 
energy

>  <rmsd>  (12) 
7.612370819503849

>  <m_score__min__rmsd>  (12) 
7.612370819503849

>  <meeko>  (12) 
{"free_energy": -6.78, "intermolecular_energy": -8.87, "internal_energy": -3.15, "cluster_size": 26, "cluster_id": 5, "rank_in_cluster": 17}

>  <energy>  (12) 
-8.0

>  <cluster_rmsd>  (12) 
0.49

>  <cluster>  (12) 
2

$$$$

     RDKit          3D

 55 58  0  0  0  0  0  0  0  0999 V2000
  139.1030   75.2620  221.4240 O   0  0  0  0  0  0  0  0  0  0  0  0
  140.1680   75.8130  221.8070 C   0  0  0  0  0  0  0  0  0  0  0  0
  141.3510   74.9800  221.6850 N   0  0  0  0  0  0  0  0  0  0  0  0
  141.1510   73.6770  221.1540 C   0  0  0  0  0  0  0  0  0  0  0  0
  141.7060   73.3260  219.8540 C   0  0  0  0  0  0  0  0  0  0  0  0
  140.7960   73.2020  218.9280 O   0  0  0  0  0  0  0  0  0  0  0  0
  143.0110   73.1000  219.4300 N   0  0  0  0  0  0  0  0  0  0  0  0
  143.6540   71.8200  219.1590 C   0  0  0  0  0  0  0  0  0  0  0  0
  144.8260   71.5980  220.0630 C   0  0  0  0  0  0  0  0  0  0  0  0
  145.6140   72.8250  220.3780 C   0  0  0  0  0  0  0  0  0  0  0  0
  144.8740   74.1200  220.4260 C   0  0  0  0  0  0  0  0  0  0  0  0
  143.9710   74.2250  219.2460 C   0  0  2  0  0  0  0  0  0  0  0  0
  143.3740   75.5070  218.9580 C   0  0  0  0  0  0  0  0  0  0  0  0
  143.0090   75.8030  217.6510 C   0  0  0  0  0  0  0  0  0  0  0  0
  142.4020   76.9920  217.2990 C   0  0  0  0  0  0  0  0  0  0  0  0
  142.1300   77.9490  218.2550 C   0  0  0  0  0  0  0  0  0  0  0  0
  141.5220   79.1640  217.9670 O   0  0  0  0  0  0  0  0  0  0  0  0
  141.9800   80.3930  218.5100 C   0  0  0  0  0  0  0  0  0  0  0  0
  141.7600   80.4610  219.8640 F   0  0  0  0  0  0  0  0  0  0  0  0
  141.2500   81.4270  217.9140 F   0  0  0  0  0  0  0  0  0  0  0  0
  143.3030   80.6240  218.2140 F   0  0  0  0  0  0  0  0  0  0  0  0
  142.4890   77.6620  219.5560 C   0  0  0  0  0  0  0  0  0  0  0  0
  143.0960   76.4720  219.9000 C   0  0  0  0  0  0  0  0  0  0  0  0
  140.2400   77.1650  222.3300 C   0  0  0  0  0  0  0  0  0  0  0  0
  139.0550   77.7880  222.6440 C   0  0  0  0  0  0  0  0  0  0  0  0
  139.1640   79.0880  223.1440 C   0  0  0  0  0  0  0  0  0  0  0  0
  140.4060   79.6860  223.3030 C   0  0  0  0  0  0  0  0  0  0  0  0
  140.5610   80.9620  223.7920 C   0  0  0  0  0  0  0  0  0  0  0  0
  141.8050   81.5160  223.9340 C   0  0  0  0  0  0  0  0  0  0  0  0
  142.9690   80.8250  223.5950 C   0  0  0  0  0  0  0  0  0  0  0  0
  142.8180   79.5450  223.1050 C   0  0  0  0  0  0  0  0  0  0  0  0
  141.5580   78.9990  222.9670 C   0  0  0  0  0  0  0  0  0  0  0  0
  141.4440   77.7480  222.4860 N   0  0  0  0  0  0  0  0  0  0  0  0
  142.2730   75.3720  221.9870 H   0  0  0  0  0  0  0  0  0  0  0  0
  141.5751   72.9694  221.8816 H   0  0  0  0  0  0  0  0  0  0  0  0
  140.0650   73.6381  220.9835 H   0  0  0  0  0  0  0  0  0  0  0  0
  142.9237   71.0122  219.3142 H   0  0  0  0  0  0  0  0  0  0  0  0
  144.0135   71.8252  218.1194 H   0  0  0  0  0  0  0  0  0  0  0  0
  144.4538   71.1780  221.0091 H   0  0  0  0  0  0  0  0  0  0  0  0
  145.5074   70.9215  219.5264 H   0  0  0  0  0  0  0  0  0  0  0  0
  146.0805   72.6743  221.3627 H   0  0  0  0  0  0  0  0  0  0  0  0
  146.3170   72.9324  219.5388 H   0  0  0  0  0  0  0  0  0  0  0  0
  144.2770   74.1663  221.3488 H   0  0  0  0  0  0  0  0  0  0  0  0
  145.5934   74.9520  220.4100 H   0  0  0  0  0  0  0  0  0  0  0  0
  144.5562   74.1434  218.3181 H   0  0  0  0  0  0  0  0  0  0  0  0
  143.2116   75.0605  216.8651 H   0  0  0  0  0  0  0  0  0  0  0  0
  142.1332   77.1777  216.2486 H   0  0  0  0  0  0  0  0  0  0  0  0
  142.2852   78.4040  220.3420 H   0  0  0  0  0  0  0  0  0  0  0  0
  143.3641   76.2898  220.9511 H   0  0  0  0  0  0  0  0  0  0  0  0
  138.0816   77.2935  222.5098 H   0  0  0  0  0  0  0  0  0  0  0  0
  138.2544   79.6441  223.4149 H   0  0  0  0  0  0  0  0  0  0  0  0
  139.6724   81.5462  224.0732 H   0  0  0  0  0  0  0  0  0  0  0  0
  141.8897   82.5394  224.3283 H   0  0  0  0  0  0  0  0  0  0  0  0
  143.9629   81.2812  223.7134 H   0  0  0  0  0  0  0  0  0  0  0  0
  143.7042   78.9574  222.8233 H   0  0  0  0  0  0  0  0  0  0  0  0
  1  2  2  0
  2  3  1  0
  3  4  1  0
  4  5  1  0
  5  6  2  0
  5  7  1  0
  7  8  1  0
  8  9  1  0
  9 10  1  0
 10 11  1  0
 11 12  1  0
 12 13  1  0
 13 14  2  0
 14 15  1  0
 15 16  2  0
 16 17  1  0
 17 18  1  0
 18 19  1  0
 18 20  1  0
 18 21  1  0
 16 22  1  0
 22 23  2  0
  2 24  1  0
 24 25  2  0
 25 26  1  0
 26 27  2  0
 27 28  1  0
 28 29  2  0
 29 30  1  0
 30 31  2  0
 31 32  1  0
 32 33  2  0
 12  7  1  0
 23 13  1  0
 33 24  1  0
 32 27  1  0
  3 34  1  0
  4 35  1  0
  4 36  1  0
  8 37  1  0
  8 38  1  0
  9 39  1  0
  9 40  1  0
 10 41  1  0
 10 42  1  0
 11 43  1  0
 11 44  1  0
 12 45  1  6
 14 46  1  0
 15 47  1  0
 22 48  1  0
 23 49  1  0
 25 50  1  0
 26 51  1  0
 28 52  1  0
 29 53  1  0
 30 54  1  0
 31 55  1  0
M  END
>  <smiles>  (13) 
O=C(NCC(=O)N1CCCCC1c1ccc(OC(F)(F)F)cc1)c1ccc2ccccc2n1

>  <score_type>  (13) 
oracle

>  <origin>  (13) 
autodockgpu

>  <m_score__min__energy>  (13) 
-8.5999999999999996

>  <m_primary>  (13) 
energy

>  <rmsd>  (13) 
7.659165947082526

>  <m_score__min__rmsd>  (13) 
7.659165947082526

>  <meeko>  (13) 
{"free_energy": -7.13, "intermolecular_energy": -9.22, "internal_energy": -2.72, "cluster_size": 26, "cluster_id": 5, "rank_in_cluster": 1}

>  <energy>  (13) 
-7.87

>  <cluster_rmsd>  (13) 
0.0

>  <cluster>  (13) 
3

$$$$

     RDKit          3D

 55 58  0  0  0  0  0  0  0  0999 V2000
  139.7390   70.4690  221.1480 O   0  0  0  0  0  0  0  0  0  0  0  0
  140.1050   71.2230  222.0870 C   0  0  0  0  0  0  0  0  0  0  0  0
  140.6100   72.5150  221.6560 N   0  0  0  0  0  0  0  0  0  0  0  0
  140.6180   72.7510  220.2550 C   0  0  0  0  0  0  0  0  0  0  0  0
  140.9310   74.0780  219.7410 C   0  0  0  0  0  0  0  0  0  0  0  0
  140.6260   74.2210  218.4810 O   0  0  0  0  0  0  0  0  0  0  0  0
  141.4910   75.2000  220.3420 N   0  0  0  0  0  0  0  0  0  0  0  0
  140.8200   76.2060  221.1560 C   0  0  0  0  0  0  0  0  0  0  0  0
  140.9120   77.5620  220.5310 C   0  0  0  0  0  0  0  0  0  0  0  0
  142.2000   77.8440  219.8330 C   0  0  0  0  0  0  0  0  0  0  0  0
  142.9050   76.6870  219.2070 C   0  0  0  0  0  0  0  0  0  0  0  0
  142.9300   75.5410  220.1570 C   0  0  2  0  0  0  0  0  0  0  0  0
  143.7950   74.4260  219.8580 C   0  0  0  0  0  0  0  0  0  0  0  0
  144.6460   73.9470  220.8460 C   0  0  0  0  0  0  0  0  0  0  0  0
  145.4790   72.8630  220.6500 C   0  0  0  0  0  0  0  0  0  0  0  0
  145.4970   72.2040  219.4370 C   0  0  0  0  0  0  0  0  0  0  0  0
  146.3100   71.1100  219.1760 O   0  0  0  0  0  0  0  0  0  0  0  0
  145.7870   69.8210  218.8930 C   0  0  0  0  0  0  0  0  0  0  0  0
  144.4710   69.7150  219.2720 F   0  0  0  0  0  0  0  0  0  0  0  0
  146.5140   68.8860  219.6360 F   0  0  0  0  0  0  0  0  0  0  0  0
  145.9470   69.4820  217.5700 F   0  0  0  0  0  0  0  0  0  0  0  0
  144.6540   72.6740  218.4510 C   0  0  0  0  0  0  0  0  0  0  0  0
  143.8250   73.7580  218.6540 C   0  0  0  0  0  0  0  0  0  0  0  0
  140.0400   70.8610  223.4910 C   0  0  0  0  0  0  0  0  0  0  0  0
  139.3250   69.7340  223.8240 C   0  0  0  0  0  0  0  0  0  0  0  0
  139.2840   69.4180  225.1840 C   0  0  0  0  0  0  0  0  0  0  0  0
  139.9350   70.2120  226.1170 C   0  0  0  0  0  0  0  0  0  0  0  0
  139.9230   69.9390  227.4660 C   0  0  0  0  0  0  0  0  0  0  0  0
  140.5790   70.7480  228.3540 C   0  0  0  0  0  0  0  0  0  0  0  0
  141.2870   71.8790  227.9460 C   0  0  0  0  0  0  0  0  0  0  0  0
  141.3020   72.1570  226.5960 C   0  0  0  0  0  0  0  0  0  0  0  0
  140.6370   71.3320  225.7110 C   0  0  0  0  0  0  0  0  0  0  0  0
  140.6710   71.6300  224.4000 N   0  0  0  0  0  0  0  0  0  0  0  0
  140.9350   73.1940  222.3830 H   0  0  0  0  0  0  0  0  0  0  0  0
  141.3559   72.0603  219.8210 H   0  0  0  0  0  0  0  0  0  0  0  0
  139.5650   72.6114  219.9693 H   0  0  0  0  0  0  0  0  0  0  0  0
  139.7600   75.9319  221.2624 H   0  0  0  0  0  0  0  0  0  0  0  0
  141.3135   76.2427  222.1384 H   0  0  0  0  0  0  0  0  0  0  0  0
  140.0977   77.6565  219.7976 H   0  0  0  0  0  0  0  0  0  0  0  0
  140.8413   78.2876  221.3547 H   0  0  0  0  0  0  0  0  0  0  0  0
  141.9919   78.5744  219.0373 H   0  0  0  0  0  0  0  0  0  0  0  0
  142.8794   78.1956  220.6234 H   0  0  0  0  0  0  0  0  0  0  0  0
  142.3764   76.3897  218.2893 H   0  0  0  0  0  0  0  0  0  0  0  0
  143.9367   76.9788  218.9610 H   0  0  0  0  0  0  0  0  0  0  0  0
  143.4259   75.8417  221.0917 H   0  0  0  0  0  0  0  0  0  0  0  0
  144.6568   74.4513  221.8235 H   0  0  0  0  0  0  0  0  0  0  0  0
  146.1329   72.5222  221.4663 H   0  0  0  0  0  0  0  0  0  0  0  0
  144.6426   72.1693  217.4737 H   0  0  0  0  0  0  0  0  0  0  0  0
  143.1730   74.0965  217.8353 H   0  0  0  0  0  0  0  0  0  0  0  0
  138.8169   69.1196  223.0661 H   0  0  0  0  0  0  0  0  0  0  0  0
  138.7291   68.5293  225.5191 H   0  0  0  0  0  0  0  0  0  0  0  0
  139.3783   69.0578  227.8358 H   0  0  0  0  0  0  0  0  0  0  0  0
  140.5470   70.4983  229.4248 H   0  0  0  0  0  0  0  0  0  0  0  0
  141.8103   72.5208  228.6701 H   0  0  0  0  0  0  0  0  0  0  0  0
  141.8449   73.0380  226.2230 H   0  0  0  0  0  0  0  0  0  0  0  0
  1  2  2  0
  2  3  1  0
  3  4  1  0
  4  5  1  0
  5  6  2  0
  5  7  1  0
  7  8  1  0
  8  9  1  0
  9 10  1  0
 10 11  1  0
 11 12  1  0
 12 13  1  0
 13 14  2  0
 14 15  1  0
 15 16  2  0
 16 17  1  0
 17 18  1  0
 18 19  1  0
 18 20  1  0
 18 21  1  0
 16 22  1  0
 22 23  2  0
  2 24  1  0
 24 25  2  0
 25 26  1  0
 26 27  2  0
 27 28  1  0
 28 29  2  0
 29 30  1  0
 30 31  2  0
 31 32  1  0
 32 33  2  0
 12  7  1  0
 23 13  1  0
 33 24  1  0
 32 27  1  0
  3 34  1  0
  4 35  1  0
  4 36  1  0
  8 37  1  0
  8 38  1  0
  9 39  1  0
  9 40  1  0
 10 41  1  0
 10 42  1  0
 11 43  1  0
 11 44  1  0
 12 45  1  1
 14 46  1  0
 15 47  1  0
 22 48  1  0
 23 49  1  0
 25 50  1  0
 26 51  1  0
 28 52  1  0
 29 53  1  0
 30 54  1  0
 31 55  1  0
M  END
>  <smiles>  (14) 
O=C(NCC(=O)N1CCCCC1c1ccc(OC(F)(F)F)cc1)c1ccc2ccccc2n1

>  <score_type>  (14) 
oracle

>  <origin>  (14) 
autodockgpu

>  <m_score__min__energy>  (14) 
-8.5999999999999996

>  <m_primary>  (14) 
energy

>  <rmsd>  (14) 
2.438683151772281

>  <m_score__min__rmsd>  (14) 
2.438683151772281

>  <meeko>  (14) 
{"free_energy": -7.67, "intermolecular_energy": -9.76, "internal_energy": -1.77, "cluster_size": 9, "cluster_id": 1, "rank_in_cluster": 5}

>  <energy>  (14) 
-7.79

>  <cluster_rmsd>  (14) 
0.21

>  <cluster>  (14) 
3

$$$$

     RDKit          3D

 55 58  0  0  0  0  0  0  0  0999 V2000
  140.2720   71.5470  221.3320 O   0  0  0  0  0  0  0  0  0  0  0  0
  139.6850   71.8930  222.3900 C   0  0  0  0  0  0  0  0  0  0  0  0
  138.8100   73.0430  222.2420 N   0  0  0  0  0  0  0  0  0  0  0  0
  138.7330   73.6110  220.9410 C   0  0  0  0  0  0  0  0  0  0  0  0
  138.9130   75.0450  220.7590 C   0  0  0  0  0  0  0  0  0  0  0  0
  138.5980   75.4510  219.5610 O   0  0  0  0  0  0  0  0  0  0  0  0
  139.3560   76.0430  221.6210 N   0  0  0  0  0  0  0  0  0  0  0  0
  138.5930   76.7400  222.6490 C   0  0  0  0  0  0  0  0  0  0  0  0
  138.5220   78.2090  222.3730 C   0  0  0  0  0  0  0  0  0  0  0  0
  139.7580   78.7940  221.7760 C   0  0  0  0  0  0  0  0  0  0  0  0
  140.5750   77.9110  220.8930 C   0  0  0  0  0  0  0  0  0  0  0  0
  140.7440   76.5780  221.5360 C   0  0  2  0  0  0  0  0  0  0  0  0
  141.7220   75.6740  220.9820 C   0  0  0  0  0  0  0  0  0  0  0  0
  142.6740   76.1660  220.0980 C   0  0  0  0  0  0  0  0  0  0  0  0
  143.6640   75.3740  219.5520 C   0  0  0  0  0  0  0  0  0  0  0  0
  143.7440   74.0340  219.8730 C   0  0  0  0  0  0  0  0  0  0  0  0
  144.7140   73.1840  219.3580 O   0  0  0  0  0  0  0  0  0  0  0  0
  145.9360   72.9250  220.0330 C   0  0  0  0  0  0  0  0  0  0  0  0
  146.9430   73.7470  219.5910 F   0  0  0  0  0  0  0  0  0  0  0  0
  146.3150   71.6080  219.7510 F   0  0  0  0  0  0  0  0  0  0  0  0
  145.7950   73.0090  221.3990 F   0  0  0  0  0  0  0  0  0  0  0  0
  142.8030   73.5370  220.7500 C   0  0  0  0  0  0  0  0  0  0  0  0
  141.8160   74.3350  221.2920 C   0  0  0  0  0  0  0  0  0  0  0  0
  139.8460   71.2200  223.6650 C   0  0  0  0  0  0  0  0  0  0  0  0
  139.4580   69.9030  223.7420 C   0  0  0  0  0  0  0  0  0  0  0  0
  139.6280   69.2880  224.9850 C   0  0  0  0  0  0  0  0  0  0  0  0
  140.1580   69.9910  226.0570 C   0  0  0  0  0  0  0  0  0  0  0  0
  140.3440   69.4270  227.2990 C   0  0  0  0  0  0  0  0  0  0  0  0
  140.8700   70.1550  228.3310 C   0  0  0  0  0  0  0  0  0  0  0  0
  141.2430   71.4920  228.1840 C   0  0  0  0  0  0  0  0  0  0  0  0
  141.0590   72.0610  226.9410 C   0  0  0  0  0  0  0  0  0  0  0  0
  140.5270   71.3150  225.9090 C   0  0  0  0  0  0  0  0  0  0  0  0
  140.3600   71.8990  224.7090 N   0  0  0  0  0  0  0  0  0  0  0  0
  138.2900   73.3890  223.0810 H   0  0  0  0  0  0  0  0  0  0  0  0
  139.5031   73.1148  220.3321 H   0  0  0  0  0  0  0  0  0  0  0  0
  137.6822   73.4508  220.6577 H   0  0  0  0  0  0  0  0  0  0  0  0
  137.5722   76.3310  222.6764 H   0  0  0  0  0  0  0  0  0  0  0  0
  139.0979   76.5928  223.6151 H   0  0  0  0  0  0  0  0  0  0  0  0
  137.6888   78.3866  221.6772 H   0  0  0  0  0  0  0  0  0  0  0  0
  138.3861   78.7009  223.3474 H   0  0  0  0  0  0  0  0  0  0  0  0
  139.4557   79.6682  221.1807 H   0  0  0  0  0  0  0  0  0  0  0  0
  140.4090   79.0155  222.6345 H   0  0  0  0  0  0  0  0  0  0  0  0
  140.0657   77.7887  219.9257 H   0  0  0  0  0  0  0  0  0  0  0  0
  141.5632   78.3674  220.7344 H   0  0  0  0  0  0  0  0  0  0  0  0
  141.2203   76.6960  222.5205 H   0  0  0  0  0  0  0  0  0  0  0  0
  142.6374   77.2301  219.8219 H   0  0  0  0  0  0  0  0  0  0  0  0
  144.3940   75.8137  218.8565 H   0  0  0  0  0  0  0  0  0  0  0  0
  142.8401   72.4728  221.0258 H   0  0  0  0  0  0  0  0  0  0  0  0
  141.0879   73.8918  221.9873 H   0  0  0  0  0  0  0  0  0  0  0  0
  139.0393   69.3665  222.8778 H   0  0  0  0  0  0  0  0  0  0  0  0
  139.3384   68.2348  225.1150 H   0  0  0  0  0  0  0  0  0  0  0  0
  140.0656   68.3757  227.4640 H   0  0  0  0  0  0  0  0  0  0  0  0
  141.0035   69.6704  229.3094 H   0  0  0  0  0  0  0  0  0  0  0  0
  141.6648   72.0663  229.0220 H   0  0  0  0  0  0  0  0  0  0  0  0
  141.3370   73.1118  226.7719 H   0  0  0  0  0  0  0  0  0  0  0  0
  1  2  2  0
  2  3  1  0
  3  4  1  0
  4  5  1  0
  5  6  2  0
  5  7  1  0
  7  8  1  0
  8  9  1  0
  9 10  1  0
 10 11  1  0
 11 12  1  0
 12 13  1  0
 13 14  2  0
 14 15  1  0
 15 16  2  0
 16 17  1  0
 17 18  1  0
 18 19  1  0
 18 20  1  0
 18 21  1  0
 16 22  1  0
 22 23  2  0
  2 24  1  0
 24 25  2  0
 25 26  1  0
 26 27  2  0
 27 28  1  0
 28 29  2  0
 29 30  1  0
 30 31  2  0
 31 32  1  0
 32 33  2  0
 12  7  1  0
 23 13  1  0
 33 24  1  0
 32 27  1  0
  3 34  1  0
  4 35  1  0
  4 36  1  0
  8 37  1  0
  8 38  1  0
  9 39  1  0
  9 40  1  0
 10 41  1  0
 10 42  1  0
 11 43  1  0
 11 44  1  0
 12 45  1  1
 14 46  1  0
 15 47  1  0
 22 48  1  0
 23 49  1  0
 25 50  1  0
 26 51  1  0
 28 52  1  0
 29 53  1  0
 30 54  1  0
 31 55  1  0
M  END
>  <smiles>  (15) 
O=C(NCC(=O)N1CCCCC1c1ccc(OC(F)(F)F)cc1)c1ccc2ccccc2n1

>  <score_type>  (15) 
oracle

>  <origin>  (15) 
autodockgpu

>  <m_score__min__energy>  (15) 
-8.5999999999999996

>  <m_primary>  (15) 
energy

>  <rmsd>  (15) 
2.607352886270191

>  <m_score__min__rmsd>  (15) 
2.607352886270191

>  <meeko>  (15) 
{"free_energy": -7.98, "intermolecular_energy": -10.07, "internal_energy": -1.75, "cluster_size": 9, "cluster_id": 1, "rank_in_cluster": 2}

>  <energy>  (15) 
-7.22

>  <cluster_rmsd>  (15) 
0.0

>  <cluster>  (15) 
4

$$$$

     RDKit          3D

 55 58  0  0  0  0  0  0  0  0999 V2000
  140.4670   71.8450  221.4710 O   0  0  0  0  0  0  0  0  0  0  0  0
  139.7050   71.9940  222.4620 C   0  0  0  0  0  0  0  0  0  0  0  0
  138.6480   72.9710  222.2640 N   0  0  0  0  0  0  0  0  0  0  0  0
  138.6160   73.6130  220.9970 C   0  0  0  0  0  0  0  0  0  0  0  0
  138.5070   75.0640  220.9180 C   0  0  0  0  0  0  0  0  0  0  0  0
  138.1300   75.4840  219.7420 O   0  0  0  0  0  0  0  0  0  0  0  0
  138.7340   76.0660  221.8550 N   0  0  0  0  0  0  0  0  0  0  0  0
  137.8490   76.5030  222.9280 C   0  0  0  0  0  0  0  0  0  0  0  0
  137.4620   77.9390  222.7640 C   0  0  0  0  0  0  0  0  0  0  0  0
  138.5380   78.8190  222.2210 C   0  0  0  0  0  0  0  0  0  0  0  0
  139.5180   78.2010  221.2810 C   0  0  0  0  0  0  0  0  0  0  0  0
  139.9750   76.8910  221.8220 C   0  0  2  0  0  0  0  0  0  0  0  0
  141.1190   76.2620  221.2080 C   0  0  0  0  0  0  0  0  0  0  0  0
  141.4380   74.9550  221.5520 C   0  0  0  0  0  0  0  0  0  0  0  0
  142.4940   74.2720  220.9850 C   0  0  0  0  0  0  0  0  0  0  0  0
  143.2900   74.8780  220.0330 C   0  0  0  0  0  0  0  0  0  0  0  0
  144.3670   74.2460  219.4250 O   0  0  0  0  0  0  0  0  0  0  0  0
  145.2930   73.4530  220.1500 C   0  0  0  0  0  0  0  0  0  0  0  0
  144.6890   72.3570  220.7150 F   0  0  0  0  0  0  0  0  0  0  0  0
  145.8070   74.2320  221.1930 F   0  0  0  0  0  0  0  0  0  0  0  0
  146.3660   73.0790  219.3740 F   0  0  0  0  0  0  0  0  0  0  0  0
  142.9790   76.1760  219.6850 C   0  0  0  0  0  0  0  0  0  0  0  0
  141.9220   76.8530  220.2570 C   0  0  0  0  0  0  0  0  0  0  0  0
  139.8430   71.2650  223.7090 C   0  0  0  0  0  0  0  0  0  0  0  0
  139.4300   69.9540  223.7270 C   0  0  0  0  0  0  0  0  0  0  0  0
  139.5770   69.2840  224.9450 C   0  0  0  0  0  0  0  0  0  0  0  0
  140.1120   69.9310  226.0490 C   0  0  0  0  0  0  0  0  0  0  0  0
  140.2780   69.3130  227.2670 C   0  0  0  0  0  0  0  0  0  0  0  0
  140.8090   69.9870  228.3330 C   0  0  0  0  0  0  0  0  0  0  0  0
  141.2090   71.3210  228.2450 C   0  0  0  0  0  0  0  0  0  0  0  0
  141.0460   71.9450  227.0260 C   0  0  0  0  0  0  0  0  0  0  0  0
  140.5080   71.2530  225.9600 C   0  0  0  0  0  0  0  0  0  0  0  0
  140.3610   71.8900  224.7840 N   0  0  0  0  0  0  0  0  0  0  0  0
  137.9770   73.1480  223.0470 H   0  0  0  0  0  0  0  0  0  0  0  0
  139.5447   73.3355  220.4769 H   0  0  0  0  0  0  0  0  0  0  0  0
  137.6684   73.2641  220.5606 H   0  0  0  0  0  0  0  0  0  0  0  0
  136.9400   75.8836  222.9171 H   0  0  0  0  0  0  0  0  0  0  0  0
  138.3829   76.3947  223.8836 H   0  0  0  0  0  0  0  0  0  0  0  0
  136.6031   77.9858  222.0784 H   0  0  0  0  0  0  0  0  0  0  0  0
  137.2336   78.3152  223.7721 H   0  0  0  0  0  0  0  0  0  0  0  0
  138.0493   79.6493  221.6901 H   0  0  0  0  0  0  0  0  0  0  0  0
  139.1337   79.1109  223.0984 H   0  0  0  0  0  0  0  0  0  0  0  0
  139.0388   78.0456  220.3032 H   0  0  0  0  0  0  0  0  0  0  0  0
  140.3839   78.8696  221.1660 H   0  0  0  0  0  0  0  0  0  0  0  0
  140.4242   77.0333  222.8160 H   0  0  0  0  0  0  0  0  0  0  0  0
  140.8236   74.4434  222.3075 H   0  0  0  0  0  0  0  0  0  0  0  0
  142.7035   73.2371  221.2934 H   0  0  0  0  0  0  0  0  0  0  0  0
  143.5926   76.6868  218.9283 H   0  0  0  0  0  0  0  0  0  0  0  0
  141.7155   77.8880  219.9469 H   0  0  0  0  0  0  0  0  0  0  0  0
  139.0095   69.4623  222.8374 H   0  0  0  0  0  0  0  0  0  0  0  0
  139.2651   68.2325  225.0288 H   0  0  0  0  0  0  0  0  0  0  0  0
  139.9793   68.2610  227.3857 H   0  0  0  0  0  0  0  0  0  0  0  0
  140.9244   69.4596  229.2914 H   0  0  0  0  0  0  0  0  0  0  0  0
  141.6353   71.8512  229.1094 H   0  0  0  0  0  0  0  0  0  0  0  0
  141.3454   72.9963  226.9031 H   0  0  0  0  0  0  0  0  0  0  0  0
  1  2  2  0
  2  3  1  0
  3  4  1  0
  4  5  1  0
  5  6  2  0
  5  7  1  0
  7  8  1  0
  8  9  1  0
  9 10  1  0
 10 11  1  0
 11 12  1  0
 12 13  1  0
 13 14  2  0
 14 15  1  0
 15 16  2  0
 16 17  1  0
 17 18  1  0
 18 19  1  0
 18 20  1  0
 18 21  1  0
 16 22  1  0
 22 23  2  0
  2 24  1  0
 24 25  2  0
 25 26  1  0
 26 27  2  0
 27 28  1  0
 28 29  2  0
 29 30  1  0
 30 31  2  0
 31 32  1  0
 32 33  2  0
 12  7  1  0
 23 13  1  0
 33 24  1  0
 32 27  1  0
  3 34  1  0
  4 35  1  0
  4 36  1  0
  8 37  1  0
  8 38  1  0
  9 39  1  0
  9 40  1  0
 10 41  1  0
 10 42  1  0
 11 43  1  0
 11 44  1  0
 12 45  1  1
 14 46  1  0
 15 47  1  0
 22 48  1  0
 23 49  1  0
 25 50  1  0
 26 51  1  0
 28 52  1  0
 29 53  1  0
 30 54  1  0
 31 55  1  0
M  END
>  <smiles>  (16) 
O=C(NCC(=O)N1CCCCC1c1ccc(OC(F)(F)F)cc1)c1ccc2ccccc2n1

>  <score_type>  (16) 
oracle

>  <origin>  (16) 
autodockgpu

>  <m_score__min__energy>  (16) 
-8.5999999999999996

>  <m_primary>  (16) 
energy

>  <rmsd>  (16) 
2.864390684004101

>  <m_score__min__rmsd>  (16) 
2.864390684004101

>  <meeko>  (16) 
{"free_energy": -7.87, "intermolecular_energy": -9.96, "internal_energy": -1.68, "cluster_size": 2, "cluster_id": 3, "rank_in_cluster": 1}

>  <energy>  (16) 
-7.13

>  <cluster_rmsd>  (16) 
0.0

>  <cluster>  (16) 
5

$$$$

     RDKit          3D

 55 58  0  0  0  0  0  0  0  0999 V2000
  141.5850   72.1640  221.6900 O   0  0  0  0  0  0  0  0  0  0  0  0
  140.6570   72.4110  222.5050 C   0  0  0  0  0  0  0  0  0  0  0  0
  139.9500   73.6530  222.2490 N   0  0  0  0  0  0  0  0  0  0  0  0
  140.3910   74.4090  221.1290 C   0  0  0  0  0  0  0  0  0  0  0  0
  141.0630   75.6860  221.3300 C   0  0  0  0  0  0  0  0  0  0  0  0
  140.9230   76.1500  222.5400 O   0  0  0  0  0  0  0  0  0  0  0  0
  141.8120   76.4880  220.4750 N   0  0  0  0  0  0  0  0  0  0  0  0
  141.8800   77.9430  220.4470 C   0  0  0  0  0  0  0  0  0  0  0  0
  141.4030   78.4860  219.1360 C   0  0  0  0  0  0  0  0  0  0  0  0
  141.7590   77.6560  217.9490 C   0  0  0  0  0  0  0  0  0  0  0  0
  141.8610   76.1810  218.1500 C   0  0  0  0  0  0  0  0  0  0  0  0
  142.6400   75.8960  219.3870 C   0  0  2  0  0  0  0  0  0  0  0  0
  143.0860   74.5430  219.6140 C   0  0  0  0  0  0  0  0  0  0  0  0
  142.5020   73.5090  218.8940 C   0  0  0  0  0  0  0  0  0  0  0  0
  142.8960   72.1930  219.0280 C   0  0  0  0  0  0  0  0  0  0  0  0
  143.9060   71.8510  219.9040 C   0  0  0  0  0  0  0  0  0  0  0  0
  144.3490   70.5470  220.0850 O   0  0  0  0  0  0  0  0  0  0  0  0
  145.1180   69.8610  219.1100 C   0  0  0  0  0  0  0  0  0  0  0  0
  144.4060   69.6590  217.9530 F   0  0  0  0  0  0  0  0  0  0  0  0
  145.4470   68.6020  219.6250 F   0  0  0  0  0  0  0  0  0  0  0  0
  146.3070   70.5020  218.8500 F   0  0  0  0  0  0  0  0  0  0  0  0
  144.4910   72.8720  220.6230 C   0  0  0  0  0  0  0  0  0  0  0  0
  144.0920   74.1850  220.4840 C   0  0  0  0  0  0  0  0  0  0  0  0
  140.2990   71.5470  223.6140 C   0  0  0  0  0  0  0  0  0  0  0  0
  139.5420   70.4330  223.3330 C   0  0  0  0  0  0  0  0  0  0  0  0
  139.2160   69.6260  224.4250 C   0  0  0  0  0  0  0  0  0  0  0  0
  139.6460   69.9530  225.7030 C   0  0  0  0  0  0  0  0  0  0  0  0
  139.3510   69.1870  226.8070 C   0  0  0  0  0  0  0  0  0  0  0  0
  139.7940   69.5460  228.0510 C   0  0  0  0  0  0  0  0  0  0  0  0
  140.5620   70.6920  228.2660 C   0  0  0  0  0  0  0  0  0  0  0  0
  140.8600   71.4620  227.1620 C   0  0  0  0  0  0  0  0  0  0  0  0
  140.4060   71.0890  225.9130 C   0  0  0  0  0  0  0  0  0  0  0  0
  140.7140   71.8610  224.8560 N   0  0  0  0  0  0  0  0  0  0  0  0
  139.1660   73.9240  222.8870 H   0  0  0  0  0  0  0  0  0  0  0  0
  141.0877   73.7685  220.5683 H   0  0  0  0  0  0  0  0  0  0  0  0
  139.4523   74.6934  220.6310 H   0  0  0  0  0  0  0  0  0  0  0  0
  141.2490   78.3465  221.2526 H   0  0  0  0  0  0  0  0  0  0  0  0
  142.9290   78.2437  220.5857 H   0  0  0  0  0  0  0  0  0  0  0  0
  140.3070   78.5700  219.1787 H   0  0  0  0  0  0  0  0  0  0  0  0
  141.9072   79.4541  218.9997 H   0  0  0  0  0  0  0  0  0  0  0  0
  140.9918   77.8323  217.1807 H   0  0  0  0  0  0  0  0  0  0  0  0
  142.7761   77.9745  217.6770 H   0  0  0  0  0  0  0  0  0  0  0  0
  140.8517   75.7545  218.2470 H   0  0  0  0  0  0  0  0  0  0  0  0
  142.3710   75.7299  217.2861 H   0  0  0  0  0  0  0  0  0  0  0  0
  143.6394   76.3495  219.3129 H   0  0  0  0  0  0  0  0  0  0  0  0
  141.6928   73.7485  218.1884 H   0  0  0  0  0  0  0  0  0  0  0  0
  142.4015   71.4114  218.4325 H   0  0  0  0  0  0  0  0  0  0  0  0
  145.3001   72.6321  221.3286 H   0  0  0  0  0  0  0  0  0  0  0  0
  144.5884   74.9638  221.0815 H   0  0  0  0  0  0  0  0  0  0  0  0
  139.2138   70.1928  222.3109 H   0  0  0  0  0  0  0  0  0  0  0  0
  138.6112   68.7204  224.2702 H   0  0  0  0  0  0  0  0  0  0  0  0
  138.7505   68.2730  226.6881 H   0  0  0  0  0  0  0  0  0  0  0  0
  139.5363   68.9101  228.9108 H   0  0  0  0  0  0  0  0  0  0  0  0
  140.9135   70.9681  229.2711 H   0  0  0  0  0  0  0  0  0  0  0  0
  141.4611   72.3760  227.2768 H   0  0  0  0  0  0  0  0  0  0  0  0
  1  2  2  0
  2  3  1  0
  3  4  1  0
  4  5  1  0
  5  6  2  0
  5  7  1  0
  7  8  1  0
  8  9  1  0
  9 10  1  0
 10 11  1  0
 11 12  1  0
 12 13  1  0
 13 14  2  0
 14 15  1  0
 15 16  2  0
 16 17  1  0
 17 18  1  0
 18 19  1  0
 18 20  1  0
 18 21  1  0
 16 22  1  0
 22 23  2  0
  2 24  1  0
 24 25  2  0
 25 26  1  0
 26 27  2  0
 27 28  1  0
 28 29  2  0
 29 30  1  0
 30 31  2  0
 31 32  1  0
 32 33  2  0
 12  7  1  0
 23 13  1  0
 33 24  1  0
 32 27  1  0
  3 34  1  0
  4 35  1  0
  4 36  1  0
  8 37  1  0
  8 38  1  0
  9 39  1  0
  9 40  1  0
 10 41  1  0
 10 42  1  0
 11 43  1  0
 11 44  1  0
 12 45  1  6
 14 46  1  0
 15 47  1  0
 22 48  1  0
 23 49  1  0
 25 50  1  0
 26 51  1  0
 28 52  1  0
 29 53  1  0
 30 54  1  0
 31 55  1  0
M  END
>  <smiles>  (17) 
O=C(NCC(=O)N1CCCCC1c1ccc(OC(F)(F)F)cc1)c1ccc2ccccc2n1

>  <score_type>  (17) 
oracle

>  <origin>  (17) 
autodockgpu

>  <m_score__min__energy>  (17) 
-8.5999999999999996

>  <m_primary>  (17) 
energy

>  <rmsd>  (17) 
2.398389041588874

>  <m_score__min__rmsd>  (17) 
2.398389041588874

>  <meeko>  (17) 
{"free_energy": -7.67, "intermolecular_energy": -9.76, "internal_energy": -1.86, "cluster_size": 9, "cluster_id": 1, "rank_in_cluster": 4}

>  <energy>  (17) 
-7.0

>  <cluster_rmsd>  (17) 
0.43

>  <cluster>  (17) 
5

$$$$

     RDKit          3D

 55 58  0  0  0  0  0  0  0  0999 V2000
  139.1270   75.0400  221.5980 O   0  0  0  0  0  0  0  0  0  0  0  0
  140.1930   75.6510  221.8710 C   0  0  0  0  0  0  0  0  0  0  0  0
  141.4010   74.8680  221.6720 N   0  0  0  0  0  0  0  0  0  0  0  0
  141.2180   73.5400  221.2000 C   0  0  0  0  0  0  0  0  0  0  0  0
  141.6880   73.1670  219.8730 C   0  0  0  0  0  0  0  0  0  0  0  0
  140.7160   72.9590  219.0280 O   0  0  0  0  0  0  0  0  0  0  0  0
  142.9660   72.9920  219.3530 N   0  0  0  0  0  0  0  0  0  0  0  0
  143.6170   71.7410  218.9840 C   0  0  0  0  0  0  0  0  0  0  0  0
  144.8530   71.5110  219.7970 C   0  0  0  0  0  0  0  0  0  0  0  0
  145.6330   72.7420  220.1130 C   0  0  0  0  0  0  0  0  0  0  0  0
  144.8690   74.0150  220.2670 C   0  0  0  0  0  0  0  0  0  0  0  0
  143.8860   74.1480  219.1550 C   0  0  2  0  0  0  0  0  0  0  0  0
  143.2430   75.4250  218.9640 C   0  0  0  0  0  0  0  0  0  0  0  0
  142.5870   75.6780  217.7660 C   0  0  0  0  0  0  0  0  0  0  0  0
  141.9180   76.8600  217.5180 C   0  0  0  0  0  0  0  0  0  0  0  0
  141.8780   77.8550  218.4750 C   0  0  0  0  0  0  0  0  0  0  0  0
  141.2230   79.0650  218.2880 O   0  0  0  0  0  0  0  0  0  0  0  0
  141.7730   80.3020  218.7150 C   0  0  0  0  0  0  0  0  0  0  0  0
  141.0690   81.3690  218.2130 F   0  0  0  0  0  0  0  0  0  0  0  0
  143.0780   80.3900  218.2170 F   0  0  0  0  0  0  0  0  0  0  0  0
  141.8690   80.3760  220.0840 F   0  0  0  0  0  0  0  0  0  0  0  0
  142.5270   77.6100  219.6680 C   0  0  0  0  0  0  0  0  0  0  0  0
  143.1930   76.4270  219.9070 C   0  0  0  0  0  0  0  0  0  0  0  0
  140.2450   77.0210  222.3440 C   0  0  0  0  0  0  0  0  0  0  0  0
  139.0490   77.6510  222.5980 C   0  0  0  0  0  0  0  0  0  0  0  0
  139.1380   78.9690  223.0520 C   0  0  0  0  0  0  0  0  0  0  0  0
  140.3720   79.5780  223.2250 C   0  0  0  0  0  0  0  0  0  0  0  0
  140.5080   80.8730  223.6700 C   0  0  0  0  0  0  0  0  0  0  0  0
  141.7450   81.4370  223.8270 C   0  0  0  0  0  0  0  0  0  0  0  0
  142.9220   80.7400  223.5490 C   0  0  0  0  0  0  0  0  0  0  0  0
  142.7900   79.4420  223.1040 C   0  0  0  0  0  0  0  0  0  0  0  0
  141.5360   78.8850  222.9500 C   0  0  0  0  0  0  0  0  0  0  0  0
  141.4420   77.6160  222.5130 N   0  0  0  0  0  0  0  0  0  0  0  0
  142.3250   75.3110  221.8810 H   0  0  0  0  0  0  0  0  0  0  0  0
  141.7261   72.8762  221.9149 H   0  0  0  0  0  0  0  0  0  0  0  0
  140.1249   73.4505  221.1152 H   0  0  0  0  0  0  0  0  0  0  0  0
  142.9171   70.9094  219.1528 H   0  0  0  0  0  0  0  0  0  0  0  0
  143.9043   71.7985  217.9237 H   0  0  0  0  0  0  0  0  0  0  0  0
  144.5555   71.0416  220.7463 H   0  0  0  0  0  0  0  0  0  0  0  0
  145.5114   70.8762  219.1858 H   0  0  0  0  0  0  0  0  0  0  0  0
  146.1678   72.5612  221.0571 H   0  0  0  0  0  0  0  0  0  0  0  0
  146.2758   72.9025  219.2349 H   0  0  0  0  0  0  0  0  0  0  0  0
  144.3347   74.0068  221.2285 H   0  0  0  0  0  0  0  0  0  0  0  0
  145.5672   74.8646  220.2398 H   0  0  0  0  0  0  0  0  0  0  0  0
  144.4086   74.1214  218.1874 H   0  0  0  0  0  0  0  0  0  0  0  0
  142.6011   74.9053  216.9832 H   0  0  0  0  0  0  0  0  0  0  0  0
  141.4136   77.0102  216.5521 H   0  0  0  0  0  0  0  0  0  0  0  0
  142.5124   78.3818  220.4516 H   0  0  0  0  0  0  0  0  0  0  0  0
  143.6964   76.2800  220.8739 H   0  0  0  0  0  0  0  0  0  0  0  0
  138.0817   77.1478  222.4526 H   0  0  0  0  0  0  0  0  0  0  0  0
  138.2187   79.5304  223.2749 H   0  0  0  0  0  0  0  0  0  0  0  0
  139.6095   81.4634  223.9029 H   0  0  0  0  0  0  0  0  0  0  0  0
  141.8141   82.4750  224.1845 H   0  0  0  0  0  0  0  0  0  0  0  0
  143.9101   81.2054  223.6791 H   0  0  0  0  0  0  0  0  0  0  0  0
  143.6862   78.8483  222.8709 H   0  0  0  0  0  0  0  0  0  0  0  0
  1  2  2  0
  2  3  1  0
  3  4  1  0
  4  5  1  0
  5  6  2  0
  5  7  1  0
  7  8  1  0
  8  9  1  0
  9 10  1  0
 10 11  1  0
 11 12  1  0
 12 13  1  0
 13 14  2  0
 14 15  1  0
 15 16  2  0
 16 17  1  0
 17 18  1  0
 18 19  1  0
 18 20  1  0
 18 21  1  0
 16 22  1  0
 22 23  2  0
  2 24  1  0
 24 25  2  0
 25 26  1  0
 26 27  2  0
 27 28  1  0
 28 29  2  0
 29 30  1  0
 30 31  2  0
 31 32  1  0
 32 33  2  0
 12  7  1  0
 23 13  1  0
 33 24  1  0
 32 27  1  0
  3 34  1  0
  4 35  1  0
  4 36  1  0
  8 37  1  0
  8 38  1  0
  9 39  1  0
  9 40  1  0
 10 41  1  0
 10 42  1  0
 11 43  1  0
 11 44  1  0
 12 45  1  6
 14 46  1  0
 15 47  1  0
 22 48  1  0
 23 49  1  0
 25 50  1  0
 26 51  1  0
 28 52  1  0
 29 53  1  0
 30 54  1  0
 31 55  1  0
M  END
>  <smiles>  (18) 
O=C(NCC(=O)N1CCCCC1c1ccc(OC(F)(F)F)cc1)c1ccc2ccccc2n1

>  <score_type>  (18) 
oracle

>  <origin>  (18) 
autodockgpu

>  <m_score__min__energy>  (18) 
-8.5999999999999996

>  <m_primary>  (18) 
energy

>  <rmsd>  (18) 
7.606138694901796

>  <m_score__min__rmsd>  (18) 
7.606138694901796

>  <meeko>  (18) 
{"free_energy": -6.93, "intermolecular_energy": -9.02, "internal_energy": -2.88, "cluster_size": 26, "cluster_id": 5, "rank_in_cluster": 6}

>  <energy>  (18) 
-6.98

>  <cluster_rmsd>  (18) 
0.42

>  <cluster>  (18) 
5

$$$$

     RDKit          3D

 55 58  0  0  0  0  0  0  0  0999 V2000
  140.6320   77.1340  218.3850 O   0  0  0  0  0  0  0  0  0  0  0  0
  141.6580   76.9800  219.0990 C   0  0  0  0  0  0  0  0  0  0  0  0
  142.0880   78.1800  219.7950 N   0  0  0  0  0  0  0  0  0  0  0  0
  141.3040   79.3460  219.5820 C   0  0  0  0  0  0  0  0  0  0  0  0
  140.3660   79.7900  220.6050 C   0  0  0  0  0  0  0  0  0  0  0  0
  139.1680   80.0080  220.1380 O   0  0  0  0  0  0  0  0  0  0  0  0
  140.5180   80.0240  221.9680 N   0  0  0  0  0  0  0  0  0  0  0  0
  140.5500   81.3080  222.6560 C   0  0  0  0  0  0  0  0  0  0  0  0
  141.8570   81.5190  223.3540 C   0  0  0  0  0  0  0  0  0  0  0  0
  142.4540   80.2890  223.9500 C   0  0  0  0  0  0  0  0  0  0  0  0
  142.1780   78.9930  223.2640 C   0  0  0  0  0  0  0  0  0  0  0  0
  140.7310   78.9020  222.9250 C   0  0  2  0  0  0  0  0  0  0  0  0
  140.2080   77.6240  222.5080 C   0  0  0  0  0  0  0  0  0  0  0  0
  141.0820   76.5590  222.3390 C   0  0  0  0  0  0  0  0  0  0  0  0
  140.6570   75.2960  221.9760 C   0  0  0  0  0  0  0  0  0  0  0  0
  139.3170   75.0440  221.7620 C   0  0  0  0  0  0  0  0  0  0  0  0
  138.8250   73.7980  221.3950 O   0  0  0  0  0  0  0  0  0  0  0  0
  139.4920   72.5890  221.7230 C   0  0  0  0  0  0  0  0  0  0  0  0
  139.9250   72.5870  223.0260 F   0  0  0  0  0  0  0  0  0  0  0  0
  140.6220   72.4830  220.9050 F   0  0  0  0  0  0  0  0  0  0  0  0
  138.7130   71.4860  221.4610 F   0  0  0  0  0  0  0  0  0  0  0  0
  138.4420   76.0970  221.9290 C   0  0  0  0  0  0  0  0  0  0  0  0
  138.8740   77.3560  222.2910 C   0  0  0  0  0  0  0  0  0  0  0  0
  142.3710   75.7240  219.2370 C   0  0  0  0  0  0  0  0  0  0  0  0
  141.8330   74.6180  218.6200 C   0  0  0  0  0  0  0  0  0  0  0  0
  142.5470   73.4270  218.7750 C   0  0  0  0  0  0  0  0  0  0  0  0
  143.7220   73.3950  219.5110 C   0  0  0  0  0  0  0  0  0  0  0  0
  144.4580   72.2460  219.6900 C   0  0  0  0  0  0  0  0  0  0  0  0
  145.6130   72.2560  220.4240 C   0  0  0  0  0  0  0  0  0  0  0  0
  146.1020   73.4170  221.0240 C   0  0  0  0  0  0  0  0  0  0  0  0
  145.3680   74.5710  220.8470 C   0  0  0  0  0  0  0  0  0  0  0  0
  144.2060   74.5460  220.1050 C   0  0  0  0  0  0  0  0  0  0  0  0
  143.5120   75.6890  219.9510 N   0  0  0  0  0  0  0  0  0  0  0  0
  142.9360   78.1290  220.4060 H   0  0  0  0  0  0  0  0  0  0  0  0
  142.0071   80.1752  219.4144 H   0  0  0  0  0  0  0  0  0  0  0  0
  140.6494   79.0612  218.7451 H   0  0  0  0  0  0  0  0  0  0  0  0
  140.4028   82.1124  221.9203 H   0  0  0  0  0  0  0  0  0  0  0  0
  139.7486   81.3180  223.4095 H   0  0  0  0  0  0  0  0  0  0  0  0
  142.5721   81.9277  222.6249 H   0  0  0  0  0  0  0  0  0  0  0  0
  141.6535   82.2016  224.1922 H   0  0  0  0  0  0  0  0  0  0  0  0
  143.5451   80.4271  223.9689 H   0  0  0  0  0  0  0  0  0  0  0  0
  141.9775   80.1934  224.9368 H   0  0  0  0  0  0  0  0  0  0  0  0
  142.7740   78.9336  222.3414 H   0  0  0  0  0  0  0  0  0  0  0  0
  142.4481   78.1624  223.9328 H   0  0  0  0  0  0  0  0  0  0  0  0
  140.1256   78.9953  223.8387 H   0  0  0  0  0  0  0  0  0  0  0  0
  142.1569   76.7278  222.5008 H   0  0  0  0  0  0  0  0  0  0  0  0
  141.3913   74.4857  221.8567 H   0  0  0  0  0  0  0  0  0  0  0  0
  137.3670   75.9277  221.7686 H   0  0  0  0  0  0  0  0  0  0  0  0
  138.1370   78.1641  222.4091 H   0  0  0  0  0  0  0  0  0  0  0  0
  140.8991   74.6683  218.0409 H   0  0  0  0  0  0  0  0  0  0  0  0
  142.1728   72.5041  218.3078 H   0  0  0  0  0  0  0  0  0  0  0  0
  144.1127   71.3053  219.2362 H   0  0  0  0  0  0  0  0  0  0  0  0
  146.1744   71.3178  220.5450 H   0  0  0  0  0  0  0  0  0  0  0  0
  147.0316   73.4120  221.6120 H   0  0  0  0  0  0  0  0  0  0  0  0
  145.7103   75.5137  221.2988 H   0  0  0  0  0  0  0  0  0  0  0  0
  1  2  2  0
  2  3  1  0
  3  4  1  0
  4  5  1  0
  5  6  2  0
  5  7  1  0
  7  8  1  0
  8  9  1  0
  9 10  1  0
 10 11  1  0
 11 12  1  0
 12 13  1  0
 13 14  2  0
 14 15  1  0
 15 16  2  0
 16 17  1  0
 17 18  1  0
 18 19  1  0
 18 20  1  0
 18 21  1  0
 16 22  1  0
 22 23  2  0
  2 24  1  0
 24 25  2  0
 25 26  1  0
 26 27  2  0
 27 28  1  0
 28 29  2  0
 29 30  1  0
 30 31  2  0
 31 32  1  0
 32 33  2  0
 12  7  1  0
 23 13  1  0
 33 24  1  0
 32 27  1  0
  3 34  1  0
  4 35  1  0
  4 36  1  0
  8 37  1  0
  8 38  1  0
  9 39  1  0
  9 40  1  0
 10 41  1  0
 10 42  1  0
 11 43  1  0
 11 44  1  0
 12 45  1  1
 14 46  1  0
 15 47  1  0
 22 48  1  0
 23 49  1  0
 25 50  1  0
 26 51  1  0
 28 52  1  0
 29 53  1  0
 30 54  1  0
 31 55  1  0
M  END
>  <smiles>  (19) 
O=C(NCC(=O)N1CCCCC1c1ccc(OC(F)(F)F)cc1)c1ccc2ccccc2n1

>  <score_type>  (19) 
oracle

>  <origin>  (19) 
autodockgpu

>  <m_score__min__energy>  (19) 
-8.5999999999999996

>  <m_primary>  (19) 
energy

>  <rmsd>  (19) 
7.40745933573077

>  <m_score__min__rmsd>  (19) 
7.40745933573077

>  <meeko>  (19) 
{"free_energy": -6.7, "intermolecular_energy": -8.79, "internal_energy": -3.03, "cluster_size": 8, "cluster_id": 7, "rank_in_cluster": 8}

>  <energy>  (19) 
-6.96

>  <cluster_rmsd>  (19) 
0.38

>  <cluster>  (19) 
5

$$$$

     RDKit          3D

 55 58  0  0  0  0  0  0  0  0999 V2000
  139.1040   75.0880  221.6550 O   0  0  0  0  0  0  0  0  0  0  0  0
  140.1780   75.7090  221.8660 C   0  0  0  0  0  0  0  0  0  0  0  0
  141.3800   74.9440  221.5810 N   0  0  0  0  0  0  0  0  0  0  0  0
  141.1820   73.6200  221.1040 C   0  0  0  0  0  0  0  0  0  0  0  0
  141.8000   73.1950  219.8550 C   0  0  0  0  0  0  0  0  0  0  0  0
  140.9360   72.7530  218.9830 O   0  0  0  0  0  0  0  0  0  0  0  0
  143.1250   73.1730  219.4330 N   0  0  0  0  0  0  0  0  0  0  0  0
  143.9630   72.0070  219.1790 C   0  0  0  0  0  0  0  0  0  0  0  0
  145.1540   71.9850  220.0840 C   0  0  0  0  0  0  0  0  0  0  0  0
  145.7380   73.3250  220.3830 C   0  0  0  0  0  0  0  0  0  0  0  0
  144.8020   74.4870  220.4140 C   0  0  0  0  0  0  0  0  0  0  0  0
  143.8950   74.4330  219.2340 C   0  0  2  0  0  0  0  0  0  0  0  0
  143.1040   75.6000  218.9290 C   0  0  0  0  0  0  0  0  0  0  0  0
  143.0750   76.6520  219.8340 C   0  0  0  0  0  0  0  0  0  0  0  0
  142.3710   77.8170  219.6010 C   0  0  0  0  0  0  0  0  0  0  0  0
  141.6540   77.9790  218.4330 C   0  0  0  0  0  0  0  0  0  0  0  0
  140.9250   79.1240  218.1380 O   0  0  0  0  0  0  0  0  0  0  0  0
  141.1950   80.3760  218.7480 C   0  0  0  0  0  0  0  0  0  0  0  0
  140.4400   81.3820  218.1960 F   0  0  0  0  0  0  0  0  0  0  0  0
  142.5400   80.6880  218.5190 F   0  0  0  0  0  0  0  0  0  0  0  0
  141.0300   80.3290  220.1120 F   0  0  0  0  0  0  0  0  0  0  0  0
  141.6770   76.9370  217.5280 C   0  0  0  0  0  0  0  0  0  0  0  0
  142.3830   75.7770  217.7690 C   0  0  0  0  0  0  0  0  0  0  0  0
  140.2440   77.0740  222.3530 C   0  0  0  0  0  0  0  0  0  0  0  0
  139.0560   77.7040  222.6400 C   0  0  0  0  0  0  0  0  0  0  0  0
  139.1580   79.0170  223.1060 C   0  0  0  0  0  0  0  0  0  0  0  0
  140.3980   79.6210  223.2590 C   0  0  0  0  0  0  0  0  0  0  0  0
  140.5480   80.9100  223.7160 C   0  0  0  0  0  0  0  0  0  0  0  0
  141.7890   81.4690  223.8530 C   0  0  0  0  0  0  0  0  0  0  0  0
  142.9580   80.7710  223.5430 C   0  0  0  0  0  0  0  0  0  0  0  0
  142.8120   79.4780  223.0860 C   0  0  0  0  0  0  0  0  0  0  0  0
  141.5540   78.9270  222.9520 C   0  0  0  0  0  0  0  0  0  0  0  0
  141.4460   77.6640  222.5030 N   0  0  0  0  0  0  0  0  0  0  0  0
  142.3100   75.3960  221.7360 H   0  0  0  0  0  0  0  0  0  0  0  0
  141.5510   72.9418  221.8876 H   0  0  0  0  0  0  0  0  0  0  0  0
  140.1063   73.5920  220.8758 H   0  0  0  0  0  0  0  0  0  0  0  0
  143.3694   71.0961  219.3460 H   0  0  0  0  0  0  0  0  0  0  0  0
  144.3184   72.0552  218.1391 H   0  0  0  0  0  0  0  0  0  0  0  0
  144.8521   71.5233  221.0357 H   0  0  0  0  0  0  0  0  0  0  0  0
  145.9344   71.4184  219.5548 H   0  0  0  0  0  0  0  0  0  0  0  0
  146.2205   73.2627  221.3696 H   0  0  0  0  0  0  0  0  0  0  0  0
  146.4174   73.5313  219.5428 H   0  0  0  0  0  0  0  0  0  0  0  0
  144.2041   74.4503  221.3366 H   0  0  0  0  0  0  0  0  0  0  0  0
  145.3810   75.4218  220.3857 H   0  0  0  0  0  0  0  0  0  0  0  0
  144.4870   74.4334  218.3068 H   0  0  0  0  0  0  0  0  0  0  0  0
  143.6357   76.5537  220.7753 H   0  0  0  0  0  0  0  0  0  0  0  0
  142.3818   78.6212  220.3514 H   0  0  0  0  0  0  0  0  0  0  0  0
  141.1158   77.0347  216.5870 H   0  0  0  0  0  0  0  0  0  0  0  0
  142.3699   74.9743  217.0170 H   0  0  0  0  0  0  0  0  0  0  0  0
  138.0845   77.2046  222.5106 H   0  0  0  0  0  0  0  0  0  0  0  0
  138.2452   79.5784  223.3544 H   0  0  0  0  0  0  0  0  0  0  0  0
  139.6565   81.5000  223.9752 H   0  0  0  0  0  0  0  0  0  0  0  0
  141.8687   82.5030  224.2197 H   0  0  0  0  0  0  0  0  0  0  0  0
  143.9503   81.2315  223.6581 H   0  0  0  0  0  0  0  0  0  0  0  0
  143.7011   78.8841  222.8275 H   0  0  0  0  0  0  0  0  0  0  0  0
  1  2  2  0
  2  3  1  0
  3  4  1  0
  4  5  1  0
  5  6  2  0
  5  7  1  0
  7  8  1  0
  8  9  1  0
  9 10  1  0
 10 11  1  0
 11 12  1  0
 12 13  1  0
 13 14  2  0
 14 15  1  0
 15 16  2  0
 16 17  1  0
 17 18  1  0
 18 19  1  0
 18 20  1  0
 18 21  1  0
 16 22  1  0
 22 23  2  0
  2 24  1  0
 24 25  2  0
 25 26  1  0
 26 27  2  0
 27 28  1  0
 28 29  2  0
 29 30  1  0
 30 31  2  0
 31 32  1  0
 32 33  2  0
 12  7  1  0
 23 13  1  0
 33 24  1  0
 32 27  1  0
  3 34  1  0
  4 35  1  0
  4 36  1  0
  8 37  1  0
  8 38  1  0
  9 39  1  0
  9 40  1  0
 10 41  1  0
 10 42  1  0
 11 43  1  0
 11 44  1  0
 12 45  1  6
 14 46  1  0
 15 47  1  0
 22 48  1  0
 23 49  1  0
 25 50  1  0
 26 51  1  0
 28 52  1  0
 29 53  1  0
 30 54  1  0
 31 55  1  0
M  END
>  <smiles>  (20) 
O=C(NCC(=O)N1CCCCC1c1ccc(OC(F)(F)F)cc1)c1ccc2ccccc2n1

>  <score_type>  (20) 
oracle

>  <origin>  (20) 
autodockgpu

>  <m_score__min__energy>  (20) 
-8.5999999999999996

>  <m_primary>  (20) 
energy

>  <rmsd>  (20) 
7.621665360146612

>  <m_score__min__rmsd>  (20) 
7.621665360146612

>  <meeko>  (20) 
{"free_energy": -6.98, "intermolecular_energy": -9.07, "internal_energy": -2.93, "cluster_size": 26, "cluster_id": 5, "rank_in_cluster": 3}

>  <energy>  (20) 
-6.94

>  <cluster_rmsd>  (20) 
0.46

>  <cluster>  (20) 
5

$$$$

     RDKit          3D

 55 58  0  0  0  0  0  0  0  0999 V2000
  139.0890   75.0440  221.7660 O   0  0  0  0  0  0  0  0  0  0  0  0
  140.1680   75.6640  221.9540 C   0  0  0  0  0  0  0  0  0  0  0  0
  141.3630   74.8870  221.6720 N   0  0  0  0  0  0  0  0  0  0  0  0
  141.1540   73.5540  221.2260 C   0  0  0  0  0  0  0  0  0  0  0  0
  141.6450   73.1380  219.9190 C   0  0  0  0  0  0  0  0  0  0  0  0
  140.6870   72.8460  219.0840 O   0  0  0  0  0  0  0  0  0  0  0  0
  142.9320   72.9950  219.4110 N   0  0  0  0  0  0  0  0  0  0  0  0
  143.6410   71.7570  219.1100 C   0  0  0  0  0  0  0  0  0  0  0  0
  144.8840   71.6280  219.9350 C   0  0  0  0  0  0  0  0  0  0  0  0
  145.6050   72.9100  220.1860 C   0  0  0  0  0  0  0  0  0  0  0  0
  144.7820   74.1520  220.2700 C   0  0  0  0  0  0  0  0  0  0  0  0
  143.7980   74.1790  219.1520 C   0  0  2  0  0  0  0  0  0  0  0  0
  143.0970   75.4130  218.8920 C   0  0  0  0  0  0  0  0  0  0  0  0
  143.1740   76.4430  219.8210 C   0  0  0  0  0  0  0  0  0  0  0  0
  142.5620   77.6650  219.6290 C   0  0  0  0  0  0  0  0  0  0  0  0
  141.8350   77.9120  218.4830 C   0  0  0  0  0  0  0  0  0  0  0  0
  141.1950   79.1190  218.2300 O   0  0  0  0  0  0  0  0  0  0  0  0
  140.7740   79.9900  219.2690 C   0  0  0  0  0  0  0  0  0  0  0  0
  140.0800   81.0670  218.7760 F   0  0  0  0  0  0  0  0  0  0  0  0
  141.9160   80.4840  219.9080 F   0  0  0  0  0  0  0  0  0  0  0  0
  140.0420   79.3290  220.2270 F   0  0  0  0  0  0  0  0  0  0  0  0
  141.7540   76.8940  217.5550 C   0  0  0  0  0  0  0  0  0  0  0  0
  142.3680   75.6750  217.7530 C   0  0  0  0  0  0  0  0  0  0  0  0
  140.2460   77.0390  222.4110 C   0  0  0  0  0  0  0  0  0  0  0  0
  139.0630   77.6860  222.6830 C   0  0  0  0  0  0  0  0  0  0  0  0
  139.1770   79.0070  223.1210 C   0  0  0  0  0  0  0  0  0  0  0  0
  140.4220   79.6030  223.2630 C   0  0  0  0  0  0  0  0  0  0  0  0
  140.5830   80.9000  223.6910 C   0  0  0  0  0  0  0  0  0  0  0  0
  141.8300   81.4510  223.8170 C   0  0  0  0  0  0  0  0  0  0  0  0
  142.9920   80.7360  223.5240 C   0  0  0  0  0  0  0  0  0  0  0  0
  142.8350   79.4350  223.0940 C   0  0  0  0  0  0  0  0  0  0  0  0
  141.5720   78.8930  222.9710 C   0  0  0  0  0  0  0  0  0  0  0  0
  141.4530   77.6210  222.5500 N   0  0  0  0  0  0  0  0  0  0  0  0
  142.2970   75.3370  221.8080 H   0  0  0  0  0  0  0  0  0  0  0  0
  141.6263   72.8932  221.9678 H   0  0  0  0  0  0  0  0  0  0  0  0
  140.0612   73.4921  221.1171 H   0  0  0  0  0  0  0  0  0  0  0  0
  142.9795   70.9043  219.3228 H   0  0  0  0  0  0  0  0  0  0  0  0
  143.9286   71.7707  218.0483 H   0  0  0  0  0  0  0  0  0  0  0  0
  144.6057   71.1959  220.9076 H   0  0  0  0  0  0  0  0  0  0  0  0
  145.5732   70.9931  219.3589 H   0  0  0  0  0  0  0  0  0  0  0  0
  146.1436   72.8052  221.1394 H   0  0  0  0  0  0  0  0  0  0  0  0
  146.2435   73.0531  219.3018 H   0  0  0  0  0  0  0  0  0  0  0  0
  144.2453   74.1707  221.2300 H   0  0  0  0  0  0  0  0  0  0  0  0
  145.4400   75.0305  220.1974 H   0  0  0  0  0  0  0  0  0  0  0  0
  144.3248   74.1242  218.1879 H   0  0  0  0  0  0  0  0  0  0  0  0
  143.7454   76.2781  220.7463 H   0  0  0  0  0  0  0  0  0  0  0  0
  142.6547   78.4482  220.3958 H   0  0  0  0  0  0  0  0  0  0  0  0
  141.1827   77.0597  216.6297 H   0  0  0  0  0  0  0  0  0  0  0  0
  142.2734   74.8943  216.9839 H   0  0  0  0  0  0  0  0  0  0  0  0
  138.0870   77.1930  222.5629 H   0  0  0  0  0  0  0  0  0  0  0  0
  138.2692   79.5819  223.3562 H   0  0  0  0  0  0  0  0  0  0  0  0
  139.6967   81.5037  223.9357 H   0  0  0  0  0  0  0  0  0  0  0  0
  141.9189   82.4921  224.1607 H   0  0  0  0  0  0  0  0  0  0  0  0
  143.9884   81.1896  223.6312 H   0  0  0  0  0  0  0  0  0  0  0  0
  143.7188   78.8279  222.8485 H   0  0  0  0  0  0  0  0  0  0  0  0
  1  2  2  0
  2  3  1  0
  3  4  1  0
  4  5  1  0
  5  6  2  0
  5  7  1  0
  7  8  1  0
  8  9  1  0
  9 10  1  0
 10 11  1  0
 11 12  1  0
 12 13  1  0
 13 14  2  0
 14 15  1  0
 15 16  2  0
 16 17  1  0
 17 18  1  0
 18 19  1  0
 18 20  1  0
 18 21  1  0
 16 22  1  0
 22 23  2  0
  2 24  1  0
 24 25  2  0
 25 26  1  0
 26 27  2  0
 27 28  1  0
 28 29  2  0
 29 30  1  0
 30 31  2  0
 31 32  1  0
 32 33  2  0
 12  7  1  0
 23 13  1  0
 33 24  1  0
 32 27  1  0
  3 34  1  0
  4 35  1  0
  4 36  1  0
  8 37  1  0
  8 38  1  0
  9 39  1  0
  9 40  1  0
 10 41  1  0
 10 42  1  0
 11 43  1  0
 11 44  1  0
 12 45  1  6
 14 46  1  0
 15 47  1  0
 22 48  1  0
 23 49  1  0
 25 50  1  0
 26 51  1  0
 28 52  1  0
 29 53  1  0
 30 54  1  0
 31 55  1  0
M  END
>  <smiles>  (21) 
O=C(NCC(=O)N1CCCCC1c1ccc(OC(F)(F)F)cc1)c1ccc2ccccc2n1

>  <score_type>  (21) 
oracle

>  <origin>  (21) 
autodockgpu

>  <m_score__min__energy>  (21) 
-8.5999999999999996

>  <m_primary>  (21) 
energy

>  <rmsd>  (21) 
7.60534002396674

>  <m_score__min__rmsd>  (21) 
7.60534002396674

>  <meeko>  (21) 
{"free_energy": -6.72, "intermolecular_energy": -8.8, "internal_energy": -3.1, "cluster_size": 26, "cluster_id": 5, "rank_in_cluster": 21}

>  <energy>  (21) 
-6.93

>  <cluster_rmsd>  (21) 
0.24

>  <cluster>  (21) 
5

$$$$

     RDKit          3D

 55 58  0  0  0  0  0  0  0  0999 V2000
  139.0920   75.7510  220.9500 O   0  0  0  0  0  0  0  0  0  0  0  0
  140.1390   76.1470  221.5270 C   0  0  0  0  0  0  0  0  0  0  0  0
  141.2260   75.1840  221.5220 N   0  0  0  0  0  0  0  0  0  0  0  0
  140.9670   73.9460  220.8730 C   0  0  0  0  0  0  0  0  0  0  0  0
  141.6970   73.5900  219.6640 C   0  0  0  0  0  0  0  0  0  0  0  0
  140.9230   73.4400  218.6260 O   0  0  0  0  0  0  0  0  0  0  0  0
  143.0510   73.3810  219.4230 N   0  0  0  0  0  0  0  0  0  0  0  0
  143.7560   72.1090  219.3260 C   0  0  0  0  0  0  0  0  0  0  0  0
  144.8100   71.9890  220.3810 C   0  0  0  0  0  0  0  0  0  0  0  0
  145.5200   73.2610  220.7040 C   0  0  0  0  0  0  0  0  0  0  0  0
  144.7460   74.5290  220.5670 C   0  0  0  0  0  0  0  0  0  0  0  0
  143.9970   74.5240  219.2800 C   0  0  2  0  0  0  0  0  0  0  0  0
  143.4090   75.7620  218.8290 C   0  0  0  0  0  0  0  0  0  0  0  0
  143.2400   75.9730  217.4670 C   0  0  0  0  0  0  0  0  0  0  0  0
  142.6540   77.1140  216.9570 C   0  0  0  0  0  0  0  0  0  0  0  0
  142.2060   78.1080  217.8030 C   0  0  0  0  0  0  0  0  0  0  0  0
  141.6080   79.2790  217.3550 O   0  0  0  0  0  0  0  0  0  0  0  0
  141.8560   80.5400  217.9570 C   0  0  0  0  0  0  0  0  0  0  0  0
  141.5050   81.5760  217.1260 F   0  0  0  0  0  0  0  0  0  0  0  0
  143.2310   80.6420  218.1970 F   0  0  0  0  0  0  0  0  0  0  0  0
  141.2340   80.6560  219.1780 F   0  0  0  0  0  0  0  0  0  0  0  0
  142.3690   77.9060  219.1580 C   0  0  0  0  0  0  0  0  0  0  0  0
  142.9560   76.7620  219.6600 C   0  0  0  0  0  0  0  0  0  0  0  0
  140.2790   77.4480  222.1530 C   0  0  0  0  0  0  0  0  0  0  0  0
  139.1260   78.1050  222.5170 C   0  0  0  0  0  0  0  0  0  0  0  0
  139.3000   79.3550  223.1160 C   0  0  0  0  0  0  0  0  0  0  0  0
  140.5710   79.8750  223.3170 C   0  0  0  0  0  0  0  0  0  0  0  0
  140.7900   81.1010  223.9020 C   0  0  0  0  0  0  0  0  0  0  0  0
  142.0600   81.5780  224.0820 C   0  0  0  0  0  0  0  0  0  0  0  0
  143.1880   80.8580  223.6870 C   0  0  0  0  0  0  0  0  0  0  0  0
  142.9730   79.6290  223.1000 C   0  0  0  0  0  0  0  0  0  0  0  0
  141.6870   79.1600  222.9250 C   0  0  0  0  0  0  0  0  0  0  0  0
  141.5110   77.9570  222.3490 N   0  0  0  0  0  0  0  0  0  0  0  0
  142.1280   75.4430  221.9860 H   0  0  0  0  0  0  0  0  0  0  0  0
  141.1669   73.1537  221.6094 H   0  0  0  0  0  0  0  0  0  0  0  0
  139.9316   74.0583  220.5189 H   0  0  0  0  0  0  0  0  0  0  0  0
  143.0331   71.2887  219.4469 H   0  0  0  0  0  0  0  0  0  0  0  0
  144.2434   72.0568  218.3412 H   0  0  0  0  0  0  0  0  0  0  0  0
  144.3328   71.6204  221.3010 H   0  0  0  0  0  0  0  0  0  0  0  0
  145.5710   71.3025  219.9816 H   0  0  0  0  0  0  0  0  0  0  0  0
  145.8617   73.1932  221.7474 H   0  0  0  0  0  0  0  0  0  0  0  0
  146.3212   73.3361  219.9541 H   0  0  0  0  0  0  0  0  0  0  0  0
  144.0361   74.6160  221.4027 H   0  0  0  0  0  0  0  0  0  0  0  0
  145.4399   75.3824  220.5810 H   0  0  0  0  0  0  0  0  0  0  0  0
  144.6964   74.4013  218.4399 H   0  0  0  0  0  0  0  0  0  0  0  0
  143.5872   75.1996  216.7661 H   0  0  0  0  0  0  0  0  0  0  0  0
  142.5434   77.2317  215.8689 H   0  0  0  0  0  0  0  0  0  0  0  0
  142.0210   78.6792  219.8588 H   0  0  0  0  0  0  0  0  0  0  0  0
  143.0643   76.6466  220.7486 H   0  0  0  0  0  0  0  0  0  0  0  0
  138.1289   77.6727  222.3468 H   0  0  0  0  0  0  0  0  0  0  0  0
  138.4196   79.9338  223.4320 H   0  0  0  0  0  0  0  0  0  0  0  0
  139.9320   81.7064  224.2297 H   0  0  0  0  0  0  0  0  0  0  0  0
  142.1961   82.5622  224.5540 H   0  0  0  0  0  0  0  0  0  0  0  0
  144.2035   81.2532  223.8372 H   0  0  0  0  0  0  0  0  0  0  0  0
  143.8285   79.0210  222.7705 H   0  0  0  0  0  0  0  0  0  0  0  0
  1  2  2  0
  2  3  1  0
  3  4  1  0
  4  5  1  0
  5  6  2  0
  5  7  1  0
  7  8  1  0
  8  9  1  0
  9 10  1  0
 10 11  1  0
 11 12  1  0
 12 13  1  0
 13 14  2  0
 14 15  1  0
 15 16  2  0
 16 17  1  0
 17 18  1  0
 18 19  1  0
 18 20  1  0
 18 21  1  0
 16 22  1  0
 22 23  2  0
  2 24  1  0
 24 25  2  0
 25 26  1  0
 26 27  2  0
 27 28  1  0
 28 29  2  0
 29 30  1  0
 30 31  2  0
 31 32  1  0
 32 33  2  0
 12  7  1  0
 23 13  1  0
 33 24  1  0
 32 27  1  0
  3 34  1  0
  4 35  1  0
  4 36  1  0
  8 37  1  0
  8 38  1  0
  9 39  1  0
  9 40  1  0
 10 41  1  0
 10 42  1  0
 11 43  1  0
 11 44  1  0
 12 45  1  6
 14 46  1  0
 15 47  1  0
 22 48  1  0
 23 49  1  0
 25 50  1  0
 26 51  1  0
 28 52  1  0
 29 53  1  0
 30 54  1  0
 31 55  1  0
M  END
>  <smiles>  (22) 
O=C(NCC(=O)N1CCCCC1c1ccc(OC(F)(F)F)cc1)c1ccc2ccccc2n1

>  <score_type>  (22) 
oracle

>  <origin>  (22) 
autodockgpu

>  <m_score__min__energy>  (22) 
-8.5999999999999996

>  <m_primary>  (22) 
energy

>  <rmsd>  (22) 
7.727619287640869

>  <m_score__min__rmsd>  (22) 
7.727619287640869

>  <meeko>  (22) 
{"free_energy": -7.0, "intermolecular_energy": -9.09, "internal_energy": -2.62, "cluster_size": 26, "cluster_id": 5, "rank_in_cluster": 2}

>  <energy>  (22) 
-6.92

>  <cluster_rmsd>  (22) 
0.23

>  <cluster>  (22) 
5

$$$$

     RDKit          3D

 55 58  0  0  0  0  0  0  0  0999 V2000
  139.1440   75.0790  221.4920 O   0  0  0  0  0  0  0  0  0  0  0  0
  140.2040   75.6790  221.8100 C   0  0  0  0  0  0  0  0  0  0  0  0
  141.4100   74.8830  221.6620 N   0  0  0  0  0  0  0  0  0  0  0  0
  141.2330   73.5570  221.1820 C   0  0  0  0  0  0  0  0  0  0  0  0
  141.6920   73.1970  219.8470 C   0  0  0  0  0  0  0  0  0  0  0  0
  140.7150   73.0200  219.0030 O   0  0  0  0  0  0  0  0  0  0  0  0
  142.9660   73.0070  219.3210 N   0  0  0  0  0  0  0  0  0  0  0  0
  143.6030   71.7490  218.9550 C   0  0  0  0  0  0  0  0  0  0  0  0
  144.8420   71.5120  219.7620 C   0  0  0  0  0  0  0  0  0  0  0  0
  145.6340   72.7380  220.0660 C   0  0  0  0  0  0  0  0  0  0  0  0
  144.8830   74.0180  220.2180 C   0  0  0  0  0  0  0  0  0  0  0  0
  143.8950   74.1530  219.1120 C   0  0  2  0  0  0  0  0  0  0  0  0
  143.2620   75.4350  218.9170 C   0  0  0  0  0  0  0  0  0  0  0  0
  142.6230   75.6970  217.7120 C   0  0  0  0  0  0  0  0  0  0  0  0
  141.9650   76.8850  217.4600 C   0  0  0  0  0  0  0  0  0  0  0  0
  141.9180   77.8760  218.4200 C   0  0  0  0  0  0  0  0  0  0  0  0
  141.2740   79.0910  218.2300 O   0  0  0  0  0  0  0  0  0  0  0  0
  141.8050   80.3180  218.7060 C   0  0  0  0  0  0  0  0  0  0  0  0
  141.7960   80.3750  220.0790 F   0  0  0  0  0  0  0  0  0  0  0  0
  140.9890   81.3530  218.2380 F   0  0  0  0  0  0  0  0  0  0  0  0
  143.0660   80.5570  218.2130 F   0  0  0  0  0  0  0  0  0  0  0  0
  142.5500   77.6230  219.6200 C   0  0  0  0  0  0  0  0  0  0  0  0
  143.2060   76.4340  219.8640 C   0  0  0  0  0  0  0  0  0  0  0  0
  140.2510   77.0490  222.2850 C   0  0  0  0  0  0  0  0  0  0  0  0
  139.0530   77.6730  222.5410 C   0  0  0  0  0  0  0  0  0  0  0  0
  139.1370   78.9910  222.9970 C   0  0  0  0  0  0  0  0  0  0  0  0
  140.3690   79.6040  223.1700 C   0  0  0  0  0  0  0  0  0  0  0  0
  140.5010   80.8990  223.6180 C   0  0  0  0  0  0  0  0  0  0  0  0
  141.7350   81.4680  223.7750 C   0  0  0  0  0  0  0  0  0  0  0  0
  142.9140   80.7750  223.4950 C   0  0  0  0  0  0  0  0  0  0  0  0
  142.7870   79.4770  223.0470 C   0  0  0  0  0  0  0  0  0  0  0  0
  141.5360   78.9160  222.8930 C   0  0  0  0  0  0  0  0  0  0  0  0
  141.4460   77.6480  222.4540 N   0  0  0  0  0  0  0  0  0  0  0  0
  142.3300   75.3160  221.9090 H   0  0  0  0  0  0  0  0  0  0  0  0
  141.7541   72.8923  221.8867 H   0  0  0  0  0  0  0  0  0  0  0  0
  140.1399   73.4594  221.1078 H   0  0  0  0  0  0  0  0  0  0  0  0
  142.8966   70.9247  219.1324 H   0  0  0  0  0  0  0  0  0  0  0  0
  143.8844   71.7983  217.8928 H   0  0  0  0  0  0  0  0  0  0  0  0
  144.5462   71.0505  220.7157 H   0  0  0  0  0  0  0  0  0  0  0  0
  145.4911   70.8676  219.1509 H   0  0  0  0  0  0  0  0  0  0  0  0
  146.1735   72.5577  221.0075 H   0  0  0  0  0  0  0  0  0  0  0  0
  146.2718   72.8882  219.1824 H   0  0  0  0  0  0  0  0  0  0  0  0
  144.3547   74.0199  221.1828 H   0  0  0  0  0  0  0  0  0  0  0  0
  145.5883   74.8613  220.1822 H   0  0  0  0  0  0  0  0  0  0  0  0
  144.4122   74.1159  218.1419 H   0  0  0  0  0  0  0  0  0  0  0  0
  142.6417   74.9272  216.9265 H   0  0  0  0  0  0  0  0  0  0  0  0
  141.4751   77.0426  216.4878 H   0  0  0  0  0  0  0  0  0  0  0  0
  142.5303   78.3924  220.4059 H   0  0  0  0  0  0  0  0  0  0  0  0
  143.6955   76.2802  220.8370 H   0  0  0  0  0  0  0  0  0  0  0  0
  138.0878   77.1658  222.3958 H   0  0  0  0  0  0  0  0  0  0  0  0
  138.2157   79.5487  223.2213 H   0  0  0  0  0  0  0  0  0  0  0  0
  139.6004   81.4851  223.8533 H   0  0  0  0  0  0  0  0  0  0  0  0
  141.8004   82.5058  224.1337 H   0  0  0  0  0  0  0  0  0  0  0  0
  143.9006   81.2435  223.6259 H   0  0  0  0  0  0  0  0  0  0  0  0
  143.6854   78.8874  222.8118 H   0  0  0  0  0  0  0  0  0  0  0  0
  1  2  2  0
  2  3  1  0
  3  4  1  0
  4  5  1  0
  5  6  2  0
  5  7  1  0
  7  8  1  0
  8  9  1  0
  9 10  1  0
 10 11  1  0
 11 12  1  0
 12 13  1  0
 13 14  2  0
 14 15  1  0
 15 16  2  0
 16 17  1  0
 17 18  1  0
 18 19  1  0
 18 20  1  0
 18 21  1  0
 16 22  1  0
 22 23  2  0
  2 24  1  0
 24 25  2  0
 25 26  1  0
 26 27  2  0
 27 28  1  0
 28 29  2  0
 29 30  1  0
 30 31  2  0
 31 32  1  0
 32 33  2  0
 12  7  1  0
 23 13  1  0
 33 24  1  0
 32 27  1  0
  3 34  1  0
  4 35  1  0
  4 36  1  0
  8 37  1  0
  8 38  1  0
  9 39  1  0
  9 40  1  0
 10 41  1  0
 10 42  1  0
 11 43  1  0
 11 44  1  0
 12 45  1  6
 14 46  1  0
 15 47  1  0
 22 48  1  0
 23 49  1  0
 25 50  1  0
 26 51  1  0
 28 52  1  0
 29 53  1  0
 30 54  1  0
 31 55  1  0
M  END
>  <smiles>  (23) 
O=C(NCC(=O)N1CCCCC1c1ccc(OC(F)(F)F)cc1)c1ccc2ccccc2n1

>  <score_type>  (23) 
oracle

>  <origin>  (23) 
autodockgpu

>  <m_score__min__energy>  (23) 
-8.5999999999999996

>  <m_primary>  (23) 
energy

>  <rmsd>  (23) 
7.626060354437341

>  <m_score__min__rmsd>  (23) 
7.626060354437341

>  <meeko>  (23) 
{"free_energy": -6.92, "intermolecular_energy": -9.01, "internal_energy": -2.91, "cluster_size": 26, "cluster_id": 5, "rank_in_cluster": 7}

>  <energy>  (23) 
-6.92

>  <cluster_rmsd>  (23) 
0.42

>  <cluster>  (23) 
5

$$$$

     RDKit          3D

 55 58  0  0  0  0  0  0  0  0999 V2000
  139.0710   75.0630  221.6500 O   0  0  0  0  0  0  0  0  0  0  0  0
  140.1500   75.6720  221.8730 C   0  0  0  0  0  0  0  0  0  0  0  0
  141.3450   74.8900  221.6090 N   0  0  0  0  0  0  0  0  0  0  0  0
  141.1380   73.5650  221.1380 C   0  0  0  0  0  0  0  0  0  0  0  0
  141.7720   73.1220  219.9040 C   0  0  0  0  0  0  0  0  0  0  0  0
  140.9340   72.5740  219.0680 O   0  0  0  0  0  0  0  0  0  0  0  0
  143.0910   73.1750  219.4650 N   0  0  0  0  0  0  0  0  0  0  0  0
  143.9860   72.0580  219.1900 C   0  0  0  0  0  0  0  0  0  0  0  0
  145.1900   72.0930  220.0790 C   0  0  0  0  0  0  0  0  0  0  0  0
  145.7040   73.4600  220.3830 C   0  0  0  0  0  0  0  0  0  0  0  0
  144.7070   74.5690  220.4360 C   0  0  0  0  0  0  0  0  0  0  0  0
  143.7890   74.4760  219.2670 C   0  0  2  0  0  0  0  0  0  0  0  0
  142.9320   75.6010  218.9830 C   0  0  0  0  0  0  0  0  0  0  0  0
  143.0620   76.7580  219.7400 C   0  0  0  0  0  0  0  0  0  0  0  0
  142.3050   77.8890  219.5080 C   0  0  0  0  0  0  0  0  0  0  0  0
  141.3700   77.9090  218.4930 C   0  0  0  0  0  0  0  0  0  0  0  0
  140.5770   79.0130  218.2080 O   0  0  0  0  0  0  0  0  0  0  0  0
  140.2600   79.9940  219.1830 C   0  0  0  0  0  0  0  0  0  0  0  0
  139.4770   80.9940  218.6590 F   0  0  0  0  0  0  0  0  0  0  0  0
  141.4550   80.5800  219.6130 F   0  0  0  0  0  0  0  0  0  0  0  0
  139.6700   79.4410  220.2950 F   0  0  0  0  0  0  0  0  0  0  0  0
  141.2350   76.7630  217.7360 C   0  0  0  0  0  0  0  0  0  0  0  0
  141.9950   75.6370  217.9740 C   0  0  0  0  0  0  0  0  0  0  0  0
  140.2270   77.0390  222.3510 C   0  0  0  0  0  0  0  0  0  0  0  0
  139.0450   77.6700  222.6640 C   0  0  0  0  0  0  0  0  0  0  0  0
  139.1580   78.9850  223.1210 C   0  0  0  0  0  0  0  0  0  0  0  0
  140.4010   79.5900  223.2420 C   0  0  0  0  0  0  0  0  0  0  0  0
  140.5610   80.8820  223.6880 C   0  0  0  0  0  0  0  0  0  0  0  0
  141.8050   81.4430  223.7920 C   0  0  0  0  0  0  0  0  0  0  0  0
  142.9660   80.7440  223.4560 C   0  0  0  0  0  0  0  0  0  0  0  0
  142.8100   79.4490  223.0090 C   0  0  0  0  0  0  0  0  0  0  0  0
  141.5500   78.8960  222.9090 C   0  0  0  0  0  0  0  0  0  0  0  0
  141.4320   77.6310  222.4690 N   0  0  0  0  0  0  0  0  0  0  0  0
  142.2800   75.3310  221.7740 H   0  0  0  0  0  0  0  0  0  0  0  0
  141.4838   72.8880  221.9331 H   0  0  0  0  0  0  0  0  0  0  0  0
  140.0663   73.5499  220.8904 H   0  0  0  0  0  0  0  0  0  0  0  0
  143.4443   71.1154  219.3576 H   0  0  0  0  0  0  0  0  0  0  0  0
  144.3236   72.1330  218.1458 H   0  0  0  0  0  0  0  0  0  0  0  0
  144.9273   71.6069  221.0301 H   0  0  0  0  0  0  0  0  0  0  0  0
  145.9925   71.5748  219.5337 H   0  0  0  0  0  0  0  0  0  0  0  0
  146.2016   73.4157  221.3630 H   0  0  0  0  0  0  0  0  0  0  0  0
  146.3604   73.7100  219.5364 H   0  0  0  0  0  0  0  0  0  0  0  0
  144.1240   74.4922  221.3656 H   0  0  0  0  0  0  0  0  0  0  0  0
  145.2343   75.5340  220.4089 H   0  0  0  0  0  0  0  0  0  0  0  0
  144.3676   74.5162  218.3323 H   0  0  0  0  0  0  0  0  0  0  0  0
  143.7978   76.7740  220.5575 H   0  0  0  0  0  0  0  0  0  0  0  0
  142.4480   78.7804  220.1365 H   0  0  0  0  0  0  0  0  0  0  0  0
  140.4993   76.7472  216.9184 H   0  0  0  0  0  0  0  0  0  0  0  0
  141.8496   74.7473  217.3436 H   0  0  0  0  0  0  0  0  0  0  0  0
  138.0709   77.1696  222.5607 H   0  0  0  0  0  0  0  0  0  0  0  0
  138.2513   79.5476  223.3881 H   0  0  0  0  0  0  0  0  0  0  0  0
  139.6755   81.4729  223.9651 H   0  0  0  0  0  0  0  0  0  0  0  0
  141.8930   82.4786  224.1522 H   0  0  0  0  0  0  0  0  0  0  0  0
  143.9605   81.2057  223.5439 H   0  0  0  0  0  0  0  0  0  0  0  0
  143.6931   78.8548  222.7312 H   0  0  0  0  0  0  0  0  0  0  0  0
  1  2  2  0
  2  3  1  0
  3  4  1  0
  4  5  1  0
  5  6  2  0
  5  7  1  0
  7  8  1  0
  8  9  1  0
  9 10  1  0
 10 11  1  0
 11 12  1  0
 12 13  1  0
 13 14  2  0
 14 15  1  0
 15 16  2  0
 16 17  1  0
 17 18  1  0
 18 19  1  0
 18 20  1  0
 18 21  1  0
 16 22  1  0
 22 23  2  0
  2 24  1  0
 24 25  2  0
 25 26  1  0
 26 27  2  0
 27 28  1  0
 28 29  2  0
 29 30  1  0
 30 31  2  0
 31 32  1  0
 32 33  2  0
 12  7  1  0
 23 13  1  0
 33 24  1  0
 32 27  1  0
  3 34  1  0
  4 35  1  0
  4 36  1  0
  8 37  1  0
  8 38  1  0
  9 39  1  0
  9 40  1  0
 10 41  1  0
 10 42  1  0
 11 43  1  0
 11 44  1  0
 12 45  1  6
 14 46  1  0
 15 47  1  0
 22 48  1  0
 23 49  1  0
 25 50  1  0
 26 51  1  0
 28 52  1  0
 29 53  1  0
 30 54  1  0
 31 55  1  0
M  END
>  <smiles>  (24) 
O=C(NCC(=O)N1CCCCC1c1ccc(OC(F)(F)F)cc1)c1ccc2ccccc2n1

>  <score_type>  (24) 
oracle

>  <origin>  (24) 
autodockgpu

>  <m_score__min__energy>  (24) 
-8.5999999999999996

>  <m_primary>  (24) 
energy

>  <rmsd>  (24) 
7.596202847902847

>  <m_score__min__rmsd>  (24) 
7.596202847902847

>  <meeko>  (24) 
{"free_energy": -6.76, "intermolecular_energy": -8.85, "internal_energy": -3.15, "cluster_size": 26, "cluster_id": 5, "rank_in_cluster": 19}

>  <energy>  (24) 
-6.91

>  <cluster_rmsd>  (24) 
0.59

>  <cluster>  (24) 
5

$$$$

     RDKit          3D

 55 58  0  0  0  0  0  0  0  0999 V2000
  139.1140   75.0900  221.6120 O   0  0  0  0  0  0  0  0  0  0  0  0
  140.1870   75.6850  221.8910 C   0  0  0  0  0  0  0  0  0  0  0  0
  141.3840   74.8840  221.7020 N   0  0  0  0  0  0  0  0  0  0  0  0
  141.1840   73.5580  221.2300 C   0  0  0  0  0  0  0  0  0  0  0  0
  141.6640   73.1750  219.9090 C   0  0  0  0  0  0  0  0  0  0  0  0
  140.6990   72.9660  219.0570 O   0  0  0  0  0  0  0  0  0  0  0  0
  142.9460   72.9910  219.4020 N   0  0  0  0  0  0  0  0  0  0  0  0
  143.6180   71.7320  219.1050 C   0  0  0  0  0  0  0  0  0  0  0  0
  144.8550   71.5660  219.9310 C   0  0  0  0  0  0  0  0  0  0  0  0
  145.6150   72.8250  220.1800 C   0  0  0  0  0  0  0  0  0  0  0  0
  144.8310   74.0920  220.2610 C   0  0  0  0  0  0  0  0  0  0  0  0
  143.8490   74.1480  219.1430 C   0  0  2  0  0  0  0  0  0  0  0  0
  143.1870   75.4020  218.8790 C   0  0  0  0  0  0  0  0  0  0  0  0
  143.1540   76.3710  219.8740 C   0  0  0  0  0  0  0  0  0  0  0  0
  142.5720   77.6090  219.6890 C   0  0  0  0  0  0  0  0  0  0  0  0
  141.9870   77.9340  218.4820 C   0  0  0  0  0  0  0  0  0  0  0  0
  141.3840   79.1600  218.2320 O   0  0  0  0  0  0  0  0  0  0  0  0
  140.9660   80.0290  219.2730 C   0  0  0  0  0  0  0  0  0  0  0  0
  140.0830   79.4120  220.1240 F   0  0  0  0  0  0  0  0  0  0  0  0
  140.2990   81.1120  218.6900 F   0  0  0  0  0  0  0  0  0  0  0  0
  142.0330   80.5520  219.9650 F   0  0  0  0  0  0  0  0  0  0  0  0
  142.0150   76.9770  217.4880 C   0  0  0  0  0  0  0  0  0  0  0  0
  142.5990   75.7420  217.6810 C   0  0  0  0  0  0  0  0  0  0  0  0
  140.2560   77.0550  222.3640 C   0  0  0  0  0  0  0  0  0  0  0  0
  139.0690   77.6950  222.6340 C   0  0  0  0  0  0  0  0  0  0  0  0
  139.1750   79.0120  223.0860 C   0  0  0  0  0  0  0  0  0  0  0  0
  140.4160   79.6110  223.2430 C   0  0  0  0  0  0  0  0  0  0  0  0
  140.5690   80.9050  223.6860 C   0  0  0  0  0  0  0  0  0  0  0  0
  141.8120   81.4590  223.8260 C   0  0  0  0  0  0  0  0  0  0  0  0
  142.9790   80.7510  223.5330 C   0  0  0  0  0  0  0  0  0  0  0  0
  142.8310   79.4540  223.0890 C   0  0  0  0  0  0  0  0  0  0  0  0
  141.5710   78.9080  222.9520 C   0  0  0  0  0  0  0  0  0  0  0  0
  141.4600   77.6400  222.5160 N   0  0  0  0  0  0  0  0  0  0  0  0
  142.3130   75.3130  221.9170 H   0  0  0  0  0  0  0  0  0  0  0  0
  141.6720   72.8869  221.9521 H   0  0  0  0  0  0  0  0  0  0  0  0
  140.0907   73.4866  221.1323 H   0  0  0  0  0  0  0  0  0  0  0  0
  142.9306   70.9002  219.3185 H   0  0  0  0  0  0  0  0  0  0  0  0
  143.9078   71.7358  218.0439 H   0  0  0  0  0  0  0  0  0  0  0  0
  144.5626   71.1448  220.9042 H   0  0  0  0  0  0  0  0  0  0  0  0
  145.5246   70.9087  219.3568 H   0  0  0  0  0  0  0  0  0  0  0  0
  146.1494   72.7054  221.1340 H   0  0  0  0  0  0  0  0  0  0  0  0
  146.2583   72.9465  219.2960 H   0  0  0  0  0  0  0  0  0  0  0  0
  144.2947   74.1292  221.2207 H   0  0  0  0  0  0  0  0  0  0  0  0
  145.5162   74.9493  220.1867 H   0  0  0  0  0  0  0  0  0  0  0  0
  144.3755   74.0760  218.1799 H   0  0  0  0  0  0  0  0  0  0  0  0
  143.6101   76.1425  220.8486 H   0  0  0  0  0  0  0  0  0  0  0  0
  142.5745   78.3417  220.5095 H   0  0  0  0  0  0  0  0  0  0  0  0
  141.5585   77.2055  216.5136 H   0  0  0  0  0  0  0  0  0  0  0  0
  142.5949   75.0116  216.8585 H   0  0  0  0  0  0  0  0  0  0  0  0
  138.0957   77.1998  222.5020 H   0  0  0  0  0  0  0  0  0  0  0  0
  138.2633   79.5812  223.3203 H   0  0  0  0  0  0  0  0  0  0  0  0
  139.6787   81.5026  223.9311 H   0  0  0  0  0  0  0  0  0  0  0  0
  141.8947   82.4968  224.1812 H   0  0  0  0  0  0  0  0  0  0  0  0
  143.9727   81.2077  223.6511 H   0  0  0  0  0  0  0  0  0  0  0  0
  143.7191   78.8532  222.8435 H   0  0  0  0  0  0  0  0  0  0  0  0
  1  2  2  0
  2  3  1  0
  3  4  1  0
  4  5  1  0
  5  6  2  0
  5  7  1  0
  7  8  1  0
  8  9  1  0
  9 10  1  0
 10 11  1  0
 11 12  1  0
 12 13  1  0
 13 14  2  0
 14 15  1  0
 15 16  2  0
 16 17  1  0
 17 18  1  0
 18 19  1  0
 18 20  1  0
 18 21  1  0
 16 22  1  0
 22 23  2  0
  2 24  1  0
 24 25  2  0
 25 26  1  0
 26 27  2  0
 27 28  1  0
 28 29  2  0
 29 30  1  0
 30 31  2  0
 31 32  1  0
 32 33  2  0
 12  7  1  0
 23 13  1  0
 33 24  1  0
 32 27  1  0
  3 34  1  0
  4 35  1  0
  4 36  1  0
  8 37  1  0
  8 38  1  0
  9 39  1  0
  9 40  1  0
 10 41  1  0
 10 42  1  0
 11 43  1  0
 11 44  1  0
 12 45  1  6
 14 46  1  0
 15 47  1  0
 22 48  1  0
 23 49  1  0
 25 50  1  0
 26 51  1  0
 28 52  1  0
 29 53  1  0
 30 54  1  0
 31 55  1  0
M  END
>  <smiles>  (25) 
O=C(NCC(=O)N1CCCCC1c1ccc(OC(F)(F)F)cc1)c1ccc2ccccc2n1

>  <score_type>  (25) 
oracle

>  <origin>  (25) 
autodockgpu

>  <m_score__min__energy>  (25) 
-8.5999999999999996

>  <m_primary>  (25) 
energy

>  <rmsd>  (25) 
7.619169842331808

>  <m_score__min__rmsd>  (25) 
7.619169842331808

>  <meeko>  (25) 
{"free_energy": -6.77, "intermolecular_energy": -8.86, "internal_energy": -3.07, "cluster_size": 26, "cluster_id": 5, "rank_in_cluster": 18}

>  <energy>  (25) 
-6.89

>  <cluster_rmsd>  (25) 
0.67

>  <cluster>  (25) 
5

$$$$

     RDKit          3D

 55 58  0  0  0  0  0  0  0  0999 V2000
  138.3310   70.9850  221.3110 O   0  0  0  0  0  0  0  0  0  0  0  0
  138.7210   71.5820  222.3480 C   0  0  0  0  0  0  0  0  0  0  0  0
  138.6710   73.0310  222.2600 N   0  0  0  0  0  0  0  0  0  0  0  0
  138.1910   73.5700  221.0350 C   0  0  0  0  0  0  0  0  0  0  0  0
  139.1140   73.8140  219.9350 C   0  0  0  0  0  0  0  0  0  0  0  0
  138.6550   74.6690  219.0640 O   0  0  0  0  0  0  0  0  0  0  0  0
  140.3770   73.3040  219.6490 N   0  0  0  0  0  0  0  0  0  0  0  0
  140.7160   72.2160  218.7410 C   0  0  0  0  0  0  0  0  0  0  0  0
  141.3730   71.0850  219.4690 C   0  0  0  0  0  0  0  0  0  0  0  0
  142.2800   71.4980  220.5790 C   0  0  0  0  0  0  0  0  0  0  0  0
  141.9390   72.7530  221.3090 C   0  0  0  0  0  0  0  0  0  0  0  0
  141.5940   73.8240  220.3330 C   0  0  2  0  0  0  0  0  0  0  0  0
  141.5020   75.1810  220.8150 C   0  0  0  0  0  0  0  0  0  0  0  0
  142.0730   76.2030  220.0680 C   0  0  0  0  0  0  0  0  0  0  0  0
  141.9980   77.5300  220.4420 C   0  0  0  0  0  0  0  0  0  0  0  0
  141.3370   77.8950  221.5980 C   0  0  0  0  0  0  0  0  0  0  0  0
  141.2260   79.2100  222.0290 O   0  0  0  0  0  0  0  0  0  0  0  0
  141.9510   79.7110  223.1420 C   0  0  0  0  0  0  0  0  0  0  0  0
  141.8200   78.8960  224.2400 F   0  0  0  0  0  0  0  0  0  0  0  0
  141.4180   80.9590  223.4800 F   0  0  0  0  0  0  0  0  0  0  0  0
  143.2770   79.9190  222.8390 F   0  0  0  0  0  0  0  0  0  0  0  0
  140.7670   76.8850  222.3450 C   0  0  0  0  0  0  0  0  0  0  0  0
  140.8460   75.5610  221.9650 C   0  0  0  0  0  0  0  0  0  0  0  0
  139.1860   70.9090  223.5460 C   0  0  0  0  0  0  0  0  0  0  0  0
  139.0590   69.5400  223.5960 C   0  0  0  0  0  0  0  0  0  0  0  0
  139.5170   68.9270  224.7650 C   0  0  0  0  0  0  0  0  0  0  0  0
  140.0620   69.6810  225.7940 C   0  0  0  0  0  0  0  0  0  0  0  0
  140.5270   69.1200  226.9620 C   0  0  0  0  0  0  0  0  0  0  0  0
  141.0570   69.8990  227.9540 C   0  0  0  0  0  0  0  0  0  0  0  0
  141.1570   71.2870  227.8370 C   0  0  0  0  0  0  0  0  0  0  0  0
  140.6930   71.8520  226.6690 C   0  0  0  0  0  0  0  0  0  0  0  0
  140.1600   71.0550  225.6770 C   0  0  0  0  0  0  0  0  0  0  0  0
  139.7160   71.6370  224.5480 N   0  0  0  0  0  0  0  0  0  0  0  0
  138.9820   73.5950  223.0840 H   0  0  0  0  0  0  0  0  0  0  0  0
  137.4267   72.8736  220.6596 H   0  0  0  0  0  0  0  0  0  0  0  0
  137.8601   74.5807  221.3161 H   0  0  0  0  0  0  0  0  0  0  0  0
  139.7960   71.8483  218.2631 H   0  0  0  0  0  0  0  0  0  0  0  0
  141.4196   72.5992  217.9873 H   0  0  0  0  0  0  0  0  0  0  0  0
  140.5838   70.4459  219.8918 H   0  0  0  0  0  0  0  0  0  0  0  0
  142.0029   70.5664  218.7313 H   0  0  0  0  0  0  0  0  0  0  0  0
  142.2947   70.6809  221.3153 H   0  0  0  0  0  0  0  0  0  0  0  0
  143.2445   71.7068  220.0931 H   0  0  0  0  0  0  0  0  0  0  0  0
  141.0788   72.5695  221.9696 H   0  0  0  0  0  0  0  0  0  0  0  0
  142.8042   73.0719  221.9088 H   0  0  0  0  0  0  0  0  0  0  0  0
  142.4362   73.9897  219.6451 H   0  0  0  0  0  0  0  0  0  0  0  0
  142.6064   75.9450  219.1412 H   0  0  0  0  0  0  0  0  0  0  0  0
  142.4681   78.3017  219.8147 H   0  0  0  0  0  0  0  0  0  0  0  0
  140.2334   77.1430  223.2716 H   0  0  0  0  0  0  0  0  0  0  0  0
  140.3746   74.7918  222.5944 H   0  0  0  0  0  0  0  0  0  0  0  0
  138.6236   68.9634  222.7665 H   0  0  0  0  0  0  0  0  0  0  0  0
  139.4446   67.8345  224.8706 H   0  0  0  0  0  0  0  0  0  0  0  0
  140.4716   68.0301  227.0997 H   0  0  0  0  0  0  0  0  0  0  0  0
  141.4164   69.4159  228.8745 H   0  0  0  0  0  0  0  0  0  0  0  0
  141.5870   71.9019  228.6414 H   0  0  0  0  0  0  0  0  0  0  0  0
  140.7477   72.9414  226.5272 H   0  0  0  0  0  0  0  0  0  0  0  0
  1  2  2  0
  2  3  1  0
  3  4  1  0
  4  5  1  0
  5  6  2  0
  5  7  1  0
  7  8  1  0
  8  9  1  0
  9 10  1  0
 10 11  1  0
 11 12  1  0
 12 13  1  0
 13 14  2  0
 14 15  1  0
 15 16  2  0
 16 17  1  0
 17 18  1  0
 18 19  1  0
 18 20  1  0
 18 21  1  0
 16 22  1  0
 22 23  2  0
  2 24  1  0
 24 25  2  0
 25 26  1  0
 26 27  2  0
 27 28  1  0
 28 29  2  0
 29 30  1  0
 30 31  2  0
 31 32  1  0
 32 33  2  0
 12  7  1  0
 23 13  1  0
 33 24  1  0
 32 27  1  0
  3 34  1  0
  4 35  1  0
  4 36  1  0
  8 37  1  0
  8 38  1  0
  9 39  1  0
  9 40  1  0
 10 41  1  0
 10 42  1  0
 11 43  1  0
 11 44  1  0
 12 45  1  6
 14 46  1  0
 15 47  1  0
 22 48  1  0
 23 49  1  0
 25 50  1  0
 26 51  1  0
 28 52  1  0
 29 53  1  0
 30 54  1  0
 31 55  1  0
M  END
>  <smiles>  (26) 
O=C(NCC(=O)N1CCCCC1c1ccc(OC(F)(F)F)cc1)c1ccc2ccccc2n1

>  <score_type>  (26) 
oracle

>  <origin>  (26) 
autodockgpu

>  <m_score__min__energy>  (26) 
-8.5999999999999996

>  <m_primary>  (26) 
energy

>  <rmsd>  (26) 
2.75610162721653

>  <m_score__min__rmsd>  (26) 
2.75610162721653

>  <meeko>  (26) 
{"free_energy": -7.09, "intermolecular_energy": -9.18, "internal_energy": -2.47, "cluster_size": 1, "cluster_id": 6, "rank_in_cluster": 1}

>  <energy>  (26) 
-6.88

>  <cluster_rmsd>  (26) 
0.53

>  <cluster>  (26) 
5

$$$$

     RDKit          3D

 55 58  0  0  0  0  0  0  0  0999 V2000
  141.2520   71.3750  221.9250 O   0  0  0  0  0  0  0  0  0  0  0  0
  140.7380   72.5010  222.1560 C   0  0  0  0  0  0  0  0  0  0  0  0
  139.7010   72.4880  223.1720 N   0  0  0  0  0  0  0  0  0  0  0  0
  139.4130   71.2270  223.7620 C   0  0  0  0  0  0  0  0  0  0  0  0
  140.1820   70.7670  224.9100 C   0  0  0  0  0  0  0  0  0  0  0  0
  141.4260   71.1570  224.8800 O   0  0  0  0  0  0  0  0  0  0  0  0
  139.8340   69.9960  226.0140 N   0  0  0  0  0  0  0  0  0  0  0  0
  140.0910   70.2810  227.4200 C   0  0  0  0  0  0  0  0  0  0  0  0
  140.9530   69.2270  228.0410 C   0  0  0  0  0  0  0  0  0  0  0  0
  140.6980   67.8410  227.5520 C   0  0  0  0  0  0  0  0  0  0  0  0
  140.2370   67.6890  226.1410 C   0  0  0  0  0  0  0  0  0  0  0  0
  139.1600   68.6770  225.8550 C   0  0  2  0  0  0  0  0  0  0  0  0
  138.3920   68.5170  224.6440 C   0  0  0  0  0  0  0  0  0  0  0  0
  137.1380   69.1080  224.5550 C   0  0  0  0  0  0  0  0  0  0  0  0
  136.3570   69.0310  223.4190 C   0  0  0  0  0  0  0  0  0  0  0  0
  136.8050   68.3470  222.3070 C   0  0  0  0  0  0  0  0  0  0  0  0
  136.0690   68.2330  221.1350 O   0  0  0  0  0  0  0  0  0  0  0  0
  135.2100   67.1320  220.8800 C   0  0  0  0  0  0  0  0  0  0  0  0
  134.3160   66.9390  221.9040 F   0  0  0  0  0  0  0  0  0  0  0  0
  135.9980   65.9800  220.7890 F   0  0  0  0  0  0  0  0  0  0  0  0
  134.5590   67.2580  219.6750 F   0  0  0  0  0  0  0  0  0  0  0  0
  138.0500   67.7580  222.3870 C   0  0  0  0  0  0  0  0  0  0  0  0
  138.8250   67.8390  223.5260 C   0  0  0  0  0  0  0  0  0  0  0  0
  141.1280   73.7250  221.4830 C   0  0  0  0  0  0  0  0  0  0  0  0
  141.9160   73.6100  220.3610 C   0  0  0  0  0  0  0  0  0  0  0  0
  142.2720   74.8090  219.7400 C   0  0  0  0  0  0  0  0  0  0  0  0
  141.8410   76.0260  220.2470 C   0  0  0  0  0  0  0  0  0  0  0  0
  142.1650   77.2320  219.6690 C   0  0  0  0  0  0  0  0  0  0  0  0
  141.7200   78.4110  220.2020 C   0  0  0  0  0  0  0  0  0  0  0  0
  140.9220   78.4560  221.3460 C   0  0  0  0  0  0  0  0  0  0  0  0
  140.5940   77.2500  221.9290 C   0  0  0  0  0  0  0  0  0  0  0  0
  141.0500   76.0680  221.3810 C   0  0  0  0  0  0  0  0  0  0  0  0
  140.7130   74.9090  221.9730 N   0  0  0  0  0  0  0  0  0  0  0  0
  139.2270   73.3890  223.4160 H   0  0  0  0  0  0  0  0  0  0  0  0
  138.3595   71.2571  224.0771 H   0  0  0  0  0  0  0  0  0  0  0  0
  139.6847   70.5108  222.9726 H   0  0  0  0  0  0  0  0  0  0  0  0
  140.5994   71.2531  227.5012 H   0  0  0  0  0  0  0  0  0  0  0  0
  139.1282   70.2990  227.9517 H   0  0  0  0  0  0  0  0  0  0  0  0
  142.0034   69.4762  227.8302 H   0  0  0  0  0  0  0  0  0  0  0  0
  140.7140   69.2250  229.1147 H   0  0  0  0  0  0  0  0  0  0  0  0
  141.6358   67.2757  227.6563 H   0  0  0  0  0  0  0  0  0  0  0  0
  139.8612   67.4741  228.1644 H   0  0  0  0  0  0  0  0  0  0  0  0
  141.0827   67.8626  225.4594 H   0  0  0  0  0  0  0  0  0  0  0  0
  139.8461   66.6715  225.9934 H   0  0  0  0  0  0  0  0  0  0  0  0
  138.3251   68.5328  226.5565 H   0  0  0  0  0  0  0  0  0  0  0  0
  136.7516   69.6596  225.4247 H   0  0  0  0  0  0  0  0  0  0  0  0
  135.3709   69.5181  223.4001 H   0  0  0  0  0  0  0  0  0  0  0  0
  138.4365   67.2073  221.5168 H   0  0  0  0  0  0  0  0  0  0  0  0
  139.8107   67.3511  223.5414 H   0  0  0  0  0  0  0  0  0  0  0  0
  142.2454   72.6334  219.9767 H   0  0  0  0  0  0  0  0  0  0  0  0
  142.9016   74.7881  218.8382 H   0  0  0  0  0  0  0  0  0  0  0  0
  142.7912   77.2485  218.7648 H   0  0  0  0  0  0  0  0  0  0  0  0
  142.0007   79.3551  219.7123 H   0  0  0  0  0  0  0  0  0  0  0  0
  140.5703   79.4108  221.7640 H   0  0  0  0  0  0  0  0  0  0  0  0
  139.9675   77.2300  222.8329 H   0  0  0  0  0  0  0  0  0  0  0  0
  1  2  2  0
  2  3  1  0
  3  4  1  0
  4  5  1  0
  5  6  2  0
  5  7  1  0
  7  8  1  0
  8  9  1  0
  9 10  1  0
 10 11  1  0
 11 12  1  0
 12 13  1  0
 13 14  2  0
 14 15  1  0
 15 16  2  0
 16 17  1  0
 17 18  1  0
 18 19  1  0
 18 20  1  0
 18 21  1  0
 16 22  1  0
 22 23  2  0
  2 24  1  0
 24 25  2  0
 25 26  1  0
 26 27  2  0
 27 28  1  0
 28 29  2  0
 29 30  1  0
 30 31  2  0
 31 32  1  0
 32 33  2  0
 12  7  1  0
 23 13  1  0
 33 24  1  0
 32 27  1  0
  3 34  1  0
  4 35  1  0
  4 36  1  0
  8 37  1  0
  8 38  1  0
  9 39  1  0
  9 40  1  0
 10 41  1  0
 10 42  1  0
 11 43  1  0
 11 44  1  0
 12 45  1  1
 14 46  1  0
 15 47  1  0
 22 48  1  0
 23 49  1  0
 25 50  1  0
 26 51  1  0
 28 52  1  0
 29 53  1  0
 30 54  1  0
 31 55  1  0
M  END
>  <smiles>  (27) 
O=C(NCC(=O)N1CCCCC1c1ccc(OC(F)(F)F)cc1)c1ccc2ccccc2n1

>  <score_type>  (27) 
oracle

>  <origin>  (27) 
autodockgpu

>  <m_score__min__energy>  (27) 
-8.5999999999999996

>  <m_primary>  (27) 
energy

>  <rmsd>  (27) 
8.922073266333804

>  <m_score__min__rmsd>  (27) 
8.922073266333804

>  <meeko>  (27) 
{"free_energy": -7.22, "intermolecular_energy": -9.31, "internal_energy": -1.67, "cluster_size": 1, "cluster_id": 4, "rank_in_cluster": 1}

>  <energy>  (27) 
-6.82

>  <cluster_rmsd>  (27) 
0.76

>  <cluster>  (27) 
5

$$$$

     RDKit          3D

 55 58  0  0  0  0  0  0  0  0999 V2000
  140.4170   77.0830  218.7680 O   0  0  0  0  0  0  0  0  0  0  0  0
  141.6160   77.0000  219.1440 C   0  0  0  0  0  0  0  0  0  0  0  0
  142.2120   78.2670  219.5300 N   0  0  0  0  0  0  0  0  0  0  0  0
  141.3740   79.4110  219.4370 C   0  0  0  0  0  0  0  0  0  0  0  0
  140.3780   79.6700  220.4670 C   0  0  0  0  0  0  0  0  0  0  0  0
  139.1530   79.5530  220.0340 O   0  0  0  0  0  0  0  0  0  0  0  0
  140.4960   80.0200  221.8090 N   0  0  0  0  0  0  0  0  0  0  0  0
  140.5060   81.3580  222.3860 C   0  0  0  0  0  0  0  0  0  0  0  0
  141.7950   81.6370  223.0920 C   0  0  0  0  0  0  0  0  0  0  0  0
  142.3840   80.4660  223.8050 C   0  0  0  0  0  0  0  0  0  0  0  0
  142.1310   79.1150  223.2260 C   0  0  0  0  0  0  0  0  0  0  0  0
  140.6930   78.9850  222.8630 C   0  0  2  0  0  0  0  0  0  0  0  0
  140.1860   77.6730  222.5440 C   0  0  0  0  0  0  0  0  0  0  0  0
  141.0840   76.6530  222.2570 C   0  0  0  0  0  0  0  0  0  0  0  0
  140.6810   75.3630  221.9770 C   0  0  0  0  0  0  0  0  0  0  0  0
  139.3400   75.0340  221.9710 C   0  0  0  0  0  0  0  0  0  0  0  0
  138.8700   73.7560  221.6970 O   0  0  0  0  0  0  0  0  0  0  0  0
  139.6960   72.6050  221.7840 C   0  0  0  0  0  0  0  0  0  0  0  0
  140.7100   72.6390  220.8580 F   0  0  0  0  0  0  0  0  0  0  0  0
  138.9080   71.4850  221.5020 F   0  0  0  0  0  0  0  0  0  0  0  0
  140.1950   72.4260  223.0530 F   0  0  0  0  0  0  0  0  0  0  0  0
  138.4420   76.0410  222.2560 C   0  0  0  0  0  0  0  0  0  0  0  0
  138.8520   77.3290  222.5350 C   0  0  0  0  0  0  0  0  0  0  0  0
  142.3650   75.7590  219.1990 C   0  0  0  0  0  0  0  0  0  0  0  0
  141.8960   74.7000  218.4570 C   0  0  0  0  0  0  0  0  0  0  0  0
  142.6420   73.5220  218.5360 C   0  0  0  0  0  0  0  0  0  0  0  0
  143.7830   73.4560  219.3220 C   0  0  0  0  0  0  0  0  0  0  0  0
  144.5500   72.3180  219.4290 C   0  0  0  0  0  0  0  0  0  0  0  0
  145.6680   72.2940  220.2170 C   0  0  0  0  0  0  0  0  0  0  0  0
  146.0890   73.4080  220.9450 C   0  0  0  0  0  0  0  0  0  0  0  0
  145.3240   74.5500  220.8410 C   0  0  0  0  0  0  0  0  0  0  0  0
  144.1980   74.5600  220.0430 C   0  0  0  0  0  0  0  0  0  0  0  0
  143.4730   75.6900  219.9630 N   0  0  0  0  0  0  0  0  0  0  0  0
  143.2080   78.2750  219.8520 H   0  0  0  0  0  0  0  0  0  0  0  0
  142.0367   80.2885  219.4084 H   0  0  0  0  0  0  0  0  0  0  0  0
  140.7660   79.2068  218.5433 H   0  0  0  0  0  0  0  0  0  0  0  0
  140.3713   82.0960  221.5815 H   0  0  0  0  0  0  0  0  0  0  0  0
  139.6879   81.4260  223.1182 H   0  0  0  0  0  0  0  0  0  0  0  0
  142.5247   81.9863  222.3467 H   0  0  0  0  0  0  0  0  0  0  0  0
  141.5693   82.3879  223.8635 H   0  0  0  0  0  0  0  0  0  0  0  0
  143.4737   80.6128  223.8376 H   0  0  0  0  0  0  0  0  0  0  0  0
  141.8846   80.4515  224.7850 H   0  0  0  0  0  0  0  0  0  0  0  0
  142.7487   78.9817  222.3256 H   0  0  0  0  0  0  0  0  0  0  0  0
  142.3897   78.3463  223.9691 H   0  0  0  0  0  0  0  0  0  0  0  0
  140.0668   79.1510  223.7520 H   0  0  0  0  0  0  0  0  0  0  0  0
  142.1598   76.8826  222.2527 H   0  0  0  0  0  0  0  0  0  0  0  0
  141.4335   74.5914  221.7571 H   0  0  0  0  0  0  0  0  0  0  0  0
  137.3664   75.8108  222.2611 H   0  0  0  0  0  0  0  0  0  0  0  0
  138.0969   78.0980  222.7551 H   0  0  0  0  0  0  0  0  0  0  0  0
  140.9890   74.7763  217.8393 H   0  0  0  0  0  0  0  0  0  0  0  0
  142.3210   72.6362  217.9683 H   0  0  0  0  0  0  0  0  0  0  0  0
  144.2597   71.4146  218.8727 H   0  0  0  0  0  0  0  0  0  0  0  0
  146.2548   71.3657  220.2790 H   0  0  0  0  0  0  0  0  0  0  0  0
  146.9911   73.3760  221.5737 H   0  0  0  0  0  0  0  0  0  0  0  0
  145.6117   75.4555  221.3954 H   0  0  0  0  0  0  0  0  0  0  0  0
  1  2  2  0
  2  3  1  0
  3  4  1  0
  4  5  1  0
  5  6  2  0
  5  7  1  0
  7  8  1  0
  8  9  1  0
  9 10  1  0
 10 11  1  0
 11 12  1  0
 12 13  1  0
 13 14  2  0
 14 15  1  0
 15 16  2  0
 16 17  1  0
 17 18  1  0
 18 19  1  0
 18 20  1  0
 18 21  1  0
 16 22  1  0
 22 23  2  0
  2 24  1  0
 24 25  2  0
 25 26  1  0
 26 27  2  0
 27 28  1  0
 28 29  2  0
 29 30  1  0
 30 31  2  0
 31 32  1  0
 32 33  2  0
 12  7  1  0
 23 13  1  0
 33 24  1  0
 32 27  1  0
  3 34  1  0
  4 35  1  0
  4 36  1  0
  8 37  1  0
  8 38  1  0
  9 39  1  0
  9 40  1  0
 10 41  1  0
 10 42  1  0
 11 43  1  0
 11 44  1  0
 12 45  1  1
 14 46  1  0
 15 47  1  0
 22 48  1  0
 23 49  1  0
 25 50  1  0
 26 51  1  0
 28 52  1  0
 29 53  1  0
 30 54  1  0
 31 55  1  0
M  END
>  <smiles>  (28) 
O=C(NCC(=O)N1CCCCC1c1ccc(OC(F)(F)F)cc1)c1ccc2ccccc2n1

>  <score_type>  (28) 
oracle

>  <origin>  (28) 
autodockgpu

>  <m_score__min__energy>  (28) 
-8.5999999999999996

>  <m_primary>  (28) 
energy

>  <rmsd>  (28) 
7.4707498868523405

>  <m_score__min__rmsd>  (28) 
7.4707498868523405

>  <meeko>  (28) 
{"free_energy": -6.85, "intermolecular_energy": -8.94, "internal_energy": -2.95, "cluster_size": 8, "cluster_id": 7, "rank_in_cluster": 6}

>  <energy>  (28) 
-6.8

>  <cluster_rmsd>  (28) 
0.49

>  <cluster>  (28) 
5

$$$$

     RDKit          3D

 55 58  0  0  0  0  0  0  0  0999 V2000
  141.4500   72.2850  221.4360 O   0  0  0  0  0  0  0  0  0  0  0  0
  140.6490   72.5490  222.3700 C   0  0  0  0  0  0  0  0  0  0  0  0
  140.0830   73.8860  222.3140 N   0  0  0  0  0  0  0  0  0  0  0  0
  140.5020   74.7010  221.2270 C   0  0  0  0  0  0  0  0  0  0  0  0
  141.0830   76.0120  221.4800 C   0  0  0  0  0  0  0  0  0  0  0  0
  140.9550   76.3960  222.7200 O   0  0  0  0  0  0  0  0  0  0  0  0
  141.7360   76.9170  220.6490 N   0  0  0  0  0  0  0  0  0  0  0  0
  141.7280   78.3720  220.7310 C   0  0  0  0  0  0  0  0  0  0  0  0
  141.1440   78.9830  219.4950 C   0  0  0  0  0  0  0  0  0  0  0  0
  141.4700   78.2660  218.2290 C   0  0  0  0  0  0  0  0  0  0  0  0
  141.6600   76.7880  218.3090 C   0  0  0  0  0  0  0  0  0  0  0  0
  142.5260   76.4550  219.4730 C   0  0  2  0  0  0  0  0  0  0  0  0
  143.0540   75.1160  219.5690 C   0  0  0  0  0  0  0  0  0  0  0  0
  144.0790   74.8570  220.4700 C   0  0  0  0  0  0  0  0  0  0  0  0
  144.6140   73.5960  220.6470 C   0  0  0  0  0  0  0  0  0  0  0  0
  144.1380   72.5250  219.9170 C   0  0  0  0  0  0  0  0  0  0  0  0
  144.6330   71.2340  220.0470 O   0  0  0  0  0  0  0  0  0  0  0  0
  143.9110   70.0940  219.6080 C   0  0  0  0  0  0  0  0  0  0  0  0
  143.8400   70.0350  218.2380 F   0  0  0  0  0  0  0  0  0  0  0  0
  142.6020   70.1990  220.0910 F   0  0  0  0  0  0  0  0  0  0  0  0
  144.4280   68.9290  220.1250 F   0  0  0  0  0  0  0  0  0  0  0  0
  143.1200   72.7750  219.0200 C   0  0  0  0  0  0  0  0  0  0  0  0
  142.5910   74.0370  218.8490 C   0  0  0  0  0  0  0  0  0  0  0  0
  140.2980   71.6190  223.4260 C   0  0  0  0  0  0  0  0  0  0  0  0
  139.5980   70.4900  223.0710 C   0  0  0  0  0  0  0  0  0  0  0  0
  139.2770   69.6180  224.1150 C   0  0  0  0  0  0  0  0  0  0  0  0
  139.6570   69.9010  225.4190 C   0  0  0  0  0  0  0  0  0  0  0  0
  139.3640   69.0720  226.4770 C   0  0  0  0  0  0  0  0  0  0  0  0
  139.7570   69.3890  227.7490 C   0  0  0  0  0  0  0  0  0  0  0  0
  140.4670   70.5550  228.0400 C   0  0  0  0  0  0  0  0  0  0  0  0
  140.7630   71.3890  226.9820 C   0  0  0  0  0  0  0  0  0  0  0  0
  140.3610   71.0570  225.7040 C   0  0  0  0  0  0  0  0  0  0  0  0
  140.6640   71.8910  224.6940 N   0  0  0  0  0  0  0  0  0  0  0  0
  139.4100   74.1770  223.0600 H   0  0  0  0  0  0  0  0  0  0  0  0
  141.2534   74.1234  220.6686 H   0  0  0  0  0  0  0  0  0  0  0  0
  139.5596   74.9380  220.7115 H   0  0  0  0  0  0  0  0  0  0  0  0
  141.1278   78.6787  221.6003 H   0  0  0  0  0  0  0  0  0  0  0  0
  142.7665   78.7199  220.8331 H   0  0  0  0  0  0  0  0  0  0  0  0
  140.0498   79.0007  219.6062 H   0  0  0  0  0  0  0  0  0  0  0  0
  141.5875   79.9857  219.4060 H   0  0  0  0  0  0  0  0  0  0  0  0
  140.6498   78.4559  217.5211 H   0  0  0  0  0  0  0  0  0  0  0  0
  142.4508   78.6608  217.9254 H   0  0  0  0  0  0  0  0  0  0  0  0
  140.6817   76.2997  218.4297 H   0  0  0  0  0  0  0  0  0  0  0  0
  142.1394   76.4321  217.3851 H   0  0  0  0  0  0  0  0  0  0  0  0
  143.4947   76.9673  219.3772 H   0  0  0  0  0  0  0  0  0  0  0  0
  144.4807   75.6895  221.0664 H   0  0  0  0  0  0  0  0  0  0  0  0
  145.4249   73.4439  221.3745 H   0  0  0  0  0  0  0  0  0  0  0  0
  142.7183   71.9428  218.4234 H   0  0  0  0  0  0  0  0  0  0  0  0
  141.7803   74.1854  218.1205 H   0  0  0  0  0  0  0  0  0  0  0  0
  139.3085   70.2857  222.0296 H   0  0  0  0  0  0  0  0  0  0  0  0
  138.7163   68.6963  223.9002 H   0  0  0  0  0  0  0  0  0  0  0  0
  138.8059   68.1411  226.2981 H   0  0  0  0  0  0  0  0  0  0  0  0
  139.5048   68.7016  228.5699 H   0  0  0  0  0  0  0  0  0  0  0  0
  140.7766   70.7979  229.0672 H   0  0  0  0  0  0  0  0  0  0  0  0
  141.3207   72.3208  227.1572 H   0  0  0  0  0  0  0  0  0  0  0  0
  1  2  2  0
  2  3  1  0
  3  4  1  0
  4  5  1  0
  5  6  2  0
  5  7  1  0
  7  8  1  0
  8  9  1  0
  9 10  1  0
 10 11  1  0
 11 12  1  0
 12 13  1  0
 13 14  2  0
 14 15  1  0
 15 16  2  0
 16 17  1  0
 17 18  1  0
 18 19  1  0
 18 20  1  0
 18 21  1  0
 16 22  1  0
 22 23  2  0
  2 24  1  0
 24 25  2  0
 25 26  1  0
 26 27  2  0
 27 28  1  0
 28 29  2  0
 29 30  1  0
 30 31  2  0
 31 32  1  0
 32 33  2  0
 12  7  1  0
 23 13  1  0
 33 24  1  0
 32 27  1  0
  3 34  1  0
  4 35  1  0
  4 36  1  0
  8 37  1  0
  8 38  1  0
  9 39  1  0
  9 40  1  0
 10 41  1  0
 10 42  1  0
 11 43  1  0
 11 44  1  0
 12 45  1  6
 14 46  1  0
 15 47  1  0
 22 48  1  0
 23 49  1  0
 25 50  1  0
 26 51  1  0
 28 52  1  0
 29 53  1  0
 30 54  1  0
 31 55  1  0
M  END
>  <smiles>  (29) 
O=C(NCC(=O)N1CCCCC1c1ccc(OC(F)(F)F)cc1)c1ccc2ccccc2n1

>  <score_type>  (29) 
oracle

>  <origin>  (29) 
autodockgpu

>  <m_score__min__energy>  (29) 
-8.5999999999999996

>  <m_primary>  (29) 
energy

>  <rmsd>  (29) 
2.5063000839704377

>  <m_score__min__rmsd>  (29) 
2.5063000839704377

>  <meeko>  (29) 
{"free_energy": -7.45, "intermolecular_energy": -9.54, "internal_energy": -1.99, "cluster_size": 9, "cluster_id": 1, "rank_in_cluster": 9}

>  <energy>  (29) 
-6.8

>  <cluster_rmsd>  (29) 
0.51

>  <cluster>  (29) 
5

$$$$

     RDKit          3D

 55 58  0  0  0  0  0  0  0  0999 V2000
  140.6880   76.9650  218.5470 O   0  0  0  0  0  0  0  0  0  0  0  0
  141.8320   76.8820  219.0670 C   0  0  0  0  0  0  0  0  0  0  0  0
  142.3410   78.1350  219.5990 N   0  0  0  0  0  0  0  0  0  0  0  0
  141.4900   79.2650  219.4670 C   0  0  0  0  0  0  0  0  0  0  0  0
  140.4110   79.4820  220.4210 C   0  0  0  0  0  0  0  0  0  0  0  0
  139.2320   79.2340  219.9230 O   0  0  0  0  0  0  0  0  0  0  0  0
  140.4130   79.9030  221.7470 N   0  0  0  0  0  0  0  0  0  0  0  0
  140.2930   81.2650  222.2520 C   0  0  0  0  0  0  0  0  0  0  0  0
  141.5090   81.6680  223.0260 C   0  0  0  0  0  0  0  0  0  0  0  0
  142.1240   80.5780  223.8370 C   0  0  0  0  0  0  0  0  0  0  0  0
  142.0030   79.1860  223.3150 C   0  0  0  0  0  0  0  0  0  0  0  0
  140.6050   78.9380  222.8660 C   0  0  2  0  0  0  0  0  0  0  0  0
  140.2110   77.5790  222.5840 C   0  0  0  0  0  0  0  0  0  0  0  0
  138.8650   77.2410  222.6390 C   0  0  0  0  0  0  0  0  0  0  0  0
  138.4030   75.9720  222.3490 C   0  0  0  0  0  0  0  0  0  0  0  0
  139.2840   74.9730  221.9880 C   0  0  0  0  0  0  0  0  0  0  0  0
  138.8850   73.6780  221.6850 O   0  0  0  0  0  0  0  0  0  0  0  0
  139.7500   72.5610  221.8240 C   0  0  0  0  0  0  0  0  0  0  0  0
  139.0620   71.3750  221.7490 F   0  0  0  0  0  0  0  0  0  0  0  0
  140.3380   72.6250  223.0920 F   0  0  0  0  0  0  0  0  0  0  0  0
  140.7780   72.5920  220.9110 F   0  0  0  0  0  0  0  0  0  0  0  0
  140.6230   75.3010  221.9310 C   0  0  0  0  0  0  0  0  0  0  0  0
  141.0760   76.5710  222.2220 C   0  0  0  0  0  0  0  0  0  0  0  0
  142.6010   75.6550  219.1450 C   0  0  0  0  0  0  0  0  0  0  0  0
  142.1580   74.5800  218.4100 C   0  0  0  0  0  0  0  0  0  0  0  0
  142.9230   73.4160  218.5100 C   0  0  0  0  0  0  0  0  0  0  0  0
  144.0570   73.3780  219.3100 C   0  0  0  0  0  0  0  0  0  0  0  0
  144.8410   72.2550  219.4380 C   0  0  0  0  0  0  0  0  0  0  0  0
  145.9510   72.2580  220.2380 C   0  0  0  0  0  0  0  0  0  0  0  0
  146.3450   73.3880  220.9580 C   0  0  0  0  0  0  0  0  0  0  0  0
  145.5620   74.5150  220.8320 C   0  0  0  0  0  0  0  0  0  0  0  0
  144.4450   74.4970  220.0220 C   0  0  0  0  0  0  0  0  0  0  0  0
  143.7020   75.6140  219.9210 N   0  0  0  0  0  0  0  0  0  0  0  0
  143.2870   78.1420  220.0450 H   0  0  0  0  0  0  0  0  0  0  0  0
  142.1353   80.1548  219.5103 H   0  0  0  0  0  0  0  0  0  0  0  0
  140.9574   79.0704  218.5244 H   0  0  0  0  0  0  0  0  0  0  0  0
  140.1652   81.9520  221.4025 H   0  0  0  0  0  0  0  0  0  0  0  0
  139.4233   81.3104  222.9240 H   0  0  0  0  0  0  0  0  0  0  0  0
  142.2636   82.0313  222.3129 H   0  0  0  0  0  0  0  0  0  0  0  0
  141.1805   82.4375  223.7401 H   0  0  0  0  0  0  0  0  0  0  0  0
  143.1965   80.8027  223.9336 H   0  0  0  0  0  0  0  0  0  0  0  0
  141.5599   80.5757  224.7813 H   0  0  0  0  0  0  0  0  0  0  0  0
  142.6889   79.0532  222.4654 H   0  0  0  0  0  0  0  0  0  0  0  0
  142.2610   78.4741  224.1129 H   0  0  0  0  0  0  0  0  0  0  0  0
  139.9092   79.1036  223.7018 H   0  0  0  0  0  0  0  0  0  0  0  0
  138.1376   78.0150  222.9250 H   0  0  0  0  0  0  0  0  0  0  0  0
  137.3259   75.7563  222.4062 H   0  0  0  0  0  0  0  0  0  0  0  0
  141.3506   74.5271  221.6451 H   0  0  0  0  0  0  0  0  0  0  0  0
  142.1537   76.7833  222.1634 H   0  0  0  0  0  0  0  0  0  0  0  0
  141.2565   74.6339  217.7820 H   0  0  0  0  0  0  0  0  0  0  0  0
  142.6236   72.5188  217.9484 H   0  0  0  0  0  0  0  0  0  0  0  0
  144.5715   71.3407  218.8889 H   0  0  0  0  0  0  0  0  0  0  0  0
  146.5527   71.3405  220.3167 H   0  0  0  0  0  0  0  0  0  0  0  0
  147.2403   73.3788  221.5971 H   0  0  0  0  0  0  0  0  0  0  0  0
  145.8282   75.4316  221.3787 H   0  0  0  0  0  0  0  0  0  0  0  0
  1  2  2  0
  2  3  1  0
  3  4  1  0
  4  5  1  0
  5  6  2  0
  5  7  1  0
  7  8  1  0
  8  9  1  0
  9 10  1  0
 10 11  1  0
 11 12  1  0
 12 13  1  0
 13 14  2  0
 14 15  1  0
 15 16  2  0
 16 17  1  0
 17 18  1  0
 18 19  1  0
 18 20  1  0
 18 21  1  0
 16 22  1  0
 22 23  2  0
  2 24  1  0
 24 25  2  0
 25 26  1  0
 26 27  2  0
 27 28  1  0
 28 29  2  0
 29 30  1  0
 30 31  2  0
 31 32  1  0
 32 33  2  0
 12  7  1  0
 23 13  1  0
 33 24  1  0
 32 27  1  0
  3 34  1  0
  4 35  1  0
  4 36  1  0
  8 37  1  0
  8 38  1  0
  9 39  1  0
  9 40  1  0
 10 41  1  0
 10 42  1  0
 11 43  1  0
 11 44  1  0
 12 45  1  1
 14 46  1  0
 15 47  1  0
 22 48  1  0
 23 49  1  0
 25 50  1  0
 26 51  1  0
 28 52  1  0
 29 53  1  0
 30 54  1  0
 31 55  1  0
M  END
>  <smiles>  (30) 
O=C(NCC(=O)N1CCCCC1c1ccc(OC(F)(F)F)cc1)c1ccc2ccccc2n1

>  <score_type>  (30) 
oracle

>  <origin>  (30) 
autodockgpu

>  <m_score__min__energy>  (30) 
-8.5999999999999996

>  <m_primary>  (30) 
energy

>  <rmsd>  (30) 
7.484614496416352

>  <m_score__min__rmsd>  (30) 
7.484614496416352

>  <meeko>  (30) 
{"free_energy": -6.88, "intermolecular_energy": -8.96, "internal_energy": -2.85, "cluster_size": 8, "cluster_id": 7, "rank_in_cluster": 4}

>  <energy>  (30) 
-6.79

>  <cluster_rmsd>  (30) 
0.72

>  <cluster>  (30) 
5

$$$$

     RDKit          3D

 55 58  0  0  0  0  0  0  0  0999 V2000
  140.5170   77.0240  218.6140 O   0  0  0  0  0  0  0  0  0  0  0  0
  141.6780   76.9320  219.0940 C   0  0  0  0  0  0  0  0  0  0  0  0
  142.2270   78.1860  219.5780 N   0  0  0  0  0  0  0  0  0  0  0  0
  141.3920   79.3290  219.4510 C   0  0  0  0  0  0  0  0  0  0  0  0
  140.3680   79.5980  220.4510 C   0  0  0  0  0  0  0  0  0  0  0  0
  139.1560   79.4780  219.9860 O   0  0  0  0  0  0  0  0  0  0  0  0
  140.4500   79.9590  221.7920 N   0  0  0  0  0  0  0  0  0  0  0  0
  140.4250   81.3010  222.3600 C   0  0  0  0  0  0  0  0  0  0  0  0
  141.6930   81.6060  223.0940 C   0  0  0  0  0  0  0  0  0  0  0  0
  142.2840   80.4510  223.8280 C   0  0  0  0  0  0  0  0  0  0  0  0
  142.0670   79.0910  223.2530 C   0  0  0  0  0  0  0  0  0  0  0  0
  140.6390   78.9360  222.8590 C   0  0  2  0  0  0  0  0  0  0  0  0
  140.1610   77.6130  222.5380 C   0  0  0  0  0  0  0  0  0  0  0  0
  141.0810   76.6160  222.2380 C   0  0  0  0  0  0  0  0  0  0  0  0
  140.7060   75.3180  221.9560 C   0  0  0  0  0  0  0  0  0  0  0  0
  139.3740   74.9570  221.9600 C   0  0  0  0  0  0  0  0  0  0  0  0
  138.9320   73.6690  221.6840 O   0  0  0  0  0  0  0  0  0  0  0  0
  139.7640   72.5290  221.8380 C   0  0  0  0  0  0  0  0  0  0  0  0
  140.7920   72.5270  220.9280 F   0  0  0  0  0  0  0  0  0  0  0  0
  138.9870   71.3910  221.5950 F   0  0  0  0  0  0  0  0  0  0  0  0
  140.2420   72.4120  223.1220 F   0  0  0  0  0  0  0  0  0  0  0  0
  138.4540   75.9410  222.2570 C   0  0  0  0  0  0  0  0  0  0  0  0
  138.8360   77.2360  222.5390 C   0  0  0  0  0  0  0  0  0  0  0  0
  142.4280   75.6930  219.1710 C   0  0  0  0  0  0  0  0  0  0  0  0
  141.9610   74.6210  218.4480 C   0  0  0  0  0  0  0  0  0  0  0  0
  142.7080   73.4450  218.5470 C   0  0  0  0  0  0  0  0  0  0  0  0
  143.8490   73.3940  219.3350 C   0  0  0  0  0  0  0  0  0  0  0  0
  144.6170   72.2590  219.4620 C   0  0  0  0  0  0  0  0  0  0  0  0
  145.7350   72.2500  220.2510 C   0  0  0  0  0  0  0  0  0  0  0  0
  146.1540   73.3770  220.9600 C   0  0  0  0  0  0  0  0  0  0  0  0
  145.3880   74.5170  220.8350 C   0  0  0  0  0  0  0  0  0  0  0  0
  144.2630   74.5110  220.0360 C   0  0  0  0  0  0  0  0  0  0  0  0
  143.5360   75.6390  219.9360 N   0  0  0  0  0  0  0  0  0  0  0  0
  143.1900   78.1870  219.9880 H   0  0  0  0  0  0  0  0  0  0  0  0
  142.0554   80.2062  219.4320 H   0  0  0  0  0  0  0  0  0  0  0  0
  140.8087   79.1161  218.5431 H   0  0  0  0  0  0  0  0  0  0  0  0
  140.2971   82.0314  221.5475 H   0  0  0  0  0  0  0  0  0  0  0  0
  139.5892   81.3602  223.0727 H   0  0  0  0  0  0  0  0  0  0  0  0
  142.4340   81.9624  222.3633 H   0  0  0  0  0  0  0  0  0  0  0  0
  141.4370   82.3580  223.8549 H   0  0  0  0  0  0  0  0  0  0  0  0
  143.3700   80.6163  223.8847 H   0  0  0  0  0  0  0  0  0  0  0  0
  141.7620   80.4348  224.7961 H   0  0  0  0  0  0  0  0  0  0  0  0
  142.7069   78.9617  222.3677 H   0  0  0  0  0  0  0  0  0  0  0  0
  142.3221   78.3313  224.0065 H   0  0  0  0  0  0  0  0  0  0  0  0
  139.9904   79.0997  223.7322 H   0  0  0  0  0  0  0  0  0  0  0  0
  142.1509   76.8713  222.2247 H   0  0  0  0  0  0  0  0  0  0  0  0
  141.4747   74.5655  221.7263 H   0  0  0  0  0  0  0  0  0  0  0  0
  137.3842   75.6854  222.2693 H   0  0  0  0  0  0  0  0  0  0  0  0
  138.0646   77.9853  222.7701 H   0  0  0  0  0  0  0  0  0  0  0  0
  141.0540   74.6855  217.8290 H   0  0  0  0  0  0  0  0  0  0  0  0
  142.3883   72.5494  217.9942 H   0  0  0  0  0  0  0  0  0  0  0  0
  144.3279   71.3457  218.9213 H   0  0  0  0  0  0  0  0  0  0  0  0
  146.3231   71.3237  220.3291 H   0  0  0  0  0  0  0  0  0  0  0  0
  147.0552   73.3568  221.5905 H   0  0  0  0  0  0  0  0  0  0  0  0
  145.6743   75.4326  221.3732 H   0  0  0  0  0  0  0  0  0  0  0  0
  1  2  2  0
  2  3  1  0
  3  4  1  0
  4  5  1  0
  5  6  2  0
  5  7  1  0
  7  8  1  0
  8  9  1  0
  9 10  1  0
 10 11  1  0
 11 12  1  0
 12 13  1  0
 13 14  2  0
 14 15  1  0
 15 16  2  0
 16 17  1  0
 17 18  1  0
 18 19  1  0
 18 20  1  0
 18 21  1  0
 16 22  1  0
 22 23  2  0
  2 24  1  0
 24 25  2  0
 25 26  1  0
 26 27  2  0
 27 28  1  0
 28 29  2  0
 29 30  1  0
 30 31  2  0
 31 32  1  0
 32 33  2  0
 12  7  1  0
 23 13  1  0
 33 24  1  0
 32 27  1  0
  3 34  1  0
  4 35  1  0
  4 36  1  0
  8 37  1  0
  8 38  1  0
  9 39  1  0
  9 40  1  0
 10 41  1  0
 10 42  1  0
 11 43  1  0
 11 44  1  0
 12 45  1  1
 14 46  1  0
 15 47  1  0
 22 48  1  0
 23 49  1  0
 25 50  1  0
 26 51  1  0
 28 52  1  0
 29 53  1  0
 30 54  1  0
 31 55  1  0
M  END
>  <smiles>  (31) 
O=C(NCC(=O)N1CCCCC1c1ccc(OC(F)(F)F)cc1)c1ccc2ccccc2n1

>  <score_type>  (31) 
oracle

>  <origin>  (31) 
autodockgpu

>  <m_score__min__energy>  (31) 
-8.5999999999999996

>  <m_primary>  (31) 
energy

>  <rmsd>  (31) 
7.44576023280078

>  <m_score__min__rmsd>  (31) 
7.44576023280078

>  <meeko>  (31) 
{"free_energy": -6.88, "intermolecular_energy": -8.97, "internal_energy": -2.95, "cluster_size": 8, "cluster_id": 7, "rank_in_cluster": 3}

>  <energy>  (31) 
-6.79

>  <cluster_rmsd>  (31) 
0.69

>  <cluster>  (31) 
5

$$$$

     RDKit          3D

 55 58  0  0  0  0  0  0  0  0999 V2000
  140.5180   71.5690  221.3070 O   0  0  0  0  0  0  0  0  0  0  0  0
  140.0870   72.0370  222.3930 C   0  0  0  0  0  0  0  0  0  0  0  0
  139.6040   73.4040  222.3060 N   0  0  0  0  0  0  0  0  0  0  0  0
  139.6790   74.0170  221.0260 C   0  0  0  0  0  0  0  0  0  0  0  0
  140.7880   74.9060  220.7070 C   0  0  0  0  0  0  0  0  0  0  0  0
  141.6550   75.0070  221.6750 O   0  0  0  0  0  0  0  0  0  0  0  0
  141.0810   75.6580  219.5740 N   0  0  0  0  0  0  0  0  0  0  0  0
  141.1380   75.2040  218.1900 C   0  0  0  0  0  0  0  0  0  0  0  0
  142.5050   75.3910  217.6110 C   0  0  0  0  0  0  0  0  0  0  0  0
  143.2150   76.6220  218.0670 C   0  0  0  0  0  0  0  0  0  0  0  0
  142.9170   77.1120  219.4450 C   0  0  0  0  0  0  0  0  0  0  0  0
  141.4460   77.0990  219.6750 C   0  0  2  0  0  0  0  0  0  0  0  0
  140.9320   77.7880  220.8340 C   0  0  0  0  0  0  0  0  0  0  0  0
  139.5600   77.8250  221.0450 C   0  0  0  0  0  0  0  0  0  0  0  0
  138.9910   78.4320  222.1470 C   0  0  0  0  0  0  0  0  0  0  0  0
  139.7860   79.0390  223.0990 C   0  0  0  0  0  0  0  0  0  0  0  0
  139.2770   79.6660  224.2280 O   0  0  0  0  0  0  0  0  0  0  0  0
  138.2130   80.6040  224.1650 C   0  0  0  0  0  0  0  0  0  0  0  0
  137.0360   80.0080  223.7850 F   0  0  0  0  0  0  0  0  0  0  0  0
  138.5340   81.5570  223.1920 F   0  0  0  0  0  0  0  0  0  0  0  0
  138.0600   81.2870  225.3490 F   0  0  0  0  0  0  0  0  0  0  0  0
  141.1500   79.0060  222.8970 C   0  0  0  0  0  0  0  0  0  0  0  0
  141.7110   78.3970  221.7930 C   0  0  0  0  0  0  0  0  0  0  0  0
  140.0600   71.2990  223.6410 C   0  0  0  0  0  0  0  0  0  0  0  0
  139.5250   70.0320  223.6180 C   0  0  0  0  0  0  0  0  0  0  0  0
  139.5150   69.3520  224.8390 C   0  0  0  0  0  0  0  0  0  0  0  0
  140.0220   69.9460  225.9860 C   0  0  0  0  0  0  0  0  0  0  0  0
  140.0340   69.3140  227.2080 C   0  0  0  0  0  0  0  0  0  0  0  0
  140.5420   69.9350  228.3170 C   0  0  0  0  0  0  0  0  0  0  0  0
  141.0710   71.2260  228.2690 C   0  0  0  0  0  0  0  0  0  0  0  0
  141.0610   71.8630  227.0460 C   0  0  0  0  0  0  0  0  0  0  0  0
  140.5450   71.2240  225.9360 C   0  0  0  0  0  0  0  0  0  0  0  0
  140.5500   71.8720  224.7570 N   0  0  0  0  0  0  0  0  0  0  0  0
  139.2320   73.8600  223.1710 H   0  0  0  0  0  0  0  0  0  0  0  0
  139.7010   73.2039  220.2855 H   0  0  0  0  0  0  0  0  0  0  0  0
  138.8071   74.6875  221.0158 H   0  0  0  0  0  0  0  0  0  0  0  0
  140.8762   74.1363  218.1523 H   0  0  0  0  0  0  0  0  0  0  0  0
  140.4270   75.8008  217.5999 H   0  0  0  0  0  0  0  0  0  0  0  0
  143.1166   74.5202  217.8896 H   0  0  0  0  0  0  0  0  0  0  0  0
  142.3692   75.4964  216.5245 H   0  0  0  0  0  0  0  0  0  0  0  0
  144.2949   76.4195  218.0144 H   0  0  0  0  0  0  0  0  0  0  0  0
  142.8561   77.4193  217.3995 H   0  0  0  0  0  0  0  0  0  0  0  0
  143.4078   76.4572  220.1801 H   0  0  0  0  0  0  0  0  0  0  0  0
  143.2940   78.1394  219.5558 H   0  0  0  0  0  0  0  0  0  0  0  0
  140.9440   77.7232  218.9210 H   0  0  0  0  0  0  0  0  0  0  0  0
  138.8994   77.3513  220.3039 H   0  0  0  0  0  0  0  0  0  0  0  0
  137.8976   78.4320  222.2673 H   0  0  0  0  0  0  0  0  0  0  0  0
  141.8106   79.4794  223.6383 H   0  0  0  0  0  0  0  0  0  0  0  0
  142.8048   78.3979  221.6762 H   0  0  0  0  0  0  0  0  0  0  0  0
  139.1295   69.5818  222.6956 H   0  0  0  0  0  0  0  0  0  0  0  0
  139.1005   68.3344  224.8913 H   0  0  0  0  0  0  0  0  0  0  0  0
  139.6294   68.2948  227.2951 H   0  0  0  0  0  0  0  0  0  0  0  0
  140.5331   69.3992  229.2776 H   0  0  0  0  0  0  0  0  0  0  0  0
  141.4779   71.7136  229.1671 H   0  0  0  0  0  0  0  0  0  0  0  0
  141.4649   72.8821  226.9545 H   0  0  0  0  0  0  0  0  0  0  0  0
  1  2  2  0
  2  3  1  0
  3  4  1  0
  4  5  1  0
  5  6  2  0
  5  7  1  0
  7  8  1  0
  8  9  1  0
  9 10  1  0
 10 11  1  0
 11 12  1  0
 12 13  1  0
 13 14  2  0
 14 15  1  0
 15 16  2  0
 16 17  1  0
 17 18  1  0
 18 19  1  0
 18 20  1  0
 18 21  1  0
 16 22  1  0
 22 23  2  0
  2 24  1  0
 24 25  2  0
 25 26  1  0
 26 27  2  0
 27 28  1  0
 28 29  2  0
 29 30  1  0
 30 31  2  0
 31 32  1  0
 32 33  2  0
 12  7  1  0
 23 13  1  0
 33 24  1  0
 32 27  1  0
  3 34  1  0
  4 35  1  0
  4 36  1  0
  8 37  1  0
  8 38  1  0
  9 39  1  0
  9 40  1  0
 10 41  1  0
 10 42  1  0
 11 43  1  0
 11 44  1  0
 12 45  1  6
 14 46  1  0
 15 47  1  0
 22 48  1  0
 23 49  1  0
 25 50  1  0
 26 51  1  0
 28 52  1  0
 29 53  1  0
 30 54  1  0
 31 55  1  0
M  END
>  <smiles>  (32) 
O=C(NCC(=O)N1CCCCC1c1ccc(OC(F)(F)F)cc1)c1ccc2ccccc2n1

>  <score_type>  (32) 
oracle

>  <origin>  (32) 
autodockgpu

>  <m_score__min__energy>  (32) 
-8.5999999999999996

>  <m_primary>  (32) 
energy

>  <rmsd>  (32) 
1.681826846868788

>  <m_score__min__rmsd>  (32) 
1.681826846868788

>  <meeko>  (32) 
{"free_energy": -8.0, "intermolecular_energy": -10.09, "internal_energy": -1.59, "cluster_size": 3, "cluster_id": 2, "rank_in_cluster": 3}

>  <energy>  (32) 
-6.78

>  <cluster_rmsd>  (32) 
0.97

>  <cluster>  (32) 
5

$$$$

     RDKit          3D

 55 58  0  0  0  0  0  0  0  0999 V2000
  139.0600   75.0780  221.7020 O   0  0  0  0  0  0  0  0  0  0  0  0
  140.1420   75.6680  221.9590 C   0  0  0  0  0  0  0  0  0  0  0  0
  141.3310   74.8590  221.7480 N   0  0  0  0  0  0  0  0  0  0  0  0
  141.1140   73.5330  221.2840 C   0  0  0  0  0  0  0  0  0  0  0  0
  141.7010   73.0970  220.0240 C   0  0  0  0  0  0  0  0  0  0  0  0
  140.8280   72.5720  219.2100 O   0  0  0  0  0  0  0  0  0  0  0  0
  143.0050   73.1360  219.5420 N   0  0  0  0  0  0  0  0  0  0  0  0
  143.8800   72.0100  219.2400 C   0  0  0  0  0  0  0  0  0  0  0  0
  145.1110   72.0330  220.0900 C   0  0  0  0  0  0  0  0  0  0  0  0
  145.6490   73.3950  220.3750 C   0  0  0  0  0  0  0  0  0  0  0  0
  144.6660   74.5150  220.4600 C   0  0  0  0  0  0  0  0  0  0  0  0
  143.7100   74.4300  219.3210 C   0  0  2  0  0  0  0  0  0  0  0  0
  142.8560   75.5630  219.0620 C   0  0  0  0  0  0  0  0  0  0  0  0
  143.0070   76.7120  219.8280 C   0  0  0  0  0  0  0  0  0  0  0  0
  142.2530   77.8500  219.6210 C   0  0  0  0  0  0  0  0  0  0  0  0
  141.3000   77.8860  218.6230 C   0  0  0  0  0  0  0  0  0  0  0  0
  140.5100   78.9980  218.3640 O   0  0  0  0  0  0  0  0  0  0  0  0
  140.5200   80.1490  219.1930 C   0  0  0  0  0  0  0  0  0  0  0  0
  139.9080   79.9100  220.3990 F   0  0  0  0  0  0  0  0  0  0  0  0
  139.7920   81.1540  218.5470 F   0  0  0  0  0  0  0  0  0  0  0  0
  141.7910   80.6400  219.3750 F   0  0  0  0  0  0  0  0  0  0  0  0
  141.1440   76.7490  217.8580 C   0  0  0  0  0  0  0  0  0  0  0  0
  141.9010   75.6150  218.0710 C   0  0  0  0  0  0  0  0  0  0  0  0
  140.2290   77.0380  222.4250 C   0  0  0  0  0  0  0  0  0  0  0  0
  139.0510   77.6850  222.7180 C   0  0  0  0  0  0  0  0  0  0  0  0
  139.1730   79.0030  223.1640 C   0  0  0  0  0  0  0  0  0  0  0  0
  140.4210   79.5950  223.2940 C   0  0  0  0  0  0  0  0  0  0  0  0
  140.5900   80.8900  223.7300 C   0  0  0  0  0  0  0  0  0  0  0  0
  141.8390   81.4370  223.8440 C   0  0  0  0  0  0  0  0  0  0  0  0
  142.9960   80.7220  223.5300 C   0  0  0  0  0  0  0  0  0  0  0  0
  142.8310   79.4250  223.0920 C   0  0  0  0  0  0  0  0  0  0  0  0
  141.5660   78.8850  222.9820 C   0  0  0  0  0  0  0  0  0  0  0  0
  141.4390   77.6170  222.5520 N   0  0  0  0  0  0  0  0  0  0  0  0
  142.2670   75.2830  221.9430 H   0  0  0  0  0  0  0  0  0  0  0  0
  141.4966   72.8573  222.0632 H   0  0  0  0  0  0  0  0  0  0  0  0
  140.0332   73.5099  221.0808 H   0  0  0  0  0  0  0  0  0  0  0  0
  143.3345   71.0729  219.4252 H   0  0  0  0  0  0  0  0  0  0  0  0
  144.1855   72.0815  218.1857 H   0  0  0  0  0  0  0  0  0  0  0  0
  144.8731   71.5512  221.0499 H   0  0  0  0  0  0  0  0  0  0  0  0
  145.8903   71.5050  219.5208 H   0  0  0  0  0  0  0  0  0  0  0  0
  146.1786   73.3463  221.3379 H   0  0  0  0  0  0  0  0  0  0  0  0
  146.2790   73.6373  219.5065 H   0  0  0  0  0  0  0  0  0  0  0  0
  144.1126   74.4449  221.4081 H   0  0  0  0  0  0  0  0  0  0  0  0
  145.2018   75.4747  220.4157 H   0  0  0  0  0  0  0  0  0  0  0  0
  144.2597   74.4635  218.3688 H   0  0  0  0  0  0  0  0  0  0  0  0
  143.7577   76.7153  220.6320 H   0  0  0  0  0  0  0  0  0  0  0  0
  142.4128   78.7340  220.2558 H   0  0  0  0  0  0  0  0  0  0  0  0
  140.3935   76.7460  217.0538 H   0  0  0  0  0  0  0  0  0  0  0  0
  141.7380   74.7326  217.4348 H   0  0  0  0  0  0  0  0  0  0  0  0
  138.0727   77.1944  222.6078 H   0  0  0  0  0  0  0  0  0  0  0  0
  138.2695   79.5780  223.4150 H   0  0  0  0  0  0  0  0  0  0  0  0
  139.7081   81.4936  223.9905 H   0  0  0  0  0  0  0  0  0  0  0  0
  141.9346   82.4751  224.1949 H   0  0  0  0  0  0  0  0  0  0  0  0
  143.9945   81.1730  223.6276 H   0  0  0  0  0  0  0  0  0  0  0  0
  143.7106   78.8189  222.8294 H   0  0  0  0  0  0  0  0  0  0  0  0
  1  2  2  0
  2  3  1  0
  3  4  1  0
  4  5  1  0
  5  6  2  0
  5  7  1  0
  7  8  1  0
  8  9  1  0
  9 10  1  0
 10 11  1  0
 11 12  1  0
 12 13  1  0
 13 14  2  0
 14 15  1  0
 15 16  2  0
 16 17  1  0
 17 18  1  0
 18 19  1  0
 18 20  1  0
 18 21  1  0
 16 22  1  0
 22 23  2  0
  2 24  1  0
 24 25  2  0
 25 26  1  0
 26 27  2  0
 27 28  1  0
 28 29  2  0
 29 30  1  0
 30 31  2  0
 31 32  1  0
 32 33  2  0
 12  7  1  0
 23 13  1  0
 33 24  1  0
 32 27  1  0
  3 34  1  0
  4 35  1  0
  4 36  1  0
  8 37  1  0
  8 38  1  0
  9 39  1  0
  9 40  1  0
 10 41  1  0
 10 42  1  0
 11 43  1  0
 11 44  1  0
 12 45  1  6
 14 46  1  0
 15 47  1  0
 22 48  1  0
 23 49  1  0
 25 50  1  0
 26 51  1  0
 28 52  1  0
 29 53  1  0
 30 54  1  0
 31 55  1  0
M  END
>  <smiles>  (33) 
O=C(NCC(=O)N1CCCCC1c1ccc(OC(F)(F)F)cc1)c1ccc2ccccc2n1

>  <score_type>  (33) 
oracle

>  <origin>  (33) 
autodockgpu

>  <m_score__min__energy>  (33) 
-8.5999999999999996

>  <m_primary>  (33) 
energy

>  <rmsd>  (33) 
7.57843581532134

>  <m_score__min__rmsd>  (33) 
7.57843581532134

>  <meeko>  (33) 
{"free_energy": -6.79, "intermolecular_energy": -8.88, "internal_energy": -3.15, "cluster_size": 26, "cluster_id": 5, "rank_in_cluster": 15}

>  <energy>  (33) 
-6.77

>  <cluster_rmsd>  (33) 
0.5

>  <cluster>  (33) 
5

$$$$

     RDKit          3D

 55 58  0  0  0  0  0  0  0  0999 V2000
  138.9620   75.4030  221.5110 O   0  0  0  0  0  0  0  0  0  0  0  0
  140.0450   75.9450  221.8520 C   0  0  0  0  0  0  0  0  0  0  0  0
  141.2160   75.1010  221.6900 N   0  0  0  0  0  0  0  0  0  0  0  0
  140.9840   73.7980  221.1720 C   0  0  0  0  0  0  0  0  0  0  0  0
  141.5700   73.4040  219.8980 C   0  0  0  0  0  0  0  0  0  0  0  0
  140.6770   73.1070  218.9960 O   0  0  0  0  0  0  0  0  0  0  0  0
  142.8920   73.2860  219.4790 N   0  0  0  0  0  0  0  0  0  0  0  0
  143.6290   72.0640  219.1830 C   0  0  0  0  0  0  0  0  0  0  0  0
  144.8100   71.9080  220.0900 C   0  0  0  0  0  0  0  0  0  0  0  0
  145.5020   73.1810  220.4420 C   0  0  0  0  0  0  0  0  0  0  0  0
  144.6670   74.4160  220.5150 C   0  0  0  0  0  0  0  0  0  0  0  0
  143.7660   74.4830  219.3310 C   0  0  2  0  0  0  0  0  0  0  0  0
  143.0770   75.7240  219.0680 C   0  0  0  0  0  0  0  0  0  0  0  0
  142.4270   75.8910  217.8530 C   0  0  0  0  0  0  0  0  0  0  0  0
  141.7170   77.0330  217.5390 C   0  0  0  0  0  0  0  0  0  0  0  0
  141.6280   78.0720  218.4430 C   0  0  0  0  0  0  0  0  0  0  0  0
  140.9300   79.2460  218.1900 O   0  0  0  0  0  0  0  0  0  0  0  0
  140.6090   80.1770  219.2110 C   0  0  0  0  0  0  0  0  0  0  0  0
  139.8400   79.6040  220.1950 F   0  0  0  0  0  0  0  0  0  0  0  0
  139.8550   81.2060  218.6370 F   0  0  0  0  0  0  0  0  0  0  0  0
  141.7330   80.7630  219.7430 F   0  0  0  0  0  0  0  0  0  0  0  0
  142.2710   77.9130  219.6530 C   0  0  0  0  0  0  0  0  0  0  0  0
  142.9790   76.7690  219.9590 C   0  0  0  0  0  0  0  0  0  0  0  0
  140.1490   77.2980  222.3660 C   0  0  0  0  0  0  0  0  0  0  0  0
  138.9790   77.9500  222.6810 C   0  0  0  0  0  0  0  0  0  0  0  0
  139.1180   79.2500  223.1720 C   0  0  0  0  0  0  0  0  0  0  0  0
  140.3740   79.8210  223.3220 C   0  0  0  0  0  0  0  0  0  0  0  0
  140.5590   81.0970  223.8020 C   0  0  0  0  0  0  0  0  0  0  0  0
  141.8150   81.6240  223.9350 C   0  0  0  0  0  0  0  0  0  0  0  0
  142.9630   80.9050  223.5960 C   0  0  0  0  0  0  0  0  0  0  0  0
  142.7820   79.6260  223.1140 C   0  0  0  0  0  0  0  0  0  0  0  0
  141.5090   79.1080  222.9860 C   0  0  0  0  0  0  0  0  0  0  0  0
  141.3660   77.8570  222.5120 N   0  0  0  0  0  0  0  0  0  0  0  0
  142.1520   75.4850  221.9550 H   0  0  0  0  0  0  0  0  0  0  0  0
  141.3543   73.0867  221.9250 H   0  0  0  0  0  0  0  0  0  0  0  0
  139.9040   73.7984  220.9633 H   0  0  0  0  0  0  0  0  0  0  0  0
  142.9597   71.2011  219.3145 H   0  0  0  0  0  0  0  0  0  0  0  0
  143.9923   72.1201  218.1463 H   0  0  0  0  0  0  0  0  0  0  0  0
  144.4653   71.4370  221.0224 H   0  0  0  0  0  0  0  0  0  0  0  0
  145.5433   71.2992  219.5408 H   0  0  0  0  0  0  0  0  0  0  0  0
  145.9713   73.0407  221.4269 H   0  0  0  0  0  0  0  0  0  0  0  0
  146.2013   73.3613  219.6123 H   0  0  0  0  0  0  0  0  0  0  0  0
  144.0626   74.3950  221.4338 H   0  0  0  0  0  0  0  0  0  0  0  0
  145.3227   75.2992  220.5245 H   0  0  0  0  0  0  0  0  0  0  0  0
  144.3620   74.4687  218.4065 H   0  0  0  0  0  0  0  0  0  0  0  0
  142.4796   75.0812  217.1104 H   0  0  0  0  0  0  0  0  0  0  0  0
  141.2189   77.1151  216.5617 H   0  0  0  0  0  0  0  0  0  0  0  0
  142.2177   78.7224  220.3960 H   0  0  0  0  0  0  0  0  0  0  0  0
  143.4764   76.6901  220.9369 H   0  0  0  0  0  0  0  0  0  0  0  0
  137.9944   77.4763  222.5539 H   0  0  0  0  0  0  0  0  0  0  0  0
  138.2220   79.8278  223.4428 H   0  0  0  0  0  0  0  0  0  0  0  0
  139.6847   81.7025  224.0830 H   0  0  0  0  0  0  0  0  0  0  0  0
  141.9238   82.6480  224.3218 H   0  0  0  0  0  0  0  0  0  0  0  0
  143.9672   81.3397  223.7085 H   0  0  0  0  0  0  0  0  0  0  0  0
  143.6535   79.0174  222.8310 H   0  0  0  0  0  0  0  0  0  0  0  0
  1  2  2  0
  2  3  1  0
  3  4  1  0
  4  5  1  0
  5  6  2  0
  5  7  1  0
  7  8  1  0
  8  9  1  0
  9 10  1  0
 10 11  1  0
 11 12  1  0
 12 13  1  0
 13 14  2  0
 14 15  1  0
 15 16  2  0
 16 17  1  0
 17 18  1  0
 18 19  1  0
 18 20  1  0
 18 21  1  0
 16 22  1  0
 22 23  2  0
  2 24  1  0
 24 25  2  0
 25 26  1  0
 26 27  2  0
 27 28  1  0
 28 29  2  0
 29 30  1  0
 30 31  2  0
 31 32  1  0
 32 33  2  0
 12  7  1  0
 23 13  1  0
 33 24  1  0
 32 27  1  0
  3 34  1  0
  4 35  1  0
  4 36  1  0
  8 37  1  0
  8 38  1  0
  9 39  1  0
  9 40  1  0
 10 41  1  0
 10 42  1  0
 11 43  1  0
 11 44  1  0
 12 45  1  6
 14 46  1  0
 15 47  1  0
 22 48  1  0
 23 49  1  0
 25 50  1  0
 26 51  1  0
 28 52  1  0
 29 53  1  0
 30 54  1  0
 31 55  1  0
M  END
>  <smiles>  (34) 
O=C(NCC(=O)N1CCCCC1c1ccc(OC(F)(F)F)cc1)c1ccc2ccccc2n1

>  <score_type>  (34) 
oracle

>  <origin>  (34) 
autodockgpu

>  <m_score__min__energy>  (34) 
-8.5999999999999996

>  <m_primary>  (34) 
energy

>  <rmsd>  (34) 
7.665645318635324

>  <m_score__min__rmsd>  (34) 
7.665645318635324

>  <meeko>  (34) 
{"free_energy": -6.76, "intermolecular_energy": -8.84, "internal_energy": -3.07, "cluster_size": 26, "cluster_id": 5, "rank_in_cluster": 20}

>  <energy>  (34) 
-6.76

>  <cluster_rmsd>  (34) 
0.77

>  <cluster>  (34) 
5

$$$$

     RDKit          3D

 55 58  0  0  0  0  0  0  0  0999 V2000
  139.0210   75.1050  221.6970 O   0  0  0  0  0  0  0  0  0  0  0  0
  140.1030   75.7000  221.9440 C   0  0  0  0  0  0  0  0  0  0  0  0
  141.2930   74.8970  221.7240 N   0  0  0  0  0  0  0  0  0  0  0  0
  141.0790   73.5700  221.2630 C   0  0  0  0  0  0  0  0  0  0  0  0
  141.6780   73.1280  220.0100 C   0  0  0  0  0  0  0  0  0  0  0  0
  140.8150   72.5840  219.1970 O   0  0  0  0  0  0  0  0  0  0  0  0
  142.9840   73.1780  219.5350 N   0  0  0  0  0  0  0  0  0  0  0  0
  143.8710   72.0600  219.2410 C   0  0  0  0  0  0  0  0  0  0  0  0
  145.0980   72.0990  220.0970 C   0  0  0  0  0  0  0  0  0  0  0  0
  145.6210   73.4670  220.3790 C   0  0  0  0  0  0  0  0  0  0  0  0
  144.6270   74.5770  220.4540 C   0  0  0  0  0  0  0  0  0  0  0  0
  143.6770   74.4780  219.3110 C   0  0  2  0  0  0  0  0  0  0  0  0
  142.8120   75.6020  219.0440 C   0  0  0  0  0  0  0  0  0  0  0  0
  142.9690   76.7660  219.7850 C   0  0  0  0  0  0  0  0  0  0  0  0
  142.2060   77.8960  219.5680 C   0  0  0  0  0  0  0  0  0  0  0  0
  141.2380   77.9080  218.5850 C   0  0  0  0  0  0  0  0  0  0  0  0
  140.4380   79.0100  218.3160 O   0  0  0  0  0  0  0  0  0  0  0  0
  139.6680   79.6560  219.3190 C   0  0  0  0  0  0  0  0  0  0  0  0
  140.4670   80.2550  220.2630 F   0  0  0  0  0  0  0  0  0  0  0  0
  138.9050   78.6820  219.9730 F   0  0  0  0  0  0  0  0  0  0  0  0
  138.7790   80.5570  218.7830 F   0  0  0  0  0  0  0  0  0  0  0  0
  141.0760   76.7550  217.8440 C   0  0  0  0  0  0  0  0  0  0  0  0
  141.8420   75.6300  218.0670 C   0  0  0  0  0  0  0  0  0  0  0  0
  140.1870   77.0720  222.4090 C   0  0  0  0  0  0  0  0  0  0  0  0
  139.0070   77.7190  222.6950 C   0  0  0  0  0  0  0  0  0  0  0  0
  139.1270   79.0380  223.1400 C   0  0  0  0  0  0  0  0  0  0  0  0
  140.3740   79.6310  223.2740 C   0  0  0  0  0  0  0  0  0  0  0  0
  140.5400   80.9250  223.7090 C   0  0  0  0  0  0  0  0  0  0  0  0
  141.7890   81.4740  223.8270 C   0  0  0  0  0  0  0  0  0  0  0  0
  142.9470   80.7590  223.5190 C   0  0  0  0  0  0  0  0  0  0  0  0
  142.7850   79.4610  223.0830 C   0  0  0  0  0  0  0  0  0  0  0  0
  141.5200   78.9210  222.9680 C   0  0  0  0  0  0  0  0  0  0  0  0
  141.3960   77.6510  222.5400 N   0  0  0  0  0  0  0  0  0  0  0  0
  142.2290   75.3260  221.9100 H   0  0  0  0  0  0  0  0  0  0  0  0
  141.4530   72.8968  222.0485 H   0  0  0  0  0  0  0  0  0  0  0  0
  140.0002   73.5477  221.0491 H   0  0  0  0  0  0  0  0  0  0  0  0
  143.3341   71.1182  219.4272 H   0  0  0  0  0  0  0  0  0  0  0  0
  144.1804   72.1302  218.1877 H   0  0  0  0  0  0  0  0  0  0  0  0
  144.8604   71.6188  221.0577 H   0  0  0  0  0  0  0  0  0  0  0  0
  145.8852   71.5767  219.5335 H   0  0  0  0  0  0  0  0  0  0  0  0
  146.1459   73.4276  221.3449 H   0  0  0  0  0  0  0  0  0  0  0  0
  146.2533   73.7119  219.5129 H   0  0  0  0  0  0  0  0  0  0  0  0
  144.0699   74.5057  221.3998 H   0  0  0  0  0  0  0  0  0  0  0  0
  145.1537   75.5416  220.4075 H   0  0  0  0  0  0  0  0  0  0  0  0
  144.2303   74.5132  218.3609 H   0  0  0  0  0  0  0  0  0  0  0  0
  143.7321   76.7886  220.5769 H   0  0  0  0  0  0  0  0  0  0  0  0
  142.3710   78.7929  220.1831 H   0  0  0  0  0  0  0  0  0  0  0  0
  140.3131   76.7326  217.0518 H   0  0  0  0  0  0  0  0  0  0  0  0
  141.6743   74.7347  217.4504 H   0  0  0  0  0  0  0  0  0  0  0  0
  138.0293   77.2281  222.5804 H   0  0  0  0  0  0  0  0  0  0  0  0
  138.2223   79.6129  223.3869 H   0  0  0  0  0  0  0  0  0  0  0  0
  139.6565   81.5279  223.9659 H   0  0  0  0  0  0  0  0  0  0  0  0
  141.8825   82.5129  224.1761 H   0  0  0  0  0  0  0  0  0  0  0  0
  143.9449   81.2108  223.6196 H   0  0  0  0  0  0  0  0  0  0  0  0
  143.6660   78.8544  222.8262 H   0  0  0  0  0  0  0  0  0  0  0  0
  1  2  2  0
  2  3  1  0
  3  4  1  0
  4  5  1  0
  5  6  2  0
  5  7  1  0
  7  8  1  0
  8  9  1  0
  9 10  1  0
 10 11  1  0
 11 12  1  0
 12 13  1  0
 13 14  2  0
 14 15  1  0
 15 16  2  0
 16 17  1  0
 17 18  1  0
 18 19  1  0
 18 20  1  0
 18 21  1  0
 16 22  1  0
 22 23  2  0
  2 24  1  0
 24 25  2  0
 25 26  1  0
 26 27  2  0
 27 28  1  0
 28 29  2  0
 29 30  1  0
 30 31  2  0
 31 32  1  0
 32 33  2  0
 12  7  1  0
 23 13  1  0
 33 24  1  0
 32 27  1  0
  3 34  1  0
  4 35  1  0
  4 36  1  0
  8 37  1  0
  8 38  1  0
  9 39  1  0
  9 40  1  0
 10 41  1  0
 10 42  1  0
 11 43  1  0
 11 44  1  0
 12 45  1  6
 14 46  1  0
 15 47  1  0
 22 48  1  0
 23 49  1  0
 25 50  1  0
 26 51  1  0
 28 52  1  0
 29 53  1  0
 30 54  1  0
 31 55  1  0
M  END
>  <smiles>  (35) 
O=C(NCC(=O)N1CCCCC1c1ccc(OC(F)(F)F)cc1)c1ccc2ccccc2n1

>  <score_type>  (35) 
oracle

>  <origin>  (35) 
autodockgpu

>  <m_score__min__energy>  (35) 
-8.5999999999999996

>  <m_primary>  (35) 
energy

>  <rmsd>  (35) 
7.5842730911206315

>  <m_score__min__rmsd>  (35) 
7.5842730911206315

>  <meeko>  (35) 
{"free_energy": -6.68, "intermolecular_energy": -8.77, "internal_energy": -3.24, "cluster_size": 26, "cluster_id": 5, "rank_in_cluster": 25}

>  <energy>  (35) 
-6.76

>  <cluster_rmsd>  (35) 
0.61

>  <cluster>  (35) 
5

$$$$

     RDKit          3D

 55 58  0  0  0  0  0  0  0  0999 V2000
  139.1450   75.1690  221.4090 O   0  0  0  0  0  0  0  0  0  0  0  0
  140.2030   75.7380  221.7840 C   0  0  0  0  0  0  0  0  0  0  0  0
  141.3980   74.9210  221.6640 N   0  0  0  0  0  0  0  0  0  0  0  0
  141.2140   73.6110  221.1430 C   0  0  0  0  0  0  0  0  0  0  0  0
  141.6720   73.2910  219.7980 C   0  0  0  0  0  0  0  0  0  0  0  0
  140.7040   73.2590  218.9240 O   0  0  0  0  0  0  0  0  0  0  0  0
  142.9350   73.0140  219.2860 N   0  0  0  0  0  0  0  0  0  0  0  0
  143.4880   71.7140  218.9280 C   0  0  0  0  0  0  0  0  0  0  0  0
  144.6980   71.3930  219.7490 C   0  0  0  0  0  0  0  0  0  0  0  0
  145.5700   72.5620  220.0620 C   0  0  0  0  0  0  0  0  0  0  0  0
  144.9070   73.8910  220.2040 C   0  0  0  0  0  0  0  0  0  0  0  0
  143.9430   74.0930  219.0860 C   0  0  2  0  0  0  0  0  0  0  0  0
  143.4020   75.4150  218.8830 C   0  0  0  0  0  0  0  0  0  0  0  0
  143.1000   75.8310  217.5930 C   0  0  0  0  0  0  0  0  0  0  0  0
  142.5480   77.0660  217.3190 C   0  0  0  0  0  0  0  0  0  0  0  0
  142.2710   77.9510  218.3410 C   0  0  0  0  0  0  0  0  0  0  0  0
  141.7170   79.2070  218.1320 O   0  0  0  0  0  0  0  0  0  0  0  0
  141.2160   80.0050  219.1940 C   0  0  0  0  0  0  0  0  0  0  0  0
  142.2120   80.3720  220.0660 F   0  0  0  0  0  0  0  0  0  0  0  0
  140.2920   79.2380  219.9120 F   0  0  0  0  0  0  0  0  0  0  0  0
  140.5360   81.1070  218.7310 F   0  0  0  0  0  0  0  0  0  0  0  0
  142.5680   77.5450  219.6260 C   0  0  0  0  0  0  0  0  0  0  0  0
  143.1200   76.3090  219.8920 C   0  0  0  0  0  0  0  0  0  0  0  0
  140.2570   77.0940  222.2960 C   0  0  0  0  0  0  0  0  0  0  0  0
  139.0640   77.7070  222.5990 C   0  0  0  0  0  0  0  0  0  0  0  0
  139.1550   79.0120  223.0900 C   0  0  0  0  0  0  0  0  0  0  0  0
  140.3900   79.6240  223.2500 C   0  0  0  0  0  0  0  0  0  0  0  0
  140.5280   80.9070  223.7300 C   0  0  0  0  0  0  0  0  0  0  0  0
  141.7650   81.4750  223.8730 C   0  0  0  0  0  0  0  0  0  0  0  0
  142.9390   80.7940  223.5450 C   0  0  0  0  0  0  0  0  0  0  0  0
  142.8040   79.5090  223.0640 C   0  0  0  0  0  0  0  0  0  0  0  0
  141.5510   78.9490  222.9250 C   0  0  0  0  0  0  0  0  0  0  0  0
  141.4540   77.6930  222.4530 N   0  0  0  0  0  0  0  0  0  0  0  0
  142.3150   75.3280  221.9590 H   0  0  0  0  0  0  0  0  0  0  0  0
  141.7311   72.9218  221.8268 H   0  0  0  0  0  0  0  0  0  0  0  0
  140.1204   73.5211  221.0657 H   0  0  0  0  0  0  0  0  0  0  0  0
  142.7243   70.9407  219.0977 H   0  0  0  0  0  0  0  0  0  0  0  0
  143.7844   71.7424  217.8691 H   0  0  0  0  0  0  0  0  0  0  0  0
  144.3600   70.9541  220.6993 H   0  0  0  0  0  0  0  0  0  0  0  0
  145.3079   70.7047  219.1454 H   0  0  0  0  0  0  0  0  0  0  0  0
  146.0843   72.3462  221.0101 H   0  0  0  0  0  0  0  0  0  0  0  0
  146.2278   72.6664  219.1865 H   0  0  0  0  0  0  0  0  0  0  0  0
  144.3689   73.9307  221.1625 H   0  0  0  0  0  0  0  0  0  0  0  0
  145.6694   74.6835  220.1755 H   0  0  0  0  0  0  0  0  0  0  0  0
  144.4673   74.0196  218.1218 H   0  0  0  0  0  0  0  0  0  0  0  0
  143.3091   75.1488  216.7558 H   0  0  0  0  0  0  0  0  0  0  0  0
  142.3273   77.3468  216.2786 H   0  0  0  0  0  0  0  0  0  0  0  0
  142.3584   78.2272  220.4631 H   0  0  0  0  0  0  0  0  0  0  0  0
  143.3399   76.0312  220.9334 H   0  0  0  0  0  0  0  0  0  0  0  0
  138.0969   77.2008  222.4631 H   0  0  0  0  0  0  0  0  0  0  0  0
  138.2380   79.5599  223.3524 H   0  0  0  0  0  0  0  0  0  0  0  0
  139.6317   81.4835  224.0023 H   0  0  0  0  0  0  0  0  0  0  0  0
  141.8367   82.5024  224.2593 H   0  0  0  0  0  0  0  0  0  0  0  0
  143.9273   81.2618  223.6650 H   0  0  0  0  0  0  0  0  0  0  0  0
  143.6976   78.9289  222.7904 H   0  0  0  0  0  0  0  0  0  0  0  0
  1  2  2  0
  2  3  1  0
  3  4  1  0
  4  5  1  0
  5  6  2  0
  5  7  1  0
  7  8  1  0
  8  9  1  0
  9 10  1  0
 10 11  1  0
 11 12  1  0
 12 13  1  0
 13 14  2  0
 14 15  1  0
 15 16  2  0
 16 17  1  0
 17 18  1  0
 18 19  1  0
 18 20  1  0
 18 21  1  0
 16 22  1  0
 22 23  2  0
  2 24  1  0
 24 25  2  0
 25 26  1  0
 26 27  2  0
 27 28  1  0
 28 29  2  0
 29 30  1  0
 30 31  2  0
 31 32  1  0
 32 33  2  0
 12  7  1  0
 23 13  1  0
 33 24  1  0
 32 27  1  0
  3 34  1  0
  4 35  1  0
  4 36  1  0
  8 37  1  0
  8 38  1  0
  9 39  1  0
  9 40  1  0
 10 41  1  0
 10 42  1  0
 11 43  1  0
 11 44  1  0
 12 45  1  6
 14 46  1  0
 15 47  1  0
 22 48  1  0
 23 49  1  0
 25 50  1  0
 26 51  1  0
 28 52  1  0
 29 53  1  0
 30 54  1  0
 31 55  1  0
M  END
>  <smiles>  (36) 
O=C(NCC(=O)N1CCCCC1c1ccc(OC(F)(F)F)cc1)c1ccc2ccccc2n1

>  <score_type>  (36) 
oracle

>  <origin>  (36) 
autodockgpu

>  <m_score__min__energy>  (36) 
-8.5999999999999996

>  <m_primary>  (36) 
energy

>  <rmsd>  (36) 
7.633424371873458

>  <m_score__min__rmsd>  (36) 
7.633424371873458

>  <meeko>  (36) 
{"free_energy": -6.94, "intermolecular_energy": -9.03, "internal_energy": -2.88, "cluster_size": 26, "cluster_id": 5, "rank_in_cluster": 5}

>  <energy>  (36) 
-6.72

>  <cluster_rmsd>  (36) 
0.57

>  <cluster>  (36) 
5

$$$$

     RDKit          3D

 55 58  0  0  0  0  0  0  0  0999 V2000
  139.0310   75.1130  221.7290 O   0  0  0  0  0  0  0  0  0  0  0  0
  140.1110   75.7170  221.9630 C   0  0  0  0  0  0  0  0  0  0  0  0
  141.3030   74.9120  221.7630 N   0  0  0  0  0  0  0  0  0  0  0  0
  141.0930   73.5740  221.3320 C   0  0  0  0  0  0  0  0  0  0  0  0
  141.6650   73.1150  220.0730 C   0  0  0  0  0  0  0  0  0  0  0  0
  140.7850   72.5640  219.2840 O   0  0  0  0  0  0  0  0  0  0  0  0
  142.9610   73.1560  219.5700 N   0  0  0  0  0  0  0  0  0  0  0  0
  143.8280   72.0320  219.2410 C   0  0  0  0  0  0  0  0  0  0  0  0
  145.0730   72.0440  220.0700 C   0  0  0  0  0  0  0  0  0  0  0  0
  145.6190   73.4010  220.3600 C   0  0  0  0  0  0  0  0  0  0  0  0
  144.6400   74.5220  220.4730 C   0  0  0  0  0  0  0  0  0  0  0  0
  143.6650   74.4510  219.3490 C   0  0  2  0  0  0  0  0  0  0  0  0
  142.8090   75.5890  219.1180 C   0  0  0  0  0  0  0  0  0  0  0  0
  143.0110   76.7480  219.8550 C   0  0  0  0  0  0  0  0  0  0  0  0
  142.2590   77.8900  219.6690 C   0  0  0  0  0  0  0  0  0  0  0  0
  141.2550   77.9200  218.7220 C   0  0  0  0  0  0  0  0  0  0  0  0
  140.4630   79.0360  218.4860 O   0  0  0  0  0  0  0  0  0  0  0  0
  140.7950   80.3250  218.9800 C   0  0  0  0  0  0  0  0  0  0  0  0
  140.6280   80.4030  220.3410 F   0  0  0  0  0  0  0  0  0  0  0  0
  139.9230   81.2500  218.3970 F   0  0  0  0  0  0  0  0  0  0  0  0
  142.0670   80.7010  218.6180 F   0  0  0  0  0  0  0  0  0  0  0  0
  141.0480   76.7730  217.9840 C   0  0  0  0  0  0  0  0  0  0  0  0
  141.8040   75.6350  218.1770 C   0  0  0  0  0  0  0  0  0  0  0  0
  140.1910   77.0990  222.3970 C   0  0  0  0  0  0  0  0  0  0  0  0
  139.0080   77.7630  222.6240 C   0  0  0  0  0  0  0  0  0  0  0  0
  139.1240   79.0910  223.0400 C   0  0  0  0  0  0  0  0  0  0  0  0
  140.3710   79.6770  223.2050 C   0  0  0  0  0  0  0  0  0  0  0  0
  140.5340   80.9800  223.6130 C   0  0  0  0  0  0  0  0  0  0  0  0
  141.7820   81.5210  223.7630 C   0  0  0  0  0  0  0  0  0  0  0  0
  142.9440   80.7880  223.5150 C   0  0  0  0  0  0  0  0  0  0  0  0
  142.7860   79.4810  223.1060 C   0  0  0  0  0  0  0  0  0  0  0  0
  141.5210   78.9490  222.9580 C   0  0  0  0  0  0  0  0  0  0  0  0
  141.4000   77.6710  222.5580 N   0  0  0  0  0  0  0  0  0  0  0  0
  142.2380   75.3470  221.9410 H   0  0  0  0  0  0  0  0  0  0  0  0
  141.4945   72.9200  222.1201 H   0  0  0  0  0  0  0  0  0  0  0  0
  140.0096   73.5359  221.1458 H   0  0  0  0  0  0  0  0  0  0  0  0
  143.2839   71.0940  219.4255 H   0  0  0  0  0  0  0  0  0  0  0  0
  144.1154   72.1140  218.1824 H   0  0  0  0  0  0  0  0  0  0  0  0
  144.8503   71.5528  221.0287 H   0  0  0  0  0  0  0  0  0  0  0  0
  145.8413   71.5206  219.4819 H   0  0  0  0  0  0  0  0  0  0  0  0
  146.1645   73.3411  221.3133 H   0  0  0  0  0  0  0  0  0  0  0  0
  146.2354   73.6510  219.4839 H   0  0  0  0  0  0  0  0  0  0  0  0
  144.1022   74.4430  221.4293 H   0  0  0  0  0  0  0  0  0  0  0  0
  145.1771   75.4810  220.4299 H   0  0  0  0  0  0  0  0  0  0  0  0
  144.1974   74.4929  218.3873 H   0  0  0  0  0  0  0  0  0  0  0  0
  143.8029   76.7564  220.6184 H   0  0  0  0  0  0  0  0  0  0  0  0
  142.4609   78.7825  220.2795 H   0  0  0  0  0  0  0  0  0  0  0  0
  140.2572   76.7654  217.2194 H   0  0  0  0  0  0  0  0  0  0  0  0
  141.5995   74.7439  217.5653 H   0  0  0  0  0  0  0  0  0  0  0  0
  138.0305   77.2777  222.4863 H   0  0  0  0  0  0  0  0  0  0  0  0
  138.2162   79.6795  223.2392 H   0  0  0  0  0  0  0  0  0  0  0  0
  139.6476   81.5969  223.8220 H   0  0  0  0  0  0  0  0  0  0  0  0
  141.8726   82.5675  224.0896 H   0  0  0  0  0  0  0  0  0  0  0  0
  143.9418   81.2337  223.6404 H   0  0  0  0  0  0  0  0  0  0  0  0
  143.6701   78.8607  222.8971 H   0  0  0  0  0  0  0  0  0  0  0  0
  1  2  2  0
  2  3  1  0
  3  4  1  0
  4  5  1  0
  5  6  2  0
  5  7  1  0
  7  8  1  0
  8  9  1  0
  9 10  1  0
 10 11  1  0
 11 12  1  0
 12 13  1  0
 13 14  2  0
 14 15  1  0
 15 16  2  0
 16 17  1  0
 17 18  1  0
 18 19  1  0
 18 20  1  0
 18 21  1  0
 16 22  1  0
 22 23  2  0
  2 24  1  0
 24 25  2  0
 25 26  1  0
 26 27  2  0
 27 28  1  0
 28 29  2  0
 29 30  1  0
 30 31  2  0
 31 32  1  0
 32 33  2  0
 12  7  1  0
 23 13  1  0
 33 24  1  0
 32 27  1  0
  3 34  1  0
  4 35  1  0
  4 36  1  0
  8 37  1  0
  8 38  1  0
  9 39  1  0
  9 40  1  0
 10 41  1  0
 10 42  1  0
 11 43  1  0
 11 44  1  0
 12 45  1  6
 14 46  1  0
 15 47  1  0
 22 48  1  0
 23 49  1  0
 25 50  1  0
 26 51  1  0
 28 52  1  0
 29 53  1  0
 30 54  1  0
 31 55  1  0
M  END
>  <smiles>  (37) 
O=C(NCC(=O)N1CCCCC1c1ccc(OC(F)(F)F)cc1)c1ccc2ccccc2n1

>  <score_type>  (37) 
oracle

>  <origin>  (37) 
autodockgpu

>  <m_score__min__energy>  (37) 
-8.5999999999999996

>  <m_primary>  (37) 
energy

>  <rmsd>  (37) 
7.611946281129447

>  <m_score__min__rmsd>  (37) 
7.611946281129447

>  <meeko>  (37) 
{"free_energy": -6.79, "intermolecular_energy": -8.88, "internal_energy": -3.14, "cluster_size": 26, "cluster_id": 5, "rank_in_cluster": 16}

>  <energy>  (37) 
-6.71

>  <cluster_rmsd>  (37) 
0.74

>  <cluster>  (37) 
5

$$$$

     RDKit          3D

 55 58  0  0  0  0  0  0  0  0999 V2000
  139.0260   70.9420  221.3790 O   0  0  0  0  0  0  0  0  0  0  0  0
  139.7550   71.4910  222.2470 C   0  0  0  0  0  0  0  0  0  0  0  0
  140.4290   72.6940  221.7890 N   0  0  0  0  0  0  0  0  0  0  0  0
  140.1740   73.0850  220.4470 C   0  0  0  0  0  0  0  0  0  0  0  0
  140.5340   74.4230  219.9960 C   0  0  0  0  0  0  0  0  0  0  0  0
  140.3000   74.6140  218.7280 O   0  0  0  0  0  0  0  0  0  0  0  0
  141.0780   75.5150  220.6650 N   0  0  0  0  0  0  0  0  0  0  0  0
  140.4290   76.3750  221.6460 C   0  0  0  0  0  0  0  0  0  0  0  0
  140.3690   77.7930  221.1710 C   0  0  0  0  0  0  0  0  0  0  0  0
  141.5590   78.2430  220.3920 C   0  0  0  0  0  0  0  0  0  0  0  0
  142.2710   77.2160  219.5770 C   0  0  0  0  0  0  0  0  0  0  0  0
  142.4660   75.9800  220.3850 C   0  0  2  0  0  0  0  0  0  0  0  0
  143.3670   74.9720  219.8830 C   0  0  0  0  0  0  0  0  0  0  0  0
  144.0130   74.1340  220.7830 C   0  0  0  0  0  0  0  0  0  0  0  0
  144.8630   73.1230  220.3810 C   0  0  0  0  0  0  0  0  0  0  0  0
  145.1060   72.9060  219.0390 C   0  0  0  0  0  0  0  0  0  0  0  0
  145.9490   71.9070  218.5700 O   0  0  0  0  0  0  0  0  0  0  0  0
  145.6420   70.5270  218.6990 C   0  0  0  0  0  0  0  0  0  0  0  0
  146.6620   69.8360  219.3050 F   0  0  0  0  0  0  0  0  0  0  0  0
  145.4820   69.9980  217.4140 F   0  0  0  0  0  0  0  0  0  0  0  0
  144.4520   70.3260  219.3570 F   0  0  0  0  0  0  0  0  0  0  0  0
  144.4680   73.7340  218.1390 C   0  0  0  0  0  0  0  0  0  0  0  0
  143.6210   74.7420  218.5490 C   0  0  0  0  0  0  0  0  0  0  0  0
  139.9280   70.9900  223.5970 C   0  0  0  0  0  0  0  0  0  0  0  0
  139.5100   69.7050  223.8560 C   0  0  0  0  0  0  0  0  0  0  0  0
  139.6910   69.2570  225.1670 C   0  0  0  0  0  0  0  0  0  0  0  0
  140.2620   70.0820  226.1250 C   0  0  0  0  0  0  0  0  0  0  0  0
  140.4620   69.6830  227.4270 C   0  0  0  0  0  0  0  0  0  0  0  0
  141.0280   70.5270  228.3430 C   0  0  0  0  0  0  0  0  0  0  0  0
  141.4310   71.8220  228.0120 C   0  0  0  0  0  0  0  0  0  0  0  0
  141.2340   72.2250  226.7080 C   0  0  0  0  0  0  0  0  0  0  0  0
  140.6610   71.3640  225.7950 C   0  0  0  0  0  0  0  0  0  0  0  0
  140.4810   71.7870  224.5310 N   0  0  0  0  0  0  0  0  0  0  0  0
  141.0540   73.2030  222.4560 H   0  0  0  0  0  0  0  0  0  0  0  0
  140.7144   72.3766  219.8019 H   0  0  0  0  0  0  0  0  0  0  0  0
  139.0755   73.0862  220.3889 H   0  0  0  0  0  0  0  0  0  0  0  0
  139.4054   76.0116  221.8195 H   0  0  0  0  0  0  0  0  0  0  0  0
  141.0156   76.3449  222.5761 H   0  0  0  0  0  0  0  0  0  0  0  0
  139.4804   77.9025  220.5320 H   0  0  0  0  0  0  0  0  0  0  0  0
  140.3346   78.4206  222.0737 H   0  0  0  0  0  0  0  0  0  0  0  0
  141.2248   79.0356  219.7063 H   0  0  0  0  0  0  0  0  0  0  0  0
  142.2904   78.5587  221.1505 H   0  0  0  0  0  0  0  0  0  0  0  0
  141.6733   76.9788  218.6845 H   0  0  0  0  0  0  0  0  0  0  0  0
  143.2516   77.6096  219.2712 H   0  0  0  0  0  0  0  0  0  0  0  0
  143.0340   76.2152  221.2972 H   0  0  0  0  0  0  0  0  0  0  0  0
  143.8404   74.2818  221.8593 H   0  0  0  0  0  0  0  0  0  0  0  0
  145.3498   72.4863  221.1345 H   0  0  0  0  0  0  0  0  0  0  0  0
  144.6399   73.5859  217.0627 H   0  0  0  0  0  0  0  0  0  0  0  0
  143.1368   75.3774  217.7928 H   0  0  0  0  0  0  0  0  0  0  0  0
  139.0609   69.0694  223.0787 H   0  0  0  0  0  0  0  0  0  0  0  0
  139.3774   68.2393  225.4424 H   0  0  0  0  0  0  0  0  0  0  0  0
  140.1624   68.6706  227.7356 H   0  0  0  0  0  0  0  0  0  0  0  0
  141.1703   70.1734  229.3749 H   0  0  0  0  0  0  0  0  0  0  0  0
  141.8853   72.4908  228.7578 H   0  0  0  0  0  0  0  0  0  0  0  0
  141.5346   73.2358  226.3949 H   0  0  0  0  0  0  0  0  0  0  0  0
  1  2  2  0
  2  3  1  0
  3  4  1  0
  4  5  1  0
  5  6  2  0
  5  7  1  0
  7  8  1  0
  8  9  1  0
  9 10  1  0
 10 11  1  0
 11 12  1  0
 12 13  1  0
 13 14  2  0
 14 15  1  0
 15 16  2  0
 16 17  1  0
 17 18  1  0
 18 19  1  0
 18 20  1  0
 18 21  1  0
 16 22  1  0
 22 23  2  0
  2 24  1  0
 24 25  2  0
 25 26  1  0
 26 27  2  0
 27 28  1  0
 28 29  2  0
 29 30  1  0
 30 31  2  0
 31 32  1  0
 32 33  2  0
 12  7  1  0
 23 13  1  0
 33 24  1  0
 32 27  1  0
  3 34  1  0
  4 35  1  0
  4 36  1  0
  8 37  1  0
  8 38  1  0
  9 39  1  0
  9 40  1  0
 10 41  1  0
 10 42  1  0
 11 43  1  0
 11 44  1  0
 12 45  1  1
 14 46  1  0
 15 47  1  0
 22 48  1  0
 23 49  1  0
 25 50  1  0
 26 51  1  0
 28 52  1  0
 29 53  1  0
 30 54  1  0
 31 55  1  0
M  END
>  <smiles>  (38) 
O=C(NCC(=O)N1CCCCC1c1ccc(OC(F)(F)F)cc1)c1ccc2ccccc2n1

>  <score_type>  (38) 
oracle

>  <origin>  (38) 
autodockgpu

>  <m_score__min__energy>  (38) 
-8.5999999999999996

>  <m_primary>  (38) 
energy

>  <rmsd>  (38) 
2.371972797564351

>  <m_score__min__rmsd>  (38) 
2.371972797564351

>  <meeko>  (38) 
{"free_energy": -7.66, "intermolecular_energy": -9.75, "internal_energy": -1.84, "cluster_size": 9, "cluster_id": 1, "rank_in_cluster": 6}

>  <energy>  (38) 
-6.7

>  <cluster_rmsd>  (38) 
0.95

>  <cluster>  (38) 
5

$$$$

     RDKit          3D

 55 58  0  0  0  0  0  0  0  0999 V2000
  139.1100   75.0930  221.6590 O   0  0  0  0  0  0  0  0  0  0  0  0
  140.1790   75.7200  221.8750 C   0  0  0  0  0  0  0  0  0  0  0  0
  141.3860   74.9600  221.5980 N   0  0  0  0  0  0  0  0  0  0  0  0
  141.1990   73.6340  221.1240 C   0  0  0  0  0  0  0  0  0  0  0  0
  141.8210   73.2110  219.8770 C   0  0  0  0  0  0  0  0  0  0  0  0
  140.9630   72.7490  219.0100 O   0  0  0  0  0  0  0  0  0  0  0  0
  143.1450   73.2080  219.4520 N   0  0  0  0  0  0  0  0  0  0  0  0
  143.9880   72.0550  219.1620 C   0  0  0  0  0  0  0  0  0  0  0  0
  145.1820   72.0130  220.0640 C   0  0  0  0  0  0  0  0  0  0  0  0
  145.7590   73.3460  220.4010 C   0  0  0  0  0  0  0  0  0  0  0  0
  144.8170   74.5020  220.4680 C   0  0  0  0  0  0  0  0  0  0  0  0
  143.9080   74.4770  219.2880 C   0  0  2  0  0  0  0  0  0  0  0  0
  143.1100   75.6490  219.0190 C   0  0  0  0  0  0  0  0  0  0  0  0
  142.2980   75.6680  217.8930 C   0  0  0  0  0  0  0  0  0  0  0  0
  141.4790   76.7360  217.5840 C   0  0  0  0  0  0  0  0  0  0  0  0
  141.4380   77.8460  218.4020 C   0  0  0  0  0  0  0  0  0  0  0  0
  140.6370   78.9520  218.1480 O   0  0  0  0  0  0  0  0  0  0  0  0
  140.2280   79.8470  219.1700 C   0  0  0  0  0  0  0  0  0  0  0  0
  139.4870   79.2100  220.1360 F   0  0  0  0  0  0  0  0  0  0  0  0
  139.4090   80.8220  218.5900 F   0  0  0  0  0  0  0  0  0  0  0  0
  141.2950   80.5120  219.7280 F   0  0  0  0  0  0  0  0  0  0  0  0
  142.2420   77.8340  219.5230 C   0  0  0  0  0  0  0  0  0  0  0  0
  143.0580   76.7640  219.8250 C   0  0  0  0  0  0  0  0  0  0  0  0
  140.2350   77.0870  222.3590 C   0  0  0  0  0  0  0  0  0  0  0  0
  139.0430   77.7050  222.6550 C   0  0  0  0  0  0  0  0  0  0  0  0
  139.1360   79.0200  223.1170 C   0  0  0  0  0  0  0  0  0  0  0  0
  140.3710   79.6370  223.2580 C   0  0  0  0  0  0  0  0  0  0  0  0
  140.5110   80.9290  223.7110 C   0  0  0  0  0  0  0  0  0  0  0  0
  141.7480   81.5010  223.8350 C   0  0  0  0  0  0  0  0  0  0  0  0
  142.9200   80.8140  223.5160 C   0  0  0  0  0  0  0  0  0  0  0  0
  142.7850   79.5190  223.0630 C   0  0  0  0  0  0  0  0  0  0  0  0
  141.5310   78.9550  222.9420 C   0  0  0  0  0  0  0  0  0  0  0  0
  141.4320   77.6890  222.4970 N   0  0  0  0  0  0  0  0  0  0  0  0
  142.3140   75.4180  221.7570 H   0  0  0  0  0  0  0  0  0  0  0  0
  141.5727   72.9606  221.9094 H   0  0  0  0  0  0  0  0  0  0  0  0
  140.1238   73.5972  220.8949 H   0  0  0  0  0  0  0  0  0  0  0  0
  143.3996   71.1364  219.3035 H   0  0  0  0  0  0  0  0  0  0  0  0
  144.3406   72.1354  218.1231 H   0  0  0  0  0  0  0  0  0  0  0  0
  144.8848   71.5218  221.0023 H   0  0  0  0  0  0  0  0  0  0  0  0
  145.9642   71.4667  219.5166 H   0  0  0  0  0  0  0  0  0  0  0  0
  146.2438   73.2573  221.3844 H   0  0  0  0  0  0  0  0  0  0  0  0
  146.4353   73.5806  219.5658 H   0  0  0  0  0  0  0  0  0  0  0  0
  144.2211   74.4353  221.3902 H   0  0  0  0  0  0  0  0  0  0  0  0
  145.3908   75.4405  220.4664 H   0  0  0  0  0  0  0  0  0  0  0  0
  144.4978   74.5067  218.3600 H   0  0  0  0  0  0  0  0  0  0  0  0
  142.3074   74.7977  217.2203 H   0  0  0  0  0  0  0  0  0  0  0  0
  140.8547   76.7014  216.6790 H   0  0  0  0  0  0  0  0  0  0  0  0
  142.2319   78.7039  220.1961 H   0  0  0  0  0  0  0  0  0  0  0  0
  143.6815   76.8023  220.7304 H   0  0  0  0  0  0  0  0  0  0  0  0
  138.0756   77.1953  222.5354 H   0  0  0  0  0  0  0  0  0  0  0  0
  138.2198   79.5728  223.3720 H   0  0  0  0  0  0  0  0  0  0  0  0
  139.6158   81.5102  223.9772 H   0  0  0  0  0  0  0  0  0  0  0  0
  141.8209   82.5367  224.1982 H   0  0  0  0  0  0  0  0  0  0  0  0
  143.9084   81.2852  223.6214 H   0  0  0  0  0  0  0  0  0  0  0  0
  143.6781   78.9342  222.7975 H   0  0  0  0  0  0  0  0  0  0  0  0
  1  2  2  0
  2  3  1  0
  3  4  1  0
  4  5  1  0
  5  6  2  0
  5  7  1  0
  7  8  1  0
  8  9  1  0
  9 10  1  0
 10 11  1  0
 11 12  1  0
 12 13  1  0
 13 14  2  0
 14 15  1  0
 15 16  2  0
 16 17  1  0
 17 18  1  0
 18 19  1  0
 18 20  1  0
 18 21  1  0
 16 22  1  0
 22 23  2  0
  2 24  1  0
 24 25  2  0
 25 26  1  0
 26 27  2  0
 27 28  1  0
 28 29  2  0
 29 30  1  0
 30 31  2  0
 31 32  1  0
 32 33  2  0
 12  7  1  0
 23 13  1  0
 33 24  1  0
 32 27  1  0
  3 34  1  0
  4 35  1  0
  4 36  1  0
  8 37  1  0
  8 38  1  0
  9 39  1  0
  9 40  1  0
 10 41  1  0
 10 42  1  0
 11 43  1  0
 11 44  1  0
 12 45  1  6
 14 46  1  0
 15 47  1  0
 22 48  1  0
 23 49  1  0
 25 50  1  0
 26 51  1  0
 28 52  1  0
 29 53  1  0
 30 54  1  0
 31 55  1  0
M  END
>  <smiles>  (39) 
O=C(NCC(=O)N1CCCCC1c1ccc(OC(F)(F)F)cc1)c1ccc2ccccc2n1

>  <score_type>  (39) 
oracle

>  <origin>  (39) 
autodockgpu

>  <m_score__min__energy>  (39) 
-8.5999999999999996

>  <m_primary>  (39) 
energy

>  <rmsd>  (39) 
7.633645343664399

>  <m_score__min__rmsd>  (39) 
7.633645343664399

>  <meeko>  (39) 
{"free_energy": -6.82, "intermolecular_energy": -8.91, "internal_energy": -3.09, "cluster_size": 26, "cluster_id": 5, "rank_in_cluster": 12}

>  <energy>  (39) 
-6.69

>  <cluster_rmsd>  (39) 
0.95

>  <cluster>  (39) 
5

$$$$

     RDKit          3D

 55 58  0  0  0  0  0  0  0  0999 V2000
  139.0360   75.1580  221.6380 O   0  0  0  0  0  0  0  0  0  0  0  0
  140.1140   75.7450  221.9160 C   0  0  0  0  0  0  0  0  0  0  0  0
  141.3040   74.9350  221.7240 N   0  0  0  0  0  0  0  0  0  0  0  0
  141.0940   73.6110  221.2510 C   0  0  0  0  0  0  0  0  0  0  0  0
  141.6610   73.1940  219.9750 C   0  0  0  0  0  0  0  0  0  0  0  0
  140.7610   72.7710  219.1320 O   0  0  0  0  0  0  0  0  0  0  0  0
  142.9690   73.1640  219.5040 N   0  0  0  0  0  0  0  0  0  0  0  0
  143.7910   71.9930  219.2260 C   0  0  0  0  0  0  0  0  0  0  0  0
  145.0160   71.9710  220.0870 C   0  0  0  0  0  0  0  0  0  0  0  0
  145.6160   73.3100  220.3560 C   0  0  0  0  0  0  0  0  0  0  0  0
  144.6870   74.4760  220.4150 C   0  0  0  0  0  0  0  0  0  0  0  0
  143.7360   74.4190  219.2690 C   0  0  2  0  0  0  0  0  0  0  0  0
  142.9390   75.5880  218.9870 C   0  0  0  0  0  0  0  0  0  0  0  0
  143.0490   76.6970  219.8150 C   0  0  0  0  0  0  0  0  0  0  0  0
  142.3470   77.8650  219.5930 C   0  0  0  0  0  0  0  0  0  0  0  0
  141.4910   77.9730  218.5150 C   0  0  0  0  0  0  0  0  0  0  0  0
  140.7570   79.1180  218.2360 O   0  0  0  0  0  0  0  0  0  0  0  0
  140.3270   80.0130  219.2510 C   0  0  0  0  0  0  0  0  0  0  0  0
  141.3890   80.5430  219.9430 F   0  0  0  0  0  0  0  0  0  0  0  0
  139.5500   79.2920  220.1630 F   0  0  0  0  0  0  0  0  0  0  0  0
  139.5210   81.0080  218.7490 F   0  0  0  0  0  0  0  0  0  0  0  0
  141.3770   76.8750  217.6880 C   0  0  0  0  0  0  0  0  0  0  0  0
  142.0810   75.7110  217.9160 C   0  0  0  0  0  0  0  0  0  0  0  0
  140.1940   77.1140  222.3900 C   0  0  0  0  0  0  0  0  0  0  0  0
  139.0130   77.7590  222.6730 C   0  0  0  0  0  0  0  0  0  0  0  0
  139.1290   79.0750  223.1260 C   0  0  0  0  0  0  0  0  0  0  0  0
  140.3750   79.6670  223.2720 C   0  0  0  0  0  0  0  0  0  0  0  0
  140.5390   80.9600  223.7150 C   0  0  0  0  0  0  0  0  0  0  0  0
  141.7860   81.5070  223.8450 C   0  0  0  0  0  0  0  0  0  0  0  0
  142.9470   80.7940  223.5390 C   0  0  0  0  0  0  0  0  0  0  0  0
  142.7880   79.4990  223.0950 C   0  0  0  0  0  0  0  0  0  0  0  0
  141.5240   78.9590  222.9690 C   0  0  0  0  0  0  0  0  0  0  0  0
  141.4020   77.6930  222.5320 N   0  0  0  0  0  0  0  0  0  0  0  0
  142.2370   75.3560  221.9380 H   0  0  0  0  0  0  0  0  0  0  0  0
  141.5002   72.9326  222.0157 H   0  0  0  0  0  0  0  0  0  0  0  0
  140.0097   73.5769  221.0688 H   0  0  0  0  0  0  0  0  0  0  0  0
  143.1999   71.0859  219.4207 H   0  0  0  0  0  0  0  0  0  0  0  0
  144.1074   72.0330  218.1732 H   0  0  0  0  0  0  0  0  0  0  0  0
  144.7478   71.5161  221.0520 H   0  0  0  0  0  0  0  0  0  0  0  0
  145.7738   71.3980  219.5326 H   0  0  0  0  0  0  0  0  0  0  0  0
  146.1347   73.2513  221.3242 H   0  0  0  0  0  0  0  0  0  0  0  0
  146.2642   73.5085  219.4897 H   0  0  0  0  0  0  0  0  0  0  0  0
  144.1237   74.4473  221.3594 H   0  0  0  0  0  0  0  0  0  0  0  0
  145.2684   75.4082  220.3599 H   0  0  0  0  0  0  0  0  0  0  0  0
  144.2928   74.4112  218.3204 H   0  0  0  0  0  0  0  0  0  0  0  0
  143.7226   76.6429  220.6829 H   0  0  0  0  0  0  0  0  0  0  0  0
  142.4705   78.7154  220.2797 H   0  0  0  0  0  0  0  0  0  0  0  0
  140.7038   76.9293  216.8198 H   0  0  0  0  0  0  0  0  0  0  0  0
  141.9547   74.8623  217.2277 H   0  0  0  0  0  0  0  0  0  0  0  0
  138.0362   77.2683  222.5501 H   0  0  0  0  0  0  0  0  0  0  0  0
  138.2224   79.6483  223.3697 H   0  0  0  0  0  0  0  0  0  0  0  0
  139.6541   81.5623  223.9682 H   0  0  0  0  0  0  0  0  0  0  0  0
  141.8773   82.5433  224.2026 H   0  0  0  0  0  0  0  0  0  0  0  0
  143.9441   81.2458  223.6475 H   0  0  0  0  0  0  0  0  0  0  0  0
  143.6708   78.8941  222.8404 H   0  0  0  0  0  0  0  0  0  0  0  0
  1  2  2  0
  2  3  1  0
  3  4  1  0
  4  5  1  0
  5  6  2  0
  5  7  1  0
  7  8  1  0
  8  9  1  0
  9 10  1  0
 10 11  1  0
 11 12  1  0
 12 13  1  0
 13 14  2  0
 14 15  1  0
 15 16  2  0
 16 17  1  0
 17 18  1  0
 18 19  1  0
 18 20  1  0
 18 21  1  0
 16 22  1  0
 22 23  2  0
  2 24  1  0
 24 25  2  0
 25 26  1  0
 26 27  2  0
 27 28  1  0
 28 29  2  0
 29 30  1  0
 30 31  2  0
 31 32  1  0
 32 33  2  0
 12  7  1  0
 23 13  1  0
 33 24  1  0
 32 27  1  0
  3 34  1  0
  4 35  1  0
  4 36  1  0
  8 37  1  0
  8 38  1  0
  9 39  1  0
  9 40  1  0
 10 41  1  0
 10 42  1  0
 11 43  1  0
 11 44  1  0
 12 45  1  6
 14 46  1  0
 15 47  1  0
 22 48  1  0
 23 49  1  0
 25 50  1  0
 26 51  1  0
 28 52  1  0
 29 53  1  0
 30 54  1  0
 31 55  1  0
M  END
>  <smiles>  (40) 
O=C(NCC(=O)N1CCCCC1c1ccc(OC(F)(F)F)cc1)c1ccc2ccccc2n1

>  <score_type>  (40) 
oracle

>  <origin>  (40) 
autodockgpu

>  <m_score__min__energy>  (40) 
-8.5999999999999996

>  <m_primary>  (40) 
energy

>  <rmsd>  (40) 
7.60990648550293

>  <m_score__min__rmsd>  (40) 
7.60990648550293

>  <meeko>  (40) 
{"free_energy": -6.71, "intermolecular_energy": -8.79, "internal_energy": -3.19, "cluster_size": 26, "cluster_id": 5, "rank_in_cluster": 22}

>  <energy>  (40) 
-6.68

>  <cluster_rmsd>  (40) 
1.03

>  <cluster>  (40) 
5

$$$$

     RDKit          3D

 55 58  0  0  0  0  0  0  0  0999 V2000
  139.8620   71.2050  221.1530 O   0  0  0  0  0  0  0  0  0  0  0  0
  140.3230   71.7200  222.2050 C   0  0  0  0  0  0  0  0  0  0  0  0
  141.0250   72.9760  222.0000 N   0  0  0  0  0  0  0  0  0  0  0  0
  141.0920   73.4470  220.6610 C   0  0  0  0  0  0  0  0  0  0  0  0
  140.7570   74.8320  220.3580 C   0  0  0  0  0  0  0  0  0  0  0  0
  139.6470   74.9520  219.6840 O   0  0  0  0  0  0  0  0  0  0  0  0
  141.4000   76.0300  220.6520 N   0  0  0  0  0  0  0  0  0  0  0  0
  140.9130   77.1250  221.4820 C   0  0  0  0  0  0  0  0  0  0  0  0
  140.7810   78.3900  220.6920 C   0  0  0  0  0  0  0  0  0  0  0  0
  141.8340   78.5930  219.6550 C   0  0  0  0  0  0  0  0  0  0  0  0
  142.4090   77.3740  219.0150 C   0  0  0  0  0  0  0  0  0  0  0  0
  142.7270   76.3610  220.0600 C   0  0  2  0  0  0  0  0  0  0  0  0
  143.5370   75.2280  219.6860 C   0  0  0  0  0  0  0  0  0  0  0  0
  143.5510   74.8150  218.3610 C   0  0  0  0  0  0  0  0  0  0  0  0
  144.3260   73.7620  217.9160 C   0  0  0  0  0  0  0  0  0  0  0  0
  145.1330   73.0680  218.7950 C   0  0  0  0  0  0  0  0  0  0  0  0
  145.9350   72.0010  218.4120 O   0  0  0  0  0  0  0  0  0  0  0  0
  145.5990   70.6530  218.7000 C   0  0  0  0  0  0  0  0  0  0  0  0
  146.6230   70.0030  219.3460 F   0  0  0  0  0  0  0  0  0  0  0  0
  145.3820   69.9920  217.4870 F   0  0  0  0  0  0  0  0  0  0  0  0
  144.4280   70.5580  219.4150 F   0  0  0  0  0  0  0  0  0  0  0  0
  145.1260   73.4730  220.1130 C   0  0  0  0  0  0  0  0  0  0  0  0
  144.3480   74.5250  220.5500 C   0  0  0  0  0  0  0  0  0  0  0  0
  140.1810   71.1360  223.5250 C   0  0  0  0  0  0  0  0  0  0  0  0
  139.5080   69.9400  223.6210 C   0  0  0  0  0  0  0  0  0  0  0  0
  139.3900   69.4070  224.9070 C   0  0  0  0  0  0  0  0  0  0  0  0
  139.9310   70.0680  226.0010 C   0  0  0  0  0  0  0  0  0  0  0  0
  139.8410   69.5820  227.2850 C   0  0  0  0  0  0  0  0  0  0  0  0
  140.3870   70.2650  228.3370 C   0  0  0  0  0  0  0  0  0  0  0  0
  141.0590   71.4770  228.1680 C   0  0  0  0  0  0  0  0  0  0  0  0
  141.1520   71.9680  226.8830 C   0  0  0  0  0  0  0  0  0  0  0  0
  140.5960   71.2690  225.8310 C   0  0  0  0  0  0  0  0  0  0  0  0
  140.7040   71.7750  224.5900 N   0  0  0  0  0  0  0  0  0  0  0  0
  141.4370   73.4610  222.8310 H   0  0  0  0  0  0  0  0  0  0  0  0
  142.1258   73.2885  220.3201 H   0  0  0  0  0  0  0  0  0  0  0  0
  140.2990   72.8784  220.1532 H   0  0  0  0  0  0  0  0  0  0  0  0
  139.9286   76.8539  221.8913 H   0  0  0  0  0  0  0  0  0  0  0  0
  141.6378   77.2956  222.2917 H   0  0  0  0  0  0  0  0  0  0  0  0
  139.8029   78.3787  220.1888 H   0  0  0  0  0  0  0  0  0  0  0  0
  140.8903   79.2162  221.4100 H   0  0  0  0  0  0  0  0  0  0  0  0
  141.3965   79.2102  218.8564 H   0  0  0  0  0  0  0  0  0  0  0  0
  142.6758   79.0524  220.1938 H   0  0  0  0  0  0  0  0  0  0  0  0
  141.6789   76.9532  218.3080 H   0  0  0  0  0  0  0  0  0  0  0  0
  143.3299   77.6445  218.4776 H   0  0  0  0  0  0  0  0  0  0  0  0
  143.4304   76.7862  220.7911 H   0  0  0  0  0  0  0  0  0  0  0  0
  142.9189   75.3482  217.6356 H   0  0  0  0  0  0  0  0  0  0  0  0
  144.3000   73.4746  216.8545 H   0  0  0  0  0  0  0  0  0  0  0  0
  145.7599   72.9412  220.8378 H   0  0  0  0  0  0  0  0  0  0  0  0
  144.3757   74.8091  221.6123 H   0  0  0  0  0  0  0  0  0  0  0  0
  139.0883   69.4342  222.7389 H   0  0  0  0  0  0  0  0  0  0  0  0
  138.8625   68.4530  225.0541 H   0  0  0  0  0  0  0  0  0  0  0  0
  139.3220   68.6296  227.4684 H   0  0  0  0  0  0  0  0  0  0  0  0
  140.2935   69.8454  229.3495 H   0  0  0  0  0  0  0  0  0  0  0  0
  141.4949   72.0162  229.0220 H   0  0  0  0  0  0  0  0  0  0  0  0
  141.6709   72.9197  226.6958 H   0  0  0  0  0  0  0  0  0  0  0  0
  1  2  2  0
  2  3  1  0
  3  4  1  0
  4  5  1  0
  5  6  2  0
  5  7  1  0
  7  8  1  0
  8  9  1  0
  9 10  1  0
 10 11  1  0
 11 12  1  0
 12 13  1  0
 13 14  2  0
 14 15  1  0
 15 16  2  0
 16 17  1  0
 17 18  1  0
 18 19  1  0
 18 20  1  0
 18 21  1  0
 16 22  1  0
 22 23  2  0
  2 24  1  0
 24 25  2  0
 25 26  1  0
 26 27  2  0
 27 28  1  0
 28 29  2  0
 29 30  1  0
 30 31  2  0
 31 32  1  0
 32 33  2  0
 12  7  1  0
 23 13  1  0
 33 24  1  0
 32 27  1  0
  3 34  1  0
  4 35  1  0
  4 36  1  0
  8 37  1  0
  8 38  1  0
  9 39  1  0
  9 40  1  0
 10 41  1  0
 10 42  1  0
 11 43  1  0
 11 44  1  0
 12 45  1  1
 14 46  1  0
 15 47  1  0
 22 48  1  0
 23 49  1  0
 25 50  1  0
 26 51  1  0
 28 52  1  0
 29 53  1  0
 30 54  1  0
 31 55  1  0
M  END
>  <smiles>  (41) 
O=C(NCC(=O)N1CCCCC1c1ccc(OC(F)(F)F)cc1)c1ccc2ccccc2n1

>  <score_type>  (41) 
oracle

>  <origin>  (41) 
autodockgpu

>  <m_score__min__energy>  (41) 
-8.5999999999999996

>  <m_primary>  (41) 
energy

>  <rmsd>  (41) 
2.50032827037641

>  <m_score__min__rmsd>  (41) 
2.50032827037641

>  <meeko>  (41) 
{"free_energy": -7.97, "intermolecular_energy": -10.06, "internal_energy": -1.78, "cluster_size": 9, "cluster_id": 1, "rank_in_cluster": 3}

>  <energy>  (41) 
-6.52

>  <cluster_rmsd>  (41) 
0.56

>  <cluster>  (41) 
5

$$$$

     RDKit          3D

 55 58  0  0  0  0  0  0  0  0999 V2000
  140.4050   74.4050  222.3270 O   0  0  0  0  0  0  0  0  0  0  0  0
  140.3780   75.4400  221.6110 C   0  0  0  0  0  0  0  0  0  0  0  0
  140.4380   75.1830  220.1820 N   0  0  0  0  0  0  0  0  0  0  0  0
  140.5130   73.8180  219.7930 C   0  0  0  0  0  0  0  0  0  0  0  0
  141.4510   73.4060  218.7570 C   0  0  0  0  0  0  0  0  0  0  0  0
  140.8860   73.2400  217.5940 O   0  0  0  0  0  0  0  0  0  0  0  0
  142.8190   73.1570  218.7870 N   0  0  0  0  0  0  0  0  0  0  0  0
  143.4990   71.8790  218.6170 C   0  0  0  0  0  0  0  0  0  0  0  0
  144.2820   71.5120  219.8390 C   0  0  0  0  0  0  0  0  0  0  0  0
  144.9260   72.6620  220.5380 C   0  0  0  0  0  0  0  0  0  0  0  0
  144.2320   73.9810  220.4680 C   0  0  0  0  0  0  0  0  0  0  0  0
  143.7980   74.2450  219.0680 C   0  0  2  0  0  0  0  0  0  0  0  0
  143.3550   75.5770  218.7330 C   0  0  0  0  0  0  0  0  0  0  0  0
  142.9730   76.4390  219.7520 C   0  0  0  0  0  0  0  0  0  0  0  0
  142.5710   77.7390  219.5170 C   0  0  0  0  0  0  0  0  0  0  0  0
  142.5340   78.2380  218.2300 C   0  0  0  0  0  0  0  0  0  0  0  0
  142.1390   79.5340  217.9270 O   0  0  0  0  0  0  0  0  0  0  0  0
  141.4580   80.3610  218.8580 C   0  0  0  0  0  0  0  0  0  0  0  0
  142.2310   80.6240  219.9620 F   0  0  0  0  0  0  0  0  0  0  0  0
  140.3210   79.6740  219.2960 F   0  0  0  0  0  0  0  0  0  0  0  0
  141.0140   81.5270  218.2790 F   0  0  0  0  0  0  0  0  0  0  0  0
  142.9130   77.3880  217.2120 C   0  0  0  0  0  0  0  0  0  0  0  0
  143.3130   76.0900  217.4550 C   0  0  0  0  0  0  0  0  0  0  0  0
  140.2950   76.7900  222.1370 C   0  0  0  0  0  0  0  0  0  0  0  0
  139.0420   77.2920  222.4000 C   0  0  0  0  0  0  0  0  0  0  0  0
  139.0000   78.5940  222.9050 C   0  0  0  0  0  0  0  0  0  0  0  0
  140.1690   79.3100  223.1180 C   0  0  0  0  0  0  0  0  0  0  0  0
  140.1770   80.5940  223.6140 C   0  0  0  0  0  0  0  0  0  0  0  0
  141.3520   81.2660  223.8080 C   0  0  0  0  0  0  0  0  0  0  0  0
  142.5930   80.6950  223.5190 C   0  0  0  0  0  0  0  0  0  0  0  0
  142.5900   79.4090  223.0220 C   0  0  0  0  0  0  0  0  0  0  0  0
  141.3970   78.7430  222.8300 C   0  0  0  0  0  0  0  0  0  0  0  0
  141.4270   77.4890  222.3440 N   0  0  0  0  0  0  0  0  0  0  0  0
  140.4230   75.9970  219.5250 H   0  0  0  0  0  0  0  0  0  0  0  0
  140.7656   73.2438  220.6966 H   0  0  0  0  0  0  0  0  0  0  0  0
  139.5311   73.6319  219.3334 H   0  0  0  0  0  0  0  0  0  0  0  0
  142.7495   71.0974  218.4237 H   0  0  0  0  0  0  0  0  0  0  0  0
  144.1969   71.9671  217.7713 H   0  0  0  0  0  0  0  0  0  0  0  0
  143.5998   71.0195  220.5475 H   0  0  0  0  0  0  0  0  0  0  0  0
  145.0994   70.8593  219.4987 H   0  0  0  0  0  0  0  0  0  0  0  0
  145.0182   72.3931  221.6006 H   0  0  0  0  0  0  0  0  0  0  0  0
  145.8786   72.8158  220.0100 H   0  0  0  0  0  0  0  0  0  0  0  0
  143.3516   73.9666  221.1274 H   0  0  0  0  0  0  0  0  0  0  0  0
  144.9223   74.7740  220.7916 H   0  0  0  0  0  0  0  0  0  0  0  0
  144.6684   74.2247  218.3957 H   0  0  0  0  0  0  0  0  0  0  0  0
  142.9913   76.0715  220.7886 H   0  0  0  0  0  0  0  0  0  0  0  0
  142.2783   78.3813  220.3606 H   0  0  0  0  0  0  0  0  0  0  0  0
  142.8958   77.7559  216.1755 H   0  0  0  0  0  0  0  0  0  0  0  0
  143.6050   75.4503  216.6092 H   0  0  0  0  0  0  0  0  0  0  0  0
  138.1289   76.7045  222.2236 H   0  0  0  0  0  0  0  0  0  0  0  0
  138.0292   79.0566  223.1363 H   0  0  0  0  0  0  0  0  0  0  0  0
  139.2242   81.0867  223.8579 H   0  0  0  0  0  0  0  0  0  0  0  0
  141.3184   82.2912  224.2052 H   0  0  0  0  0  0  0  0  0  0  0  0
  143.5310   81.2465  223.6806 H   0  0  0  0  0  0  0  0  0  0  0  0
  143.5409   78.9128  222.7780 H   0  0  0  0  0  0  0  0  0  0  0  0
  1  2  2  0
  2  3  1  0
  3  4  1  0
  4  5  1  0
  5  6  2  0
  5  7  1  0
  7  8  1  0
  8  9  1  0
  9 10  1  0
 10 11  1  0
 11 12  1  0
 12 13  1  0
 13 14  2  0
 14 15  1  0
 15 16  2  0
 16 17  1  0
 17 18  1  0
 18 19  1  0
 18 20  1  0
 18 21  1  0
 16 22  1  0
 22 23  2  0
  2 24  1  0
 24 25  2  0
 25 26  1  0
 26 27  2  0
 27 28  1  0
 28 29  2  0
 29 30  1  0
 30 31  2  0
 31 32  1  0
 32 33  2  0
 12  7  1  0
 23 13  1  0
 33 24  1  0
 32 27  1  0
  3 34  1  0
  4 35  1  0
  4 36  1  0
  8 37  1  0
  8 38  1  0
  9 39  1  0
  9 40  1  0
 10 41  1  0
 10 42  1  0
 11 43  1  0
 11 44  1  0
 12 45  1  6
 14 46  1  0
 15 47  1  0
 22 48  1  0
 23 49  1  0
 25 50  1  0
 26 51  1  0
 28 52  1  0
 29 53  1  0
 30 54  1  0
 31 55  1  0
M  END
>  <smiles>  (42) 
O=C(NCC(=O)N1CCCCC1c1ccc(OC(F)(F)F)cc1)c1ccc2ccccc2n1

>  <score_type>  (42) 
oracle

>  <origin>  (42) 
autodockgpu

>  <m_score__min__energy>  (42) 
-8.5999999999999996

>  <m_primary>  (42) 
energy

>  <rmsd>  (42) 
7.436909791667753

>  <m_score__min__rmsd>  (42) 
7.436909791667753

>  <meeko>  (42) 
{"free_energy": -6.7, "intermolecular_energy": -8.79, "internal_energy": -2.67, "cluster_size": 26, "cluster_id": 5, "rank_in_cluster": 23}

>  <energy>  (42) 
-7.09

>  <cluster_rmsd>  (42) 
0.0

>  <cluster>  (42) 
6

$$$$

     RDKit          3D

 55 58  0  0  0  0  0  0  0  0999 V2000
  140.5030   77.0220  218.7210 O   0  0  0  0  0  0  0  0  0  0  0  0
  141.6990   76.9440  219.1060 C   0  0  0  0  0  0  0  0  0  0  0  0
  142.2860   78.2140  219.4980 N   0  0  0  0  0  0  0  0  0  0  0  0
  141.4420   79.3540  219.3990 C   0  0  0  0  0  0  0  0  0  0  0  0
  140.4300   79.6010  220.4170 C   0  0  0  0  0  0  0  0  0  0  0  0
  139.2140   79.4330  219.9780 O   0  0  0  0  0  0  0  0  0  0  0  0
  140.5260   79.9830  221.7510 N   0  0  0  0  0  0  0  0  0  0  0  0
  140.5330   81.3350  222.2950 C   0  0  0  0  0  0  0  0  0  0  0  0
  141.8110   81.6230  223.0190 C   0  0  0  0  0  0  0  0  0  0  0  0
  142.3800   80.4680  223.7710 C   0  0  0  0  0  0  0  0  0  0  0  0
  142.1290   79.1030  223.2200 C   0  0  0  0  0  0  0  0  0  0  0  0
  140.6970   78.9740  222.8340 C   0  0  2  0  0  0  0  0  0  0  0  0
  140.1870   77.6570  222.5380 C   0  0  0  0  0  0  0  0  0  0  0  0
  141.0800   76.6450  222.2080 C   0  0  0  0  0  0  0  0  0  0  0  0
  140.6770   75.3510  221.9460 C   0  0  0  0  0  0  0  0  0  0  0  0
  139.3400   75.0100  222.0030 C   0  0  0  0  0  0  0  0  0  0  0  0
  138.8700   73.7280  221.7500 O   0  0  0  0  0  0  0  0  0  0  0  0
  139.7030   72.5820  221.8240 C   0  0  0  0  0  0  0  0  0  0  0  0
  140.6130   72.5510  220.7960 F   0  0  0  0  0  0  0  0  0  0  0  0
  138.8920   71.4490  221.7020 F   0  0  0  0  0  0  0  0  0  0  0  0
  140.3340   72.4840  223.0420 F   0  0  0  0  0  0  0  0  0  0  0  0
  138.4470   76.0090  222.3300 C   0  0  0  0  0  0  0  0  0  0  0  0
  138.8580   77.3000  222.5910 C   0  0  0  0  0  0  0  0  0  0  0  0
  142.4540   75.7070  219.1660 C   0  0  0  0  0  0  0  0  0  0  0  0
  141.9860   74.6410  218.4330 C   0  0  0  0  0  0  0  0  0  0  0  0
  142.7390   73.4670  218.5160 C   0  0  0  0  0  0  0  0  0  0  0  0
  143.8840   73.4120  219.2970 C   0  0  0  0  0  0  0  0  0  0  0  0
  144.6560   72.2780  219.4080 C   0  0  0  0  0  0  0  0  0  0  0  0
  145.7790   72.2650  220.1900 C   0  0  0  0  0  0  0  0  0  0  0  0
  146.1980   73.3850  220.9090 C   0  0  0  0  0  0  0  0  0  0  0  0
  145.4270   74.5230  220.8010 C   0  0  0  0  0  0  0  0  0  0  0  0
  144.2970   74.5230  220.0090 C   0  0  0  0  0  0  0  0  0  0  0  0
  143.5660   75.6490  219.9240 N   0  0  0  0  0  0  0  0  0  0  0  0
  143.2790   78.2270  219.8270 H   0  0  0  0  0  0  0  0  0  0  0  0
  142.0996   80.2357  219.3843 H   0  0  0  0  0  0  0  0  0  0  0  0
  140.8480   79.1514  218.4956 H   0  0  0  0  0  0  0  0  0  0  0  0
  140.4186   82.0538  221.4702 H   0  0  0  0  0  0  0  0  0  0  0  0
  139.7012   81.4264  223.0089 H   0  0  0  0  0  0  0  0  0  0  0  0
  142.5566   81.9500  222.2793 H   0  0  0  0  0  0  0  0  0  0  0  0
  141.5746   82.3929  223.7682 H   0  0  0  0  0  0  0  0  0  0  0  0
  143.4698   80.6097  223.8197 H   0  0  0  0  0  0  0  0  0  0  0  0
  141.8635   80.4805  224.7421 H   0  0  0  0  0  0  0  0  0  0  0  0
  142.7622   78.9437  222.3348 H   0  0  0  0  0  0  0  0  0  0  0  0
  142.3694   78.3508  223.9858 H   0  0  0  0  0  0  0  0  0  0  0  0
  140.0563   79.1672  223.7070 H   0  0  0  0  0  0  0  0  0  0  0  0
  142.1521   76.8848  222.1533 H   0  0  0  0  0  0  0  0  0  0  0  0
  141.4256   74.5866  221.6902 H   0  0  0  0  0  0  0  0  0  0  0  0
  137.3748   75.7693  222.3843 H   0  0  0  0  0  0  0  0  0  0  0  0
  138.1068   78.0616  222.8473 H   0  0  0  0  0  0  0  0  0  0  0  0
  141.0754   74.7087  217.8196 H   0  0  0  0  0  0  0  0  0  0  0  0
  142.4201   72.5759  217.9554 H   0  0  0  0  0  0  0  0  0  0  0  0
  144.3662   71.3691  218.8603 H   0  0  0  0  0  0  0  0  0  0  0  0
  146.3714   71.3403  220.2539 H   0  0  0  0  0  0  0  0  0  0  0  0
  147.1029   73.3611  221.5340 H   0  0  0  0  0  0  0  0  0  0  0  0
  145.7135   75.4335  221.3477 H   0  0  0  0  0  0  0  0  0  0  0  0
  1  2  2  0
  2  3  1  0
  3  4  1  0
  4  5  1  0
  5  6  2  0
  5  7  1  0
  7  8  1  0
  8  9  1  0
  9 10  1  0
 10 11  1  0
 11 12  1  0
 12 13  1  0
 13 14  2  0
 14 15  1  0
 15 16  2  0
 16 17  1  0
 17 18  1  0
 18 19  1  0
 18 20  1  0
 18 21  1  0
 16 22  1  0
 22 23  2  0
  2 24  1  0
 24 25  2  0
 25 26  1  0
 26 27  2  0
 27 28  1  0
 28 29  2  0
 29 30  1  0
 30 31  2  0
 31 32  1  0
 32 33  2  0
 12  7  1  0
 23 13  1  0
 33 24  1  0
 32 27  1  0
  3 34  1  0
  4 35  1  0
  4 36  1  0
  8 37  1  0
  8 38  1  0
  9 39  1  0
  9 40  1  0
 10 41  1  0
 10 42  1  0
 11 43  1  0
 11 44  1  0
 12 45  1  1
 14 46  1  0
 15 47  1  0
 22 48  1  0
 23 49  1  0
 25 50  1  0
 26 51  1  0
 28 52  1  0
 29 53  1  0
 30 54  1  0
 31 55  1  0
M  END
>  <smiles>  (43) 
O=C(NCC(=O)N1CCCCC1c1ccc(OC(F)(F)F)cc1)c1ccc2ccccc2n1

>  <score_type>  (43) 
oracle

>  <origin>  (43) 
autodockgpu

>  <m_score__min__energy>  (43) 
-8.5999999999999996

>  <m_primary>  (43) 
energy

>  <rmsd>  (43) 
7.4785673600607145

>  <m_score__min__rmsd>  (43) 
7.4785673600607145

>  <meeko>  (43) 
{"free_energy": -6.93, "intermolecular_energy": -9.01, "internal_energy": -2.89, "cluster_size": 8, "cluster_id": 7, "rank_in_cluster": 2}

>  <energy>  (43) 
-6.93

>  <cluster_rmsd>  (43) 
0.0

>  <cluster>  (43) 
7

$$$$

     RDKit          3D

 55 58  0  0  0  0  0  0  0  0999 V2000
  139.0770   75.1250  221.5560 O   0  0  0  0  0  0  0  0  0  0  0  0
  140.1530   75.6990  221.8710 C   0  0  0  0  0  0  0  0  0  0  0  0
  141.3400   74.8790  221.7070 N   0  0  0  0  0  0  0  0  0  0  0  0
  141.1310   73.5620  221.2160 C   0  0  0  0  0  0  0  0  0  0  0  0
  141.6590   73.1770  219.9140 C   0  0  0  0  0  0  0  0  0  0  0  0
  140.7250   72.9620  219.0290 O   0  0  0  0  0  0  0  0  0  0  0  0
  142.9590   72.9960  219.4530 N   0  0  0  0  0  0  0  0  0  0  0  0
  143.6460   71.7380  219.1880 C   0  0  0  0  0  0  0  0  0  0  0  0
  144.8540   71.5850  220.0570 C   0  0  0  0  0  0  0  0  0  0  0  0
  145.5990   72.8490  220.3230 C   0  0  0  0  0  0  0  0  0  0  0  0
  144.8060   74.1130  220.3690 C   0  0  0  0  0  0  0  0  0  0  0  0
  143.8640   74.1560  219.2170 C   0  0  2  0  0  0  0  0  0  0  0  0
  143.2050   75.4050  218.9220 C   0  0  0  0  0  0  0  0  0  0  0  0
  143.1440   76.3850  219.9040 C   0  0  0  0  0  0  0  0  0  0  0  0
  142.5630   77.6190  219.6900 C   0  0  0  0  0  0  0  0  0  0  0  0
  142.0080   77.9280  218.4640 C   0  0  0  0  0  0  0  0  0  0  0  0
  141.4090   79.1490  218.1840 O   0  0  0  0  0  0  0  0  0  0  0  0
  140.9300   80.0130  219.2030 C   0  0  0  0  0  0  0  0  0  0  0  0
  140.2660   81.0950  218.6790 F   0  0  0  0  0  0  0  0  0  0  0  0
  142.0340   80.5020  219.9100 F   0  0  0  0  0  0  0  0  0  0  0  0
  140.1430   79.3470  220.1140 F   0  0  0  0  0  0  0  0  0  0  0  0
  142.0650   76.9590  217.4830 C   0  0  0  0  0  0  0  0  0  0  0  0
  142.6470   75.7290  217.7050 C   0  0  0  0  0  0  0  0  0  0  0  0
  140.2320   77.0630  222.3590 C   0  0  0  0  0  0  0  0  0  0  0  0
  139.0500   77.7040  222.6480 C   0  0  0  0  0  0  0  0  0  0  0  0
  139.1660   79.0160  223.1140 C   0  0  0  0  0  0  0  0  0  0  0  0
  140.4110   79.6070  223.2670 C   0  0  0  0  0  0  0  0  0  0  0  0
  140.5740   80.8950  223.7240 C   0  0  0  0  0  0  0  0  0  0  0  0
  141.8210   81.4420  223.8610 C   0  0  0  0  0  0  0  0  0  0  0  0
  142.9820   80.7320  223.5490 C   0  0  0  0  0  0  0  0  0  0  0  0
  142.8240   79.4420  223.0910 C   0  0  0  0  0  0  0  0  0  0  0  0
  141.5600   78.9030  222.9580 C   0  0  0  0  0  0  0  0  0  0  0  0
  141.4400   77.6410  222.5080 N   0  0  0  0  0  0  0  0  0  0  0  0
  142.2710   75.2900  221.9520 H   0  0  0  0  0  0  0  0  0  0  0  0
  141.5718   72.8748  221.9531 H   0  0  0  0  0  0  0  0  0  0  0  0
  140.0416   73.5168  221.0701 H   0  0  0  0  0  0  0  0  0  0  0  0
  142.9556   70.9044  219.3841 H   0  0  0  0  0  0  0  0  0  0  0  0
  143.9714   71.7347  218.1373 H   0  0  0  0  0  0  0  0  0  0  0  0
  144.5301   71.1694  221.0226 H   0  0  0  0  0  0  0  0  0  0  0  0
  145.5463   70.9275  219.5107 H   0  0  0  0  0  0  0  0  0  0  0  0
  146.1015   72.7383  221.2952 H   0  0  0  0  0  0  0  0  0  0  0  0
  146.2713   72.9680  219.4606 H   0  0  0  0  0  0  0  0  0  0  0  0
  144.2362   74.1533  221.3091 H   0  0  0  0  0  0  0  0  0  0  0  0
  145.4887   74.9738  220.3139 H   0  0  0  0  0  0  0  0  0  0  0  0
  144.4236   74.0803  218.2730 H   0  0  0  0  0  0  0  0  0  0  0  0
  143.5761   76.1694  220.8924 H   0  0  0  0  0  0  0  0  0  0  0  0
  142.5421   78.3611  220.5017 H   0  0  0  0  0  0  0  0  0  0  0  0
  141.6332   77.1744  216.4945 H   0  0  0  0  0  0  0  0  0  0  0  0
  142.6662   74.9891  216.8913 H   0  0  0  0  0  0  0  0  0  0  0  0
  138.0735   77.2139  222.5201 H   0  0  0  0  0  0  0  0  0  0  0  0
  138.2591   79.5868  223.3624 H   0  0  0  0  0  0  0  0  0  0  0  0
  139.6885   81.4939  223.9831 H   0  0  0  0  0  0  0  0  0  0  0  0
  141.9115   82.4747  224.2289 H   0  0  0  0  0  0  0  0  0  0  0  0
  143.9789   81.1826  223.6637 H   0  0  0  0  0  0  0  0  0  0  0  0
  143.7072   78.8402  222.8307 H   0  0  0  0  0  0  0  0  0  0  0  0
  1  2  2  0
  2  3  1  0
  3  4  1  0
  4  5  1  0
  5  6  2  0
  5  7  1  0
  7  8  1  0
  8  9  1  0
  9 10  1  0
 10 11  1  0
 11 12  1  0
 12 13  1  0
 13 14  2  0
 14 15  1  0
 15 16  2  0
 16 17  1  0
 17 18  1  0
 18 19  1  0
 18 20  1  0
 18 21  1  0
 16 22  1  0
 22 23  2  0
  2 24  1  0
 24 25  2  0
 25 26  1  0
 26 27  2  0
 27 28  1  0
 28 29  2  0
 29 30  1  0
 30 31  2  0
 31 32  1  0
 32 33  2  0
 12  7  1  0
 23 13  1  0
 33 24  1  0
 32 27  1  0
  3 34  1  0
  4 35  1  0
  4 36  1  0
  8 37  1  0
  8 38  1  0
  9 39  1  0
  9 40  1  0
 10 41  1  0
 10 42  1  0
 11 43  1  0
 11 44  1  0
 12 45  1  6
 14 46  1  0
 15 47  1  0
 22 48  1  0
 23 49  1  0
 25 50  1  0
 26 51  1  0
 28 52  1  0
 29 53  1  0
 30 54  1  0
 31 55  1  0
M  END
>  <smiles>  (44) 
O=C(NCC(=O)N1CCCCC1c1ccc(OC(F)(F)F)cc1)c1ccc2ccccc2n1

>  <score_type>  (44) 
oracle

>  <origin>  (44) 
autodockgpu

>  <m_score__min__energy>  (44) 
-8.5999999999999996

>  <m_primary>  (44) 
energy

>  <rmsd>  (44) 
7.615735307734742

>  <m_score__min__rmsd>  (44) 
7.615735307734742

>  <meeko>  (44) 
{"free_energy": -6.8, "intermolecular_energy": -8.89, "internal_energy": -3.05, "cluster_size": 26, "cluster_id": 5, "rank_in_cluster": 13}

>  <energy>  (44) 
-6.93

>  <cluster_rmsd>  (44) 
0.12

>  <cluster>  (44) 
7

$$$$

     RDKit          3D

 55 58  0  0  0  0  0  0  0  0999 V2000
  139.1180   74.9820  221.7550 O   0  0  0  0  0  0  0  0  0  0  0  0
  140.1870   75.6230  221.9330 C   0  0  0  0  0  0  0  0  0  0  0  0
  141.3940   74.8690  221.6410 N   0  0  0  0  0  0  0  0  0  0  0  0
  141.2070   73.5320  221.1970 C   0  0  0  0  0  0  0  0  0  0  0  0
  141.6790   73.1300  219.8780 C   0  0  0  0  0  0  0  0  0  0  0  0
  140.7080   72.8670  219.0480 O   0  0  0  0  0  0  0  0  0  0  0  0
  142.9580   72.9750  219.3550 N   0  0  0  0  0  0  0  0  0  0  0  0
  143.6490   71.7320  219.0370 C   0  0  0  0  0  0  0  0  0  0  0  0
  144.8980   71.5800  219.8470 C   0  0  0  0  0  0  0  0  0  0  0  0
  145.6380   72.8500  220.1010 C   0  0  0  0  0  0  0  0  0  0  0  0
  144.8320   74.1020  220.2050 C   0  0  0  0  0  0  0  0  0  0  0  0
  143.8370   74.1510  219.0980 C   0  0  2  0  0  0  0  0  0  0  0  0
  143.1490   75.3950  218.8550 C   0  0  0  0  0  0  0  0  0  0  0  0
  143.1520   76.3730  219.8420 C   0  0  0  0  0  0  0  0  0  0  0  0
  142.5470   77.6020  219.6740 C   0  0  0  0  0  0  0  0  0  0  0  0
  141.9030   77.9100  218.4930 C   0  0  0  0  0  0  0  0  0  0  0  0
  141.2760   79.1270  218.2610 O   0  0  0  0  0  0  0  0  0  0  0  0
  141.0140   80.0590  219.2990 C   0  0  0  0  0  0  0  0  0  0  0  0
  140.1080   79.5670  220.2060 F   0  0  0  0  0  0  0  0  0  0  0  0
  140.4510   81.2030  218.7220 F   0  0  0  0  0  0  0  0  0  0  0  0
  142.1690   80.4640  219.9270 F   0  0  0  0  0  0  0  0  0  0  0  0
  141.8960   76.9440  217.5070 C   0  0  0  0  0  0  0  0  0  0  0  0
  142.5020   75.7180  217.6830 C   0  0  0  0  0  0  0  0  0  0  0  0
  140.2420   76.9980  222.3900 C   0  0  0  0  0  0  0  0  0  0  0  0
  139.0480   77.6300  222.6490 C   0  0  0  0  0  0  0  0  0  0  0  0
  139.1400   78.9540  223.0860 C   0  0  0  0  0  0  0  0  0  0  0  0
  140.3750   79.5650  223.2400 C   0  0  0  0  0  0  0  0  0  0  0  0
  140.5150   80.8650  223.6690 C   0  0  0  0  0  0  0  0  0  0  0  0
  141.7530   81.4320  223.8080 C   0  0  0  0  0  0  0  0  0  0  0  0
  142.9270   80.7320  223.5270 C   0  0  0  0  0  0  0  0  0  0  0  0
  142.7920   79.4290  223.0980 C   0  0  0  0  0  0  0  0  0  0  0  0
  141.5380   78.8700  222.9620 C   0  0  0  0  0  0  0  0  0  0  0  0
  141.4400   77.5960  222.5410 N   0  0  0  0  0  0  0  0  0  0  0  0
  142.3200   75.3370  221.7690 H   0  0  0  0  0  0  0  0  0  0  0  0
  141.7113   72.8815  221.9267 H   0  0  0  0  0  0  0  0  0  0  0  0
  140.1138   73.4440  221.1123 H   0  0  0  0  0  0  0  0  0  0  0  0
  142.9793   70.8856  219.2494 H   0  0  0  0  0  0  0  0  0  0  0  0
  143.9264   71.7522  217.9728 H   0  0  0  0  0  0  0  0  0  0  0  0
  144.6244   71.1433  220.8188 H   0  0  0  0  0  0  0  0  0  0  0  0
  145.5727   70.9412  219.2582 H   0  0  0  0  0  0  0  0  0  0  0  0
  146.1857   72.7299  221.0474 H   0  0  0  0  0  0  0  0  0  0  0  0
  146.2685   72.9927  219.2110 H   0  0  0  0  0  0  0  0  0  0  0  0
  144.3058   74.1191  221.1708 H   0  0  0  0  0  0  0  0  0  0  0  0
  145.5003   74.9728  220.1334 H   0  0  0  0  0  0  0  0  0  0  0  0
  144.3542   74.0982  218.1286 H   0  0  0  0  0  0  0  0  0  0  0  0
  143.6569   76.1591  220.7956 H   0  0  0  0  0  0  0  0  0  0  0  0
  142.5784   78.3416  220.4876 H   0  0  0  0  0  0  0  0  0  0  0  0
  141.3922   77.1585  216.5530 H   0  0  0  0  0  0  0  0  0  0  0  0
  142.4678   74.9803  216.8677 H   0  0  0  0  0  0  0  0  0  0  0  0
  138.0799   77.1240  222.5200 H   0  0  0  0  0  0  0  0  0  0  0  0
  138.2225   79.5178  223.3103 H   0  0  0  0  0  0  0  0  0  0  0  0
  139.6184   81.4575  223.9038 H   0  0  0  0  0  0  0  0  0  0  0  0
  141.8249   82.4741  224.1527 H   0  0  0  0  0  0  0  0  0  0  0  0
  143.9161   81.1992  223.6427 H   0  0  0  0  0  0  0  0  0  0  0  0
  143.6865   78.8333  222.8635 H   0  0  0  0  0  0  0  0  0  0  0  0
  1  2  2  0
  2  3  1  0
  3  4  1  0
  4  5  1  0
  5  6  2  0
  5  7  1  0
  7  8  1  0
  8  9  1  0
  9 10  1  0
 10 11  1  0
 11 12  1  0
 12 13  1  0
 13 14  2  0
 14 15  1  0
 15 16  2  0
 16 17  1  0
 17 18  1  0
 18 19  1  0
 18 20  1  0
 18 21  1  0
 16 22  1  0
 22 23  2  0
  2 24  1  0
 24 25  2  0
 25 26  1  0
 26 27  2  0
 27 28  1  0
 28 29  2  0
 29 30  1  0
 30 31  2  0
 31 32  1  0
 32 33  2  0
 12  7  1  0
 23 13  1  0
 33 24  1  0
 32 27  1  0
  3 34  1  0
  4 35  1  0
  4 36  1  0
  8 37  1  0
  8 38  1  0
  9 39  1  0
  9 40  1  0
 10 41  1  0
 10 42  1  0
 11 43  1  0
 11 44  1  0
 12 45  1  6
 14 46  1  0
 15 47  1  0
 22 48  1  0
 23 49  1  0
 25 50  1  0
 26 51  1  0
 28 52  1  0
 29 53  1  0
 30 54  1  0
 31 55  1  0
M  END
>  <smiles>  (45) 
O=C(NCC(=O)N1CCCCC1c1ccc(OC(F)(F)F)cc1)c1ccc2ccccc2n1

>  <score_type>  (45) 
oracle

>  <origin>  (45) 
autodockgpu

>  <m_score__min__energy>  (45) 
-8.5999999999999996

>  <m_primary>  (45) 
energy

>  <rmsd>  (45) 
7.595464087968962

>  <m_score__min__rmsd>  (45) 
7.595464087968962

>  <meeko>  (45) 
{"free_energy": -6.8, "intermolecular_energy": -8.89, "internal_energy": -3.04, "cluster_size": 26, "cluster_id": 5, "rank_in_cluster": 14}

>  <energy>  (45) 
-6.88

>  <cluster_rmsd>  (45) 
0.11

>  <cluster>  (45) 
7

$$$$

     RDKit          3D

 55 58  0  0  0  0  0  0  0  0999 V2000
  141.5360   72.2800  221.5580 O   0  0  0  0  0  0  0  0  0  0  0  0
  140.6490   72.5110  222.4200 C   0  0  0  0  0  0  0  0  0  0  0  0
  139.9780   73.7900  222.2620 N   0  0  0  0  0  0  0  0  0  0  0  0
  140.4040   74.5920  221.1690 C   0  0  0  0  0  0  0  0  0  0  0  0
  141.0910   75.8530  221.4150 C   0  0  0  0  0  0  0  0  0  0  0  0
  141.0390   76.2270  222.6630 O   0  0  0  0  0  0  0  0  0  0  0  0
  141.7780   76.7190  220.5700 N   0  0  0  0  0  0  0  0  0  0  0  0
  141.8150   78.1750  220.6200 C   0  0  0  0  0  0  0  0  0  0  0  0
  141.2600   78.7770  219.3680 C   0  0  0  0  0  0  0  0  0  0  0  0
  141.5710   78.0230  218.1190 C   0  0  0  0  0  0  0  0  0  0  0  0
  141.7130   76.5420  218.2320 C   0  0  0  0  0  0  0  0  0  0  0  0
  142.5610   76.2080  219.4100 C   0  0  2  0  0  0  0  0  0  0  0  0
  143.0460   74.8550  219.5380 C   0  0  0  0  0  0  0  0  0  0  0  0
  144.0490   74.5810  220.4590 C   0  0  0  0  0  0  0  0  0  0  0  0
  144.5420   73.3080  220.6660 C   0  0  0  0  0  0  0  0  0  0  0  0
  144.0440   72.2390  219.9490 C   0  0  0  0  0  0  0  0  0  0  0  0
  144.4960   70.9360  220.1100 O   0  0  0  0  0  0  0  0  0  0  0  0
  145.0310   70.1770  219.0360 C   0  0  0  0  0  0  0  0  0  0  0  0
  145.9160   70.9130  218.2870 F   0  0  0  0  0  0  0  0  0  0  0  0
  143.9730   69.8120  218.1960 F   0  0  0  0  0  0  0  0  0  0  0  0
  145.6080   69.0070  219.4720 F   0  0  0  0  0  0  0  0  0  0  0  0
  143.0470   72.5030  219.0330 C   0  0  0  0  0  0  0  0  0  0  0  0
  142.5600   73.7780  218.8310 C   0  0  0  0  0  0  0  0  0  0  0  0
  140.3010   71.5980  223.4930 C   0  0  0  0  0  0  0  0  0  0  0  0
  139.5760   70.4770  223.1630 C   0  0  0  0  0  0  0  0  0  0  0  0
  139.2590   69.6220  224.2210 C   0  0  0  0  0  0  0  0  0  0  0  0
  139.6670   69.9130  225.5150 C   0  0  0  0  0  0  0  0  0  0  0  0
  139.3800   69.1000  226.5870 C   0  0  0  0  0  0  0  0  0  0  0  0
  139.8000   69.4240  227.8490 C   0  0  0  0  0  0  0  0  0  0  0  0
  140.5350   70.5800  228.1140 C   0  0  0  0  0  0  0  0  0  0  0  0
  140.8260   71.3980  227.0420 C   0  0  0  0  0  0  0  0  0  0  0  0
  140.3950   71.0590  225.7750 C   0  0  0  0  0  0  0  0  0  0  0  0
  140.6950   71.8780  224.7510 N   0  0  0  0  0  0  0  0  0  0  0  0
  139.2290   74.0510  222.9440 H   0  0  0  0  0  0  0  0  0  0  0  0
  141.0842   73.9721  220.5664 H   0  0  0  0  0  0  0  0  0  0  0  0
  139.4587   74.9059  220.7022 H   0  0  0  0  0  0  0  0  0  0  0  0
  141.2186   78.5192  221.4778 H   0  0  0  0  0  0  0  0  0  0  0  0
  142.8634   78.4920  220.7221 H   0  0  0  0  0  0  0  0  0  0  0  0
  140.1662   78.8322  219.4708 H   0  0  0  0  0  0  0  0  0  0  0  0
  141.7367   79.7625  219.2611 H   0  0  0  0  0  0  0  0  0  0  0  0
  140.7617   78.2237  217.4015 H   0  0  0  0  0  0  0  0  0  0  0  0
  142.5656   78.3799  217.8135 H   0  0  0  0  0  0  0  0  0  0  0  0
  140.7189   76.0877  218.3563 H   0  0  0  0  0  0  0  0  0  0  0  0
  142.1862   76.1505  217.3194 H   0  0  0  0  0  0  0  0  0  0  0  0
  143.5455   76.6886  219.3109 H   0  0  0  0  0  0  0  0  0  0  0  0
  144.4672   75.4113  221.0469 H   0  0  0  0  0  0  0  0  0  0  0  0
  145.3376   73.1446  221.4079 H   0  0  0  0  0  0  0  0  0  0  0  0
  142.6278   71.6724  218.4462 H   0  0  0  0  0  0  0  0  0  0  0  0
  141.7649   73.9379  218.0878 H   0  0  0  0  0  0  0  0  0  0  0  0
  139.2648   70.2666  222.1291 H   0  0  0  0  0  0  0  0  0  0  0  0
  138.6794   68.7076  224.0263 H   0  0  0  0  0  0  0  0  0  0  0  0
  138.8046   68.1761  226.4278 H   0  0  0  0  0  0  0  0  0  0  0  0
  139.5497   68.7505  228.6819 H   0  0  0  0  0  0  0  0  0  0  0  0
  140.8677   70.8281  229.1327 H   0  0  0  0  0  0  0  0  0  0  0  0
  141.4024   72.3220  227.1970 H   0  0  0  0  0  0  0  0  0  0  0  0
  1  2  2  0
  2  3  1  0
  3  4  1  0
  4  5  1  0
  5  6  2  0
  5  7  1  0
  7  8  1  0
  8  9  1  0
  9 10  1  0
 10 11  1  0
 11 12  1  0
 12 13  1  0
 13 14  2  0
 14 15  1  0
 15 16  2  0
 16 17  1  0
 17 18  1  0
 18 19  1  0
 18 20  1  0
 18 21  1  0
 16 22  1  0
 22 23  2  0
  2 24  1  0
 24 25  2  0
 25 26  1  0
 26 27  2  0
 27 28  1  0
 28 29  2  0
 29 30  1  0
 30 31  2  0
 31 32  1  0
 32 33  2  0
 12  7  1  0
 23 13  1  0
 33 24  1  0
 32 27  1  0
  3 34  1  0
  4 35  1  0
  4 36  1  0
  8 37  1  0
  8 38  1  0
  9 39  1  0
  9 40  1  0
 10 41  1  0
 10 42  1  0
 11 43  1  0
 11 44  1  0
 12 45  1  6
 14 46  1  0
 15 47  1  0
 22 48  1  0
 23 49  1  0
 25 50  1  0
 26 51  1  0
 28 52  1  0
 29 53  1  0
 30 54  1  0
 31 55  1  0
M  END
>  <smiles>  (46) 
O=C(NCC(=O)N1CCCCC1c1ccc(OC(F)(F)F)cc1)c1ccc2ccccc2n1

>  <score_type>  (46) 
oracle

>  <origin>  (46) 
autodockgpu

>  <m_score__min__energy>  (46) 
-8.5999999999999996

>  <m_primary>  (46) 
energy

>  <rmsd>  (46) 
2.449104606301774

>  <m_score__min__rmsd>  (46) 
2.449104606301774

>  <meeko>  (46) 
{"free_energy": -7.56, "intermolecular_energy": -9.65, "internal_energy": -1.91, "cluster_size": 9, "cluster_id": 1, "rank_in_cluster": 7}

>  <energy>  (46) 
-6.88

>  <cluster_rmsd>  (46) 
0.1

>  <cluster>  (46) 
7

$$$$

     RDKit          3D

 55 58  0  0  0  0  0  0  0  0999 V2000
  139.1040   75.2560  221.3820 O   0  0  0  0  0  0  0  0  0  0  0  0
  140.1670   75.8010  221.7810 C   0  0  0  0  0  0  0  0  0  0  0  0
  141.3480   74.9620  221.6750 N   0  0  0  0  0  0  0  0  0  0  0  0
  141.1480   73.6610  221.1390 C   0  0  0  0  0  0  0  0  0  0  0  0
  141.7020   73.3160  219.8370 C   0  0  0  0  0  0  0  0  0  0  0  0
  140.7910   73.1850  218.9130 O   0  0  0  0  0  0  0  0  0  0  0  0
  143.0080   73.1000  219.4090 N   0  0  0  0  0  0  0  0  0  0  0  0
  143.6530   71.8270  219.1140 C   0  0  0  0  0  0  0  0  0  0  0  0
  144.8250   71.5890  220.0140 C   0  0  0  0  0  0  0  0  0  0  0  0
  145.6110   72.8100  220.3540 C   0  0  0  0  0  0  0  0  0  0  0  0
  144.8690   74.1030  220.4270 C   0  0  0  0  0  0  0  0  0  0  0  0
  143.9670   74.2300  219.2490 C   0  0  2  0  0  0  0  0  0  0  0  0
  143.3680   75.5160  218.9850 C   0  0  0  0  0  0  0  0  0  0  0  0
  142.9860   75.8300  217.6870 C   0  0  0  0  0  0  0  0  0  0  0  0
  142.3760   77.0240  217.3580 C   0  0  0  0  0  0  0  0  0  0  0  0
  142.1190   77.9690  218.3310 C   0  0  0  0  0  0  0  0  0  0  0  0
  141.5090   79.1880  218.0670 O   0  0  0  0  0  0  0  0  0  0  0  0
  141.1120   80.0810  219.0960 C   0  0  0  0  0  0  0  0  0  0  0  0
  142.1820   80.4880  219.8540 F   0  0  0  0  0  0  0  0  0  0  0  0
  140.2330   79.3990  219.9450 F   0  0  0  0  0  0  0  0  0  0  0  0
  140.4200   81.1610  218.6010 F   0  0  0  0  0  0  0  0  0  0  0  0
  142.4950   77.6640  219.6230 C   0  0  0  0  0  0  0  0  0  0  0  0
  143.1050   76.4690  219.9430 C   0  0  0  0  0  0  0  0  0  0  0  0
  140.2380   77.1520  222.3060 C   0  0  0  0  0  0  0  0  0  0  0  0
  139.0530   77.7730  222.6240 C   0  0  0  0  0  0  0  0  0  0  0  0
  139.1610   79.0720  223.1260 C   0  0  0  0  0  0  0  0  0  0  0  0
  140.4020   79.6710  223.2840 C   0  0  0  0  0  0  0  0  0  0  0  0
  140.5570   80.9470  223.7760 C   0  0  0  0  0  0  0  0  0  0  0  0
  141.8000   81.5020  223.9150 C   0  0  0  0  0  0  0  0  0  0  0  0
  142.9650   80.8130  223.5720 C   0  0  0  0  0  0  0  0  0  0  0  0
  142.8140   79.5340  223.0800 C   0  0  0  0  0  0  0  0  0  0  0  0
  141.5550   78.9870  222.9440 C   0  0  0  0  0  0  0  0  0  0  0  0
  141.4420   77.7370  222.4600 N   0  0  0  0  0  0  0  0  0  0  0  0
  142.2670   75.3490  221.9900 H   0  0  0  0  0  0  0  0  0  0  0  0
  141.5732   72.9505  221.8632 H   0  0  0  0  0  0  0  0  0  0  0  0
  140.0618   73.6219  220.9696 H   0  0  0  0  0  0  0  0  0  0  0  0
  142.9238   71.0153  219.2532 H   0  0  0  0  0  0  0  0  0  0  0  0
  144.0132   71.8532  218.0750 H   0  0  0  0  0  0  0  0  0  0  0  0
  144.4529   71.1496  220.9513 H   0  0  0  0  0  0  0  0  0  0  0  0
  145.5077   70.9246  219.4640 H   0  0  0  0  0  0  0  0  0  0  0  0
  146.0768   72.6404  221.3360 H   0  0  0  0  0  0  0  0  0  0  0  0
  146.3148   72.9349  219.5179 H   0  0  0  0  0  0  0  0  0  0  0  0
  144.2713   74.1302  221.3501 H   0  0  0  0  0  0  0  0  0  0  0  0
  145.5872   74.9361  220.4279 H   0  0  0  0  0  0  0  0  0  0  0  0
  144.5542   74.1679  218.3209 H   0  0  0  0  0  0  0  0  0  0  0  0
  143.1772   75.0976  216.8888 H   0  0  0  0  0  0  0  0  0  0  0  0
  142.0930   77.2236  216.3140 H   0  0  0  0  0  0  0  0  0  0  0  0
  142.3026   78.3956  220.4216 H   0  0  0  0  0  0  0  0  0  0  0  0
  143.3878   76.2730  220.9878 H   0  0  0  0  0  0  0  0  0  0  0  0
  138.0800   77.2773  222.4912 H   0  0  0  0  0  0  0  0  0  0  0  0
  138.2511   79.6265  223.3993 H   0  0  0  0  0  0  0  0  0  0  0  0
  139.6686   81.5293  224.0617 H   0  0  0  0  0  0  0  0  0  0  0  0
  141.8842   82.5251  224.3101 H   0  0  0  0  0  0  0  0  0  0  0  0
  143.9586   81.2701  223.6891 H   0  0  0  0  0  0  0  0  0  0  0  0
  143.7002   78.9479  222.7950 H   0  0  0  0  0  0  0  0  0  0  0  0
  1  2  2  0
  2  3  1  0
  3  4  1  0
  4  5  1  0
  5  6  2  0
  5  7  1  0
  7  8  1  0
  8  9  1  0
  9 10  1  0
 10 11  1  0
 11 12  1  0
 12 13  1  0
 13 14  2  0
 14 15  1  0
 15 16  2  0
 16 17  1  0
 17 18  1  0
 18 19  1  0
 18 20  1  0
 18 21  1  0
 16 22  1  0
 22 23  2  0
  2 24  1  0
 24 25  2  0
 25 26  1  0
 26 27  2  0
 27 28  1  0
 28 29  2  0
 29 30  1  0
 30 31  2  0
 31 32  1  0
 32 33  2  0
 12  7  1  0
 23 13  1  0
 33 24  1  0
 32 27  1  0
  3 34  1  0
  4 35  1  0
  4 36  1  0
  8 37  1  0
  8 38  1  0
  9 39  1  0
  9 40  1  0
 10 41  1  0
 10 42  1  0
 11 43  1  0
 11 44  1  0
 12 45  1  6
 14 46  1  0
 15 47  1  0
 22 48  1  0
 23 49  1  0
 25 50  1  0
 26 51  1  0
 28 52  1  0
 29 53  1  0
 30 54  1  0
 31 55  1  0
M  END
>  <smiles>  (47) 
O=C(NCC(=O)N1CCCCC1c1ccc(OC(F)(F)F)cc1)c1ccc2ccccc2n1

>  <score_type>  (47) 
oracle

>  <origin>  (47) 
autodockgpu

>  <m_score__min__energy>  (47) 
-8.5999999999999996

>  <m_primary>  (47) 
energy

>  <rmsd>  (47) 
7.6523520712585915

>  <m_score__min__rmsd>  (47) 
7.6523520712585915

>  <meeko>  (47) 
{"free_energy": -6.92, "intermolecular_energy": -9.01, "internal_energy": -2.93, "cluster_size": 26, "cluster_id": 5, "rank_in_cluster": 8}

>  <energy>  (47) 
-6.85

>  <cluster_rmsd>  (47) 
0.25

>  <cluster>  (47) 
7

$$$$

     RDKit          3D

 55 58  0  0  0  0  0  0  0  0999 V2000
  141.8700   71.7220  221.6860 O   0  0  0  0  0  0  0  0  0  0  0  0
  140.7530   71.8700  222.2480 C   0  0  0  0  0  0  0  0  0  0  0  0
  139.8010   72.6630  221.4900 N   0  0  0  0  0  0  0  0  0  0  0  0
  140.2500   73.1530  220.2340 C   0  0  0  0  0  0  0  0  0  0  0  0
  140.2600   74.5860  219.9720 C   0  0  0  0  0  0  0  0  0  0  0  0
  139.6400   74.9070  218.8710 O   0  0  0  0  0  0  0  0  0  0  0  0
  140.8050   75.6570  220.6730 N   0  0  0  0  0  0  0  0  0  0  0  0
  140.1360   76.5380  221.6210 C   0  0  0  0  0  0  0  0  0  0  0  0
  140.1520   77.9580  221.1490 C   0  0  0  0  0  0  0  0  0  0  0  0
  141.3970   78.3670  220.4360 C   0  0  0  0  0  0  0  0  0  0  0  0
  142.1150   77.3160  219.6570 C   0  0  0  0  0  0  0  0  0  0  0  0
  142.2220   76.0730  220.4700 C   0  0  2  0  0  0  0  0  0  0  0  0
  143.1120   75.0340  220.0130 C   0  0  0  0  0  0  0  0  0  0  0  0
  143.3420   74.8930  218.6500 C   0  0  0  0  0  0  0  0  0  0  0  0
  144.2060   73.9470  218.1350 C   0  0  0  0  0  0  0  0  0  0  0  0
  144.8870   73.0900  218.9750 C   0  0  0  0  0  0  0  0  0  0  0  0
  145.7690   72.1180  218.5210 O   0  0  0  0  0  0  0  0  0  0  0  0
  145.4890   70.7300  218.6170 C   0  0  0  0  0  0  0  0  0  0  0  0
  145.3150   70.1620  217.3790 F   0  0  0  0  0  0  0  0  0  0  0  0
  144.2890   70.5780  219.3200 F   0  0  0  0  0  0  0  0  0  0  0  0
  146.4520   70.0600  219.3350 F   0  0  0  0  0  0  0  0  0  0  0  0
  144.6640   73.2240  220.3300 C   0  0  0  0  0  0  0  0  0  0  0  0
  143.7990   74.1710  220.8370 C   0  0  0  0  0  0  0  0  0  0  0  0
  140.4150   71.3080  223.5420 C   0  0  0  0  0  0  0  0  0  0  0  0
  139.6160   70.1880  223.5590 C   0  0  0  0  0  0  0  0  0  0  0  0
  139.3110   69.6750  224.8220 C   0  0  0  0  0  0  0  0  0  0  0  0
  139.8010   70.2810  225.9710 C   0  0  0  0  0  0  0  0  0  0  0  0
  139.5280   69.8110  227.2350 C   0  0  0  0  0  0  0  0  0  0  0  0
  140.0300   70.4380  228.3430 C   0  0  0  0  0  0  0  0  0  0  0  0
  140.8370   71.5730  228.2530 C   0  0  0  0  0  0  0  0  0  0  0  0
  141.1130   72.0480  226.9880 C   0  0  0  0  0  0  0  0  0  0  0  0
  140.6000   71.4050  225.8800 C   0  0  0  0  0  0  0  0  0  0  0  0
  140.8880   71.8930  224.6590 N   0  0  0  0  0  0  0  0  0  0  0  0
  138.8520   72.8300  221.8970 H   0  0  0  0  0  0  0  0  0  0  0  0
  141.2839   72.7998  220.1067 H   0  0  0  0  0  0  0  0  0  0  0  0
  139.4951   72.7728  219.5300 H   0  0  0  0  0  0  0  0  0  0  0  0
  139.0922   76.2113  221.7385 H   0  0  0  0  0  0  0  0  0  0  0  0
  140.6710   76.4853  222.5807 H   0  0  0  0  0  0  0  0  0  0  0  0
  139.3031   78.1004  220.4641 H   0  0  0  0  0  0  0  0  0  0  0  0
  140.0921   78.5846  222.0511 H   0  0  0  0  0  0  0  0  0  0  0  0
  141.1279   79.1716  219.7358 H   0  0  0  0  0  0  0  0  0  0  0  0
  142.0975   78.6563  221.2332 H   0  0  0  0  0  0  0  0  0  0  0  0
  141.5582   77.1016  218.7329 H   0  0  0  0  0  0  0  0  0  0  0  0
  143.1241   77.6747  219.4058 H   0  0  0  0  0  0  0  0  0  0  0  0
  142.7477   76.2866  221.4123 H   0  0  0  0  0  0  0  0  0  0  0  0
  142.8148   75.5616  217.9535 H   0  0  0  0  0  0  0  0  0  0  0  0
  144.3524   73.8761  217.0471 H   0  0  0  0  0  0  0  0  0  0  0  0
  145.1917   72.5558  221.0264 H   0  0  0  0  0  0  0  0  0  0  0  0
  143.6545   74.2384  221.9254 H   0  0  0  0  0  0  0  0  0  0  0  0
  139.2404   69.7249  222.6346 H   0  0  0  0  0  0  0  0  0  0  0  0
  138.6756   68.7811  224.9071 H   0  0  0  0  0  0  0  0  0  0  0  0
  138.8970   68.9182  227.3567 H   0  0  0  0  0  0  0  0  0  0  0  0
  139.7894   70.0340  229.3374 H   0  0  0  0  0  0  0  0  0  0  0  0
  141.2354   72.0670  229.1515 H   0  0  0  0  0  0  0  0  0  0  0  0
  141.7431   72.9408  226.8621 H   0  0  0  0  0  0  0  0  0  0  0  0
  1  2  2  0
  2  3  1  0
  3  4  1  0
  4  5  1  0
  5  6  2  0
  5  7  1  0
  7  8  1  0
  8  9  1  0
  9 10  1  0
 10 11  1  0
 11 12  1  0
 12 13  1  0
 13 14  2  0
 14 15  1  0
 15 16  2  0
 16 17  1  0
 17 18  1  0
 18 19  1  0
 18 20  1  0
 18 21  1  0
 16 22  1  0
 22 23  2  0
  2 24  1  0
 24 25  2  0
 25 26  1  0
 26 27  2  0
 27 28  1  0
 28 29  2  0
 29 30  1  0
 30 31  2  0
 31 32  1  0
 32 33  2  0
 12  7  1  0
 23 13  1  0
 33 24  1  0
 32 27  1  0
  3 34  1  0
  4 35  1  0
  4 36  1  0
  8 37  1  0
  8 38  1  0
  9 39  1  0
  9 40  1  0
 10 41  1  0
 10 42  1  0
 11 43  1  0
 11 44  1  0
 12 45  1  1
 14 46  1  0
 15 47  1  0
 22 48  1  0
 23 49  1  0
 25 50  1  0
 26 51  1  0
 28 52  1  0
 29 53  1  0
 30 54  1  0
 31 55  1  0
M  END
>  <smiles>  (48) 
O=C(NCC(=O)N1CCCCC1c1ccc(OC(F)(F)F)cc1)c1ccc2ccccc2n1

>  <score_type>  (48) 
oracle

>  <origin>  (48) 
autodockgpu

>  <m_score__min__energy>  (48) 
-8.5999999999999996

>  <m_primary>  (48) 
energy

>  <rmsd>  (48) 
2.426526842692408

>  <m_score__min__rmsd>  (48) 
2.426526842692408

>  <meeko>  (48) 
{"free_energy": -7.53, "intermolecular_energy": -9.61, "internal_energy": -1.84, "cluster_size": 9, "cluster_id": 1, "rank_in_cluster": 8}

>  <energy>  (48) 
-6.85

>  <cluster_rmsd>  (48) 
0.18

>  <cluster>  (48) 
7

$$$$

     RDKit          3D

 55 58  0  0  0  0  0  0  0  0999 V2000
  140.4480   71.4990  221.2690 O   0  0  0  0  0  0  0  0  0  0  0  0
  140.0420   71.9950  222.3530 C   0  0  0  0  0  0  0  0  0  0  0  0
  139.5590   73.3600  222.2430 N   0  0  0  0  0  0  0  0  0  0  0  0
  139.6050   73.9410  220.9470 C   0  0  0  0  0  0  0  0  0  0  0  0
  140.8590   74.4750  220.4310 C   0  0  0  0  0  0  0  0  0  0  0  0
  141.4750   73.6480  219.6330 O   0  0  0  0  0  0  0  0  0  0  0  0
  141.5080   75.6880  220.6370 N   0  0  0  0  0  0  0  0  0  0  0  0
  141.0030   76.8650  221.3330 C   0  0  0  0  0  0  0  0  0  0  0  0
  140.9290   78.0480  220.4180 C   0  0  0  0  0  0  0  0  0  0  0  0
  142.0320   78.1360  219.4180 C   0  0  0  0  0  0  0  0  0  0  0  0
  142.6150   76.8520  218.9280 C   0  0  0  0  0  0  0  0  0  0  0  0
  142.8660   75.9430  220.0800 C   0  0  2  0  0  0  0  0  0  0  0  0
  143.6740   74.7680  219.8570 C   0  0  0  0  0  0  0  0  0  0  0  0
  143.9910   74.4030  218.5550 C   0  0  0  0  0  0  0  0  0  0  0  0
  144.7860   73.3140  218.2600 C   0  0  0  0  0  0  0  0  0  0  0  0
  145.3060   72.5320  219.2710 C   0  0  0  0  0  0  0  0  0  0  0  0
  146.1120   71.4250  219.0410 O   0  0  0  0  0  0  0  0  0  0  0  0
  145.5890   70.1080  218.9500 C   0  0  0  0  0  0  0  0  0  0  0  0
  146.4870   69.1750  219.4090 F   0  0  0  0  0  0  0  0  0  0  0  0
  145.3480   69.8310  217.6000 F   0  0  0  0  0  0  0  0  0  0  0  0
  144.3820   69.9890  219.5980 F   0  0  0  0  0  0  0  0  0  0  0  0
  144.9960   72.8880  220.5680 C   0  0  0  0  0  0  0  0  0  0  0  0
  144.2000   73.9780  220.8550 C   0  0  0  0  0  0  0  0  0  0  0  0
  140.0430   71.2880  223.6190 C   0  0  0  0  0  0  0  0  0  0  0  0
  139.5300   70.0120  223.6350 C   0  0  0  0  0  0  0  0  0  0  0  0
  139.5470   69.3630  224.8720 C   0  0  0  0  0  0  0  0  0  0  0  0
  140.0580   69.9940  225.9970 C   0  0  0  0  0  0  0  0  0  0  0  0
  140.0960   69.3930  227.2350 C   0  0  0  0  0  0  0  0  0  0  0  0
  140.6080   70.0510  228.3210 C   0  0  0  0  0  0  0  0  0  0  0  0
  141.1140   71.3480  228.2340 C   0  0  0  0  0  0  0  0  0  0  0  0
  141.0780   71.9540  226.9950 C   0  0  0  0  0  0  0  0  0  0  0  0
  140.5590   71.2790  225.9090 C   0  0  0  0  0  0  0  0  0  0  0  0
  140.5380   71.8970  224.7140 N   0  0  0  0  0  0  0  0  0  0  0  0
  139.2080   73.8380  223.1050 H   0  0  0  0  0  0  0  0  0  0  0  0
  139.2753   73.1657  220.2398 H   0  0  0  0  0  0  0  0  0  0  0  0
  138.9727   74.8353  221.0487 H   0  0  0  0  0  0  0  0  0  0  0  0
  139.9966   76.6480  221.7202 H   0  0  0  0  0  0  0  0  0  0  0  0
  141.6930   77.1048  222.1554 H   0  0  0  0  0  0  0  0  0  0  0  0
  139.9753   77.9990  219.8720 H   0  0  0  0  0  0  0  0  0  0  0  0
  141.0186   78.9391  221.0566 H   0  0  0  0  0  0  0  0  0  0  0  0
  141.6427   78.6774  218.5432 H   0  0  0  0  0  0  0  0  0  0  0  0
  142.8555   78.6361  219.9487 H   0  0  0  0  0  0  0  0  0  0  0  0
  141.9113   76.3733  218.2311 H   0  0  0  0  0  0  0  0  0  0  0  0
  143.5645   77.0566  218.4117 H   0  0  0  0  0  0  0  0  0  0  0  0
  143.5412   76.4292  220.7995 H   0  0  0  0  0  0  0  0  0  0  0  0
  143.5925   75.0059  217.7257 H   0  0  0  0  0  0  0  0  0  0  0  0
  145.0068   73.0676  217.2109 H   0  0  0  0  0  0  0  0  0  0  0  0
  145.3951   72.2852  221.3971 H   0  0  0  0  0  0  0  0  0  0  0  0
  143.9805   74.2215  221.9050 H   0  0  0  0  0  0  0  0  0  0  0  0
  139.1308   69.5319  222.7294 H   0  0  0  0  0  0  0  0  0  0  0  0
  139.1508   68.3402  224.9550 H   0  0  0  0  0  0  0  0  0  0  0  0
  139.7096   68.3699  227.3533 H   0  0  0  0  0  0  0  0  0  0  0  0
  140.6208   69.5397  229.2949 H   0  0  0  0  0  0  0  0  0  0  0  0
  141.5236   71.8648  229.1144 H   0  0  0  0  0  0  0  0  0  0  0  0
  141.4636   72.9769  226.8726 H   0  0  0  0  0  0  0  0  0  0  0  0
  1  2  2  0
  2  3  1  0
  3  4  1  0
  4  5  1  0
  5  6  2  0
  5  7  1  0
  7  8  1  0
  8  9  1  0
  9 10  1  0
 10 11  1  0
 11 12  1  0
 12 13  1  0
 13 14  2  0
 14 15  1  0
 15 16  2  0
 16 17  1  0
 17 18  1  0
 18 19  1  0
 18 20  1  0
 18 21  1  0
 16 22  1  0
 22 23  2  0
  2 24  1  0
 24 25  2  0
 25 26  1  0
 26 27  2  0
 27 28  1  0
 28 29  2  0
 29 30  1  0
 30 31  2  0
 31 32  1  0
 32 33  2  0
 12  7  1  0
 23 13  1  0
 33 24  1  0
 32 27  1  0
  3 34  1  0
  4 35  1  0
  4 36  1  0
  8 37  1  0
  8 38  1  0
  9 39  1  0
  9 40  1  0
 10 41  1  0
 10 42  1  0
 11 43  1  0
 11 44  1  0
 12 45  1  1
 14 46  1  0
 15 47  1  0
 22 48  1  0
 23 49  1  0
 25 50  1  0
 26 51  1  0
 28 52  1  0
 29 53  1  0
 30 54  1  0
 31 55  1  0
M  END
>  <smiles>  (49) 
O=C(NCC(=O)N1CCCCC1c1ccc(OC(F)(F)F)cc1)c1ccc2ccccc2n1

>  <score_type>  (49) 
oracle

>  <origin>  (49) 
autodockgpu

>  <m_score__min__energy>  (49) 
-8.5999999999999996

>  <m_primary>  (49) 
energy

>  <rmsd>  (49) 
2.239246450908077

>  <m_score__min__rmsd>  (49) 
2.239246450908077

>  <meeko>  (49) 
{"free_energy": -8.6, "intermolecular_energy": -10.69, "internal_energy": -1.15, "cluster_size": 9, "cluster_id": 1, "rank_in_cluster": 1}

>  <energy>  (49) 
-6.76

>  <cluster_rmsd>  (49) 
0.25

>  <cluster>  (49) 
7

$$$$

     RDKit          3D

 55 58  0  0  0  0  0  0  0  0999 V2000
  139.1230   75.1100  221.5540 O   0  0  0  0  0  0  0  0  0  0  0  0
  140.1920   75.7020  221.8580 C   0  0  0  0  0  0  0  0  0  0  0  0
  141.3910   74.9020  221.6800 N   0  0  0  0  0  0  0  0  0  0  0  0
  141.1990   73.5820  221.1900 C   0  0  0  0  0  0  0  0  0  0  0  0
  141.7920   73.1810  219.9210 C   0  0  0  0  0  0  0  0  0  0  0  0
  140.9110   72.7580  219.0580 O   0  0  0  0  0  0  0  0  0  0  0  0
  143.1080   73.1670  219.4730 N   0  0  0  0  0  0  0  0  0  0  0  0
  143.9390   72.0060  219.1790 C   0  0  0  0  0  0  0  0  0  0  0  0
  145.1480   71.9640  220.0600 C   0  0  0  0  0  0  0  0  0  0  0  0
  145.7390   73.2970  220.3750 C   0  0  0  0  0  0  0  0  0  0  0  0
  144.8050   74.4590  220.4490 C   0  0  0  0  0  0  0  0  0  0  0  0
  143.8760   74.4300  219.2850 C   0  0  2  0  0  0  0  0  0  0  0  0
  143.0800   75.6040  219.0200 C   0  0  0  0  0  0  0  0  0  0  0  0
  142.2390   75.6150  217.9150 C   0  0  0  0  0  0  0  0  0  0  0  0
  141.4210   76.6840  217.6120 C   0  0  0  0  0  0  0  0  0  0  0  0
  141.4100   77.8070  218.4160 C   0  0  0  0  0  0  0  0  0  0  0  0
  140.6110   78.9150  218.1670 O   0  0  0  0  0  0  0  0  0  0  0  0
  139.8050   79.5140  219.1700 C   0  0  0  0  0  0  0  0  0  0  0  0
  140.5650   80.1720  220.1050 F   0  0  0  0  0  0  0  0  0  0  0  0
  139.1130   78.4950  219.8340 F   0  0  0  0  0  0  0  0  0  0  0  0
  138.8540   80.3490  218.6320 F   0  0  0  0  0  0  0  0  0  0  0  0
  142.2420   77.8040  219.5160 C   0  0  0  0  0  0  0  0  0  0  0  0
  143.0580   76.7310  219.8120 C   0  0  0  0  0  0  0  0  0  0  0  0
  140.2540   77.0660  222.3470 C   0  0  0  0  0  0  0  0  0  0  0  0
  139.0640   77.6890  222.6460 C   0  0  0  0  0  0  0  0  0  0  0  0
  139.1630   79.0020  223.1130 C   0  0  0  0  0  0  0  0  0  0  0  0
  140.4000   79.6120  223.2560 C   0  0  0  0  0  0  0  0  0  0  0  0
  140.5460   80.9020  223.7130 C   0  0  0  0  0  0  0  0  0  0  0  0
  141.7860   81.4690  223.8390 C   0  0  0  0  0  0  0  0  0  0  0  0
  142.9550   80.7780  223.5160 C   0  0  0  0  0  0  0  0  0  0  0  0
  142.8140   79.4860  223.0580 C   0  0  0  0  0  0  0  0  0  0  0  0
  141.5580   78.9270  222.9360 C   0  0  0  0  0  0  0  0  0  0  0  0
  141.4530   77.6630  222.4860 N   0  0  0  0  0  0  0  0  0  0  0  0
  142.3170   75.3280  221.9150 H   0  0  0  0  0  0  0  0  0  0  0  0
  141.5955   72.8987  221.9554 H   0  0  0  0  0  0  0  0  0  0  0  0
  140.1186   73.5431  220.9869 H   0  0  0  0  0  0  0  0  0  0  0  0
  143.3475   71.0925  219.3389 H   0  0  0  0  0  0  0  0  0  0  0  0
  144.2741   72.0753  218.1336 H   0  0  0  0  0  0  0  0  0  0  0  0
  144.8643   71.4828  221.0076 H   0  0  0  0  0  0  0  0  0  0  0  0
  145.9171   71.4078  219.5041 H   0  0  0  0  0  0  0  0  0  0  0  0
  146.2411   73.2139  221.3502 H   0  0  0  0  0  0  0  0  0  0  0  0
  146.4014   73.5204  219.5257 H   0  0  0  0  0  0  0  0  0  0  0  0
  144.2246   74.4030  221.3818 H   0  0  0  0  0  0  0  0  0  0  0  0
  145.3840   75.3941  220.4304 H   0  0  0  0  0  0  0  0  0  0  0  0
  144.4504   74.4488  218.3471 H   0  0  0  0  0  0  0  0  0  0  0  0
  142.2244   74.7356  217.2543 H   0  0  0  0  0  0  0  0  0  0  0  0
  140.7732   76.6416  216.7240 H   0  0  0  0  0  0  0  0  0  0  0  0
  142.2556   78.6830  220.1771 H   0  0  0  0  0  0  0  0  0  0  0  0
  143.7053   76.7767  220.7002 H   0  0  0  0  0  0  0  0  0  0  0  0
  138.0942   77.1842  222.5247 H   0  0  0  0  0  0  0  0  0  0  0  0
  138.2494   79.5581  223.3702 H   0  0  0  0  0  0  0  0  0  0  0  0
  139.6533   81.4862  223.9810 H   0  0  0  0  0  0  0  0  0  0  0  0
  141.8634   82.5028  224.2068 H   0  0  0  0  0  0  0  0  0  0  0  0
  143.9455   81.2444  223.6224 H   0  0  0  0  0  0  0  0  0  0  0  0
  143.7045   78.8989  222.7890 H   0  0  0  0  0  0  0  0  0  0  0  0
  1  2  2  0
  2  3  1  0
  3  4  1  0
  4  5  1  0
  5  6  2  0
  5  7  1  0
  7  8  1  0
  8  9  1  0
  9 10  1  0
 10 11  1  0
 11 12  1  0
 12 13  1  0
 13 14  2  0
 14 15  1  0
 15 16  2  0
 16 17  1  0
 17 18  1  0
 18 19  1  0
 18 20  1  0
 18 21  1  0
 16 22  1  0
 22 23  2  0
  2 24  1  0
 24 25  2  0
 25 26  1  0
 26 27  2  0
 27 28  1  0
 28 29  2  0
 29 30  1  0
 30 31  2  0
 31 32  1  0
 32 33  2  0
 12  7  1  0
 23 13  1  0
 33 24  1  0
 32 27  1  0
  3 34  1  0
  4 35  1  0
  4 36  1  0
  8 37  1  0
  8 38  1  0
  9 39  1  0
  9 40  1  0
 10 41  1  0
 10 42  1  0
 11 43  1  0
 11 44  1  0
 12 45  1  6
 14 46  1  0
 15 47  1  0
 22 48  1  0
 23 49  1  0
 25 50  1  0
 26 51  1  0
 28 52  1  0
 29 53  1  0
 30 54  1  0
 31 55  1  0
M  END
>  <smiles>  (50) 
O=C(NCC(=O)N1CCCCC1c1ccc(OC(F)(F)F)cc1)c1ccc2ccccc2n1

>  <score_type>  (50) 
oracle

>  <origin>  (50) 
autodockgpu

>  <m_score__min__energy>  (50) 
-8.5999999999999996

>  <m_primary>  (50) 
energy

>  <rmsd>  (50) 
7.618856608519385

>  <m_score__min__rmsd>  (50) 
7.618856608519385

>  <meeko>  (50) 
{"free_energy": -6.69, "intermolecular_energy": -8.78, "internal_energy": -3.19, "cluster_size": 26, "cluster_id": 5, "rank_in_cluster": 24}

>  <energy>  (50) 
-6.7

>  <cluster_rmsd>  (50) 
0.3

>  <cluster>  (50) 
7

$$$$

     RDKit          3D

 55 58  0  0  0  0  0  0  0  0999 V2000
  138.9850   75.3370  221.4330 O   0  0  0  0  0  0  0  0  0  0  0  0
  140.1160   75.7950  221.8060 C   0  0  0  0  0  0  0  0  0  0  0  0
  141.2720   74.9490  221.7250 N   0  0  0  0  0  0  0  0  0  0  0  0
  141.2750   73.6180  221.2500 C   0  0  0  0  0  0  0  0  0  0  0  0
  142.1290   73.2380  220.1310 C   0  0  0  0  0  0  0  0  0  0  0  0
  141.4600   72.7920  219.0990 O   0  0  0  0  0  0  0  0  0  0  0  0
  143.5120   73.2600  219.9670 N   0  0  0  0  0  0  0  0  0  0  0  0
  144.4770   72.3970  220.6680 C   0  0  0  0  0  0  0  0  0  0  0  0
  145.6360   72.0970  219.7140 C   0  0  0  0  0  0  0  0  0  0  0  0
  145.1990   72.1320  218.2810 C   0  0  0  0  0  0  0  0  0  0  0  0
  144.5190   73.3800  217.8370 C   0  0  0  0  0  0  0  0  0  0  0  0
  144.1500   74.1860  219.0300 C   0  0  1  0  0  0  0  0  0  0  0  0
  143.4030   75.4130  218.7680 C   0  0  0  0  0  0  0  0  0  0  0  0
  142.8240   75.7690  217.5810 C   0  0  0  0  0  0  0  0  0  0  0  0
  142.1290   76.9450  217.3870 C   0  0  0  0  0  0  0  0  0  0  0  0
  142.0020   77.8230  218.4440 C   0  0  0  0  0  0  0  0  0  0  0  0
  141.3150   79.0230  218.3190 O   0  0  0  0  0  0  0  0  0  0  0  0
  141.7930   80.2730  218.7270 C   0  0  0  0  0  0  0  0  0  0  0  0
  141.7650   80.2670  220.1240 F   0  0  0  0  0  0  0  0  0  0  0  0
  143.0700   80.4790  218.3050 F   0  0  0  0  0  0  0  0  0  0  0  0
  140.9200   81.3020  218.3690 F   0  0  0  0  0  0  0  0  0  0  0  0
  142.5710   77.5100  219.6690 C   0  0  0  0  0  0  0  0  0  0  0  0
  143.2610   76.3190  219.8220 C   0  0  0  0  0  0  0  0  0  0  0  0
  140.2450   77.1730  222.3140 C   0  0  0  0  0  0  0  0  0  0  0  0
  139.0890   77.8540  222.6290 C   0  0  0  0  0  0  0  0  0  0  0  0
  139.2110   79.1530  223.1080 C   0  0  0  0  0  0  0  0  0  0  0  0
  140.4640   79.7360  223.2610 C   0  0  0  0  0  0  0  0  0  0  0  0
  140.6100   81.0170  223.7330 C   0  0  0  0  0  0  0  0  0  0  0  0
  141.8620   81.5560  223.8690 C   0  0  0  0  0  0  0  0  0  0  0  0
  143.0240   80.8540  223.5450 C   0  0  0  0  0  0  0  0  0  0  0  0
  142.8330   79.5640  223.0720 C   0  0  0  0  0  0  0  0  0  0  0  0
  141.5840   79.0180  222.9350 C   0  0  0  0  0  0  0  0  0  0  0  0
  141.4440   77.7550  222.4690 N   0  0  0  0  0  0  0  0  0  0  0  0
  142.1720   75.3970  222.0570 H   0  0  0  0  0  0  0  0  0  0  0  0
  141.5635   72.9802  222.0986 H   0  0  0  0  0  0  0  0  0  0  0  0
  140.2606   73.4964  220.8422 H   0  0  0  0  0  0  0  0  0  0  0  0
  144.8558   72.9129  221.5626 H   0  0  0  0  0  0  0  0  0  0  0  0
  143.9910   71.4607  220.9797 H   0  0  0  0  0  0  0  0  0  0  0  0
  146.4249   72.8487  219.8644 H   0  0  0  0  0  0  0  0  0  0  0  0
  146.0076   71.0853  219.9341 H   0  0  0  0  0  0  0  0  0  0  0  0
  146.0916   71.9934  217.6533 H   0  0  0  0  0  0  0  0  0  0  0  0
  144.4495   71.3333  218.1796 H   0  0  0  0  0  0  0  0  0  0  0  0
  145.1983   73.9611  217.1961 H   0  0  0  0  0  0  0  0  0  0  0  0
  143.6126   73.1249  217.2684 H   0  0  0  0  0  0  0  0  0  0  0  0
  145.0578   74.6205  219.4740 H   0  0  0  0  0  0  0  0  0  0  0  0
  142.9180   75.0770  216.7311 H   0  0  0  0  0  0  0  0  0  0  0  0
  141.6845   77.1783  216.4082 H   0  0  0  0  0  0  0  0  0  0  0  0
  142.4747   78.2050  220.5162 H   0  0  0  0  0  0  0  0  0  0  0  0
  143.7086   76.0803  220.7981 H   0  0  0  0  0  0  0  0  0  0  0  0
  138.1018   77.3847  222.5053 H   0  0  0  0  0  0  0  0  0  0  0  0
  138.3082   79.7250  223.3684 H   0  0  0  0  0  0  0  0  0  0  0  0
  139.7230   81.6096  224.0015 H   0  0  0  0  0  0  0  0  0  0  0  0
  141.9554   82.5840  224.2491 H   0  0  0  0  0  0  0  0  0  0  0  0
  144.0256   81.2947  223.6573 H   0  0  0  0  0  0  0  0  0  0  0  0
  143.7114   78.9609  222.7985 H   0  0  0  0  0  0  0  0  0  0  0  0
  1  2  2  0
  2  3  1  0
  3  4  1  0
  4  5  1  0
  5  6  2  0
  5  7  1  0
  7  8  1  0
  8  9  1  0
  9 10  1  0
 10 11  1  0
 11 12  1  0
 12 13  1  0
 13 14  2  0
 14 15  1  0
 15 16  2  0
 16 17  1  0
 17 18  1  0
 18 19  1  0
 18 20  1  0
 18 21  1  0
 16 22  1  0
 22 23  2  0
  2 24  1  0
 24 25  2  0
 25 26  1  0
 26 27  2  0
 27 28  1  0
 28 29  2  0
 29 30  1  0
 30 31  2  0
 31 32  1  0
 32 33  2  0
 12  7  1  0
 23 13  1  0
 33 24  1  0
 32 27  1  0
  3 34  1  0
  4 35  1  0
  4 36  1  0
  8 37  1  0
  8 38  1  0
  9 39  1  0
  9 40  1  0
 10 41  1  0
 10 42  1  0
 11 43  1  0
 11 44  1  0
 12 45  1  1
 14 46  1  0
 15 47  1  0
 22 48  1  0
 23 49  1  0
 25 50  1  0
 26 51  1  0
 28 52  1  0
 29 53  1  0
 30 54  1  0
 31 55  1  0
M  END
>  <smiles>  (51) 
O=C(NCC(=O)N1CCCCC1c1ccc(OC(F)(F)F)cc1)c1ccc2ccccc2n1

>  <score_type>  (51) 
oracle

>  <origin>  (51) 
autodockgpu

>  <m_score__min__energy>  (51) 
-8.6099999999999994

>  <m_primary>  (51) 
energy

>  <rmsd>  (51) 
7.749774756106042

>  <m_score__min__rmsd>  (51) 
7.749774756106042

>  <meeko>  (51) 
{"free_energy": -6.78, "intermolecular_energy": -8.87, "internal_energy": -2.84, "cluster_size": 17, "cluster_id": 5, "rank_in_cluster": 3}

>  <energy>  (51) 
-8.61

>  <cluster_rmsd>  (51) 
0.0

>  <cluster>  (51) 
1

$$$$

     RDKit          3D

 55 58  0  0  0  0  0  0  0  0999 V2000
  140.0840   71.0190  221.1770 O   0  0  0  0  0  0  0  0  0  0  0  0
  139.7950   71.7160  222.2060 C   0  0  0  0  0  0  0  0  0  0  0  0
  139.3600   73.0720  222.0310 N   0  0  0  0  0  0  0  0  0  0  0  0
  139.2100   73.7240  220.7860 C   0  0  0  0  0  0  0  0  0  0  0  0
  140.3840   74.1150  220.0140 C   0  0  0  0  0  0  0  0  0  0  0  0
  140.0880   74.6150  218.8420 O   0  0  0  0  0  0  0  0  0  0  0  0
  141.7460   74.0490  220.2950 N   0  0  0  0  0  0  0  0  0  0  0  0
  142.5290   72.8160  220.4810 C   0  0  0  0  0  0  0  0  0  0  0  0
  143.9390   73.0550  219.9360 C   0  0  0  0  0  0  0  0  0  0  0  0
  143.9450   74.0740  218.8380 C   0  0  0  0  0  0  0  0  0  0  0  0
  143.3250   75.3870  219.1650 C   0  0  0  0  0  0  0  0  0  0  0  0
  142.5530   75.2630  220.4290 C   0  0  1  0  0  0  0  0  0  0  0  0
  141.8170   76.4520  220.8500 C   0  0  0  0  0  0  0  0  0  0  0  0
  141.7890   77.6560  220.2020 C   0  0  0  0  0  0  0  0  0  0  0  0
  141.0750   78.7500  220.6460 C   0  0  0  0  0  0  0  0  0  0  0  0
  140.3430   78.6380  221.8100 C   0  0  0  0  0  0  0  0  0  0  0  0
  139.6020   79.6980  222.3140 O   0  0  0  0  0  0  0  0  0  0  0  0
  140.0190   80.5650  223.3290 C   0  0  0  0  0  0  0  0  0  0  0  0
  140.9130   79.8390  224.1220 F   0  0  0  0  0  0  0  0  0  0  0  0
  140.6560   81.6560  222.8220 F   0  0  0  0  0  0  0  0  0  0  0  0
  138.9740   80.8890  224.1950 F   0  0  0  0  0  0  0  0  0  0  0  0
  140.3390   77.4380  222.5050 C   0  0  0  0  0  0  0  0  0  0  0  0
  141.0680   76.3630  222.0260 C   0  0  0  0  0  0  0  0  0  0  0  0
  139.9040   71.1460  223.5610 C   0  0  0  0  0  0  0  0  0  0  0  0
  139.4490   69.8600  223.7580 C   0  0  0  0  0  0  0  0  0  0  0  0
  139.5520   69.3230  225.0350 C   0  0  0  0  0  0  0  0  0  0  0  0
  140.0980   70.0680  226.0750 C   0  0  0  0  0  0  0  0  0  0  0  0
  140.2100   69.5590  227.3450 C   0  0  0  0  0  0  0  0  0  0  0  0
  140.7530   70.3260  228.3410 C   0  0  0  0  0  0  0  0  0  0  0  0
  141.2090   71.6280  228.1280 C   0  0  0  0  0  0  0  0  0  0  0  0
  141.0780   72.1040  226.8320 C   0  0  0  0  0  0  0  0  0  0  0  0
  140.5360   71.3420  225.8300 C   0  0  0  0  0  0  0  0  0  0  0  0
  140.4270   71.8470  224.5780 N   0  0  0  0  0  0  0  0  0  0  0  0
  139.1440   73.5870  222.9300 H   0  0  0  0  0  0  0  0  0  0  0  0
  138.6204   73.0512  220.1458 H   0  0  0  0  0  0  0  0  0  0  0  0
  138.7602   74.6891  221.0623 H   0  0  0  0  0  0  0  0  0  0  0  0
  142.5812   72.5665  221.5511 H   0  0  0  0  0  0  0  0  0  0  0  0
  142.0529   71.9806  219.9468 H   0  0  0  0  0  0  0  0  0  0  0  0
  144.5819   73.4100  220.7549 H   0  0  0  0  0  0  0  0  0  0  0  0
  144.3120   72.1058  219.5240 H   0  0  0  0  0  0  0  0  0  0  0  0
  144.9919   74.2572  218.5542 H   0  0  0  0  0  0  0  0  0  0  0  0
  143.3293   73.6469  218.0327 H   0  0  0  0  0  0  0  0  0  0  0  0
  144.1125   76.1451  219.2880 H   0  0  0  0  0  0  0  0  0  0  0  0
  142.6518   75.6905  218.3497 H   0  0  0  0  0  0  0  0  0  0  0  0
  143.2481   75.1744  221.2770 H   0  0  0  0  0  0  0  0  0  0  0  0
  142.3693   77.7581  219.2731 H   0  0  0  0  0  0  0  0  0  0  0  0
  141.0892   79.6944  220.0821 H   0  0  0  0  0  0  0  0  0  0  0  0
  139.7583   77.3406  223.4342 H   0  0  0  0  0  0  0  0  0  0  0  0
  141.0572   75.4156  222.5849 H   0  0  0  0  0  0  0  0  0  0  0  0
  139.0181   69.2774  222.9304 H   0  0  0  0  0  0  0  0  0  0  0  0
  139.1984   68.2989  225.2255 H   0  0  0  0  0  0  0  0  0  0  0  0
  139.8644   68.5375  227.5620 H   0  0  0  0  0  0  0  0  0  0  0  0
  140.8332   69.8982  229.3512 H   0  0  0  0  0  0  0  0  0  0  0  0
  141.6436   72.2363  228.9349 H   0  0  0  0  0  0  0  0  0  0  0  0
  141.4194   73.1239  226.6013 H   0  0  0  0  0  0  0  0  0  0  0  0
  1  2  2  0
  2  3  1  0
  3  4  1  0
  4  5  1  0
  5  6  2  0
  5  7  1  0
  7  8  1  0
  8  9  1  0
  9 10  1  0
 10 11  1  0
 11 12  1  0
 12 13  1  0
 13 14  2  0
 14 15  1  0
 15 16  2  0
 16 17  1  0
 17 18  1  0
 18 19  1  0
 18 20  1  0
 18 21  1  0
 16 22  1  0
 22 23  2  0
  2 24  1  0
 24 25  2  0
 25 26  1  0
 26 27  2  0
 27 28  1  0
 28 29  2  0
 29 30  1  0
 30 31  2  0
 31 32  1  0
 32 33  2  0
 12  7  1  0
 23 13  1  0
 33 24  1  0
 32 27  1  0
  3 34  1  0
  4 35  1  0
  4 36  1  0
  8 37  1  0
  8 38  1  0
  9 39  1  0
  9 40  1  0
 10 41  1  0
 10 42  1  0
 11 43  1  0
 11 44  1  0
 12 45  1  1
 14 46  1  0
 15 47  1  0
 22 48  1  0
 23 49  1  0
 25 50  1  0
 26 51  1  0
 28 52  1  0
 29 53  1  0
 30 54  1  0
 31 55  1  0
M  END
>  <smiles>  (52) 
O=C(NCC(=O)N1CCCCC1c1ccc(OC(F)(F)F)cc1)c1ccc2ccccc2n1

>  <score_type>  (52) 
oracle

>  <origin>  (52) 
autodockgpu

>  <m_score__min__energy>  (52) 
-8.6099999999999994

>  <m_primary>  (52) 
energy

>  <rmsd>  (52) 
2.5410005653568564

>  <m_score__min__rmsd>  (52) 
2.5410005653568564

>  <meeko>  (52) 
{"free_energy": -7.79, "intermolecular_energy": -9.87, "internal_energy": -1.86, "cluster_size": 16, "cluster_id": 1, "rank_in_cluster": 8}

>  <energy>  (52) 
-8.55

>  <cluster_rmsd>  (52) 
0.24

>  <cluster>  (52) 
1

$$$$

     RDKit          3D

 55 58  0  0  0  0  0  0  0  0999 V2000
  138.9090   75.2620  221.8180 O   0  0  0  0  0  0  0  0  0  0  0  0
  140.0700   75.7650  221.9850 C   0  0  0  0  0  0  0  0  0  0  0  0
  141.2240   74.9430  221.7650 N   0  0  0  0  0  0  0  0  0  0  0  0
  141.1940   73.5890  221.3620 C   0  0  0  0  0  0  0  0  0  0  0  0
  142.3110   73.0170  220.6180 C   0  0  0  0  0  0  0  0  0  0  0  0
  142.0060   71.9050  220.0000 O   0  0  0  0  0  0  0  0  0  0  0  0
  143.6290   73.4360  220.4520 N   0  0  0  0  0  0  0  0  0  0  0  0
  144.8020   72.8870  221.1520 C   0  0  0  0  0  0  0  0  0  0  0  0
  145.9970   72.9310  220.1970 C   0  0  0  0  0  0  0  0  0  0  0  0
  145.5670   72.8390  218.7650 C   0  0  0  0  0  0  0  0  0  0  0  0
  144.5570   73.8380  218.3210 C   0  0  0  0  0  0  0  0  0  0  0  0
  143.9730   74.5060  219.5150 C   0  0  1  0  0  0  0  0  0  0  0  0
  142.9050   75.4660  219.2520 C   0  0  0  0  0  0  0  0  0  0  0  0
  141.7560   75.2260  218.5500 C   0  0  0  0  0  0  0  0  0  0  0  0
  140.7780   76.1740  218.3310 C   0  0  0  0  0  0  0  0  0  0  0  0
  140.9540   77.4420  218.8460 C   0  0  0  0  0  0  0  0  0  0  0  0
  140.0110   78.4440  218.6640 O   0  0  0  0  0  0  0  0  0  0  0  0
  140.2280   79.8080  218.8810 C   0  0  0  0  0  0  0  0  0  0  0  0
  139.1260   80.4730  218.3350 F   0  0  0  0  0  0  0  0  0  0  0  0
  140.3090   80.0940  220.2090 F   0  0  0  0  0  0  0  0  0  0  0  0
  141.3160   80.2820  218.1470 F   0  0  0  0  0  0  0  0  0  0  0  0
  142.1020   77.7370  219.5660 C   0  0  0  0  0  0  0  0  0  0  0  0
  143.0610   76.7580  219.7630 C   0  0  0  0  0  0  0  0  0  0  0  0
  140.2340   77.1700  222.3990 C   0  0  0  0  0  0  0  0  0  0  0  0
  139.0950   77.9190  222.6050 C   0  0  0  0  0  0  0  0  0  0  0  0
  139.2490   79.2440  222.9950 C   0  0  0  0  0  0  0  0  0  0  0  0
  140.5180   79.7860  223.1690 C   0  0  0  0  0  0  0  0  0  0  0  0
  140.6970   81.0920  223.5540 C   0  0  0  0  0  0  0  0  0  0  0  0
  141.9630   81.5890  223.7140 C   0  0  0  0  0  0  0  0  0  0  0  0
  143.1080   80.8200  223.5010 C   0  0  0  0  0  0  0  0  0  0  0  0
  142.8840   79.5070  223.1140 C   0  0  0  0  0  0  0  0  0  0  0  0
  141.6200   79.0020  222.9530 C   0  0  0  0  0  0  0  0  0  0  0  0
  141.4480   77.7150  222.5730 N   0  0  0  0  0  0  0  0  0  0  0  0
  142.1510   75.4270  221.9290 H   0  0  0  0  0  0  0  0  0  0  0  0
  141.0839   72.9892  222.2775 H   0  0  0  0  0  0  0  0  0  0  0  0
  140.3703   73.5640  220.6334 H   0  0  0  0  0  0  0  0  0  0  0  0
  145.0179   73.4909  222.0457 H   0  0  0  0  0  0  0  0  0  0  0  0
  144.6054   71.8509  221.4649 H   0  0  0  0  0  0  0  0  0  0  0  0
  146.5379   73.8771  220.3465 H   0  0  0  0  0  0  0  0  0  0  0  0
  146.6428   72.0681  220.4167 H   0  0  0  0  0  0  0  0  0  0  0  0
  146.4613   72.9626  218.1366 H   0  0  0  0  0  0  0  0  0  0  0  0
  145.0781   71.8587  218.6648 H   0  0  0  0  0  0  0  0  0  0  0  0
  145.0399   74.5890  217.6785 H   0  0  0  0  0  0  0  0  0  0  0  0
  143.7614   73.3326  217.7538 H   0  0  0  0  0  0  0  0  0  0  0  0
  144.7172   75.1836  219.9589 H   0  0  0  0  0  0  0  0  0  0  0  0
  141.6028   74.2185  218.1360 H   0  0  0  0  0  0  0  0  0  0  0  0
  139.8742   75.9236  217.7562 H   0  0  0  0  0  0  0  0  0  0  0  0
  142.2502   78.7456  219.9792 H   0  0  0  0  0  0  0  0  0  0  0  0
  143.9678   77.0027  220.3356 H   0  0  0  0  0  0  0  0  0  0  0  0
  138.0955   77.4815  222.4650 H   0  0  0  0  0  0  0  0  0  0  0  0
  138.3603   79.8689  223.1674 H   0  0  0  0  0  0  0  0  0  0  0  0
  139.8249   81.7379  223.7336 H   0  0  0  0  0  0  0  0  0  0  0  0
  142.0824   82.6379  224.0232 H   0  0  0  0  0  0  0  0  0  0  0  0
  144.1211   81.2282  223.6314 H   0  0  0  0  0  0  0  0  0  0  0  0
  143.7475   78.8507  222.9306 H   0  0  0  0  0  0  0  0  0  0  0  0
  1  2  2  0
  2  3  1  0
  3  4  1  0
  4  5  1  0
  5  6  2  0
  5  7  1  0
  7  8  1  0
  8  9  1  0
  9 10  1  0
 10 11  1  0
 11 12  1  0
 12 13  1  0
 13 14  2  0
 14 15  1  0
 15 16  2  0
 16 17  1  0
 17 18  1  0
 18 19  1  0
 18 20  1  0
 18 21  1  0
 16 22  1  0
 22 23  2  0
  2 24  1  0
 24 25  2  0
 25 26  1  0
 26 27  2  0
 27 28  1  0
 28 29  2  0
 29 30  1  0
 30 31  2  0
 31 32  1  0
 32 33  2  0
 12  7  1  0
 23 13  1  0
 33 24  1  0
 32 27  1  0
  3 34  1  0
  4 35  1  0
  4 36  1  0
  8 37  1  0
  8 38  1  0
  9 39  1  0
  9 40  1  0
 10 41  1  0
 10 42  1  0
 11 43  1  0
 11 44  1  0
 12 45  1  1
 14 46  1  0
 15 47  1  0
 22 48  1  0
 23 49  1  0
 25 50  1  0
 26 51  1  0
 28 52  1  0
 29 53  1  0
 30 54  1  0
 31 55  1  0
M  END
>  <smiles>  (53) 
O=C(NCC(=O)N1CCCCC1c1ccc(OC(F)(F)F)cc1)c1ccc2ccccc2n1

>  <score_type>  (53) 
oracle

>  <origin>  (53) 
autodockgpu

>  <m_score__min__energy>  (53) 
-8.6099999999999994

>  <m_primary>  (53) 
energy

>  <rmsd>  (53) 
7.764625124265403

>  <m_score__min__rmsd>  (53) 
7.764625124265403

>  <meeko>  (53) 
{"free_energy": -6.62, "intermolecular_energy": -8.71, "internal_energy": -3.12, "cluster_size": 17, "cluster_id": 5, "rank_in_cluster": 8}

>  <energy>  (53) 
-8.53

>  <cluster_rmsd>  (53) 
0.23

>  <cluster>  (53) 
1

$$$$

     RDKit          3D

 55 58  0  0  0  0  0  0  0  0999 V2000
  141.5410   72.0270  221.7180 O   0  0  0  0  0  0  0  0  0  0  0  0
  140.5920   72.2830  222.5330 C   0  0  0  0  0  0  0  0  0  0  0  0
  139.8100   73.4710  222.3420 N   0  0  0  0  0  0  0  0  0  0  0  0
  139.9950   74.4080  221.2990 C   0  0  0  0  0  0  0  0  0  0  0  0
  140.8620   75.5640  221.4930 C   0  0  0  0  0  0  0  0  0  0  0  0
  140.6800   76.1600  222.6420 O   0  0  0  0  0  0  0  0  0  0  0  0
  141.8360   76.1420  220.6810 N   0  0  0  0  0  0  0  0  0  0  0  0
  142.9940   75.4460  220.0960 C   0  0  0  0  0  0  0  0  0  0  0  0
  143.2850   76.0650  218.7270 C   0  0  0  0  0  0  0  0  0  0  0  0
  142.0480   76.6280  218.0970 C   0  0  0  0  0  0  0  0  0  0  0  0
  141.2870   77.6090  218.9190 C   0  0  0  0  0  0  0  0  0  0  0  0
  141.7790   77.5590  220.3210 C   0  0  1  0  0  0  0  0  0  0  0  0
  141.0800   78.4140  221.2760 C   0  0  0  0  0  0  0  0  0  0  0  0
  139.7690   78.7970  221.2090 C   0  0  0  0  0  0  0  0  0  0  0  0
  139.1580   79.6090  222.1420 C   0  0  0  0  0  0  0  0  0  0  0  0
  139.9000   80.0690  223.2100 C   0  0  0  0  0  0  0  0  0  0  0  0
  139.3490   80.8900  224.1850 O   0  0  0  0  0  0  0  0  0  0  0  0
  137.9830   81.1420  224.3520 C   0  0  0  0  0  0  0  0  0  0  0  0
  137.3360   79.9130  224.1970 F   0  0  0  0  0  0  0  0  0  0  0  0
  137.7160   81.6360  225.5910 F   0  0  0  0  0  0  0  0  0  0  0  0
  137.4750   81.9330  223.3210 F   0  0  0  0  0  0  0  0  0  0  0  0
  141.2350   79.7100  223.3240 C   0  0  0  0  0  0  0  0  0  0  0  0
  141.8110   78.8920  222.3670 C   0  0  0  0  0  0  0  0  0  0  0  0
  140.2950   71.3790  223.6580 C   0  0  0  0  0  0  0  0  0  0  0  0
  139.5690   70.2380  223.3940 C   0  0  0  0  0  0  0  0  0  0  0  0
  139.2890   69.3850  224.4550 C   0  0  0  0  0  0  0  0  0  0  0  0
  139.7330   69.6840  225.7390 C   0  0  0  0  0  0  0  0  0  0  0  0
  139.4690   68.8570  226.8030 C   0  0  0  0  0  0  0  0  0  0  0  0
  139.9240   69.1880  228.0520 C   0  0  0  0  0  0  0  0  0  0  0  0
  140.6580   70.3470  228.3060 C   0  0  0  0  0  0  0  0  0  0  0  0
  140.9020   71.1540  227.2040 C   0  0  0  0  0  0  0  0  0  0  0  0
  140.4520   70.8300  225.9520 C   0  0  0  0  0  0  0  0  0  0  0  0
  140.7130   71.6470  224.9050 N   0  0  0  0  0  0  0  0  0  0  0  0
  139.0470   73.6190  223.0590 H   0  0  0  0  0  0  0  0  0  0  0  0
  140.3991   73.8503  220.4413 H   0  0  0  0  0  0  0  0  0  0  0  0
  138.9980   74.8597  221.1901 H   0  0  0  0  0  0  0  0  0  0  0  0
  143.8694   75.5645  220.7515 H   0  0  0  0  0  0  0  0  0  0  0  0
  142.7768   74.3730  219.9885 H   0  0  0  0  0  0  0  0  0  0  0  0
  144.0210   76.8731  218.8508 H   0  0  0  0  0  0  0  0  0  0  0  0
  143.6738   75.2735  218.0695 H   0  0  0  0  0  0  0  0  0  0  0  0
  142.3435   77.1285  217.1631 H   0  0  0  0  0  0  0  0  0  0  0  0
  141.3717   75.7724  217.9537 H   0  0  0  0  0  0  0  0  0  0  0  0
  141.4339   78.6209  218.5136 H   0  0  0  0  0  0  0  0  0  0  0  0
  140.2160   77.3593  218.8944 H   0  0  0  0  0  0  0  0  0  0  0  0
  142.7797   78.0124  220.3767 H   0  0  0  0  0  0  0  0  0  0  0  0
  139.1666   78.4367  220.3620 H   0  0  0  0  0  0  0  0  0  0  0  0
  138.0984   79.8846  222.0362 H   0  0  0  0  0  0  0  0  0  0  0  0
  141.8339   80.0740  224.1718 H   0  0  0  0  0  0  0  0  0  0  0  0
  142.8698   78.6115  222.4678 H   0  0  0  0  0  0  0  0  0  0  0  0
  139.2219   70.0094  222.3755 H   0  0  0  0  0  0  0  0  0  0  0  0
  138.7114   68.4657  224.2779 H   0  0  0  0  0  0  0  0  0  0  0  0
  138.8938   67.9315  226.6528 H   0  0  0  0  0  0  0  0  0  0  0  0
  139.7012   68.5114  228.8902 H   0  0  0  0  0  0  0  0  0  0  0  0
  141.0192   70.6039  229.3128 H   0  0  0  0  0  0  0  0  0  0  0  0
  141.4748   72.0831  227.3404 H   0  0  0  0  0  0  0  0  0  0  0  0
  1  2  2  0
  2  3  1  0
  3  4  1  0
  4  5  1  0
  5  6  2  0
  5  7  1  0
  7  8  1  0
  8  9  1  0
  9 10  1  0
 10 11  1  0
 11 12  1  0
 12 13  1  0
 13 14  2  0
 14 15  1  0
 15 16  2  0
 16 17  1  0
 17 18  1  0
 18 19  1  0
 18 20  1  0
 18 21  1  0
 16 22  1  0
 22 23  2  0
  2 24  1  0
 24 25  2  0
 25 26  1  0
 26 27  2  0
 27 28  1  0
 28 29  2  0
 29 30  1  0
 30 31  2  0
 31 32  1  0
 32 33  2  0
 12  7  1  0
 23 13  1  0
 33 24  1  0
 32 27  1  0
  3 34  1  0
  4 35  1  0
  4 36  1  0
  8 37  1  0
  8 38  1  0
  9 39  1  0
  9 40  1  0
 10 41  1  0
 10 42  1  0
 11 43  1  0
 11 44  1  0
 12 45  1  6
 14 46  1  0
 15 47  1  0
 22 48  1  0
 23 49  1  0
 25 50  1  0
 26 51  1  0
 28 52  1  0
 29 53  1  0
 30 54  1  0
 31 55  1  0
M  END
>  <smiles>  (54) 
O=C(NCC(=O)N1CCCCC1c1ccc(OC(F)(F)F)cc1)c1ccc2ccccc2n1

>  <score_type>  (54) 
oracle

>  <origin>  (54) 
autodockgpu

>  <m_score__min__energy>  (54) 
-8.6099999999999994

>  <m_primary>  (54) 
energy

>  <rmsd>  (54) 
2.113063767516041

>  <m_score__min__rmsd>  (54) 
2.113063767516041

>  <meeko>  (54) 
{"free_energy": -8.48, "intermolecular_energy": -10.57, "internal_energy": -1.35, "cluster_size": 16, "cluster_id": 1, "rank_in_cluster": 4}

>  <energy>  (54) 
-8.48

>  <cluster_rmsd>  (54) 
0.15

>  <cluster>  (54) 
1

$$$$

     RDKit          3D

 55 58  0  0  0  0  0  0  0  0999 V2000
  138.9150   75.3040  221.7160 O   0  0  0  0  0  0  0  0  0  0  0  0
  140.0750   75.7980  221.9130 C   0  0  0  0  0  0  0  0  0  0  0  0
  141.2310   74.9860  221.6610 N   0  0  0  0  0  0  0  0  0  0  0  0
  141.2020   73.6520  221.1930 C   0  0  0  0  0  0  0  0  0  0  0  0
  142.2350   73.1680  220.2840 C   0  0  0  0  0  0  0  0  0  0  0  0
  141.7850   72.3240  219.3930 O   0  0  0  0  0  0  0  0  0  0  0  0
  143.5990   73.4380  220.1990 N   0  0  0  0  0  0  0  0  0  0  0  0
  144.6600   72.7620  220.9630 C   0  0  0  0  0  0  0  0  0  0  0  0
  145.9070   72.6740  220.0800 C   0  0  0  0  0  0  0  0  0  0  0  0
  145.5550   72.6300  218.6240 C   0  0  0  0  0  0  0  0  0  0  0  0
  144.6890   73.7360  218.1300 C   0  0  0  0  0  0  0  0  0  0  0  0
  144.1140   74.4630  219.2910 C   0  0  1  0  0  0  0  0  0  0  0  0
  143.1770   75.5370  218.9740 C   0  0  0  0  0  0  0  0  0  0  0  0
  142.2610   75.5370  217.9580 C   0  0  0  0  0  0  0  0  0  0  0  0
  141.3980   76.5820  217.7020 C   0  0  0  0  0  0  0  0  0  0  0  0
  141.4490   77.6990  218.5110 C   0  0  0  0  0  0  0  0  0  0  0  0
  140.6100   78.7870  218.3100 O   0  0  0  0  0  0  0  0  0  0  0  0
  140.5510   79.9230  219.1240 C   0  0  0  0  0  0  0  0  0  0  0  0
  139.8010   80.8700  218.4210 F   0  0  0  0  0  0  0  0  0  0  0  0
  139.9370   79.6560  220.3080 F   0  0  0  0  0  0  0  0  0  0  0  0
  141.8050   80.5170  219.2730 F   0  0  0  0  0  0  0  0  0  0  0  0
  142.3600   77.7490  219.5550 C   0  0  0  0  0  0  0  0  0  0  0  0
  143.2090   76.6790  219.7790 C   0  0  0  0  0  0  0  0  0  0  0  0
  140.2370   77.1820  222.3930 C   0  0  0  0  0  0  0  0  0  0  0  0
  139.0990   77.8930  222.7060 C   0  0  0  0  0  0  0  0  0  0  0  0
  139.2520   79.1980  223.1590 C   0  0  0  0  0  0  0  0  0  0  0  0
  140.5190   79.7580  223.2890 C   0  0  0  0  0  0  0  0  0  0  0  0
  140.6960   81.0450  223.7340 C   0  0  0  0  0  0  0  0  0  0  0  0
  141.9610   81.5590  223.8480 C   0  0  0  0  0  0  0  0  0  0  0  0
  143.1050   80.8270  223.5260 C   0  0  0  0  0  0  0  0  0  0  0  0
  142.8820   79.5330  223.0810 C   0  0  0  0  0  0  0  0  0  0  0  0
  141.6210   79.0110  222.9660 C   0  0  0  0  0  0  0  0  0  0  0  0
  141.4500   77.7420  222.5260 N   0  0  0  0  0  0  0  0  0  0  0  0
  142.1570   75.4620  221.8520 H   0  0  0  0  0  0  0  0  0  0  0  0
  141.2344   73.0045  222.0817 H   0  0  0  0  0  0  0  0  0  0  0  0
  140.2927   73.6244  220.5745 H   0  0  0  0  0  0  0  0  0  0  0  0
  144.8880   73.3377  221.8722 H   0  0  0  0  0  0  0  0  0  0  0  0
  144.3318   71.7540  221.2566 H   0  0  0  0  0  0  0  0  0  0  0  0
  146.5389   73.5547  220.2672 H   0  0  0  0  0  0  0  0  0  0  0  0
  146.4396   71.7450  220.3316 H   0  0  0  0  0  0  0  0  0  0  0  0
  146.4929   72.6543  218.0497 H   0  0  0  0  0  0  0  0  0  0  0  0
  144.9686   71.7094  218.4875 H   0  0  0  0  0  0  0  0  0  0  0  0
  145.2889   74.4294  217.5223 H   0  0  0  0  0  0  0  0  0  0  0  0
  143.8767   73.3222  217.5144 H   0  0  0  0  0  0  0  0  0  0  0  0
  144.9019   75.0531  219.7818 H   0  0  0  0  0  0  0  0  0  0  0  0
  142.2097   74.6518  217.3071 H   0  0  0  0  0  0  0  0  0  0  0  0
  140.6823   76.5262  216.8685 H   0  0  0  0  0  0  0  0  0  0  0  0
  142.4079   78.6364  220.2033 H   0  0  0  0  0  0  0  0  0  0  0  0
  143.9266   76.7287  220.6112 H   0  0  0  0  0  0  0  0  0  0  0  0
  138.1012   77.4421  222.6007 H   0  0  0  0  0  0  0  0  0  0  0  0
  138.3637   79.7933  223.4170 H   0  0  0  0  0  0  0  0  0  0  0  0
  139.8244   81.6618  223.9983 H   0  0  0  0  0  0  0  0  0  0  0  0
  142.0799   82.5915  224.2083 H   0  0  0  0  0  0  0  0  0  0  0  0
  144.1166   81.2489  223.6191 H   0  0  0  0  0  0  0  0  0  0  0  0
  143.7448   78.9060  222.8119 H   0  0  0  0  0  0  0  0  0  0  0  0
  1  2  2  0
  2  3  1  0
  3  4  1  0
  4  5  1  0
  5  6  2  0
  5  7  1  0
  7  8  1  0
  8  9  1  0
  9 10  1  0
 10 11  1  0
 11 12  1  0
 12 13  1  0
 13 14  2  0
 14 15  1  0
 15 16  2  0
 16 17  1  0
 17 18  1  0
 18 19  1  0
 18 20  1  0
 18 21  1  0
 16 22  1  0
 22 23  2  0
  2 24  1  0
 24 25  2  0
 25 26  1  0
 26 27  2  0
 27 28  1  0
 28 29  2  0
 29 30  1  0
 30 31  2  0
 31 32  1  0
 32 33  2  0
 12  7  1  0
 23 13  1  0
 33 24  1  0
 32 27  1  0
  3 34  1  0
  4 35  1  0
  4 36  1  0
  8 37  1  0
  8 38  1  0
  9 39  1  0
  9 40  1  0
 10 41  1  0
 10 42  1  0
 11 43  1  0
 11 44  1  0
 12 45  1  1
 14 46  1  0
 15 47  1  0
 22 48  1  0
 23 49  1  0
 25 50  1  0
 26 51  1  0
 28 52  1  0
 29 53  1  0
 30 54  1  0
 31 55  1  0
M  END
>  <smiles>  (55) 
O=C(NCC(=O)N1CCCCC1c1ccc(OC(F)(F)F)cc1)c1ccc2ccccc2n1

>  <score_type>  (55) 
oracle

>  <origin>  (55) 
autodockgpu

>  <m_score__min__energy>  (55) 
-8.6099999999999994

>  <m_primary>  (55) 
energy

>  <rmsd>  (55) 
7.75316747744041

>  <m_score__min__rmsd>  (55) 
7.75316747744041

>  <meeko>  (55) 
{"free_energy": -6.59, "intermolecular_energy": -8.67, "internal_energy": -3.11, "cluster_size": 17, "cluster_id": 5, "rank_in_cluster": 10}

>  <energy>  (55) 
-8.47

>  <cluster_rmsd>  (55) 
0.3

>  <cluster>  (55) 
1

$$$$

     RDKit          3D

 55 58  0  0  0  0  0  0  0  0999 V2000
  138.9200   75.1940  221.8770 O   0  0  0  0  0  0  0  0  0  0  0  0
  140.0700   75.7410  221.9620 C   0  0  0  0  0  0  0  0  0  0  0  0
  141.2370   74.9620  221.6610 N   0  0  0  0  0  0  0  0  0  0  0  0
  141.2300   73.6060  221.2620 C   0  0  0  0  0  0  0  0  0  0  0  0
  142.2330   73.1090  220.3270 C   0  0  0  0  0  0  0  0  0  0  0  0
  141.7570   72.2450  219.4690 O   0  0  0  0  0  0  0  0  0  0  0  0
  143.5910   73.3830  220.1890 N   0  0  0  0  0  0  0  0  0  0  0  0
  144.6890   72.6570  220.8510 C   0  0  0  0  0  0  0  0  0  0  0  0
  145.8870   72.6270  219.9000 C   0  0  0  0  0  0  0  0  0  0  0  0
  145.4610   72.6800  218.4650 C   0  0  0  0  0  0  0  0  0  0  0  0
  144.5750   73.8160  218.0900 C   0  0  0  0  0  0  0  0  0  0  0  0
  144.0630   74.4660  219.3250 C   0  0  1  0  0  0  0  0  0  0  0  0
  143.1140   75.5580  219.1280 C   0  0  0  0  0  0  0  0  0  0  0  0
  143.1120   76.7550  219.7900 C   0  0  0  0  0  0  0  0  0  0  0  0
  142.1890   77.7550  219.5640 C   0  0  0  0  0  0  0  0  0  0  0  0
  141.2050   77.5510  218.6180 C   0  0  0  0  0  0  0  0  0  0  0  0
  140.2450   78.5140  218.3390 O   0  0  0  0  0  0  0  0  0  0  0  0
  140.3120   79.8570  218.7270 C   0  0  0  0  0  0  0  0  0  0  0  0
  140.0510   79.8820  220.0990 F   0  0  0  0  0  0  0  0  0  0  0  0
  141.5460   80.3800  218.4950 F   0  0  0  0  0  0  0  0  0  0  0  0
  139.2790   80.6080  218.1640 F   0  0  0  0  0  0  0  0  0  0  0  0
  141.1640   76.3540  217.9190 C   0  0  0  0  0  0  0  0  0  0  0  0
  142.1090   75.3750  218.1750 C   0  0  0  0  0  0  0  0  0  0  0  0
  140.2090   77.1530  222.3620 C   0  0  0  0  0  0  0  0  0  0  0  0
  139.0580   77.8900  222.5360 C   0  0  0  0  0  0  0  0  0  0  0  0
  139.1890   79.2210  222.9140 C   0  0  0  0  0  0  0  0  0  0  0  0
  140.4480   79.7810  223.1060 C   0  0  0  0  0  0  0  0  0  0  0  0
  140.6030   81.0930  223.4790 C   0  0  0  0  0  0  0  0  0  0  0  0
  141.8600   81.6060  223.6580 C   0  0  0  0  0  0  0  0  0  0  0  0
  143.0180   80.8490  223.4760 C   0  0  0  0  0  0  0  0  0  0  0  0
  142.8170   79.5290  223.1000 C   0  0  0  0  0  0  0  0  0  0  0  0
  141.5630   79.0080  222.9200 C   0  0  0  0  0  0  0  0  0  0  0  0
  141.4130   77.7130  222.5530 N   0  0  0  0  0  0  0  0  0  0  0  0
  142.1530   75.4820  221.7590 H   0  0  0  0  0  0  0  0  0  0  0  0
  141.3278   73.0062  222.1789 H   0  0  0  0  0  0  0  0  0  0  0  0
  140.2929   73.5182  220.6927 H   0  0  0  0  0  0  0  0  0  0  0  0
  144.9665   73.1715  221.7828 H   0  0  0  0  0  0  0  0  0  0  0  0
  144.3729   71.6320  221.0948 H   0  0  0  0  0  0  0  0  0  0  0  0
  146.5314   73.4929  220.1121 H   0  0  0  0  0  0  0  0  0  0  0  0
  146.4272   71.6824  220.0611 H   0  0  0  0  0  0  0  0  0  0  0  0
  146.3684   72.7422  217.8464 H   0  0  0  0  0  0  0  0  0  0  0  0
  144.8648   71.7707  218.2983 H   0  0  0  0  0  0  0  0  0  0  0  0
  145.1453   74.5475  217.4987 H   0  0  0  0  0  0  0  0  0  0  0  0
  143.7305   73.4436  217.4915 H   0  0  0  0  0  0  0  0  0  0  0  0
  144.8774   75.0227  219.8117 H   0  0  0  0  0  0  0  0  0  0  0  0
  143.8914   76.9303  220.5462 H   0  0  0  0  0  0  0  0  0  0  0  0
  142.2364   78.6983  220.1278 H   0  0  0  0  0  0  0  0  0  0  0  0
  140.3831   76.1828  217.1635 H   0  0  0  0  0  0  0  0  0  0  0  0
  142.0674   74.4297  217.6141 H   0  0  0  0  0  0  0  0  0  0  0  0
  138.0667   77.4392  222.3806 H   0  0  0  0  0  0  0  0  0  0  0  0
  138.2897   79.8368  223.0626 H   0  0  0  0  0  0  0  0  0  0  0  0
  139.7200   81.7304  223.6337 H   0  0  0  0  0  0  0  0  0  0  0  0
  141.9611   82.6595  223.9580 H   0  0  0  0  0  0  0  0  0  0  0  0
  144.0234   81.2710  223.6210 H   0  0  0  0  0  0  0  0  0  0  0  0
  143.6914   78.8807  222.9415 H   0  0  0  0  0  0  0  0  0  0  0  0
  1  2  2  0
  2  3  1  0
  3  4  1  0
  4  5  1  0
  5  6  2  0
  5  7  1  0
  7  8  1  0
  8  9  1  0
  9 10  1  0
 10 11  1  0
 11 12  1  0
 12 13  1  0
 13 14  2  0
 14 15  1  0
 15 16  2  0
 16 17  1  0
 17 18  1  0
 18 19  1  0
 18 20  1  0
 18 21  1  0
 16 22  1  0
 22 23  2  0
  2 24  1  0
 24 25  2  0
 25 26  1  0
 26 27  2  0
 27 28  1  0
 28 29  2  0
 29 30  1  0
 30 31  2  0
 31 32  1  0
 32 33  2  0
 12  7  1  0
 23 13  1  0
 33 24  1  0
 32 27  1  0
  3 34  1  0
  4 35  1  0
  4 36  1  0
  8 37  1  0
  8 38  1  0
  9 39  1  0
  9 40  1  0
 10 41  1  0
 10 42  1  0
 11 43  1  0
 11 44  1  0
 12 45  1  1
 14 46  1  0
 15 47  1  0
 22 48  1  0
 23 49  1  0
 25 50  1  0
 26 51  1  0
 28 52  1  0
 29 53  1  0
 30 54  1  0
 31 55  1  0
M  END
>  <smiles>  (56) 
O=C(NCC(=O)N1CCCCC1c1ccc(OC(F)(F)F)cc1)c1ccc2ccccc2n1

>  <score_type>  (56) 
oracle

>  <origin>  (56) 
autodockgpu

>  <m_score__min__energy>  (56) 
-8.6099999999999994

>  <m_primary>  (56) 
energy

>  <rmsd>  (56) 
7.758076242266445

>  <m_score__min__rmsd>  (56) 
7.758076242266445

>  <meeko>  (56) 
{"free_energy": -6.53, "intermolecular_energy": -8.62, "internal_energy": -3.07, "cluster_size": 17, "cluster_id": 5, "rank_in_cluster": 15}

>  <energy>  (56) 
-8.38

>  <cluster_rmsd>  (56) 
0.41

>  <cluster>  (56) 
1

$$$$

     RDKit          3D

 55 58  0  0  0  0  0  0  0  0999 V2000
  140.1240   70.8580  221.2210 O   0  0  0  0  0  0  0  0  0  0  0  0
  139.9350   71.5130  222.3000 C   0  0  0  0  0  0  0  0  0  0  0  0
  139.6870   72.9250  222.2240 N   0  0  0  0  0  0  0  0  0  0  0  0
  139.6240   73.6770  221.0280 C   0  0  0  0  0  0  0  0  0  0  0  0
  140.4270   74.8850  220.8750 C   0  0  0  0  0  0  0  0  0  0  0  0
  140.7110   75.4640  222.0120 O   0  0  0  0  0  0  0  0  0  0  0  0
  140.9370   75.5250  219.7480 N   0  0  0  0  0  0  0  0  0  0  0  0
  140.2780   76.6100  219.0020 C   0  0  0  0  0  0  0  0  0  0  0  0
  141.3600   77.5560  218.4740 C   0  0  0  0  0  0  0  0  0  0  0  0
  142.5750   77.5540  219.3490 C   0  0  0  0  0  0  0  0  0  0  0  0
  143.1860   76.2220  219.6140 C   0  0  0  0  0  0  0  0  0  0  0  0
  142.2390   75.1570  219.1910 C   0  0  1  0  0  0  0  0  0  0  0  0
  142.6600   73.7840  219.4540 C   0  0  0  0  0  0  0  0  0  0  0  0
  142.1700   72.6580  218.8500 C   0  0  0  0  0  0  0  0  0  0  0  0
  142.6050   71.3810  219.1380 C   0  0  0  0  0  0  0  0  0  0  0  0
  143.5910   71.2140  220.0890 C   0  0  0  0  0  0  0  0  0  0  0  0
  144.0750   69.9580  220.4280 O   0  0  0  0  0  0  0  0  0  0  0  0
  144.4230   68.9530  219.5200 C   0  0  0  0  0  0  0  0  0  0  0  0
  145.0950   69.5880  218.4710 F   0  0  0  0  0  0  0  0  0  0  0  0
  145.2480   68.0330  220.0880 F   0  0  0  0  0  0  0  0  0  0  0  0
  143.2980   68.3890  218.9180 F   0  0  0  0  0  0  0  0  0  0  0  0
  144.1200   72.3230  220.7320 C   0  0  0  0  0  0  0  0  0  0  0  0
  143.6570   73.5880  220.4130 C   0  0  0  0  0  0  0  0  0  0  0  0
  139.9690   70.8410  223.6110 C   0  0  0  0  0  0  0  0  0  0  0  0
  139.5070   69.5440  223.6820 C   0  0  0  0  0  0  0  0  0  0  0  0
  139.5400   68.9100  224.9180 C   0  0  0  0  0  0  0  0  0  0  0  0
  140.0240   69.5730  226.0410 C   0  0  0  0  0  0  0  0  0  0  0  0
  140.0660   68.9670  227.2720 C   0  0  0  0  0  0  0  0  0  0  0  0
  140.5500   69.6550  228.3540 C   0  0  0  0  0  0  0  0  0  0  0  0
  141.0130   70.9680  228.2680 C   0  0  0  0  0  0  0  0  0  0  0  0
  140.9540   71.5420  227.0060 C   0  0  0  0  0  0  0  0  0  0  0  0
  140.4720   70.8610  225.9200 C   0  0  0  0  0  0  0  0  0  0  0  0
  140.4320   71.4610  224.7070 N   0  0  0  0  0  0  0  0  0  0  0  0
  139.5450   73.4000  223.1580 H   0  0  0  0  0  0  0  0  0  0  0  0
  139.9149   72.9986  220.2124 H   0  0  0  0  0  0  0  0  0  0  0  0
  138.5932   74.0610  221.0287 H   0  0  0  0  0  0  0  0  0  0  0  0
  139.7081   76.1899  218.1602 H   0  0  0  0  0  0  0  0  0  0  0  0
  139.5851   77.1557  219.6594 H   0  0  0  0  0  0  0  0  0  0  0  0
  141.6494   77.2365  217.4620 H   0  0  0  0  0  0  0  0  0  0  0  0
  140.9475   78.5757  218.4637 H   0  0  0  0  0  0  0  0  0  0  0  0
  143.3374   78.1843  218.8679 H   0  0  0  0  0  0  0  0  0  0  0  0
  142.2365   77.9252  220.3276 H   0  0  0  0  0  0  0  0  0  0  0  0
  144.1233   76.1276  219.0461 H   0  0  0  0  0  0  0  0  0  0  0  0
  143.4002   76.1208  220.6882 H   0  0  0  0  0  0  0  0  0  0  0  0
  142.1928   75.1213  218.0925 H   0  0  0  0  0  0  0  0  0  0  0  0
  141.3834   72.7782  218.0906 H   0  0  0  0  0  0  0  0  0  0  0  0
  142.1740   70.5120  218.6193 H   0  0  0  0  0  0  0  0  0  0  0  0
  144.9046   72.1979  221.4927 H   0  0  0  0  0  0  0  0  0  0  0  0
  144.0849   74.4610  220.9276 H   0  0  0  0  0  0  0  0  0  0  0  0
  139.1246   69.0278  222.7891 H   0  0  0  0  0  0  0  0  0  0  0  0
  139.1801   67.8745  225.0092 H   0  0  0  0  0  0  0  0  0  0  0  0
  139.7122   67.9321  227.3897 H   0  0  0  0  0  0  0  0  0  0  0  0
  140.5744   69.1506  229.3312 H   0  0  0  0  0  0  0  0  0  0  0  0
  141.3992   71.5122  229.1424 H   0  0  0  0  0  0  0  0  0  0  0  0
  141.3052   72.5760  226.8738 H   0  0  0  0  0  0  0  0  0  0  0  0
  1  2  2  0
  2  3  1  0
  3  4  1  0
  4  5  1  0
  5  6  2  0
  5  7  1  0
  7  8  1  0
  8  9  1  0
  9 10  1  0
 10 11  1  0
 11 12  1  0
 12 13  1  0
 13 14  2  0
 14 15  1  0
 15 16  2  0
 16 17  1  0
 17 18  1  0
 18 19  1  0
 18 20  1  0
 18 21  1  0
 16 22  1  0
 22 23  2  0
  2 24  1  0
 24 25  2  0
 25 26  1  0
 26 27  2  0
 27 28  1  0
 28 29  2  0
 29 30  1  0
 30 31  2  0
 31 32  1  0
 32 33  2  0
 12  7  1  0
 23 13  1  0
 33 24  1  0
 32 27  1  0
  3 34  1  0
  4 35  1  0
  4 36  1  0
  8 37  1  0
  8 38  1  0
  9 39  1  0
  9 40  1  0
 10 41  1  0
 10 42  1  0
 11 43  1  0
 11 44  1  0
 12 45  1  6
 14 46  1  0
 15 47  1  0
 22 48  1  0
 23 49  1  0
 25 50  1  0
 26 51  1  0
 28 52  1  0
 29 53  1  0
 30 54  1  0
 31 55  1  0
M  END
>  <smiles>  (57) 
O=C(NCC(=O)N1CCCCC1c1ccc(OC(F)(F)F)cc1)c1ccc2ccccc2n1

>  <score_type>  (57) 
oracle

>  <origin>  (57) 
autodockgpu

>  <m_score__min__energy>  (57) 
-8.6099999999999994

>  <m_primary>  (57) 
energy

>  <rmsd>  (57) 
1.878968355821969

>  <m_score__min__rmsd>  (57) 
1.878968355821969

>  <meeko>  (57) 
{"free_energy": -7.31, "intermolecular_energy": -9.4, "internal_energy": -2.3, "cluster_size": 9, "cluster_id": 2, "rank_in_cluster": 9}

>  <energy>  (57) 
-8.21

>  <cluster_rmsd>  (57) 
0.6

>  <cluster>  (57) 
1

$$$$

     RDKit          3D

 55 58  0  0  0  0  0  0  0  0999 V2000
  138.8790   75.3770  221.6720 O   0  0  0  0  0  0  0  0  0  0  0  0
  140.0390   75.8650  221.8880 C   0  0  0  0  0  0  0  0  0  0  0  0
  141.1940   75.0410  221.6730 N   0  0  0  0  0  0  0  0  0  0  0  0
  141.1650   73.7010  221.2230 C   0  0  0  0  0  0  0  0  0  0  0  0
  142.0660   73.2600  220.1640 C   0  0  0  0  0  0  0  0  0  0  0  0
  141.4420   72.7420  219.1380 O   0  0  0  0  0  0  0  0  0  0  0  0
  143.4540   73.2890  220.0520 N   0  0  0  0  0  0  0  0  0  0  0  0
  144.3910   72.3720  220.7220 C   0  0  0  0  0  0  0  0  0  0  0  0
  145.5830   72.1380  219.7910 C   0  0  0  0  0  0  0  0  0  0  0  0
  145.1990   72.2810  218.3500 C   0  0  0  0  0  0  0  0  0  0  0  0
  144.5380   73.5610  217.9760 C   0  0  0  0  0  0  0  0  0  0  0  0
  144.1270   74.2790  219.2110 C   0  0  1  0  0  0  0  0  0  0  0  0
  143.3920   75.5260  219.0130 C   0  0  0  0  0  0  0  0  0  0  0  0
  143.1030   76.4540  219.9750 C   0  0  0  0  0  0  0  0  0  0  0  0
  142.4030   77.6180  219.7310 C   0  0  0  0  0  0  0  0  0  0  0  0
  141.9630   77.8740  218.4490 C   0  0  0  0  0  0  0  0  0  0  0  0
  141.2540   79.0250  218.1340 O   0  0  0  0  0  0  0  0  0  0  0  0
  141.5310   80.3050  218.6250 C   0  0  0  0  0  0  0  0  0  0  0  0
  140.6390   81.1710  217.9870 F   0  0  0  0  0  0  0  0  0  0  0  0
  141.3370   80.3740  219.9700 F   0  0  0  0  0  0  0  0  0  0  0  0
  142.7920   80.7500  218.2250 F   0  0  0  0  0  0  0  0  0  0  0  0
  142.2310   76.9630  217.4380 C   0  0  0  0  0  0  0  0  0  0  0  0
  142.9370   75.8070  217.7220 C   0  0  0  0  0  0  0  0  0  0  0  0
  140.2010   77.2540  222.3520 C   0  0  0  0  0  0  0  0  0  0  0  0
  139.0620   77.9830  222.6160 C   0  0  0  0  0  0  0  0  0  0  0  0
  139.2150   79.2930  223.0540 C   0  0  0  0  0  0  0  0  0  0  0  0
  140.4830   79.8410  223.2180 C   0  0  0  0  0  0  0  0  0  0  0  0
  140.6600   81.1320  223.6490 C   0  0  0  0  0  0  0  0  0  0  0  0
  141.9260   81.6340  223.7970 C   0  0  0  0  0  0  0  0  0  0  0  0
  143.0720   80.8850  223.5260 C   0  0  0  0  0  0  0  0  0  0  0  0
  142.8490   79.5860  223.0930 C   0  0  0  0  0  0  0  0  0  0  0  0
  141.5860   79.0760  222.9430 C   0  0  0  0  0  0  0  0  0  0  0  0
  141.4150   77.8030  222.5180 N   0  0  0  0  0  0  0  0  0  0  0  0
  142.1190   75.5130  221.8780 H   0  0  0  0  0  0  0  0  0  0  0  0
  141.3735   73.0690  222.0988 H   0  0  0  0  0  0  0  0  0  0  0  0
  140.1722   73.6160  220.7571 H   0  0  0  0  0  0  0  0  0  0  0  0
  144.7380   72.8187  221.6654 H   0  0  0  0  0  0  0  0  0  0  0  0
  143.8921   71.4176  220.9461 H   0  0  0  0  0  0  0  0  0  0  0  0
  146.3675   72.8727  220.0252 H   0  0  0  0  0  0  0  0  0  0  0  0
  145.9439   71.1109  219.9487 H   0  0  0  0  0  0  0  0  0  0  0  0
  146.1138   72.1855  217.7466 H   0  0  0  0  0  0  0  0  0  0  0  0
  144.4525   71.4952  218.1621 H   0  0  0  0  0  0  0  0  0  0  0  0
  145.2412   74.1848  217.4047 H   0  0  0  0  0  0  0  0  0  0  0  0
  143.6521   73.3523  217.3582 H   0  0  0  0  0  0  0  0  0  0  0  0
  145.0181   74.6763  219.7190 H   0  0  0  0  0  0  0  0  0  0  0  0
  143.4481   76.2617  221.0016 H   0  0  0  0  0  0  0  0  0  0  0  0
  142.1994   78.3294  220.5449 H   0  0  0  0  0  0  0  0  0  0  0  0
  141.8833   77.1588  216.4130 H   0  0  0  0  0  0  0  0  0  0  0  0
  143.1449   75.0923  216.9121 H   0  0  0  0  0  0  0  0  0  0  0  0
  138.0629   77.5420  222.4842 H   0  0  0  0  0  0  0  0  0  0  0  0
  138.3255   79.9020  223.2730 H   0  0  0  0  0  0  0  0  0  0  0  0
  139.7872   81.7622  223.8751 H   0  0  0  0  0  0  0  0  0  0  0  0
  142.0443   82.6711  224.1440 H   0  0  0  0  0  0  0  0  0  0  0  0
  144.0846   81.2972  223.6476 H   0  0  0  0  0  0  0  0  0  0  0  0
  143.7131   78.9454  222.8629 H   0  0  0  0  0  0  0  0  0  0  0  0
  1  2  2  0
  2  3  1  0
  3  4  1  0
  4  5  1  0
  5  6  2  0
  5  7  1  0
  7  8  1  0
  8  9  1  0
  9 10  1  0
 10 11  1  0
 11 12  1  0
 12 13  1  0
 13 14  2  0
 14 15  1  0
 15 16  2  0
 16 17  1  0
 17 18  1  0
 18 19  1  0
 18 20  1  0
 18 21  1  0
 16 22  1  0
 22 23  2  0
  2 24  1  0
 24 25  2  0
 25 26  1  0
 26 27  2  0
 27 28  1  0
 28 29  2  0
 29 30  1  0
 30 31  2  0
 31 32  1  0
 32 33  2  0
 12  7  1  0
 23 13  1  0
 33 24  1  0
 32 27  1  0
  3 34  1  0
  4 35  1  0
  4 36  1  0
  8 37  1  0
  8 38  1  0
  9 39  1  0
  9 40  1  0
 10 41  1  0
 10 42  1  0
 11 43  1  0
 11 44  1  0
 12 45  1  1
 14 46  1  0
 15 47  1  0
 22 48  1  0
 23 49  1  0
 25 50  1  0
 26 51  1  0
 28 52  1  0
 29 53  1  0
 30 54  1  0
 31 55  1  0
M  END
>  <smiles>  (58) 
O=C(NCC(=O)N1CCCCC1c1ccc(OC(F)(F)F)cc1)c1ccc2ccccc2n1

>  <score_type>  (58) 
oracle

>  <origin>  (58) 
autodockgpu

>  <m_score__min__energy>  (58) 
-8.6099999999999994

>  <m_primary>  (58) 
energy

>  <rmsd>  (58) 
7.779971438076264

>  <m_score__min__rmsd>  (58) 
7.779971438076264

>  <meeko>  (58) 
{"free_energy": -6.78, "intermolecular_energy": -8.86, "internal_energy": -2.76, "cluster_size": 17, "cluster_id": 5, "rank_in_cluster": 4}

>  <energy>  (58) 
-7.79

>  <cluster_rmsd>  (58) 
1.82

>  <cluster>  (58) 
1

$$$$

     RDKit          3D

 55 58  0  0  0  0  0  0  0  0999 V2000
  140.1700   71.1700  221.1990 O   0  0  0  0  0  0  0  0  0  0  0  0
  139.7230   71.8010  222.2150 C   0  0  0  0  0  0  0  0  0  0  0  0
  139.1430   73.1000  222.0280 N   0  0  0  0  0  0  0  0  0  0  0  0
  139.0090   73.7610  220.7860 C   0  0  0  0  0  0  0  0  0  0  0  0
  140.1920   74.1650  220.0360 C   0  0  0  0  0  0  0  0  0  0  0  0
  139.9200   74.5800  218.8260 O   0  0  0  0  0  0  0  0  0  0  0  0
  141.5440   74.1850  220.3710 N   0  0  0  0  0  0  0  0  0  0  0  0
  142.4070   73.0040  220.5390 C   0  0  0  0  0  0  0  0  0  0  0  0
  143.8160   73.3680  220.0640 C   0  0  0  0  0  0  0  0  0  0  0  0
  143.7900   74.4330  219.0100 C   0  0  0  0  0  0  0  0  0  0  0  0
  143.0620   75.6820  219.3650 C   0  0  0  0  0  0  0  0  0  0  0  0
  142.2530   75.4460  220.5890 C   0  0  1  0  0  0  0  0  0  0  0  0
  141.4160   76.5590  221.0280 C   0  0  0  0  0  0  0  0  0  0  0  0
  141.2680   77.7600  220.3900 C   0  0  0  0  0  0  0  0  0  0  0  0
  140.4620   78.7800  220.8510 C   0  0  0  0  0  0  0  0  0  0  0  0
  139.7580   78.5930  222.0230 C   0  0  0  0  0  0  0  0  0  0  0  0
  138.9290   79.5770  222.5440 O   0  0  0  0  0  0  0  0  0  0  0  0
  139.3240   80.5750  223.4420 C   0  0  0  0  0  0  0  0  0  0  0  0
  139.3250   81.7720  222.7210 F   0  0  0  0  0  0  0  0  0  0  0  0
  138.4540   80.6800  224.4830 F   0  0  0  0  0  0  0  0  0  0  0  0
  140.6500   80.4120  223.8450 F   0  0  0  0  0  0  0  0  0  0  0  0
  139.8740   77.3940  222.7090 C   0  0  0  0  0  0  0  0  0  0  0  0
  140.6940   76.3940  222.2130 C   0  0  0  0  0  0  0  0  0  0  0  0
  139.7980   71.2140  223.5640 C   0  0  0  0  0  0  0  0  0  0  0  0
  139.2570   69.9610  223.7530 C   0  0  0  0  0  0  0  0  0  0  0  0
  139.3280   69.4070  225.0250 C   0  0  0  0  0  0  0  0  0  0  0  0
  139.9280   70.1040  226.0680 C   0  0  0  0  0  0  0  0  0  0  0  0
  140.0110   69.5790  227.3340 C   0  0  0  0  0  0  0  0  0  0  0  0
  140.6100   70.2980  228.3330 C   0  0  0  0  0  0  0  0  0  0  0  0
  141.1520   71.5680  228.1290 C   0  0  0  0  0  0  0  0  0  0  0  0
  141.0490   72.0620  226.8370 C   0  0  0  0  0  0  0  0  0  0  0  0
  140.4520   71.3480  225.8310 C   0  0  0  0  0  0  0  0  0  0  0  0
  140.3720   71.8690  224.5850 N   0  0  0  0  0  0  0  0  0  0  0  0
  138.8000   73.5630  222.9160 H   0  0  0  0  0  0  0  0  0  0  0  0
  138.4337   73.0899  220.1313 H   0  0  0  0  0  0  0  0  0  0  0  0
  138.5493   74.7212  221.0629 H   0  0  0  0  0  0  0  0  0  0  0  0
  142.4356   72.7118  221.5991 H   0  0  0  0  0  0  0  0  0  0  0  0
  142.0146   72.1608  219.9516 H   0  0  0  0  0  0  0  0  0  0  0  0
  144.3986   73.7316  220.9233 H   0  0  0  0  0  0  0  0  0  0  0  0
  144.2735   72.4673  219.6288 H   0  0  0  0  0  0  0  0  0  0  0  0
  144.8308   74.7038  218.7788 H   0  0  0  0  0  0  0  0  0  0  0  0
  143.2400   73.9989  218.1620 H   0  0  0  0  0  0  0  0  0  0  0  0
  143.7858   76.4889  219.5525 H   0  0  0  0  0  0  0  0  0  0  0  0
  142.4004   75.9722  218.5355 H   0  0  0  0  0  0  0  0  0  0  0  0
  142.9192   75.3693  221.4609 H   0  0  0  0  0  0  0  0  0  0  0  0
  141.8242   77.9217  219.4548 H   0  0  0  0  0  0  0  0  0  0  0  0
  140.3819   79.7254  220.2944 H   0  0  0  0  0  0  0  0  0  0  0  0
  139.3166   77.2373  223.6443 H   0  0  0  0  0  0  0  0  0  0  0  0
  140.7790   75.4466  222.7655 H   0  0  0  0  0  0  0  0  0  0  0  0
  138.7837   69.4164  222.9227 H   0  0  0  0  0  0  0  0  0  0  0  0
  138.9058   68.4080  225.2088 H   0  0  0  0  0  0  0  0  0  0  0  0
  139.5968   68.5821  227.5451 H   0  0  0  0  0  0  0  0  0  0  0  0
  140.6666   69.8563  229.3388 H   0  0  0  0  0  0  0  0  0  0  0  0
  141.6291   72.1391  228.9390 H   0  0  0  0  0  0  0  0  0  0  0  0
  141.4592   73.0577  226.6129 H   0  0  0  0  0  0  0  0  0  0  0  0
  1  2  2  0
  2  3  1  0
  3  4  1  0
  4  5  1  0
  5  6  2  0
  5  7  1  0
  7  8  1  0
  8  9  1  0
  9 10  1  0
 10 11  1  0
 11 12  1  0
 12 13  1  0
 13 14  2  0
 14 15  1  0
 15 16  2  0
 16 17  1  0
 17 18  1  0
 18 19  1  0
 18 20  1  0
 18 21  1  0
 16 22  1  0
 22 23  2  0
  2 24  1  0
 24 25  2  0
 25 26  1  0
 26 27  2  0
 27 28  1  0
 28 29  2  0
 29 30  1  0
 30 31  2  0
 31 32  1  0
 32 33  2  0
 12  7  1  0
 23 13  1  0
 33 24  1  0
 32 27  1  0
  3 34  1  0
  4 35  1  0
  4 36  1  0
  8 37  1  0
  8 38  1  0
  9 39  1  0
  9 40  1  0
 10 41  1  0
 10 42  1  0
 11 43  1  0
 11 44  1  0
 12 45  1  1
 14 46  1  0
 15 47  1  0
 22 48  1  0
 23 49  1  0
 25 50  1  0
 26 51  1  0
 28 52  1  0
 29 53  1  0
 30 54  1  0
 31 55  1  0
M  END
>  <smiles>  (59) 
O=C(NCC(=O)N1CCCCC1c1ccc(OC(F)(F)F)cc1)c1ccc2ccccc2n1

>  <score_type>  (59) 
oracle

>  <origin>  (59) 
autodockgpu

>  <m_score__min__energy>  (59) 
-8.6099999999999994

>  <m_primary>  (59) 
energy

>  <rmsd>  (59) 
2.4303829453919903

>  <m_score__min__rmsd>  (59) 
2.4303829453919903

>  <meeko>  (59) 
{"free_energy": -7.72, "intermolecular_energy": -9.8, "internal_energy": -1.86, "cluster_size": 16, "cluster_id": 1, "rank_in_cluster": 11}

>  <energy>  (59) 
-7.75

>  <cluster_rmsd>  (59) 
1.71

>  <cluster>  (59) 
1

$$$$

     RDKit          3D

 55 58  0  0  0  0  0  0  0  0999 V2000
  139.5830   70.8220  221.2140 O   0  0  0  0  0  0  0  0  0  0  0  0
  140.0500   71.4250  222.2380 C   0  0  0  0  0  0  0  0  0  0  0  0
  140.6140   72.7350  222.0780 N   0  0  0  0  0  0  0  0  0  0  0  0
  140.6970   73.4420  220.8570 C   0  0  0  0  0  0  0  0  0  0  0  0
  140.8370   74.8940  220.8550 C   0  0  0  0  0  0  0  0  0  0  0  0
  140.9280   75.4060  222.0550 O   0  0  0  0  0  0  0  0  0  0  0  0
  140.8870   75.8210  219.8170 N   0  0  0  0  0  0  0  0  0  0  0  0
  139.7410   76.5680  219.2720 C   0  0  0  0  0  0  0  0  0  0  0  0
  140.2290   77.9550  218.8480 C   0  0  0  0  0  0  0  0  0  0  0  0
  141.4050   78.4040  219.6600 C   0  0  0  0  0  0  0  0  0  0  0  0
  142.5660   77.4730  219.6940 C   0  0  0  0  0  0  0  0  0  0  0  0
  142.1500   76.1510  219.1550 C   0  0  1  0  0  0  0  0  0  0  0  0
  143.1610   75.0980  219.1900 C   0  0  0  0  0  0  0  0  0  0  0  0
  144.0640   74.8780  220.1930 C   0  0  0  0  0  0  0  0  0  0  0  0
  145.0010   73.8650  220.1730 C   0  0  0  0  0  0  0  0  0  0  0  0
  145.0410   73.0170  219.0850 C   0  0  0  0  0  0  0  0  0  0  0  0
  145.9570   71.9780  219.0000 O   0  0  0  0  0  0  0  0  0  0  0  0
  145.6330   70.6240  218.8670 C   0  0  0  0  0  0  0  0  0  0  0  0
  144.5570   70.3920  219.7270 F   0  0  0  0  0  0  0  0  0  0  0  0
  145.2600   70.3250  217.5930 F   0  0  0  0  0  0  0  0  0  0  0  0
  146.6480   69.7990  219.3530 F   0  0  0  0  0  0  0  0  0  0  0  0
  144.1460   73.1990  218.0410 C   0  0  0  0  0  0  0  0  0  0  0  0
  143.2210   74.2270  218.0990 C   0  0  0  0  0  0  0  0  0  0  0  0
  140.0160   70.7950  223.5700 C   0  0  0  0  0  0  0  0  0  0  0  0
  139.4250   69.5560  223.6810 C   0  0  0  0  0  0  0  0  0  0  0  0
  139.3930   68.9610  224.9370 C   0  0  0  0  0  0  0  0  0  0  0  0
  139.9430   69.6070  226.0390 C   0  0  0  0  0  0  0  0  0  0  0  0
  139.9240   69.0400  227.2900 C   0  0  0  0  0  0  0  0  0  0  0  0
  140.4770   69.7090  228.3500 C   0  0  0  0  0  0  0  0  0  0  0  0
  141.0720   70.9650  228.2230 C   0  0  0  0  0  0  0  0  0  0  0  0
  141.0710   71.5010  226.9430 C   0  0  0  0  0  0  0  0  0  0  0  0
  140.5200   70.8380  225.8780 C   0  0  0  0  0  0  0  0  0  0  0  0
  140.5410   71.4000  224.6460 N   0  0  0  0  0  0  0  0  0  0  0  0
  140.9860   73.1690  222.9690 H   0  0  0  0  0  0  0  0  0  0  0  0
  141.5672   73.0399  220.3175 H   0  0  0  0  0  0  0  0  0  0  0  0
  139.7036   73.2866  220.4108 H   0  0  0  0  0  0  0  0  0  0  0  0
  139.3304   76.0359  218.4012 H   0  0  0  0  0  0  0  0  0  0  0  0
  138.9523   76.6602  220.0332 H   0  0  0  0  0  0  0  0  0  0  0  0
  140.5206   77.9210  217.7879 H   0  0  0  0  0  0  0  0  0  0  0  0
  139.4089   78.6700  219.0102 H   0  0  0  0  0  0  0  0  0  0  0  0
  141.7535   79.3621  219.2470 H   0  0  0  0  0  0  0  0  0  0  0  0
  141.0437   78.4668  220.6971 H   0  0  0  0  0  0  0  0  0  0  0  0
  143.3822   77.8804  219.0793 H   0  0  0  0  0  0  0  0  0  0  0  0
  142.9148   77.3557  220.7306 H   0  0  0  0  0  0  0  0  0  0  0  0
  142.0083   76.2257  218.0667 H   0  0  0  0  0  0  0  0  0  0  0  0
  144.0423   75.5469  221.0660 H   0  0  0  0  0  0  0  0  0  0  0  0
  145.7036   73.7358  221.0095 H   0  0  0  0  0  0  0  0  0  0  0  0
  144.1713   72.5283  217.1695 H   0  0  0  0  0  0  0  0  0  0  0  0
  142.5157   74.3616  217.2657 H   0  0  0  0  0  0  0  0  0  0  0  0
  138.9920   69.0532  222.8037 H   0  0  0  0  0  0  0  0  0  0  0  0
  138.9290   67.9713  225.0602 H   0  0  0  0  0  0  0  0  0  0  0  0
  139.4659   68.0513  227.4403 H   0  0  0  0  0  0  0  0  0  0  0  0
  140.4509   69.2363  229.3429 H   0  0  0  0  0  0  0  0  0  0  0  0
  141.5125   71.4948  229.0805 H   0  0  0  0  0  0  0  0  0  0  0  0
  141.5266   72.4886  226.7783 H   0  0  0  0  0  0  0  0  0  0  0  0
  1  2  2  0
  2  3  1  0
  3  4  1  0
  4  5  1  0
  5  6  2  0
  5  7  1  0
  7  8  1  0
  8  9  1  0
  9 10  1  0
 10 11  1  0
 11 12  1  0
 12 13  1  0
 13 14  2  0
 14 15  1  0
 15 16  2  0
 16 17  1  0
 17 18  1  0
 18 19  1  0
 18 20  1  0
 18 21  1  0
 16 22  1  0
 22 23  2  0
  2 24  1  0
 24 25  2  0
 25 26  1  0
 26 27  2  0
 27 28  1  0
 28 29  2  0
 29 30  1  0
 30 31  2  0
 31 32  1  0
 32 33  2  0
 12  7  1  0
 23 13  1  0
 33 24  1  0
 32 27  1  0
  3 34  1  0
  4 35  1  0
  4 36  1  0
  8 37  1  0
  8 38  1  0
  9 39  1  0
  9 40  1  0
 10 41  1  0
 10 42  1  0
 11 43  1  0
 11 44  1  0
 12 45  1  6
 14 46  1  0
 15 47  1  0
 22 48  1  0
 23 49  1  0
 25 50  1  0
 26 51  1  0
 28 52  1  0
 29 53  1  0
 30 54  1  0
 31 55  1  0
M  END
>  <smiles>  (60) 
O=C(NCC(=O)N1CCCCC1c1ccc(OC(F)(F)F)cc1)c1ccc2ccccc2n1

>  <score_type>  (60) 
oracle

>  <origin>  (60) 
autodockgpu

>  <m_score__min__energy>  (60) 
-8.6099999999999994

>  <m_primary>  (60) 
energy

>  <rmsd>  (60) 
1.921704809477658

>  <m_score__min__rmsd>  (60) 
1.921704809477658

>  <meeko>  (60) 
{"free_energy": -7.69, "intermolecular_energy": -9.78, "internal_energy": -2.14, "cluster_size": 9, "cluster_id": 2, "rank_in_cluster": 4}

>  <energy>  (60) 
-7.73

>  <cluster_rmsd>  (60) 
1.71

>  <cluster>  (60) 
1

$$$$

     RDKit          3D

 55 58  0  0  0  0  0  0  0  0999 V2000
  136.7130   77.4960  222.4920 O   0  0  0  0  0  0  0  0  0  0  0  0
  136.8380   76.2930  222.8980 C   0  0  0  0  0  0  0  0  0  0  0  0
  137.9420   75.5080  222.4230 N   0  0  0  0  0  0  0  0  0  0  0  0
  138.9370   75.9610  221.5270 C   0  0  0  0  0  0  0  0  0  0  0  0
  140.2780   75.3880  221.5650 C   0  0  0  0  0  0  0  0  0  0  0  0
  140.3570   74.3060  222.2960 O   0  0  0  0  0  0  0  0  0  0  0  0
  141.4740   75.7820  220.9710 N   0  0  0  0  0  0  0  0  0  0  0  0
  142.5250   74.8820  220.4680 C   0  0  0  0  0  0  0  0  0  0  0  0
  143.1650   75.5290  219.2380 C   0  0  0  0  0  0  0  0  0  0  0  0
  142.2050   76.4270  218.5200 C   0  0  0  0  0  0  0  0  0  0  0  0
  141.5630   77.4870  219.3440 C   0  0  0  0  0  0  0  0  0  0  0  0
  141.7970   77.1970  220.7830 C   0  0  1  0  0  0  0  0  0  0  0  0
  141.1640   78.1090  221.7320 C   0  0  0  0  0  0  0  0  0  0  0  0
  141.4550   78.2190  223.0640 C   0  0  0  0  0  0  0  0  0  0  0  0
  140.8220   79.1000  223.9170 C   0  0  0  0  0  0  0  0  0  0  0  0
  139.8370   79.9240  223.4110 C   0  0  0  0  0  0  0  0  0  0  0  0
  139.1610   80.8330  224.2130 O   0  0  0  0  0  0  0  0  0  0  0  0
  137.7710   80.9120  224.3510 C   0  0  0  0  0  0  0  0  0  0  0  0
  137.5130   80.9170  225.7240 F   0  0  0  0  0  0  0  0  0  0  0  0
  137.2800   82.0540  223.7980 F   0  0  0  0  0  0  0  0  0  0  0  0
  137.1390   79.7580  223.8850 F   0  0  0  0  0  0  0  0  0  0  0  0
  139.5040   79.8500  222.0670 C   0  0  0  0  0  0  0  0  0  0  0  0
  140.1630   78.9530  221.2440 C   0  0  0  0  0  0  0  0  0  0  0  0
  135.8690   75.7060  223.8400 C   0  0  0  0  0  0  0  0  0  0  0  0
  135.0520   76.5660  224.5420 C   0  0  0  0  0  0  0  0  0  0  0  0
  134.1370   76.0130  225.4300 C   0  0  0  0  0  0  0  0  0  0  0  0
  134.0580   74.6340  225.5970 C   0  0  0  0  0  0  0  0  0  0  0  0
  133.1620   74.0640  226.4680 C   0  0  0  0  0  0  0  0  0  0  0  0
  133.1160   72.7020  226.6030 C   0  0  0  0  0  0  0  0  0  0  0  0
  133.9500   71.8430  225.8860 C   0  0  0  0  0  0  0  0  0  0  0  0
  134.8380   72.4590  225.0170 C   0  0  0  0  0  0  0  0  0  0  0  0
  134.8910   73.8210  224.8760 C   0  0  0  0  0  0  0  0  0  0  0  0
  135.7740   74.3800  224.0160 N   0  0  0  0  0  0  0  0  0  0  0  0
  137.9760   74.5200  222.7990 H   0  0  0  0  0  0  0  0  0  0  0  0
  138.5492   75.7908  220.5118 H   0  0  0  0  0  0  0  0  0  0  0  0
  139.1015   77.0019  221.8424 H   0  0  0  0  0  0  0  0  0  0  0  0
  143.2870   74.7288  221.2463 H   0  0  0  0  0  0  0  0  0  0  0  0
  142.0921   73.9067  220.2006 H   0  0  0  0  0  0  0  0  0  0  0  0
  144.0347   76.1211  219.5589 H   0  0  0  0  0  0  0  0  0  0  0  0
  143.4660   74.7276  218.5473 H   0  0  0  0  0  0  0  0  0  0  0  0
  142.7523   76.9206  217.7034 H   0  0  0  0  0  0  0  0  0  0  0  0
  141.3850   75.7758  218.1829 H   0  0  0  0  0  0  0  0  0  0  0  0
  141.9988   78.4646  219.0902 H   0  0  0  0  0  0  0  0  0  0  0  0
  140.4818   77.5075  219.1424 H   0  0  0  0  0  0  0  0  0  0  0  0
  142.8517   77.3884  221.0297 H   0  0  0  0  0  0  0  0  0  0  0  0
  142.2385   77.5679  223.4790 H   0  0  0  0  0  0  0  0  0  0  0  0
  141.0975   79.1448  224.9810 H   0  0  0  0  0  0  0  0  0  0  0  0
  138.7189   80.5018  221.6562 H   0  0  0  0  0  0  0  0  0  0  0  0
  139.8918   78.9034  220.1791 H   0  0  0  0  0  0  0  0  0  0  0  0
  135.1220   77.6550  224.4039 H   0  0  0  0  0  0  0  0  0  0  0  0
  133.4696   76.6712  226.0057 H   0  0  0  0  0  0  0  0  0  0  0  0
  132.4833   74.6997  227.0555 H   0  0  0  0  0  0  0  0  0  0  0  0
  132.3909   72.2666  227.3064 H   0  0  0  0  0  0  0  0  0  0  0  0
  133.9059   70.7501  226.0024 H   0  0  0  0  0  0  0  0  0  0  0  0
  135.5211   71.8348  224.4223 H   0  0  0  0  0  0  0  0  0  0  0  0
  1  2  2  0
  2  3  1  0
  3  4  1  0
  4  5  1  0
  5  6  2  0
  5  7  1  0
  7  8  1  0
  8  9  1  0
  9 10  1  0
 10 11  1  0
 11 12  1  0
 12 13  1  0
 13 14  2  0
 14 15  1  0
 15 16  2  0
 16 17  1  0
 17 18  1  0
 18 19  1  0
 18 20  1  0
 18 21  1  0
 16 22  1  0
 22 23  2  0
  2 24  1  0
 24 25  2  0
 25 26  1  0
 26 27  2  0
 27 28  1  0
 28 29  2  0
 29 30  1  0
 30 31  2  0
 31 32  1  0
 32 33  2  0
 12  7  1  0
 23 13  1  0
 33 24  1  0
 32 27  1  0
  3 34  1  0
  4 35  1  0
  4 36  1  0
  8 37  1  0
  8 38  1  0
  9 39  1  0
  9 40  1  0
 10 41  1  0
 10 42  1  0
 11 43  1  0
 11 44  1  0
 12 45  1  6
 14 46  1  0
 15 47  1  0
 22 48  1  0
 23 49  1  0
 25 50  1  0
 26 51  1  0
 28 52  1  0
 29 53  1  0
 30 54  1  0
 31 55  1  0
M  END
>  <smiles>  (61) 
O=C(NCC(=O)N1CCCCC1c1ccc(OC(F)(F)F)cc1)c1ccc2ccccc2n1

>  <score_type>  (61) 
oracle

>  <origin>  (61) 
autodockgpu

>  <m_score__min__energy>  (61) 
-8.6099999999999994

>  <m_primary>  (61) 
energy

>  <rmsd>  (61) 
5.689217454184355

>  <m_score__min__rmsd>  (61) 
5.689217454184355

>  <meeko>  (61) 
{"free_energy": -7.06, "intermolecular_energy": -9.15, "internal_energy": -2.36, "cluster_size": 4, "cluster_id": 4, "rank_in_cluster": 2}

>  <energy>  (61) 
-7.72

>  <cluster_rmsd>  (61) 
1.66

>  <cluster>  (61) 
1

$$$$

     RDKit          3D

 55 58  0  0  0  0  0  0  0  0999 V2000
  138.9280   75.2610  221.7740 O   0  0  0  0  0  0  0  0  0  0  0  0
  140.0810   75.7880  221.9220 C   0  0  0  0  0  0  0  0  0  0  0  0
  141.2490   74.9870  221.6900 N   0  0  0  0  0  0  0  0  0  0  0  0
  141.2400   73.6310  221.2940 C   0  0  0  0  0  0  0  0  0  0  0  0
  142.1160   73.1700  220.2220 C   0  0  0  0  0  0  0  0  0  0  0  0
  141.4770   72.5590  219.2590 O   0  0  0  0  0  0  0  0  0  0  0  0
  143.4940   73.2610  220.0450 N   0  0  0  0  0  0  0  0  0  0  0  0
  144.5070   72.4400  220.7300 C   0  0  0  0  0  0  0  0  0  0  0  0
  145.6690   72.2040  219.7620 C   0  0  0  0  0  0  0  0  0  0  0  0
  145.2170   72.2290  218.3340 C   0  0  0  0  0  0  0  0  0  0  0  0
  144.4720   73.4460  217.9070 C   0  0  0  0  0  0  0  0  0  0  0  0
  144.0770   74.2240  219.1110 C   0  0  1  0  0  0  0  0  0  0  0  0
  143.2700   75.4160  218.8650 C   0  0  0  0  0  0  0  0  0  0  0  0
  142.5020   75.6590  217.7590 C   0  0  0  0  0  0  0  0  0  0  0  0
  141.7580   76.8060  217.5790 C   0  0  0  0  0  0  0  0  0  0  0  0
  141.7780   77.7730  218.5630 C   0  0  0  0  0  0  0  0  0  0  0  0
  141.0520   78.9510  218.4460 O   0  0  0  0  0  0  0  0  0  0  0  0
  141.5120   80.2220  218.8040 C   0  0  0  0  0  0  0  0  0  0  0  0
  142.8110   80.3260  218.2990 F   0  0  0  0  0  0  0  0  0  0  0  0
  140.7400   81.2020  218.2600 F   0  0  0  0  0  0  0  0  0  0  0  0
  141.6670   80.3460  220.1860 F   0  0  0  0  0  0  0  0  0  0  0  0
  142.5400   77.5750  219.7040 C   0  0  0  0  0  0  0  0  0  0  0  0
  143.2740   76.4100  219.8480 C   0  0  0  0  0  0  0  0  0  0  0  0
  140.2230   77.1990  222.3250 C   0  0  0  0  0  0  0  0  0  0  0  0
  139.0740   77.9430  222.4800 C   0  0  0  0  0  0  0  0  0  0  0  0
  139.2070   79.2730  222.8600 C   0  0  0  0  0  0  0  0  0  0  0  0
  140.4660   79.8250  223.0750 C   0  0  0  0  0  0  0  0  0  0  0  0
  140.6240   81.1350  223.4520 C   0  0  0  0  0  0  0  0  0  0  0  0
  141.8810   81.6400  223.6530 C   0  0  0  0  0  0  0  0  0  0  0  0
  143.0370   80.8750  223.4910 C   0  0  0  0  0  0  0  0  0  0  0  0
  142.8330   79.5560  223.1110 C   0  0  0  0  0  0  0  0  0  0  0  0
  141.5790   79.0440  222.9090 C   0  0  0  0  0  0  0  0  0  0  0  0
  141.4270   77.7510  222.5370 N   0  0  0  0  0  0  0  0  0  0  0  0
  142.1680   75.4910  221.8370 H   0  0  0  0  0  0  0  0  0  0  0  0
  141.4944   73.0398  222.1860 H   0  0  0  0  0  0  0  0  0  0  0  0
  140.2347   73.5033  220.8662 H   0  0  0  0  0  0  0  0  0  0  0  0
  144.8696   72.9668  221.6250 H   0  0  0  0  0  0  0  0  0  0  0  0
  144.0701   71.4790  221.0392 H   0  0  0  0  0  0  0  0  0  0  0  0
  146.4222   72.9918  219.9109 H   0  0  0  0  0  0  0  0  0  0  0  0
  146.0908   71.2096  219.9699 H   0  0  0  0  0  0  0  0  0  0  0  0
  146.1092   72.1395  217.6968 H   0  0  0  0  0  0  0  0  0  0  0  0
  144.5066   71.3952  218.2328 H   0  0  0  0  0  0  0  0  0  0  0  0
  145.1152   74.0645  217.2638 H   0  0  0  0  0  0  0  0  0  0  0  0
  143.5731   73.1515  217.3456 H   0  0  0  0  0  0  0  0  0  0  0  0
  144.9664   74.6980  219.5517 H   0  0  0  0  0  0  0  0  0  0  0  0
  142.4766   74.8953  216.9677 H   0  0  0  0  0  0  0  0  0  0  0  0
  141.1592   76.9475  216.6672 H   0  0  0  0  0  0  0  0  0  0  0  0
  142.5614   78.3414  220.4928 H   0  0  0  0  0  0  0  0  0  0  0  0
  143.8747   76.2630  220.7577 H   0  0  0  0  0  0  0  0  0  0  0  0
  138.0826   77.4983  222.3084 H   0  0  0  0  0  0  0  0  0  0  0  0
  138.3092   79.8948  222.9920 H   0  0  0  0  0  0  0  0  0  0  0  0
  139.7427   81.7782  223.5925 H   0  0  0  0  0  0  0  0  0  0  0  0
  141.9838   82.6928  223.9548 H   0  0  0  0  0  0  0  0  0  0  0  0
  144.0427   81.2899  223.6537 H   0  0  0  0  0  0  0  0  0  0  0  0
  143.7054   78.9016  222.9676 H   0  0  0  0  0  0  0  0  0  0  0  0
  1  2  2  0
  2  3  1  0
  3  4  1  0
  4  5  1  0
  5  6  2  0
  5  7  1  0
  7  8  1  0
  8  9  1  0
  9 10  1  0
 10 11  1  0
 11 12  1  0
 12 13  1  0
 13 14  2  0
 14 15  1  0
 15 16  2  0
 16 17  1  0
 17 18  1  0
 18 19  1  0
 18 20  1  0
 18 21  1  0
 16 22  1  0
 22 23  2  0
  2 24  1  0
 24 25  2  0
 25 26  1  0
 26 27  2  0
 27 28  1  0
 28 29  2  0
 29 30  1  0
 30 31  2  0
 31 32  1  0
 32 33  2  0
 12  7  1  0
 23 13  1  0
 33 24  1  0
 32 27  1  0
  3 34  1  0
  4 35  1  0
  4 36  1  0
  8 37  1  0
  8 38  1  0
  9 39  1  0
  9 40  1  0
 10 41  1  0
 10 42  1  0
 11 43  1  0
 11 44  1  0
 12 45  1  1
 14 46  1  0
 15 47  1  0
 22 48  1  0
 23 49  1  0
 25 50  1  0
 26 51  1  0
 28 52  1  0
 29 53  1  0
 30 54  1  0
 31 55  1  0
M  END
>  <smiles>  (62) 
O=C(NCC(=O)N1CCCCC1c1ccc(OC(F)(F)F)cc1)c1ccc2ccccc2n1

>  <score_type>  (62) 
oracle

>  <origin>  (62) 
autodockgpu

>  <m_score__min__energy>  (62) 
-8.6099999999999994

>  <m_primary>  (62) 
energy

>  <rmsd>  (62) 
7.792573196569961

>  <m_score__min__rmsd>  (62) 
7.792573196569961

>  <meeko>  (62) 
{"free_energy": -6.68, "intermolecular_energy": -8.77, "internal_energy": -3.0, "cluster_size": 17, "cluster_id": 5, "rank_in_cluster": 6}

>  <energy>  (62) 
-7.71

>  <cluster_rmsd>  (62) 
1.89

>  <cluster>  (62) 
1

$$$$

     RDKit          3D

 55 58  0  0  0  0  0  0  0  0999 V2000
  139.2280   74.4320  221.0320 O   0  0  0  0  0  0  0  0  0  0  0  0
  140.4310   74.7820  221.2770 C   0  0  0  0  0  0  0  0  0  0  0  0
  140.6710   76.0190  221.9630 N   0  0  0  0  0  0  0  0  0  0  0  0
  139.6690   76.9090  222.4120 C   0  0  0  0  0  0  0  0  0  0  0  0
  139.5470   78.2390  221.8260 C   0  0  0  0  0  0  0  0  0  0  0  0
  138.5720   78.3340  220.9590 O   0  0  0  0  0  0  0  0  0  0  0  0
  140.2770   79.4090  222.0180 N   0  0  0  0  0  0  0  0  0  0  0  0
  139.8510   80.5680  222.8210 C   0  0  0  0  0  0  0  0  0  0  0  0
  141.0920   81.1840  223.4700 C   0  0  0  0  0  0  0  0  0  0  0  0
  142.1660   80.1640  223.6970 C   0  0  0  0  0  0  0  0  0  0  0  0
  142.5840   79.3820  222.5010 C   0  0  0  0  0  0  0  0  0  0  0  0
  141.5960   79.5890  221.4110 C   0  0  1  0  0  0  0  0  0  0  0  0
  141.8240   78.8260  220.1860 C   0  0  0  0  0  0  0  0  0  0  0  0
  141.5170   79.2280  218.9150 C   0  0  0  0  0  0  0  0  0  0  0  0
  141.7550   78.4640  217.7910 C   0  0  0  0  0  0  0  0  0  0  0  0
  142.3340   77.2210  217.9420 C   0  0  0  0  0  0  0  0  0  0  0  0
  142.6010   76.4010  216.8540 O   0  0  0  0  0  0  0  0  0  0  0  0
  142.7490   75.0110  216.9070 C   0  0  0  0  0  0  0  0  0  0  0  0
  143.9850   74.7710  217.5120 F   0  0  0  0  0  0  0  0  0  0  0  0
  141.7660   74.4350  217.6510 F   0  0  0  0  0  0  0  0  0  0  0  0
  142.8740   74.4560  215.6330 F   0  0  0  0  0  0  0  0  0  0  0  0
  142.6640   76.7670  219.2100 C   0  0  0  0  0  0  0  0  0  0  0  0
  142.4100   77.5640  220.3140 C   0  0  0  0  0  0  0  0  0  0  0  0
  141.5650   73.9360  220.8650 C   0  0  0  0  0  0  0  0  0  0  0  0
  141.2890   72.6610  220.4200 C   0  0  0  0  0  0  0  0  0  0  0  0
  142.3580   71.8630  220.0320 C   0  0  0  0  0  0  0  0  0  0  0  0
  143.6610   72.3450  220.0940 C   0  0  0  0  0  0  0  0  0  0  0  0
  144.7340   71.5770  219.7160 C   0  0  0  0  0  0  0  0  0  0  0  0
  146.0010   72.0890  219.7930 C   0  0  0  0  0  0  0  0  0  0  0  0
  146.2660   73.3820  220.2470 C   0  0  0  0  0  0  0  0  0  0  0  0
  145.1560   74.1260  220.6180 C   0  0  0  0  0  0  0  0  0  0  0  0
  143.8840   73.6200  220.5430 C   0  0  0  0  0  0  0  0  0  0  0  0
  142.8290   74.3810  220.9170 N   0  0  0  0  0  0  0  0  0  0  0  0
  141.6920   76.2450  222.1250 H   0  0  0  0  0  0  0  0  0  0  0  0
  138.7045   76.4045  222.2534 H   0  0  0  0  0  0  0  0  0  0  0  0
  139.9709   77.1207  223.4484 H   0  0  0  0  0  0  0  0  0  0  0  0
  139.3627   81.3105  222.1728 H   0  0  0  0  0  0  0  0  0  0  0  0
  139.1360   80.2513  223.5946 H   0  0  0  0  0  0  0  0  0  0  0  0
  141.4838   81.9729  222.8112 H   0  0  0  0  0  0  0  0  0  0  0  0
  140.7984   81.5945  224.4474 H   0  0  0  0  0  0  0  0  0  0  0  0
  143.0524   80.6884  224.0834 H   0  0  0  0  0  0  0  0  0  0  0  0
  141.7373   79.4313  224.3965 H   0  0  0  0  0  0  0  0  0  0  0  0
  143.5757   79.7217  222.1678 H   0  0  0  0  0  0  0  0  0  0  0  0
  142.6325   78.3134  222.7572 H   0  0  0  0  0  0  0  0  0  0  0  0
  141.7004   80.6073  221.0084 H   0  0  0  0  0  0  0  0  0  0  0  0
  141.0539   80.2168  218.7814 H   0  0  0  0  0  0  0  0  0  0  0  0
  141.4878   78.8394  216.7922 H   0  0  0  0  0  0  0  0  0  0  0  0
  143.1260   75.7771  219.3387 H   0  0  0  0  0  0  0  0  0  0  0  0
  142.6760   77.1946  221.3154 H   0  0  0  0  0  0  0  0  0  0  0  0
  140.2555   72.2873  220.3736 H   0  0  0  0  0  0  0  0  0  0  0  0
  142.1720   70.8402  219.6723 H   0  0  0  0  0  0  0  0  0  0  0  0
  144.5758   70.5512  219.3516 H   0  0  0  0  0  0  0  0  0  0  0  0
  146.8454   71.4552  219.4843 H   0  0  0  0  0  0  0  0  0  0  0  0
  147.2880   73.7844  220.3066 H   0  0  0  0  0  0  0  0  0  0  0  0
  145.3005   75.1534  220.9836 H   0  0  0  0  0  0  0  0  0  0  0  0
  1  2  2  0
  2  3  1  0
  3  4  1  0
  4  5  1  0
  5  6  2  0
  5  7  1  0
  7  8  1  0
  8  9  1  0
  9 10  1  0
 10 11  1  0
 11 12  1  0
 12 13  1  0
 13 14  2  0
 14 15  1  0
 15 16  2  0
 16 17  1  0
 17 18  1  0
 18 19  1  0
 18 20  1  0
 18 21  1  0
 16 22  1  0
 22 23  2  0
  2 24  1  0
 24 25  2  0
 25 26  1  0
 26 27  2  0
 27 28  1  0
 28 29  2  0
 29 30  1  0
 30 31  2  0
 31 32  1  0
 32 33  2  0
 12  7  1  0
 23 13  1  0
 33 24  1  0
 32 27  1  0
  3 34  1  0
  4 35  1  0
  4 36  1  0
  8 37  1  0
  8 38  1  0
  9 39  1  0
  9 40  1  0
 10 41  1  0
 10 42  1  0
 11 43  1  0
 11 44  1  0
 12 45  1  6
 14 46  1  0
 15 47  1  0
 22 48  1  0
 23 49  1  0
 25 50  1  0
 26 51  1  0
 28 52  1  0
 29 53  1  0
 30 54  1  0
 31 55  1  0
M  END
>  <smiles>  (63) 
O=C(NCC(=O)N1CCCCC1c1ccc(OC(F)(F)F)cc1)c1ccc2ccccc2n1

>  <score_type>  (63) 
oracle

>  <origin>  (63) 
autodockgpu

>  <m_score__min__energy>  (63) 
-8.6099999999999994

>  <m_primary>  (63) 
energy

>  <rmsd>  (63) 
6.4543076712900325

>  <m_score__min__rmsd>  (63) 
6.4543076712900325

>  <meeko>  (63) 
{"free_energy": -6.33, "intermolecular_energy": -8.42, "internal_energy": -2.93, "cluster_size": 1, "cluster_id": 6, "rank_in_cluster": 1}

>  <energy>  (63) 
-7.7

>  <cluster_rmsd>  (63) 
1.7

>  <cluster>  (63) 
1

$$$$

     RDKit          3D

 55 58  0  0  0  0  0  0  0  0999 V2000
  140.1020   71.0960  221.1820 O   0  0  0  0  0  0  0  0  0  0  0  0
  139.8170   71.7780  222.2230 C   0  0  0  0  0  0  0  0  0  0  0  0
  139.3930   73.1410  222.0690 N   0  0  0  0  0  0  0  0  0  0  0  0
  139.2500   73.8140  220.8350 C   0  0  0  0  0  0  0  0  0  0  0  0
  140.3890   73.9500  219.9340 C   0  0  0  0  0  0  0  0  0  0  0  0
  140.0430   74.1760  218.6930 O   0  0  0  0  0  0  0  0  0  0  0  0
  141.7630   73.8800  220.1550 N   0  0  0  0  0  0  0  0  0  0  0  0
  142.5680   72.6480  220.1920 C   0  0  0  0  0  0  0  0  0  0  0  0
  143.9520   72.9610  219.6180 C   0  0  0  0  0  0  0  0  0  0  0  0
  143.9010   74.0800  218.6230 C   0  0  0  0  0  0  0  0  0  0  0  0
  143.2780   75.3460  219.0980 C   0  0  0  0  0  0  0  0  0  0  0  0
  142.5580   75.0890  220.3730 C   0  0  1  0  0  0  0  0  0  0  0  0
  141.8260   76.2200  220.9350 C   0  0  0  0  0  0  0  0  0  0  0  0
  141.0530   76.2030  222.0630 C   0  0  0  0  0  0  0  0  0  0  0  0
  140.3800   77.3050  222.5500 C   0  0  0  0  0  0  0  0  0  0  0  0
  140.4840   78.5000  221.8690 C   0  0  0  0  0  0  0  0  0  0  0  0
  139.8340   79.6480  222.3030 O   0  0  0  0  0  0  0  0  0  0  0  0
  140.2250   80.4370  223.3890 C   0  0  0  0  0  0  0  0  0  0  0  0
  140.8790   81.5480  222.8520 F   0  0  0  0  0  0  0  0  0  0  0  0
  139.1500   80.8560  224.1120 F   0  0  0  0  0  0  0  0  0  0  0  0
  141.1980   79.8030  224.1640 F   0  0  0  0  0  0  0  0  0  0  0  0
  141.2550   78.5710  220.7190 C   0  0  0  0  0  0  0  0  0  0  0  0
  141.9150   77.4420  220.2630 C   0  0  0  0  0  0  0  0  0  0  0  0
  139.9190   71.1860  223.5680 C   0  0  0  0  0  0  0  0  0  0  0  0
  139.4730   69.8930  223.7380 C   0  0  0  0  0  0  0  0  0  0  0  0
  139.5690   69.3340  225.0070 C   0  0  0  0  0  0  0  0  0  0  0  0
  140.1000   70.0650  226.0640 C   0  0  0  0  0  0  0  0  0  0  0  0
  140.2060   69.5350  227.3260 C   0  0  0  0  0  0  0  0  0  0  0  0
  140.7360   70.2880  228.3400 C   0  0  0  0  0  0  0  0  0  0  0  0
  141.1830   71.5970  228.1540 C   0  0  0  0  0  0  0  0  0  0  0  0
  141.0590   72.0940  226.8650 C   0  0  0  0  0  0  0  0  0  0  0  0
  140.5310   71.3470  225.8450 C   0  0  0  0  0  0  0  0  0  0  0  0
  140.4280   71.8730  224.6020 N   0  0  0  0  0  0  0  0  0  0  0  0
  139.1800   73.6430  222.9760 H   0  0  0  0  0  0  0  0  0  0  0  0
  138.4656   73.2838  220.2750 H   0  0  0  0  0  0  0  0  0  0  0  0
  139.0473   74.8516  221.1389 H   0  0  0  0  0  0  0  0  0  0  0  0
  142.6663   72.2989  221.2305 H   0  0  0  0  0  0  0  0  0  0  0  0
  142.0814   71.8593  219.5994 H   0  0  0  0  0  0  0  0  0  0  0  0
  144.6228   73.2470  220.4416 H   0  0  0  0  0  0  0  0  0  0  0  0
  144.3201   72.0615  219.1028 H   0  0  0  0  0  0  0  0  0  0  0  0
  144.9332   74.3064  218.3176 H   0  0  0  0  0  0  0  0  0  0  0  0
  143.2588   73.7214  217.8051 H   0  0  0  0  0  0  0  0  0  0  0  0
  144.0603   76.1015  219.2632 H   0  0  0  0  0  0  0  0  0  0  0  0
  142.5696   75.7153  218.3419 H   0  0  0  0  0  0  0  0  0  0  0  0
  143.2869   74.9310  221.1815 H   0  0  0  0  0  0  0  0  0  0  0  0
  140.9623   75.2555  222.6144 H   0  0  0  0  0  0  0  0  0  0  0  0
  139.7722   77.2318  223.4639 H   0  0  0  0  0  0  0  0  0  0  0  0
  141.3423   79.5206  220.1707 H   0  0  0  0  0  0  0  0  0  0  0  0
  142.5241   77.5089  219.3495 H   0  0  0  0  0  0  0  0  0  0  0  0
  139.0545   69.3217  222.8963 H   0  0  0  0  0  0  0  0  0  0  0  0
  139.2218   68.3041  225.1766 H   0  0  0  0  0  0  0  0  0  0  0  0
  139.8659   68.5075  227.5225 H   0  0  0  0  0  0  0  0  0  0  0  0
  140.8125   69.8424  229.3428 H   0  0  0  0  0  0  0  0  0  0  0  0
  141.6055   72.1948  228.9751 H   0  0  0  0  0  0  0  0  0  0  0  0
  141.3951   73.1201  226.6551 H   0  0  0  0  0  0  0  0  0  0  0  0
  1  2  2  0
  2  3  1  0
  3  4  1  0
  4  5  1  0
  5  6  2  0
  5  7  1  0
  7  8  1  0
  8  9  1  0
  9 10  1  0
 10 11  1  0
 11 12  1  0
 12 13  1  0
 13 14  2  0
 14 15  1  0
 15 16  2  0
 16 17  1  0
 17 18  1  0
 18 19  1  0
 18 20  1  0
 18 21  1  0
 16 22  1  0
 22 23  2  0
  2 24  1  0
 24 25  2  0
 25 26  1  0
 26 27  2  0
 27 28  1  0
 28 29  2  0
 29 30  1  0
 30 31  2  0
 31 32  1  0
 32 33  2  0
 12  7  1  0
 23 13  1  0
 33 24  1  0
 32 27  1  0
  3 34  1  0
  4 35  1  0
  4 36  1  0
  8 37  1  0
  8 38  1  0
  9 39  1  0
  9 40  1  0
 10 41  1  0
 10 42  1  0
 11 43  1  0
 11 44  1  0
 12 45  1  1
 14 46  1  0
 15 47  1  0
 22 48  1  0
 23 49  1  0
 25 50  1  0
 26 51  1  0
 28 52  1  0
 29 53  1  0
 30 54  1  0
 31 55  1  0
M  END
>  <smiles>  (64) 
O=C(NCC(=O)N1CCCCC1c1ccc(OC(F)(F)F)cc1)c1ccc2ccccc2n1

>  <score_type>  (64) 
oracle

>  <origin>  (64) 
autodockgpu

>  <m_score__min__energy>  (64) 
-8.6099999999999994

>  <m_primary>  (64) 
energy

>  <rmsd>  (64) 
2.5447792253101453

>  <m_score__min__rmsd>  (64) 
2.5447792253101453

>  <meeko>  (64) 
{"free_energy": -7.71, "intermolecular_energy": -9.8, "internal_energy": -1.89, "cluster_size": 16, "cluster_id": 1, "rank_in_cluster": 12}

>  <energy>  (64) 
-7.64

>  <cluster_rmsd>  (64) 
1.88

>  <cluster>  (64) 
1

$$$$

     RDKit          3D

 55 58  0  0  0  0  0  0  0  0999 V2000
  140.0010   71.2460  221.1990 O   0  0  0  0  0  0  0  0  0  0  0  0
  139.8700   71.9250  222.2710 C   0  0  0  0  0  0  0  0  0  0  0  0
  139.6690   73.3430  222.1800 N   0  0  0  0  0  0  0  0  0  0  0  0
  139.5950   74.0780  220.9740 C   0  0  0  0  0  0  0  0  0  0  0  0
  140.7550   74.1710  220.0950 C   0  0  0  0  0  0  0  0  0  0  0  0
  140.4480   74.4980  218.8670 O   0  0  0  0  0  0  0  0  0  0  0  0
  142.1140   73.9720  220.3260 N   0  0  0  0  0  0  0  0  0  0  0  0
  142.7170   72.7860  220.9560 C   0  0  0  0  0  0  0  0  0  0  0  0
  144.0800   72.5370  220.3050 C   0  0  0  0  0  0  0  0  0  0  0  0
  144.1220   73.0360  218.8930 C   0  0  0  0  0  0  0  0  0  0  0  0
  143.7460   74.4620  218.6950 C   0  0  0  0  0  0  0  0  0  0  0  0
  143.1040   74.9760  219.9340 C   0  0  1  0  0  0  0  0  0  0  0  0
  142.6070   76.3480  219.8760 C   0  0  0  0  0  0  0  0  0  0  0  0
  141.8190   76.9620  220.8110 C   0  0  0  0  0  0  0  0  0  0  0  0
  141.3760   78.2640  220.7050 C   0  0  0  0  0  0  0  0  0  0  0  0
  141.7400   79.0020  219.5980 C   0  0  0  0  0  0  0  0  0  0  0  0
  141.3300   80.3180  219.4280 O   0  0  0  0  0  0  0  0  0  0  0  0
  141.7160   81.1550  218.3760 C   0  0  0  0  0  0  0  0  0  0  0  0
  141.1960   80.5860  217.2100 F   0  0  0  0  0  0  0  0  0  0  0  0
  141.2100   82.4090  218.5270 F   0  0  0  0  0  0  0  0  0  0  0  0
  143.0980   81.1380  218.1820 F   0  0  0  0  0  0  0  0  0  0  0  0
  142.5380   78.4250  218.6210 C   0  0  0  0  0  0  0  0  0  0  0  0
  142.9620   77.1150  218.7640 C   0  0  0  0  0  0  0  0  0  0  0  0
  139.9210   71.2730  223.5920 C   0  0  0  0  0  0  0  0  0  0  0  0
  139.4490   69.9820  223.6920 C   0  0  0  0  0  0  0  0  0  0  0  0
  139.4980   69.3660  224.9360 C   0  0  0  0  0  0  0  0  0  0  0  0
  140.0100   70.0410  226.0400 C   0  0  0  0  0  0  0  0  0  0  0  0
  140.0690   69.4540  227.2800 C   0  0  0  0  0  0  0  0  0  0  0  0
  140.5800   70.1530  228.3410 C   0  0  0  0  0  0  0  0  0  0  0  0
  141.0540   71.4610  228.2260 C   0  0  0  0  0  0  0  0  0  0  0  0
  140.9770   72.0160  226.9570 C   0  0  0  0  0  0  0  0  0  0  0  0
  140.4680   71.3230  225.8900 C   0  0  0  0  0  0  0  0  0  0  0  0
  140.4110   71.9040  224.6690 N   0  0  0  0  0  0  0  0  0  0  0  0
  139.5750   73.8380  223.1100 H   0  0  0  0  0  0  0  0  0  0  0  0
  138.7842   73.6303  220.3806 H   0  0  0  0  0  0  0  0  0  0  0  0
  139.4623   75.1133  221.3213 H   0  0  0  0  0  0  0  0  0  0  0  0
  142.8463   72.9626  222.0340 H   0  0  0  0  0  0  0  0  0  0  0  0
  142.0653   71.9107  220.8179 H   0  0  0  0  0  0  0  0  0  0  0  0
  144.8538   73.0564  220.8893 H   0  0  0  0  0  0  0  0  0  0  0  0
  144.2581   71.4516  220.2894 H   0  0  0  0  0  0  0  0  0  0  0  0
  145.1480   72.9032  218.5192 H   0  0  0  0  0  0  0  0  0  0  0  0
  143.3661   72.4511  218.3485 H   0  0  0  0  0  0  0  0  0  0  0  0
  144.6475   75.0529  218.4756 H   0  0  0  0  0  0  0  0  0  0  0  0
  143.0428   74.5449  217.8532 H   0  0  0  0  0  0  0  0  0  0  0  0
  143.8641   75.0958  220.7200 H   0  0  0  0  0  0  0  0  0  0  0  0
  141.5216   76.3840  221.6984 H   0  0  0  0  0  0  0  0  0  0  0  0
  140.7438   78.7058  221.4892 H   0  0  0  0  0  0  0  0  0  0  0  0
  142.8330   79.0067  217.7352 H   0  0  0  0  0  0  0  0  0  0  0  0
  143.5939   76.6672  217.9829 H   0  0  0  0  0  0  0  0  0  0  0  0
  139.0461   69.4558  222.8141 H   0  0  0  0  0  0  0  0  0  0  0  0
  139.1290   68.3360  225.0495 H   0  0  0  0  0  0  0  0  0  0  0  0
  139.7067   68.4249  227.4207 H   0  0  0  0  0  0  0  0  0  0  0  0
  140.6186   69.6632  229.3252 H   0  0  0  0  0  0  0  0  0  0  0  0
  141.4615   72.0148  229.0846 H   0  0  0  0  0  0  0  0  0  0  0  0
  141.3357   73.0443  226.8024 H   0  0  0  0  0  0  0  0  0  0  0  0
  1  2  2  0
  2  3  1  0
  3  4  1  0
  4  5  1  0
  5  6  2  0
  5  7  1  0
  7  8  1  0
  8  9  1  0
  9 10  1  0
 10 11  1  0
 11 12  1  0
 12 13  1  0
 13 14  2  0
 14 15  1  0
 15 16  2  0
 16 17  1  0
 17 18  1  0
 18 19  1  0
 18 20  1  0
 18 21  1  0
 16 22  1  0
 22 23  2  0
  2 24  1  0
 24 25  2  0
 25 26  1  0
 26 27  2  0
 27 28  1  0
 28 29  2  0
 29 30  1  0
 30 31  2  0
 31 32  1  0
 32 33  2  0
 12  7  1  0
 23 13  1  0
 33 24  1  0
 32 27  1  0
  3 34  1  0
  4 35  1  0
  4 36  1  0
  8 37  1  0
  8 38  1  0
  9 39  1  0
  9 40  1  0
 10 41  1  0
 10 42  1  0
 11 43  1  0
 11 44  1  0
 12 45  1  1
 14 46  1  0
 15 47  1  0
 22 48  1  0
 23 49  1  0
 25 50  1  0
 26 51  1  0
 28 52  1  0
 29 53  1  0
 30 54  1  0
 31 55  1  0
M  END
>  <smiles>  (65) 
O=C(NCC(=O)N1CCCCC1c1ccc(OC(F)(F)F)cc1)c1ccc2ccccc2n1

>  <score_type>  (65) 
oracle

>  <origin>  (65) 
autodockgpu

>  <m_score__min__energy>  (65) 
-8.6099999999999994

>  <m_primary>  (65) 
energy

>  <rmsd>  (65) 
2.851588538381762

>  <m_score__min__rmsd>  (65) 
2.851588538381762

>  <meeko>  (65) 
{"free_energy": -7.5, "intermolecular_energy": -9.59, "internal_energy": -1.77, "cluster_size": 3, "cluster_id": 3, "rank_in_cluster": 3}

>  <energy>  (65) 
-7.55

>  <cluster_rmsd>  (65) 
1.49

>  <cluster>  (65) 
1

$$$$

     RDKit          3D

 55 58  0  0  0  0  0  0  0  0999 V2000
  138.9320   75.2720  221.8350 O   0  0  0  0  0  0  0  0  0  0  0  0
  140.0830   75.8150  221.9370 C   0  0  0  0  0  0  0  0  0  0  0  0
  141.2490   75.0420  221.6200 N   0  0  0  0  0  0  0  0  0  0  0  0
  141.2410   73.6970  221.1850 C   0  0  0  0  0  0  0  0  0  0  0  0
  142.1430   73.2610  220.1250 C   0  0  0  0  0  0  0  0  0  0  0  0
  141.5210   72.7250  219.1070 O   0  0  0  0  0  0  0  0  0  0  0  0
  143.5290   73.3110  220.0040 N   0  0  0  0  0  0  0  0  0  0  0  0
  144.4890   72.4840  220.7550 C   0  0  0  0  0  0  0  0  0  0  0  0
  145.6840   72.1890  219.8450 C   0  0  0  0  0  0  0  0  0  0  0  0
  145.2930   72.1830  218.3990 C   0  0  0  0  0  0  0  0  0  0  0  0
  144.6010   73.4060  217.9060 C   0  0  0  0  0  0  0  0  0  0  0  0
  144.1770   74.2300  219.0680 C   0  0  1  0  0  0  0  0  0  0  0  0
  143.4140   75.4350  218.7550 C   0  0  0  0  0  0  0  0  0  0  0  0
  142.8320   75.7330  217.5530 C   0  0  0  0  0  0  0  0  0  0  0  0
  142.1210   76.8900  217.3110 C   0  0  0  0  0  0  0  0  0  0  0  0
  141.9790   77.8090  218.3310 C   0  0  0  0  0  0  0  0  0  0  0  0
  141.2760   78.9930  218.1570 O   0  0  0  0  0  0  0  0  0  0  0  0
  141.6440   80.2360  218.6820 C   0  0  0  0  0  0  0  0  0  0  0  0
  141.4560   80.1490  220.0640 F   0  0  0  0  0  0  0  0  0  0  0  0
  142.9500   80.5180  218.4250 F   0  0  0  0  0  0  0  0  0  0  0  0
  140.7710   81.2470  218.2770 F   0  0  0  0  0  0  0  0  0  0  0  0
  142.5500   77.5530  219.5690 C   0  0  0  0  0  0  0  0  0  0  0  0
  143.2560   76.3800  219.7720 C   0  0  0  0  0  0  0  0  0  0  0  0
  140.2230   77.2150  222.3740 C   0  0  0  0  0  0  0  0  0  0  0  0
  139.0710   77.9420  222.5900 C   0  0  0  0  0  0  0  0  0  0  0  0
  139.2030   79.2620  223.0020 C   0  0  0  0  0  0  0  0  0  0  0  0
  140.4630   79.8230  223.1880 C   0  0  0  0  0  0  0  0  0  0  0  0
  140.6190   81.1250  223.5950 C   0  0  0  0  0  0  0  0  0  0  0  0
  141.8770   81.6390  223.7670 C   0  0  0  0  0  0  0  0  0  0  0  0
  143.0350   80.8920  223.5450 C   0  0  0  0  0  0  0  0  0  0  0  0
  142.8330   79.5820  223.1350 C   0  0  0  0  0  0  0  0  0  0  0  0
  141.5780   79.0600  222.9620 C   0  0  0  0  0  0  0  0  0  0  0  0
  141.4270   77.7760  222.5610 N   0  0  0  0  0  0  0  0  0  0  0  0
  142.1660   75.5580  221.7340 H   0  0  0  0  0  0  0  0  0  0  0  0
  141.4665   73.0784  222.0662 H   0  0  0  0  0  0  0  0  0  0  0  0
  140.2468   73.5888  220.7268 H   0  0  0  0  0  0  0  0  0  0  0  0
  144.8278   73.0271  221.6496 H   0  0  0  0  0  0  0  0  0  0  0  0
  144.0130   71.5444  221.0722 H   0  0  0  0  0  0  0  0  0  0  0  0
  146.4514   72.9611  220.0033 H   0  0  0  0  0  0  0  0  0  0  0  0
  146.0697   71.1907  220.0994 H   0  0  0  0  0  0  0  0  0  0  0  0
  146.2081   72.0506  217.8032 H   0  0  0  0  0  0  0  0  0  0  0  0
  144.5646   71.3658  218.2916 H   0  0  0  0  0  0  0  0  0  0  0  0
  145.2879   73.9877  217.2737 H   0  0  0  0  0  0  0  0  0  0  0  0
  143.7186   73.1185  217.3154 H   0  0  0  0  0  0  0  0  0  0  0  0
  145.0604   74.6941  219.5309 H   0  0  0  0  0  0  0  0  0  0  0  0
  142.9372   75.0081  216.7323 H   0  0  0  0  0  0  0  0  0  0  0  0
  141.6752   77.0769  216.3229 H   0  0  0  0  0  0  0  0  0  0  0  0
  142.4420   78.2803  220.3872 H   0  0  0  0  0  0  0  0  0  0  0  0
  143.7036   76.1870  220.7581 H   0  0  0  0  0  0  0  0  0  0  0  0
  138.0790   77.4908  222.4407 H   0  0  0  0  0  0  0  0  0  0  0  0
  138.3038   79.8692  223.1828 H   0  0  0  0  0  0  0  0  0  0  0  0
  139.7361   81.7537  223.7825 H   0  0  0  0  0  0  0  0  0  0  0  0
  141.9789   82.6844  224.0938 H   0  0  0  0  0  0  0  0  0  0  0  0
  144.0411   81.3139  223.6858 H   0  0  0  0  0  0  0  0  0  0  0  0
  143.7073   78.9428  222.9429 H   0  0  0  0  0  0  0  0  0  0  0  0
  1  2  2  0
  2  3  1  0
  3  4  1  0
  4  5  1  0
  5  6  2  0
  5  7  1  0
  7  8  1  0
  8  9  1  0
  9 10  1  0
 10 11  1  0
 11 12  1  0
 12 13  1  0
 13 14  2  0
 14 15  1  0
 15 16  2  0
 16 17  1  0
 17 18  1  0
 18 19  1  0
 18 20  1  0
 18 21  1  0
 16 22  1  0
 22 23  2  0
  2 24  1  0
 24 25  2  0
 25 26  1  0
 26 27  2  0
 27 28  1  0
 28 29  2  0
 29 30  1  0
 30 31  2  0
 31 32  1  0
 32 33  2  0
 12  7  1  0
 23 13  1  0
 33 24  1  0
 32 27  1  0
  3 34  1  0
  4 35  1  0
  4 36  1  0
  8 37  1  0
  8 38  1  0
  9 39  1  0
  9 40  1  0
 10 41  1  0
 10 42  1  0
 11 43  1  0
 11 44  1  0
 12 45  1  1
 14 46  1  0
 15 47  1  0
 22 48  1  0
 23 49  1  0
 25 50  1  0
 26 51  1  0
 28 52  1  0
 29 53  1  0
 30 54  1  0
 31 55  1  0
M  END
>  <smiles>  (66) 
O=C(NCC(=O)N1CCCCC1c1ccc(OC(F)(F)F)cc1)c1ccc2ccccc2n1

>  <score_type>  (66) 
oracle

>  <origin>  (66) 
autodockgpu

>  <m_score__min__energy>  (66) 
-8.6099999999999994

>  <m_primary>  (66) 
energy

>  <rmsd>  (66) 
7.7995642369787

>  <m_score__min__rmsd>  (66) 
7.7995642369787

>  <meeko>  (66) 
{"free_energy": -6.85, "intermolecular_energy": -8.94, "internal_energy": -2.8, "cluster_size": 17, "cluster_id": 5, "rank_in_cluster": 1}

>  <energy>  (66) 
-7.49

>  <cluster_rmsd>  (66) 
1.42

>  <cluster>  (66) 
1

$$$$

     RDKit          3D

 55 58  0  0  0  0  0  0  0  0999 V2000
  140.1050   71.0160  221.1720 O   0  0  0  0  0  0  0  0  0  0  0  0
  139.7040   71.6780  222.1880 C   0  0  0  0  0  0  0  0  0  0  0  0
  139.1750   72.9980  221.9960 N   0  0  0  0  0  0  0  0  0  0  0  0
  139.0460   73.6490  220.7480 C   0  0  0  0  0  0  0  0  0  0  0  0
  140.2330   74.0760  220.0140 C   0  0  0  0  0  0  0  0  0  0  0  0
  139.9650   74.5270  218.8160 O   0  0  0  0  0  0  0  0  0  0  0  0
  141.5830   74.0850  220.3550 N   0  0  0  0  0  0  0  0  0  0  0  0
  142.4460   72.9000  220.4880 C   0  0  0  0  0  0  0  0  0  0  0  0
  143.8570   73.2780  220.0290 C   0  0  0  0  0  0  0  0  0  0  0  0
  143.8340   74.3760  219.0100 C   0  0  0  0  0  0  0  0  0  0  0  0
  143.1050   75.6130  219.4020 C   0  0  0  0  0  0  0  0  0  0  0  0
  142.2910   75.3390  220.6150 C   0  0  1  0  0  0  0  0  0  0  0  0
  141.4530   76.4370  221.0860 C   0  0  0  0  0  0  0  0  0  0  0  0
  141.3910   77.6940  220.5510 C   0  0  0  0  0  0  0  0  0  0  0  0
  140.5790   78.6970  221.0380 C   0  0  0  0  0  0  0  0  0  0  0  0
  139.7760   78.4320  222.1280 C   0  0  0  0  0  0  0  0  0  0  0  0
  138.9350   79.3950  222.6700 O   0  0  0  0  0  0  0  0  0  0  0  0
  139.3470   80.4900  223.4350 C   0  0  0  0  0  0  0  0  0  0  0  0
  140.6280   80.1820  223.9020 F   0  0  0  0  0  0  0  0  0  0  0  0
  139.4040   81.6260  222.6880 F   0  0  0  0  0  0  0  0  0  0  0  0
  138.5820   80.6290  224.5930 F   0  0  0  0  0  0  0  0  0  0  0  0
  139.8020   77.1730  222.7090 C   0  0  0  0  0  0  0  0  0  0  0  0
  140.6310   76.1930  222.1900 C   0  0  0  0  0  0  0  0  0  0  0  0
  139.7790   71.1040  223.5430 C   0  0  0  0  0  0  0  0  0  0  0  0
  139.2490   69.8470  223.7410 C   0  0  0  0  0  0  0  0  0  0  0  0
  139.3200   69.3050  225.0190 C   0  0  0  0  0  0  0  0  0  0  0  0
  139.9080   70.0190  226.0580 C   0  0  0  0  0  0  0  0  0  0  0  0
  139.9900   69.5050  227.3280 C   0  0  0  0  0  0  0  0  0  0  0  0
  140.5780   70.2400  228.3240 C   0  0  0  0  0  0  0  0  0  0  0  0
  141.1090   71.5130  228.1100 C   0  0  0  0  0  0  0  0  0  0  0  0
  141.0060   71.9940  226.8130 C   0  0  0  0  0  0  0  0  0  0  0  0
  140.4210   71.2650  225.8120 C   0  0  0  0  0  0  0  0  0  0  0  0
  140.3420   71.7740  224.5600 N   0  0  0  0  0  0  0  0  0  0  0  0
  138.8690   73.4850  222.8840 H   0  0  0  0  0  0  0  0  0  0  0  0
  138.4966   72.9614  220.0881 H   0  0  0  0  0  0  0  0  0  0  0  0
  138.5602   74.6000  221.0117 H   0  0  0  0  0  0  0  0  0  0  0  0
  142.4714   72.5745  221.5385 H   0  0  0  0  0  0  0  0  0  0  0  0
  142.0555   72.0761  219.8725 H   0  0  0  0  0  0  0  0  0  0  0  0
  144.4374   73.6134  220.9011 H   0  0  0  0  0  0  0  0  0  0  0  0
  144.3156   72.3915  219.5667 H   0  0  0  0  0  0  0  0  0  0  0  0
  144.8755   74.6540  218.7908 H   0  0  0  0  0  0  0  0  0  0  0  0
  143.2864   73.9692  218.1471 H   0  0  0  0  0  0  0  0  0  0  0  0
  143.8283   76.4132  219.6177 H   0  0  0  0  0  0  0  0  0  0  0  0
  142.4465   75.9293  218.5796 H   0  0  0  0  0  0  0  0  0  0  0  0
  142.9539   75.2353  221.4867 H   0  0  0  0  0  0  0  0  0  0  0  0
  142.0260   77.9184  219.6812 H   0  0  0  0  0  0  0  0  0  0  0  0
  140.5718   79.6904  220.5657 H   0  0  0  0  0  0  0  0  0  0  0  0
  139.1661   76.9537  223.5793 H   0  0  0  0  0  0  0  0  0  0  0  0
  140.6431   75.1976  222.6581 H   0  0  0  0  0  0  0  0  0  0  0  0
  138.7845   69.2904  222.9137 H   0  0  0  0  0  0  0  0  0  0  0  0
  138.9079   68.3032  225.2103 H   0  0  0  0  0  0  0  0  0  0  0  0
  139.5848   68.5058  227.5458 H   0  0  0  0  0  0  0  0  0  0  0  0
  140.6339   69.8087  229.3344 H   0  0  0  0  0  0  0  0  0  0  0  0
  141.5780   72.0961  228.9163 H   0  0  0  0  0  0  0  0  0  0  0  0
  141.4066   72.9919  226.5813 H   0  0  0  0  0  0  0  0  0  0  0  0
  1  2  2  0
  2  3  1  0
  3  4  1  0
  4  5  1  0
  5  6  2  0
  5  7  1  0
  7  8  1  0
  8  9  1  0
  9 10  1  0
 10 11  1  0
 11 12  1  0
 12 13  1  0
 13 14  2  0
 14 15  1  0
 15 16  2  0
 16 17  1  0
 17 18  1  0
 18 19  1  0
 18 20  1  0
 18 21  1  0
 16 22  1  0
 22 23  2  0
  2 24  1  0
 24 25  2  0
 25 26  1  0
 26 27  2  0
 27 28  1  0
 28 29  2  0
 29 30  1  0
 30 31  2  0
 31 32  1  0
 32 33  2  0
 12  7  1  0
 23 13  1  0
 33 24  1  0
 32 27  1  0
  3 34  1  0
  4 35  1  0
  4 36  1  0
  8 37  1  0
  8 38  1  0
  9 39  1  0
  9 40  1  0
 10 41  1  0
 10 42  1  0
 11 43  1  0
 11 44  1  0
 12 45  1  1
 14 46  1  0
 15 47  1  0
 22 48  1  0
 23 49  1  0
 25 50  1  0
 26 51  1  0
 28 52  1  0
 29 53  1  0
 30 54  1  0
 31 55  1  0
M  END
>  <smiles>  (67) 
O=C(NCC(=O)N1CCCCC1c1ccc(OC(F)(F)F)cc1)c1ccc2ccccc2n1

>  <score_type>  (67) 
oracle

>  <origin>  (67) 
autodockgpu

>  <m_score__min__energy>  (67) 
-8.6099999999999994

>  <m_primary>  (67) 
energy

>  <rmsd>  (67) 
2.4480391533589207

>  <m_score__min__rmsd>  (67) 
2.4480391533589207

>  <meeko>  (67) 
{"free_energy": -7.7, "intermolecular_energy": -9.79, "internal_energy": -1.84, "cluster_size": 16, "cluster_id": 1, "rank_in_cluster": 13}

>  <energy>  (67) 
-8.09

>  <cluster_rmsd>  (67) 
0.0

>  <cluster>  (67) 
2

$$$$

     RDKit          3D

 55 58  0  0  0  0  0  0  0  0999 V2000
  141.4760   72.0450  221.6220 O   0  0  0  0  0  0  0  0  0  0  0  0
  140.6070   72.3790  222.4950 C   0  0  0  0  0  0  0  0  0  0  0  0
  139.9070   73.6220  222.3420 N   0  0  0  0  0  0  0  0  0  0  0  0
  140.0910   74.5350  221.2780 C   0  0  0  0  0  0  0  0  0  0  0  0
  141.0500   75.6270  221.4030 C   0  0  0  0  0  0  0  0  0  0  0  0
  140.9010   76.3230  222.5000 O   0  0  0  0  0  0  0  0  0  0  0  0
  142.0810   76.0570  220.5710 N   0  0  0  0  0  0  0  0  0  0  0  0
  143.1910   75.2270  220.0740 C   0  0  0  0  0  0  0  0  0  0  0  0
  143.5550   75.7050  218.6660 C   0  0  0  0  0  0  0  0  0  0  0  0
  142.3780   76.3080  217.9620 C   0  0  0  0  0  0  0  0  0  0  0  0
  141.6830   77.4100  218.6810 C   0  0  0  0  0  0  0  0  0  0  0  0
  142.1440   77.4390  220.0940 C   0  0  1  0  0  0  0  0  0  0  0  0
  141.4970   78.4230  220.9590 C   0  0  0  0  0  0  0  0  0  0  0  0
  142.0450   79.0100  222.0660 C   0  0  0  0  0  0  0  0  0  0  0  0
  141.3870   79.9350  222.8490 C   0  0  0  0  0  0  0  0  0  0  0  0
  140.1010   80.3000  222.5070 C   0  0  0  0  0  0  0  0  0  0  0  0
  139.3810   81.2260  223.2510 O   0  0  0  0  0  0  0  0  0  0  0  0
  138.2050   80.9550  223.9580 C   0  0  0  0  0  0  0  0  0  0  0  0
  137.3440   80.3190  223.0600 F   0  0  0  0  0  0  0  0  0  0  0  0
  138.4390   80.1300  225.0150 F   0  0  0  0  0  0  0  0  0  0  0  0
  137.5330   82.1260  224.3110 F   0  0  0  0  0  0  0  0  0  0  0  0
  139.5000   79.7340  221.3940 C   0  0  0  0  0  0  0  0  0  0  0  0
  140.1940   78.8080  220.6330 C   0  0  0  0  0  0  0  0  0  0  0  0
  140.3180   71.5080  223.6480 C   0  0  0  0  0  0  0  0  0  0  0  0
  139.6370   70.3330  223.4140 C   0  0  0  0  0  0  0  0  0  0  0  0
  139.3650   69.5120  224.5010 C   0  0  0  0  0  0  0  0  0  0  0  0
  139.7720   69.8740  225.7810 C   0  0  0  0  0  0  0  0  0  0  0  0
  139.5160   69.0790  226.8700 C   0  0  0  0  0  0  0  0  0  0  0  0
  139.9330   69.4720  228.1140 C   0  0  0  0  0  0  0  0  0  0  0  0
  140.6220   70.6650  228.3380 C   0  0  0  0  0  0  0  0  0  0  0  0
  140.8610   71.4380  227.2110 C   0  0  0  0  0  0  0  0  0  0  0  0
  140.4470   71.0520  225.9630 C   0  0  0  0  0  0  0  0  0  0  0  0
  140.7020   71.8380  224.8910 N   0  0  0  0  0  0  0  0  0  0  0  0
  139.2060   73.8330  223.1070 H   0  0  0  0  0  0  0  0  0  0  0  0
  140.3981   73.9432  220.4031 H   0  0  0  0  0  0  0  0  0  0  0  0
  139.1240   75.0567  221.2267 H   0  0  0  0  0  0  0  0  0  0  0  0
  144.0609   75.3321  220.7391 H   0  0  0  0  0  0  0  0  0  0  0  0
  142.8918   74.1688  220.0496 H   0  0  0  0  0  0  0  0  0  0  0  0
  144.3506   76.4609  218.7411 H   0  0  0  0  0  0  0  0  0  0  0  0
  143.8914   74.8335  218.0852 H   0  0  0  0  0  0  0  0  0  0  0  0
  142.7291   76.7040  216.9977 H   0  0  0  0  0  0  0  0  0  0  0  0
  141.6385   75.4985  217.8734 H   0  0  0  0  0  0  0  0  0  0  0  0
  141.9175   78.3700  218.1978 H   0  0  0  0  0  0  0  0  0  0  0  0
  140.5961   77.2436  218.6502 H   0  0  0  0  0  0  0  0  0  0  0  0
  143.1766   77.8159  220.1362 H   0  0  0  0  0  0  0  0  0  0  0  0
  143.0701   78.7279  222.3482 H   0  0  0  0  0  0  0  0  0  0  0  0
  141.8783   80.3738  223.7300 H   0  0  0  0  0  0  0  0  0  0  0  0
  138.4747   80.0193  221.1157 H   0  0  0  0  0  0  0  0  0  0  0  0
  139.7079   78.3652  219.7511 H   0  0  0  0  0  0  0  0  0  0  0  0
  139.3189   70.0541  222.3986 H   0  0  0  0  0  0  0  0  0  0  0  0
  138.8229   68.5671  224.3482 H   0  0  0  0  0  0  0  0  0  0  0  0
  138.9771   68.1283  226.7440 H   0  0  0  0  0  0  0  0  0  0  0  0
  139.7157   68.8199  228.9728 H   0  0  0  0  0  0  0  0  0  0  0  0
  140.9533   70.9718  229.3410 H   0  0  0  0  0  0  0  0  0  0  0  0
  141.3997   72.3906  227.3227 H   0  0  0  0  0  0  0  0  0  0  0  0
  1  2  2  0
  2  3  1  0
  3  4  1  0
  4  5  1  0
  5  6  2  0
  5  7  1  0
  7  8  1  0
  8  9  1  0
  9 10  1  0
 10 11  1  0
 11 12  1  0
 12 13  1  0
 13 14  2  0
 14 15  1  0
 15 16  2  0
 16 17  1  0
 17 18  1  0
 18 19  1  0
 18 20  1  0
 18 21  1  0
 16 22  1  0
 22 23  2  0
  2 24  1  0
 24 25  2  0
 25 26  1  0
 26 27  2  0
 27 28  1  0
 28 29  2  0
 29 30  1  0
 30 31  2  0
 31 32  1  0
 32 33  2  0
 12  7  1  0
 23 13  1  0
 33 24  1  0
 32 27  1  0
  3 34  1  0
  4 35  1  0
  4 36  1  0
  8 37  1  0
  8 38  1  0
  9 39  1  0
  9 40  1  0
 10 41  1  0
 10 42  1  0
 11 43  1  0
 11 44  1  0
 12 45  1  6
 14 46  1  0
 15 47  1  0
 22 48  1  0
 23 49  1  0
 25 50  1  0
 26 51  1  0
 28 52  1  0
 29 53  1  0
 30 54  1  0
 31 55  1  0
M  END
>  <smiles>  (68) 
O=C(NCC(=O)N1CCCCC1c1ccc(OC(F)(F)F)cc1)c1ccc2ccccc2n1

>  <score_type>  (68) 
oracle

>  <origin>  (68) 
autodockgpu

>  <m_score__min__energy>  (68) 
-8.6099999999999994

>  <m_primary>  (68) 
energy

>  <rmsd>  (68) 
2.20033575180299

>  <m_score__min__rmsd>  (68) 
2.20033575180299

>  <meeko>  (68) 
{"free_energy": -8.21, "intermolecular_energy": -10.3, "internal_energy": -1.39, "cluster_size": 16, "cluster_id": 1, "rank_in_cluster": 7}

>  <energy>  (68) 
-8.02

>  <cluster_rmsd>  (68) 
0.93

>  <cluster>  (68) 
2

$$$$

     RDKit          3D

 55 58  0  0  0  0  0  0  0  0999 V2000
  136.6340   77.5190  222.2400 O   0  0  0  0  0  0  0  0  0  0  0  0
  136.7820   76.3610  222.7570 C   0  0  0  0  0  0  0  0  0  0  0  0
  137.9110   75.5640  222.3700 N   0  0  0  0  0  0  0  0  0  0  0  0
  138.9070   75.9570  221.4470 C   0  0  0  0  0  0  0  0  0  0  0  0
  140.2520   75.4000  221.5340 C   0  0  0  0  0  0  0  0  0  0  0  0
  140.3220   74.3330  222.2870 O   0  0  0  0  0  0  0  0  0  0  0  0
  141.4610   75.7960  220.9670 N   0  0  0  0  0  0  0  0  0  0  0  0
  142.5190   74.8980  220.4770 C   0  0  0  0  0  0  0  0  0  0  0  0
  143.1840   75.5550  219.2650 C   0  0  0  0  0  0  0  0  0  0  0  0
  142.2410   76.4620  218.5360 C   0  0  0  0  0  0  0  0  0  0  0  0
  141.5850   77.5160  219.3580 C   0  0  0  0  0  0  0  0  0  0  0  0
  141.7910   77.2120  220.7990 C   0  0  1  0  0  0  0  0  0  0  0  0
  141.1410   78.1160  221.7430 C   0  0  0  0  0  0  0  0  0  0  0  0
  141.4310   78.2390  223.0740 C   0  0  0  0  0  0  0  0  0  0  0  0
  140.7820   79.1130  223.9230 C   0  0  0  0  0  0  0  0  0  0  0  0
  139.7820   79.9150  223.4140 C   0  0  0  0  0  0  0  0  0  0  0  0
  139.0890   80.8160  224.2120 O   0  0  0  0  0  0  0  0  0  0  0  0
  137.6970   80.8910  224.3250 C   0  0  0  0  0  0  0  0  0  0  0  0
  137.1980   79.6820  223.8310 F   0  0  0  0  0  0  0  0  0  0  0  0
  137.3110   81.0380  225.6210 F   0  0  0  0  0  0  0  0  0  0  0  0
  137.1610   81.8590  223.4760 F   0  0  0  0  0  0  0  0  0  0  0  0
  139.4500   79.8290  222.0710 C   0  0  0  0  0  0  0  0  0  0  0  0
  140.1240   78.9400  221.2510 C   0  0  0  0  0  0  0  0  0  0  0  0
  135.8140   75.8400  223.7390 C   0  0  0  0  0  0  0  0  0  0  0  0
  135.0060   76.7470  224.3910 C   0  0  0  0  0  0  0  0  0  0  0  0
  134.0930   76.2560  225.3160 C   0  0  0  0  0  0  0  0  0  0  0  0
  134.0060   74.8900  225.5680 C   0  0  0  0  0  0  0  0  0  0  0  0
  133.1120   74.3810  226.4770 C   0  0  0  0  0  0  0  0  0  0  0  0
  133.0580   73.0300  226.6970 C   0  0  0  0  0  0  0  0  0  0  0  0
  133.8840   72.1230  226.0300 C   0  0  0  0  0  0  0  0  0  0  0  0
  134.7710   72.6790  225.1200 C   0  0  0  0  0  0  0  0  0  0  0  0
  134.8310   74.0290  224.8950 C   0  0  0  0  0  0  0  0  0  0  0  0
  135.7130   74.5280  223.9970 N   0  0  0  0  0  0  0  0  0  0  0  0
  137.9630   74.6150  222.8360 H   0  0  0  0  0  0  0  0  0  0  0  0
  138.5259   75.7079  220.4456 H   0  0  0  0  0  0  0  0  0  0  0  0
  139.0614   77.0200  221.6842 H   0  0  0  0  0  0  0  0  0  0  0  0
  143.2655   74.7361  221.2685 H   0  0  0  0  0  0  0  0  0  0  0  0
  142.0895   73.9259  220.1930 H   0  0  0  0  0  0  0  0  0  0  0  0
  144.0487   76.1420  219.6081 H   0  0  0  0  0  0  0  0  0  0  0  0
  143.4958   74.7588  218.5730 H   0  0  0  0  0  0  0  0  0  0  0  0
  142.8058   76.9620  217.7354 H   0  0  0  0  0  0  0  0  0  0  0  0
  141.4266   75.8164  218.1755 H   0  0  0  0  0  0  0  0  0  0  0  0
  142.0273   78.4951  219.1218 H   0  0  0  0  0  0  0  0  0  0  0  0
  140.5079   77.5404  219.1360 H   0  0  0  0  0  0  0  0  0  0  0  0
  142.8411   77.3985  221.0683 H   0  0  0  0  0  0  0  0  0  0  0  0
  142.2270   77.6052  223.4919 H   0  0  0  0  0  0  0  0  0  0  0  0
  141.0575   79.1688  224.9865 H   0  0  0  0  0  0  0  0  0  0  0  0
  138.6534   80.4652  221.6579 H   0  0  0  0  0  0  0  0  0  0  0  0
  139.8528   78.8805  220.1866 H   0  0  0  0  0  0  0  0  0  0  0  0
  135.0817   77.8250  224.1855 H   0  0  0  0  0  0  0  0  0  0  0  0
  133.4333   76.9528  225.8538 H   0  0  0  0  0  0  0  0  0  0  0  0
  132.4406   75.0564  227.0274 H   0  0  0  0  0  0  0  0  0  0  0  0
  132.3339   72.6436  227.4295 H   0  0  0  0  0  0  0  0  0  0  0  0
  133.8346   71.0396  226.2140 H   0  0  0  0  0  0  0  0  0  0  0  0
  135.4474   72.0152  224.5615 H   0  0  0  0  0  0  0  0  0  0  0  0
  1  2  2  0
  2  3  1  0
  3  4  1  0
  4  5  1  0
  5  6  2  0
  5  7  1  0
  7  8  1  0
  8  9  1  0
  9 10  1  0
 10 11  1  0
 11 12  1  0
 12 13  1  0
 13 14  2  0
 14 15  1  0
 15 16  2  0
 16 17  1  0
 17 18  1  0
 18 19  1  0
 18 20  1  0
 18 21  1  0
 16 22  1  0
 22 23  2  0
  2 24  1  0
 24 25  2  0
 25 26  1  0
 26 27  2  0
 27 28  1  0
 28 29  2  0
 29 30  1  0
 30 31  2  0
 31 32  1  0
 32 33  2  0
 12  7  1  0
 23 13  1  0
 33 24  1  0
 32 27  1  0
  3 34  1  0
  4 35  1  0
  4 36  1  0
  8 37  1  0
  8 38  1  0
  9 39  1  0
  9 40  1  0
 10 41  1  0
 10 42  1  0
 11 43  1  0
 11 44  1  0
 12 45  1  1
 14 46  1  0
 15 47  1  0
 22 48  1  0
 23 49  1  0
 25 50  1  0
 26 51  1  0
 28 52  1  0
 29 53  1  0
 30 54  1  0
 31 55  1  0
M  END
>  <smiles>  (69) 
O=C(NCC(=O)N1CCCCC1c1ccc(OC(F)(F)F)cc1)c1ccc2ccccc2n1

>  <score_type>  (69) 
oracle

>  <origin>  (69) 
autodockgpu

>  <m_score__min__energy>  (69) 
-8.6099999999999994

>  <m_primary>  (69) 
energy

>  <rmsd>  (69) 
5.7831770930966035

>  <m_score__min__rmsd>  (69) 
5.7831770930966035

>  <meeko>  (69) 
{"free_energy": -7.01, "intermolecular_energy": -9.09, "internal_energy": -2.37, "cluster_size": 4, "cluster_id": 4, "rank_in_cluster": 4}

>  <energy>  (69) 
-7.72

>  <cluster_rmsd>  (69) 
0.38

>  <cluster>  (69) 
2

$$$$

     RDKit          3D

 55 58  0  0  0  0  0  0  0  0999 V2000
  140.0170   71.2490  221.1800 O   0  0  0  0  0  0  0  0  0  0  0  0
  139.8590   71.9170  222.2570 C   0  0  0  0  0  0  0  0  0  0  0  0
  139.6110   73.3270  222.1720 N   0  0  0  0  0  0  0  0  0  0  0  0
  139.5140   74.0660  220.9710 C   0  0  0  0  0  0  0  0  0  0  0  0
  140.6700   74.1940  220.0900 C   0  0  0  0  0  0  0  0  0  0  0  0
  140.3470   74.4080  218.8410 O   0  0  0  0  0  0  0  0  0  0  0  0
  142.0390   74.1280  220.3380 N   0  0  0  0  0  0  0  0  0  0  0  0
  142.7610   72.9650  220.8800 C   0  0  0  0  0  0  0  0  0  0  0  0
  144.1530   72.9250  220.2460 C   0  0  0  0  0  0  0  0  0  0  0  0
  144.1610   73.5460  218.8830 C   0  0  0  0  0  0  0  0  0  0  0  0
  143.6310   74.9340  218.7960 C   0  0  0  0  0  0  0  0  0  0  0  0
  142.9160   75.2650  220.0570 C   0  0  1  0  0  0  0  0  0  0  0  0
  142.2690   76.5730  220.1020 C   0  0  0  0  0  0  0  0  0  0  0  0
  141.4430   77.0320  221.0910 C   0  0  0  0  0  0  0  0  0  0  0  0
  140.8560   78.2800  221.0820 C   0  0  0  0  0  0  0  0  0  0  0  0
  141.1090   79.1270  220.0220 C   0  0  0  0  0  0  0  0  0  0  0  0
  140.5520   80.3960  219.9500 O   0  0  0  0  0  0  0  0  0  0  0  0
  141.2510   81.5960  220.1190 C   0  0  0  0  0  0  0  0  0  0  0  0
  140.3030   82.6190  220.0260 F   0  0  0  0  0  0  0  0  0  0  0  0
  141.8530   81.6540  221.3380 F   0  0  0  0  0  0  0  0  0  0  0  0
  142.1260   81.8380  219.0590 F   0  0  0  0  0  0  0  0  0  0  0  0
  141.9400   78.7090  218.9940 C   0  0  0  0  0  0  0  0  0  0  0  0
  142.5100   77.4480  219.0400 C   0  0  0  0  0  0  0  0  0  0  0  0
  139.9300   71.2590  223.5740 C   0  0  0  0  0  0  0  0  0  0  0  0
  139.4860   69.9570  223.6680 C   0  0  0  0  0  0  0  0  0  0  0  0
  139.5530   69.3370  224.9100 C   0  0  0  0  0  0  0  0  0  0  0  0
  140.0540   70.0170  226.0150 C   0  0  0  0  0  0  0  0  0  0  0  0
  140.1300   69.4260  227.2520 C   0  0  0  0  0  0  0  0  0  0  0  0
  140.6290   70.1300  228.3150 C   0  0  0  0  0  0  0  0  0  0  0  0
  141.0740   71.4490  228.2050 C   0  0  0  0  0  0  0  0  0  0  0  0
  140.9800   72.0080  226.9390 C   0  0  0  0  0  0  0  0  0  0  0  0
  140.4830   71.3100  225.8710 C   0  0  0  0  0  0  0  0  0  0  0  0
  140.4090   71.8960  224.6530 N   0  0  0  0  0  0  0  0  0  0  0  0
  139.4970   73.8140  223.1050 H   0  0  0  0  0  0  0  0  0  0  0  0
  138.7139   73.6002  220.3770 H   0  0  0  0  0  0  0  0  0  0  0  0
  139.3539   75.0955  221.3237 H   0  0  0  0  0  0  0  0  0  0  0  0
  142.8524   73.0599  221.9721 H   0  0  0  0  0  0  0  0  0  0  0  0
  142.2136   72.0388  220.6509 H   0  0  0  0  0  0  0  0  0  0  0  0
  144.8543   73.4740  220.8916 H   0  0  0  0  0  0  0  0  0  0  0  0
  144.4522   71.8714  220.1437 H   0  0  0  0  0  0  0  0  0  0  0  0
  145.2012   73.5598  218.5254 H   0  0  0  0  0  0  0  0  0  0  0  0
  143.4836   72.9308  218.2725 H   0  0  0  0  0  0  0  0  0  0  0  0
  144.4641   75.6373  218.6501 H   0  0  0  0  0  0  0  0  0  0  0  0
  142.9365   75.0115  217.9465 H   0  0  0  0  0  0  0  0  0  0  0  0
  143.6456   75.3998  220.8691 H   0  0  0  0  0  0  0  0  0  0  0  0
  141.2349   76.3675  221.9425 H   0  0  0  0  0  0  0  0  0  0  0  0
  140.1978   78.5948  221.9052 H   0  0  0  0  0  0  0  0  0  0  0  0
  142.1458   79.3770  218.1446 H   0  0  0  0  0  0  0  0  0  0  0  0
  143.1691   77.1272  218.2198 H   0  0  0  0  0  0  0  0  0  0  0  0
  139.0917   69.4264  222.7888 H   0  0  0  0  0  0  0  0  0  0  0  0
  139.2066   68.2988  225.0201 H   0  0  0  0  0  0  0  0  0  0  0  0
  139.7906   68.3887  227.3888 H   0  0  0  0  0  0  0  0  0  0  0  0
  140.6815   69.6360  229.2965 H   0  0  0  0  0  0  0  0  0  0  0  0
  141.4725   72.0074  229.0649 H   0  0  0  0  0  0  0  0  0  0  0  0
  141.3153   73.0448  226.7883 H   0  0  0  0  0  0  0  0  0  0  0  0
  1  2  2  0
  2  3  1  0
  3  4  1  0
  4  5  1  0
  5  6  2  0
  5  7  1  0
  7  8  1  0
  8  9  1  0
  9 10  1  0
 10 11  1  0
 11 12  1  0
 12 13  1  0
 13 14  2  0
 14 15  1  0
 15 16  2  0
 16 17  1  0
 17 18  1  0
 18 19  1  0
 18 20  1  0
 18 21  1  0
 16 22  1  0
 22 23  2  0
  2 24  1  0
 24 25  2  0
 25 26  1  0
 26 27  2  0
 27 28  1  0
 28 29  2  0
 29 30  1  0
 30 31  2  0
 31 32  1  0
 32 33  2  0
 12  7  1  0
 23 13  1  0
 33 24  1  0
 32 27  1  0
  3 34  1  0
  4 35  1  0
  4 36  1  0
  8 37  1  0
  8 38  1  0
  9 39  1  0
  9 40  1  0
 10 41  1  0
 10 42  1  0
 11 43  1  0
 11 44  1  0
 12 45  1  1
 14 46  1  0
 15 47  1  0
 22 48  1  0
 23 49  1  0
 25 50  1  0
 26 51  1  0
 28 52  1  0
 29 53  1  0
 30 54  1  0
 31 55  1  0
M  END
>  <smiles>  (70) 
O=C(NCC(=O)N1CCCCC1c1ccc(OC(F)(F)F)cc1)c1ccc2ccccc2n1

>  <score_type>  (70) 
oracle

>  <origin>  (70) 
autodockgpu

>  <m_score__min__energy>  (70) 
-8.6099999999999994

>  <m_primary>  (70) 
energy

>  <rmsd>  (70) 
2.72813828003748

>  <m_score__min__rmsd>  (70) 
2.72813828003748

>  <meeko>  (70) 
{"free_energy": -7.57, "intermolecular_energy": -9.66, "internal_energy": -1.85, "cluster_size": 3, "cluster_id": 3, "rank_in_cluster": 1}

>  <energy>  (70) 
-7.69

>  <cluster_rmsd>  (70) 
0.46

>  <cluster>  (70) 
2

$$$$

     RDKit          3D

 55 58  0  0  0  0  0  0  0  0999 V2000
  138.9400   75.1840  221.8260 O   0  0  0  0  0  0  0  0  0  0  0  0
  140.0880   75.7240  221.9690 C   0  0  0  0  0  0  0  0  0  0  0  0
  141.2630   74.9360  221.7310 N   0  0  0  0  0  0  0  0  0  0  0  0
  141.2670   73.5790  221.3360 C   0  0  0  0  0  0  0  0  0  0  0  0
  142.2840   73.0830  220.4150 C   0  0  0  0  0  0  0  0  0  0  0  0
  141.8510   72.1260  219.6350 O   0  0  0  0  0  0  0  0  0  0  0  0
  143.6160   73.4390  220.2220 N   0  0  0  0  0  0  0  0  0  0  0  0
  144.7770   72.8230  220.8860 C   0  0  0  0  0  0  0  0  0  0  0  0
  145.9490   72.8230  219.9010 C   0  0  0  0  0  0  0  0  0  0  0  0
  145.4810   72.7720  218.4790 C   0  0  0  0  0  0  0  0  0  0  0  0
  144.5110   73.8260  218.0740 C   0  0  0  0  0  0  0  0  0  0  0  0
  143.9890   74.5040  219.2900 C   0  0  1  0  0  0  0  0  0  0  0  0
  142.9640   75.5190  219.0680 C   0  0  0  0  0  0  0  0  0  0  0  0
  141.8540   75.3880  218.2800 C   0  0  0  0  0  0  0  0  0  0  0  0
  140.9150   76.3830  218.1040 C   0  0  0  0  0  0  0  0  0  0  0  0
  141.0930   77.5870  218.7540 C   0  0  0  0  0  0  0  0  0  0  0  0
  140.1880   78.6320  218.6220 O   0  0  0  0  0  0  0  0  0  0  0  0
  138.8100   78.5390  218.8410 C   0  0  0  0  0  0  0  0  0  0  0  0
  138.6200   77.4480  219.6940 F   0  0  0  0  0  0  0  0  0  0  0  0
  138.3240   79.6620  219.4360 F   0  0  0  0  0  0  0  0  0  0  0  0
  138.1240   78.1910  217.6760 F   0  0  0  0  0  0  0  0  0  0  0  0
  142.2040   77.7720  219.5650 C   0  0  0  0  0  0  0  0  0  0  0  0
  143.1230   76.7470  219.7150 C   0  0  0  0  0  0  0  0  0  0  0  0
  140.2170   77.1360  222.3710 C   0  0  0  0  0  0  0  0  0  0  0  0
  139.0590   77.8580  222.5650 C   0  0  0  0  0  0  0  0  0  0  0  0
  139.1800   79.1900  222.9450 C   0  0  0  0  0  0  0  0  0  0  0  0
  140.4350   79.7650  223.1190 C   0  0  0  0  0  0  0  0  0  0  0  0
  140.5810   81.0780  223.4940 C   0  0  0  0  0  0  0  0  0  0  0  0
  141.8340   81.6060  223.6540 C   0  0  0  0  0  0  0  0  0  0  0  0
  142.9980   80.8630  223.4530 C   0  0  0  0  0  0  0  0  0  0  0  0
  142.8070   79.5410  223.0760 C   0  0  0  0  0  0  0  0  0  0  0  0
  141.5560   79.0060  222.9140 C   0  0  0  0  0  0  0  0  0  0  0  0
  141.4170   77.7110  222.5440 N   0  0  0  0  0  0  0  0  0  0  0  0
  142.1770   75.4500  221.8750 H   0  0  0  0  0  0  0  0  0  0  0  0
  141.3557   72.9824  222.2559 H   0  0  0  0  0  0  0  0  0  0  0  0
  140.3376   73.4857  220.7550 H   0  0  0  0  0  0  0  0  0  0  0  0
  145.0440   73.4026  221.7820 H   0  0  0  0  0  0  0  0  0  0  0  0
  144.5376   71.7935  221.1907 H   0  0  0  0  0  0  0  0  0  0  0  0
  146.5385   73.7398  220.0491 H   0  0  0  0  0  0  0  0  0  0  0  0
  146.5569   71.9266  220.0931 H   0  0  0  0  0  0  0  0  0  0  0  0
  146.3649   72.8606  217.8302 H   0  0  0  0  0  0  0  0  0  0  0  0
  144.9426   71.8181  218.3776 H   0  0  0  0  0  0  0  0  0  0  0  0
  145.0150   74.5619  217.4303 H   0  0  0  0  0  0  0  0  0  0  0  0
  143.6782   73.3683  217.5200 H   0  0  0  0  0  0  0  0  0  0  0  0
  144.7765   75.1384  219.7228 H   0  0  0  0  0  0  0  0  0  0  0  0
  141.7010   74.4331  217.7558 H   0  0  0  0  0  0  0  0  0  0  0  0
  140.0403   76.2196  217.4573 H   0  0  0  0  0  0  0  0  0  0  0  0
  142.3539   78.7289  220.0865 H   0  0  0  0  0  0  0  0  0  0  0  0
  144.0003   76.9036  220.3598 H   0  0  0  0  0  0  0  0  0  0  0  0
  138.0711   77.3954  222.4238 H   0  0  0  0  0  0  0  0  0  0  0  0
  138.2758   79.7944  223.1095 H   0  0  0  0  0  0  0  0  0  0  0  0
  139.6930   81.7042  223.6655 H   0  0  0  0  0  0  0  0  0  0  0  0
  141.9271   82.6603  223.9536 H   0  0  0  0  0  0  0  0  0  0  0  0
  144.0004   81.2963  223.5846 H   0  0  0  0  0  0  0  0  0  0  0  0
  143.6864   78.9035  222.9020 H   0  0  0  0  0  0  0  0  0  0  0  0
  1  2  2  0
  2  3  1  0
  3  4  1  0
  4  5  1  0
  5  6  2  0
  5  7  1  0
  7  8  1  0
  8  9  1  0
  9 10  1  0
 10 11  1  0
 11 12  1  0
 12 13  1  0
 13 14  2  0
 14 15  1  0
 15 16  2  0
 16 17  1  0
 17 18  1  0
 18 19  1  0
 18 20  1  0
 18 21  1  0
 16 22  1  0
 22 23  2  0
  2 24  1  0
 24 25  2  0
 25 26  1  0
 26 27  2  0
 27 28  1  0
 28 29  2  0
 29 30  1  0
 30 31  2  0
 31 32  1  0
 32 33  2  0
 12  7  1  0
 23 13  1  0
 33 24  1  0
 32 27  1  0
  3 34  1  0
  4 35  1  0
  4 36  1  0
  8 37  1  0
  8 38  1  0
  9 39  1  0
  9 40  1  0
 10 41  1  0
 10 42  1  0
 11 43  1  0
 11 44  1  0
 12 45  1  1
 14 46  1  0
 15 47  1  0
 22 48  1  0
 23 49  1  0
 25 50  1  0
 26 51  1  0
 28 52  1  0
 29 53  1  0
 30 54  1  0
 31 55  1  0
M  END
>  <smiles>  (71) 
O=C(NCC(=O)N1CCCCC1c1ccc(OC(F)(F)F)cc1)c1ccc2ccccc2n1

>  <score_type>  (71) 
oracle

>  <origin>  (71) 
autodockgpu

>  <m_score__min__energy>  (71) 
-8.6099999999999994

>  <m_primary>  (71) 
energy

>  <rmsd>  (71) 
7.7476158764789504

>  <m_score__min__rmsd>  (71) 
7.7476158764789504

>  <meeko>  (71) 
{"free_energy": -6.47, "intermolecular_energy": -8.56, "internal_energy": -3.17, "cluster_size": 17, "cluster_id": 5, "rank_in_cluster": 17}

>  <energy>  (71) 
-7.69

>  <cluster_rmsd>  (71) 
0.31

>  <cluster>  (71) 
2

$$$$

     RDKit          3D

 55 58  0  0  0  0  0  0  0  0999 V2000
  140.0160   70.8420  221.2290 O   0  0  0  0  0  0  0  0  0  0  0  0
  139.8840   71.4990  222.3150 C   0  0  0  0  0  0  0  0  0  0  0  0
  139.6830   72.9180  222.2520 N   0  0  0  0  0  0  0  0  0  0  0  0
  139.6080   73.6770  221.0620 C   0  0  0  0  0  0  0  0  0  0  0  0
  140.4270   74.8730  220.8980 C   0  0  0  0  0  0  0  0  0  0  0  0
  140.7340   75.4480  222.0320 O   0  0  0  0  0  0  0  0  0  0  0  0
  140.9320   75.5060  219.7650 N   0  0  0  0  0  0  0  0  0  0  0  0
  140.2710   76.5880  219.0170 C   0  0  0  0  0  0  0  0  0  0  0  0
  141.3510   77.5290  218.4770 C   0  0  0  0  0  0  0  0  0  0  0  0
  142.5720   77.5290  219.3460 C   0  0  0  0  0  0  0  0  0  0  0  0
  143.1810   76.1970  219.6140 C   0  0  0  0  0  0  0  0  0  0  0  0
  142.2290   75.1320  219.2020 C   0  0  1  0  0  0  0  0  0  0  0  0
  142.6490   73.7600  219.4710 C   0  0  0  0  0  0  0  0  0  0  0  0
  142.1200   72.6290  218.9110 C   0  0  0  0  0  0  0  0  0  0  0  0
  142.5560   71.3530  219.2030 C   0  0  0  0  0  0  0  0  0  0  0  0
  143.5850   71.1920  220.1090 C   0  0  0  0  0  0  0  0  0  0  0  0
  144.0720   69.9370  220.4470 O   0  0  0  0  0  0  0  0  0  0  0  0
  144.4420   68.9410  219.5380 C   0  0  0  0  0  0  0  0  0  0  0  0
  145.0280   69.5990  218.4530 F   0  0  0  0  0  0  0  0  0  0  0  0
  145.3470   68.0820  220.0820 F   0  0  0  0  0  0  0  0  0  0  0  0
  143.3300   68.2990  218.9930 F   0  0  0  0  0  0  0  0  0  0  0  0
  144.1550   72.3070  220.7040 C   0  0  0  0  0  0  0  0  0  0  0  0
  143.6890   73.5710  220.3850 C   0  0  0  0  0  0  0  0  0  0  0  0
  139.9360   70.8200  223.6220 C   0  0  0  0  0  0  0  0  0  0  0  0
  139.4760   69.5230  223.6930 C   0  0  0  0  0  0  0  0  0  0  0  0
  139.5260   68.8820  224.9260 C   0  0  0  0  0  0  0  0  0  0  0  0
  140.0250   69.5390  226.0450 C   0  0  0  0  0  0  0  0  0  0  0  0
  140.0840   68.9280  227.2730 C   0  0  0  0  0  0  0  0  0  0  0  0
  140.5830   69.6100  228.3510 C   0  0  0  0  0  0  0  0  0  0  0  0
  141.0440   70.9240  228.2650 C   0  0  0  0  0  0  0  0  0  0  0  0
  140.9670   71.5050  227.0080 C   0  0  0  0  0  0  0  0  0  0  0  0
  140.4710   70.8290  225.9240 C   0  0  0  0  0  0  0  0  0  0  0  0
  140.4140   71.4350  224.7150 N   0  0  0  0  0  0  0  0  0  0  0  0
  139.5880   73.3940  223.1920 H   0  0  0  0  0  0  0  0  0  0  0  0
  139.8712   72.9983  220.2373 H   0  0  0  0  0  0  0  0  0  0  0  0
  138.5839   74.0778  221.0863 H   0  0  0  0  0  0  0  0  0  0  0  0
  139.6951   76.1643  218.1811 H   0  0  0  0  0  0  0  0  0  0  0  0
  139.5835   77.1388  219.6757 H   0  0  0  0  0  0  0  0  0  0  0  0
  141.6338   77.2035  217.4650 H   0  0  0  0  0  0  0  0  0  0  0  0
  140.9405   78.5494  218.4629 H   0  0  0  0  0  0  0  0  0  0  0  0
  143.3331   78.1551  218.8574 H   0  0  0  0  0  0  0  0  0  0  0  0
  142.2402   77.9063  220.3246 H   0  0  0  0  0  0  0  0  0  0  0  0
  144.1147   76.0975  219.0411 H   0  0  0  0  0  0  0  0  0  0  0  0
  143.4011   76.1007  220.6874 H   0  0  0  0  0  0  0  0  0  0  0  0
  142.1755   75.0902  218.1041 H   0  0  0  0  0  0  0  0  0  0  0  0
  141.3002   72.7438  218.1866 H   0  0  0  0  0  0  0  0  0  0  0  0
  142.0918   70.4793  218.7223 H   0  0  0  0  0  0  0  0  0  0  0  0
  144.9751   72.1877  221.4274 H   0  0  0  0  0  0  0  0  0  0  0  0
  144.1489   74.4485  220.8630 H   0  0  0  0  0  0  0  0  0  0  0  0
  139.0818   69.0111  222.8027 H   0  0  0  0  0  0  0  0  0  0  0  0
  139.1676   67.8460  225.0168 H   0  0  0  0  0  0  0  0  0  0  0  0
  139.7312   67.8928  227.3910 H   0  0  0  0  0  0  0  0  0  0  0  0
  140.6219   69.1005  229.3251 H   0  0  0  0  0  0  0  0  0  0  0  0
  141.4424   71.4637  229.1368 H   0  0  0  0  0  0  0  0  0  0  0  0
  141.3148   72.5403  226.8771 H   0  0  0  0  0  0  0  0  0  0  0  0
  1  2  2  0
  2  3  1  0
  3  4  1  0
  4  5  1  0
  5  6  2  0
  5  7  1  0
  7  8  1  0
  8  9  1  0
  9 10  1  0
 10 11  1  0
 11 12  1  0
 12 13  1  0
 13 14  2  0
 14 15  1  0
 15 16  2  0
 16 17  1  0
 17 18  1  0
 18 19  1  0
 18 20  1  0
 18 21  1  0
 16 22  1  0
 22 23  2  0
  2 24  1  0
 24 25  2  0
 25 26  1  0
 26 27  2  0
 27 28  1  0
 28 29  2  0
 29 30  1  0
 30 31  2  0
 31 32  1  0
 32 33  2  0
 12  7  1  0
 23 13  1  0
 33 24  1  0
 32 27  1  0
  3 34  1  0
  4 35  1  0
  4 36  1  0
  8 37  1  0
  8 38  1  0
  9 39  1  0
  9 40  1  0
 10 41  1  0
 10 42  1  0
 11 43  1  0
 11 44  1  0
 12 45  1  6
 14 46  1  0
 15 47  1  0
 22 48  1  0
 23 49  1  0
 25 50  1  0
 26 51  1  0
 28 52  1  0
 29 53  1  0
 30 54  1  0
 31 55  1  0
M  END
>  <smiles>  (72) 
O=C(NCC(=O)N1CCCCC1c1ccc(OC(F)(F)F)cc1)c1ccc2ccccc2n1

>  <score_type>  (72) 
oracle

>  <origin>  (72) 
autodockgpu

>  <m_score__min__energy>  (72) 
-8.6099999999999994

>  <m_primary>  (72) 
energy

>  <rmsd>  (72) 
1.8696200029685794

>  <m_score__min__rmsd>  (72) 
1.8696200029685794

>  <meeko>  (72) 
{"free_energy": -7.32, "intermolecular_energy": -9.4, "internal_energy": -2.3, "cluster_size": 9, "cluster_id": 2, "rank_in_cluster": 8}

>  <energy>  (72) 
-7.66

>  <cluster_rmsd>  (72) 
0.52

>  <cluster>  (72) 
2

$$$$

     RDKit          3D

 55 58  0  0  0  0  0  0  0  0999 V2000
  138.9620   75.2310  221.7740 O   0  0  0  0  0  0  0  0  0  0  0  0
  140.1140   75.7540  221.9410 C   0  0  0  0  0  0  0  0  0  0  0  0
  141.2820   74.9490  221.7270 N   0  0  0  0  0  0  0  0  0  0  0  0
  141.2750   73.5920  221.3300 C   0  0  0  0  0  0  0  0  0  0  0  0
  142.1370   73.1380  220.2440 C   0  0  0  0  0  0  0  0  0  0  0  0
  141.4850   72.5340  219.2850 O   0  0  0  0  0  0  0  0  0  0  0  0
  143.5130   73.2290  220.0500 N   0  0  0  0  0  0  0  0  0  0  0  0
  144.5330   72.4020  220.7150 C   0  0  0  0  0  0  0  0  0  0  0  0
  145.6820   72.1710  219.7310 C   0  0  0  0  0  0  0  0  0  0  0  0
  145.2120   72.2070  218.3090 C   0  0  0  0  0  0  0  0  0  0  0  0
  144.4640   73.4270  217.9010 C   0  0  0  0  0  0  0  0  0  0  0  0
  144.0840   74.1980  219.1140 C   0  0  1  0  0  0  0  0  0  0  0  0
  143.2750   75.3920  218.8880 C   0  0  0  0  0  0  0  0  0  0  0  0
  142.4850   75.6380  217.7990 C   0  0  0  0  0  0  0  0  0  0  0  0
  141.7390   76.7880  217.6360 C   0  0  0  0  0  0  0  0  0  0  0  0
  141.7840   77.7540  218.6200 C   0  0  0  0  0  0  0  0  0  0  0  0
  141.0600   78.9340  218.5200 O   0  0  0  0  0  0  0  0  0  0  0  0
  141.5530   80.2120  218.8040 C   0  0  0  0  0  0  0  0  0  0  0  0
  141.5520   80.3320  220.1960 F   0  0  0  0  0  0  0  0  0  0  0  0
  142.8230   80.3680  218.3420 F   0  0  0  0  0  0  0  0  0  0  0  0
  140.6810   81.2110  218.3700 F   0  0  0  0  0  0  0  0  0  0  0  0
  142.5710   77.5530  219.7440 C   0  0  0  0  0  0  0  0  0  0  0  0
  143.3040   76.3850  219.8700 C   0  0  0  0  0  0  0  0  0  0  0  0
  140.2550   77.1630  222.3480 C   0  0  0  0  0  0  0  0  0  0  0  0
  139.1050   77.9070  222.5000 C   0  0  0  0  0  0  0  0  0  0  0  0
  139.2370   79.2360  222.8840 C   0  0  0  0  0  0  0  0  0  0  0  0
  140.4950   79.7870  223.1050 C   0  0  0  0  0  0  0  0  0  0  0  0
  140.6520   81.0970  223.4860 C   0  0  0  0  0  0  0  0  0  0  0  0
  141.9080   81.6010  223.6930 C   0  0  0  0  0  0  0  0  0  0  0  0
  143.0650   80.8360  223.5340 C   0  0  0  0  0  0  0  0  0  0  0  0
  142.8620   79.5180  223.1500 C   0  0  0  0  0  0  0  0  0  0  0  0
  141.6090   79.0070  222.9420 C   0  0  0  0  0  0  0  0  0  0  0  0
  141.4580   77.7150  222.5670 N   0  0  0  0  0  0  0  0  0  0  0  0
  142.2010   75.4490  221.8900 H   0  0  0  0  0  0  0  0  0  0  0  0
  141.5472   73.0017  222.2174 H   0  0  0  0  0  0  0  0  0  0  0  0
  140.2637   73.4578  220.9185 H   0  0  0  0  0  0  0  0  0  0  0  0
  144.9080   72.9217  221.6090 H   0  0  0  0  0  0  0  0  0  0  0  0
  144.0985   71.4393  221.0223 H   0  0  0  0  0  0  0  0  0  0  0  0
  146.4384   72.9564  219.8760 H   0  0  0  0  0  0  0  0  0  0  0  0
  146.1046   71.1744  219.9265 H   0  0  0  0  0  0  0  0  0  0  0  0
  146.0959   72.1211  217.6599 H   0  0  0  0  0  0  0  0  0  0  0  0
  144.4994   71.3748  218.2105 H   0  0  0  0  0  0  0  0  0  0  0  0
  145.1002   74.0492  217.2543 H   0  0  0  0  0  0  0  0  0  0  0  0
  143.5576   73.1367  217.3495 H   0  0  0  0  0  0  0  0  0  0  0  0
  144.9796   74.6699  219.5444 H   0  0  0  0  0  0  0  0  0  0  0  0
  142.4416   74.8755  217.0074 H   0  0  0  0  0  0  0  0  0  0  0  0
  141.1200   76.9316  216.7381 H   0  0  0  0  0  0  0  0  0  0  0  0
  142.6128   78.3187  220.5327 H   0  0  0  0  0  0  0  0  0  0  0  0
  143.9246   76.2354  220.7658 H   0  0  0  0  0  0  0  0  0  0  0  0
  138.1142   77.4631  222.3230 H   0  0  0  0  0  0  0  0  0  0  0  0
  138.3389   79.8577  223.0143 H   0  0  0  0  0  0  0  0  0  0  0  0
  139.7704   81.7401  223.6246 H   0  0  0  0  0  0  0  0  0  0  0  0
  142.0099   82.6531  223.9974 H   0  0  0  0  0  0  0  0  0  0  0  0
  144.0701   81.2502  223.7019 H   0  0  0  0  0  0  0  0  0  0  0  0
  143.7348   78.8636  223.0083 H   0  0  0  0  0  0  0  0  0  0  0  0
  1  2  2  0
  2  3  1  0
  3  4  1  0
  4  5  1  0
  5  6  2  0
  5  7  1  0
  7  8  1  0
  8  9  1  0
  9 10  1  0
 10 11  1  0
 11 12  1  0
 12 13  1  0
 13 14  2  0
 14 15  1  0
 15 16  2  0
 16 17  1  0
 17 18  1  0
 18 19  1  0
 18 20  1  0
 18 21  1  0
 16 22  1  0
 22 23  2  0
  2 24  1  0
 24 25  2  0
 25 26  1  0
 26 27  2  0
 27 28  1  0
 28 29  2  0
 29 30  1  0
 30 31  2  0
 31 32  1  0
 32 33  2  0
 12  7  1  0
 23 13  1  0
 33 24  1  0
 32 27  1  0
  3 34  1  0
  4 35  1  0
  4 36  1  0
  8 37  1  0
  8 38  1  0
  9 39  1  0
  9 40  1  0
 10 41  1  0
 10 42  1  0
 11 43  1  0
 11 44  1  0
 12 45  1  1
 14 46  1  0
 15 47  1  0
 22 48  1  0
 23 49  1  0
 25 50  1  0
 26 51  1  0
 28 52  1  0
 29 53  1  0
 30 54  1  0
 31 55  1  0
M  END
>  <smiles>  (73) 
O=C(NCC(=O)N1CCCCC1c1ccc(OC(F)(F)F)cc1)c1ccc2ccccc2n1

>  <score_type>  (73) 
oracle

>  <origin>  (73) 
autodockgpu

>  <m_score__min__energy>  (73) 
-8.6099999999999994

>  <m_primary>  (73) 
energy

>  <rmsd>  (73) 
7.775399183874598

>  <m_score__min__rmsd>  (73) 
7.775399183874598

>  <meeko>  (73) 
{"free_energy": -6.65, "intermolecular_energy": -8.74, "internal_energy": -3.02, "cluster_size": 17, "cluster_id": 5, "rank_in_cluster": 7}

>  <energy>  (73) 
-7.4

>  <cluster_rmsd>  (73) 
1.07

>  <cluster>  (73) 
2

$$$$

     RDKit          3D

 55 58  0  0  0  0  0  0  0  0999 V2000
  138.8640   75.3660  221.7800 O   0  0  0  0  0  0  0  0  0  0  0  0
  140.0330   75.8390  221.9750 C   0  0  0  0  0  0  0  0  0  0  0  0
  141.1730   75.0000  221.7360 N   0  0  0  0  0  0  0  0  0  0  0  0
  141.1190   73.6620  221.2830 C   0  0  0  0  0  0  0  0  0  0  0  0
  142.2400   73.0860  220.5500 C   0  0  0  0  0  0  0  0  0  0  0  0
  141.9220   72.0090  219.8810 O   0  0  0  0  0  0  0  0  0  0  0  0
  143.5740   73.4720  220.4380 N   0  0  0  0  0  0  0  0  0  0  0  0
  144.6990   72.9170  221.2080 C   0  0  0  0  0  0  0  0  0  0  0  0
  145.9390   72.9100  220.3110 C   0  0  0  0  0  0  0  0  0  0  0  0
  145.5770   72.7900  218.8630 C   0  0  0  0  0  0  0  0  0  0  0  0
  144.6120   73.7990  218.3460 C   0  0  0  0  0  0  0  0  0  0  0  0
  143.9860   74.5090  219.4920 C   0  0  1  0  0  0  0  0  0  0  0  0
  142.9550   75.4860  219.1540 C   0  0  0  0  0  0  0  0  0  0  0  0
  141.8880   75.2800  218.3230 C   0  0  0  0  0  0  0  0  0  0  0  0
  140.9410   76.2410  218.0370 C   0  0  0  0  0  0  0  0  0  0  0  0
  141.0630   77.4870  218.6170 C   0  0  0  0  0  0  0  0  0  0  0  0
  140.1450   78.5010  218.3740 O   0  0  0  0  0  0  0  0  0  0  0  0
  139.3610   79.1310  219.3450 C   0  0  0  0  0  0  0  0  0  0  0  0
  138.5800   78.1300  219.9290 F   0  0  0  0  0  0  0  0  0  0  0  0
  140.1300   79.7150  220.3040 F   0  0  0  0  0  0  0  0  0  0  0  0
  138.4340   80.0040  218.7740 F   0  0  0  0  0  0  0  0  0  0  0  0
  142.1260   77.7470  219.4680 C   0  0  0  0  0  0  0  0  0  0  0  0
  143.0560   76.7550  219.7290 C   0  0  0  0  0  0  0  0  0  0  0  0
  140.2230   77.2240  222.4400 C   0  0  0  0  0  0  0  0  0  0  0  0
  139.1000   77.9550  222.7610 C   0  0  0  0  0  0  0  0  0  0  0  0
  139.2780   79.2620  223.1990 C   0  0  0  0  0  0  0  0  0  0  0  0
  140.5540   79.8040  223.3070 C   0  0  0  0  0  0  0  0  0  0  0  0
  140.7560   81.0920  223.7380 C   0  0  0  0  0  0  0  0  0  0  0  0
  142.0300   81.5880  223.8290 C   0  0  0  0  0  0  0  0  0  0  0  0
  143.1590   80.8370  223.5000 C   0  0  0  0  0  0  0  0  0  0  0  0
  142.9110   79.5420  223.0700 C   0  0  0  0  0  0  0  0  0  0  0  0
  141.6400   79.0370  222.9760 C   0  0  0  0  0  0  0  0  0  0  0  0
  141.4450   77.7670  222.5510 N   0  0  0  0  0  0  0  0  0  0  0  0
  142.1080   75.4590  221.9240 H   0  0  0  0  0  0  0  0  0  0  0  0
  140.9671   73.0333  222.1728 H   0  0  0  0  0  0  0  0  0  0  0  0
  140.3163   73.6861  220.5312 H   0  0  0  0  0  0  0  0  0  0  0  0
  144.8855   73.5398  222.0953 H   0  0  0  0  0  0  0  0  0  0  0  0
  144.4643   71.8942  221.5377 H   0  0  0  0  0  0  0  0  0  0  0  0
  146.4936   73.8477  220.4629 H   0  0  0  0  0  0  0  0  0  0  0  0
  146.5531   72.0390  220.5833 H   0  0  0  0  0  0  0  0  0  0  0  0
  146.5031   72.8783  218.2761 H   0  0  0  0  0  0  0  0  0  0  0  0
  145.0719   71.8180  218.7631 H   0  0  0  0  0  0  0  0  0  0  0  0
  145.1423   74.5231  217.7100 H   0  0  0  0  0  0  0  0  0  0  0  0
  143.8337   73.2961  217.7532 H   0  0  0  0  0  0  0  0  0  0  0  0
  144.7229   75.1819  219.9548 H   0  0  0  0  0  0  0  0  0  0  0  0
  141.7790   74.2902  217.8557 H   0  0  0  0  0  0  0  0  0  0  0  0
  140.1039   76.0182  217.3590 H   0  0  0  0  0  0  0  0  0  0  0  0
  142.2303   78.7378  219.9342 H   0  0  0  0  0  0  0  0  0  0  0  0
  143.8954   76.9716  220.4061 H   0  0  0  0  0  0  0  0  0  0  0  0
  138.0944   77.5180  222.6734 H   0  0  0  0  0  0  0  0  0  0  0  0
  138.4020   79.8729  223.4625 H   0  0  0  0  0  0  0  0  0  0  0  0
  139.8974   81.7238  224.0095 H   0  0  0  0  0  0  0  0  0  0  0  0
  142.1687   82.6225  224.1763 H   0  0  0  0  0  0  0  0  0  0  0  0
  144.1777   81.2448  223.5766 H   0  0  0  0  0  0  0  0  0  0  0  0
  143.7609   78.8998  222.7957 H   0  0  0  0  0  0  0  0  0  0  0  0
  1  2  2  0
  2  3  1  0
  3  4  1  0
  4  5  1  0
  5  6  2  0
  5  7  1  0
  7  8  1  0
  8  9  1  0
  9 10  1  0
 10 11  1  0
 11 12  1  0
 12 13  1  0
 13 14  2  0
 14 15  1  0
 15 16  2  0
 16 17  1  0
 17 18  1  0
 18 19  1  0
 18 20  1  0
 18 21  1  0
 16 22  1  0
 22 23  2  0
  2 24  1  0
 24 25  2  0
 25 26  1  0
 26 27  2  0
 27 28  1  0
 28 29  2  0
 29 30  1  0
 30 31  2  0
 31 32  1  0
 32 33  2  0
 12  7  1  0
 23 13  1  0
 33 24  1  0
 32 27  1  0
  3 34  1  0
  4 35  1  0
  4 36  1  0
  8 37  1  0
  8 38  1  0
  9 39  1  0
  9 40  1  0
 10 41  1  0
 10 42  1  0
 11 43  1  0
 11 44  1  0
 12 45  1  1
 14 46  1  0
 15 47  1  0
 22 48  1  0
 23 49  1  0
 25 50  1  0
 26 51  1  0
 28 52  1  0
 29 53  1  0
 30 54  1  0
 31 55  1  0
M  END
>  <smiles>  (74) 
O=C(NCC(=O)N1CCCCC1c1ccc(OC(F)(F)F)cc1)c1ccc2ccccc2n1

>  <score_type>  (74) 
oracle

>  <origin>  (74) 
autodockgpu

>  <m_score__min__energy>  (74) 
-8.6099999999999994

>  <m_primary>  (74) 
energy

>  <rmsd>  (74) 
7.76747903976041

>  <m_score__min__rmsd>  (74) 
7.76747903976041

>  <meeko>  (74) 
{"free_energy": -6.56, "intermolecular_energy": -8.64, "internal_energy": -3.19, "cluster_size": 17, "cluster_id": 5, "rank_in_cluster": 13}

>  <energy>  (74) 
-7.32

>  <cluster_rmsd>  (74) 
1.39

>  <cluster>  (74) 
2

$$$$

     RDKit          3D

 55 58  0  0  0  0  0  0  0  0999 V2000
  139.7780   71.0960  221.2410 O   0  0  0  0  0  0  0  0  0  0  0  0
  139.6390   71.7840  222.3070 C   0  0  0  0  0  0  0  0  0  0  0  0
  139.2740   73.1670  222.2020 N   0  0  0  0  0  0  0  0  0  0  0  0
  139.0390   73.8570  220.9910 C   0  0  0  0  0  0  0  0  0  0  0  0
  140.1590   74.2980  220.1660 C   0  0  0  0  0  0  0  0  0  0  0  0
  139.7900   74.7590  218.9990 O   0  0  0  0  0  0  0  0  0  0  0  0
  141.5320   74.3140  220.3940 N   0  0  0  0  0  0  0  0  0  0  0  0
  142.4050   73.1310  220.4810 C   0  0  0  0  0  0  0  0  0  0  0  0
  143.7720   73.4980  219.9000 C   0  0  0  0  0  0  0  0  0  0  0  0
  143.6650   74.5740  218.8630 C   0  0  0  0  0  0  0  0  0  0  0  0
  142.9690   75.8200  219.2870 C   0  0  0  0  0  0  0  0  0  0  0  0
  142.2580   75.5720  220.5690 C   0  0  1  0  0  0  0  0  0  0  0  0
  141.4600   76.6810  221.0840 C   0  0  0  0  0  0  0  0  0  0  0  0
  140.8070   76.7180  222.2850 C   0  0  0  0  0  0  0  0  0  0  0  0
  140.0650   77.7950  222.7230 C   0  0  0  0  0  0  0  0  0  0  0  0
  139.9660   78.9070  221.9130 C   0  0  0  0  0  0  0  0  0  0  0  0
  139.2360   80.0260  222.2910 O   0  0  0  0  0  0  0  0  0  0  0  0
  138.2960   80.0660  223.3260 C   0  0  0  0  0  0  0  0  0  0  0  0
  137.4320   78.9880  223.1130 F   0  0  0  0  0  0  0  0  0  0  0  0
  138.8910   79.9290  224.5420 F   0  0  0  0  0  0  0  0  0  0  0  0
  137.4750   81.1900  223.2360 F   0  0  0  0  0  0  0  0  0  0  0  0
  140.6100   78.9210  220.6840 C   0  0  0  0  0  0  0  0  0  0  0  0
  141.3460   77.8190  220.2810 C   0  0  0  0  0  0  0  0  0  0  0  0
  139.8490   71.1760  223.6330 C   0  0  0  0  0  0  0  0  0  0  0  0
  139.5130   69.8490  223.7950 C   0  0  0  0  0  0  0  0  0  0  0  0
  139.7110   69.2760  225.0450 C   0  0  0  0  0  0  0  0  0  0  0  0
  140.2330   70.0270  226.0930 C   0  0  0  0  0  0  0  0  0  0  0  0
  140.4380   69.4830  227.3370 C   0  0  0  0  0  0  0  0  0  0  0  0
  140.9540   70.2570  228.3420 C   0  0  0  0  0  0  0  0  0  0  0  0
  141.2900   71.6000  228.1650 C   0  0  0  0  0  0  0  0  0  0  0  0
  141.0680   72.1100  226.8940 C   0  0  0  0  0  0  0  0  0  0  0  0
  140.5530   71.3420  225.8830 C   0  0  0  0  0  0  0  0  0  0  0  0
  140.3520   71.8810  224.6580 N   0  0  0  0  0  0  0  0  0  0  0  0
  139.1840   73.6730  223.1270 H   0  0  0  0  0  0  0  0  0  0  0  0
  138.4257   73.1939  220.3632 H   0  0  0  0  0  0  0  0  0  0  0  0
  138.5880   74.8027  221.3259 H   0  0  0  0  0  0  0  0  0  0  0  0
  142.5171   72.8281  221.5325 H   0  0  0  0  0  0  0  0  0  0  0  0
  141.9663   72.2944  219.9175 H   0  0  0  0  0  0  0  0  0  0  0  0
  144.4217   73.8515  220.7142 H   0  0  0  0  0  0  0  0  0  0  0  0
  144.1916   72.6014  219.4204 H   0  0  0  0  0  0  0  0  0  0  0  0
  144.6849   74.8464  218.5537 H   0  0  0  0  0  0  0  0  0  0  0  0
  143.0493   74.1493  218.0564 H   0  0  0  0  0  0  0  0  0  0  0  0
  143.7065   76.6243  219.4252 H   0  0  0  0  0  0  0  0  0  0  0  0
  142.2447   76.1191  218.5151 H   0  0  0  0  0  0  0  0  0  0  0  0
  142.9904   75.4858  221.3852 H   0  0  0  0  0  0  0  0  0  0  0  0
  140.8777   75.8372  222.9401 H   0  0  0  0  0  0  0  0  0  0  0  0
  139.5613   77.7676  223.7005 H   0  0  0  0  0  0  0  0  0  0  0  0
  140.5363   79.8040  220.0322 H   0  0  0  0  0  0  0  0  0  0  0  0
  141.8531   77.8401  219.3051 H   0  0  0  0  0  0  0  0  0  0  0  0
  139.1010   69.2622  222.9608 H   0  0  0  0  0  0  0  0  0  0  0  0
  139.4527   68.2192  225.2074 H   0  0  0  0  0  0  0  0  0  0  0  0
  140.1885   68.4284  227.5258 H   0  0  0  0  0  0  0  0  0  0  0  0
  141.1103   69.8009  229.3307 H   0  0  0  0  0  0  0  0  0  0  0  0
  141.7034   72.2134  228.9792 H   0  0  0  0  0  0  0  0  0  0  0  0
  141.3129   73.1631  226.6918 H   0  0  0  0  0  0  0  0  0  0  0  0
  1  2  2  0
  2  3  1  0
  3  4  1  0
  4  5  1  0
  5  6  2  0
  5  7  1  0
  7  8  1  0
  8  9  1  0
  9 10  1  0
 10 11  1  0
 11 12  1  0
 12 13  1  0
 13 14  2  0
 14 15  1  0
 15 16  2  0
 16 17  1  0
 17 18  1  0
 18 19  1  0
 18 20  1  0
 18 21  1  0
 16 22  1  0
 22 23  2  0
  2 24  1  0
 24 25  2  0
 25 26  1  0
 26 27  2  0
 27 28  1  0
 28 29  2  0
 29 30  1  0
 30 31  2  0
 31 32  1  0
 32 33  2  0
 12  7  1  0
 23 13  1  0
 33 24  1  0
 32 27  1  0
  3 34  1  0
  4 35  1  0
  4 36  1  0
  8 37  1  0
  8 38  1  0
  9 39  1  0
  9 40  1  0
 10 41  1  0
 10 42  1  0
 11 43  1  0
 11 44  1  0
 12 45  1  1
 14 46  1  0
 15 47  1  0
 22 48  1  0
 23 49  1  0
 25 50  1  0
 26 51  1  0
 28 52  1  0
 29 53  1  0
 30 54  1  0
 31 55  1  0
M  END
>  <smiles>  (75) 
O=C(NCC(=O)N1CCCCC1c1ccc(OC(F)(F)F)cc1)c1ccc2ccccc2n1

>  <score_type>  (75) 
oracle

>  <origin>  (75) 
autodockgpu

>  <m_score__min__energy>  (75) 
-8.6099999999999994

>  <m_primary>  (75) 
energy

>  <rmsd>  (75) 
2.369050788736864

>  <m_score__min__rmsd>  (75) 
2.369050788736864

>  <meeko>  (75) 
{"free_energy": -7.55, "intermolecular_energy": -9.63, "internal_energy": -1.93, "cluster_size": 16, "cluster_id": 1, "rank_in_cluster": 15}

>  <energy>  (75) 
-7.31

>  <cluster_rmsd>  (75) 
1.38

>  <cluster>  (75) 
2

$$$$

     RDKit          3D

 55 58  0  0  0  0  0  0  0  0999 V2000
  139.9880   70.8590  221.2260 O   0  0  0  0  0  0  0  0  0  0  0  0
  139.9590   71.5190  222.3180 C   0  0  0  0  0  0  0  0  0  0  0  0
  139.9620   72.9530  222.2660 N   0  0  0  0  0  0  0  0  0  0  0  0
  139.9870   73.7250  221.0820 C   0  0  0  0  0  0  0  0  0  0  0  0
  140.5690   75.0620  221.0880 C   0  0  0  0  0  0  0  0  0  0  0  0
  141.2810   75.3120  222.1560 O   0  0  0  0  0  0  0  0  0  0  0  0
  140.5000   76.1090  220.1720 N   0  0  0  0  0  0  0  0  0  0  0  0
  139.3110   76.9290  219.8880 C   0  0  0  0  0  0  0  0  0  0  0  0
  139.7730   78.3520  219.5680 C   0  0  0  0  0  0  0  0  0  0  0  0
  141.0630   78.6850  220.2540 C   0  0  0  0  0  0  0  0  0  0  0  0
  142.1910   77.7450  220.0110 C   0  0  0  0  0  0  0  0  0  0  0  0
  141.6670   76.5040  219.3820 C   0  0  1  0  0  0  0  0  0  0  0  0
  142.6440   75.4440  219.1470 C   0  0  0  0  0  0  0  0  0  0  0  0
  142.6660   74.5890  218.0800 C   0  0  0  0  0  0  0  0  0  0  0  0
  143.6150   73.6020  217.9070 C   0  0  0  0  0  0  0  0  0  0  0  0
  144.6050   73.4580  218.8580 C   0  0  0  0  0  0  0  0  0  0  0  0
  145.5900   72.4860  218.7470 O   0  0  0  0  0  0  0  0  0  0  0  0
  145.4830   71.1700  219.2070 C   0  0  0  0  0  0  0  0  0  0  0  0
  145.1310   70.3950  218.0990 F   0  0  0  0  0  0  0  0  0  0  0  0
  146.6650   70.7210  219.7110 F   0  0  0  0  0  0  0  0  0  0  0  0
  144.4130   71.0170  220.0900 F   0  0  0  0  0  0  0  0  0  0  0  0
  144.6260   74.3000  219.9590 C   0  0  0  0  0  0  0  0  0  0  0  0
  143.6560   75.2780  220.0960 C   0  0  0  0  0  0  0  0  0  0  0  0
  139.9240   70.8280  223.6190 C   0  0  0  0  0  0  0  0  0  0  0  0
  139.3960   69.5560  223.6590 C   0  0  0  0  0  0  0  0  0  0  0  0
  139.3630   68.9040  224.8870 C   0  0  0  0  0  0  0  0  0  0  0  0
  139.8500   69.5270  226.0310 C   0  0  0  0  0  0  0  0  0  0  0  0
  139.8280   68.9040  227.2550 C   0  0  0  0  0  0  0  0  0  0  0  0
  140.3170   69.5520  228.3580 C   0  0  0  0  0  0  0  0  0  0  0  0
  140.8480   70.8410  228.3030 C   0  0  0  0  0  0  0  0  0  0  0  0
  140.8520   71.4340  227.0490 C   0  0  0  0  0  0  0  0  0  0  0  0
  140.3650   70.7930  225.9410 C   0  0  0  0  0  0  0  0  0  0  0  0
  140.3880   71.4090  224.7360 N   0  0  0  0  0  0  0  0  0  0  0  0
  139.9430   73.4300  223.2110 H   0  0  0  0  0  0  0  0  0  0  0  0
  140.5448   73.1407  220.3353 H   0  0  0  0  0  0  0  0  0  0  0  0
  138.9217   73.9173  220.8867 H   0  0  0  0  0  0  0  0  0  0  0  0
  138.7686   76.5117  219.0268 H   0  0  0  0  0  0  0  0  0  0  0  0
  138.6390   76.9359  220.7589 H   0  0  0  0  0  0  0  0  0  0  0  0
  139.9133   78.4450  218.4809 H   0  0  0  0  0  0  0  0  0  0  0  0
  139.0036   79.0508  219.9281 H   0  0  0  0  0  0  0  0  0  0  0  0
  141.3772   79.6831  219.9146 H   0  0  0  0  0  0  0  0  0  0  0  0
  140.8513   78.6230  221.3316 H   0  0  0  0  0  0  0  0  0  0  0  0
  142.9243   78.2161  219.3400 H   0  0  0  0  0  0  0  0  0  0  0  0
  142.6780   77.4979  220.9658 H   0  0  0  0  0  0  0  0  0  0  0  0
  141.3765   76.7127  218.3418 H   0  0  0  0  0  0  0  0  0  0  0  0
  141.8821   74.6940  217.3155 H   0  0  0  0  0  0  0  0  0  0  0  0
  143.5830   72.9422  217.0274 H   0  0  0  0  0  0  0  0  0  0  0  0
  145.4112   74.1913  220.7216 H   0  0  0  0  0  0  0  0  0  0  0  0
  143.6826   75.9408  220.9735 H   0  0  0  0  0  0  0  0  0  0  0  0
  139.0128   69.0717  222.7487 H   0  0  0  0  0  0  0  0  0  0  0  0
  138.9484   67.8873  224.9539 H   0  0  0  0  0  0  0  0  0  0  0  0
  139.4187   67.8873  227.3490 H   0  0  0  0  0  0  0  0  0  0  0  0
  140.2900   69.0344  229.3282 H   0  0  0  0  0  0  0  0  0  0  0  0
  141.2377   71.3532  229.1951 H   0  0  0  0  0  0  0  0  0  0  0  0
  141.2588   72.4503  226.9412 H   0  0  0  0  0  0  0  0  0  0  0  0
  1  2  2  0
  2  3  1  0
  3  4  1  0
  4  5  1  0
  5  6  2  0
  5  7  1  0
  7  8  1  0
  8  9  1  0
  9 10  1  0
 10 11  1  0
 11 12  1  0
 12 13  1  0
 13 14  2  0
 14 15  1  0
 15 16  2  0
 16 17  1  0
 17 18  1  0
 18 19  1  0
 18 20  1  0
 18 21  1  0
 16 22  1  0
 22 23  2  0
  2 24  1  0
 24 25  2  0
 25 26  1  0
 26 27  2  0
 27 28  1  0
 28 29  2  0
 29 30  1  0
 30 31  2  0
 31 32  1  0
 32 33  2  0
 12  7  1  0
 23 13  1  0
 33 24  1  0
 32 27  1  0
  3 34  1  0
  4 35  1  0
  4 36  1  0
  8 37  1  0
  8 38  1  0
  9 39  1  0
  9 40  1  0
 10 41  1  0
 10 42  1  0
 11 43  1  0
 11 44  1  0
 12 45  1  6
 14 46  1  0
 15 47  1  0
 22 48  1  0
 23 49  1  0
 25 50  1  0
 26 51  1  0
 28 52  1  0
 29 53  1  0
 30 54  1  0
 31 55  1  0
M  END
>  <smiles>  (76) 
O=C(NCC(=O)N1CCCCC1c1ccc(OC(F)(F)F)cc1)c1ccc2ccccc2n1

>  <score_type>  (76) 
oracle

>  <origin>  (76) 
autodockgpu

>  <m_score__min__energy>  (76) 
-8.6099999999999994

>  <m_primary>  (76) 
energy

>  <rmsd>  (76) 
1.888506323131343

>  <m_score__min__rmsd>  (76) 
1.888506323131343

>  <meeko>  (76) 
{"free_energy": -7.69, "intermolecular_energy": -9.78, "internal_energy": -1.95, "cluster_size": 9, "cluster_id": 2, "rank_in_cluster": 5}

>  <energy>  (76) 
-7.57

>  <cluster_rmsd>  (76) 
0.0

>  <cluster>  (76) 
3

$$$$

     RDKit          3D

 55 58  0  0  0  0  0  0  0  0999 V2000
  139.4550   70.9890  221.2760 O   0  0  0  0  0  0  0  0  0  0  0  0
  139.5480   71.6790  222.3460 C   0  0  0  0  0  0  0  0  0  0  0  0
  139.4600   73.1090  222.2640 N   0  0  0  0  0  0  0  0  0  0  0  0
  139.2660   73.8450  221.0730 C   0  0  0  0  0  0  0  0  0  0  0  0
  140.3630   74.0210  220.1290 C   0  0  0  0  0  0  0  0  0  0  0  0
  139.9610   74.2620  218.9080 O   0  0  0  0  0  0  0  0  0  0  0  0
  141.7450   73.9750  220.2910 N   0  0  0  0  0  0  0  0  0  0  0  0
  142.5620   72.7530  220.3790 C   0  0  0  0  0  0  0  0  0  0  0  0
  143.9160   73.0310  219.7220 C   0  0  0  0  0  0  0  0  0  0  0  0
  143.8110   74.0750  218.6520 C   0  0  0  0  0  0  0  0  0  0  0  0
  143.1980   75.3680  219.0620 C   0  0  0  0  0  0  0  0  0  0  0  0
  142.5390   75.2000  220.3850 C   0  0  1  0  0  0  0  0  0  0  0  0
  141.8230   76.3650  220.8960 C   0  0  0  0  0  0  0  0  0  0  0  0
  141.0690   76.4140  222.0360 C   0  0  0  0  0  0  0  0  0  0  0  0
  140.4100   77.5450  222.4730 C   0  0  0  0  0  0  0  0  0  0  0  0
  140.5100   78.7020  221.7270 C   0  0  0  0  0  0  0  0  0  0  0  0
  139.8740   79.8750  222.1090 O   0  0  0  0  0  0  0  0  0  0  0  0
  140.3530   80.7820  223.0590 C   0  0  0  0  0  0  0  0  0  0  0  0
  139.2520   81.1600  223.8320 F   0  0  0  0  0  0  0  0  0  0  0  0
  141.2900   80.2110  223.8630 F   0  0  0  0  0  0  0  0  0  0  0  0
  140.7840   81.9710  222.4680 F   0  0  0  0  0  0  0  0  0  0  0  0
  141.2620   78.7050  220.5630 C   0  0  0  0  0  0  0  0  0  0  0  0
  141.9080   77.5490  220.1580 C   0  0  0  0  0  0  0  0  0  0  0  0
  139.7450   71.0270  223.6530 C   0  0  0  0  0  0  0  0  0  0  0  0
  139.4230   69.6910  223.7610 C   0  0  0  0  0  0  0  0  0  0  0  0
  139.6090   69.0760  224.9940 C   0  0  0  0  0  0  0  0  0  0  0  0
  140.1030   69.7960  226.0760 C   0  0  0  0  0  0  0  0  0  0  0  0
  140.2950   69.2110  227.3040 C   0  0  0  0  0  0  0  0  0  0  0  0
  140.7840   69.9540  228.3450 C   0  0  0  0  0  0  0  0  0  0  0  0
  141.1050   71.3070  228.2210 C   0  0  0  0  0  0  0  0  0  0  0  0
  140.8960   71.8590  226.9660 C   0  0  0  0  0  0  0  0  0  0  0  0
  140.4090   71.1220  225.9190 C   0  0  0  0  0  0  0  0  0  0  0  0
  140.2200   71.7020  224.7110 N   0  0  0  0  0  0  0  0  0  0  0  0
  139.5520   73.6120  223.1900 H   0  0  0  0  0  0  0  0  0  0  0  0
  138.4530   73.3480  220.5234 H   0  0  0  0  0  0  0  0  0  0  0  0
  139.0854   74.8667  221.4382 H   0  0  0  0  0  0  0  0  0  0  0  0
  142.7098   72.4798  221.4342 H   0  0  0  0  0  0  0  0  0  0  0  0
  142.0560   71.9215  219.8666 H   0  0  0  0  0  0  0  0  0  0  0  0
  144.6205   73.3794  220.4916 H   0  0  0  0  0  0  0  0  0  0  0  0
  144.2684   72.0986  219.2568 H   0  0  0  0  0  0  0  0  0  0  0  0
  144.8266   74.2850  218.2854 H   0  0  0  0  0  0  0  0  0  0  0  0
  143.1369   73.6543  217.8914 H   0  0  0  0  0  0  0  0  0  0  0  0
  143.9795   76.1386  219.1356 H   0  0  0  0  0  0  0  0  0  0  0  0
  142.4523   75.6765  218.3145 H   0  0  0  0  0  0  0  0  0  0  0  0
  143.3052   75.1045  221.1685 H   0  0  0  0  0  0  0  0  0  0  0  0
  140.9828   75.4985  222.6397 H   0  0  0  0  0  0  0  0  0  0  0  0
  139.8161   77.5248  223.3987 H   0  0  0  0  0  0  0  0  0  0  0  0
  141.3455   79.6229  219.9626 H   0  0  0  0  0  0  0  0  0  0  0  0
  142.5027   77.5629  219.2327 H   0  0  0  0  0  0  0  0  0  0  0  0
  139.0317   69.1297  222.8997 H   0  0  0  0  0  0  0  0  0  0  0  0
  139.3632   68.0106  225.1145 H   0  0  0  0  0  0  0  0  0  0  0  0
  140.0563   68.1473  227.4508 H   0  0  0  0  0  0  0  0  0  0  0  0
  140.9299   69.4646  229.3193 H   0  0  0  0  0  0  0  0  0  0  0  0
  141.4976   71.8962  229.0628 H   0  0  0  0  0  0  0  0  0  0  0  0
  141.1286   72.9222  226.8063 H   0  0  0  0  0  0  0  0  0  0  0  0
  1  2  2  0
  2  3  1  0
  3  4  1  0
  4  5  1  0
  5  6  2  0
  5  7  1  0
  7  8  1  0
  8  9  1  0
  9 10  1  0
 10 11  1  0
 11 12  1  0
 12 13  1  0
 13 14  2  0
 14 15  1  0
 15 16  2  0
 16 17  1  0
 17 18  1  0
 18 19  1  0
 18 20  1  0
 18 21  1  0
 16 22  1  0
 22 23  2  0
  2 24  1  0
 24 25  2  0
 25 26  1  0
 26 27  2  0
 27 28  1  0
 28 29  2  0
 29 30  1  0
 30 31  2  0
 31 32  1  0
 32 33  2  0
 12  7  1  0
 23 13  1  0
 33 24  1  0
 32 27  1  0
  3 34  1  0
  4 35  1  0
  4 36  1  0
  8 37  1  0
  8 38  1  0
  9 39  1  0
  9 40  1  0
 10 41  1  0
 10 42  1  0
 11 43  1  0
 11 44  1  0
 12 45  1  1
 14 46  1  0
 15 47  1  0
 22 48  1  0
 23 49  1  0
 25 50  1  0
 26 51  1  0
 28 52  1  0
 29 53  1  0
 30 54  1  0
 31 55  1  0
M  END
>  <smiles>  (77) 
O=C(NCC(=O)N1CCCCC1c1ccc(OC(F)(F)F)cc1)c1ccc2ccccc2n1

>  <score_type>  (77) 
oracle

>  <origin>  (77) 
autodockgpu

>  <m_score__min__energy>  (77) 
-8.6099999999999994

>  <m_primary>  (77) 
energy

>  <rmsd>  (77) 
2.4838620143717076

>  <m_score__min__rmsd>  (77) 
2.4838620143717076

>  <meeko>  (77) 
{"free_energy": -7.64, "intermolecular_energy": -9.73, "internal_energy": -1.92, "cluster_size": 16, "cluster_id": 1, "rank_in_cluster": 14}

>  <energy>  (77) 
-7.5

>  <cluster_rmsd>  (77) 
0.51

>  <cluster>  (77) 
3

$$$$

     RDKit          3D

 55 58  0  0  0  0  0  0  0  0999 V2000
  138.9550   75.3260  221.6250 O   0  0  0  0  0  0  0  0  0  0  0  0
  140.1040   75.8080  221.9030 C   0  0  0  0  0  0  0  0  0  0  0  0
  141.2660   74.9850  221.7290 N   0  0  0  0  0  0  0  0  0  0  0  0
  141.2570   73.6520  221.2590 C   0  0  0  0  0  0  0  0  0  0  0  0
  142.2520   73.2060  220.2910 C   0  0  0  0  0  0  0  0  0  0  0  0
  141.7630   72.4110  219.3750 O   0  0  0  0  0  0  0  0  0  0  0  0
  143.6150   73.4680  220.1710 N   0  0  0  0  0  0  0  0  0  0  0  0
  144.6900   72.8000  220.9230 C   0  0  0  0  0  0  0  0  0  0  0  0
  145.9170   72.6910  220.0130 C   0  0  0  0  0  0  0  0  0  0  0  0
  145.5320   72.6250  218.5670 C   0  0  0  0  0  0  0  0  0  0  0  0
  144.6600   73.7260  218.0730 C   0  0  0  0  0  0  0  0  0  0  0  0
  144.1130   74.4750  219.2350 C   0  0  1  0  0  0  0  0  0  0  0  0
  143.1740   75.5480  218.9200 C   0  0  0  0  0  0  0  0  0  0  0  0
  142.2510   75.5430  217.9100 C   0  0  0  0  0  0  0  0  0  0  0  0
  141.3860   76.5870  217.6570 C   0  0  0  0  0  0  0  0  0  0  0  0
  141.4420   77.7080  218.4600 C   0  0  0  0  0  0  0  0  0  0  0  0
  140.6010   78.7940  218.2620 O   0  0  0  0  0  0  0  0  0  0  0  0
  140.4630   79.8790  219.1330 C   0  0  0  0  0  0  0  0  0  0  0  0
  140.0170   79.3520  220.3480 F   0  0  0  0  0  0  0  0  0  0  0  0
  141.6510   80.5140  219.3290 F   0  0  0  0  0  0  0  0  0  0  0  0
  139.4390   80.7370  218.7320 F   0  0  0  0  0  0  0  0  0  0  0  0
  142.3610   77.7620  219.4980 C   0  0  0  0  0  0  0  0  0  0  0  0
  143.2120   76.6930  219.7190 C   0  0  0  0  0  0  0  0  0  0  0  0
  140.2460   77.1900  222.3950 C   0  0  0  0  0  0  0  0  0  0  0  0
  139.0990   77.8770  222.7260 C   0  0  0  0  0  0  0  0  0  0  0  0
  139.2330   79.1800  223.1900 C   0  0  0  0  0  0  0  0  0  0  0  0
  140.4910   79.7620  223.3140 C   0  0  0  0  0  0  0  0  0  0  0  0
  140.6490   81.0470  223.7700 C   0  0  0  0  0  0  0  0  0  0  0  0
  141.9050   81.5820  223.8770 C   0  0  0  0  0  0  0  0  0  0  0  0
  143.0590   80.8750  223.5370 C   0  0  0  0  0  0  0  0  0  0  0  0
  142.8550   79.5800  223.0810 C   0  0  0  0  0  0  0  0  0  0  0  0
  141.6020   79.0370  222.9720 C   0  0  0  0  0  0  0  0  0  0  0  0
  141.4490   77.7700  222.5220 N   0  0  0  0  0  0  0  0  0  0  0  0
  142.1810   75.4510  221.9850 H   0  0  0  0  0  0  0  0  0  0  0  0
  141.3630   73.0048  222.1421 H   0  0  0  0  0  0  0  0  0  0  0  0
  140.3153   73.5934  220.6935 H   0  0  0  0  0  0  0  0  0  0  0  0
  144.9409   73.3901  221.8167 H   0  0  0  0  0  0  0  0  0  0  0  0
  144.3642   71.7988  221.2416 H   0  0  0  0  0  0  0  0  0  0  0  0
  146.5572   73.5714  220.1713 H   0  0  0  0  0  0  0  0  0  0  0  0
  146.4508   71.7635  220.2678 H   0  0  0  0  0  0  0  0  0  0  0  0
  146.4569   72.6353  217.9716 H   0  0  0  0  0  0  0  0  0  0  0  0
  144.9380   71.7054  218.4599 H   0  0  0  0  0  0  0  0  0  0  0  0
  145.2492   74.4066  217.4409 H   0  0  0  0  0  0  0  0  0  0  0  0
  143.8331   73.3057  217.4818 H   0  0  0  0  0  0  0  0  0  0  0  0
  144.9134   75.0699  219.6993 H   0  0  0  0  0  0  0  0  0  0  0  0
  142.1957   74.6554  217.2626 H   0  0  0  0  0  0  0  0  0  0  0  0
  140.6639   76.5272  216.8294 H   0  0  0  0  0  0  0  0  0  0  0  0
  142.4131   78.6514  220.1432 H   0  0  0  0  0  0  0  0  0  0  0  0
  143.9367   76.7466  220.5448 H   0  0  0  0  0  0  0  0  0  0  0  0
  138.1085   77.4091  222.6262 H   0  0  0  0  0  0  0  0  0  0  0  0
  138.3365   79.7566  223.4618 H   0  0  0  0  0  0  0  0  0  0  0  0
  139.7691   81.6454  224.0487 H   0  0  0  0  0  0  0  0  0  0  0  0
  142.0086   82.6128  224.2467 H   0  0  0  0  0  0  0  0  0  0  0  0
  144.0635   81.3147  223.6245 H   0  0  0  0  0  0  0  0  0  0  0  0
  143.7263   78.9709  222.7984 H   0  0  0  0  0  0  0  0  0  0  0  0
  1  2  2  0
  2  3  1  0
  3  4  1  0
  4  5  1  0
  5  6  2  0
  5  7  1  0
  7  8  1  0
  8  9  1  0
  9 10  1  0
 10 11  1  0
 11 12  1  0
 12 13  1  0
 13 14  2  0
 14 15  1  0
 15 16  2  0
 16 17  1  0
 17 18  1  0
 18 19  1  0
 18 20  1  0
 18 21  1  0
 16 22  1  0
 22 23  2  0
  2 24  1  0
 24 25  2  0
 25 26  1  0
 26 27  2  0
 27 28  1  0
 28 29  2  0
 29 30  1  0
 30 31  2  0
 31 32  1  0
 32 33  2  0
 12  7  1  0
 23 13  1  0
 33 24  1  0
 32 27  1  0
  3 34  1  0
  4 35  1  0
  4 36  1  0
  8 37  1  0
  8 38  1  0
  9 39  1  0
  9 40  1  0
 10 41  1  0
 10 42  1  0
 11 43  1  0
 11 44  1  0
 12 45  1  1
 14 46  1  0
 15 47  1  0
 22 48  1  0
 23 49  1  0
 25 50  1  0
 26 51  1  0
 28 52  1  0
 29 53  1  0
 30 54  1  0
 31 55  1  0
M  END
>  <smiles>  (78) 
O=C(NCC(=O)N1CCCCC1c1ccc(OC(F)(F)F)cc1)c1ccc2ccccc2n1

>  <score_type>  (78) 
oracle

>  <origin>  (78) 
autodockgpu

>  <m_score__min__energy>  (78) 
-8.6099999999999994

>  <m_primary>  (78) 
energy

>  <rmsd>  (78) 
7.754657822376377

>  <m_score__min__rmsd>  (78) 
7.754657822376377

>  <meeko>  (78) 
{"free_energy": -6.58, "intermolecular_energy": -8.66, "internal_energy": -3.09, "cluster_size": 17, "cluster_id": 5, "rank_in_cluster": 11}

>  <energy>  (78) 
-7.5

>  <cluster_rmsd>  (78) 
0.71

>  <cluster>  (78) 
3

$$$$

     RDKit          3D

 55 58  0  0  0  0  0  0  0  0999 V2000
  140.3230   70.8980  221.2160 O   0  0  0  0  0  0  0  0  0  0  0  0
  140.0530   71.5580  222.2750 C   0  0  0  0  0  0  0  0  0  0  0  0
  139.7940   72.9660  222.1720 N   0  0  0  0  0  0  0  0  0  0  0  0
  139.8030   73.7090  220.9700 C   0  0  0  0  0  0  0  0  0  0  0  0
  140.5240   74.9750  220.8920 C   0  0  0  0  0  0  0  0  0  0  0  0
  141.2660   75.2130  221.9430 O   0  0  0  0  0  0  0  0  0  0  0  0
  140.5610   75.9650  219.9140 N   0  0  0  0  0  0  0  0  0  0  0  0
  139.4020   76.7150  219.4020 C   0  0  0  0  0  0  0  0  0  0  0  0
  139.8580   78.1370  219.0680 C   0  0  0  0  0  0  0  0  0  0  0  0
  141.0140   78.5640  219.9200 C   0  0  0  0  0  0  0  0  0  0  0  0
  142.1990   77.6620  219.9110 C   0  0  0  0  0  0  0  0  0  0  0  0
  141.8220   76.3660  219.2880 C   0  0  1  0  0  0  0  0  0  0  0  0
  142.8590   75.3390  219.2700 C   0  0  0  0  0  0  0  0  0  0  0  0
  143.8440   75.1680  220.2040 C   0  0  0  0  0  0  0  0  0  0  0  0
  144.8020   74.1770  220.1370 C   0  0  0  0  0  0  0  0  0  0  0  0
  144.7780   73.3000  219.0720 C   0  0  0  0  0  0  0  0  0  0  0  0
  145.7110   72.2800  218.9430 O   0  0  0  0  0  0  0  0  0  0  0  0
  145.4150   70.9140  218.9040 C   0  0  0  0  0  0  0  0  0  0  0  0
  146.5740   70.2500  219.3150 F   0  0  0  0  0  0  0  0  0  0  0  0
  144.3960   70.6020  219.7510 F   0  0  0  0  0  0  0  0  0  0  0  0
  145.2040   70.4680  217.5990 F   0  0  0  0  0  0  0  0  0  0  0  0
  143.8000   73.4310  218.0980 C   0  0  0  0  0  0  0  0  0  0  0  0
  142.8560   74.4380  218.2020 C   0  0  0  0  0  0  0  0  0  0  0  0
  140.0060   70.8950  223.5900 C   0  0  0  0  0  0  0  0  0  0  0  0
  139.4560   69.6330  223.6550 C   0  0  0  0  0  0  0  0  0  0  0  0
  139.4110   69.0070  224.8950 C   0  0  0  0  0  0  0  0  0  0  0  0
  139.9090   69.6430  226.0270 C   0  0  0  0  0  0  0  0  0  0  0  0
  139.8770   69.0450  227.2630 C   0  0  0  0  0  0  0  0  0  0  0  0
  140.3770   69.7060  228.3530 C   0  0  0  0  0  0  0  0  0  0  0  0
  140.9310   70.9850  228.2730 C   0  0  0  0  0  0  0  0  0  0  0  0
  140.9440   71.5520  227.0070 C   0  0  0  0  0  0  0  0  0  0  0  0
  140.4470   70.8980  225.9120 C   0  0  0  0  0  0  0  0  0  0  0  0
  140.4800   71.4900  224.6950 N   0  0  0  0  0  0  0  0  0  0  0  0
  139.5840   73.4460  223.0920 H   0  0  0  0  0  0  0  0  0  0  0  0
  140.2304   73.0538  220.1967 H   0  0  0  0  0  0  0  0  0  0  0  0
  138.7520   74.0133  220.8571 H   0  0  0  0  0  0  0  0  0  0  0  0
  139.0139   76.2266  218.4960 H   0  0  0  0  0  0  0  0  0  0  0  0
  138.6039   76.7413  220.1585 H   0  0  0  0  0  0  0  0  0  0  0  0
  140.1611   78.1750  218.0113 H   0  0  0  0  0  0  0  0  0  0  0  0
  139.0183   78.8204  219.2627 H   0  0  0  0  0  0  0  0  0  0  0  0
  141.3420   79.5542  219.5708 H   0  0  0  0  0  0  0  0  0  0  0  0
  140.6404   78.5530  220.9545 H   0  0  0  0  0  0  0  0  0  0  0  0
  143.0105   78.1265  219.3316 H   0  0  0  0  0  0  0  0  0  0  0  0
  142.5409   77.4907  220.9424 H   0  0  0  0  0  0  0  0  0  0  0  0
  141.6888   76.5033  218.2048 H   0  0  0  0  0  0  0  0  0  0  0  0
  143.8741   75.8607  221.0580 H   0  0  0  0  0  0  0  0  0  0  0  0
  145.5709   74.0878  220.9185 H   0  0  0  0  0  0  0  0  0  0  0  0
  143.7743   72.7367  217.2452 H   0  0  0  0  0  0  0  0  0  0  0  0
  142.0839   74.5313  217.4241 H   0  0  0  0  0  0  0  0  0  0  0  0
  139.0651   69.1371  222.7543 H   0  0  0  0  0  0  0  0  0  0  0  0
  138.9777   67.9997  224.9818 H   0  0  0  0  0  0  0  0  0  0  0  0
  139.4507   68.0374  227.3770 H   0  0  0  0  0  0  0  0  0  0  0  0
  140.3406   69.2082  229.3332 H   0  0  0  0  0  0  0  0  0  0  0  0
  141.3303   71.5079  229.1545 H   0  0  0  0  0  0  0  0  0  0  0  0
  141.3672   72.5592  226.8790 H   0  0  0  0  0  0  0  0  0  0  0  0
  1  2  2  0
  2  3  1  0
  3  4  1  0
  4  5  1  0
  5  6  2  0
  5  7  1  0
  7  8  1  0
  8  9  1  0
  9 10  1  0
 10 11  1  0
 11 12  1  0
 12 13  1  0
 13 14  2  0
 14 15  1  0
 15 16  2  0
 16 17  1  0
 17 18  1  0
 18 19  1  0
 18 20  1  0
 18 21  1  0
 16 22  1  0
 22 23  2  0
  2 24  1  0
 24 25  2  0
 25 26  1  0
 26 27  2  0
 27 28  1  0
 28 29  2  0
 29 30  1  0
 30 31  2  0
 31 32  1  0
 32 33  2  0
 12  7  1  0
 23 13  1  0
 33 24  1  0
 32 27  1  0
  3 34  1  0
  4 35  1  0
  4 36  1  0
  8 37  1  0
  8 38  1  0
  9 39  1  0
  9 40  1  0
 10 41  1  0
 10 42  1  0
 11 43  1  0
 11 44  1  0
 12 45  1  6
 14 46  1  0
 15 47  1  0
 22 48  1  0
 23 49  1  0
 25 50  1  0
 26 51  1  0
 28 52  1  0
 29 53  1  0
 30 54  1  0
 31 55  1  0
M  END
>  <smiles>  (79) 
O=C(NCC(=O)N1CCCCC1c1ccc(OC(F)(F)F)cc1)c1ccc2ccccc2n1

>  <score_type>  (79) 
oracle

>  <origin>  (79) 
autodockgpu

>  <m_score__min__energy>  (79) 
-8.6099999999999994

>  <m_primary>  (79) 
energy

>  <rmsd>  (79) 
1.7756772901810747

>  <m_score__min__rmsd>  (79) 
1.7756772901810747

>  <meeko>  (79) 
{"free_energy": -8.09, "intermolecular_energy": -10.17, "internal_energy": -1.81, "cluster_size": 9, "cluster_id": 2, "rank_in_cluster": 1}

>  <energy>  (79) 
-7.06

>  <cluster_rmsd>  (79) 
0.0

>  <cluster>  (79) 
4

$$$$

     RDKit          3D

 55 58  0  0  0  0  0  0  0  0999 V2000
  138.9050   75.3660  221.6790 O   0  0  0  0  0  0  0  0  0  0  0  0
  140.0650   75.8560  221.8880 C   0  0  0  0  0  0  0  0  0  0  0  0
  141.2190   75.0260  221.6900 N   0  0  0  0  0  0  0  0  0  0  0  0
  141.1880   73.6780  221.2640 C   0  0  0  0  0  0  0  0  0  0  0  0
  142.2410   73.1540  220.4020 C   0  0  0  0  0  0  0  0  0  0  0  0
  141.8310   72.1990  219.6080 O   0  0  0  0  0  0  0  0  0  0  0  0
  143.5880   73.4830  220.2750 N   0  0  0  0  0  0  0  0  0  0  0  0
  144.7000   72.8650  221.0180 C   0  0  0  0  0  0  0  0  0  0  0  0
  145.9240   72.8200  220.1010 C   0  0  0  0  0  0  0  0  0  0  0  0
  145.5350   72.7400  218.6570 C   0  0  0  0  0  0  0  0  0  0  0  0
  144.6080   73.8000  218.1720 C   0  0  0  0  0  0  0  0  0  0  0  0
  144.0320   74.5170  219.3400 C   0  0  1  0  0  0  0  0  0  0  0  0
  143.0400   75.5440  219.0350 C   0  0  0  0  0  0  0  0  0  0  0  0
  142.0230   75.4400  218.1270 C   0  0  0  0  0  0  0  0  0  0  0  0
  141.1110   76.4450  217.8780 C   0  0  0  0  0  0  0  0  0  0  0  0
  141.2190   77.6290  218.5780 C   0  0  0  0  0  0  0  0  0  0  0  0
  140.3350   78.6810  218.3770 O   0  0  0  0  0  0  0  0  0  0  0  0
  140.5440   80.0010  218.7890 C   0  0  0  0  0  0  0  0  0  0  0  0
  141.8120   80.3610  218.3240 F   0  0  0  0  0  0  0  0  0  0  0  0
  139.6160   80.8410  218.2550 F   0  0  0  0  0  0  0  0  0  0  0  0
  140.6440   80.1000  220.1770 F   0  0  0  0  0  0  0  0  0  0  0  0
  142.2330   77.7850  219.5110 C   0  0  0  0  0  0  0  0  0  0  0  0
  143.1280   76.7520  219.7320 C   0  0  0  0  0  0  0  0  0  0  0  0
  140.2300   77.2530  222.3280 C   0  0  0  0  0  0  0  0  0  0  0  0
  139.0910   77.9930  222.5630 C   0  0  0  0  0  0  0  0  0  0  0  0
  139.2460   79.3100  222.9770 C   0  0  0  0  0  0  0  0  0  0  0  0
  140.5150   79.8540  223.1470 C   0  0  0  0  0  0  0  0  0  0  0  0
  140.6940   81.1520  223.5560 C   0  0  0  0  0  0  0  0  0  0  0  0
  141.9600   81.6500  223.7100 C   0  0  0  0  0  0  0  0  0  0  0  0
  143.1050   80.8890  223.4680 C   0  0  0  0  0  0  0  0  0  0  0  0
  142.8800   79.5840  223.0570 C   0  0  0  0  0  0  0  0  0  0  0  0
  141.6170   79.0780  222.9010 C   0  0  0  0  0  0  0  0  0  0  0  0
  141.4440   77.7980  222.4980 N   0  0  0  0  0  0  0  0  0  0  0  0
  142.1440   75.4990  221.8880 H   0  0  0  0  0  0  0  0  0  0  0  0
  141.1869   73.0591  222.1734 H   0  0  0  0  0  0  0  0  0  0  0  0
  140.2969   73.6404  220.6202 H   0  0  0  0  0  0  0  0  0  0  0  0
  144.9273   73.4631  221.9128 H   0  0  0  0  0  0  0  0  0  0  0  0
  144.4256   71.8478  221.3342 H   0  0  0  0  0  0  0  0  0  0  0  0
  146.5208   73.7304  220.2590 H   0  0  0  0  0  0  0  0  0  0  0  0
  146.5039   71.9188  220.3491 H   0  0  0  0  0  0  0  0  0  0  0  0
  146.4550   72.7968  218.0567 H   0  0  0  0  0  0  0  0  0  0  0  0
  144.9858   71.7930  218.5493 H   0  0  0  0  0  0  0  0  0  0  0  0
  145.1603   74.5107  217.5397 H   0  0  0  0  0  0  0  0  0  0  0  0
  143.7991   73.3427  217.5832 H   0  0  0  0  0  0  0  0  0  0  0  0
  144.8056   75.1480  219.8019 H   0  0  0  0  0  0  0  0  0  0  0  0
  141.9263   74.5009  217.5624 H   0  0  0  0  0  0  0  0  0  0  0  0
  140.3122   76.3048  217.1348 H   0  0  0  0  0  0  0  0  0  0  0  0
  142.3259   78.7258  220.0733 H   0  0  0  0  0  0  0  0  0  0  0  0
  143.9283   76.8855  220.4747 H   0  0  0  0  0  0  0  0  0  0  0  0
  138.0913   77.5547  222.4271 H   0  0  0  0  0  0  0  0  0  0  0  0
  138.3573   79.9282  223.1721 H   0  0  0  0  0  0  0  0  0  0  0  0
  139.8220   81.7908  223.7596 H   0  0  0  0  0  0  0  0  0  0  0  0
  142.0799   82.6931  224.0381 H   0  0  0  0  0  0  0  0  0  0  0  0
  144.1184   81.2975  223.5949 H   0  0  0  0  0  0  0  0  0  0  0  0
  143.7433   78.9346  222.8497 H   0  0  0  0  0  0  0  0  0  0  0  0
  1  2  2  0
  2  3  1  0
  3  4  1  0
  4  5  1  0
  5  6  2  0
  5  7  1  0
  7  8  1  0
  8  9  1  0
  9 10  1  0
 10 11  1  0
 11 12  1  0
 12 13  1  0
 13 14  2  0
 14 15  1  0
 15 16  2  0
 16 17  1  0
 17 18  1  0
 18 19  1  0
 18 20  1  0
 18 21  1  0
 16 22  1  0
 22 23  2  0
  2 24  1  0
 24 25  2  0
 25 26  1  0
 26 27  2  0
 27 28  1  0
 28 29  2  0
 29 30  1  0
 30 31  2  0
 31 32  1  0
 32 33  2  0
 12  7  1  0
 23 13  1  0
 33 24  1  0
 32 27  1  0
  3 34  1  0
  4 35  1  0
  4 36  1  0
  8 37  1  0
  8 38  1  0
  9 39  1  0
  9 40  1  0
 10 41  1  0
 10 42  1  0
 11 43  1  0
 11 44  1  0
 12 45  1  1
 14 46  1  0
 15 47  1  0
 22 48  1  0
 23 49  1  0
 25 50  1  0
 26 51  1  0
 28 52  1  0
 29 53  1  0
 30 54  1  0
 31 55  1  0
M  END
>  <smiles>  (80) 
O=C(NCC(=O)N1CCCCC1c1ccc(OC(F)(F)F)cc1)c1ccc2ccccc2n1

>  <score_type>  (80) 
oracle

>  <origin>  (80) 
autodockgpu

>  <m_score__min__energy>  (80) 
-8.6099999999999994

>  <m_primary>  (80) 
energy

>  <rmsd>  (80) 
7.799462932545744

>  <m_score__min__rmsd>  (80) 
7.799462932545744

>  <meeko>  (80) 
{"free_energy": -6.61, "intermolecular_energy": -8.69, "internal_energy": -3.11, "cluster_size": 17, "cluster_id": 5, "rank_in_cluster": 9}

>  <energy>  (80) 
-7.06

>  <cluster_rmsd>  (80) 
0.06

>  <cluster>  (80) 
4

$$$$

     RDKit          3D

 55 58  0  0  0  0  0  0  0  0999 V2000
  138.9510   75.2570  221.7840 O   0  0  0  0  0  0  0  0  0  0  0  0
  140.1020   75.7930  221.9190 C   0  0  0  0  0  0  0  0  0  0  0  0
  141.2730   75.0060  221.6600 N   0  0  0  0  0  0  0  0  0  0  0  0
  141.2700   73.6530  221.2500 C   0  0  0  0  0  0  0  0  0  0  0  0
  142.1220   73.2150  220.1510 C   0  0  0  0  0  0  0  0  0  0  0  0
  141.4550   72.6890  219.1570 O   0  0  0  0  0  0  0  0  0  0  0  0
  143.5030   73.2520  219.9740 N   0  0  0  0  0  0  0  0  0  0  0  0
  144.4830   72.3930  220.6590 C   0  0  0  0  0  0  0  0  0  0  0  0
  145.6350   72.1110  219.6920 C   0  0  0  0  0  0  0  0  0  0  0  0
  145.1850   72.1540  218.2640 C   0  0  0  0  0  0  0  0  0  0  0  0
  144.4880   73.3980  217.8360 C   0  0  0  0  0  0  0  0  0  0  0  0
  144.1230   74.1920  219.0390 C   0  0  1  0  0  0  0  0  0  0  0  0
  143.3620   75.4140  218.7930 C   0  0  0  0  0  0  0  0  0  0  0  0
  142.7280   75.7500  217.6290 C   0  0  0  0  0  0  0  0  0  0  0  0
  142.0220   76.9220  217.4510 C   0  0  0  0  0  0  0  0  0  0  0  0
  141.9420   77.8160  218.5000 C   0  0  0  0  0  0  0  0  0  0  0  0
  141.2480   79.0130  218.3900 O   0  0  0  0  0  0  0  0  0  0  0  0
  141.7110   80.2590  218.8250 C   0  0  0  0  0  0  0  0  0  0  0  0
  140.8180   81.2080  218.3200 F   0  0  0  0  0  0  0  0  0  0  0  0
  141.7260   80.3370  220.1830 F   0  0  0  0  0  0  0  0  0  0  0  0
  142.9340   80.5890  218.2390 F   0  0  0  0  0  0  0  0  0  0  0  0
  142.5680   77.5210  219.7010 C   0  0  0  0  0  0  0  0  0  0  0  0
  143.2670   76.3340  219.8400 C   0  0  0  0  0  0  0  0  0  0  0  0
  140.2380   77.2010  222.3350 C   0  0  0  0  0  0  0  0  0  0  0  0
  139.0850   77.9360  222.5060 C   0  0  0  0  0  0  0  0  0  0  0  0
  139.2130   79.2630  222.8980 C   0  0  0  0  0  0  0  0  0  0  0  0
  140.4700   79.8210  223.1100 C   0  0  0  0  0  0  0  0  0  0  0  0
  140.6220   81.1290  223.4980 C   0  0  0  0  0  0  0  0  0  0  0  0
  141.8770   81.6400  223.6950 C   0  0  0  0  0  0  0  0  0  0  0  0
  143.0370   80.8830  223.5180 C   0  0  0  0  0  0  0  0  0  0  0  0
  142.8390   79.5670  223.1260 C   0  0  0  0  0  0  0  0  0  0  0  0
  141.5860   79.0490  222.9280 C   0  0  0  0  0  0  0  0  0  0  0  0
  141.4400   77.7590  222.5450 N   0  0  0  0  0  0  0  0  0  0  0  0
  142.1900   75.5160  221.7990 H   0  0  0  0  0  0  0  0  0  0  0  0
  141.5557   73.0559  222.1286 H   0  0  0  0  0  0  0  0  0  0  0  0
  140.2551   73.5165  220.8483 H   0  0  0  0  0  0  0  0  0  0  0  0
  144.8657   72.9059  221.5537 H   0  0  0  0  0  0  0  0  0  0  0  0
  144.0089   71.4499  220.9683 H   0  0  0  0  0  0  0  0  0  0  0  0
  146.4188   72.8682  219.8414 H   0  0  0  0  0  0  0  0  0  0  0  0
  146.0169   71.1006  219.9001 H   0  0  0  0  0  0  0  0  0  0  0  0
  146.0735   72.0301  217.6274 H   0  0  0  0  0  0  0  0  0  0  0  0
  144.4426   71.3486  218.1629 H   0  0  0  0  0  0  0  0  0  0  0  0
  145.1548   73.9906  217.1924 H   0  0  0  0  0  0  0  0  0  0  0  0
  143.5784   73.1378  217.2748 H   0  0  0  0  0  0  0  0  0  0  0  0
  145.0301   74.6325  219.4784 H   0  0  0  0  0  0  0  0  0  0  0  0
  142.7840   75.0455  216.7861 H   0  0  0  0  0  0  0  0  0  0  0  0
  141.5318   77.1401  216.4907 H   0  0  0  0  0  0  0  0  0  0  0  0
  142.5096   78.2282  220.5415 H   0  0  0  0  0  0  0  0  0  0  0  0
  143.7594   76.1100  220.7978 H   0  0  0  0  0  0  0  0  0  0  0  0
  138.0952   77.4867  222.3376 H   0  0  0  0  0  0  0  0  0  0  0  0
  138.3124   79.8780  223.0420 H   0  0  0  0  0  0  0  0  0  0  0  0
  139.7376   81.7651  223.6503 H   0  0  0  0  0  0  0  0  0  0  0  0
  141.9755   82.6906  224.0057 H   0  0  0  0  0  0  0  0  0  0  0  0
  144.0412   81.3023  223.6787 H   0  0  0  0  0  0  0  0  0  0  0  0
  143.7145   78.9197  222.9694 H   0  0  0  0  0  0  0  0  0  0  0  0
  1  2  2  0
  2  3  1  0
  3  4  1  0
  4  5  1  0
  5  6  2  0
  5  7  1  0
  7  8  1  0
  8  9  1  0
  9 10  1  0
 10 11  1  0
 11 12  1  0
 12 13  1  0
 13 14  2  0
 14 15  1  0
 15 16  2  0
 16 17  1  0
 17 18  1  0
 18 19  1  0
 18 20  1  0
 18 21  1  0
 16 22  1  0
 22 23  2  0
  2 24  1  0
 24 25  2  0
 25 26  1  0
 26 27  2  0
 27 28  1  0
 28 29  2  0
 29 30  1  0
 30 31  2  0
 31 32  1  0
 32 33  2  0
 12  7  1  0
 23 13  1  0
 33 24  1  0
 32 27  1  0
  3 34  1  0
  4 35  1  0
  4 36  1  0
  8 37  1  0
  8 38  1  0
  9 39  1  0
  9 40  1  0
 10 41  1  0
 10 42  1  0
 11 43  1  0
 11 44  1  0
 12 45  1  1
 14 46  1  0
 15 47  1  0
 22 48  1  0
 23 49  1  0
 25 50  1  0
 26 51  1  0
 28 52  1  0
 29 53  1  0
 30 54  1  0
 31 55  1  0
M  END
>  <smiles>  (81) 
O=C(NCC(=O)N1CCCCC1c1ccc(OC(F)(F)F)cc1)c1ccc2ccccc2n1

>  <score_type>  (81) 
oracle

>  <origin>  (81) 
autodockgpu

>  <m_score__min__energy>  (81) 
-8.6099999999999994

>  <m_primary>  (81) 
energy

>  <rmsd>  (81) 
7.795027190536918

>  <m_score__min__rmsd>  (81) 
7.795027190536918

>  <meeko>  (81) 
{"free_energy": -6.81, "intermolecular_energy": -8.89, "internal_energy": -2.89, "cluster_size": 17, "cluster_id": 5, "rank_in_cluster": 2}

>  <energy>  (81) 
-7.01

>  <cluster_rmsd>  (81) 
0.17

>  <cluster>  (81) 
4

$$$$

     RDKit          3D

 55 58  0  0  0  0  0  0  0  0999 V2000
  138.9600   75.1940  222.0090 O   0  0  0  0  0  0  0  0  0  0  0  0
  140.1020   75.7640  222.0240 C   0  0  0  0  0  0  0  0  0  0  0  0
  141.2620   75.0140  221.6340 N   0  0  0  0  0  0  0  0  0  0  0  0
  141.2550   73.6640  221.2150 C   0  0  0  0  0  0  0  0  0  0  0  0
  142.2800   73.1710  220.3020 C   0  0  0  0  0  0  0  0  0  0  0  0
  141.8340   72.2780  219.4570 O   0  0  0  0  0  0  0  0  0  0  0  0
  143.6330   73.4750  220.1730 N   0  0  0  0  0  0  0  0  0  0  0  0
  144.7340   72.8380  220.9140 C   0  0  0  0  0  0  0  0  0  0  0  0
  145.9560   72.7700  219.9950 C   0  0  0  0  0  0  0  0  0  0  0  0
  145.5630   72.6960  218.5520 C   0  0  0  0  0  0  0  0  0  0  0  0
  144.6550   73.7720  218.0680 C   0  0  0  0  0  0  0  0  0  0  0  0
  144.0940   74.5010  219.2360 C   0  0  1  0  0  0  0  0  0  0  0  0
  143.1200   75.5450  218.9330 C   0  0  0  0  0  0  0  0  0  0  0  0
  142.1540   75.4930  217.9650 C   0  0  0  0  0  0  0  0  0  0  0  0
  141.2580   76.5120  217.7200 C   0  0  0  0  0  0  0  0  0  0  0  0
  141.3270   77.6570  218.4880 C   0  0  0  0  0  0  0  0  0  0  0  0
  140.4560   78.7210  218.2950 O   0  0  0  0  0  0  0  0  0  0  0  0
  139.6370   79.2830  219.2790 C   0  0  0  0  0  0  0  0  0  0  0  0
  138.9210   78.2250  219.8460 F   0  0  0  0  0  0  0  0  0  0  0  0
  140.3720   79.8960  220.2470 F   0  0  0  0  0  0  0  0  0  0  0  0
  138.6560   80.1070  218.7270 F   0  0  0  0  0  0  0  0  0  0  0  0
  142.2880   77.7600  219.4820 C   0  0  0  0  0  0  0  0  0  0  0  0
  143.1700   76.7140  219.6960 C   0  0  0  0  0  0  0  0  0  0  0  0
  140.2400   77.1730  222.4350 C   0  0  0  0  0  0  0  0  0  0  0  0
  139.0880   77.8920  222.6670 C   0  0  0  0  0  0  0  0  0  0  0  0
  139.2170   79.2200  223.0550 C   0  0  0  0  0  0  0  0  0  0  0  0
  140.4750   79.7950  223.2020 C   0  0  0  0  0  0  0  0  0  0  0  0
  140.6290   81.1040  223.5840 C   0  0  0  0  0  0  0  0  0  0  0  0
  141.8860   81.6330  223.7160 C   0  0  0  0  0  0  0  0  0  0  0  0
  143.0450   80.8930  223.4770 C   0  0  0  0  0  0  0  0  0  0  0  0
  142.8450   79.5750  223.0940 C   0  0  0  0  0  0  0  0  0  0  0  0
  141.5920   79.0390  222.9600 C   0  0  0  0  0  0  0  0  0  0  0  0
  141.4430   77.7470  222.5830 N   0  0  0  0  0  0  0  0  0  0  0  0
  142.1720   75.5520  221.6770 H   0  0  0  0  0  0  0  0  0  0  0  0
  141.3211   73.0502  222.1254 H   0  0  0  0  0  0  0  0  0  0  0  0
  140.3341   73.5932  220.6176 H   0  0  0  0  0  0  0  0  0  0  0  0
  144.9736   73.4325  221.8080 H   0  0  0  0  0  0  0  0  0  0  0  0
  144.4417   71.8261  221.2312 H   0  0  0  0  0  0  0  0  0  0  0  0
  146.5695   73.6695  220.1513 H   0  0  0  0  0  0  0  0  0  0  0  0
  146.5201   71.8588  220.2430 H   0  0  0  0  0  0  0  0  0  0  0  0
  146.4828   72.7355  217.9500 H   0  0  0  0  0  0  0  0  0  0  0  0
  144.9963   71.7592  218.4461 H   0  0  0  0  0  0  0  0  0  0  0  0
  145.2192   74.4718  217.4340 H   0  0  0  0  0  0  0  0  0  0  0  0
  143.8368   73.3288  217.4815 H   0  0  0  0  0  0  0  0  0  0  0  0
  144.8797   75.1192  219.6947 H   0  0  0  0  0  0  0  0  0  0  0  0
  142.0886   74.5857  217.3465 H   0  0  0  0  0  0  0  0  0  0  0  0
  140.5020   76.4143  216.9270 H   0  0  0  0  0  0  0  0  0  0  0  0
  142.3497   78.6691  220.0983 H   0  0  0  0  0  0  0  0  0  0  0  0
  143.9291   76.8060  220.4868 H   0  0  0  0  0  0  0  0  0  0  0  0
  138.0971   77.4293  222.5488 H   0  0  0  0  0  0  0  0  0  0  0  0
  138.3165   79.8218  223.2475 H   0  0  0  0  0  0  0  0  0  0  0  0
  139.7450   81.7274  223.7838 H   0  0  0  0  0  0  0  0  0  0  0  0
  141.9859   82.6845  224.0231 H   0  0  0  0  0  0  0  0  0  0  0  0
  144.0503   81.3263  223.5852 H   0  0  0  0  0  0  0  0  0  0  0  0
  143.7204   78.9404  222.8915 H   0  0  0  0  0  0  0  0  0  0  0  0
  1  2  2  0
  2  3  1  0
  3  4  1  0
  4  5  1  0
  5  6  2  0
  5  7  1  0
  7  8  1  0
  8  9  1  0
  9 10  1  0
 10 11  1  0
 11 12  1  0
 12 13  1  0
 13 14  2  0
 14 15  1  0
 15 16  2  0
 16 17  1  0
 17 18  1  0
 18 19  1  0
 18 20  1  0
 18 21  1  0
 16 22  1  0
 22 23  2  0
  2 24  1  0
 24 25  2  0
 25 26  1  0
 26 27  2  0
 27 28  1  0
 28 29  2  0
 29 30  1  0
 30 31  2  0
 31 32  1  0
 32 33  2  0
 12  7  1  0
 23 13  1  0
 33 24  1  0
 32 27  1  0
  3 34  1  0
  4 35  1  0
  4 36  1  0
  8 37  1  0
  8 38  1  0
  9 39  1  0
  9 40  1  0
 10 41  1  0
 10 42  1  0
 11 43  1  0
 11 44  1  0
 12 45  1  1
 14 46  1  0
 15 47  1  0
 22 48  1  0
 23 49  1  0
 25 50  1  0
 26 51  1  0
 28 52  1  0
 29 53  1  0
 30 54  1  0
 31 55  1  0
M  END
>  <smiles>  (82) 
O=C(NCC(=O)N1CCCCC1c1ccc(OC(F)(F)F)cc1)c1ccc2ccccc2n1

>  <score_type>  (82) 
oracle

>  <origin>  (82) 
autodockgpu

>  <m_score__min__energy>  (82) 
-8.6099999999999994

>  <m_primary>  (82) 
energy

>  <rmsd>  (82) 
7.776997542406163

>  <m_score__min__rmsd>  (82) 
7.776997542406163

>  <meeko>  (82) 
{"free_energy": -6.54, "intermolecular_energy": -8.62, "internal_energy": -3.16, "cluster_size": 17, "cluster_id": 5, "rank_in_cluster": 14}

>  <energy>  (82) 
-7.01

>  <cluster_rmsd>  (82) 
0.18

>  <cluster>  (82) 
4

$$$$

     RDKit          3D

 55 58  0  0  0  0  0  0  0  0999 V2000
  141.1620   71.5240  221.4000 O   0  0  0  0  0  0  0  0  0  0  0  0
  140.5290   72.0140  222.3940 C   0  0  0  0  0  0  0  0  0  0  0  0
  140.0870   73.3780  222.3360 N   0  0  0  0  0  0  0  0  0  0  0  0
  140.2860   74.2520  221.2430 C   0  0  0  0  0  0  0  0  0  0  0  0
  140.9050   75.5570  221.4480 C   0  0  0  0  0  0  0  0  0  0  0  0
  140.5770   76.1120  222.5860 O   0  0  0  0  0  0  0  0  0  0  0  0
  141.7680   76.3110  220.6570 N   0  0  0  0  0  0  0  0  0  0  0  0
  142.9770   75.8100  219.9810 C   0  0  0  0  0  0  0  0  0  0  0  0
  143.1360   76.5640  218.6590 C   0  0  0  0  0  0  0  0  0  0  0  0
  141.8160   77.0180  218.1150 C   0  0  0  0  0  0  0  0  0  0  0  0
  140.9770   77.8320  219.0370 C   0  0  0  0  0  0  0  0  0  0  0  0
  141.5270   77.7340  220.4140 C   0  0  1  0  0  0  0  0  0  0  0  0
  140.7700   78.4200  221.4570 C   0  0  0  0  0  0  0  0  0  0  0  0
  139.4120   78.5770  221.4990 C   0  0  0  0  0  0  0  0  0  0  0  0
  138.7460   79.2380  222.5110 C   0  0  0  0  0  0  0  0  0  0  0  0
  139.4800   79.7760  223.5480 C   0  0  0  0  0  0  0  0  0  0  0  0
  138.8750   80.4530  224.5990 O   0  0  0  0  0  0  0  0  0  0  0  0
  137.6390   81.1040  224.5350 C   0  0  0  0  0  0  0  0  0  0  0  0
  137.7150   81.9850  223.4530 F   0  0  0  0  0  0  0  0  0  0  0  0
  136.6230   80.2240  224.3250 F   0  0  0  0  0  0  0  0  0  0  0  0
  137.4330   81.9300  225.6410 F   0  0  0  0  0  0  0  0  0  0  0  0
  140.8600   79.6450  223.5530 C   0  0  0  0  0  0  0  0  0  0  0  0
  141.4910   78.9740  222.5180 C   0  0  0  0  0  0  0  0  0  0  0  0
  140.2510   71.2010  223.5910 C   0  0  0  0  0  0  0  0  0  0  0  0
  139.5660   70.0170  223.4210 C   0  0  0  0  0  0  0  0  0  0  0  0
  139.3040   69.2490  224.5490 C   0  0  0  0  0  0  0  0  0  0  0  0
  139.7250   69.6720  225.8060 C   0  0  0  0  0  0  0  0  0  0  0  0
  139.4790   68.9310  226.9350 C   0  0  0  0  0  0  0  0  0  0  0  0
  139.9100   69.3830  228.1540 C   0  0  0  0  0  0  0  0  0  0  0  0
  140.6020   70.5850  228.3130 C   0  0  0  0  0  0  0  0  0  0  0  0
  140.8300   71.3020  227.1470 C   0  0  0  0  0  0  0  0  0  0  0  0
  140.4030   70.8560  225.9240 C   0  0  0  0  0  0  0  0  0  0  0  0
  140.6480   71.5890  224.8130 N   0  0  0  0  0  0  0  0  0  0  0  0
  139.5740   73.7150  223.1980 H   0  0  0  0  0  0  0  0  0  0  0  0
  140.9149   73.7140  220.5184 H   0  0  0  0  0  0  0  0  0  0  0  0
  139.2606   74.5071  220.9373 H   0  0  0  0  0  0  0  0  0  0  0  0
  143.8577   75.9841  220.6167 H   0  0  0  0  0  0  0  0  0  0  0  0
  142.8858   74.7301  219.7926 H   0  0  0  0  0  0  0  0  0  0  0  0
  143.7741   77.4443  218.8258 H   0  0  0  0  0  0  0  0  0  0  0  0
  143.5900   75.8794  217.9274 H   0  0  0  0  0  0  0  0  0  0  0  0
  142.0116   77.6214  217.2163 H   0  0  0  0  0  0  0  0  0  0  0  0
  141.2417   76.0996  217.9233 H   0  0  0  0  0  0  0  0  0  0  0  0
  140.9858   78.8827  218.7113 H   0  0  0  0  0  0  0  0  0  0  0  0
  139.9433   77.4561  219.0246 H   0  0  0  0  0  0  0  0  0  0  0  0
  142.4676   78.3011  220.4740 H   0  0  0  0  0  0  0  0  0  0  0  0
  138.8158   78.1516  220.6782 H   0  0  0  0  0  0  0  0  0  0  0  0
  137.6504   79.3341  222.4912 H   0  0  0  0  0  0  0  0  0  0  0  0
  141.4520   80.0723  224.3758 H   0  0  0  0  0  0  0  0  0  0  0  0
  142.5864   78.8750  222.5319 H   0  0  0  0  0  0  0  0  0  0  0  0
  139.2370   69.6903  222.4235 H   0  0  0  0  0  0  0  0  0  0  0  0
  138.7593   68.2988  224.4474 H   0  0  0  0  0  0  0  0  0  0  0  0
  138.9371   67.9766  226.8609 H   0  0  0  0  0  0  0  0  0  0  0  0
  139.7021   68.7731  229.0455 H   0  0  0  0  0  0  0  0  0  0  0  0
  140.9436   70.9399  229.2965 H   0  0  0  0  0  0  0  0  0  0  0  0
  141.3704   72.2583  227.2065 H   0  0  0  0  0  0  0  0  0  0  0  0
  1  2  2  0
  2  3  1  0
  3  4  1  0
  4  5  1  0
  5  6  2  0
  5  7  1  0
  7  8  1  0
  8  9  1  0
  9 10  1  0
 10 11  1  0
 11 12  1  0
 12 13  1  0
 13 14  2  0
 14 15  1  0
 15 16  2  0
 16 17  1  0
 17 18  1  0
 18 19  1  0
 18 20  1  0
 18 21  1  0
 16 22  1  0
 22 23  2  0
  2 24  1  0
 24 25  2  0
 25 26  1  0
 26 27  2  0
 27 28  1  0
 28 29  2  0
 29 30  1  0
 30 31  2  0
 31 32  1  0
 32 33  2  0
 12  7  1  0
 23 13  1  0
 33 24  1  0
 32 27  1  0
  3 34  1  0
  4 35  1  0
  4 36  1  0
  8 37  1  0
  8 38  1  0
  9 39  1  0
  9 40  1  0
 10 41  1  0
 10 42  1  0
 11 43  1  0
 11 44  1  0
 12 45  1  6
 14 46  1  0
 15 47  1  0
 22 48  1  0
 23 49  1  0
 25 50  1  0
 26 51  1  0
 28 52  1  0
 29 53  1  0
 30 54  1  0
 31 55  1  0
M  END
>  <smiles>  (83) 
O=C(NCC(=O)N1CCCCC1c1ccc(OC(F)(F)F)cc1)c1ccc2ccccc2n1

>  <score_type>  (83) 
oracle

>  <origin>  (83) 
autodockgpu

>  <m_score__min__energy>  (83) 
-8.6099999999999994

>  <m_primary>  (83) 
energy

>  <rmsd>  (83) 
2.1165747820958334

>  <m_score__min__rmsd>  (83) 
2.1165747820958334

>  <meeko>  (83) 
{"free_energy": -8.38, "intermolecular_energy": -10.47, "internal_energy": -1.34, "cluster_size": 16, "cluster_id": 1, "rank_in_cluster": 6}

>  <energy>  (83) 
-6.85

>  <cluster_rmsd>  (83) 
0.0

>  <cluster>  (83) 
5

$$$$

     RDKit          3D

 55 58  0  0  0  0  0  0  0  0999 V2000
  140.9730   71.7270  221.3120 O   0  0  0  0  0  0  0  0  0  0  0  0
  140.4010   72.2290  222.3370 C   0  0  0  0  0  0  0  0  0  0  0  0
  139.8680   73.5590  222.2580 N   0  0  0  0  0  0  0  0  0  0  0  0
  139.9130   74.3870  221.1130 C   0  0  0  0  0  0  0  0  0  0  0  0
  139.9880   75.8360  221.2550 C   0  0  0  0  0  0  0  0  0  0  0  0
  140.0290   76.2320  222.5010 O   0  0  0  0  0  0  0  0  0  0  0  0
  140.0190   76.8620  220.3140 N   0  0  0  0  0  0  0  0  0  0  0  0
  138.9010   77.7600  219.9800 C   0  0  0  0  0  0  0  0  0  0  0  0
  139.4750   79.1370  219.6390 C   0  0  0  0  0  0  0  0  0  0  0  0
  140.7690   79.3910  220.3500 C   0  0  0  0  0  0  0  0  0  0  0  0
  141.8300   78.3650  220.1590 C   0  0  0  0  0  0  0  0  0  0  0  0
  141.2310   77.1500  219.5460 C   0  0  1  0  0  0  0  0  0  0  0  0
  142.1320   76.0160  219.3610 C   0  0  0  0  0  0  0  0  0  0  0  0
  141.9210   74.9420  218.5400 C   0  0  0  0  0  0  0  0  0  0  0  0
  142.8080   73.8940  218.4040 C   0  0  0  0  0  0  0  0  0  0  0  0
  143.9800   73.9170  219.1310 C   0  0  0  0  0  0  0  0  0  0  0  0
  144.9170   72.8960  219.0410 O   0  0  0  0  0  0  0  0  0  0  0  0
  145.4000   72.1460  220.1190 C   0  0  0  0  0  0  0  0  0  0  0  0
  144.3090   71.9260  220.9640 F   0  0  0  0  0  0  0  0  0  0  0  0
  145.8970   70.9480  219.7070 F   0  0  0  0  0  0  0  0  0  0  0  0
  146.2980   72.8790  220.8970 F   0  0  0  0  0  0  0  0  0  0  0  0
  144.2420   74.9830  219.9780 C   0  0  0  0  0  0  0  0  0  0  0  0
  143.3260   76.0160  220.0860 C   0  0  0  0  0  0  0  0  0  0  0  0
  140.2830   71.4610  223.5900 C   0  0  0  0  0  0  0  0  0  0  0  0
  139.6900   70.2190  223.5320 C   0  0  0  0  0  0  0  0  0  0  0  0
  139.5790   69.4960  224.7130 C   0  0  0  0  0  0  0  0  0  0  0  0
  140.0560   70.0190  225.9100 C   0  0  0  0  0  0  0  0  0  0  0  0
  139.9590   69.3230  227.0900 C   0  0  0  0  0  0  0  0  0  0  0  0
  140.4410   69.8740  228.2480 C   0  0  0  0  0  0  0  0  0  0  0  0
  141.0390   71.1340  228.2930 C   0  0  0  0  0  0  0  0  0  0  0  0
  141.1180   71.8020  227.0800 C   0  0  0  0  0  0  0  0  0  0  0  0
  140.6390   71.2580  225.9170 C   0  0  0  0  0  0  0  0  0  0  0  0
  140.7370   71.9460  224.7560 N   0  0  0  0  0  0  0  0  0  0  0  0
  139.4140   73.9080  223.1480 H   0  0  0  0  0  0  0  0  0  0  0  0
  140.7974   74.0799  220.5355 H   0  0  0  0  0  0  0  0  0  0  0  0
  138.9252   74.2323  220.6545 H   0  0  0  0  0  0  0  0  0  0  0  0
  138.3502   77.3622  219.1149 H   0  0  0  0  0  0  0  0  0  0  0  0
  138.2104   77.8382  220.8326 H   0  0  0  0  0  0  0  0  0  0  0  0
  139.6479   79.1922  218.5541 H   0  0  0  0  0  0  0  0  0  0  0  0
  138.7511   79.8993  219.9628 H   0  0  0  0  0  0  0  0  0  0  0  0
  141.1645   80.3543  219.9955 H   0  0  0  0  0  0  0  0  0  0  0  0
  140.5270   79.3715  221.4229 H   0  0  0  0  0  0  0  0  0  0  0  0
  142.6123   78.7638  219.4964 H   0  0  0  0  0  0  0  0  0  0  0  0
  142.2741   78.1073  221.1318 H   0  0  0  0  0  0  0  0  0  0  0  0
  140.9821   77.3529  218.4939 H   0  0  0  0  0  0  0  0  0  0  0  0
  140.9903   74.9124  217.9544 H   0  0  0  0  0  0  0  0  0  0  0  0
  142.5846   73.0554  217.7281 H   0  0  0  0  0  0  0  0  0  0  0  0
  145.1739   75.0081  220.5619 H   0  0  0  0  0  0  0  0  0  0  0  0
  143.5442   76.8577  220.7597 H   0  0  0  0  0  0  0  0  0  0  0  0
  139.3162   69.8126  222.5806 H   0  0  0  0  0  0  0  0  0  0  0  0
  139.1097   68.5012  224.7012 H   0  0  0  0  0  0  0  0  0  0  0  0
  139.4954   68.3256  227.1053 H   0  0  0  0  0  0  0  0  0  0  0  0
  140.3529   69.2990  229.1816 H   0  0  0  0  0  0  0  0  0  0  0  0
  141.4222   71.5685  229.2281 H   0  0  0  0  0  0  0  0  0  0  0  0
  141.5797   72.8000  227.0506 H   0  0  0  0  0  0  0  0  0  0  0  0
  1  2  2  0
  2  3  1  0
  3  4  1  0
  4  5  1  0
  5  6  2  0
  5  7  1  0
  7  8  1  0
  8  9  1  0
  9 10  1  0
 10 11  1  0
 11 12  1  0
 12 13  1  0
 13 14  2  0
 14 15  1  0
 15 16  2  0
 16 17  1  0
 17 18  1  0
 18 19  1  0
 18 20  1  0
 18 21  1  0
 16 22  1  0
 22 23  2  0
  2 24  1  0
 24 25  2  0
 25 26  1  0
 26 27  2  0
 27 28  1  0
 28 29  2  0
 29 30  1  0
 30 31  2  0
 31 32  1  0
 32 33  2  0
 12  7  1  0
 23 13  1  0
 33 24  1  0
 32 27  1  0
  3 34  1  0
  4 35  1  0
  4 36  1  0
  8 37  1  0
  8 38  1  0
  9 39  1  0
  9 40  1  0
 10 41  1  0
 10 42  1  0
 11 43  1  0
 11 44  1  0
 12 45  1  6
 14 46  1  0
 15 47  1  0
 22 48  1  0
 23 49  1  0
 25 50  1  0
 26 51  1  0
 28 52  1  0
 29 53  1  0
 30 54  1  0
 31 55  1  0
M  END
>  <smiles>  (84) 
O=C(NCC(=O)N1CCCCC1c1ccc(OC(F)(F)F)cc1)c1ccc2ccccc2n1

>  <score_type>  (84) 
oracle

>  <origin>  (84) 
autodockgpu

>  <m_score__min__energy>  (84) 
-8.6099999999999994

>  <m_primary>  (84) 
energy

>  <rmsd>  (84) 
2.2084782808180874

>  <m_score__min__rmsd>  (84) 
2.2084782808180874

>  <meeko>  (84) 
{"free_energy": -7.4, "intermolecular_energy": -9.49, "internal_energy": -2.03, "cluster_size": 9, "cluster_id": 2, "rank_in_cluster": 7}

>  <energy>  (84) 
-6.81

>  <cluster_rmsd>  (84) 
0.13

>  <cluster>  (84) 
5

$$$$

     RDKit          3D

 55 58  0  0  0  0  0  0  0  0999 V2000
  136.6590   77.5370  222.2630 O   0  0  0  0  0  0  0  0  0  0  0  0
  136.8170   76.3780  222.7760 C   0  0  0  0  0  0  0  0  0  0  0  0
  137.9550   75.5940  222.3900 N   0  0  0  0  0  0  0  0  0  0  0  0
  138.9500   76.0010  221.4720 C   0  0  0  0  0  0  0  0  0  0  0  0
  140.2900   75.4290  221.5370 C   0  0  0  0  0  0  0  0  0  0  0  0
  140.3580   74.3540  222.2800 O   0  0  0  0  0  0  0  0  0  0  0  0
  141.4960   75.8180  220.9610 N   0  0  0  0  0  0  0  0  0  0  0  0
  142.5490   74.9130  220.4700 C   0  0  0  0  0  0  0  0  0  0  0  0
  143.2090   75.5590  219.2500 C   0  0  0  0  0  0  0  0  0  0  0  0
  142.2630   76.4630  218.5200 C   0  0  0  0  0  0  0  0  0  0  0  0
  141.6150   77.5250  219.3370 C   0  0  0  0  0  0  0  0  0  0  0  0
  141.8290   77.2320  220.7790 C   0  0  1  0  0  0  0  0  0  0  0  0
  141.1870   78.1450  221.7210 C   0  0  0  0  0  0  0  0  0  0  0  0
  141.4500   78.2420  223.0590 C   0  0  0  0  0  0  0  0  0  0  0  0
  140.8110   79.1250  223.9050 C   0  0  0  0  0  0  0  0  0  0  0  0
  139.8490   79.9660  223.3850 C   0  0  0  0  0  0  0  0  0  0  0  0
  139.1680   80.8780  224.1780 O   0  0  0  0  0  0  0  0  0  0  0  0
  137.7840   80.8990  224.3800 C   0  0  0  0  0  0  0  0  0  0  0  0
  137.2910   79.7090  223.8390 F   0  0  0  0  0  0  0  0  0  0  0  0
  137.4760   80.9490  225.7050 F   0  0  0  0  0  0  0  0  0  0  0  0
  137.1670   81.9020  223.6310 F   0  0  0  0  0  0  0  0  0  0  0  0
  139.5450   79.9070  222.0330 C   0  0  0  0  0  0  0  0  0  0  0  0
  140.2090   79.0060  221.2170 C   0  0  0  0  0  0  0  0  0  0  0  0
  135.8510   75.8440  223.7520 C   0  0  0  0  0  0  0  0  0  0  0  0
  135.0410   76.7410  224.4150 C   0  0  0  0  0  0  0  0  0  0  0  0
  134.1300   76.2370  225.3350 C   0  0  0  0  0  0  0  0  0  0  0  0
  134.0470   74.8690  225.5720 C   0  0  0  0  0  0  0  0  0  0  0  0
  133.1550   74.3470  226.4760 C   0  0  0  0  0  0  0  0  0  0  0  0
  133.1040   72.9930  226.6800 C   0  0  0  0  0  0  0  0  0  0  0  0
  133.9310   72.0960  226.0020 C   0  0  0  0  0  0  0  0  0  0  0  0
  134.8170   72.6640  225.0980 C   0  0  0  0  0  0  0  0  0  0  0  0
  134.8730   74.0170  224.8880 C   0  0  0  0  0  0  0  0  0  0  0  0
  135.7530   74.5280  223.9960 N   0  0  0  0  0  0  0  0  0  0  0  0
  138.0160   74.6440  222.8520 H   0  0  0  0  0  0  0  0  0  0  0  0
  138.5612   75.7816  220.4667 H   0  0  0  0  0  0  0  0  0  0  0  0
  139.1161   77.0559  221.7358 H   0  0  0  0  0  0  0  0  0  0  0  0
  143.2997   74.7540  221.2581 H   0  0  0  0  0  0  0  0  0  0  0  0
  142.1144   73.9407  220.1947 H   0  0  0  0  0  0  0  0  0  0  0  0
  144.0770   76.1465  219.5839 H   0  0  0  0  0  0  0  0  0  0  0  0
  143.5157   74.7573  218.5622 H   0  0  0  0  0  0  0  0  0  0  0  0
  142.8238   76.9551  217.7117 H   0  0  0  0  0  0  0  0  0  0  0  0
  141.4446   75.8164  218.1706 H   0  0  0  0  0  0  0  0  0  0  0  0
  142.0584   78.5009  219.0902 H   0  0  0  0  0  0  0  0  0  0  0  0
  140.5367   77.5506  219.1213 H   0  0  0  0  0  0  0  0  0  0  0  0
  142.8814   77.4184  221.0392 H   0  0  0  0  0  0  0  0  0  0  0  0
  142.2155   77.5775  223.4860 H   0  0  0  0  0  0  0  0  0  0  0  0
  141.0641   79.1578  224.9750 H   0  0  0  0  0  0  0  0  0  0  0  0
  138.7790   80.5736  221.6101 H   0  0  0  0  0  0  0  0  0  0  0  0
  139.9603   78.9674  220.1462 H   0  0  0  0  0  0  0  0  0  0  0  0
  135.1136   77.8215  224.2218 H   0  0  0  0  0  0  0  0  0  0  0  0
  133.4686   76.9260  225.8808 H   0  0  0  0  0  0  0  0  0  0  0  0
  132.4828   75.0144  227.0352 H   0  0  0  0  0  0  0  0  0  0  0  0
  132.3813   72.5965  227.4083 H   0  0  0  0  0  0  0  0  0  0  0  0
  133.8834   71.0104  226.1731 H   0  0  0  0  0  0  0  0  0  0  0  0
  135.4953   72.0082  224.5325 H   0  0  0  0  0  0  0  0  0  0  0  0
  1  2  2  0
  2  3  1  0
  3  4  1  0
  4  5  1  0
  5  6  2  0
  5  7  1  0
  7  8  1  0
  8  9  1  0
  9 10  1  0
 10 11  1  0
 11 12  1  0
 12 13  1  0
 13 14  2  0
 14 15  1  0
 15 16  2  0
 16 17  1  0
 17 18  1  0
 18 19  1  0
 18 20  1  0
 18 21  1  0
 16 22  1  0
 22 23  2  0
  2 24  1  0
 24 25  2  0
 25 26  1  0
 26 27  2  0
 27 28  1  0
 28 29  2  0
 29 30  1  0
 30 31  2  0
 31 32  1  0
 32 33  2  0
 12  7  1  0
 23 13  1  0
 33 24  1  0
 32 27  1  0
  3 34  1  0
  4 35  1  0
  4 36  1  0
  8 37  1  0
  8 38  1  0
  9 39  1  0
  9 40  1  0
 10 41  1  0
 10 42  1  0
 11 43  1  0
 11 44  1  0
 12 45  1  6
 14 46  1  0
 15 47  1  0
 22 48  1  0
 23 49  1  0
 25 50  1  0
 26 51  1  0
 28 52  1  0
 29 53  1  0
 30 54  1  0
 31 55  1  0
M  END
>  <smiles>  (85) 
O=C(NCC(=O)N1CCCCC1c1ccc(OC(F)(F)F)cc1)c1ccc2ccccc2n1

>  <score_type>  (85) 
oracle

>  <origin>  (85) 
autodockgpu

>  <m_score__min__energy>  (85) 
-8.6099999999999994

>  <m_primary>  (85) 
energy

>  <rmsd>  (85) 
5.768422679695903

>  <m_score__min__rmsd>  (85) 
5.768422679695903

>  <meeko>  (85) 
{"free_energy": -7.01, "intermolecular_energy": -9.1, "internal_energy": -2.37, "cluster_size": 4, "cluster_id": 4, "rank_in_cluster": 3}

>  <energy>  (85) 
-6.78

>  <cluster_rmsd>  (85) 
0.16

>  <cluster>  (85) 
5

$$$$

     RDKit          3D

 55 58  0  0  0  0  0  0  0  0999 V2000
  138.9570   75.3610  221.5220 O   0  0  0  0  0  0  0  0  0  0  0  0
  140.1020   75.8340  221.8330 C   0  0  0  0  0  0  0  0  0  0  0  0
  141.2620   75.0010  221.6930 N   0  0  0  0  0  0  0  0  0  0  0  0
  141.2550   73.6690  221.2210 C   0  0  0  0  0  0  0  0  0  0  0  0
  142.1130   73.2780  220.1080 C   0  0  0  0  0  0  0  0  0  0  0  0
  141.4460   72.9200  219.0420 O   0  0  0  0  0  0  0  0  0  0  0  0
  143.4980   73.2150  219.9800 N   0  0  0  0  0  0  0  0  0  0  0  0
  144.3800   72.2330  220.6340 C   0  0  0  0  0  0  0  0  0  0  0  0
  145.5430   71.9260  219.6870 C   0  0  0  0  0  0  0  0  0  0  0  0
  145.1530   72.1040  218.2510 C   0  0  0  0  0  0  0  0  0  0  0  0
  144.5740   73.4280  217.8920 C   0  0  0  0  0  0  0  0  0  0  0  0
  144.2260   74.1630  219.1370 C   0  0  1  0  0  0  0  0  0  0  0  0
  143.5750   75.4570  218.9550 C   0  0  0  0  0  0  0  0  0  0  0  0
  143.1870   76.3140  219.9480 C   0  0  0  0  0  0  0  0  0  0  0  0
  142.5730   77.5270  219.7190 C   0  0  0  0  0  0  0  0  0  0  0  0
  142.3290   77.9130  218.4170 C   0  0  0  0  0  0  0  0  0  0  0  0
  141.7150   79.1210  218.1140 O   0  0  0  0  0  0  0  0  0  0  0  0
  141.1590   80.0020  219.0480 C   0  0  0  0  0  0  0  0  0  0  0  0
  140.6450   81.0760  218.3170 F   0  0  0  0  0  0  0  0  0  0  0  0
  140.1520   79.4140  219.7480 F   0  0  0  0  0  0  0  0  0  0  0  0
  142.1370   80.5740  219.8630 F   0  0  0  0  0  0  0  0  0  0  0  0
  142.7020   77.0800  217.3730 C   0  0  0  0  0  0  0  0  0  0  0  0
  143.3170   75.8700  217.6450 C   0  0  0  0  0  0  0  0  0  0  0  0
  140.2410   77.2140  222.3310 C   0  0  0  0  0  0  0  0  0  0  0  0
  139.0900   77.9130  222.6220 C   0  0  0  0  0  0  0  0  0  0  0  0
  139.2210   79.2150  223.0920 C   0  0  0  0  0  0  0  0  0  0  0  0
  140.4790   79.7830  223.2600 C   0  0  0  0  0  0  0  0  0  0  0  0
  140.6350   81.0660  223.7220 C   0  0  0  0  0  0  0  0  0  0  0  0
  141.8920   81.5890  223.8730 C   0  0  0  0  0  0  0  0  0  0  0  0
  143.0500   80.8690  223.5740 C   0  0  0  0  0  0  0  0  0  0  0  0
  142.8480   79.5770  223.1100 C   0  0  0  0  0  0  0  0  0  0  0  0
  141.5940   79.0470  222.9570 C   0  0  0  0  0  0  0  0  0  0  0  0
  141.4450   77.7820  222.5010 N   0  0  0  0  0  0  0  0  0  0  0  0
  142.1730   75.4600  221.9760 H   0  0  0  0  0  0  0  0  0  0  0  0
  141.5316   73.0303  222.0728 H   0  0  0  0  0  0  0  0  0  0  0  0
  140.2422   73.5564  220.8068 H   0  0  0  0  0  0  0  0  0  0  0  0
  144.7671   72.6497  221.5756 H   0  0  0  0  0  0  0  0  0  0  0  0
  143.8214   71.3125  220.8591 H   0  0  0  0  0  0  0  0  0  0  0  0
  146.3775   72.6050  219.9161 H   0  0  0  0  0  0  0  0  0  0  0  0
  145.8359   70.8760  219.8342 H   0  0  0  0  0  0  0  0  0  0  0  0
  146.0526   71.9521  217.6365 H   0  0  0  0  0  0  0  0  0  0  0  0
  144.3538   71.3708  218.0673 H   0  0  0  0  0  0  0  0  0  0  0  0
  145.3104   74.0077  217.3161 H   0  0  0  0  0  0  0  0  0  0  0  0
  143.6694   73.2831  217.2832 H   0  0  0  0  0  0  0  0  0  0  0  0
  145.1474   74.4955  219.6376 H   0  0  0  0  0  0  0  0  0  0  0  0
  143.3759   76.0180  220.9904 H   0  0  0  0  0  0  0  0  0  0  0  0
  142.2829   78.1753  220.5590 H   0  0  0  0  0  0  0  0  0  0  0  0
  142.5098   77.3797  216.3322 H   0  0  0  0  0  0  0  0  0  0  0  0
  143.6099   75.2174  216.8094 H   0  0  0  0  0  0  0  0  0  0  0  0
  138.0988   77.4556  222.4868 H   0  0  0  0  0  0  0  0  0  0  0  0
  138.3217   79.8008  223.3330 H   0  0  0  0  0  0  0  0  0  0  0  0
  139.7521   81.6732  223.9706 H   0  0  0  0  0  0  0  0  0  0  0  0
  141.9931   82.6191  224.2453 H   0  0  0  0  0  0  0  0  0  0  0  0
  144.0556   81.2973  223.6980 H   0  0  0  0  0  0  0  0  0  0  0  0
  143.7221   78.9590  222.8571 H   0  0  0  0  0  0  0  0  0  0  0  0
  1  2  2  0
  2  3  1  0
  3  4  1  0
  4  5  1  0
  5  6  2  0
  5  7  1  0
  7  8  1  0
  8  9  1  0
  9 10  1  0
 10 11  1  0
 11 12  1  0
 12 13  1  0
 13 14  2  0
 14 15  1  0
 15 16  2  0
 16 17  1  0
 17 18  1  0
 18 19  1  0
 18 20  1  0
 18 21  1  0
 16 22  1  0
 22 23  2  0
  2 24  1  0
 24 25  2  0
 25 26  1  0
 26 27  2  0
 27 28  1  0
 28 29  2  0
 29 30  1  0
 30 31  2  0
 31 32  1  0
 32 33  2  0
 12  7  1  0
 23 13  1  0
 33 24  1  0
 32 27  1  0
  3 34  1  0
  4 35  1  0
  4 36  1  0
  8 37  1  0
  8 38  1  0
  9 39  1  0
  9 40  1  0
 10 41  1  0
 10 42  1  0
 11 43  1  0
 11 44  1  0
 12 45  1  1
 14 46  1  0
 15 47  1  0
 22 48  1  0
 23 49  1  0
 25 50  1  0
 26 51  1  0
 28 52  1  0
 29 53  1  0
 30 54  1  0
 31 55  1  0
M  END
>  <smiles>  (86) 
O=C(NCC(=O)N1CCCCC1c1ccc(OC(F)(F)F)cc1)c1ccc2ccccc2n1

>  <score_type>  (86) 
oracle

>  <origin>  (86) 
autodockgpu

>  <m_score__min__energy>  (86) 
-8.6099999999999994

>  <m_primary>  (86) 
energy

>  <rmsd>  (86) 
7.7712471708043855

>  <m_score__min__rmsd>  (86) 
7.7712471708043855

>  <meeko>  (86) 
{"free_energy": -6.75, "intermolecular_energy": -8.84, "internal_energy": -2.83, "cluster_size": 17, "cluster_id": 5, "rank_in_cluster": 5}

>  <energy>  (86) 
-6.78

>  <cluster_rmsd>  (86) 
0.16

>  <cluster>  (86) 
5

$$$$

     RDKit          3D

 55 58  0  0  0  0  0  0  0  0999 V2000
  139.5720   70.7830  221.2000 O   0  0  0  0  0  0  0  0  0  0  0  0
  139.9260   71.4430  222.2330 C   0  0  0  0  0  0  0  0  0  0  0  0
  140.3180   72.8150  222.0840 N   0  0  0  0  0  0  0  0  0  0  0  0
  140.3440   73.5260  220.8630 C   0  0  0  0  0  0  0  0  0  0  0  0
  140.7600   74.9240  220.8330 C   0  0  0  0  0  0  0  0  0  0  0  0
  141.1160   75.3820  222.0050 O   0  0  0  0  0  0  0  0  0  0  0  0
  140.8420   75.8470  219.7940 N   0  0  0  0  0  0  0  0  0  0  0  0
  139.7140   76.5940  219.2130 C   0  0  0  0  0  0  0  0  0  0  0  0
  140.2170   77.9780  218.7980 C   0  0  0  0  0  0  0  0  0  0  0  0
  141.3700   78.4270  219.6410 C   0  0  0  0  0  0  0  0  0  0  0  0
  142.5280   77.4940  219.7120 C   0  0  0  0  0  0  0  0  0  0  0  0
  142.1240   76.1710  219.1670 C   0  0  1  0  0  0  0  0  0  0  0  0
  143.1320   75.1160  219.2350 C   0  0  0  0  0  0  0  0  0  0  0  0
  143.9650   74.8610  220.2890 C   0  0  0  0  0  0  0  0  0  0  0  0
  144.9020   73.8480  220.2990 C   0  0  0  0  0  0  0  0  0  0  0  0
  145.0150   73.0370  219.1880 C   0  0  0  0  0  0  0  0  0  0  0  0
  145.9360   71.9990  219.1310 O   0  0  0  0  0  0  0  0  0  0  0  0
  145.6190   70.6450  218.9830 C   0  0  0  0  0  0  0  0  0  0  0  0
  145.3180   70.4580  217.6310 F   0  0  0  0  0  0  0  0  0  0  0  0
  146.6690   69.8490  219.3220 F   0  0  0  0  0  0  0  0  0  0  0  0
  144.4390   70.3150  219.6490 F   0  0  0  0  0  0  0  0  0  0  0  0
  144.1940   73.2550  218.0920 C   0  0  0  0  0  0  0  0  0  0  0  0
  143.2660   74.2820  218.1220 C   0  0  0  0  0  0  0  0  0  0  0  0
  139.9340   70.8150  223.5670 C   0  0  0  0  0  0  0  0  0  0  0  0
  139.3960   69.5520  223.6880 C   0  0  0  0  0  0  0  0  0  0  0  0
  139.4040   68.9600  224.9450 C   0  0  0  0  0  0  0  0  0  0  0  0
  139.9420   69.6300  226.0390 C   0  0  0  0  0  0  0  0  0  0  0  0
  139.9620   69.0660  227.2910 C   0  0  0  0  0  0  0  0  0  0  0  0
  140.5000   69.7590  228.3420 C   0  0  0  0  0  0  0  0  0  0  0  0
  141.0410   71.0380  228.2060 C   0  0  0  0  0  0  0  0  0  0  0  0
  141.0020   71.5710  226.9260 C   0  0  0  0  0  0  0  0  0  0  0  0
  140.4660   70.8830  225.8680 C   0  0  0  0  0  0  0  0  0  0  0  0
  140.4470   71.4430  224.6360 N   0  0  0  0  0  0  0  0  0  0  0  0
  140.6030   73.2940  222.9840 H   0  0  0  0  0  0  0  0  0  0  0  0
  141.0246   72.9794  220.1936 H   0  0  0  0  0  0  0  0  0  0  0  0
  139.2819   73.5761  220.5812 H   0  0  0  0  0  0  0  0  0  0  0  0
  139.3278   76.0593  218.3327 H   0  0  0  0  0  0  0  0  0  0  0  0
  138.9036   76.6908  219.9505 H   0  0  0  0  0  0  0  0  0  0  0  0
  140.5384   77.9394  217.7467 H   0  0  0  0  0  0  0  0  0  0  0  0
  139.3944   78.6955  218.9342 H   0  0  0  0  0  0  0  0  0  0  0  0
  141.7322   79.3828  219.2345 H   0  0  0  0  0  0  0  0  0  0  0  0
  140.9793   78.4938  220.6671 H   0  0  0  0  0  0  0  0  0  0  0  0
  143.3621   77.8971  219.1189 H   0  0  0  0  0  0  0  0  0  0  0  0
  142.8477   77.3807  220.7584 H   0  0  0  0  0  0  0  0  0  0  0  0
  142.0127   76.2408  218.0749 H   0  0  0  0  0  0  0  0  0  0  0  0
  143.8835   75.5003  221.1804 H   0  0  0  0  0  0  0  0  0  0  0  0
  145.5468   73.6898  221.1761 H   0  0  0  0  0  0  0  0  0  0  0  0
  144.2797   72.6143  217.2020 H   0  0  0  0  0  0  0  0  0  0  0  0
  142.6183   74.4454  217.2481 H   0  0  0  0  0  0  0  0  0  0  0  0
  138.9737   69.0292  222.8172 H   0  0  0  0  0  0  0  0  0  0  0  0
  138.9813   67.9530  225.0762 H   0  0  0  0  0  0  0  0  0  0  0  0
  139.5467   68.0597  227.4490 H   0  0  0  0  0  0  0  0  0  0  0  0
  140.5060   69.2875  229.3358 H   0  0  0  0  0  0  0  0  0  0  0  0
  141.4699   71.5871  229.0572 H   0  0  0  0  0  0  0  0  0  0  0  0
  141.4137   72.5765  226.7544 H   0  0  0  0  0  0  0  0  0  0  0  0
  1  2  2  0
  2  3  1  0
  3  4  1  0
  4  5  1  0
  5  6  2  0
  5  7  1  0
  7  8  1  0
  8  9  1  0
  9 10  1  0
 10 11  1  0
 11 12  1  0
 12 13  1  0
 13 14  2  0
 14 15  1  0
 15 16  2  0
 16 17  1  0
 17 18  1  0
 18 19  1  0
 18 20  1  0
 18 21  1  0
 16 22  1  0
 22 23  2  0
  2 24  1  0
 24 25  2  0
 25 26  1  0
 26 27  2  0
 27 28  1  0
 28 29  2  0
 29 30  1  0
 30 31  2  0
 31 32  1  0
 32 33  2  0
 12  7  1  0
 23 13  1  0
 33 24  1  0
 32 27  1  0
  3 34  1  0
  4 35  1  0
  4 36  1  0
  8 37  1  0
  8 38  1  0
  9 39  1  0
  9 40  1  0
 10 41  1  0
 10 42  1  0
 11 43  1  0
 11 44  1  0
 12 45  1  6
 14 46  1  0
 15 47  1  0
 22 48  1  0
 23 49  1  0
 25 50  1  0
 26 51  1  0
 28 52  1  0
 29 53  1  0
 30 54  1  0
 31 55  1  0
M  END
>  <smiles>  (87) 
O=C(NCC(=O)N1CCCCC1c1ccc(OC(F)(F)F)cc1)c1ccc2ccccc2n1

>  <score_type>  (87) 
oracle

>  <origin>  (87) 
autodockgpu

>  <m_score__min__energy>  (87) 
-8.6099999999999994

>  <m_primary>  (87) 
energy

>  <rmsd>  (87) 
1.8427806897576717

>  <m_score__min__rmsd>  (87) 
1.8427806897576717

>  <meeko>  (87) 
{"free_energy": -7.72, "intermolecular_energy": -9.81, "internal_energy": -2.19, "cluster_size": 9, "cluster_id": 2, "rank_in_cluster": 3}

>  <energy>  (87) 
-6.75

>  <cluster_rmsd>  (87) 
0.39

>  <cluster>  (87) 
5

$$$$

     RDKit          3D

 55 58  0  0  0  0  0  0  0  0999 V2000
  136.7280   77.5020  222.5510 O   0  0  0  0  0  0  0  0  0  0  0  0
  136.8330   76.2850  222.9220 C   0  0  0  0  0  0  0  0  0  0  0  0
  137.9150   75.4920  222.4140 N   0  0  0  0  0  0  0  0  0  0  0  0
  138.9090   75.9490  221.5200 C   0  0  0  0  0  0  0  0  0  0  0  0
  140.2570   75.3930  221.5700 C   0  0  0  0  0  0  0  0  0  0  0  0
  140.3480   74.3270  222.3230 O   0  0  0  0  0  0  0  0  0  0  0  0
  141.4490   75.7900  220.9710 N   0  0  0  0  0  0  0  0  0  0  0  0
  142.5010   74.8920  220.4640 C   0  0  0  0  0  0  0  0  0  0  0  0
  143.1330   75.5410  219.2310 C   0  0  0  0  0  0  0  0  0  0  0  0
  142.1670   76.4350  218.5160 C   0  0  0  0  0  0  0  0  0  0  0  0
  141.5250   77.4940  219.3420 C   0  0  0  0  0  0  0  0  0  0  0  0
  141.7670   77.2060  220.7810 C   0  0  1  0  0  0  0  0  0  0  0  0
  141.1350   78.1160  221.7310 C   0  0  0  0  0  0  0  0  0  0  0  0
  141.4480   78.2460  223.0560 C   0  0  0  0  0  0  0  0  0  0  0  0
  140.8160   79.1250  223.9120 C   0  0  0  0  0  0  0  0  0  0  0  0
  139.8080   79.9260  223.4160 C   0  0  0  0  0  0  0  0  0  0  0  0
  139.1310   80.8320  224.2210 O   0  0  0  0  0  0  0  0  0  0  0  0
  137.7440   80.8800  224.3930 C   0  0  0  0  0  0  0  0  0  0  0  0
  137.3020   82.0150  223.7070 F   0  0  0  0  0  0  0  0  0  0  0  0
  137.1390   79.7780  223.8710 F   0  0  0  0  0  0  0  0  0  0  0  0
  137.3960   81.1230  225.7220 F   0  0  0  0  0  0  0  0  0  0  0  0
  139.4530   79.8330  222.0790 C   0  0  0  0  0  0  0  0  0  0  0  0
  140.1120   78.9380  221.2530 C   0  0  0  0  0  0  0  0  0  0  0  0
  135.8610   75.6930  223.8590 C   0  0  0  0  0  0  0  0  0  0  0  0
  135.0340   76.5480  224.5550 C   0  0  0  0  0  0  0  0  0  0  0  0
  134.1180   75.9900  225.4380 C   0  0  0  0  0  0  0  0  0  0  0  0
  134.0470   74.6110  225.6070 C   0  0  0  0  0  0  0  0  0  0  0  0
  133.1500   74.0360  226.4730 C   0  0  0  0  0  0  0  0  0  0  0  0
  133.1120   72.6740  226.6100 C   0  0  0  0  0  0  0  0  0  0  0  0
  133.9570   71.8200  225.9000 C   0  0  0  0  0  0  0  0  0  0  0  0
  134.8470   72.4410  225.0350 C   0  0  0  0  0  0  0  0  0  0  0  0
  134.8900   73.8030  224.8920 C   0  0  0  0  0  0  0  0  0  0  0  0
  135.7760   74.3660  224.0370 N   0  0  0  0  0  0  0  0  0  0  0  0
  137.9320   74.4930  222.7630 H   0  0  0  0  0  0  0  0  0  0  0  0
  138.5289   75.7653  220.5042 H   0  0  0  0  0  0  0  0  0  0  0  0
  139.0591   76.9944  221.8275 H   0  0  0  0  0  0  0  0  0  0  0  0
  143.2670   74.7415  221.2390 H   0  0  0  0  0  0  0  0  0  0  0  0
  142.0704   73.9149  220.1995 H   0  0  0  0  0  0  0  0  0  0  0  0
  144.0017   76.1367  219.5480 H   0  0  0  0  0  0  0  0  0  0  0  0
  143.4338   74.7402  218.5395 H   0  0  0  0  0  0  0  0  0  0  0  0
  142.7092   76.9295  217.6966 H   0  0  0  0  0  0  0  0  0  0  0  0
  141.3478   75.7808  218.1829 H   0  0  0  0  0  0  0  0  0  0  0  0
  141.9562   78.4728  219.0851 H   0  0  0  0  0  0  0  0  0  0  0  0
  140.4428   77.5107  219.1454 H   0  0  0  0  0  0  0  0  0  0  0  0
  142.8221   77.4010  221.0234 H   0  0  0  0  0  0  0  0  0  0  0  0
  142.2502   77.6131  223.4632 H   0  0  0  0  0  0  0  0  0  0  0  0
  141.1105   79.1858  224.9701 H   0  0  0  0  0  0  0  0  0  0  0  0
  138.6505   80.4681  221.6757 H   0  0  0  0  0  0  0  0  0  0  0  0
  139.8225   78.8728  220.1938 H   0  0  0  0  0  0  0  0  0  0  0  0
  135.0972   77.6373  224.4158 H   0  0  0  0  0  0  0  0  0  0  0  0
  133.4428   76.6445  226.0087 H   0  0  0  0  0  0  0  0  0  0  0  0
  132.4634   74.6680  227.0555 H   0  0  0  0  0  0  0  0  0  0  0  0
  132.3850   72.2347  227.3089 H   0  0  0  0  0  0  0  0  0  0  0  0
  133.9201   70.7270  226.0181 H   0  0  0  0  0  0  0  0  0  0  0  0
  135.5390   71.8209  224.4463 H   0  0  0  0  0  0  0  0  0  0  0  0
  1  2  2  0
  2  3  1  0
  3  4  1  0
  4  5  1  0
  5  6  2  0
  5  7  1  0
  7  8  1  0
  8  9  1  0
  9 10  1  0
 10 11  1  0
 11 12  1  0
 12 13  1  0
 13 14  2  0
 14 15  1  0
 15 16  2  0
 16 17  1  0
 17 18  1  0
 18 19  1  0
 18 20  1  0
 18 21  1  0
 16 22  1  0
 22 23  2  0
  2 24  1  0
 24 25  2  0
 25 26  1  0
 26 27  2  0
 27 28  1  0
 28 29  2  0
 29 30  1  0
 30 31  2  0
 31 32  1  0
 32 33  2  0
 12  7  1  0
 23 13  1  0
 33 24  1  0
 32 27  1  0
  3 34  1  0
  4 35  1  0
  4 36  1  0
  8 37  1  0
  8 38  1  0
  9 39  1  0
  9 40  1  0
 10 41  1  0
 10 42  1  0
 11 43  1  0
 11 44  1  0
 12 45  1  6
 14 46  1  0
 15 47  1  0
 22 48  1  0
 23 49  1  0
 25 50  1  0
 26 51  1  0
 28 52  1  0
 29 53  1  0
 30 54  1  0
 31 55  1  0
M  END
>  <smiles>  (88) 
O=C(NCC(=O)N1CCCCC1c1ccc(OC(F)(F)F)cc1)c1ccc2ccccc2n1

>  <score_type>  (88) 
oracle

>  <origin>  (88) 
autodockgpu

>  <m_score__min__energy>  (88) 
-8.6099999999999994

>  <m_primary>  (88) 
energy

>  <rmsd>  (88) 
5.679379563601938

>  <m_score__min__rmsd>  (88) 
5.679379563601938

>  <meeko>  (88) 
{"free_energy": -7.06, "intermolecular_energy": -9.15, "internal_energy": -2.34, "cluster_size": 4, "cluster_id": 4, "rank_in_cluster": 1}

>  <energy>  (88) 
-6.68

>  <cluster_rmsd>  (88) 
0.18

>  <cluster>  (88) 
5

$$$$

     RDKit          3D

 55 58  0  0  0  0  0  0  0  0999 V2000
  138.9300   75.1510  221.6970 O   0  0  0  0  0  0  0  0  0  0  0  0
  140.0800   75.6620  221.9080 C   0  0  0  0  0  0  0  0  0  0  0  0
  141.2490   74.8500  221.7260 N   0  0  0  0  0  0  0  0  0  0  0  0
  141.2440   73.4970  221.3150 C   0  0  0  0  0  0  0  0  0  0  0  0
  142.1280   73.0500  220.2450 C   0  0  0  0  0  0  0  0  0  0  0  0
  141.5050   72.4000  219.2970 O   0  0  0  0  0  0  0  0  0  0  0  0
  143.5010   73.1860  220.0560 N   0  0  0  0  0  0  0  0  0  0  0  0
  144.5460   72.3850  220.7150 C   0  0  0  0  0  0  0  0  0  0  0  0
  145.7040   72.2020  219.7320 C   0  0  0  0  0  0  0  0  0  0  0  0
  145.2370   72.2390  218.3090 C   0  0  0  0  0  0  0  0  0  0  0  0
  144.4510   73.4400  217.9130 C   0  0  0  0  0  0  0  0  0  0  0  0
  144.0450   74.1840  219.1340 C   0  0  1  0  0  0  0  0  0  0  0  0
  143.1990   75.3540  218.9190 C   0  0  0  0  0  0  0  0  0  0  0  0
  142.3080   75.5310  217.8960 C   0  0  0  0  0  0  0  0  0  0  0  0
  141.5330   76.6610  217.7400 C   0  0  0  0  0  0  0  0  0  0  0  0
  141.6500   77.6810  218.6630 C   0  0  0  0  0  0  0  0  0  0  0  0
  140.9000   78.8450  218.5670 O   0  0  0  0  0  0  0  0  0  0  0  0
  141.3760   80.1360  218.8170 C   0  0  0  0  0  0  0  0  0  0  0  0
  141.3550   80.3000  220.2040 F   0  0  0  0  0  0  0  0  0  0  0  0
  142.6510   80.2920  218.3670 F   0  0  0  0  0  0  0  0  0  0  0  0
  140.5000   81.1120  218.3400 F   0  0  0  0  0  0  0  0  0  0  0  0
  142.5390   77.5510  219.7190 C   0  0  0  0  0  0  0  0  0  0  0  0
  143.3000   76.4000  219.8400 C   0  0  0  0  0  0  0  0  0  0  0  0
  140.2180   77.0660  222.3340 C   0  0  0  0  0  0  0  0  0  0  0  0
  139.0650   77.7910  222.5470 C   0  0  0  0  0  0  0  0  0  0  0  0
  139.1950   79.1150  222.9490 C   0  0  0  0  0  0  0  0  0  0  0  0
  140.4530   79.6800  223.1270 C   0  0  0  0  0  0  0  0  0  0  0  0
  140.6070   80.9860  223.5240 C   0  0  0  0  0  0  0  0  0  0  0  0
  141.8640   81.5050  223.6880 C   0  0  0  0  0  0  0  0  0  0  0  0
  143.0240   80.7590  223.4670 C   0  0  0  0  0  0  0  0  0  0  0  0
  142.8240   79.4460  223.0680 C   0  0  0  0  0  0  0  0  0  0  0  0
  141.5700   78.9190  222.9030 C   0  0  0  0  0  0  0  0  0  0  0  0
  141.4210   77.6320  222.5120 N   0  0  0  0  0  0  0  0  0  0  0  0
  142.1650   75.3410  221.9260 H   0  0  0  0  0  0  0  0  0  0  0  0
  141.4927   72.8962  222.2022 H   0  0  0  0  0  0  0  0  0  0  0  0
  140.2417   73.3722  220.8792 H   0  0  0  0  0  0  0  0  0  0  0  0
  144.9018   72.9068  221.6156 H   0  0  0  0  0  0  0  0  0  0  0  0
  144.1421   71.4055  221.0107 H   0  0  0  0  0  0  0  0  0  0  0  0
  146.4345   73.0095  219.8881 H   0  0  0  0  0  0  0  0  0  0  0  0
  146.1575   71.2172  219.9175 H   0  0  0  0  0  0  0  0  0  0  0  0
  146.1249   72.1889  217.6616 H   0  0  0  0  0  0  0  0  0  0  0  0
  144.5519   71.3855  218.1985 H   0  0  0  0  0  0  0  0  0  0  0  0
  145.0683   74.0895  217.2749 H   0  0  0  0  0  0  0  0  0  0  0  0
  143.5553   73.1278  217.3560 H   0  0  0  0  0  0  0  0  0  0  0  0
  144.9242   74.6779  219.5733 H   0  0  0  0  0  0  0  0  0  0  0  0
  142.2037   74.7250  217.1547 H   0  0  0  0  0  0  0  0  0  0  0  0
  140.8340   76.7481  216.8951 H   0  0  0  0  0  0  0  0  0  0  0  0
  142.6396   78.3593  220.4583 H   0  0  0  0  0  0  0  0  0  0  0  0
  144.0014   76.3070  220.6822 H   0  0  0  0  0  0  0  0  0  0  0  0
  138.0738   77.3361  222.4034 H   0  0  0  0  0  0  0  0  0  0  0  0
  138.2948   79.7213  223.1280 H   0  0  0  0  0  0  0  0  0  0  0  0
  139.7229   81.6136  223.7098 H   0  0  0  0  0  0  0  0  0  0  0  0
  141.9641   82.5529  224.0071 H   0  0  0  0  0  0  0  0  0  0  0  0
  144.0294   81.1847  223.6006 H   0  0  0  0  0  0  0  0  0  0  0  0
  143.6995   78.8076  222.8780 H   0  0  0  0  0  0  0  0  0  0  0  0
  1  2  2  0
  2  3  1  0
  3  4  1  0
  4  5  1  0
  5  6  2  0
  5  7  1  0
  7  8  1  0
  8  9  1  0
  9 10  1  0
 10 11  1  0
 11 12  1  0
 12 13  1  0
 13 14  2  0
 14 15  1  0
 15 16  2  0
 16 17  1  0
 17 18  1  0
 18 19  1  0
 18 20  1  0
 18 21  1  0
 16 22  1  0
 22 23  2  0
  2 24  1  0
 24 25  2  0
 25 26  1  0
 26 27  2  0
 27 28  1  0
 28 29  2  0
 29 30  1  0
 30 31  2  0
 31 32  1  0
 32 33  2  0
 12  7  1  0
 23 13  1  0
 33 24  1  0
 32 27  1  0
  3 34  1  0
  4 35  1  0
  4 36  1  0
  8 37  1  0
  8 38  1  0
  9 39  1  0
  9 40  1  0
 10 41  1  0
 10 42  1  0
 11 43  1  0
 11 44  1  0
 12 45  1  1
 14 46  1  0
 15 47  1  0
 22 48  1  0
 23 49  1  0
 25 50  1  0
 26 51  1  0
 28 52  1  0
 29 53  1  0
 30 54  1  0
 31 55  1  0
M  END
>  <smiles>  (89) 
O=C(NCC(=O)N1CCCCC1c1ccc(OC(F)(F)F)cc1)c1ccc2ccccc2n1

>  <score_type>  (89) 
oracle

>  <origin>  (89) 
autodockgpu

>  <m_score__min__energy>  (89) 
-8.6099999999999994

>  <m_primary>  (89) 
energy

>  <rmsd>  (89) 
7.717959316654045

>  <m_score__min__rmsd>  (89) 
7.717959316654045

>  <meeko>  (89) 
{"free_energy": -6.57, "intermolecular_energy": -8.65, "internal_energy": -3.09, "cluster_size": 17, "cluster_id": 5, "rank_in_cluster": 12}

>  <energy>  (89) 
-6.65

>  <cluster_rmsd>  (89) 
0.2

>  <cluster>  (89) 
5

$$$$

     RDKit          3D

 55 58  0  0  0  0  0  0  0  0999 V2000
  141.5890   72.0830  221.8650 O   0  0  0  0  0  0  0  0  0  0  0  0
  140.5720   72.2350  222.6210 C   0  0  0  0  0  0  0  0  0  0  0  0
  139.6930   73.3450  222.3920 N   0  0  0  0  0  0  0  0  0  0  0  0
  139.8500   74.3110  221.3720 C   0  0  0  0  0  0  0  0  0  0  0  0
  140.7100   75.4700  221.5820 C   0  0  0  0  0  0  0  0  0  0  0  0
  140.4330   76.1280  222.6780 O   0  0  0  0  0  0  0  0  0  0  0  0
  141.7580   75.9980  220.8310 N   0  0  0  0  0  0  0  0  0  0  0  0
  142.9100   75.2430  220.3100 C   0  0  0  0  0  0  0  0  0  0  0  0
  143.3120   75.8490  218.9630 C   0  0  0  0  0  0  0  0  0  0  0  0
  142.1450   76.4790  218.2660 C   0  0  0  0  0  0  0  0  0  0  0  0
  141.3900   77.4970  219.0480 C   0  0  0  0  0  0  0  0  0  0  0  0
  141.7970   77.4170  220.4760 C   0  0  1  0  0  0  0  0  0  0  0  0
  141.0890   78.3050  221.3940 C   0  0  0  0  0  0  0  0  0  0  0  0
  139.8130   78.7740  221.2420 C   0  0  0  0  0  0  0  0  0  0  0  0
  139.1930   79.6140  222.1430 C   0  0  0  0  0  0  0  0  0  0  0  0
  139.8870   80.0130  223.2670 C   0  0  0  0  0  0  0  0  0  0  0  0
  139.3230   80.8570  224.2150 O   0  0  0  0  0  0  0  0  0  0  0  0
  137.9520   81.0100  224.4470 C   0  0  0  0  0  0  0  0  0  0  0  0
  137.5110   81.9920  223.5560 F   0  0  0  0  0  0  0  0  0  0  0  0
  137.2760   79.8540  224.2100 F   0  0  0  0  0  0  0  0  0  0  0  0
  137.6990   81.5490  225.7090 F   0  0  0  0  0  0  0  0  0  0  0  0
  141.1840   79.5660  223.4670 C   0  0  0  0  0  0  0  0  0  0  0  0
  141.7720   78.7230  222.5390 C   0  0  0  0  0  0  0  0  0  0  0  0
  140.2950   71.2890  223.7160 C   0  0  0  0  0  0  0  0  0  0  0  0
  139.5780   70.1500  223.4190 C   0  0  0  0  0  0  0  0  0  0  0  0
  139.3170   69.2580  224.4520 C   0  0  0  0  0  0  0  0  0  0  0  0
  139.7690   69.5170  225.7420 C   0  0  0  0  0  0  0  0  0  0  0  0
  139.5240   68.6510  226.7790 C   0  0  0  0  0  0  0  0  0  0  0  0
  139.9870   68.9430  228.0340 C   0  0  0  0  0  0  0  0  0  0  0  0
  140.7110   70.1010  228.3220 C   0  0  0  0  0  0  0  0  0  0  0  0
  140.9370   70.9480  227.2470 C   0  0  0  0  0  0  0  0  0  0  0  0
  140.4780   70.6630  225.9880 C   0  0  0  0  0  0  0  0  0  0  0  0
  140.7210   71.5190  224.9680 N   0  0  0  0  0  0  0  0  0  0  0  0
  138.8750   73.4080  223.0620 H   0  0  0  0  0  0  0  0  0  0  0  0
  140.2436   73.7807  220.4923 H   0  0  0  0  0  0  0  0  0  0  0  0
  138.8470   74.7557  221.2930 H   0  0  0  0  0  0  0  0  0  0  0  0
  143.7510   75.3137  221.0155 H   0  0  0  0  0  0  0  0  0  0  0  0
  142.6433   74.1832  220.1845 H   0  0  0  0  0  0  0  0  0  0  0  0
  144.0817   76.6162  219.1332 H   0  0  0  0  0  0  0  0  0  0  0  0
  143.6953   75.0394  218.3245 H   0  0  0  0  0  0  0  0  0  0  0  0
  142.5204   76.9657  217.3538 H   0  0  0  0  0  0  0  0  0  0  0  0
  141.4338   75.6608  218.0793 H   0  0  0  0  0  0  0  0  0  0  0  0
  141.6132   78.5008  218.6575 H   0  0  0  0  0  0  0  0  0  0  0  0
  140.3105   77.3047  218.9600 H   0  0  0  0  0  0  0  0  0  0  0  0
  142.8154   77.8163  220.5915 H   0  0  0  0  0  0  0  0  0  0  0  0
  139.2492   78.4633  220.3500 H   0  0  0  0  0  0  0  0  0  0  0  0
  138.1634   79.9598  221.9688 H   0  0  0  0  0  0  0  0  0  0  0  0
  141.7443   79.8800  224.3600 H   0  0  0  0  0  0  0  0  0  0  0  0
  142.8015   78.3741  222.7073 H   0  0  0  0  0  0  0  0  0  0  0  0
  139.2235   69.9533  222.3964 H   0  0  0  0  0  0  0  0  0  0  0  0
  138.7480   68.3390  224.2480 H   0  0  0  0  0  0  0  0  0  0  0  0
  138.9572   67.7250  226.6020 H   0  0  0  0  0  0  0  0  0  0  0  0
  139.7796   68.2349  228.8499 H   0  0  0  0  0  0  0  0  0  0  0  0
  141.0779   70.3269  229.3341 H   0  0  0  0  0  0  0  0  0  0  0  0
  141.5023   71.8774  227.4104 H   0  0  0  0  0  0  0  0  0  0  0  0
  1  2  2  0
  2  3  1  0
  3  4  1  0
  4  5  1  0
  5  6  2  0
  5  7  1  0
  7  8  1  0
  8  9  1  0
  9 10  1  0
 10 11  1  0
 11 12  1  0
 12 13  1  0
 13 14  2  0
 14 15  1  0
 15 16  2  0
 16 17  1  0
 17 18  1  0
 18 19  1  0
 18 20  1  0
 18 21  1  0
 16 22  1  0
 22 23  2  0
  2 24  1  0
 24 25  2  0
 25 26  1  0
 26 27  2  0
 27 28  1  0
 28 29  2  0
 29 30  1  0
 30 31  2  0
 31 32  1  0
 32 33  2  0
 12  7  1  0
 23 13  1  0
 33 24  1  0
 32 27  1  0
  3 34  1  0
  4 35  1  0
  4 36  1  0
  8 37  1  0
  8 38  1  0
  9 39  1  0
  9 40  1  0
 10 41  1  0
 10 42  1  0
 11 43  1  0
 11 44  1  0
 12 45  1  6
 14 46  1  0
 15 47  1  0
 22 48  1  0
 23 49  1  0
 25 50  1  0
 26 51  1  0
 28 52  1  0
 29 53  1  0
 30 54  1  0
 31 55  1  0
M  END
>  <smiles>  (90) 
O=C(NCC(=O)N1CCCCC1c1ccc(OC(F)(F)F)cc1)c1ccc2ccccc2n1

>  <score_type>  (90) 
oracle

>  <origin>  (90) 
autodockgpu

>  <m_score__min__energy>  (90) 
-8.6099999999999994

>  <m_primary>  (90) 
energy

>  <rmsd>  (90) 
2.1011590243376372

>  <m_score__min__rmsd>  (90) 
2.1011590243376372

>  <meeko>  (90) 
{"free_energy": -8.53, "intermolecular_energy": -10.62, "internal_energy": -1.28, "cluster_size": 16, "cluster_id": 1, "rank_in_cluster": 3}

>  <energy>  (90) 
-6.62

>  <cluster_rmsd>  (90) 
0.83

>  <cluster>  (90) 
5

$$$$

     RDKit          3D

 55 58  0  0  0  0  0  0  0  0999 V2000
  140.0400   71.4690  221.0300 O   0  0  0  0  0  0  0  0  0  0  0  0
  139.8970   72.0630  222.1510 C   0  0  0  0  0  0  0  0  0  0  0  0
  139.6860   73.4820  222.1660 N   0  0  0  0  0  0  0  0  0  0  0  0
  139.6110   74.3060  221.0200 C   0  0  0  0  0  0  0  0  0  0  0  0
  140.7390   74.3900  220.0980 C   0  0  0  0  0  0  0  0  0  0  0  0
  140.3900   74.7200  218.8820 O   0  0  0  0  0  0  0  0  0  0  0  0
  142.1040   74.1820  220.2790 N   0  0  0  0  0  0  0  0  0  0  0  0
  142.7220   72.9850  220.8740 C   0  0  0  0  0  0  0  0  0  0  0  0
  144.0590   72.7350  220.1740 C   0  0  0  0  0  0  0  0  0  0  0  0
  144.0550   73.2490  218.7670 C   0  0  0  0  0  0  0  0  0  0  0  0
  143.6810   74.6800  218.5980 C   0  0  0  0  0  0  0  0  0  0  0  0
  143.0860   75.1840  219.8640 C   0  0  1  0  0  0  0  0  0  0  0  0
  142.5950   76.5590  219.8390 C   0  0  0  0  0  0  0  0  0  0  0  0
  141.8680   77.1750  220.8190 C   0  0  0  0  0  0  0  0  0  0  0  0
  141.4290   78.4810  220.7430 C   0  0  0  0  0  0  0  0  0  0  0  0
  141.7330   79.2200  219.6180 C   0  0  0  0  0  0  0  0  0  0  0  0
  141.3220   80.5380  219.4750 O   0  0  0  0  0  0  0  0  0  0  0  0
  140.9860   81.3980  220.5260 C   0  0  0  0  0  0  0  0  0  0  0  0
  141.0630   82.6950  220.0110 F   0  0  0  0  0  0  0  0  0  0  0  0
  139.7210   81.1680  220.9710 F   0  0  0  0  0  0  0  0  0  0  0  0
  141.9420   81.3720  221.5420 F   0  0  0  0  0  0  0  0  0  0  0  0
  142.4670   78.6410  218.5940 C   0  0  0  0  0  0  0  0  0  0  0  0
  142.8910   77.3270  218.7100 C   0  0  0  0  0  0  0  0  0  0  0  0
  139.9480   71.3120  223.4180 C   0  0  0  0  0  0  0  0  0  0  0  0
  139.4790   70.0160  223.4180 C   0  0  0  0  0  0  0  0  0  0  0  0
  139.5270   69.3080  224.6130 C   0  0  0  0  0  0  0  0  0  0  0  0
  140.0330   69.8990  225.7650 C   0  0  0  0  0  0  0  0  0  0  0  0
  140.0910   69.2200  226.9570 C   0  0  0  0  0  0  0  0  0  0  0  0
  140.5970   69.8370  228.0700 C   0  0  0  0  0  0  0  0  0  0  0  0
  141.0680   71.1510  228.0560 C   0  0  0  0  0  0  0  0  0  0  0  0
  140.9920   71.8010  226.8330 C   0  0  0  0  0  0  0  0  0  0  0  0
  140.4880   71.1900  225.7150 C   0  0  0  0  0  0  0  0  0  0  0  0
  140.4330   71.8620  224.5420 N   0  0  0  0  0  0  0  0  0  0  0  0
  139.5820   73.9040  223.1310 H   0  0  0  0  0  0  0  0  0  0  0  0
  138.7492   73.9544  220.4338 H   0  0  0  0  0  0  0  0  0  0  0  0
  139.5599   75.3195  221.4445 H   0  0  0  0  0  0  0  0  0  0  0  0
  142.8899   73.1486  221.9487 H   0  0  0  0  0  0  0  0  0  0  0  0
  142.0604   72.1152  220.7482 H   0  0  0  0  0  0  0  0  0  0  0  0
  144.8559   73.2434  220.7365 H   0  0  0  0  0  0  0  0  0  0  0  0
  144.2297   71.6488  220.1407 H   0  0  0  0  0  0  0  0  0  0  0  0
  145.0665   73.1144  218.3562 H   0  0  0  0  0  0  0  0  0  0  0  0
  143.2772   72.6744  218.2427 H   0  0  0  0  0  0  0  0  0  0  0  0
  144.5779   75.2680  218.3536 H   0  0  0  0  0  0  0  0  0  0  0  0
  142.9492   74.7763  217.7824 H   0  0  0  0  0  0  0  0  0  0  0  0
  143.8745   75.2907  220.6235 H   0  0  0  0  0  0  0  0  0  0  0  0
  141.6184   76.5961  221.7204 H   0  0  0  0  0  0  0  0  0  0  0  0
  140.8473   78.9249  221.5643 H   0  0  0  0  0  0  0  0  0  0  0  0
  142.7117   79.2226  217.6930 H   0  0  0  0  0  0  0  0  0  0  0  0
  143.4749   76.8775  217.8933 H   0  0  0  0  0  0  0  0  0  0  0  0
  139.0796   69.5568  222.5017 H   0  0  0  0  0  0  0  0  0  0  0  0
  139.1614   68.2711  224.6475 H   0  0  0  0  0  0  0  0  0  0  0  0
  139.7316   68.1821  227.0179 H   0  0  0  0  0  0  0  0  0  0  0  0
  140.6338   69.2738  229.0142 H   0  0  0  0  0  0  0  0  0  0  0  0
  141.4726   71.6386  228.9552 H   0  0  0  0  0  0  0  0  0  0  0  0
  141.3474   72.8393  226.7584 H   0  0  0  0  0  0  0  0  0  0  0  0
  1  2  2  0
  2  3  1  0
  3  4  1  0
  4  5  1  0
  5  6  2  0
  5  7  1  0
  7  8  1  0
  8  9  1  0
  9 10  1  0
 10 11  1  0
 11 12  1  0
 12 13  1  0
 13 14  2  0
 14 15  1  0
 15 16  2  0
 16 17  1  0
 17 18  1  0
 18 19  1  0
 18 20  1  0
 18 21  1  0
 16 22  1  0
 22 23  2  0
  2 24  1  0
 24 25  2  0
 25 26  1  0
 26 27  2  0
 27 28  1  0
 28 29  2  0
 29 30  1  0
 30 31  2  0
 31 32  1  0
 32 33  2  0
 12  7  1  0
 23 13  1  0
 33 24  1  0
 32 27  1  0
  3 34  1  0
  4 35  1  0
  4 36  1  0
  8 37  1  0
  8 38  1  0
  9 39  1  0
  9 40  1  0
 10 41  1  0
 10 42  1  0
 11 43  1  0
 11 44  1  0
 12 45  1  1
 14 46  1  0
 15 47  1  0
 22 48  1  0
 23 49  1  0
 25 50  1  0
 26 51  1  0
 28 52  1  0
 29 53  1  0
 30 54  1  0
 31 55  1  0
M  END
>  <smiles>  (91) 
O=C(NCC(=O)N1CCCCC1c1ccc(OC(F)(F)F)cc1)c1ccc2ccccc2n1

>  <score_type>  (91) 
oracle

>  <origin>  (91) 
autodockgpu

>  <m_score__min__energy>  (91) 
-8.6099999999999994

>  <m_primary>  (91) 
energy

>  <rmsd>  (91) 
2.751431897636029

>  <m_score__min__rmsd>  (91) 
2.751431897636029

>  <meeko>  (91) 
{"free_energy": -7.5, "intermolecular_energy": -9.59, "internal_energy": -1.81, "cluster_size": 3, "cluster_id": 3, "rank_in_cluster": 2}

>  <energy>  (91) 
-6.61

>  <cluster_rmsd>  (91) 
0.6

>  <cluster>  (91) 
5

$$$$

     RDKit          3D

 55 58  0  0  0  0  0  0  0  0999 V2000
  139.5490   70.6580  221.2140 O   0  0  0  0  0  0  0  0  0  0  0  0
  139.9000   71.3240  222.2450 C   0  0  0  0  0  0  0  0  0  0  0  0
  140.2880   72.6960  222.0900 N   0  0  0  0  0  0  0  0  0  0  0  0
  140.3100   73.4030  220.8650 C   0  0  0  0  0  0  0  0  0  0  0  0
  140.7500   74.7930  220.8250 C   0  0  0  0  0  0  0  0  0  0  0  0
  141.0670   75.2690  222.0010 O   0  0  0  0  0  0  0  0  0  0  0  0
  140.8880   75.6940  219.7720 N   0  0  0  0  0  0  0  0  0  0  0  0
  139.7920   76.4210  219.1110 C   0  0  0  0  0  0  0  0  0  0  0  0
  140.3120   77.7990  218.6950 C   0  0  0  0  0  0  0  0  0  0  0  0
  141.4130   78.2730  219.5930 C   0  0  0  0  0  0  0  0  0  0  0  0
  142.5690   77.3480  219.7510 C   0  0  0  0  0  0  0  0  0  0  0  0
  142.2030   76.0110  219.2130 C   0  0  1  0  0  0  0  0  0  0  0  0
  143.2090   74.9630  219.3610 C   0  0  0  0  0  0  0  0  0  0  0  0
  144.1810   74.9060  220.3220 C   0  0  0  0  0  0  0  0  0  0  0  0
  145.1090   73.8900  220.4150 C   0  0  0  0  0  0  0  0  0  0  0  0
  145.0660   72.8640  219.4940 C   0  0  0  0  0  0  0  0  0  0  0  0
  145.9690   71.8100  219.5290 O   0  0  0  0  0  0  0  0  0  0  0  0
  145.7550   70.5430  218.9760 C   0  0  0  0  0  0  0  0  0  0  0  0
  146.8330   69.7520  219.3800 F   0  0  0  0  0  0  0  0  0  0  0  0
  144.5980   69.9910  219.4310 F   0  0  0  0  0  0  0  0  0  0  0  0
  145.8450   70.5660  217.5830 F   0  0  0  0  0  0  0  0  0  0  0  0
  144.1000   72.8750  218.4990 C   0  0  0  0  0  0  0  0  0  0  0  0
  143.1860   73.9130  218.4400 C   0  0  0  0  0  0  0  0  0  0  0  0
  139.9120   70.7020  223.5810 C   0  0  0  0  0  0  0  0  0  0  0  0
  139.3790   69.4370  223.7070 C   0  0  0  0  0  0  0  0  0  0  0  0
  139.3900   68.8500  224.9670 C   0  0  0  0  0  0  0  0  0  0  0  0
  139.9250   69.5270  226.0580 C   0  0  0  0  0  0  0  0  0  0  0  0
  139.9470   68.9680  227.3120 C   0  0  0  0  0  0  0  0  0  0  0  0
  140.4820   69.6680  228.3610 C   0  0  0  0  0  0  0  0  0  0  0  0
  141.0180   70.9490  228.2190 C   0  0  0  0  0  0  0  0  0  0  0  0
  140.9760   71.4760  226.9360 C   0  0  0  0  0  0  0  0  0  0  0  0
  140.4430   70.7820  225.8820 C   0  0  0  0  0  0  0  0  0  0  0  0
  140.4220   71.3360  224.6470 N   0  0  0  0  0  0  0  0  0  0  0  0
  140.5720   73.1810  222.9870 H   0  0  0  0  0  0  0  0  0  0  0  0
  140.9718   72.8424  220.1884 H   0  0  0  0  0  0  0  0  0  0  0  0
  139.2453   73.4706  220.5970 H   0  0  0  0  0  0  0  0  0  0  0  0
  139.4597   75.8649  218.2220 H   0  0  0  0  0  0  0  0  0  0  0  0
  138.9399   76.5289  219.7982 H   0  0  0  0  0  0  0  0  0  0  0  0
  140.6935   77.7394  217.6650 H   0  0  0  0  0  0  0  0  0  0  0  0
  139.4797   78.5145  218.7679 H   0  0  0  0  0  0  0  0  0  0  0  0
  141.7939   79.2217  219.1869 H   0  0  0  0  0  0  0  0  0  0  0  0
  140.9636   78.3603  220.5932 H   0  0  0  0  0  0  0  0  0  0  0  0
  143.4342   77.7427  219.1981 H   0  0  0  0  0  0  0  0  0  0  0  0
  142.8281   77.2592  220.8164 H   0  0  0  0  0  0  0  0  0  0  0  0
  142.1554   76.0566  218.1150 H   0  0  0  0  0  0  0  0  0  0  0  0
  144.2249   75.7174  221.0634 H   0  0  0  0  0  0  0  0  0  0  0  0
  145.8698   73.8977  221.2094 H   0  0  0  0  0  0  0  0  0  0  0  0
  144.0602   72.0618  217.7593 H   0  0  0  0  0  0  0  0  0  0  0  0
  142.4225   73.9109  217.6481 H   0  0  0  0  0  0  0  0  0  0  0  0
  138.9585   68.9090  222.8384 H   0  0  0  0  0  0  0  0  0  0  0  0
  138.9721   67.8415  225.1024 H   0  0  0  0  0  0  0  0  0  0  0  0
  139.5361   67.9606  227.4738 H   0  0  0  0  0  0  0  0  0  0  0  0
  140.4895   69.2010  229.3569 H   0  0  0  0  0  0  0  0  0  0  0  0
  141.4452   71.5037  229.0674 H   0  0  0  0  0  0  0  0  0  0  0  0
  141.3834   72.4825  226.7598 H   0  0  0  0  0  0  0  0  0  0  0  0
  1  2  2  0
  2  3  1  0
  3  4  1  0
  4  5  1  0
  5  6  2  0
  5  7  1  0
  7  8  1  0
  8  9  1  0
  9 10  1  0
 10 11  1  0
 11 12  1  0
 12 13  1  0
 13 14  2  0
 14 15  1  0
 15 16  2  0
 16 17  1  0
 17 18  1  0
 18 19  1  0
 18 20  1  0
 18 21  1  0
 16 22  1  0
 22 23  2  0
  2 24  1  0
 24 25  2  0
 25 26  1  0
 26 27  2  0
 27 28  1  0
 28 29  2  0
 29 30  1  0
 30 31  2  0
 31 32  1  0
 32 33  2  0
 12  7  1  0
 23 13  1  0
 33 24  1  0
 32 27  1  0
  3 34  1  0
  4 35  1  0
  4 36  1  0
  8 37  1  0
  8 38  1  0
  9 39  1  0
  9 40  1  0
 10 41  1  0
 10 42  1  0
 11 43  1  0
 11 44  1  0
 12 45  1  6
 14 46  1  0
 15 47  1  0
 22 48  1  0
 23 49  1  0
 25 50  1  0
 26 51  1  0
 28 52  1  0
 29 53  1  0
 30 54  1  0
 31 55  1  0
M  END
>  <smiles>  (92) 
O=C(NCC(=O)N1CCCCC1c1ccc(OC(F)(F)F)cc1)c1ccc2ccccc2n1

>  <score_type>  (92) 
oracle

>  <origin>  (92) 
autodockgpu

>  <m_score__min__energy>  (92) 
-8.6099999999999994

>  <m_primary>  (92) 
energy

>  <rmsd>  (92) 
1.8065847403088768

>  <m_score__min__rmsd>  (92) 
1.8065847403088768

>  <meeko>  (92) 
{"free_energy": -7.66, "intermolecular_energy": -9.75, "internal_energy": -2.2, "cluster_size": 9, "cluster_id": 2, "rank_in_cluster": 6}

>  <energy>  (92) 
-6.59

>  <cluster_rmsd>  (92) 
0.55

>  <cluster>  (92) 
5

$$$$

     RDKit          3D

 55 58  0  0  0  0  0  0  0  0999 V2000
  140.2820   71.2780  221.2190 O   0  0  0  0  0  0  0  0  0  0  0  0
  139.8910   71.9010  222.2620 C   0  0  0  0  0  0  0  0  0  0  0  0
  139.4070   73.2450  222.1320 N   0  0  0  0  0  0  0  0  0  0  0  0
  139.3150   73.9630  220.9180 C   0  0  0  0  0  0  0  0  0  0  0  0
  140.4690   74.0650  220.0320 C   0  0  0  0  0  0  0  0  0  0  0  0
  140.1470   74.1170  218.7660 O   0  0  0  0  0  0  0  0  0  0  0  0
  141.8370   74.1130  220.2900 N   0  0  0  0  0  0  0  0  0  0  0  0
  142.7260   72.9490  220.4460 C   0  0  0  0  0  0  0  0  0  0  0  0
  144.1000   73.3150  219.8810 C   0  0  0  0  0  0  0  0  0  0  0  0
  144.0000   74.3460  218.7980 C   0  0  0  0  0  0  0  0  0  0  0  0
  143.2750   75.5960  219.1540 C   0  0  0  0  0  0  0  0  0  0  0  0
  142.5380   75.3890  220.4280 C   0  0  1  0  0  0  0  0  0  0  0  0
  141.7110   76.5050  220.8790 C   0  0  0  0  0  0  0  0  0  0  0  0
  141.4970   77.6760  220.2040 C   0  0  0  0  0  0  0  0  0  0  0  0
  140.7030   78.7000  220.6790 C   0  0  0  0  0  0  0  0  0  0  0  0
  140.0840   78.5490  221.9030 C   0  0  0  0  0  0  0  0  0  0  0  0
  139.2730   79.5400  222.4390 O   0  0  0  0  0  0  0  0  0  0  0  0
  139.7170   80.6180  223.2120 C   0  0  0  0  0  0  0  0  0  0  0  0
  140.0010   81.6520  222.3150 F   0  0  0  0  0  0  0  0  0  0  0  0
  138.7590   81.0330  224.0840 F   0  0  0  0  0  0  0  0  0  0  0  0
  140.9410   80.3460  223.8240 F   0  0  0  0  0  0  0  0  0  0  0  0
  140.2700   77.3810  222.6260 C   0  0  0  0  0  0  0  0  0  0  0  0
  141.0740   76.3760  222.1160 C   0  0  0  0  0  0  0  0  0  0  0  0
  139.9310   71.2580  223.5880 C   0  0  0  0  0  0  0  0  0  0  0  0
  139.4280   69.9800  223.7000 C   0  0  0  0  0  0  0  0  0  0  0  0
  139.4660   69.3730  224.9490 C   0  0  0  0  0  0  0  0  0  0  0  0
  139.9980   70.0440  226.0450 C   0  0  0  0  0  0  0  0  0  0  0  0
  140.0470   69.4660  227.2900 C   0  0  0  0  0  0  0  0  0  0  0  0
  140.5790   70.1610  228.3440 C   0  0  0  0  0  0  0  0  0  0  0  0
  141.0840   71.4550  228.2170 C   0  0  0  0  0  0  0  0  0  0  0  0
  141.0160   72.0020  226.9440 C   0  0  0  0  0  0  0  0  0  0  0  0
  140.4870   71.3130  225.8840 C   0  0  0  0  0  0  0  0  0  0  0  0
  140.4400   71.8860  224.6590 N   0  0  0  0  0  0  0  0  0  0  0  0
  139.1070   73.6980  223.0400 H   0  0  0  0  0  0  0  0  0  0  0  0
  138.5092   73.4941  220.3342 H   0  0  0  0  0  0  0  0  0  0  0  0
  139.1665   75.0001  221.2532 H   0  0  0  0  0  0  0  0  0  0  0  0
  142.8184   72.6917  221.5115 H   0  0  0  0  0  0  0  0  0  0  0  0
  142.3137   72.0824  219.9085 H   0  0  0  0  0  0  0  0  0  0  0  0
  144.7250   73.7124  220.6943 H   0  0  0  0  0  0  0  0  0  0  0  0
  144.5447   72.4067  219.4482 H   0  0  0  0  0  0  0  0  0  0  0  0
  145.0223   74.6226  218.5008 H   0  0  0  0  0  0  0  0  0  0  0  0
  143.4099   73.8783  217.9961 H   0  0  0  0  0  0  0  0  0  0  0  0
  143.9964   76.4175  219.2758 H   0  0  0  0  0  0  0  0  0  0  0  0
  142.5645   75.8512  218.3539 H   0  0  0  0  0  0  0  0  0  0  0  0
  143.2525   75.3488  221.2633 H   0  0  0  0  0  0  0  0  0  0  0  0
  141.9855   77.8086  219.2274 H   0  0  0  0  0  0  0  0  0  0  0  0
  140.5660   79.6203  220.0922 H   0  0  0  0  0  0  0  0  0  0  0  0
  139.7800   77.2530  223.6025 H   0  0  0  0  0  0  0  0  0  0  0  0
  141.2148   75.4536  222.6986 H   0  0  0  0  0  0  0  0  0  0  0  0
  139.0094   69.4568  222.8276 H   0  0  0  0  0  0  0  0  0  0  0  0
  139.0721   68.3533  225.0722 H   0  0  0  0  0  0  0  0  0  0  0  0
  139.6600   68.4474  227.4405 H   0  0  0  0  0  0  0  0  0  0  0  0
  140.6092   69.6783  229.3319 H   0  0  0  0  0  0  0  0  0  0  0  0
  141.5081   72.0053  229.0698 H   0  0  0  0  0  0  0  0  0  0  0  0
  141.3985   73.0203  226.7803 H   0  0  0  0  0  0  0  0  0  0  0  0
  1  2  2  0
  2  3  1  0
  3  4  1  0
  4  5  1  0
  5  6  2  0
  5  7  1  0
  7  8  1  0
  8  9  1  0
  9 10  1  0
 10 11  1  0
 11 12  1  0
 12 13  1  0
 13 14  2  0
 14 15  1  0
 15 16  2  0
 16 17  1  0
 17 18  1  0
 18 19  1  0
 18 20  1  0
 18 21  1  0
 16 22  1  0
 22 23  2  0
  2 24  1  0
 24 25  2  0
 25 26  1  0
 26 27  2  0
 27 28  1  0
 28 29  2  0
 29 30  1  0
 30 31  2  0
 31 32  1  0
 32 33  2  0
 12  7  1  0
 23 13  1  0
 33 24  1  0
 32 27  1  0
  3 34  1  0
  4 35  1  0
  4 36  1  0
  8 37  1  0
  8 38  1  0
  9 39  1  0
  9 40  1  0
 10 41  1  0
 10 42  1  0
 11 43  1  0
 11 44  1  0
 12 45  1  1
 14 46  1  0
 15 47  1  0
 22 48  1  0
 23 49  1  0
 25 50  1  0
 26 51  1  0
 28 52  1  0
 29 53  1  0
 30 54  1  0
 31 55  1  0
M  END
>  <smiles>  (93) 
O=C(NCC(=O)N1CCCCC1c1ccc(OC(F)(F)F)cc1)c1ccc2ccccc2n1

>  <score_type>  (93) 
oracle

>  <origin>  (93) 
autodockgpu

>  <m_score__min__energy>  (93) 
-8.6099999999999994

>  <m_primary>  (93) 
energy

>  <rmsd>  (93) 
2.536552320568311

>  <m_score__min__rmsd>  (93) 
2.536552320568311

>  <meeko>  (93) 
{"free_energy": -7.75, "intermolecular_energy": -9.84, "internal_energy": -1.85, "cluster_size": 16, "cluster_id": 1, "rank_in_cluster": 9}

>  <energy>  (93) 
-6.58

>  <cluster_rmsd>  (93) 
0.58

>  <cluster>  (93) 
5

$$$$

     RDKit          3D

 55 58  0  0  0  0  0  0  0  0999 V2000
  141.5400   72.1990  221.7270 O   0  0  0  0  0  0  0  0  0  0  0  0
  140.5620   72.3950  222.5240 C   0  0  0  0  0  0  0  0  0  0  0  0
  139.7370   73.5550  222.3430 N   0  0  0  0  0  0  0  0  0  0  0  0
  139.9090   74.5260  221.3310 C   0  0  0  0  0  0  0  0  0  0  0  0
  140.8180   75.6490  221.5330 C   0  0  0  0  0  0  0  0  0  0  0  0
  140.6610   76.2390  222.6890 O   0  0  0  0  0  0  0  0  0  0  0  0
  141.8100   76.1990  220.7250 N   0  0  0  0  0  0  0  0  0  0  0  0
  142.8990   75.4560  220.0700 C   0  0  0  0  0  0  0  0  0  0  0  0
  143.1990   76.1260  218.7270 C   0  0  0  0  0  0  0  0  0  0  0  0
  141.9900   76.8090  218.1640 C   0  0  0  0  0  0  0  0  0  0  0  0
  141.3240   77.7950  219.0580 C   0  0  0  0  0  0  0  0  0  0  0  0
  141.8470   77.6340  220.4410 C   0  0  1  0  0  0  0  0  0  0  0  0
  141.2360   78.4830  221.4590 C   0  0  0  0  0  0  0  0  0  0  0  0
  141.8620   79.0070  222.5570 C   0  0  0  0  0  0  0  0  0  0  0  0
  141.2350   79.8050  223.4910 C   0  0  0  0  0  0  0  0  0  0  0  0
  139.8980   80.1020  223.3210 C   0  0  0  0  0  0  0  0  0  0  0  0
  139.2050   80.8990  224.2220 O   0  0  0  0  0  0  0  0  0  0  0  0
  137.8190   81.0850  224.2360 C   0  0  0  0  0  0  0  0  0  0  0  0
  137.5050   81.5980  225.4980 F   0  0  0  0  0  0  0  0  0  0  0  0
  137.4260   81.9710  223.2820 F   0  0  0  0  0  0  0  0  0  0  0  0
  137.1340   79.8700  224.1770 F   0  0  0  0  0  0  0  0  0  0  0  0
  139.2170   79.5950  222.2240 C   0  0  0  0  0  0  0  0  0  0  0  0
  139.8830   78.7980  221.3090 C   0  0  0  0  0  0  0  0  0  0  0  0
  140.2740   71.4490  223.6170 C   0  0  0  0  0  0  0  0  0  0  0  0
  139.5640   70.3080  223.3120 C   0  0  0  0  0  0  0  0  0  0  0  0
  139.2930   69.4160  224.3420 C   0  0  0  0  0  0  0  0  0  0  0  0
  139.7290   69.6770  225.6370 C   0  0  0  0  0  0  0  0  0  0  0  0
  139.4740   68.8110  226.6720 C   0  0  0  0  0  0  0  0  0  0  0  0
  139.9210   69.1060  227.9320 C   0  0  0  0  0  0  0  0  0  0  0  0
  140.6380   70.2660  228.2280 C   0  0  0  0  0  0  0  0  0  0  0  0
  140.8750   71.1130  227.1550 C   0  0  0  0  0  0  0  0  0  0  0  0
  140.4320   70.8250  225.8910 C   0  0  0  0  0  0  0  0  0  0  0  0
  140.6850   71.6810  224.8730 N   0  0  0  0  0  0  0  0  0  0  0  0
  138.9510   73.6530  223.0450 H   0  0  0  0  0  0  0  0  0  0  0  0
  140.2618   73.9911  220.4369 H   0  0  0  0  0  0  0  0  0  0  0  0
  138.9226   75.0103  221.2808 H   0  0  0  0  0  0  0  0  0  0  0  0
  143.7973   75.4765  220.7046 H   0  0  0  0  0  0  0  0  0  0  0  0
  142.6017   74.4087  219.9127 H   0  0  0  0  0  0  0  0  0  0  0  0
  143.9947   76.8718  218.8709 H   0  0  0  0  0  0  0  0  0  0  0  0
  143.5124   75.3457  218.0179 H   0  0  0  0  0  0  0  0  0  0  0  0
  142.2969   77.3373  217.2493 H   0  0  0  0  0  0  0  0  0  0  0  0
  141.2499   76.0127  217.9961 H   0  0  0  0  0  0  0  0  0  0  0  0
  141.5336   78.8145  218.7019 H   0  0  0  0  0  0  0  0  0  0  0  0
  140.2374   77.6237  219.0520 H   0  0  0  0  0  0  0  0  0  0  0  0
  142.8791   78.0112  220.4907 H   0  0  0  0  0  0  0  0  0  0  0  0
  142.9280   78.7784  222.7035 H   0  0  0  0  0  0  0  0  0  0  0  0
  141.7904   80.1975  224.3555 H   0  0  0  0  0  0  0  0  0  0  0  0
  138.1509   79.8256  222.0817 H   0  0  0  0  0  0  0  0  0  0  0  0
  139.3333   78.4027  220.4421 H   0  0  0  0  0  0  0  0  0  0  0  0
  139.2226   70.1097  222.2853 H   0  0  0  0  0  0  0  0  0  0  0  0
  138.7288   68.4954  224.1317 H   0  0  0  0  0  0  0  0  0  0  0  0
  138.9123   67.8831  226.4892 H   0  0  0  0  0  0  0  0  0  0  0  0
  139.7057   68.3982  228.7460 H   0  0  0  0  0  0  0  0  0  0  0  0
  140.9917   70.4937  229.2444 H   0  0  0  0  0  0  0  0  0  0  0  0
  141.4357   72.0441  227.3243 H   0  0  0  0  0  0  0  0  0  0  0  0
  1  2  2  0
  2  3  1  0
  3  4  1  0
  4  5  1  0
  5  6  2  0
  5  7  1  0
  7  8  1  0
  8  9  1  0
  9 10  1  0
 10 11  1  0
 11 12  1  0
 12 13  1  0
 13 14  2  0
 14 15  1  0
 15 16  2  0
 16 17  1  0
 17 18  1  0
 18 19  1  0
 18 20  1  0
 18 21  1  0
 16 22  1  0
 22 23  2  0
  2 24  1  0
 24 25  2  0
 25 26  1  0
 26 27  2  0
 27 28  1  0
 28 29  2  0
 29 30  1  0
 30 31  2  0
 31 32  1  0
 32 33  2  0
 12  7  1  0
 23 13  1  0
 33 24  1  0
 32 27  1  0
  3 34  1  0
  4 35  1  0
  4 36  1  0
  8 37  1  0
  8 38  1  0
  9 39  1  0
  9 40  1  0
 10 41  1  0
 10 42  1  0
 11 43  1  0
 11 44  1  0
 12 45  1  6
 14 46  1  0
 15 47  1  0
 22 48  1  0
 23 49  1  0
 25 50  1  0
 26 51  1  0
 28 52  1  0
 29 53  1  0
 30 54  1  0
 31 55  1  0
M  END
>  <smiles>  (94) 
O=C(NCC(=O)N1CCCCC1c1ccc(OC(F)(F)F)cc1)c1ccc2ccccc2n1

>  <score_type>  (94) 
oracle

>  <origin>  (94) 
autodockgpu

>  <m_score__min__energy>  (94) 
-8.6099999999999994

>  <m_primary>  (94) 
energy

>  <rmsd>  (94) 
2.111378995550661

>  <m_score__min__rmsd>  (94) 
2.111378995550661

>  <meeko>  (94) 
{"free_energy": -8.61, "intermolecular_energy": -10.7, "internal_energy": -1.3, "cluster_size": 16, "cluster_id": 1, "rank_in_cluster": 1}

>  <energy>  (94) 
-6.57

>  <cluster_rmsd>  (94) 
0.29

>  <cluster>  (94) 
5

$$$$

     RDKit          3D

 55 58  0  0  0  0  0  0  0  0999 V2000
  138.6450   72.4470  222.1830 O   0  0  0  0  0  0  0  0  0  0  0  0
  139.7380   71.9480  222.6140 C   0  0  0  0  0  0  0  0  0  0  0  0
  140.9570   72.2270  221.9110 N   0  0  0  0  0  0  0  0  0  0  0  0
  141.0640   73.0330  220.7550 C   0  0  0  0  0  0  0  0  0  0  0  0
  140.8270   74.4700  220.8340 C   0  0  0  0  0  0  0  0  0  0  0  0
  140.4300   74.8640  222.0170 O   0  0  0  0  0  0  0  0  0  0  0  0
  140.9450   75.4850  219.8880 N   0  0  0  0  0  0  0  0  0  0  0  0
  139.8300   76.2390  219.2900 C   0  0  0  0  0  0  0  0  0  0  0  0
  140.3000   77.6730  219.0360 C   0  0  0  0  0  0  0  0  0  0  0  0
  141.3690   78.0870  220.0010 C   0  0  0  0  0  0  0  0  0  0  0  0
  142.5580   77.1940  220.0780 C   0  0  0  0  0  0  0  0  0  0  0  0
  142.2530   75.9120  219.3910 C   0  0  1  0  0  0  0  0  0  0  0  0
  143.2980   74.8930  219.4440 C   0  0  0  0  0  0  0  0  0  0  0  0
  144.1810   74.6930  220.4690 C   0  0  0  0  0  0  0  0  0  0  0  0
  145.1510   73.7120  220.4650 C   0  0  0  0  0  0  0  0  0  0  0  0
  145.2480   72.8770  219.3710 C   0  0  0  0  0  0  0  0  0  0  0  0
  146.2010   71.8690  219.3010 O   0  0  0  0  0  0  0  0  0  0  0  0
  145.9300   70.5140  219.0870 C   0  0  0  0  0  0  0  0  0  0  0  0
  146.9810   69.8060  219.6760 F   0  0  0  0  0  0  0  0  0  0  0  0
  144.7580   70.1430  219.6710 F   0  0  0  0  0  0  0  0  0  0  0  0
  146.0030   70.1800  217.7340 F   0  0  0  0  0  0  0  0  0  0  0  0
  144.3760   73.0390  218.3050 C   0  0  0  0  0  0  0  0  0  0  0  0
  143.4160   74.0350  218.3470 C   0  0  0  0  0  0  0  0  0  0  0  0
  139.7590   71.0960  223.8160 C   0  0  0  0  0  0  0  0  0  0  0  0
  139.1390   69.8670  223.7460 C   0  0  0  0  0  0  0  0  0  0  0  0
  139.1590   69.0630  224.8790 C   0  0  0  0  0  0  0  0  0  0  0  0
  139.7870   69.4960  226.0420 C   0  0  0  0  0  0  0  0  0  0  0  0
  139.8200   68.7200  227.1750 C   0  0  0  0  0  0  0  0  0  0  0  0
  140.4490   69.1830  228.3000 C   0  0  0  0  0  0  0  0  0  0  0  0
  141.0720   70.4300  228.3580 C   0  0  0  0  0  0  0  0  0  0  0  0
  141.0160   71.1820  227.1930 C   0  0  0  0  0  0  0  0  0  0  0  0
  140.3900   70.7250  226.0630 C   0  0  0  0  0  0  0  0  0  0  0  0
  140.3590   71.4930  224.9490 N   0  0  0  0  0  0  0  0  0  0  0  0
  141.8200   71.7750  222.3250 H   0  0  0  0  0  0  0  0  0  0  0  0
  142.0869   72.9021  220.3723 H   0  0  0  0  0  0  0  0  0  0  0  0
  140.2342   72.6780  220.1262 H   0  0  0  0  0  0  0  0  0  0  0  0
  139.5324   75.7715  218.3398 H   0  0  0  0  0  0  0  0  0  0  0  0
  138.9652   76.2388  219.9698 H   0  0  0  0  0  0  0  0  0  0  0  0
  140.6980   77.7414  218.0128 H   0  0  0  0  0  0  0  0  0  0  0  0
  139.4389   78.3441  219.1707 H   0  0  0  0  0  0  0  0  0  0  0  0
  141.7180   79.0882  219.7080 H   0  0  0  0  0  0  0  0  0  0  0  0
  140.9025   78.0474  220.9964 H   0  0  0  0  0  0  0  0  0  0  0  0
  143.4147   77.6793  219.5875 H   0  0  0  0  0  0  0  0  0  0  0  0
  142.8050   76.9983  221.1319 H   0  0  0  0  0  0  0  0  0  0  0  0
  142.2185   76.0766  218.3039 H   0  0  0  0  0  0  0  0  0  0  0  0
  144.1140   75.3522  221.3471 H   0  0  0  0  0  0  0  0  0  0  0  0
  145.8349   73.5976  221.3189 H   0  0  0  0  0  0  0  0  0  0  0  0
  144.4471   72.3779  217.4287 H   0  0  0  0  0  0  0  0  0  0  0  0
  142.7290   74.1543  217.4962 H   0  0  0  0  0  0  0  0  0  0  0  0
  138.6439   69.5332  222.8222 H   0  0  0  0  0  0  0  0  0  0  0  0
  138.6741   68.0759  224.8560 H   0  0  0  0  0  0  0  0  0  0  0  0
  139.3424   67.7291  227.1787 H   0  0  0  0  0  0  0  0  0  0  0  0
  140.4636   68.5447  229.1957 H   0  0  0  0  0  0  0  0  0  0  0  0
  141.5742   70.7930  229.2668 H   0  0  0  0  0  0  0  0  0  0  0  0
  141.4886   72.1752  227.1762 H   0  0  0  0  0  0  0  0  0  0  0  0
  1  2  2  0
  2  3  1  0
  3  4  1  0
  4  5  1  0
  5  6  2  0
  5  7  1  0
  7  8  1  0
  8  9  1  0
  9 10  1  0
 10 11  1  0
 11 12  1  0
 12 13  1  0
 13 14  2  0
 14 15  1  0
 15 16  2  0
 16 17  1  0
 17 18  1  0
 18 19  1  0
 18 20  1  0
 18 21  1  0
 16 22  1  0
 22 23  2  0
  2 24  1  0
 24 25  2  0
 25 26  1  0
 26 27  2  0
 27 28  1  0
 28 29  2  0
 29 30  1  0
 30 31  2  0
 31 32  1  0
 32 33  2  0
 12  7  1  0
 23 13  1  0
 33 24  1  0
 32 27  1  0
  3 34  1  0
  4 35  1  0
  4 36  1  0
  8 37  1  0
  8 38  1  0
  9 39  1  0
  9 40  1  0
 10 41  1  0
 10 42  1  0
 11 43  1  0
 11 44  1  0
 12 45  1  6
 14 46  1  0
 15 47  1  0
 22 48  1  0
 23 49  1  0
 25 50  1  0
 26 51  1  0
 28 52  1  0
 29 53  1  0
 30 54  1  0
 31 55  1  0
M  END
>  <smiles>  (95) 
O=C(NCC(=O)N1CCCCC1c1ccc(OC(F)(F)F)cc1)c1ccc2ccccc2n1

>  <score_type>  (95) 
oracle

>  <origin>  (95) 
autodockgpu

>  <m_score__min__energy>  (95) 
-8.6099999999999994

>  <m_primary>  (95) 
energy

>  <rmsd>  (95) 
2.079250130103608

>  <m_score__min__rmsd>  (95) 
2.079250130103608

>  <meeko>  (95) 
{"free_energy": -8.02, "intermolecular_energy": -10.11, "internal_energy": -1.56, "cluster_size": 9, "cluster_id": 2, "rank_in_cluster": 2}

>  <energy>  (95) 
-6.56

>  <cluster_rmsd>  (95) 
1.09

>  <cluster>  (95) 
5

$$$$

     RDKit          3D

 55 58  0  0  0  0  0  0  0  0999 V2000
  141.3150   71.8230  221.4920 O   0  0  0  0  0  0  0  0  0  0  0  0
  140.5720   72.2660  222.4310 C   0  0  0  0  0  0  0  0  0  0  0  0
  140.0140   73.5840  222.3160 N   0  0  0  0  0  0  0  0  0  0  0  0
  140.2120   74.4590  221.2230 C   0  0  0  0  0  0  0  0  0  0  0  0
  140.9860   75.6830  221.3910 C   0  0  0  0  0  0  0  0  0  0  0  0
  140.7620   76.2840  222.5310 O   0  0  0  0  0  0  0  0  0  0  0  0
  141.9080   76.3210  220.5640 N   0  0  0  0  0  0  0  0  0  0  0  0
  143.0830   75.6930  219.9380 C   0  0  0  0  0  0  0  0  0  0  0  0
  143.3060   76.3460  218.5720 C   0  0  0  0  0  0  0  0  0  0  0  0
  142.0260   76.8550  217.9830 C   0  0  0  0  0  0  0  0  0  0  0  0
  141.2400   77.7850  218.8400 C   0  0  0  0  0  0  0  0  0  0  0  0
  141.7700   77.7380  220.2280 C   0  0  1  0  0  0  0  0  0  0  0  0
  141.0550   78.5430  221.2140 C   0  0  0  0  0  0  0  0  0  0  0  0
  139.7270   78.8660  221.1830 C   0  0  0  0  0  0  0  0  0  0  0  0
  139.1000   79.6330  222.1440 C   0  0  0  0  0  0  0  0  0  0  0  0
  139.8450   80.1080  223.2050 C   0  0  0  0  0  0  0  0  0  0  0  0
  139.2790   80.8840  224.2070 O   0  0  0  0  0  0  0  0  0  0  0  0
  137.9120   81.1360  224.3590 C   0  0  0  0  0  0  0  0  0  0  0  0
  137.7280   81.5100  225.6930 F   0  0  0  0  0  0  0  0  0  0  0  0
  137.5000   82.1490  223.5500 F   0  0  0  0  0  0  0  0  0  0  0  0
  137.1530   79.9730  224.2180 F   0  0  0  0  0  0  0  0  0  0  0  0
  141.1970   79.8080  223.2830 C   0  0  0  0  0  0  0  0  0  0  0  0
  141.7880   79.0350  222.2980 C   0  0  0  0  0  0  0  0  0  0  0  0
  140.2840   71.4460  223.6200 C   0  0  0  0  0  0  0  0  0  0  0  0
  139.6110   70.2580  223.4360 C   0  0  0  0  0  0  0  0  0  0  0  0
  139.3400   69.4830  224.5580 C   0  0  0  0  0  0  0  0  0  0  0  0
  139.7390   69.9050  225.8220 C   0  0  0  0  0  0  0  0  0  0  0  0
  139.4830   69.1580  226.9450 C   0  0  0  0  0  0  0  0  0  0  0  0
  139.8930   69.6090  228.1720 C   0  0  0  0  0  0  0  0  0  0  0  0
  140.5730   70.8150  228.3440 C   0  0  0  0  0  0  0  0  0  0  0  0
  140.8120   71.5380  227.1850 C   0  0  0  0  0  0  0  0  0  0  0  0
  140.4060   71.0940  225.9540 C   0  0  0  0  0  0  0  0  0  0  0  0
  140.6600   71.8330  224.8490 N   0  0  0  0  0  0  0  0  0  0  0  0
  139.4140   73.8830  223.1340 H   0  0  0  0  0  0  0  0  0  0  0  0
  140.7120   73.8744  220.4367 H   0  0  0  0  0  0  0  0  0  0  0  0
  139.1982   74.8316  221.0151 H   0  0  0  0  0  0  0  0  0  0  0  0
  143.9686   75.8457  220.5723 H   0  0  0  0  0  0  0  0  0  0  0  0
  142.9168   74.6122  219.8189 H   0  0  0  0  0  0  0  0  0  0  0  0
  144.0036   77.1884  218.6897 H   0  0  0  0  0  0  0  0  0  0  0  0
  143.7163   75.5849  217.8921 H   0  0  0  0  0  0  0  0  0  0  0  0
  142.2710   77.3828  217.0495 H   0  0  0  0  0  0  0  0  0  0  0  0
  141.3894   75.9688  217.8438 H   0  0  0  0  0  0  0  0  0  0  0  0
  141.3271   78.8089  218.4476 H   0  0  0  0  0  0  0  0  0  0  0  0
  140.1821   77.4835  218.8384 H   0  0  0  0  0  0  0  0  0  0  0  0
  142.7482   78.2397  220.2653 H   0  0  0  0  0  0  0  0  0  0  0  0
  139.1228   78.4928  220.3430 H   0  0  0  0  0  0  0  0  0  0  0  0
  138.0268   79.8616  222.0661 H   0  0  0  0  0  0  0  0  0  0  0  0
  141.7977   80.1830  224.1247 H   0  0  0  0  0  0  0  0  0  0  0  0
  142.8607   78.8023  222.3702 H   0  0  0  0  0  0  0  0  0  0  0  0
  139.2979   69.9329  222.4329 H   0  0  0  0  0  0  0  0  0  0  0  0
  138.8056   68.5282  224.4452 H   0  0  0  0  0  0  0  0  0  0  0  0
  138.9499   68.1996  226.8599 H   0  0  0  0  0  0  0  0  0  0  0  0
  139.6770   68.9946  229.0585 H   0  0  0  0  0  0  0  0  0  0  0  0
  140.8981   71.1690  229.3335 H   0  0  0  0  0  0  0  0  0  0  0  0
  141.3442   72.4981  227.2562 H   0  0  0  0  0  0  0  0  0  0  0  0
  1  2  2  0
  2  3  1  0
  3  4  1  0
  4  5  1  0
  5  6  2  0
  5  7  1  0
  7  8  1  0
  8  9  1  0
  9 10  1  0
 10 11  1  0
 11 12  1  0
 12 13  1  0
 13 14  2  0
 14 15  1  0
 15 16  2  0
 16 17  1  0
 17 18  1  0
 18 19  1  0
 18 20  1  0
 18 21  1  0
 16 22  1  0
 22 23  2  0
  2 24  1  0
 24 25  2  0
 25 26  1  0
 26 27  2  0
 27 28  1  0
 28 29  2  0
 29 30  1  0
 30 31  2  0
 31 32  1  0
 32 33  2  0
 12  7  1  0
 23 13  1  0
 33 24  1  0
 32 27  1  0
  3 34  1  0
  4 35  1  0
  4 36  1  0
  8 37  1  0
  8 38  1  0
  9 39  1  0
  9 40  1  0
 10 41  1  0
 10 42  1  0
 11 43  1  0
 11 44  1  0
 12 45  1  6
 14 46  1  0
 15 47  1  0
 22 48  1  0
 23 49  1  0
 25 50  1  0
 26 51  1  0
 28 52  1  0
 29 53  1  0
 30 54  1  0
 31 55  1  0
M  END
>  <smiles>  (96) 
O=C(NCC(=O)N1CCCCC1c1ccc(OC(F)(F)F)cc1)c1ccc2ccccc2n1

>  <score_type>  (96) 
oracle

>  <origin>  (96) 
autodockgpu

>  <m_score__min__energy>  (96) 
-8.6099999999999994

>  <m_primary>  (96) 
energy

>  <rmsd>  (96) 
2.170146567840207

>  <m_score__min__rmsd>  (96) 
2.170146567840207

>  <meeko>  (96) 
{"free_energy": -8.47, "intermolecular_energy": -10.56, "internal_energy": -1.36, "cluster_size": 16, "cluster_id": 1, "rank_in_cluster": 5}

>  <energy>  (96) 
-6.54

>  <cluster_rmsd>  (96) 
0.91

>  <cluster>  (96) 
5

$$$$

     RDKit          3D

 55 58  0  0  0  0  0  0  0  0999 V2000
  140.1000   71.1820  221.1990 O   0  0  0  0  0  0  0  0  0  0  0  0
  139.8200   71.8380  222.2580 C   0  0  0  0  0  0  0  0  0  0  0  0
  139.4100   73.2080  222.1420 N   0  0  0  0  0  0  0  0  0  0  0  0
  139.2770   73.9180  220.9270 C   0  0  0  0  0  0  0  0  0  0  0  0
  140.4300   74.1060  220.0540 C   0  0  0  0  0  0  0  0  0  0  0  0
  140.1050   74.2690  218.7970 O   0  0  0  0  0  0  0  0  0  0  0  0
  141.7970   74.1400  220.3150 N   0  0  0  0  0  0  0  0  0  0  0  0
  142.6720   72.9680  220.4790 C   0  0  0  0  0  0  0  0  0  0  0  0
  144.0520   73.3140  219.9150 C   0  0  0  0  0  0  0  0  0  0  0  0
  143.9660   74.3390  218.8250 C   0  0  0  0  0  0  0  0  0  0  0  0
  143.2540   75.6000  219.1720 C   0  0  0  0  0  0  0  0  0  0  0  0
  142.5130   75.4100  220.4460 C   0  0  1  0  0  0  0  0  0  0  0  0
  141.6980   76.5380  220.8880 C   0  0  0  0  0  0  0  0  0  0  0  0
  141.4880   77.7010  220.2000 C   0  0  0  0  0  0  0  0  0  0  0  0
  140.7060   78.7380  220.6660 C   0  0  0  0  0  0  0  0  0  0  0  0
  140.0940   78.6080  221.8960 C   0  0  0  0  0  0  0  0  0  0  0  0
  139.2950   79.6120  222.4250 O   0  0  0  0  0  0  0  0  0  0  0  0
  139.7320   80.6250  223.2850 C   0  0  0  0  0  0  0  0  0  0  0  0
  140.9090   80.1570  223.8760 F   0  0  0  0  0  0  0  0  0  0  0  0
  139.9980   81.7730  222.6050 F   0  0  0  0  0  0  0  0  0  0  0  0
  138.8560   80.8080  224.3560 F   0  0  0  0  0  0  0  0  0  0  0  0
  140.2760   77.4480  222.6340 C   0  0  0  0  0  0  0  0  0  0  0  0
  141.0690   76.4300  222.1300 C   0  0  0  0  0  0  0  0  0  0  0  0
  139.9130   71.2060  223.5860 C   0  0  0  0  0  0  0  0  0  0  0  0
  139.4720   69.9070  223.7140 C   0  0  0  0  0  0  0  0  0  0  0  0
  139.5600   69.3110  224.9660 C   0  0  0  0  0  0  0  0  0  0  0  0
  140.0790   70.0130  226.0490 C   0  0  0  0  0  0  0  0  0  0  0  0
  140.1760   69.4470  227.2960 C   0  0  0  0  0  0  0  0  0  0  0  0
  140.6930   70.1720  228.3360 C   0  0  0  0  0  0  0  0  0  0  0  0
  141.1350   71.4880  228.1930 C   0  0  0  0  0  0  0  0  0  0  0  0
  141.0200   72.0230  226.9180 C   0  0  0  0  0  0  0  0  0  0  0  0
  140.5050   71.3030  225.8720 C   0  0  0  0  0  0  0  0  0  0  0  0
  140.4100   71.8650  224.6440 N   0  0  0  0  0  0  0  0  0  0  0  0
  139.2000   73.6860  223.0620 H   0  0  0  0  0  0  0  0  0  0  0  0
  138.5148   73.3906  220.3346 H   0  0  0  0  0  0  0  0  0  0  0  0
  139.0470   74.9409  221.2599 H   0  0  0  0  0  0  0  0  0  0  0  0
  142.7592   72.7157  221.5461 H   0  0  0  0  0  0  0  0  0  0  0  0
  142.2508   72.1036  219.9448 H   0  0  0  0  0  0  0  0  0  0  0  0
  144.6798   73.7095  220.7271 H   0  0  0  0  0  0  0  0  0  0  0  0
  144.4874   72.3978  219.4896 H   0  0  0  0  0  0  0  0  0  0  0  0
  144.9920   74.6021  218.5282 H   0  0  0  0  0  0  0  0  0  0  0  0
  143.3726   73.8729  218.0246 H   0  0  0  0  0  0  0  0  0  0  0  0
  143.9843   76.4142  219.2894 H   0  0  0  0  0  0  0  0  0  0  0  0
  142.5474   75.8575  218.3692 H   0  0  0  0  0  0  0  0  0  0  0  0
  143.2258   75.3674  221.2827 H   0  0  0  0  0  0  0  0  0  0  0  0
  141.9704   77.8165  219.2182 H   0  0  0  0  0  0  0  0  0  0  0  0
  140.5729   79.6516  220.0680 H   0  0  0  0  0  0  0  0  0  0  0  0
  139.7926   77.3367  223.6158 H   0  0  0  0  0  0  0  0  0  0  0  0
  141.2066   75.5138  222.7230 H   0  0  0  0  0  0  0  0  0  0  0  0
  139.0632   69.3591  222.8522 H   0  0  0  0  0  0  0  0  0  0  0  0
  139.2163   68.2750  225.1020 H   0  0  0  0  0  0  0  0  0  0  0  0
  139.8389   68.4127  227.4593 H   0  0  0  0  0  0  0  0  0  0  0  0
  140.7629   69.6973  229.3258 H   0  0  0  0  0  0  0  0  0  0  0  0
  141.5472   72.0630  229.0353 H   0  0  0  0  0  0  0  0  0  0  0  0
  141.3524   73.0566  226.7415 H   0  0  0  0  0  0  0  0  0  0  0  0
  1  2  2  0
  2  3  1  0
  3  4  1  0
  4  5  1  0
  5  6  2  0
  5  7  1  0
  7  8  1  0
  8  9  1  0
  9 10  1  0
 10 11  1  0
 11 12  1  0
 12 13  1  0
 13 14  2  0
 14 15  1  0
 15 16  2  0
 16 17  1  0
 17 18  1  0
 18 19  1  0
 18 20  1  0
 18 21  1  0
 16 22  1  0
 22 23  2  0
  2 24  1  0
 24 25  2  0
 25 26  1  0
 26 27  2  0
 27 28  1  0
 28 29  2  0
 29 30  1  0
 30 31  2  0
 31 32  1  0
 32 33  2  0
 12  7  1  0
 23 13  1  0
 33 24  1  0
 32 27  1  0
  3 34  1  0
  4 35  1  0
  4 36  1  0
  8 37  1  0
  8 38  1  0
  9 39  1  0
  9 40  1  0
 10 41  1  0
 10 42  1  0
 11 43  1  0
 11 44  1  0
 12 45  1  1
 14 46  1  0
 15 47  1  0
 22 48  1  0
 23 49  1  0
 25 50  1  0
 26 51  1  0
 28 52  1  0
 29 53  1  0
 30 54  1  0
 31 55  1  0
M  END
>  <smiles>  (97) 
O=C(NCC(=O)N1CCCCC1c1ccc(OC(F)(F)F)cc1)c1ccc2ccccc2n1

>  <score_type>  (97) 
oracle

>  <origin>  (97) 
autodockgpu

>  <m_score__min__energy>  (97) 
-8.6099999999999994

>  <m_primary>  (97) 
energy

>  <rmsd>  (97) 
2.5148609951429

>  <m_score__min__rmsd>  (97) 
2.5148609951429

>  <meeko>  (97) 
{"free_energy": -7.73, "intermolecular_energy": -9.82, "internal_energy": -1.9, "cluster_size": 16, "cluster_id": 1, "rank_in_cluster": 10}

>  <energy>  (97) 
-6.53

>  <cluster_rmsd>  (97) 
0.66

>  <cluster>  (97) 
5

$$$$

     RDKit          3D

 55 58  0  0  0  0  0  0  0  0999 V2000
  141.4900   72.1440  221.6200 O   0  0  0  0  0  0  0  0  0  0  0  0
  140.6030   72.4610  222.4820 C   0  0  0  0  0  0  0  0  0  0  0  0
  139.8960   73.7000  222.3310 N   0  0  0  0  0  0  0  0  0  0  0  0
  140.0910   74.6270  221.2820 C   0  0  0  0  0  0  0  0  0  0  0  0
  140.9980   75.7560  221.4560 C   0  0  0  0  0  0  0  0  0  0  0  0
  140.9430   76.2840  222.6510 O   0  0  0  0  0  0  0  0  0  0  0  0
  141.8990   76.3670  220.5870 N   0  0  0  0  0  0  0  0  0  0  0  0
  142.9910   75.6940  219.8640 C   0  0  0  0  0  0  0  0  0  0  0  0
  143.1610   76.3770  218.5050 C   0  0  0  0  0  0  0  0  0  0  0  0
  141.8770   76.9790  218.0210 C   0  0  0  0  0  0  0  0  0  0  0  0
  141.2070   77.9240  218.9570 C   0  0  0  0  0  0  0  0  0  0  0  0
  141.8250   77.8000  220.3030 C   0  0  1  0  0  0  0  0  0  0  0  0
  141.2270   78.6110  221.3600 C   0  0  0  0  0  0  0  0  0  0  0  0
  141.8450   79.0290  222.5060 C   0  0  0  0  0  0  0  0  0  0  0  0
  141.2290   79.7960  223.4740 C   0  0  0  0  0  0  0  0  0  0  0  0
  139.9140   80.1710  223.2890 C   0  0  0  0  0  0  0  0  0  0  0  0
  139.2350   80.9420  224.2220 O   0  0  0  0  0  0  0  0  0  0  0  0
  137.8470   80.9600  224.3980 C   0  0  0  0  0  0  0  0  0  0  0  0
  137.3600   81.9710  223.5640 F   0  0  0  0  0  0  0  0  0  0  0  0
  137.2840   79.7740  224.0400 F   0  0  0  0  0  0  0  0  0  0  0  0
  137.4950   81.3730  225.6840 F   0  0  0  0  0  0  0  0  0  0  0  0
  139.2420   79.7720  222.1430 C   0  0  0  0  0  0  0  0  0  0  0  0
  139.8950   79.0030  221.1950 C   0  0  0  0  0  0  0  0  0  0  0  0
  140.3020   71.5740  223.6190 C   0  0  0  0  0  0  0  0  0  0  0  0
  139.6130   70.4080  223.3620 C   0  0  0  0  0  0  0  0  0  0  0  0
  139.3290   69.5710  224.4350 C   0  0  0  0  0  0  0  0  0  0  0  0
  139.7320   69.9100  225.7220 C   0  0  0  0  0  0  0  0  0  0  0  0
  139.4630   69.0990  226.7980 C   0  0  0  0  0  0  0  0  0  0  0  0
  139.8770   69.4690  228.0500 C   0  0  0  0  0  0  0  0  0  0  0  0
  140.5730   70.6530  228.2960 C   0  0  0  0  0  0  0  0  0  0  0  0
  140.8240   71.4420  227.1830 C   0  0  0  0  0  0  0  0  0  0  0  0
  140.4140   71.0790  225.9270 C   0  0  0  0  0  0  0  0  0  0  0  0
  140.6810   71.8800  224.8690 N   0  0  0  0  0  0  0  0  0  0  0  0
  139.1810   73.8960  223.0870 H   0  0  0  0  0  0  0  0  0  0  0  0
  140.4613   74.0543  220.4190 H   0  0  0  0  0  0  0  0  0  0  0  0
  139.1069   75.1097  221.1898 H   0  0  0  0  0  0  0  0  0  0  0  0
  143.9243   75.7755  220.4405 H   0  0  0  0  0  0  0  0  0  0  0  0
  142.7535   74.6289  219.7255 H   0  0  0  0  0  0  0  0  0  0  0  0
  143.9147   77.1728  218.5981 H   0  0  0  0  0  0  0  0  0  0  0  0
  143.4780   75.6159  217.7768 H   0  0  0  0  0  0  0  0  0  0  0  0
  142.0902   77.5226  217.0888 H   0  0  0  0  0  0  0  0  0  0  0  0
  141.1805   76.1362  217.9004 H   0  0  0  0  0  0  0  0  0  0  0  0
  141.3288   78.9537  218.5898 H   0  0  0  0  0  0  0  0  0  0  0  0
  140.1352   77.6845  219.0192 H   0  0  0  0  0  0  0  0  0  0  0  0
  142.8317   78.2430  220.2869 H   0  0  0  0  0  0  0  0  0  0  0  0
  142.8935   78.7371  222.6655 H   0  0  0  0  0  0  0  0  0  0  0  0
  141.7767   80.1030  224.3772 H   0  0  0  0  0  0  0  0  0  0  0  0
  138.1934   80.0658  221.9879 H   0  0  0  0  0  0  0  0  0  0  0  0
  139.3527   78.6927  220.2897 H   0  0  0  0  0  0  0  0  0  0  0  0
  139.2980   70.1482  222.3406 H   0  0  0  0  0  0  0  0  0  0  0  0
  138.7809   68.6327  224.2645 H   0  0  0  0  0  0  0  0  0  0  0  0
  138.9166   68.1552  226.6543 H   0  0  0  0  0  0  0  0  0  0  0  0
  139.6513   68.8048  228.8973 H   0  0  0  0  0  0  0  0  0  0  0  0
  140.9009   70.9416  229.3055 H   0  0  0  0  0  0  0  0  0  0  0  0
  141.3692   72.3885  227.3128 H   0  0  0  0  0  0  0  0  0  0  0  0
  1  2  2  0
  2  3  1  0
  3  4  1  0
  4  5  1  0
  5  6  2  0
  5  7  1  0
  7  8  1  0
  8  9  1  0
  9 10  1  0
 10 11  1  0
 11 12  1  0
 12 13  1  0
 13 14  2  0
 14 15  1  0
 15 16  2  0
 16 17  1  0
 17 18  1  0
 18 19  1  0
 18 20  1  0
 18 21  1  0
 16 22  1  0
 22 23  2  0
  2 24  1  0
 24 25  2  0
 25 26  1  0
 26 27  2  0
 27 28  1  0
 28 29  2  0
 29 30  1  0
 30 31  2  0
 31 32  1  0
 32 33  2  0
 12  7  1  0
 23 13  1  0
 33 24  1  0
 32 27  1  0
  3 34  1  0
  4 35  1  0
  4 36  1  0
  8 37  1  0
  8 38  1  0
  9 39  1  0
  9 40  1  0
 10 41  1  0
 10 42  1  0
 11 43  1  0
 11 44  1  0
 12 45  1  6
 14 46  1  0
 15 47  1  0
 22 48  1  0
 23 49  1  0
 25 50  1  0
 26 51  1  0
 28 52  1  0
 29 53  1  0
 30 54  1  0
 31 55  1  0
M  END
>  <smiles>  (98) 
O=C(NCC(=O)N1CCCCC1c1ccc(OC(F)(F)F)cc1)c1ccc2ccccc2n1

>  <score_type>  (98) 
oracle

>  <origin>  (98) 
autodockgpu

>  <m_score__min__energy>  (98) 
-8.6099999999999994

>  <m_primary>  (98) 
energy

>  <rmsd>  (98) 
2.166732389717324

>  <m_score__min__rmsd>  (98) 
2.166732389717324

>  <meeko>  (98) 
{"free_energy": -8.55, "intermolecular_energy": -10.64, "internal_energy": -1.34, "cluster_size": 16, "cluster_id": 1, "rank_in_cluster": 2}

>  <energy>  (98) 
-6.49

>  <cluster_rmsd>  (98) 
1.0

>  <cluster>  (98) 
5

$$$$

     RDKit          3D

 55 58  0  0  0  0  0  0  0  0999 V2000
  138.9210   75.2650  221.7230 O   0  0  0  0  0  0  0  0  0  0  0  0
  140.0730   75.7670  221.9450 C   0  0  0  0  0  0  0  0  0  0  0  0
  141.2390   74.9590  221.7320 N   0  0  0  0  0  0  0  0  0  0  0  0
  141.2290   73.6200  221.2780 C   0  0  0  0  0  0  0  0  0  0  0  0
  142.2500   73.1510  220.3470 C   0  0  0  0  0  0  0  0  0  0  0  0
  141.8010   72.2730  219.4880 O   0  0  0  0  0  0  0  0  0  0  0  0
  143.6000   73.4630  220.2140 N   0  0  0  0  0  0  0  0  0  0  0  0
  144.7080   72.8320  220.9510 C   0  0  0  0  0  0  0  0  0  0  0  0
  145.9280   72.7730  220.0280 C   0  0  0  0  0  0  0  0  0  0  0  0
  145.5300   72.6980  218.5860 C   0  0  0  0  0  0  0  0  0  0  0  0
  144.6130   73.7680  218.1060 C   0  0  0  0  0  0  0  0  0  0  0  0
  144.0520   74.4930  219.2770 C   0  0  1  0  0  0  0  0  0  0  0  0
  143.0700   75.5310  218.9770 C   0  0  0  0  0  0  0  0  0  0  0  0
  142.0800   75.4600  218.0350 C   0  0  0  0  0  0  0  0  0  0  0  0
  141.1770   76.4750  217.7930 C   0  0  0  0  0  0  0  0  0  0  0  0
  141.2650   77.6340  218.5360 C   0  0  0  0  0  0  0  0  0  0  0  0
  140.3890   78.6940  218.3440 O   0  0  0  0  0  0  0  0  0  0  0  0
  139.3840   79.0830  219.2350 C   0  0  0  0  0  0  0  0  0  0  0  0
  140.0260   79.7400  220.2880 F   0  0  0  0  0  0  0  0  0  0  0  0
  138.5010   79.9350  218.6470 F   0  0  0  0  0  0  0  0  0  0  0  0
  138.7720   77.9820  219.8360 F   0  0  0  0  0  0  0  0  0  0  0  0
  142.2510   77.7560  219.5030 C   0  0  0  0  0  0  0  0  0  0  0  0
  143.1380   76.7150  219.7160 C   0  0  0  0  0  0  0  0  0  0  0  0
  140.2160   77.1570  222.4150 C   0  0  0  0  0  0  0  0  0  0  0  0
  139.0690   77.8510  222.7310 C   0  0  0  0  0  0  0  0  0  0  0  0
  139.2030   79.1620  223.1740 C   0  0  0  0  0  0  0  0  0  0  0  0
  140.4610   79.7440  223.2910 C   0  0  0  0  0  0  0  0  0  0  0  0
  140.6200   81.0360  223.7260 C   0  0  0  0  0  0  0  0  0  0  0  0
  141.8760   81.5720  223.8270 C   0  0  0  0  0  0  0  0  0  0  0  0
  143.0300   80.8570  223.5020 C   0  0  0  0  0  0  0  0  0  0  0  0
  142.8260   79.5560  223.0670 C   0  0  0  0  0  0  0  0  0  0  0  0
  141.5720   79.0120  222.9650 C   0  0  0  0  0  0  0  0  0  0  0  0
  141.4190   77.7380  222.5350 N   0  0  0  0  0  0  0  0  0  0  0  0
  142.1570   75.4410  221.9420 H   0  0  0  0  0  0  0  0  0  0  0  0
  141.2993   72.9826  222.1717 H   0  0  0  0  0  0  0  0  0  0  0  0
  140.3049   73.5647  220.6838 H   0  0  0  0  0  0  0  0  0  0  0  0
  144.9465   73.4270  221.8450 H   0  0  0  0  0  0  0  0  0  0  0  0
  144.4232   71.8178  221.2677 H   0  0  0  0  0  0  0  0  0  0  0  0
  146.5362   73.6763  220.1832 H   0  0  0  0  0  0  0  0  0  0  0  0
  146.4993   71.8655  220.2732 H   0  0  0  0  0  0  0  0  0  0  0  0
  146.4473   72.7443  217.9807 H   0  0  0  0  0  0  0  0  0  0  0  0
  144.9691   71.7576  218.4815 H   0  0  0  0  0  0  0  0  0  0  0  0
  145.1699   74.4717  217.4699 H   0  0  0  0  0  0  0  0  0  0  0  0
  143.7953   73.3196  217.5226 H   0  0  0  0  0  0  0  0  0  0  0  0
  144.8351   75.1155  219.7344 H   0  0  0  0  0  0  0  0  0  0  0  0
  141.9993   74.5408  217.4362 H   0  0  0  0  0  0  0  0  0  0  0  0
  140.4010   76.3620  217.0216 H   0  0  0  0  0  0  0  0  0  0  0  0
  142.3282   78.6772  220.0991 H   0  0  0  0  0  0  0  0  0  0  0  0
  143.9159   76.8224  220.4863 H   0  0  0  0  0  0  0  0  0  0  0  0
  138.0782   77.3828  222.6359 H   0  0  0  0  0  0  0  0  0  0  0  0
  138.3066   79.7440  223.4342 H   0  0  0  0  0  0  0  0  0  0  0  0
  139.7401   81.6398  223.9930 H   0  0  0  0  0  0  0  0  0  0  0  0
  141.9799   82.6090  224.1788 H   0  0  0  0  0  0  0  0  0  0  0  0
  144.0349   81.2965  223.5854 H   0  0  0  0  0  0  0  0  0  0  0  0
  143.6973   78.9418  222.7955 H   0  0  0  0  0  0  0  0  0  0  0  0
  1  2  2  0
  2  3  1  0
  3  4  1  0
  4  5  1  0
  5  6  2  0
  5  7  1  0
  7  8  1  0
  8  9  1  0
  9 10  1  0
 10 11  1  0
 11 12  1  0
 12 13  1  0
 13 14  2  0
 14 15  1  0
 15 16  2  0
 16 17  1  0
 17 18  1  0
 18 19  1  0
 18 20  1  0
 18 21  1  0
 16 22  1  0
 22 23  2  0
  2 24  1  0
 24 25  2  0
 25 26  1  0
 26 27  2  0
 27 28  1  0
 28 29  2  0
 29 30  1  0
 30 31  2  0
 31 32  1  0
 32 33  2  0
 12  7  1  0
 23 13  1  0
 33 24  1  0
 32 27  1  0
  3 34  1  0
  4 35  1  0
  4 36  1  0
  8 37  1  0
  8 38  1  0
  9 39  1  0
  9 40  1  0
 10 41  1  0
 10 42  1  0
 11 43  1  0
 11 44  1  0
 12 45  1  1
 14 46  1  0
 15 47  1  0
 22 48  1  0
 23 49  1  0
 25 50  1  0
 26 51  1  0
 28 52  1  0
 29 53  1  0
 30 54  1  0
 31 55  1  0
M  END
>  <smiles>  (99) 
O=C(NCC(=O)N1CCCCC1c1ccc(OC(F)(F)F)cc1)c1ccc2ccccc2n1

>  <score_type>  (99) 
oracle

>  <origin>  (99) 
autodockgpu

>  <m_score__min__energy>  (99) 
-8.6099999999999994

>  <m_primary>  (99) 
energy

>  <rmsd>  (99) 
7.736779826415988

>  <m_score__min__rmsd>  (99) 
7.736779826415988

>  <meeko>  (99) 
{"free_energy": -6.49, "intermolecular_energy": -8.58, "internal_energy": -3.21, "cluster_size": 17, "cluster_id": 5, "rank_in_cluster": 16}

>  <energy>  (99) 
-6.47

>  <cluster_rmsd>  (99) 
1.36

>  <cluster>  (99) 
5

$$$$

     RDKit          3D

 55 58  0  0  0  0  0  0  0  0999 V2000
  139.8590   71.3090  221.2750 O   0  0  0  0  0  0  0  0  0  0  0  0
  139.7660   71.9410  222.3800 C   0  0  0  0  0  0  0  0  0  0  0  0
  139.5500   73.3600  222.3550 N   0  0  0  0  0  0  0  0  0  0  0  0
  139.4210   74.1430  221.1860 C   0  0  0  0  0  0  0  0  0  0  0  0
  140.4860   74.1630  220.1900 C   0  0  0  0  0  0  0  0  0  0  0  0
  140.0970   73.7610  219.0080 O   0  0  0  0  0  0  0  0  0  0  0  0
  141.8290   74.5250  220.2730 N   0  0  0  0  0  0  0  0  0  0  0  0
  142.9660   73.5960  220.3810 C   0  0  0  0  0  0  0  0  0  0  0  0
  144.1540   74.2020  219.6290 C   0  0  0  0  0  0  0  0  0  0  0  0
  143.7090   75.0940  218.5110 C   0  0  0  0  0  0  0  0  0  0  0  0
  142.7660   76.1840  218.8840 C   0  0  0  0  0  0  0  0  0  0  0  0
  142.2380   75.9290  220.2500 C   0  0  1  0  0  0  0  0  0  0  0  0
  141.2370   76.8740  220.7370 C   0  0  0  0  0  0  0  0  0  0  0  0
  140.4640   77.7000  219.9680 C   0  0  0  0  0  0  0  0  0  0  0  0
  139.5310   78.5770  220.4830 C   0  0  0  0  0  0  0  0  0  0  0  0
  139.3560   78.6350  221.8500 C   0  0  0  0  0  0  0  0  0  0  0  0
  138.4360   79.4930  222.4350 O   0  0  0  0  0  0  0  0  0  0  0  0
  138.7210   80.4180  223.4440 C   0  0  0  0  0  0  0  0  0  0  0  0
  139.8020   81.1770  222.9870 F   0  0  0  0  0  0  0  0  0  0  0  0
  137.6630   81.2420  223.6770 F   0  0  0  0  0  0  0  0  0  0  0  0
  139.1990   79.7940  224.5970 F   0  0  0  0  0  0  0  0  0  0  0  0
  140.1160   77.8180  222.6740 C   0  0  0  0  0  0  0  0  0  0  0  0
  141.0420   76.9510  222.1190 C   0  0  0  0  0  0  0  0  0  0  0  0
  139.8770   71.2360  223.6690 C   0  0  0  0  0  0  0  0  0  0  0  0
  139.4820   69.9160  223.7170 C   0  0  0  0  0  0  0  0  0  0  0  0
  139.5870   69.2500  224.9320 C   0  0  0  0  0  0  0  0  0  0  0  0
  140.0770   69.9050  226.0580 C   0  0  0  0  0  0  0  0  0  0  0  0
  140.1900   69.2690  227.2690 C   0  0  0  0  0  0  0  0  0  0  0  0
  140.6780   69.9490  228.3530 C   0  0  0  0  0  0  0  0  0  0  0  0
  141.0740   71.2850  228.2900 C   0  0  0  0  0  0  0  0  0  0  0  0
  140.9440   71.8900  227.0490 C   0  0  0  0  0  0  0  0  0  0  0  0
  140.4580   71.2170  225.9590 C   0  0  0  0  0  0  0  0  0  0  0  0
  140.3470   71.8470  224.7670 N   0  0  0  0  0  0  0  0  0  0  0  0
  139.4900   73.8150  223.3080 H   0  0  0  0  0  0  0  0  0  0  0  0
  138.5137   73.7942  220.6710 H   0  0  0  0  0  0  0  0  0  0  0  0
  139.4248   75.1721  221.5746 H   0  0  0  0  0  0  0  0  0  0  0  0
  143.2297   73.4521  221.4392 H   0  0  0  0  0  0  0  0  0  0  0  0
  142.7009   72.6201  219.9481 H   0  0  0  0  0  0  0  0  0  0  0  0
  144.7591   74.7904  220.3344 H   0  0  0  0  0  0  0  0  0  0  0  0
  144.7404   73.3782  219.1960 H   0  0  0  0  0  0  0  0  0  0  0  0
  144.6050   75.5587  218.0737 H   0  0  0  0  0  0  0  0  0  0  0  0
  143.1546   74.4460  217.8162 H   0  0  0  0  0  0  0  0  0  0  0  0
  143.2943   77.1487  218.8682 H   0  0  0  0  0  0  0  0  0  0  0  0
  141.9332   76.2133  218.1660 H   0  0  0  0  0  0  0  0  0  0  0  0
  143.0307   76.1126  220.9903 H   0  0  0  0  0  0  0  0  0  0  0  0
  140.5935   77.6631  218.8763 H   0  0  0  0  0  0  0  0  0  0  0  0
  138.9374   79.2185  219.8151 H   0  0  0  0  0  0  0  0  0  0  0  0
  139.9834   77.8588  223.7652 H   0  0  0  0  0  0  0  0  0  0  0  0
  141.6388   76.3071  222.7818 H   0  0  0  0  0  0  0  0  0  0  0  0
  139.0960   69.4063  222.8219 H   0  0  0  0  0  0  0  0  0  0  0  0
  139.2803   68.1961  225.0045 H   0  0  0  0  0  0  0  0  0  0  0  0
  139.8893   68.2156  227.3686 H   0  0  0  0  0  0  0  0  0  0  0  0
  140.7611   69.4194  229.3135 H   0  0  0  0  0  0  0  0  0  0  0  0
  141.4636   71.8231  229.1667 H   0  0  0  0  0  0  0  0  0  0  0  0
  141.2404   72.9433  226.9362 H   0  0  0  0  0  0  0  0  0  0  0  0
  1  2  2  0
  2  3  1  0
  3  4  1  0
  4  5  1  0
  5  6  2  0
  5  7  1  0
  7  8  1  0
  8  9  1  0
  9 10  1  0
 10 11  1  0
 11 12  1  0
 12 13  1  0
 13 14  2  0
 14 15  1  0
 15 16  2  0
 16 17  1  0
 17 18  1  0
 18 19  1  0
 18 20  1  0
 18 21  1  0
 16 22  1  0
 22 23  2  0
  2 24  1  0
 24 25  2  0
 25 26  1  0
 26 27  2  0
 27 28  1  0
 28 29  2  0
 29 30  1  0
 30 31  2  0
 31 32  1  0
 32 33  2  0
 12  7  1  0
 23 13  1  0
 33 24  1  0
 32 27  1  0
  3 34  1  0
  4 35  1  0
  4 36  1  0
  8 37  1  0
  8 38  1  0
  9 39  1  0
  9 40  1  0
 10 41  1  0
 10 42  1  0
 11 43  1  0
 11 44  1  0
 12 45  1  1
 14 46  1  0
 15 47  1  0
 22 48  1  0
 23 49  1  0
 25 50  1  0
 26 51  1  0
 28 52  1  0
 29 53  1  0
 30 54  1  0
 31 55  1  0
M  END
>  <smiles>  (100) 
O=C(NCC(=O)N1CCCCC1c1ccc(OC(F)(F)F)cc1)c1ccc2ccccc2n1

>  <score_type>  (100) 
oracle

>  <origin>  (100) 
autodockgpu

>  <m_score__min__energy>  (100) 
-8.6099999999999994

>  <m_primary>  (100) 
energy

>  <rmsd>  (100) 
2.3510529383622254

>  <m_score__min__rmsd>  (100) 
2.3510529383622254

>  <meeko>  (100) 
{"free_energy": -7.49, "intermolecular_energy": -9.57, "internal_energy": -1.86, "cluster_size": 16, "cluster_id": 1, "rank_in_cluster": 16}

>  <energy>  (100) 
-6.33

>  <cluster_rmsd>  (100) 
0.0

>  <cluster>  (100) 
6

$$$$
