
     RDKit          3D

 59 62  0  0  0  0  0  0  0  0999 V2000
  140.6820   77.8880  218.9600 O   0  0  0  0  0  0  0  0  0  0  0  0
  141.9500   77.7550  218.8620 C   0  0  0  0  0  0  0  0  0  0  0  0
  142.6650   78.9830  218.6880 N   0  0  0  0  0  0  0  0  0  0  0  0
  141.9270   80.1900  218.6450 C   0  0  0  0  0  0  0  0  0  0  0  0
  141.6940   80.9730  219.8370 C   0  0  0  0  0  0  0  0  0  0  0  0
  141.7340   82.2700  219.6220 O   0  0  0  0  0  0  0  0  0  0  0  0
  141.4400   80.6220  221.1670 N   0  0  0  0  0  0  0  0  0  0  0  0
  140.6190   81.1390  222.2270 C   0  0  0  0  0  0  0  0  0  0  0  0
  141.5140   81.0460  223.4530 C   0  0  0  0  0  0  0  0  0  0  0  0
  142.7020   80.2020  223.0410 C   0  0  0  0  0  0  0  0  0  0  0  0
  142.1320   79.4780  221.8120 C   0  0  1  0  0  0  0  0  0  0  0  0
  141.2210   78.4170  222.3010 C   0  0  0  0  0  0  0  0  0  0  0  0
  141.3440   77.1320  221.7150 N   0  0  0  0  0  0  0  0  0  0  0  0
  140.6510   76.0550  222.3270 C   0  0  0  0  0  0  0  0  0  0  0  0
  139.1660   76.2200  222.2080 C   0  0  0  0  0  0  0  0  0  0  0  0
  138.8350   76.2360  220.7120 C   0  0  0  0  0  0  0  0  0  0  0  0
  139.0460   74.8510  220.1470 C   0  0  0  0  0  0  0  0  0  0  0  0
  139.8380   73.9920  221.1190 C   0  0  0  0  0  0  0  0  0  0  0  0
  141.0470   74.7840  221.5600 C   0  0  0  0  0  0  0  0  0  0  0  0
  142.6010   76.4580  218.9220 C   0  0  0  0  0  0  0  0  0  0  0  0
  142.1820   75.5040  217.9980 C   0  0  0  0  0  0  0  0  0  0  0  0
  142.7010   74.2430  217.9360 C   0  0  0  0  0  0  0  0  0  0  0  0
  143.6960   73.9080  218.8450 C   0  0  0  0  0  0  0  0  0  0  0  0
  144.2230   72.6410  218.7900 C   0  0  0  0  0  0  0  0  0  0  0  0
  145.2030   72.3150  219.6880 C   0  0  0  0  0  0  0  0  0  0  0  0
  145.7530   71.0790  219.6710 F   0  0  0  0  0  0  0  0  0  0  0  0
  145.6080   73.2640  220.5930 C   0  0  0  0  0  0  0  0  0  0  0  0
  145.0730   74.5400  220.6440 C   0  0  0  0  0  0  0  0  0  0  0  0
  144.0760   74.8750  219.7330 C   0  0  0  0  0  0  0  0  0  0  0  0
  143.5520   76.1140  219.7780 N   0  0  0  0  0  0  0  0  0  0  0  0
  143.7100   78.9010  218.6030 H   0  0  0  0  0  0  0  0  0  0  0  0
  142.4508   80.8495  217.9374 H   0  0  0  0  0  0  0  0  0  0  0  0
  140.9158   79.8410  218.3887 H   0  0  0  0  0  0  0  0  0  0  0  0
  140.3327   82.1824  222.0284 H   0  0  0  0  0  0  0  0  0  0  0  0
  139.6756   80.5857  222.3445 H   0  0  0  0  0  0  0  0  0  0  0  0
  141.8460   82.0486  223.7605 H   0  0  0  0  0  0  0  0  0  0  0  0
  140.9817   80.6019  224.3071 H   0  0  0  0  0  0  0  0  0  0  0  0
  143.5689   80.8256  222.7770 H   0  0  0  0  0  0  0  0  0  0  0  0
  143.0787   79.5327  223.8284 H   0  0  0  0  0  0  0  0  0  0  0  0
  142.8265   78.9637  221.1315 H   0  0  0  0  0  0  0  0  0  0  0  0
  141.3943   78.3051  223.3815 H   0  0  0  0  0  0  0  0  0  0  0  0
  140.2138   78.7592  222.0210 H   0  0  0  0  0  0  0  0  0  0  0  0
  142.2670   76.9290  221.3150 H   0  0  0  0  0  0  0  0  0  0  0  0
  140.9099   76.0110  223.3952 H   0  0  0  0  0  0  0  0  0  0  0  0
  138.6522   75.3808  222.6995 H   0  0  0  0  0  0  0  0  0  0  0  0
  138.8344   77.1499  222.6932 H   0  0  0  0  0  0  0  0  0  0  0  0
  137.7866   76.5367  220.5694 H   0  0  0  0  0  0  0  0  0  0  0  0
  139.4896   76.9524  220.1941 H   0  0  0  0  0  0  0  0  0  0  0  0
  138.0678   74.3821  219.9643 H   0  0  0  0  0  0  0  0  0  0  0  0
  139.6098   74.9338  219.2061 H   0  0  0  0  0  0  0  0  0  0  0  0
  139.2154   73.7436  221.9912 H   0  0  0  0  0  0  0  0  0  0  0  0
  140.1496   73.0543  220.6356 H   0  0  0  0  0  0  0  0  0  0  0  0
  141.6665   74.1526  222.2139 H   0  0  0  0  0  0  0  0  0  0  0  0
  141.6020   75.0879  220.6602 H   0  0  0  0  0  0  0  0  0  0  0  0
  141.3936   75.7804  217.2825 H   0  0  0  0  0  0  0  0  0  0  0  0
  142.3432   73.5168  217.1913 H   0  0  0  0  0  0  0  0  0  0  0  0
  143.8685   71.9110  218.0474 H   0  0  0  0  0  0  0  0  0  0  0  0
  146.3960   72.9979  221.3129 H   0  0  0  0  0  0  0  0  0  0  0  0
  145.4272   75.2706  221.3861 H   0  0  0  0  0  0  0  0  0  0  0  0
  1  2  2  0
  2  3  1  0
  3  4  1  0
  4  5  1  0
  5  6  2  0
  5  7  1  0
  7  8  1  0
  8  9  1  0
  9 10  1  0
 10 11  1  0
 11 12  1  0
 12 13  1  0
 13 14  1  0
 14 15  1  0
 15 16  1  0
 16 17  1  0
 17 18  1  0
 18 19  1  0
  2 20  1  0
 20 21  2  0
 21 22  1  0
 22 23  2  0
 23 24  1  0
 24 25  2  0
 25 26  1  0
 25 27  1  0
 27 28  2  0
 28 29  1  0
 29 30  2  0
 11  7  1  0
 19 14  1  0
 30 20  1  0
 29 23  1  0
  3 31  1  0
  4 32  1  0
  4 33  1  0
  8 34  1  0
  8 35  1  0
  9 36  1  0
  9 37  1  0
 10 38  1  0
 10 39  1  0
 11 40  1  6
 12 41  1  0
 12 42  1  0
 13 43  1  0
 14 44  1  0
 15 45  1  0
 15 46  1  0
 16 47  1  0
 16 48  1  0
 17 49  1  0
 17 50  1  0
 18 51  1  0
 18 52  1  0
 19 53  1  0
 19 54  1  0
 21 55  1  0
 22 56  1  0
 24 57  1  0
 27 58  1  0
 28 59  1  0
M  END
>  <smiles>  (1) 
O=C(NCC(=O)N1CCC[C@H]1CNC1CCCCC1)c1ccc2cc(F)ccc2n1

>  <score_type>  (1) 
oracle

>  <origin>  (1) 
autodockgpu

>  <m_score__min__energy>  (1) 
-8.9399999999999995

>  <m_primary>  (1) 
energy

>  <rmsd>  (1) 
7.515159115037317

>  <m_score__min__rmsd>  (1) 
7.515159115037317

>  <meeko>  (1) 
{"free_energy": -6.44, "intermolecular_energy": -8.53, "internal_energy": -3.65, "cluster_size": 10, "cluster_id": 7, "rank_in_cluster": 4}

>  <energy>  (1) 
-8.94

>  <cluster_rmsd>  (1) 
0.0

>  <cluster>  (1) 
1

$$$$

     RDKit          3D

 59 62  0  0  0  0  0  0  0  0999 V2000
  140.8540   73.0690  222.4050 O   0  0  0  0  0  0  0  0  0  0  0  0
  140.5870   73.9920  221.5610 C   0  0  0  0  0  0  0  0  0  0  0  0
  140.6840   73.5920  220.1910 N   0  0  0  0  0  0  0  0  0  0  0  0
  141.0520   72.2540  219.9060 C   0  0  0  0  0  0  0  0  0  0  0  0
  142.4350   71.8390  219.9030 C   0  0  0  0  0  0  0  0  0  0  0  0
  142.5880   70.5420  220.0630 O   0  0  0  0  0  0  0  0  0  0  0  0
  143.6370   72.5430  219.7680 N   0  0  0  0  0  0  0  0  0  0  0  0
  144.7390   72.5260  218.8460 C   0  0  0  0  0  0  0  0  0  0  0  0
  145.9600   72.6540  219.7430 C   0  0  0  0  0  0  0  0  0  0  0  0
  145.4360   73.0270  221.1140 C   0  0  0  0  0  0  0  0  0  0  0  0
  144.0460   73.5740  220.7550 C   0  0  1  0  0  0  0  0  0  0  0  0
  144.2330   74.9250  220.1770 C   0  0  0  0  0  0  0  0  0  0  0  0
  143.0920   75.7620  220.0960 N   0  0  0  0  0  0  0  0  0  0  0  0
  143.1170   76.8270  219.1570 C   0  0  0  0  0  0  0  0  0  0  0  0
  142.5790   76.3980  217.8260 C   0  0  0  0  0  0  0  0  0  0  0  0
  141.1250   75.9670  218.0480 C   0  0  0  0  0  0  0  0  0  0  0  0
  140.2900   77.1900  218.3490 C   0  0  0  0  0  0  0  0  0  0  0  0
  141.1800   78.3760  218.6830 C   0  0  0  0  0  0  0  0  0  0  0  0
  142.1920   77.9220  219.7100 C   0  0  0  0  0  0  0  0  0  0  0  0
  140.2170   75.3360  221.9720 C   0  0  0  0  0  0  0  0  0  0  0  0
  138.8580   75.6410  221.9610 C   0  0  0  0  0  0  0  0  0  0  0  0
  138.3620   76.8610  222.3190 C   0  0  0  0  0  0  0  0  0  0  0  0
  139.2670   77.8380  222.7120 C   0  0  0  0  0  0  0  0  0  0  0  0
  138.7760   79.0680  223.0730 C   0  0  0  0  0  0  0  0  0  0  0  0
  139.6720   80.0280  223.4590 C   0  0  0  0  0  0  0  0  0  0  0  0
  139.2350   81.2560  223.8240 F   0  0  0  0  0  0  0  0  0  0  0  0
  141.0090   79.7150  223.4660 C   0  0  0  0  0  0  0  0  0  0  0  0
  141.4980   78.4720  223.1000 C   0  0  0  0  0  0  0  0  0  0  0  0
  140.5900   77.4950  222.7070 C   0  0  0  0  0  0  0  0  0  0  0  0
  141.0600   76.2840  222.3510 N   0  0  0  0  0  0  0  0  0  0  0  0
  140.4720   74.3340  219.4760 H   0  0  0  0  0  0  0  0  0  0  0  0
  140.5405   71.6257  220.6500 H   0  0  0  0  0  0  0  0  0  0  0  0
  140.7703   72.1502  218.8478 H   0  0  0  0  0  0  0  0  0  0  0  0
  144.7639   71.5822  218.2816 H   0  0  0  0  0  0  0  0  0  0  0  0
  144.6774   73.3251  218.0926 H   0  0  0  0  0  0  0  0  0  0  0  0
  146.5023   71.6980  219.7885 H   0  0  0  0  0  0  0  0  0  0  0  0
  146.6618   73.4102  219.3614 H   0  0  0  0  0  0  0  0  0  0  0  0
  145.3672   72.1491  221.7732 H   0  0  0  0  0  0  0  0  0  0  0  0
  146.0730   73.7327  221.6673 H   0  0  0  0  0  0  0  0  0  0  0  0
  143.3069   73.7094  221.5584 H   0  0  0  0  0  0  0  0  0  0  0  0
  144.9820   75.4462  220.7913 H   0  0  0  0  0  0  0  0  0  0  0  0
  144.5265   74.7465  219.1320 H   0  0  0  0  0  0  0  0  0  0  0  0
  142.6230   75.9360  220.9910 H   0  0  0  0  0  0  0  0  0  0  0  0
  144.1528   77.1695  219.0164 H   0  0  0  0  0  0  0  0  0  0  0  0
  142.6202   77.2356  217.1141 H   0  0  0  0  0  0  0  0  0  0  0  0
  143.1741   75.5717  217.4099 H   0  0  0  0  0  0  0  0  0  0  0  0
  140.7439   75.4742  217.1414 H   0  0  0  0  0  0  0  0  0  0  0  0
  141.0706   75.2630  218.8915 H   0  0  0  0  0  0  0  0  0  0  0  0
  139.6767   77.4346  217.4692 H   0  0  0  0  0  0  0  0  0  0  0  0
  139.6454   76.9754  219.2141 H   0  0  0  0  0  0  0  0  0  0  0  0
  141.6973   78.7223  217.7761 H   0  0  0  0  0  0  0  0  0  0  0  0
  140.5783   79.2074  219.0790 H   0  0  0  0  0  0  0  0  0  0  0  0
  142.8035   78.7849  220.0125 H   0  0  0  0  0  0  0  0  0  0  0  0
  141.6440   77.5046  220.5676 H   0  0  0  0  0  0  0  0  0  0  0  0
  138.1494   74.8599  221.6483 H   0  0  0  0  0  0  0  0  0  0  0  0
  137.2810   77.0636  222.2969 H   0  0  0  0  0  0  0  0  0  0  0  0
  137.6960   79.2757  223.0527 H   0  0  0  0  0  0  0  0  0  0  0  0
  141.7262   80.4888  223.7773 H   0  0  0  0  0  0  0  0  0  0  0  0
  142.5778   78.2629  223.1197 H   0  0  0  0  0  0  0  0  0  0  0  0
  1  2  2  0
  2  3  1  0
  3  4  1  0
  4  5  1  0
  5  6  2  0
  5  7  1  0
  7  8  1  0
  8  9  1  0
  9 10  1  0
 10 11  1  0
 11 12  1  0
 12 13  1  0
 13 14  1  0
 14 15  1  0
 15 16  1  0
 16 17  1  0
 17 18  1  0
 18 19  1  0
  2 20  1  0
 20 21  2  0
 21 22  1  0
 22 23  2  0
 23 24  1  0
 24 25  2  0
 25 26  1  0
 25 27  1  0
 27 28  2  0
 28 29  1  0
 29 30  2  0
 11  7  1  0
 19 14  1  0
 30 20  1  0
 29 23  1  0
  3 31  1  0
  4 32  1  0
  4 33  1  0
  8 34  1  0
  8 35  1  0
  9 36  1  0
  9 37  1  0
 10 38  1  0
 10 39  1  0
 11 40  1  1
 12 41  1  0
 12 42  1  0
 13 43  1  0
 14 44  1  0
 15 45  1  0
 15 46  1  0
 16 47  1  0
 16 48  1  0
 17 49  1  0
 17 50  1  0
 18 51  1  0
 18 52  1  0
 19 53  1  0
 19 54  1  0
 21 55  1  0
 22 56  1  0
 24 57  1  0
 27 58  1  0
 28 59  1  0
M  END
>  <smiles>  (2) 
O=C(NCC(=O)N1CCC[C@H]1CNC1CCCCC1)c1ccc2cc(F)ccc2n1

>  <score_type>  (2) 
oracle

>  <origin>  (2) 
autodockgpu

>  <m_score__min__energy>  (2) 
-8.9399999999999995

>  <m_primary>  (2) 
energy

>  <rmsd>  (2) 
6.796728638170679

>  <m_score__min__rmsd>  (2) 
6.796728638170679

>  <meeko>  (2) 
{"free_energy": -6.25, "intermolecular_energy": -8.34, "internal_energy": -3.82, "cluster_size": 3, "cluster_id": 8, "rank_in_cluster": 2}

>  <energy>  (2) 
-8.93

>  <cluster_rmsd>  (2) 
0.71

>  <cluster>  (2) 
1

$$$$

     RDKit          3D

 59 62  0  0  0  0  0  0  0  0999 V2000
  141.1240   72.3050  221.7650 O   0  0  0  0  0  0  0  0  0  0  0  0
  140.1910   72.3550  222.6380 C   0  0  0  0  0  0  0  0  0  0  0  0
  139.1710   73.3200  222.3640 N   0  0  0  0  0  0  0  0  0  0  0  0
  139.2840   74.1030  221.1900 C   0  0  0  0  0  0  0  0  0  0  0  0
  140.1750   75.2380  221.1260 C   0  0  0  0  0  0  0  0  0  0  0  0
  141.0940   75.2300  222.0670 O   0  0  0  0  0  0  0  0  0  0  0  0
  140.2470   76.3390  220.2660 N   0  0  0  0  0  0  0  0  0  0  0  0
  139.2970   77.1860  219.5990 C   0  0  0  0  0  0  0  0  0  0  0  0
  139.8870   77.3660  218.2090 C   0  0  0  0  0  0  0  0  0  0  0  0
  141.3010   76.8270  218.2820 C   0  0  0  0  0  0  0  0  0  0  0  0
  141.5510   76.8710  219.7970 C   0  0  1  0  0  0  0  0  0  0  0  0
  141.7970   78.2840  220.1680 C   0  0  0  0  0  0  0  0  0  0  0  0
  142.1860   78.5490  221.5050 N   0  0  0  0  0  0  0  0  0  0  0  0
  141.1680   78.8690  222.4410 C   0  0  0  0  0  0  0  0  0  0  0  0
  141.7300   79.0680  223.8160 C   0  0  0  0  0  0  0  0  0  0  0  0
  142.7130   80.2410  223.7340 C   0  0  0  0  0  0  0  0  0  0  0  0
  141.9370   81.5190  223.5190 C   0  0  0  0  0  0  0  0  0  0  0  0
  140.5070   81.2140  223.1050 C   0  0  0  0  0  0  0  0  0  0  0  0
  140.5540   80.2010  221.9840 C   0  0  0  0  0  0  0  0  0  0  0  0
  140.1780   71.4950  223.8090 C   0  0  0  0  0  0  0  0  0  0  0  0
  139.6220   70.2280  223.6490 C   0  0  0  0  0  0  0  0  0  0  0  0
  139.5400   69.3140  224.6590 C   0  0  0  0  0  0  0  0  0  0  0  0
  140.0380   69.6780  225.9030 C   0  0  0  0  0  0  0  0  0  0  0  0
  139.9570   68.7640  226.9250 C   0  0  0  0  0  0  0  0  0  0  0  0
  140.4490   69.1270  228.1500 C   0  0  0  0  0  0  0  0  0  0  0  0
  140.3930   68.2600  229.1870 F   0  0  0  0  0  0  0  0  0  0  0  0
  140.9950   70.3790  228.2940 C   0  0  0  0  0  0  0  0  0  0  0  0
  141.0730   71.2960  227.2610 C   0  0  0  0  0  0  0  0  0  0  0  0
  140.5730   70.9300  226.0150 C   0  0  0  0  0  0  0  0  0  0  0  0
  140.6470   71.8180  225.0050 N   0  0  0  0  0  0  0  0  0  0  0  0
  138.3920   73.3810  223.0680 H   0  0  0  0  0  0  0  0  0  0  0  0
  139.5954   73.4176  220.3879 H   0  0  0  0  0  0  0  0  0  0  0  0
  138.2926   74.5748  221.1225 H   0  0  0  0  0  0  0  0  0  0  0  0
  138.3101   76.7030  219.5466 H   0  0  0  0  0  0  0  0  0  0  0  0
  139.1376   78.1410  220.1211 H   0  0  0  0  0  0  0  0  0  0  0  0
  139.3006   76.8016  217.4690 H   0  0  0  0  0  0  0  0  0  0  0  0
  139.8738   78.4215  217.8995 H   0  0  0  0  0  0  0  0  0  0  0  0
  141.3631   75.8005  217.8916 H   0  0  0  0  0  0  0  0  0  0  0  0
  142.0331   77.3896  217.6841 H   0  0  0  0  0  0  0  0  0  0  0  0
  142.4075   76.3164  220.2079 H   0  0  0  0  0  0  0  0  0  0  0  0
  142.5935   78.6637  219.5112 H   0  0  0  0  0  0  0  0  0  0  0  0
  140.8208   78.7784  220.0558 H   0  0  0  0  0  0  0  0  0  0  0  0
  143.0830   79.0370  221.6030 H   0  0  0  0  0  0  0  0  0  0  0  0
  140.4353   78.0496  222.4827 H   0  0  0  0  0  0  0  0  0  0  0  0
  140.9214   79.3018  224.5242 H   0  0  0  0  0  0  0  0  0  0  0  0
  142.2353   78.1568  224.1687 H   0  0  0  0  0  0  0  0  0  0  0  0
  143.2842   80.3097  224.6715 H   0  0  0  0  0  0  0  0  0  0  0  0
  143.4097   80.0841  222.8974 H   0  0  0  0  0  0  0  0  0  0  0  0
  141.9268   82.0974  224.4546 H   0  0  0  0  0  0  0  0  0  0  0  0
  142.4218   82.0976  222.7189 H   0  0  0  0  0  0  0  0  0  0  0  0
  139.9507   80.8007  223.9592 H   0  0  0  0  0  0  0  0  0  0  0  0
  140.0006   82.1317  222.7712 H   0  0  0  0  0  0  0  0  0  0  0  0
  139.5296   80.0168  221.6279 H   0  0  0  0  0  0  0  0  0  0  0  0
  141.1853   80.6098  221.1813 H   0  0  0  0  0  0  0  0  0  0  0  0
  139.2296   69.9504  222.6596 H   0  0  0  0  0  0  0  0  0  0  0  0
  139.0943   68.3221  224.4932 H   0  0  0  0  0  0  0  0  0  0  0  0
  139.5108   67.7715  226.7643 H   0  0  0  0  0  0  0  0  0  0  0  0
  141.3898   70.6669  229.2795 H   0  0  0  0  0  0  0  0  0  0  0  0
  141.5188   72.2889  227.4205 H   0  0  0  0  0  0  0  0  0  0  0  0
  1  2  2  0
  2  3  1  0
  3  4  1  0
  4  5  1  0
  5  6  2  0
  5  7  1  0
  7  8  1  0
  8  9  1  0
  9 10  1  0
 10 11  1  0
 11 12  1  0
 12 13  1  0
 13 14  1  0
 14 15  1  0
 15 16  1  0
 16 17  1  0
 17 18  1  0
 18 19  1  0
  2 20  1  0
 20 21  2  0
 21 22  1  0
 22 23  2  0
 23 24  1  0
 24 25  2  0
 25 26  1  0
 25 27  1  0
 27 28  2  0
 28 29  1  0
 29 30  2  0
 11  7  1  0
 19 14  1  0
 30 20  1  0
 29 23  1  0
  3 31  1  0
  4 32  1  0
  4 33  1  0
  8 34  1  0
  8 35  1  0
  9 36  1  0
  9 37  1  0
 10 38  1  0
 10 39  1  0
 11 40  1  6
 12 41  1  0
 12 42  1  0
 13 43  1  0
 14 44  1  0
 15 45  1  0
 15 46  1  0
 16 47  1  0
 16 48  1  0
 17 49  1  0
 17 50  1  0
 18 51  1  0
 18 52  1  0
 19 53  1  0
 19 54  1  0
 21 55  1  0
 22 56  1  0
 24 57  1  0
 27 58  1  0
 28 59  1  0
M  END
>  <smiles>  (3) 
O=C(NCC(=O)N1CCC[C@H]1CNC1CCCCC1)c1ccc2cc(F)ccc2n1

>  <score_type>  (3) 
oracle

>  <origin>  (3) 
autodockgpu

>  <m_score__min__energy>  (3) 
-8.9399999999999995

>  <m_primary>  (3) 
energy

>  <rmsd>  (3) 
2.05501216579167

>  <m_score__min__rmsd>  (3) 
2.05501216579167

>  <meeko>  (3) 
{"free_energy": -8.94, "intermolecular_energy": -11.03, "internal_energy": -1.5, "cluster_size": 22, "cluster_id": 1, "rank_in_cluster": 1}

>  <energy>  (3) 
-8.89

>  <cluster_rmsd>  (3) 
0.63

>  <cluster>  (3) 
1

$$$$

     RDKit          3D

 59 62  0  0  0  0  0  0  0  0999 V2000
  140.9580   72.3640  221.9220 O   0  0  0  0  0  0  0  0  0  0  0  0
  139.9910   72.2400  222.7500 C   0  0  0  0  0  0  0  0  0  0  0  0
  138.8390   73.0320  222.4430 N   0  0  0  0  0  0  0  0  0  0  0  0
  138.8750   73.8510  221.2880 C   0  0  0  0  0  0  0  0  0  0  0  0
  139.6690   75.0570  221.2460 C   0  0  0  0  0  0  0  0  0  0  0  0
  139.5550   75.7920  222.3320 O   0  0  0  0  0  0  0  0  0  0  0  0
  140.5260   75.5940  220.2800 N   0  0  0  0  0  0  0  0  0  0  0  0
  140.5110   75.7200  218.8490 C   0  0  0  0  0  0  0  0  0  0  0  0
  141.9370   75.3850  218.4420 C   0  0  0  0  0  0  0  0  0  0  0  0
  142.7450   75.3710  219.7230 C   0  0  0  0  0  0  0  0  0  0  0  0
  141.8340   76.1910  220.6500 C   0  0  1  0  0  0  0  0  0  0  0  0
  141.9790   77.6160  220.2730 C   0  0  0  0  0  0  0  0  0  0  0  0
  142.1780   78.5500  221.3210 N   0  0  0  0  0  0  0  0  0  0  0  0
  141.1500   78.6890  222.2890 C   0  0  0  0  0  0  0  0  0  0  0  0
  141.7120   78.8030  223.6740 C   0  0  0  0  0  0  0  0  0  0  0  0
  142.5900   80.0600  223.6990 C   0  0  0  0  0  0  0  0  0  0  0  0
  141.7030   81.2800  223.6140 C   0  0  0  0  0  0  0  0  0  0  0  0
  140.2990   80.8930  223.1820 C   0  0  0  0  0  0  0  0  0  0  0  0
  140.4170   80.0010  221.9680 C   0  0  0  0  0  0  0  0  0  0  0  0
  140.0660   71.3630  223.9050 C   0  0  0  0  0  0  0  0  0  0  0  0
  139.5880   70.0660  223.7380 C   0  0  0  0  0  0  0  0  0  0  0  0
  139.5930   69.1310  224.7330 C   0  0  0  0  0  0  0  0  0  0  0  0
  140.1030   69.5050  225.9690 C   0  0  0  0  0  0  0  0  0  0  0  0
  140.1100   68.5720  226.9760 C   0  0  0  0  0  0  0  0  0  0  0  0
  140.6130   68.9460  228.1920 C   0  0  0  0  0  0  0  0  0  0  0  0
  140.6430   68.0590  229.2150 F   0  0  0  0  0  0  0  0  0  0  0  0
  141.0820   70.2270  228.3450 C   0  0  0  0  0  0  0  0  0  0  0  0
  141.0720   71.1640  227.3260 C   0  0  0  0  0  0  0  0  0  0  0  0
  140.5610   70.7870  226.0880 C   0  0  0  0  0  0  0  0  0  0  0  0
  140.5480   71.6950  225.0930 N   0  0  0  0  0  0  0  0  0  0  0  0
  138.0300   72.9490  223.1100 H   0  0  0  0  0  0  0  0  0  0  0  0
  139.2334   73.2139  220.4660 H   0  0  0  0  0  0  0  0  0  0  0  0
  137.8475   74.2409  221.2407 H   0  0  0  0  0  0  0  0  0  0  0  0
  139.7986   75.0120  218.4005 H   0  0  0  0  0  0  0  0  0  0  0  0
  140.1954   76.7186  218.5126 H   0  0  0  0  0  0  0  0  0  0  0  0
  141.9740   74.3988  217.9561 H   0  0  0  0  0  0  0  0  0  0  0  0
  142.3335   76.1178  217.7238 H   0  0  0  0  0  0  0  0  0  0  0  0
  142.8888   74.3474  220.0993 H   0  0  0  0  0  0  0  0  0  0  0  0
  143.7656   75.7684  219.6210 H   0  0  0  0  0  0  0  0  0  0  0  0
  142.0203   76.1652  221.7338 H   0  0  0  0  0  0  0  0  0  0  0  0
  142.8417   77.6920  219.5948 H   0  0  0  0  0  0  0  0  0  0  0  0
  141.0099   77.8906  219.8309 H   0  0  0  0  0  0  0  0  0  0  0  0
  142.6830   79.4000  221.0470 H   0  0  0  0  0  0  0  0  0  0  0  0
  140.4913   77.8087  222.2543 H   0  0  0  0  0  0  0  0  0  0  0  0
  140.8965   78.8971  224.4061 H   0  0  0  0  0  0  0  0  0  0  0  0
  142.2980   77.9094  223.9348 H   0  0  0  0  0  0  0  0  0  0  0  0
  143.1675   80.0881  224.6348 H   0  0  0  0  0  0  0  0  0  0  0  0
  143.2852   80.0453  222.8467 H   0  0  0  0  0  0  0  0  0  0  0  0
  141.6570   81.7627  224.6014 H   0  0  0  0  0  0  0  0  0  0  0  0
  142.1239   81.9726  222.8703 H   0  0  0  0  0  0  0  0  0  0  0  0
  139.7931   80.3523  223.9955 H   0  0  0  0  0  0  0  0  0  0  0  0
  139.7101   81.7907  222.9426 H   0  0  0  0  0  0  0  0  0  0  0  0
  139.4073   79.7637  221.6018 H   0  0  0  0  0  0  0  0  0  0  0  0
  140.9996   80.5388  221.2055 H   0  0  0  0  0  0  0  0  0  0  0  0
  139.1860   69.7801  222.7548 H   0  0  0  0  0  0  0  0  0  0  0  0
  139.2061   68.1157  224.5612 H   0  0  0  0  0  0  0  0  0  0  0  0
  139.7233   67.5556  226.8103 H   0  0  0  0  0  0  0  0  0  0  0  0
  141.4852   70.5233  229.3246 H   0  0  0  0  0  0  0  0  0  0  0  0
  141.4582   72.1807  227.4909 H   0  0  0  0  0  0  0  0  0  0  0  0
  1  2  2  0
  2  3  1  0
  3  4  1  0
  4  5  1  0
  5  6  2  0
  5  7  1  0
  7  8  1  0
  8  9  1  0
  9 10  1  0
 10 11  1  0
 11 12  1  0
 12 13  1  0
 13 14  1  0
 14 15  1  0
 15 16  1  0
 16 17  1  0
 17 18  1  0
 18 19  1  0
  2 20  1  0
 20 21  2  0
 21 22  1  0
 22 23  2  0
 23 24  1  0
 24 25  2  0
 25 26  1  0
 25 27  1  0
 27 28  2  0
 28 29  1  0
 29 30  2  0
 11  7  1  0
 19 14  1  0
 30 20  1  0
 29 23  1  0
  3 31  1  0
  4 32  1  0
  4 33  1  0
  8 34  1  0
  8 35  1  0
  9 36  1  0
  9 37  1  0
 10 38  1  0
 10 39  1  0
 11 40  1  1
 12 41  1  0
 12 42  1  0
 13 43  1  0
 14 44  1  0
 15 45  1  0
 15 46  1  0
 16 47  1  0
 16 48  1  0
 17 49  1  0
 17 50  1  0
 18 51  1  0
 18 52  1  0
 19 53  1  0
 19 54  1  0
 21 55  1  0
 22 56  1  0
 24 57  1  0
 27 58  1  0
 28 59  1  0
M  END
>  <smiles>  (4) 
O=C(NCC(=O)N1CCC[C@H]1CNC1CCCCC1)c1ccc2cc(F)ccc2n1

>  <score_type>  (4) 
oracle

>  <origin>  (4) 
autodockgpu

>  <m_score__min__energy>  (4) 
-8.9399999999999995

>  <m_primary>  (4) 
energy

>  <rmsd>  (4) 
2.188664930476872

>  <m_score__min__rmsd>  (4) 
2.188664930476872

>  <meeko>  (4) 
{"free_energy": -8.86, "intermolecular_energy": -10.95, "internal_energy": -1.57, "cluster_size": 22, "cluster_id": 1, "rank_in_cluster": 5}

>  <energy>  (4) 
-8.87

>  <cluster_rmsd>  (4) 
1.44

>  <cluster>  (4) 
1

$$$$

     RDKit          3D

 59 62  0  0  0  0  0  0  0  0999 V2000
  141.0510   72.5820  222.4950 O   0  0  0  0  0  0  0  0  0  0  0  0
  140.0700   72.1270  223.1770 C   0  0  0  0  0  0  0  0  0  0  0  0
  138.7800   72.4120  222.6280 N   0  0  0  0  0  0  0  0  0  0  0  0
  138.7110   73.1450  221.4190 C   0  0  0  0  0  0  0  0  0  0  0  0
  139.2590   74.4770  221.3150 C   0  0  0  0  0  0  0  0  0  0  0  0
  138.7480   75.3190  222.1880 O   0  0  0  0  0  0  0  0  0  0  0  0
  140.2190   75.0440  220.4690 N   0  0  0  0  0  0  0  0  0  0  0  0
  140.5220   74.9750  219.0670 C   0  0  0  0  0  0  0  0  0  0  0  0
  142.0390   74.8840  219.0300 C   0  0  0  0  0  0  0  0  0  0  0  0
  142.5110   75.2020  220.4330 C   0  0  0  0  0  0  0  0  0  0  0  0
  141.2840   75.9360  220.9940 C   0  0  1  0  0  0  0  0  0  0  0  0
  141.2740   77.2980  220.4140 C   0  0  0  0  0  0  0  0  0  0  0  0
  141.8670   78.3360  221.1760 N   0  0  0  0  0  0  0  0  0  0  0  0
  141.0310   79.3920  221.6230 C   0  0  0  0  0  0  0  0  0  0  0  0
  140.6730   79.2330  223.0700 C   0  0  0  0  0  0  0  0  0  0  0  0
  141.9840   79.2700  223.8630 C   0  0  0  0  0  0  0  0  0  0  0  0
  142.5410   80.6740  223.8260 C   0  0  0  0  0  0  0  0  0  0  0  0
  141.8470   81.4980  222.7530 C   0  0  0  0  0  0  0  0  0  0  0  0
  141.8430   80.6880  221.4770 C   0  0  0  0  0  0  0  0  0  0  0  0
  140.2610   71.3810  224.4090 C   0  0  0  0  0  0  0  0  0  0  0  0
  141.0640   71.9750  225.3810 C   0  0  0  0  0  0  0  0  0  0  0  0
  141.3350   71.3940  226.5860 C   0  0  0  0  0  0  0  0  0  0  0  0
  140.7760   70.1490  226.8440 C   0  0  0  0  0  0  0  0  0  0  0  0
  141.0440   69.5570  228.0540 C   0  0  0  0  0  0  0  0  0  0  0  0
  140.4910   68.3310  228.3030 C   0  0  0  0  0  0  0  0  0  0  0  0
  140.7260   67.7080  229.4820 F   0  0  0  0  0  0  0  0  0  0  0  0
  139.7010   67.7570  227.3380 C   0  0  0  0  0  0  0  0  0  0  0  0
  139.4340   68.3580  226.1200 C   0  0  0  0  0  0  0  0  0  0  0  0
  139.9950   69.6050  225.8630 C   0  0  0  0  0  0  0  0  0  0  0  0
  139.7390   70.1950  224.6800 N   0  0  0  0  0  0  0  0  0  0  0  0
  137.9550   72.0490  223.1720 H   0  0  0  0  0  0  0  0  0  0  0  0
  139.2228   72.5379  220.6577 H   0  0  0  0  0  0  0  0  0  0  0  0
  137.6310   73.3231  221.3102 H   0  0  0  0  0  0  0  0  0  0  0  0
  140.0644   74.0851  218.6102 H   0  0  0  0  0  0  0  0  0  0  0  0
  140.1328   75.8361  218.5040 H   0  0  0  0  0  0  0  0  0  0  0  0
  142.3541   73.8704  218.7414 H   0  0  0  0  0  0  0  0  0  0  0  0
  142.4664   75.5806  218.2938 H   0  0  0  0  0  0  0  0  0  0  0  0
  142.7302   74.2870  221.0029 H   0  0  0  0  0  0  0  0  0  0  0  0
  143.4456   75.7804  220.4774 H   0  0  0  0  0  0  0  0  0  0  0  0
  141.2106   76.0911  222.0805 H   0  0  0  0  0  0  0  0  0  0  0  0
  141.8047   77.2507  219.4516 H   0  0  0  0  0  0  0  0  0  0  0  0
  140.2097   77.5687  220.3502 H   0  0  0  0  0  0  0  0  0  0  0  0
  142.8240   78.5800  220.8980 H   0  0  0  0  0  0  0  0  0  0  0  0
  140.1011   79.3990  221.0355 H   0  0  0  0  0  0  0  0  0  0  0  0
  140.0153   80.0551  223.3889 H   0  0  0  0  0  0  0  0  0  0  0  0
  140.1380   78.2871  223.2402 H   0  0  0  0  0  0  0  0  0  0  0  0
  141.7929   78.9763  224.9057 H   0  0  0  0  0  0  0  0  0  0  0  0
  142.7076   78.5710  223.4182 H   0  0  0  0  0  0  0  0  0  0  0  0
  142.3849   81.1506  224.8050 H   0  0  0  0  0  0  0  0  0  0  0  0
  143.6151   80.6230  223.5941 H   0  0  0  0  0  0  0  0  0  0  0  0
  140.8137   81.7174  223.0599 H   0  0  0  0  0  0  0  0  0  0  0  0
  142.3740   82.4514  222.6006 H   0  0  0  0  0  0  0  0  0  0  0  0
  141.4025   81.2948  220.6721 H   0  0  0  0  0  0  0  0  0  0  0  0
  142.8826   80.4142  221.2440 H   0  0  0  0  0  0  0  0  0  0  0  0
  141.5012   72.9613  225.1663 H   0  0  0  0  0  0  0  0  0  0  0  0
  141.9745   71.8949  227.3277 H   0  0  0  0  0  0  0  0  0  0  0  0
  141.6831   70.0531  228.7992 H   0  0  0  0  0  0  0  0  0  0  0  0
  139.2584   66.7710  227.5428 H   0  0  0  0  0  0  0  0  0  0  0  0
  138.7948   67.8625  225.3745 H   0  0  0  0  0  0  0  0  0  0  0  0
  1  2  2  0
  2  3  1  0
  3  4  1  0
  4  5  1  0
  5  6  2  0
  5  7  1  0
  7  8  1  0
  8  9  1  0
  9 10  1  0
 10 11  1  0
 11 12  1  0
 12 13  1  0
 13 14  1  0
 14 15  1  0
 15 16  1  0
 16 17  1  0
 17 18  1  0
 18 19  1  0
  2 20  1  0
 20 21  2  0
 21 22  1  0
 22 23  2  0
 23 24  1  0
 24 25  2  0
 25 26  1  0
 25 27  1  0
 27 28  2  0
 28 29  1  0
 29 30  2  0
 11  7  1  0
 19 14  1  0
 30 20  1  0
 29 23  1  0
  3 31  1  0
  4 32  1  0
  4 33  1  0
  8 34  1  0
  8 35  1  0
  9 36  1  0
  9 37  1  0
 10 38  1  0
 10 39  1  0
 11 40  1  1
 12 41  1  0
 12 42  1  0
 13 43  1  0
 14 44  1  0
 15 45  1  0
 15 46  1  0
 16 47  1  0
 16 48  1  0
 17 49  1  0
 17 50  1  0
 18 51  1  0
 18 52  1  0
 19 53  1  0
 19 54  1  0
 21 55  1  0
 22 56  1  0
 24 57  1  0
 27 58  1  0
 28 59  1  0
M  END
>  <smiles>  (5) 
O=C(NCC(=O)N1CCC[C@H]1CNC1CCCCC1)c1ccc2cc(F)ccc2n1

>  <score_type>  (5) 
oracle

>  <origin>  (5) 
autodockgpu

>  <m_score__min__energy>  (5) 
-8.9399999999999995

>  <m_primary>  (5) 
energy

>  <rmsd>  (5) 
3.0169019582877206

>  <m_score__min__rmsd>  (5) 
3.0169019582877206

>  <meeko>  (5) 
{"free_energy": -8.54, "intermolecular_energy": -10.63, "internal_energy": -1.51, "cluster_size": 22, "cluster_id": 1, "rank_in_cluster": 11}

>  <energy>  (5) 
-8.86

>  <cluster_rmsd>  (5) 
0.71

>  <cluster>  (5) 
1

$$$$

     RDKit          3D

 59 62  0  0  0  0  0  0  0  0999 V2000
  139.0950   71.3180  221.6680 O   0  0  0  0  0  0  0  0  0  0  0  0
  139.8650   71.6100  222.6460 C   0  0  0  0  0  0  0  0  0  0  0  0
  140.6820   72.7650  222.4360 N   0  0  0  0  0  0  0  0  0  0  0  0
  140.5640   73.4570  221.2060 C   0  0  0  0  0  0  0  0  0  0  0  0
  140.2400   74.8640  221.1620 C   0  0  0  0  0  0  0  0  0  0  0  0
  139.6100   75.2850  222.2370 O   0  0  0  0  0  0  0  0  0  0  0  0
  140.4620   75.8580  220.2030 N   0  0  0  0  0  0  0  0  0  0  0  0
  139.6870   76.4670  219.1570 C   0  0  0  0  0  0  0  0  0  0  0  0
  140.6690   76.5780  218.0010 C   0  0  0  0  0  0  0  0  0  0  0  0
  142.0350   76.2770  218.5810 C   0  0  0  0  0  0  0  0  0  0  0  0
  141.7790   76.5310  220.0740 C   0  0  1  0  0  0  0  0  0  0  0  0
  141.7330   77.9970  220.2770 C   0  0  0  0  0  0  0  0  0  0  0  0
  142.1770   78.4970  221.5270 N   0  0  0  0  0  0  0  0  0  0  0  0
  141.2060   78.6980  222.5430 C   0  0  0  0  0  0  0  0  0  0  0  0
  141.8470   78.9160  223.8790 C   0  0  0  0  0  0  0  0  0  0  0  0
  142.7110   80.1780  223.7620 C   0  0  0  0  0  0  0  0  0  0  0  0
  141.8070   81.3830  223.6430 C   0  0  0  0  0  0  0  0  0  0  0  0
  140.3840   80.9550  223.3230 C   0  0  0  0  0  0  0  0  0  0  0  0
  140.4410   79.9780  222.1720 C   0  0  0  0  0  0  0  0  0  0  0  0
  139.9000   70.8240  223.8680 C   0  0  0  0  0  0  0  0  0  0  0  0
  139.2840   69.5760  223.8260 C   0  0  0  0  0  0  0  0  0  0  0  0
  139.2360   68.7280  224.8950 C   0  0  0  0  0  0  0  0  0  0  0  0
  139.8350   69.1440  226.0770 C   0  0  0  0  0  0  0  0  0  0  0  0
  139.7900   68.2980  227.1580 C   0  0  0  0  0  0  0  0  0  0  0  0
  140.3810   68.7120  228.3200 C   0  0  0  0  0  0  0  0  0  0  0  0
  140.3640   67.9120  229.4120 F   0  0  0  0  0  0  0  0  0  0  0  0
  140.9860   69.9440  228.3490 C   0  0  0  0  0  0  0  0  0  0  0  0
  141.0280   70.7930  227.2560 C   0  0  0  0  0  0  0  0  0  0  0  0
  140.4270   70.3750  226.0730 C   0  0  0  0  0  0  0  0  0  0  0  0
  140.4650   71.1970  225.0060 N   0  0  0  0  0  0  0  0  0  0  0  0
  141.3270   73.0260  223.2250 H   0  0  0  0  0  0  0  0  0  0  0  0
  141.5300   73.3443  220.6921 H   0  0  0  0  0  0  0  0  0  0  0  0
  139.6726   72.9939  220.7576 H   0  0  0  0  0  0  0  0  0  0  0  0
  138.8297   75.8341  218.8843 H   0  0  0  0  0  0  0  0  0  0  0  0
  139.2618   77.4380  219.4507 H   0  0  0  0  0  0  0  0  0  0  0  0
  140.4185   75.8495  217.2158 H   0  0  0  0  0  0  0  0  0  0  0  0
  140.6383   77.5771  217.5418 H   0  0  0  0  0  0  0  0  0  0  0  0
  142.3333   75.2350  218.3934 H   0  0  0  0  0  0  0  0  0  0  0  0
  142.8527   76.8748  218.1520 H   0  0  0  0  0  0  0  0  0  0  0  0
  142.5148   76.1674  220.8064 H   0  0  0  0  0  0  0  0  0  0  0  0
  142.3569   78.4578  219.4970 H   0  0  0  0  0  0  0  0  0  0  0  0
  140.6641   78.2532  220.2353 H   0  0  0  0  0  0  0  0  0  0  0  0
  142.9450   79.1740  221.4710 H   0  0  0  0  0  0  0  0  0  0  0  0
  140.5565   77.8129  222.6118 H   0  0  0  0  0  0  0  0  0  0  0  0
  141.0750   79.0570  224.6498 H   0  0  0  0  0  0  0  0  0  0  0  0
  142.4577   78.0478  224.1674 H   0  0  0  0  0  0  0  0  0  0  0  0
  143.3422   80.2773  224.6574 H   0  0  0  0  0  0  0  0  0  0  0  0
  143.3548   80.1068  222.8729 H   0  0  0  0  0  0  0  0  0  0  0  0
  141.8132   81.9349  224.5945 H   0  0  0  0  0  0  0  0  0  0  0  0
  142.1760   82.0240  222.8288 H   0  0  0  0  0  0  0  0  0  0  0  0
  139.9325   80.4714  224.2018 H   0  0  0  0  0  0  0  0  0  0  0  0
  139.7722   81.8288  223.0542 H   0  0  0  0  0  0  0  0  0  0  0  0
  139.4143   79.7077  221.8841 H   0  0  0  0  0  0  0  0  0  0  0  0
  140.9721   80.4630  221.3397 H   0  0  0  0  0  0  0  0  0  0  0  0
  138.8125   69.2574  222.8846 H   0  0  0  0  0  0  0  0  0  0  0  0
  138.7399   67.7489  224.8226 H   0  0  0  0  0  0  0  0  0  0  0  0
  139.2943   67.3183  227.0914 H   0  0  0  0  0  0  0  0  0  0  0  0
  141.4602   70.2725  229.2856 H   0  0  0  0  0  0  0  0  0  0  0  0
  141.5238   71.7727  227.3214 H   0  0  0  0  0  0  0  0  0  0  0  0
  1  2  2  0
  2  3  1  0
  3  4  1  0
  4  5  1  0
  5  6  2  0
  5  7  1  0
  7  8  1  0
  8  9  1  0
  9 10  1  0
 10 11  1  0
 11 12  1  0
 12 13  1  0
 13 14  1  0
 14 15  1  0
 15 16  1  0
 16 17  1  0
 17 18  1  0
 18 19  1  0
  2 20  1  0
 20 21  2  0
 21 22  1  0
 22 23  2  0
 23 24  1  0
 24 25  2  0
 25 26  1  0
 25 27  1  0
 27 28  2  0
 28 29  1  0
 29 30  2  0
 11  7  1  0
 19 14  1  0
 30 20  1  0
 29 23  1  0
  3 31  1  0
  4 32  1  0
  4 33  1  0
  8 34  1  0
  8 35  1  0
  9 36  1  0
  9 37  1  0
 10 38  1  0
 10 39  1  0
 11 40  1  1
 12 41  1  0
 12 42  1  0
 13 43  1  0
 14 44  1  0
 15 45  1  0
 15 46  1  0
 16 47  1  0
 16 48  1  0
 17 49  1  0
 17 50  1  0
 18 51  1  0
 18 52  1  0
 19 53  1  0
 19 54  1  0
 21 55  1  0
 22 56  1  0
 24 57  1  0
 27 58  1  0
 28 59  1  0
M  END
>  <smiles>  (6) 
O=C(NCC(=O)N1CCC[C@H]1CNC1CCCCC1)c1ccc2cc(F)ccc2n1

>  <score_type>  (6) 
oracle

>  <origin>  (6) 
autodockgpu

>  <m_score__min__energy>  (6) 
-8.9399999999999995

>  <m_primary>  (6) 
energy

>  <rmsd>  (6) 
2.128857451445324

>  <m_score__min__rmsd>  (6) 
2.128857451445324

>  <meeko>  (6) 
{"free_energy": -8.32, "intermolecular_energy": -10.4, "internal_energy": -1.55, "cluster_size": 22, "cluster_id": 1, "rank_in_cluster": 20}

>  <energy>  (6) 
-8.72

>  <cluster_rmsd>  (6) 
0.61

>  <cluster>  (6) 
1

$$$$

     RDKit          3D

 59 62  0  0  0  0  0  0  0  0999 V2000
  140.6530   77.7950  218.6440 O   0  0  0  0  0  0  0  0  0  0  0  0
  141.9250   77.7580  218.7650 C   0  0  0  0  0  0  0  0  0  0  0  0
  142.5520   79.0400  218.8610 N   0  0  0  0  0  0  0  0  0  0  0  0
  141.7320   80.1940  218.8170 C   0  0  0  0  0  0  0  0  0  0  0  0
  141.4810   80.9850  219.9990 C   0  0  0  0  0  0  0  0  0  0  0  0
  141.2380   82.2500  219.7350 O   0  0  0  0  0  0  0  0  0  0  0  0
  141.4490   80.6690  221.3610 N   0  0  0  0  0  0  0  0  0  0  0  0
  140.7230   81.1410  222.5080 C   0  0  0  0  0  0  0  0  0  0  0  0
  141.7790   81.2020  223.6010 C   0  0  0  0  0  0  0  0  0  0  0  0
  142.9900   80.4750  223.0560 C   0  0  0  0  0  0  0  0  0  0  0  0
  142.3480   79.6380  221.9390 C   0  0  1  0  0  0  0  0  0  0  0  0
  141.6380   78.5070  222.5810 C   0  0  0  0  0  0  0  0  0  0  0  0
  141.4090   77.3500  221.7940 N   0  0  0  0  0  0  0  0  0  0  0  0
  140.5850   76.3310  222.3370 C   0  0  0  0  0  0  0  0  0  0  0  0
  139.1310   76.6620  222.1850 C   0  0  0  0  0  0  0  0  0  0  0  0
  138.8520   76.7760  220.6820 C   0  0  0  0  0  0  0  0  0  0  0  0
  138.9320   75.4010  220.0610 C   0  0  0  0  0  0  0  0  0  0  0  0
  139.5940   74.4210  221.0150 C   0  0  0  0  0  0  0  0  0  0  0  0
  140.8670   75.0580  221.5250 C   0  0  0  0  0  0  0  0  0  0  0  0
  142.6650   76.5080  218.8020 C   0  0  0  0  0  0  0  0  0  0  0  0
  142.5310   75.6690  217.6980 C   0  0  0  0  0  0  0  0  0  0  0  0
  143.1630   74.4640  217.5910 C   0  0  0  0  0  0  0  0  0  0  0  0
  143.9780   74.0660  218.6420 C   0  0  0  0  0  0  0  0  0  0  0  0
  144.6170   72.8550  218.5440 C   0  0  0  0  0  0  0  0  0  0  0  0
  145.4190   72.4670  219.5830 C   0  0  0  0  0  0  0  0  0  0  0  0
  146.0700   71.2810  219.5300 F   0  0  0  0  0  0  0  0  0  0  0  0
  145.5440   73.3020  220.6650 C   0  0  0  0  0  0  0  0  0  0  0  0
  144.8970   74.5220  220.7590 C   0  0  0  0  0  0  0  0  0  0  0  0
  144.0810   74.9200  219.7050 C   0  0  0  0  0  0  0  0  0  0  0  0
  143.4490   76.1060  219.7910 N   0  0  0  0  0  0  0  0  0  0  0  0
  143.5990   79.0370  218.9600 H   0  0  0  0  0  0  0  0  0  0  0  0
  142.1888   80.8718  218.0808 H   0  0  0  0  0  0  0  0  0  0  0  0
  140.7399   79.7718  218.5990 H   0  0  0  0  0  0  0  0  0  0  0  0
  140.2953   82.1367  222.3194 H   0  0  0  0  0  0  0  0  0  0  0  0
  139.8731   80.4942  222.7711 H   0  0  0  0  0  0  0  0  0  0  0  0
  142.0323   82.2479  223.8291 H   0  0  0  0  0  0  0  0  0  0  0  0
  141.4196   80.7415  224.5331 H   0  0  0  0  0  0  0  0  0  0  0  0
  143.7372   81.1767  222.6569 H   0  0  0  0  0  0  0  0  0  0  0  0
  143.5420   79.8872  223.8042 H   0  0  0  0  0  0  0  0  0  0  0  0
  142.9999   79.1728  221.1850 H   0  0  0  0  0  0  0  0  0  0  0  0
  142.2300   78.1994  223.4556 H   0  0  0  0  0  0  0  0  0  0  0  0
  140.6346   78.8966  222.8075 H   0  0  0  0  0  0  0  0  0  0  0  0
  142.2090   77.0530  221.2240 H   0  0  0  0  0  0  0  0  0  0  0  0
  140.8026   76.2141  223.4089 H   0  0  0  0  0  0  0  0  0  0  0  0
  138.5140   75.8643  222.6243 H   0  0  0  0  0  0  0  0  0  0  0  0
  138.8862   77.6015  222.7021 H   0  0  0  0  0  0  0  0  0  0  0  0
  137.8468   77.1940  220.5242 H   0  0  0  0  0  0  0  0  0  0  0  0
  139.5959   77.4384  220.2152 H   0  0  0  0  0  0  0  0  0  0  0  0
  137.9158   75.0494  219.8291 H   0  0  0  0  0  0  0  0  0  0  0  0
  139.5328   75.4616  219.1415 H   0  0  0  0  0  0  0  0  0  0  0  0
  138.9200   74.2060  221.8573 H   0  0  0  0  0  0  0  0  0  0  0  0
  139.8182   73.4757  220.4992 H   0  0  0  0  0  0  0  0  0  0  0  0
  141.3935   74.3362  222.1667 H   0  0  0  0  0  0  0  0  0  0  0  0
  141.4806   75.3371  220.6557 H   0  0  0  0  0  0  0  0  0  0  0  0
  141.8831   75.9941  216.8706 H   0  0  0  0  0  0  0  0  0  0  0  0
  143.0310   73.8297  216.7021 H   0  0  0  0  0  0  0  0  0  0  0  0
  144.4884   72.2162  217.6578 H   0  0  0  0  0  0  0  0  0  0  0  0
  146.1896   72.9864  221.4978 H   0  0  0  0  0  0  0  0  0  0  0  0
  145.0249   75.1610  221.6452 H   0  0  0  0  0  0  0  0  0  0  0  0
  1  2  2  0
  2  3  1  0
  3  4  1  0
  4  5  1  0
  5  6  2  0
  5  7  1  0
  7  8  1  0
  8  9  1  0
  9 10  1  0
 10 11  1  0
 11 12  1  0
 12 13  1  0
 13 14  1  0
 14 15  1  0
 15 16  1  0
 16 17  1  0
 17 18  1  0
 18 19  1  0
  2 20  1  0
 20 21  2  0
 21 22  1  0
 22 23  2  0
 23 24  1  0
 24 25  2  0
 25 26  1  0
 25 27  1  0
 27 28  2  0
 28 29  1  0
 29 30  2  0
 11  7  1  0
 19 14  1  0
 30 20  1  0
 29 23  1  0
  3 31  1  0
  4 32  1  0
  4 33  1  0
  8 34  1  0
  8 35  1  0
  9 36  1  0
  9 37  1  0
 10 38  1  0
 10 39  1  0
 11 40  1  6
 12 41  1  0
 12 42  1  0
 13 43  1  0
 14 44  1  0
 15 45  1  0
 15 46  1  0
 16 47  1  0
 16 48  1  0
 17 49  1  0
 17 50  1  0
 18 51  1  0
 18 52  1  0
 19 53  1  0
 19 54  1  0
 21 55  1  0
 22 56  1  0
 24 57  1  0
 27 58  1  0
 28 59  1  0
M  END
>  <smiles>  (7) 
O=C(NCC(=O)N1CCC[C@H]1CNC1CCCCC1)c1ccc2cc(F)ccc2n1

>  <score_type>  (7) 
oracle

>  <origin>  (7) 
autodockgpu

>  <m_score__min__energy>  (7) 
-8.9399999999999995

>  <m_primary>  (7) 
energy

>  <rmsd>  (7) 
7.569492513791082

>  <m_score__min__rmsd>  (7) 
7.569492513791082

>  <meeko>  (7) 
{"free_energy": -6.52, "intermolecular_energy": -8.61, "internal_energy": -3.58, "cluster_size": 10, "cluster_id": 7, "rank_in_cluster": 3}

>  <energy>  (7) 
-8.71

>  <cluster_rmsd>  (7) 
0.98

>  <cluster>  (7) 
1

$$$$

     RDKit          3D

 59 62  0  0  0  0  0  0  0  0999 V2000
  141.0870   72.9720  222.2760 O   0  0  0  0  0  0  0  0  0  0  0  0
  140.0210   72.5670  222.8550 C   0  0  0  0  0  0  0  0  0  0  0  0
  138.8120   73.1330  222.3410 N   0  0  0  0  0  0  0  0  0  0  0  0
  138.9040   74.0590  221.2730 C   0  0  0  0  0  0  0  0  0  0  0  0
  139.4830   75.3690  221.4600 C   0  0  0  0  0  0  0  0  0  0  0  0
  139.4520   75.7760  222.7110 O   0  0  0  0  0  0  0  0  0  0  0  0
  140.0630   76.2840  220.5760 N   0  0  0  0  0  0  0  0  0  0  0  0
  139.6750   76.9060  219.3400 C   0  0  0  0  0  0  0  0  0  0  0  0
  140.9410   76.8600  218.5000 C   0  0  0  0  0  0  0  0  0  0  0  0
  142.0560   76.4610  219.4440 C   0  0  0  0  0  0  0  0  0  0  0  0
  141.4300   76.8190  220.8010 C   0  0  1  0  0  0  0  0  0  0  0  0
  141.4870   78.2920  220.9450 C   0  0  0  0  0  0  0  0  0  0  0  0
  142.3290   78.8160  221.9580 N   0  0  0  0  0  0  0  0  0  0  0  0
  141.7860   78.9620  223.2610 C   0  0  0  0  0  0  0  0  0  0  0  0
  142.0520   80.3290  223.8160 C   0  0  0  0  0  0  0  0  0  0  0  0
  141.3700   81.3330  222.8800 C   0  0  0  0  0  0  0  0  0  0  0  0
  139.8720   81.2130  223.0350 C   0  0  0  0  0  0  0  0  0  0  0  0
  139.5120   79.9340  223.7740 C   0  0  0  0  0  0  0  0  0  0  0  0
  140.2650   78.7960  223.1250 C   0  0  0  0  0  0  0  0  0  0  0  0
  140.0480   71.6070  223.9460 C   0  0  0  0  0  0  0  0  0  0  0  0
  139.4850   70.3580  223.6940 C   0  0  0  0  0  0  0  0  0  0  0  0
  139.4370   69.3580  224.6220 C   0  0  0  0  0  0  0  0  0  0  0  0
  139.9790   69.6110  225.8740 C   0  0  0  0  0  0  0  0  0  0  0  0
  139.9330   68.6110  226.8140 C   0  0  0  0  0  0  0  0  0  0  0  0
  140.4690   68.8650  228.0470 C   0  0  0  0  0  0  0  0  0  0  0  0
  140.4480   67.9090  229.0060 F   0  0  0  0  0  0  0  0  0  0  0  0
  141.0220   70.1000  228.2830 C   0  0  0  0  0  0  0  0  0  0  0  0
  141.0650   71.1050  227.3320 C   0  0  0  0  0  0  0  0  0  0  0  0
  140.5210   70.8500  226.0770 C   0  0  0  0  0  0  0  0  0  0  0  0
  140.5600   71.8240  225.1480 N   0  0  0  0  0  0  0  0  0  0  0  0
  137.9210   72.8170  222.8020 H   0  0  0  0  0  0  0  0  0  0  0  0
  139.4947   73.5677  220.4858 H   0  0  0  0  0  0  0  0  0  0  0  0
  137.8485   74.2928  221.0701 H   0  0  0  0  0  0  0  0  0  0  0  0
  138.8627   76.3439  218.8561 H   0  0  0  0  0  0  0  0  0  0  0  0
  139.2927   77.9280  219.4789 H   0  0  0  0  0  0  0  0  0  0  0  0
  140.8383   76.1176  217.6948 H   0  0  0  0  0  0  0  0  0  0  0  0
  141.1442   77.8312  218.0252 H   0  0  0  0  0  0  0  0  0  0  0  0
  142.2807   75.3865  219.3732 H   0  0  0  0  0  0  0  0  0  0  0  0
  143.0190   76.9535  219.2437 H   0  0  0  0  0  0  0  0  0  0  0  0
  141.8942   76.4265  221.7178 H   0  0  0  0  0  0  0  0  0  0  0  0
  141.8300   78.7045  219.9847 H   0  0  0  0  0  0  0  0  0  0  0  0
  140.4700   78.5851  221.2448 H   0  0  0  0  0  0  0  0  0  0  0  0
  142.9870   79.5360  221.6400 H   0  0  0  0  0  0  0  0  0  0  0  0
  142.2410   78.2206  223.9343 H   0  0  0  0  0  0  0  0  0  0  0  0
  141.6335   80.4131  224.8298 H   0  0  0  0  0  0  0  0  0  0  0  0
  143.1328   80.5233  223.8798 H   0  0  0  0  0  0  0  0  0  0  0  0
  141.6869   82.3537  223.1405 H   0  0  0  0  0  0  0  0  0  0  0  0
  141.6534   81.1210  221.8385 H   0  0  0  0  0  0  0  0  0  0  0  0
  139.4969   82.0769  223.6033 H   0  0  0  0  0  0  0  0  0  0  0  0
  139.4127   81.1869  222.0358 H   0  0  0  0  0  0  0  0  0  0  0  0
  139.8019   80.0191  224.8317 H   0  0  0  0  0  0  0  0  0  0  0  0
  138.4279   79.7544  223.7241 H   0  0  0  0  0  0  0  0  0  0  0  0
  139.9662   77.8526  223.6053 H   0  0  0  0  0  0  0  0  0  0  0  0
  140.0178   78.7920  222.0532 H   0  0  0  0  0  0  0  0  0  0  0  0
  139.0581   70.1682  222.6982 H   0  0  0  0  0  0  0  0  0  0  0  0
  138.9837   68.3841  224.3851 H   0  0  0  0  0  0  0  0  0  0  0  0
  139.4793   67.6360  226.5829 H   0  0  0  0  0  0  0  0  0  0  0  0
  141.4515   70.3001  229.2757 H   0  0  0  0  0  0  0  0  0  0  0  0
  141.5178   72.0806  227.5627 H   0  0  0  0  0  0  0  0  0  0  0  0
  1  2  2  0
  2  3  1  0
  3  4  1  0
  4  5  1  0
  5  6  2  0
  5  7  1  0
  7  8  1  0
  8  9  1  0
  9 10  1  0
 10 11  1  0
 11 12  1  0
 12 13  1  0
 13 14  1  0
 14 15  1  0
 15 16  1  0
 16 17  1  0
 17 18  1  0
 18 19  1  0
  2 20  1  0
 20 21  2  0
 21 22  1  0
 22 23  2  0
 23 24  1  0
 24 25  2  0
 25 26  1  0
 25 27  1  0
 27 28  2  0
 28 29  1  0
 29 30  2  0
 11  7  1  0
 19 14  1  0
 30 20  1  0
 29 23  1  0
  3 31  1  0
  4 32  1  0
  4 33  1  0
  8 34  1  0
  8 35  1  0
  9 36  1  0
  9 37  1  0
 10 38  1  0
 10 39  1  0
 11 40  1  1
 12 41  1  0
 12 42  1  0
 13 43  1  0
 14 44  1  0
 15 45  1  0
 15 46  1  0
 16 47  1  0
 16 48  1  0
 17 49  1  0
 17 50  1  0
 18 51  1  0
 18 52  1  0
 19 53  1  0
 19 54  1  0
 21 55  1  0
 22 56  1  0
 24 57  1  0
 27 58  1  0
 28 59  1  0
M  END
>  <smiles>  (8) 
O=C(NCC(=O)N1CCC[C@H]1CNC1CCCCC1)c1ccc2cc(F)ccc2n1

>  <score_type>  (8) 
oracle

>  <origin>  (8) 
autodockgpu

>  <m_score__min__energy>  (8) 
-8.9399999999999995

>  <m_primary>  (8) 
energy

>  <rmsd>  (8) 
2.009352256087588

>  <m_score__min__rmsd>  (8) 
2.009352256087588

>  <meeko>  (8) 
{"free_energy": -8.93, "intermolecular_energy": -11.02, "internal_energy": -1.58, "cluster_size": 22, "cluster_id": 1, "rank_in_cluster": 2}

>  <energy>  (8) 
-8.61

>  <cluster_rmsd>  (8) 
1.66

>  <cluster>  (8) 
1

$$$$

     RDKit          3D

 59 62  0  0  0  0  0  0  0  0999 V2000
  139.6430   70.9220  221.2590 O   0  0  0  0  0  0  0  0  0  0  0  0
  139.5850   71.5050  222.3960 C   0  0  0  0  0  0  0  0  0  0  0  0
  139.3790   72.9190  222.3300 N   0  0  0  0  0  0  0  0  0  0  0  0
  139.2600   73.5220  221.0540 C   0  0  0  0  0  0  0  0  0  0  0  0
  140.0750   74.6530  220.6770 C   0  0  0  0  0  0  0  0  0  0  0  0
  141.1440   74.3160  219.9870 O   0  0  0  0  0  0  0  0  0  0  0  0
  139.9530   76.0280  220.9050 N   0  0  0  0  0  0  0  0  0  0  0  0
  138.9370   77.0190  220.6830 C   0  0  0  0  0  0  0  0  0  0  0  0
  139.7130   78.2190  220.1620 C   0  0  0  0  0  0  0  0  0  0  0  0
  141.1760   77.9080  220.4010 C   0  0  0  0  0  0  0  0  0  0  0  0
  141.0690   76.8200  221.4810 C   0  0  1  0  0  0  0  0  0  0  0  0
  140.7390   77.4920  222.7590 C   0  0  0  0  0  0  0  0  0  0  0  0
  141.7830   78.1890  223.4180 N   0  0  0  0  0  0  0  0  0  0  0  0
  141.4840   79.4620  223.9710 C   0  0  0  0  0  0  0  0  0  0  0  0
  142.5340   80.4720  223.6200 C   0  0  0  0  0  0  0  0  0  0  0  0
  142.5520   80.5880  222.0910 C   0  0  0  0  0  0  0  0  0  0  0  0
  141.2850   81.2740  221.6360 C   0  0  0  0  0  0  0  0  0  0  0  0
  140.2610   81.3090  222.7580 C   0  0  0  0  0  0  0  0  0  0  0  0
  140.1600   79.9170  223.3380 C   0  0  0  0  0  0  0  0  0  0  0  0
  139.7200   70.7790  223.6470 C   0  0  0  0  0  0  0  0  0  0  0  0
  139.2000   69.4880  223.6800 C   0  0  0  0  0  0  0  0  0  0  0  0
  139.2510   68.6870  224.7850 C   0  0  0  0  0  0  0  0  0  0  0  0
  139.8550   69.1980  225.9260 C   0  0  0  0  0  0  0  0  0  0  0  0
  139.9090   68.4000  227.0420 C   0  0  0  0  0  0  0  0  0  0  0  0
  140.5050   68.9090  228.1640 C   0  0  0  0  0  0  0  0  0  0  0  0
  140.5840   68.1590  229.2890 F   0  0  0  0  0  0  0  0  0  0  0  0
  141.0150   70.1830  228.1190 C   0  0  0  0  0  0  0  0  0  0  0  0
  140.9560   70.9830  226.9910 C   0  0  0  0  0  0  0  0  0  0  0  0
  140.3510   70.4690  225.8480 C   0  0  0  0  0  0  0  0  0  0  0  0
  140.2910   71.2430  224.7480 N   0  0  0  0  0  0  0  0  0  0  0  0
  139.3300   73.4220  223.2520 H   0  0  0  0  0  0  0  0  0  0  0  0
  139.4648   72.7319  220.3166 H   0  0  0  0  0  0  0  0  0  0  0  0
  138.2509   73.9584  221.0909 H   0  0  0  0  0  0  0  0  0  0  0  0
  138.2057   76.6713  219.9385 H   0  0  0  0  0  0  0  0  0  0  0  0
  138.3575   77.2466  221.5899 H   0  0  0  0  0  0  0  0  0  0  0  0
  139.5230   78.3596  219.0877 H   0  0  0  0  0  0  0  0  0  0  0  0
  139.4103   79.1457  220.6715 H   0  0  0  0  0  0  0  0  0  0  0  0
  141.6626   77.5277  219.4907 H   0  0  0  0  0  0  0  0  0  0  0  0
  141.7841   78.7777  220.6907 H   0  0  0  0  0  0  0  0  0  0  0  0
  141.9538   76.2056  221.7038 H   0  0  0  0  0  0  0  0  0  0  0  0
  139.9370   78.2163  222.5535 H   0  0  0  0  0  0  0  0  0  0  0  0
  140.4692   76.6754  223.4448 H   0  0  0  0  0  0  0  0  0  0  0  0
  142.7110   78.0650  223.0000 H   0  0  0  0  0  0  0  0  0  0  0  0
  141.4316   79.3842  225.0670 H   0  0  0  0  0  0  0  0  0  0  0  0
  142.2873   81.4451  224.0697 H   0  0  0  0  0  0  0  0  0  0  0  0
  143.5184   80.1633  224.0017 H   0  0  0  0  0  0  0  0  0  0  0  0
  143.4249   81.1785  221.7760 H   0  0  0  0  0  0  0  0  0  0  0  0
  142.6141   79.5855  221.6424 H   0  0  0  0  0  0  0  0  0  0  0  0
  141.5216   82.3040  221.3307 H   0  0  0  0  0  0  0  0  0  0  0  0
  140.8631   80.7126  220.7894 H   0  0  0  0  0  0  0  0  0  0  0  0
  140.5837   82.0159  223.5366 H   0  0  0  0  0  0  0  0  0  0  0  0
  139.2833   81.6363  222.3745 H   0  0  0  0  0  0  0  0  0  0  0  0
  139.3760   79.9093  224.1095 H   0  0  0  0  0  0  0  0  0  0  0  0
  139.9178   79.2235  222.5192 H   0  0  0  0  0  0  0  0  0  0  0  0
  138.7241   69.0932  222.7702 H   0  0  0  0  0  0  0  0  0  0  0  0
  138.8280   67.6717  224.7715 H   0  0  0  0  0  0  0  0  0  0  0  0
  139.4868   67.3843  227.0346 H   0  0  0  0  0  0  0  0  0  0  0  0
  141.4936   70.5874  229.0231 H   0  0  0  0  0  0  0  0  0  0  0  0
  141.3767   71.9994  226.9979 H   0  0  0  0  0  0  0  0  0  0  0  0
  1  2  2  0
  2  3  1  0
  3  4  1  0
  4  5  1  0
  5  6  2  0
  5  7  1  0
  7  8  1  0
  8  9  1  0
  9 10  1  0
 10 11  1  0
 11 12  1  0
 12 13  1  0
 13 14  1  0
 14 15  1  0
 15 16  1  0
 16 17  1  0
 17 18  1  0
 18 19  1  0
  2 20  1  0
 20 21  2  0
 21 22  1  0
 22 23  2  0
 23 24  1  0
 24 25  2  0
 25 26  1  0
 25 27  1  0
 27 28  2  0
 28 29  1  0
 29 30  2  0
 11  7  1  0
 19 14  1  0
 30 20  1  0
 29 23  1  0
  3 31  1  0
  4 32  1  0
  4 33  1  0
  8 34  1  0
  8 35  1  0
  9 36  1  0
  9 37  1  0
 10 38  1  0
 10 39  1  0
 11 40  1  1
 12 41  1  0
 12 42  1  0
 13 43  1  0
 14 44  1  0
 15 45  1  0
 15 46  1  0
 16 47  1  0
 16 48  1  0
 17 49  1  0
 17 50  1  0
 18 51  1  0
 18 52  1  0
 19 53  1  0
 19 54  1  0
 21 55  1  0
 22 56  1  0
 24 57  1  0
 27 58  1  0
 28 59  1  0
M  END
>  <smiles>  (9) 
O=C(NCC(=O)N1CCC[C@H]1CNC1CCCCC1)c1ccc2cc(F)ccc2n1

>  <score_type>  (9) 
oracle

>  <origin>  (9) 
autodockgpu

>  <m_score__min__energy>  (9) 
-8.9399999999999995

>  <m_primary>  (9) 
energy

>  <rmsd>  (9) 
1.9121476442924592

>  <m_score__min__rmsd>  (9) 
1.9121476442924592

>  <meeko>  (9) 
{"free_energy": -8.47, "intermolecular_energy": -10.56, "internal_energy": -1.64, "cluster_size": 22, "cluster_id": 1, "rank_in_cluster": 16}

>  <energy>  (9) 
-8.59

>  <cluster_rmsd>  (9) 
1.12

>  <cluster>  (9) 
1

$$$$

     RDKit          3D

 59 62  0  0  0  0  0  0  0  0999 V2000
  141.3070   72.3900  221.8360 O   0  0  0  0  0  0  0  0  0  0  0  0
  140.3340   72.4480  222.6640 C   0  0  0  0  0  0  0  0  0  0  0  0
  139.3360   73.4220  222.3440 N   0  0  0  0  0  0  0  0  0  0  0  0
  139.5110   74.2050  221.1770 C   0  0  0  0  0  0  0  0  0  0  0  0
  139.7170   75.6320  221.2520 C   0  0  0  0  0  0  0  0  0  0  0  0
  139.1870   76.1780  222.3260 O   0  0  0  0  0  0  0  0  0  0  0  0
  140.3640   76.5420  220.4100 N   0  0  0  0  0  0  0  0  0  0  0  0
  140.3400   76.8360  219.0030 C   0  0  0  0  0  0  0  0  0  0  0  0
  141.8050   77.0500  218.6550 C   0  0  0  0  0  0  0  0  0  0  0  0
  142.5400   77.1440  219.9760 C   0  0  0  0  0  0  0  0  0  0  0  0
  141.3840   77.4880  220.9280 C   0  0  1  0  0  0  0  0  0  0  0  0
  141.0470   78.9160  220.7220 C   0  0  0  0  0  0  0  0  0  0  0  0
  139.8770   79.4070  221.3550 N   0  0  0  0  0  0  0  0  0  0  0  0
  140.0170   80.4960  222.2550 C   0  0  0  0  0  0  0  0  0  0  0  0
  140.0050   80.0340  223.6810 C   0  0  0  0  0  0  0  0  0  0  0  0
  141.2000   79.0900  223.8570 C   0  0  0  0  0  0  0  0  0  0  0  0
  142.4770   79.8950  223.7930 C   0  0  0  0  0  0  0  0  0  0  0  0
  142.2070   81.2830  223.2350 C   0  0  0  0  0  0  0  0  0  0  0  0
  141.3900   81.1250  221.9730 C   0  0  0  0  0  0  0  0  0  0  0  0
  140.2600   71.5890  223.8330 C   0  0  0  0  0  0  0  0  0  0  0  0
  139.6630   70.3430  223.6560 C   0  0  0  0  0  0  0  0  0  0  0  0
  139.5210   69.4310  224.6620 C   0  0  0  0  0  0  0  0  0  0  0  0
  139.9990   69.7750  225.9190 C   0  0  0  0  0  0  0  0  0  0  0  0
  139.8590   68.8640  226.9370 C   0  0  0  0  0  0  0  0  0  0  0  0
  140.3320   69.2080  228.1740 C   0  0  0  0  0  0  0  0  0  0  0  0
  140.2170   68.3420  229.2090 F   0  0  0  0  0  0  0  0  0  0  0  0
  140.9180   70.4380  228.3360 C   0  0  0  0  0  0  0  0  0  0  0  0
  141.0560   71.3530  227.3060 C   0  0  0  0  0  0  0  0  0  0  0  0
  140.5770   71.0070  226.0470 C   0  0  0  0  0  0  0  0  0  0  0  0
  140.7080   71.8930  225.0420 N   0  0  0  0  0  0  0  0  0  0  0  0
  138.5260   73.4900  223.0120 H   0  0  0  0  0  0  0  0  0  0  0  0
  140.3860   73.7918  220.6540 H   0  0  0  0  0  0  0  0  0  0  0  0
  138.5260   74.1326  220.6927 H   0  0  0  0  0  0  0  0  0  0  0  0
  139.9204   75.9938  218.4333 H   0  0  0  0  0  0  0  0  0  0  0  0
  139.7123   77.7060  218.7597 H   0  0  0  0  0  0  0  0  0  0  0  0
  142.1853   76.2026  218.0657 H   0  0  0  0  0  0  0  0  0  0  0  0
  141.9464   77.9580  218.0504 H   0  0  0  0  0  0  0  0  0  0  0  0
  143.0138   76.1881  220.2440 H   0  0  0  0  0  0  0  0  0  0  0  0
  143.3672   77.8690  219.9851 H   0  0  0  0  0  0  0  0  0  0  0  0
  141.5428   77.3875  222.0118 H   0  0  0  0  0  0  0  0  0  0  0  0
  141.8957   79.5118  221.0889 H   0  0  0  0  0  0  0  0  0  0  0  0
  140.8431   79.0050  219.6447 H   0  0  0  0  0  0  0  0  0  0  0  0
  139.1840   78.6890  221.5920 H   0  0  0  0  0  0  0  0  0  0  0  0
  139.1842   81.2005  222.1134 H   0  0  0  0  0  0  0  0  0  0  0  0
  140.1015   80.8956  224.3580 H   0  0  0  0  0  0  0  0  0  0  0  0
  139.0615   79.5212  223.9193 H   0  0  0  0  0  0  0  0  0  0  0  0
  141.1307   78.5853  224.8319 H   0  0  0  0  0  0  0  0  0  0  0  0
  141.1970   78.3341  223.0579 H   0  0  0  0  0  0  0  0  0  0  0  0
  142.8970   79.9878  224.8054 H   0  0  0  0  0  0  0  0  0  0  0  0
  143.1887   79.3791  223.1316 H   0  0  0  0  0  0  0  0  0  0  0  0
  141.6472   81.8792  223.9706 H   0  0  0  0  0  0  0  0  0  0  0  0
  143.1535   81.7993  223.0169 H   0  0  0  0  0  0  0  0  0  0  0  0
  141.2409   82.1160  221.5194 H   0  0  0  0  0  0  0  0  0  0  0  0
  141.9384   80.4564  221.2931 H   0  0  0  0  0  0  0  0  0  0  0  0
  139.2873   70.0808  222.6560 H   0  0  0  0  0  0  0  0  0  0  0  0
  139.0438   68.4563  224.4825 H   0  0  0  0  0  0  0  0  0  0  0  0
  139.3816   67.8883  226.7634 H   0  0  0  0  0  0  0  0  0  0  0  0
  141.2965   70.7104  229.3323 H   0  0  0  0  0  0  0  0  0  0  0  0
  141.5326   72.3292  227.4792 H   0  0  0  0  0  0  0  0  0  0  0  0
  1  2  2  0
  2  3  1  0
  3  4  1  0
  4  5  1  0
  5  6  2  0
  5  7  1  0
  7  8  1  0
  8  9  1  0
  9 10  1  0
 10 11  1  0
 11 12  1  0
 12 13  1  0
 13 14  1  0
 14 15  1  0
 15 16  1  0
 16 17  1  0
 17 18  1  0
 18 19  1  0
  2 20  1  0
 20 21  2  0
 21 22  1  0
 22 23  2  0
 23 24  1  0
 24 25  2  0
 25 26  1  0
 25 27  1  0
 27 28  2  0
 28 29  1  0
 29 30  2  0
 11  7  1  0
 19 14  1  0
 30 20  1  0
 29 23  1  0
  3 31  1  0
  4 32  1  0
  4 33  1  0
  8 34  1  0
  8 35  1  0
  9 36  1  0
  9 37  1  0
 10 38  1  0
 10 39  1  0
 11 40  1  1
 12 41  1  0
 12 42  1  0
 13 43  1  0
 14 44  1  0
 15 45  1  0
 15 46  1  0
 16 47  1  0
 16 48  1  0
 17 49  1  0
 17 50  1  0
 18 51  1  0
 18 52  1  0
 19 53  1  0
 19 54  1  0
 21 55  1  0
 22 56  1  0
 24 57  1  0
 27 58  1  0
 28 59  1  0
M  END
>  <smiles>  (10) 
O=C(NCC(=O)N1CCC[C@H]1CNC1CCCCC1)c1ccc2cc(F)ccc2n1

>  <score_type>  (10) 
oracle

>  <origin>  (10) 
autodockgpu

>  <m_score__min__energy>  (10) 
-8.9399999999999995

>  <m_primary>  (10) 
energy

>  <rmsd>  (10) 
2.4159290472025314

>  <m_score__min__rmsd>  (10) 
2.4159290472025314

>  <meeko>  (10) 
{"free_energy": -8.45, "intermolecular_energy": -10.54, "internal_energy": -1.83, "cluster_size": 22, "cluster_id": 1, "rank_in_cluster": 17}

>  <energy>  (10) 
-8.58

>  <cluster_rmsd>  (10) 
0.69

>  <cluster>  (10) 
1

$$$$

     RDKit          3D

 59 62  0  0  0  0  0  0  0  0999 V2000
  140.4340   78.7410  219.1890 O   0  0  0  0  0  0  0  0  0  0  0  0
  141.6990   78.6970  219.0140 C   0  0  0  0  0  0  0  0  0  0  0  0
  142.3480   79.9720  219.0320 N   0  0  0  0  0  0  0  0  0  0  0  0
  141.5550   81.1270  219.2380 C   0  0  0  0  0  0  0  0  0  0  0  0
  141.1210   81.5150  220.5590 C   0  0  0  0  0  0  0  0  0  0  0  0
  140.3470   82.5790  220.5590 O   0  0  0  0  0  0  0  0  0  0  0  0
  141.3640   80.9860  221.8310 N   0  0  0  0  0  0  0  0  0  0  0  0
  140.9220   81.2780  223.1670 C   0  0  0  0  0  0  0  0  0  0  0  0
  142.1870   81.1500  224.0010 C   0  0  0  0  0  0  0  0  0  0  0  0
  143.2180   80.5030  223.1000 C   0  0  0  0  0  0  0  0  0  0  0  0
  142.3140   79.8640  222.0350 C   0  0  1  0  0  0  0  0  0  0  0  0
  141.7040   78.6540  222.6340 C   0  0  0  0  0  0  0  0  0  0  0  0
  140.9610   77.8060  221.7750 N   0  0  0  0  0  0  0  0  0  0  0  0
  140.2880   76.7000  222.3560 C   0  0  0  0  0  0  0  0  0  0  0  0
  138.8980   76.5570  221.8140 C   0  0  0  0  0  0  0  0  0  0  0  0
  139.0270   76.3210  220.3050 C   0  0  0  0  0  0  0  0  0  0  0  0
  139.6040   74.9440  220.0700 C   0  0  0  0  0  0  0  0  0  0  0  0
  140.1910   74.3840  221.3550 C   0  0  0  0  0  0  0  0  0  0  0  0
  141.0810   75.4450  221.9600 C   0  0  0  0  0  0  0  0  0  0  0  0
  142.4110   77.4460  218.8140 C   0  0  0  0  0  0  0  0  0  0  0  0
  142.4980   76.9780  217.5050 C   0  0  0  0  0  0  0  0  0  0  0  0
  143.1330   75.8200  217.1630 C   0  0  0  0  0  0  0  0  0  0  0  0
  143.7180   75.0790  218.1820 C   0  0  0  0  0  0  0  0  0  0  0  0
  144.3580   73.9110  217.8480 C   0  0  0  0  0  0  0  0  0  0  0  0
  144.9330   73.1850  218.8550 C   0  0  0  0  0  0  0  0  0  0  0  0
  145.5760   72.0270  218.5740 F   0  0  0  0  0  0  0  0  0  0  0  0
  144.8410   73.6560  220.1410 C   0  0  0  0  0  0  0  0  0  0  0  0
  144.1940   74.8340  220.4720 C   0  0  0  0  0  0  0  0  0  0  0  0
  143.6090   75.5750  219.4510 C   0  0  0  0  0  0  0  0  0  0  0  0
  142.9780   76.7220  219.7670 N   0  0  0  0  0  0  0  0  0  0  0  0
  143.3900   79.9620  218.8890 H   0  0  0  0  0  0  0  0  0  0  0  0
  142.1308   81.9748  218.8384 H   0  0  0  0  0  0  0  0  0  0  0  0
  140.6087   80.8564  218.7468 H   0  0  0  0  0  0  0  0  0  0  0  0
  140.5116   82.2966  223.2306 H   0  0  0  0  0  0  0  0  0  0  0  0
  140.1181   80.6081  223.5061 H   0  0  0  0  0  0  0  0  0  0  0  0
  142.5325   82.1425  224.3259 H   0  0  0  0  0  0  0  0  0  0  0  0
  142.0127   80.5521  224.9077 H   0  0  0  0  0  0  0  0  0  0  0  0
  143.8957   81.2494  222.6600 H   0  0  0  0  0  0  0  0  0  0  0  0
  143.8878   79.7957  223.6110 H   0  0  0  0  0  0  0  0  0  0  0  0
  142.7675   79.5163  221.0951 H   0  0  0  0  0  0  0  0  0  0  0  0
  142.5178   78.0540  223.0673 H   0  0  0  0  0  0  0  0  0  0  0  0
  140.9686   79.0374  223.3566 H   0  0  0  0  0  0  0  0  0  0  0  0
  141.3720   77.6700  220.8450 H   0  0  0  0  0  0  0  0  0  0  0  0
  140.2214   76.8406  223.4449 H   0  0  0  0  0  0  0  0  0  0  0  0
  138.3938   75.7021  222.2882 H   0  0  0  0  0  0  0  0  0  0  0  0
  138.3016   77.4579  222.0207 H   0  0  0  0  0  0  0  0  0  0  0  0
  138.0350   76.3904  219.8347 H   0  0  0  0  0  0  0  0  0  0  0  0
  139.6890   77.0814  219.8651 H   0  0  0  0  0  0  0  0  0  0  0  0
  138.8074   74.2740  219.7143 H   0  0  0  0  0  0  0  0  0  0  0  0
  140.4030   75.0178  219.3176 H   0  0  0  0  0  0  0  0  0  0  0  0
  139.3821   74.1304  222.0560 H   0  0  0  0  0  0  0  0  0  0  0  0
  140.7694   73.4719  221.1465 H   0  0  0  0  0  0  0  0  0  0  0  0
  141.5662   75.0330  222.8572 H   0  0  0  0  0  0  0  0  0  0  0  0
  141.8259   75.7364  221.2049 H   0  0  0  0  0  0  0  0  0  0  0  0
  142.0308   77.5725  216.7061 H   0  0  0  0  0  0  0  0  0  0  0  0
  143.1801   75.4846  216.1164 H   0  0  0  0  0  0  0  0  0  0  0  0
  144.4069   73.5697  216.8034 H   0  0  0  0  0  0  0  0  0  0  0  0
  145.3040   73.0687  220.9477 H   0  0  0  0  0  0  0  0  0  0  0  0
  144.1438   75.1754  221.5165 H   0  0  0  0  0  0  0  0  0  0  0  0
  1  2  2  0
  2  3  1  0
  3  4  1  0
  4  5  1  0
  5  6  2  0
  5  7  1  0
  7  8  1  0
  8  9  1  0
  9 10  1  0
 10 11  1  0
 11 12  1  0
 12 13  1  0
 13 14  1  0
 14 15  1  0
 15 16  1  0
 16 17  1  0
 17 18  1  0
 18 19  1  0
  2 20  1  0
 20 21  2  0
 21 22  1  0
 22 23  2  0
 23 24  1  0
 24 25  2  0
 25 26  1  0
 25 27  1  0
 27 28  2  0
 28 29  1  0
 29 30  2  0
 11  7  1  0
 19 14  1  0
 30 20  1  0
 29 23  1  0
  3 31  1  0
  4 32  1  0
  4 33  1  0
  8 34  1  0
  8 35  1  0
  9 36  1  0
  9 37  1  0
 10 38  1  0
 10 39  1  0
 11 40  1  6
 12 41  1  0
 12 42  1  0
 13 43  1  0
 14 44  1  0
 15 45  1  0
 15 46  1  0
 16 47  1  0
 16 48  1  0
 17 49  1  0
 17 50  1  0
 18 51  1  0
 18 52  1  0
 19 53  1  0
 19 54  1  0
 21 55  1  0
 22 56  1  0
 24 57  1  0
 27 58  1  0
 28 59  1  0
M  END
>  <smiles>  (11) 
O=C(NCC(=O)N1CCC[C@H]1CNC1CCCCC1)c1ccc2cc(F)ccc2n1

>  <score_type>  (11) 
oracle

>  <origin>  (11) 
autodockgpu

>  <m_score__min__energy>  (11) 
-8.9399999999999995

>  <m_primary>  (11) 
energy

>  <rmsd>  (11) 
8.028866344805893

>  <m_score__min__rmsd>  (11) 
8.028866344805893

>  <meeko>  (11) 
{"free_energy": -5.78, "intermolecular_energy": -7.87, "internal_energy": -4.06, "cluster_size": 10, "cluster_id": 7, "rank_in_cluster": 10}

>  <energy>  (11) 
-8.54

>  <cluster_rmsd>  (11) 
1.2

>  <cluster>  (11) 
1

$$$$

     RDKit          3D

 59 62  0  0  0  0  0  0  0  0999 V2000
  140.7330   77.6450  219.1110 O   0  0  0  0  0  0  0  0  0  0  0  0
  142.0010   77.6110  218.9510 C   0  0  0  0  0  0  0  0  0  0  0  0
  142.6100   78.8910  218.7530 N   0  0  0  0  0  0  0  0  0  0  0  0
  141.7800   80.0380  218.7550 C   0  0  0  0  0  0  0  0  0  0  0  0
  141.6370   80.8600  219.9340 C   0  0  0  0  0  0  0  0  0  0  0  0
  141.7260   82.1490  219.6820 O   0  0  0  0  0  0  0  0  0  0  0  0
  141.4270   80.5560  221.2820 N   0  0  0  0  0  0  0  0  0  0  0  0
  140.5690   81.0470  222.3250 C   0  0  0  0  0  0  0  0  0  0  0  0
  141.4770   81.1010  223.5430 C   0  0  0  0  0  0  0  0  0  0  0  0
  142.7360   80.3510  223.1600 C   0  0  0  0  0  0  0  0  0  0  0  0
  142.2280   79.5150  221.9760 C   0  0  1  0  0  0  0  0  0  0  0  0
  141.4240   78.4000  222.5280 C   0  0  0  0  0  0  0  0  0  0  0  0
  141.3630   77.2030  221.7710 N   0  0  0  0  0  0  0  0  0  0  0  0
  140.6830   76.0940  222.3370 C   0  0  0  0  0  0  0  0  0  0  0  0
  139.1970   76.2890  222.3100 C   0  0  0  0  0  0  0  0  0  0  0  0
  138.7890   76.4210  220.8390 C   0  0  0  0  0  0  0  0  0  0  0  0
  138.9460   75.0790  220.1630 C   0  0  0  0  0  0  0  0  0  0  0  0
  139.7720   74.1380  221.0250 C   0  0  0  0  0  0  0  0  0  0  0  0
  141.0160   74.8790  221.4590 C   0  0  0  0  0  0  0  0  0  0  0  0
  142.7520   76.3680  218.9690 C   0  0  0  0  0  0  0  0  0  0  0  0
  142.5550   75.5010  217.8970 C   0  0  0  0  0  0  0  0  0  0  0  0
  143.1890   74.2990  217.7790 C   0  0  0  0  0  0  0  0  0  0  0  0
  144.0730   73.9330  218.7850 C   0  0  0  0  0  0  0  0  0  0  0  0
  144.7150   72.7240  218.6750 C   0  0  0  0  0  0  0  0  0  0  0  0
  145.5850   72.3670  219.6690 C   0  0  0  0  0  0  0  0  0  0  0  0
  146.2420   71.1860  219.6040 F   0  0  0  0  0  0  0  0  0  0  0  0
  145.7720   73.2300  220.7210 C   0  0  0  0  0  0  0  0  0  0  0  0
  145.1220   74.4470  220.8270 C   0  0  0  0  0  0  0  0  0  0  0  0
  144.2360   74.8130  219.8180 C   0  0  0  0  0  0  0  0  0  0  0  0
  143.6010   75.9960  219.9160 N   0  0  0  0  0  0  0  0  0  0  0  0
  143.6530   78.8900  218.6170 H   0  0  0  0  0  0  0  0  0  0  0  0
  142.1587   80.6974  217.9602 H   0  0  0  0  0  0  0  0  0  0  0  0
  140.7750   79.6048  218.6435 H   0  0  0  0  0  0  0  0  0  0  0  0
  140.1842   82.0474  222.0779 H   0  0  0  0  0  0  0  0  0  0  0  0
  139.6830   80.4141  222.4815 H   0  0  0  0  0  0  0  0  0  0  0  0
  141.7159   82.1446  223.7954 H   0  0  0  0  0  0  0  0  0  0  0  0
  140.9947   80.6539  224.4247 H   0  0  0  0  0  0  0  0  0  0  0  0
  143.5389   81.0382  222.8548 H   0  0  0  0  0  0  0  0  0  0  0  0
  143.1790   79.7609  223.9758 H   0  0  0  0  0  0  0  0  0  0  0  0
  142.9629   79.0333  221.3143 H   0  0  0  0  0  0  0  0  0  0  0  0
  141.8434   78.1467  223.5128 H   0  0  0  0  0  0  0  0  0  0  0  0
  140.3909   78.7776  222.5413 H   0  0  0  0  0  0  0  0  0  0  0  0
  142.2000   77.0060  221.2130 H   0  0  0  0  0  0  0  0  0  0  0  0
  140.9955   75.9663  223.3839 H   0  0  0  0  0  0  0  0  0  0  0  0
  138.6941   75.4231  222.7653 H   0  0  0  0  0  0  0  0  0  0  0  0
  138.9083   77.1849  222.8793 H   0  0  0  0  0  0  0  0  0  0  0  0
  137.7400   76.7458  220.7749 H   0  0  0  0  0  0  0  0  0  0  0  0
  139.4282   77.1651  220.3412 H   0  0  0  0  0  0  0  0  0  0  0  0
  137.9515   74.6388  219.9983 H   0  0  0  0  0  0  0  0  0  0  0  0
  139.4621   75.2244  219.2025 H   0  0  0  0  0  0  0  0  0  0  0  0
  139.1912   73.8330  221.9080 H   0  0  0  0  0  0  0  0  0  0  0  0
  140.0416   73.2350  220.4576 H   0  0  0  0  0  0  0  0  0  0  0  0
  141.6574   74.1923  222.0309 H   0  0  0  0  0  0  0  0  0  0  0  0
  141.5287   75.2418  220.5559 H   0  0  0  0  0  0  0  0  0  0  0  0
  141.8525   75.8007  217.1054 H   0  0  0  0  0  0  0  0  0  0  0  0
  143.0060   73.6419  216.9160 H   0  0  0  0  0  0  0  0  0  0  0  0
  144.5354   72.0629  217.8143 H   0  0  0  0  0  0  0  0  0  0  0  0
  146.4725   72.9397  221.5179 H   0  0  0  0  0  0  0  0  0  0  0  0
  145.3011   75.1087  221.6873 H   0  0  0  0  0  0  0  0  0  0  0  0
  1  2  2  0
  2  3  1  0
  3  4  1  0
  4  5  1  0
  5  6  2  0
  5  7  1  0
  7  8  1  0
  8  9  1  0
  9 10  1  0
 10 11  1  0
 11 12  1  0
 12 13  1  0
 13 14  1  0
 14 15  1  0
 15 16  1  0
 16 17  1  0
 17 18  1  0
 18 19  1  0
  2 20  1  0
 20 21  2  0
 21 22  1  0
 22 23  2  0
 23 24  1  0
 24 25  2  0
 25 26  1  0
 25 27  1  0
 27 28  2  0
 28 29  1  0
 29 30  2  0
 11  7  1  0
 19 14  1  0
 30 20  1  0
 29 23  1  0
  3 31  1  0
  4 32  1  0
  4 33  1  0
  8 34  1  0
  8 35  1  0
  9 36  1  0
  9 37  1  0
 10 38  1  0
 10 39  1  0
 11 40  1  6
 12 41  1  0
 12 42  1  0
 13 43  1  0
 14 44  1  0
 15 45  1  0
 15 46  1  0
 16 47  1  0
 16 48  1  0
 17 49  1  0
 17 50  1  0
 18 51  1  0
 18 52  1  0
 19 53  1  0
 19 54  1  0
 21 55  1  0
 22 56  1  0
 24 57  1  0
 27 58  1  0
 28 59  1  0
M  END
>  <smiles>  (12) 
O=C(NCC(=O)N1CCC[C@H]1CNC1CCCCC1)c1ccc2cc(F)ccc2n1

>  <score_type>  (12) 
oracle

>  <origin>  (12) 
autodockgpu

>  <m_score__min__energy>  (12) 
-8.9399999999999995

>  <m_primary>  (12) 
energy

>  <rmsd>  (12) 
7.5368695925806435

>  <m_score__min__rmsd>  (12) 
7.5368695925806435

>  <meeko>  (12) 
{"free_energy": -6.7, "intermolecular_energy": -8.79, "internal_energy": -3.55, "cluster_size": 10, "cluster_id": 7, "rank_in_cluster": 1}

>  <energy>  (12) 
-8.54

>  <cluster_rmsd>  (12) 
1.72

>  <cluster>  (12) 
1

$$$$

     RDKit          3D

 59 62  0  0  0  0  0  0  0  0999 V2000
  140.6730   73.3440  222.3420 O   0  0  0  0  0  0  0  0  0  0  0  0
  139.8610   72.3750  222.5340 C   0  0  0  0  0  0  0  0  0  0  0  0
  138.8860   72.2020  221.5020 N   0  0  0  0  0  0  0  0  0  0  0  0
  138.9110   73.0880  220.3980 C   0  0  0  0  0  0  0  0  0  0  0  0
  138.6890   74.5060  220.5660 C   0  0  0  0  0  0  0  0  0  0  0  0
  137.4920   74.8930  220.1810 O   0  0  0  0  0  0  0  0  0  0  0  0
  139.4960   75.5400  221.0520 N   0  0  0  0  0  0  0  0  0  0  0  0
  139.7530   76.1230  222.3400 C   0  0  0  0  0  0  0  0  0  0  0  0
  139.7870   77.6170  222.0590 C   0  0  0  0  0  0  0  0  0  0  0  0
  139.8290   77.7580  220.5510 C   0  0  0  0  0  0  0  0  0  0  0  0
  140.3310   76.3650  220.1430 C   0  0  1  0  0  0  0  0  0  0  0  0
  141.7820   76.3090  220.4350 C   0  0  0  0  0  0  0  0  0  0  0  0
  142.3130   75.0650  220.8600 N   0  0  0  0  0  0  0  0  0  0  0  0
  142.7340   74.1480  219.8620 C   0  0  0  0  0  0  0  0  0  0  0  0
  144.0770   74.5170  219.3090 C   0  0  0  0  0  0  0  0  0  0  0  0
  145.0710   74.4700  220.4760 C   0  0  0  0  0  0  0  0  0  0  0  0
  145.2800   73.0310  220.8850 C   0  0  0  0  0  0  0  0  0  0  0  0
  144.2080   72.1410  220.2790 C   0  0  0  0  0  0  0  0  0  0  0  0
  142.8660   72.7800  220.5490 C   0  0  0  0  0  0  0  0  0  0  0  0
  139.9320   71.5260  223.7110 C   0  0  0  0  0  0  0  0  0  0  0  0
  139.4170   70.2380  223.5840 C   0  0  0  0  0  0  0  0  0  0  0  0
  139.4140   69.3290  224.6020 C   0  0  0  0  0  0  0  0  0  0  0  0
  139.9530   69.7200  225.8200 C   0  0  0  0  0  0  0  0  0  0  0  0
  139.9520   68.8120  226.8500 C   0  0  0  0  0  0  0  0  0  0  0  0
  140.4840   69.2040  228.0490 C   0  0  0  0  0  0  0  0  0  0  0  0
  140.5070   68.3430  229.0940 F   0  0  0  0  0  0  0  0  0  0  0  0
  140.9890   70.4750  228.1620 C   0  0  0  0  0  0  0  0  0  0  0  0
  140.9870   71.3860  227.1200 C   0  0  0  0  0  0  0  0  0  0  0  0
  140.4460   70.9930  225.9000 C   0  0  0  0  0  0  0  0  0  0  0  0
  140.4410   71.8750  224.8820 N   0  0  0  0  0  0  0  0  0  0  0  0
  138.2050   71.4120  221.6370 H   0  0  0  0  0  0  0  0  0  0  0  0
  139.9036   72.9813  219.9361 H   0  0  0  0  0  0  0  0  0  0  0  0
  138.0272   72.7756  219.8224 H   0  0  0  0  0  0  0  0  0  0  0  0
  138.9500   75.8755  223.0499 H   0  0  0  0  0  0  0  0  0  0  0  0
  140.6830   75.7539  222.7971 H   0  0  0  0  0  0  0  0  0  0  0  0
  138.8865   78.1024  222.4633 H   0  0  0  0  0  0  0  0  0  0  0  0
  140.6565   78.0961  222.5326 H   0  0  0  0  0  0  0  0  0  0  0  0
  138.8316   77.9659  220.1363 H   0  0  0  0  0  0  0  0  0  0  0  0
  140.4519   78.5894  220.1895 H   0  0  0  0  0  0  0  0  0  0  0  0
  140.2425   76.0581  219.0904 H   0  0  0  0  0  0  0  0  0  0  0  0
  142.3149   76.5995  219.5176 H   0  0  0  0  0  0  0  0  0  0  0  0
  141.9234   76.9836  221.2923 H   0  0  0  0  0  0  0  0  0  0  0  0
  141.8730   74.6750  221.7000 H   0  0  0  0  0  0  0  0  0  0  0  0
  142.0085   74.1458  219.0351 H   0  0  0  0  0  0  0  0  0  0  0  0
  144.3748   73.7997  218.5300 H   0  0  0  0  0  0  0  0  0  0  0  0
  144.0526   75.5183  218.8544 H   0  0  0  0  0  0  0  0  0  0  0  0
  146.0301   74.9073  220.1616 H   0  0  0  0  0  0  0  0  0  0  0  0
  144.6743   75.0445  221.3260 H   0  0  0  0  0  0  0  0  0  0  0  0
  146.2678   72.6959  220.5358 H   0  0  0  0  0  0  0  0  0  0  0  0
  145.2199   72.9619  221.9812 H   0  0  0  0  0  0  0  0  0  0  0  0
  144.3671   72.0500  219.1944 H   0  0  0  0  0  0  0  0  0  0  0  0
  144.2494   71.1353  220.7226 H   0  0  0  0  0  0  0  0  0  0  0  0
  142.0738   72.1156  220.1735 H   0  0  0  0  0  0  0  0  0  0  0  0
  142.7737   72.9333  221.6343 H   0  0  0  0  0  0  0  0  0  0  0  0
  138.9915   69.9386  222.6148 H   0  0  0  0  0  0  0  0  0  0  0  0
  138.9983   68.3202  224.4620 H   0  0  0  0  0  0  0  0  0  0  0  0
  139.5371   67.8021  226.7161 H   0  0  0  0  0  0  0  0  0  0  0  0
  141.4160   70.7847  229.1273 H   0  0  0  0  0  0  0  0  0  0  0  0
  141.4028   72.3956  227.2532 H   0  0  0  0  0  0  0  0  0  0  0  0
  1  2  2  0
  2  3  1  0
  3  4  1  0
  4  5  1  0
  5  6  2  0
  5  7  1  0
  7  8  1  0
  8  9  1  0
  9 10  1  0
 10 11  1  0
 11 12  1  0
 12 13  1  0
 13 14  1  0
 14 15  1  0
 15 16  1  0
 16 17  1  0
 17 18  1  0
 18 19  1  0
  2 20  1  0
 20 21  2  0
 21 22  1  0
 22 23  2  0
 23 24  1  0
 24 25  2  0
 25 26  1  0
 25 27  1  0
 27 28  2  0
 28 29  1  0
 29 30  2  0
 11  7  1  0
 19 14  1  0
 30 20  1  0
 29 23  1  0
  3 31  1  0
  4 32  1  0
  4 33  1  0
  8 34  1  0
  8 35  1  0
  9 36  1  0
  9 37  1  0
 10 38  1  0
 10 39  1  0
 11 40  1  6
 12 41  1  0
 12 42  1  0
 13 43  1  0
 14 44  1  0
 15 45  1  0
 15 46  1  0
 16 47  1  0
 16 48  1  0
 17 49  1  0
 17 50  1  0
 18 51  1  0
 18 52  1  0
 19 53  1  0
 19 54  1  0
 21 55  1  0
 22 56  1  0
 24 57  1  0
 27 58  1  0
 28 59  1  0
M  END
>  <smiles>  (13) 
O=C(NCC(=O)N1CCC[C@H]1CNC1CCCCC1)c1ccc2cc(F)ccc2n1

>  <score_type>  (13) 
oracle

>  <origin>  (13) 
autodockgpu

>  <m_score__min__energy>  (13) 
-8.9399999999999995

>  <m_primary>  (13) 
energy

>  <rmsd>  (13) 
4.591917590293514

>  <m_score__min__rmsd>  (13) 
4.591917590293514

>  <meeko>  (13) 
{"free_energy": -7.41, "intermolecular_energy": -9.5, "internal_energy": -2.6, "cluster_size": 11, "cluster_id": 3, "rank_in_cluster": 7}

>  <energy>  (13) 
-8.49

>  <cluster_rmsd>  (13) 
0.94

>  <cluster>  (13) 
1

$$$$

     RDKit          3D

 59 62  0  0  0  0  0  0  0  0999 V2000
  139.9980   73.0660  222.7300 O   0  0  0  0  0  0  0  0  0  0  0  0
  140.2240   71.8130  222.8390 C   0  0  0  0  0  0  0  0  0  0  0  0
  140.3800   71.1250  221.5940 N   0  0  0  0  0  0  0  0  0  0  0  0
  140.2740   71.8720  220.3960 C   0  0  0  0  0  0  0  0  0  0  0  0
  141.1830   72.9550  220.1010 C   0  0  0  0  0  0  0  0  0  0  0  0
  142.4260   72.5570  219.9320 O   0  0  0  0  0  0  0  0  0  0  0  0
  141.0010   74.3350  219.9650 N   0  0  0  0  0  0  0  0  0  0  0  0
  140.3660   75.1980  219.0080 C   0  0  0  0  0  0  0  0  0  0  0  0
  141.3440   76.3520  218.8580 C   0  0  0  0  0  0  0  0  0  0  0  0
  142.3520   76.1950  219.9770 C   0  0  0  0  0  0  0  0  0  0  0  0
  141.5720   75.2920  220.9460 C   0  0  1  0  0  0  0  0  0  0  0  0
  140.5620   76.1350  221.6270 C   0  0  0  0  0  0  0  0  0  0  0  0
  141.0390   77.1580  222.4860 N   0  0  0  0  0  0  0  0  0  0  0  0
  140.6120   78.4880  222.2340 C   0  0  0  0  0  0  0  0  0  0  0  0
  140.4660   79.2670  223.5060 C   0  0  0  0  0  0  0  0  0  0  0  0
  141.8480   79.3080  224.1680 C   0  0  0  0  0  0  0  0  0  0  0  0
  142.7580   80.1970  223.3520 C   0  0  0  0  0  0  0  0  0  0  0  0
  142.1510   80.4740  221.9860 C   0  0  0  0  0  0  0  0  0  0  0  0
  141.7140   79.1530  221.3960 C   0  0  0  0  0  0  0  0  0  0  0  0
  140.3150   71.1500  224.1290 C   0  0  0  0  0  0  0  0  0  0  0  0
  140.8410   71.8970  225.1800 C   0  0  0  0  0  0  0  0  0  0  0  0
  140.9870   71.4090  226.4460 C   0  0  0  0  0  0  0  0  0  0  0  0
  140.5890   70.1000  226.6840 C   0  0  0  0  0  0  0  0  0  0  0  0
  140.7350   69.6000  227.9550 C   0  0  0  0  0  0  0  0  0  0  0  0
  140.3410   68.3100  228.1850 C   0  0  0  0  0  0  0  0  0  0  0  0
  140.4640   67.7740  229.4220 F   0  0  0  0  0  0  0  0  0  0  0  0
  139.8230   67.5840  227.1410 C   0  0  0  0  0  0  0  0  0  0  0  0
  139.6790   68.0930  225.8620 C   0  0  0  0  0  0  0  0  0  0  0  0
  140.0790   69.4040  225.6240 C   0  0  0  0  0  0  0  0  0  0  0  0
  139.9410   69.9050  224.3820 N   0  0  0  0  0  0  0  0  0  0  0  0
  140.5660   70.0920  221.6570 H   0  0  0  0  0  0  0  0  0  0  0  0
  140.3713   71.1512  219.5708 H   0  0  0  0  0  0  0  0  0  0  0  0
  139.3156   72.3957  220.5269 H   0  0  0  0  0  0  0  0  0  0  0  0
  140.2206   74.6799  218.0486 H   0  0  0  0  0  0  0  0  0  0  0  0
  139.3659   75.5259  219.3277 H   0  0  0  0  0  0  0  0  0  0  0  0
  141.8470   76.3018  217.8810 H   0  0  0  0  0  0  0  0  0  0  0  0
  140.8311   77.3236  218.9120 H   0  0  0  0  0  0  0  0  0  0  0  0
  143.2743   75.7094  219.6254 H   0  0  0  0  0  0  0  0  0  0  0  0
  142.6951   77.1434  220.4160 H   0  0  0  0  0  0  0  0  0  0  0  0
  142.1185   74.7915  221.7589 H   0  0  0  0  0  0  0  0  0  0  0  0
  139.9533   76.6159  220.8471 H   0  0  0  0  0  0  0  0  0  0  0  0
  140.0172   75.4441  222.2871 H   0  0  0  0  0  0  0  0  0  0  0  0
  142.0030   77.0280  222.8130 H   0  0  0  0  0  0  0  0  0  0  0  0
  139.6369   78.4713  221.7251 H   0  0  0  0  0  0  0  0  0  0  0  0
  140.1221   80.2884  223.2860 H   0  0  0  0  0  0  0  0  0  0  0  0
  139.7261   78.7975  224.1710 H   0  0  0  0  0  0  0  0  0  0  0  0
  141.7567   79.7103  225.1877 H   0  0  0  0  0  0  0  0  0  0  0  0
  142.2670   78.2921  224.2170 H   0  0  0  0  0  0  0  0  0  0  0  0
  142.9038   81.1494  223.8827 H   0  0  0  0  0  0  0  0  0  0  0  0
  143.7226   79.6864  223.2146 H   0  0  0  0  0  0  0  0  0  0  0  0
  141.2833   81.1419  222.0909 H   0  0  0  0  0  0  0  0  0  0  0  0
  142.8878   80.9616  221.3307 H   0  0  0  0  0  0  0  0  0  0  0  0
  141.3317   79.3267  220.3793 H   0  0  0  0  0  0  0  0  0  0  0  0
  142.5847   78.4809  221.3828 H   0  0  0  0  0  0  0  0  0  0  0  0
  141.1545   72.9322  224.9797 H   0  0  0  0  0  0  0  0  0  0  0  0
  141.4057   72.0313  227.2506 H   0  0  0  0  0  0  0  0  0  0  0  0
  141.1555   70.2173  228.7626 H   0  0  0  0  0  0  0  0  0  0  0  0
  139.5071   66.5475  227.3303 H   0  0  0  0  0  0  0  0  0  0  0  0
  139.2588   67.4763  225.0539 H   0  0  0  0  0  0  0  0  0  0  0  0
  1  2  2  0
  2  3  1  0
  3  4  1  0
  4  5  1  0
  5  6  2  0
  5  7  1  0
  7  8  1  0
  8  9  1  0
  9 10  1  0
 10 11  1  0
 11 12  1  0
 12 13  1  0
 13 14  1  0
 14 15  1  0
 15 16  1  0
 16 17  1  0
 17 18  1  0
 18 19  1  0
  2 20  1  0
 20 21  2  0
 21 22  1  0
 22 23  2  0
 23 24  1  0
 24 25  2  0
 25 26  1  0
 25 27  1  0
 27 28  2  0
 28 29  1  0
 29 30  2  0
 11  7  1  0
 19 14  1  0
 30 20  1  0
 29 23  1  0
  3 31  1  0
  4 32  1  0
  4 33  1  0
  8 34  1  0
  8 35  1  0
  9 36  1  0
  9 37  1  0
 10 38  1  0
 10 39  1  0
 11 40  1  1
 12 41  1  0
 12 42  1  0
 13 43  1  0
 14 44  1  0
 15 45  1  0
 15 46  1  0
 16 47  1  0
 16 48  1  0
 17 49  1  0
 17 50  1  0
 18 51  1  0
 18 52  1  0
 19 53  1  0
 19 54  1  0
 21 55  1  0
 22 56  1  0
 24 57  1  0
 27 58  1  0
 28 59  1  0
M  END
>  <smiles>  (14) 
O=C(NCC(=O)N1CCC[C@H]1CNC1CCCCC1)c1ccc2cc(F)ccc2n1

>  <score_type>  (14) 
oracle

>  <origin>  (14) 
autodockgpu

>  <m_score__min__energy>  (14) 
-8.9399999999999995

>  <m_primary>  (14) 
energy

>  <rmsd>  (14) 
3.1029685022324274

>  <m_score__min__rmsd>  (14) 
3.1029685022324274

>  <meeko>  (14) 
{"free_energy": -8.61, "intermolecular_energy": -10.69, "internal_energy": -1.65, "cluster_size": 22, "cluster_id": 1, "rank_in_cluster": 8}

>  <energy>  (14) 
-8.48

>  <cluster_rmsd>  (14) 
1.2

>  <cluster>  (14) 
1

$$$$

     RDKit          3D

 59 62  0  0  0  0  0  0  0  0999 V2000
  139.9750   73.0340  222.9490 O   0  0  0  0  0  0  0  0  0  0  0  0
  140.1900   71.7760  223.0280 C   0  0  0  0  0  0  0  0  0  0  0  0
  140.2310   71.0990  221.7680 N   0  0  0  0  0  0  0  0  0  0  0  0
  140.0390   71.8600  220.5890 C   0  0  0  0  0  0  0  0  0  0  0  0
  141.1050   72.6510  220.0220 C   0  0  0  0  0  0  0  0  0  0  0  0
  142.1800   71.9470  219.7400 O   0  0  0  0  0  0  0  0  0  0  0  0
  141.2180   74.0120  219.7180 N   0  0  0  0  0  0  0  0  0  0  0  0
  141.0000   74.8270  218.5550 C   0  0  0  0  0  0  0  0  0  0  0  0
  142.1800   75.7850  218.5590 C   0  0  0  0  0  0  0  0  0  0  0  0
  142.8440   75.6260  219.9110 C   0  0  0  0  0  0  0  0  0  0  0  0
  141.7030   74.9930  220.7220 C   0  0  1  0  0  0  0  0  0  0  0  0
  140.7320   76.0660  221.0400 C   0  0  0  0  0  0  0  0  0  0  0  0
  141.1040   77.0090  222.0300 N   0  0  0  0  0  0  0  0  0  0  0  0
  140.6600   78.3480  221.8700 C   0  0  0  0  0  0  0  0  0  0  0  0
  140.4270   79.0100  223.1940 C   0  0  0  0  0  0  0  0  0  0  0  0
  141.7700   79.0190  223.9340 C   0  0  0  0  0  0  0  0  0  0  0  0
  142.7010   79.9930  223.2500 C   0  0  0  0  0  0  0  0  0  0  0  0
  142.1640   80.3770  221.8810 C   0  0  0  0  0  0  0  0  0  0  0  0
  141.7910   79.1040  221.1560 C   0  0  0  0  0  0  0  0  0  0  0  0
  140.3770   71.0990  224.3000 C   0  0  0  0  0  0  0  0  0  0  0  0
  140.7310   71.8950  225.3860 C   0  0  0  0  0  0  0  0  0  0  0  0
  140.9400   71.3990  226.6410 C   0  0  0  0  0  0  0  0  0  0  0  0
  140.7900   70.0320  226.8300 C   0  0  0  0  0  0  0  0  0  0  0  0
  141.0000   69.5250  228.0890 C   0  0  0  0  0  0  0  0  0  0  0  0
  140.8510   68.1770  228.2690 C   0  0  0  0  0  0  0  0  0  0  0  0
  141.0460   67.6320  229.4930 F   0  0  0  0  0  0  0  0  0  0  0  0
  140.5010   67.4030  227.1910 C   0  0  0  0  0  0  0  0  0  0  0  0
  140.2900   67.9190  225.9240 C   0  0  0  0  0  0  0  0  0  0  0  0
  140.4420   69.2900  225.7360 C   0  0  0  0  0  0  0  0  0  0  0  0
  140.2380   69.7980  224.5060 N   0  0  0  0  0  0  0  0  0  0  0  0
  140.4050   70.0630  221.8050 H   0  0  0  0  0  0  0  0  0  0  0  0
  139.7296   71.1500  219.8079 H   0  0  0  0  0  0  0  0  0  0  0  0
  139.3222   72.6275  220.9161 H   0  0  0  0  0  0  0  0  0  0  0  0
  140.9958   74.2139  217.6417 H   0  0  0  0  0  0  0  0  0  0  0  0
  140.0302   75.3457  218.5740 H   0  0  0  0  0  0  0  0  0  0  0  0
  142.8845   75.5266  217.7547 H   0  0  0  0  0  0  0  0  0  0  0  0
  141.8565   76.8225  218.3892 H   0  0  0  0  0  0  0  0  0  0  0  0
  143.7186   74.9611  219.8564 H   0  0  0  0  0  0  0  0  0  0  0  0
  143.2396   76.5603  220.3358 H   0  0  0  0  0  0  0  0  0  0  0  0
  141.9372   74.5273  221.6906 H   0  0  0  0  0  0  0  0  0  0  0  0
  140.5384   76.6220  220.1108 H   0  0  0  0  0  0  0  0  0  0  0  0
  139.8621   75.5422  221.4629 H   0  0  0  0  0  0  0  0  0  0  0  0
  142.0400   76.8690  222.4260 H   0  0  0  0  0  0  0  0  0  0  0  0
  139.7147   78.3578  221.3076 H   0  0  0  0  0  0  0  0  0  0  0  0
  140.0717   80.0401  223.0438 H   0  0  0  0  0  0  0  0  0  0  0  0
  139.6634   78.4704  223.7734 H   0  0  0  0  0  0  0  0  0  0  0  0
  141.6140   79.3288  224.9779 H   0  0  0  0  0  0  0  0  0  0  0  0
  142.2098   78.0109  223.9190 H   0  0  0  0  0  0  0  0  0  0  0  0
  142.7947   80.8980  223.8682 H   0  0  0  0  0  0  0  0  0  0  0  0
  143.6833   79.5144  223.1235 H   0  0  0  0  0  0  0  0  0  0  0  0
  141.2765   81.0171  221.9934 H   0  0  0  0  0  0  0  0  0  0  0  0
  142.9240   80.9336  221.3129 H   0  0  0  0  0  0  0  0  0  0  0  0
  141.4613   79.3582  220.1378 H   0  0  0  0  0  0  0  0  0  0  0  0
  142.6766   78.4518  221.1350 H   0  0  0  0  0  0  0  0  0  0  0  0
  140.8481   72.9769  225.2252 H   0  0  0  0  0  0  0  0  0  0  0  0
  141.2180   72.0608  227.4745 H   0  0  0  0  0  0  0  0  0  0  0  0
  141.2791   70.1819  228.9260 H   0  0  0  0  0  0  0  0  0  0  0  0
  140.3824   66.3198  227.3412 H   0  0  0  0  0  0  0  0  0  0  0  0
  140.0094   67.2626  225.0871 H   0  0  0  0  0  0  0  0  0  0  0  0
  1  2  2  0
  2  3  1  0
  3  4  1  0
  4  5  1  0
  5  6  2  0
  5  7  1  0
  7  8  1  0
  8  9  1  0
  9 10  1  0
 10 11  1  0
 11 12  1  0
 12 13  1  0
 13 14  1  0
 14 15  1  0
 15 16  1  0
 16 17  1  0
 17 18  1  0
 18 19  1  0
  2 20  1  0
 20 21  2  0
 21 22  1  0
 22 23  2  0
 23 24  1  0
 24 25  2  0
 25 26  1  0
 25 27  1  0
 27 28  2  0
 28 29  1  0
 29 30  2  0
 11  7  1  0
 19 14  1  0
 30 20  1  0
 29 23  1  0
  3 31  1  0
  4 32  1  0
  4 33  1  0
  8 34  1  0
  8 35  1  0
  9 36  1  0
  9 37  1  0
 10 38  1  0
 10 39  1  0
 11 40  1  1
 12 41  1  0
 12 42  1  0
 13 43  1  0
 14 44  1  0
 15 45  1  0
 15 46  1  0
 16 47  1  0
 16 48  1  0
 17 49  1  0
 17 50  1  0
 18 51  1  0
 18 52  1  0
 19 53  1  0
 19 54  1  0
 21 55  1  0
 22 56  1  0
 24 57  1  0
 27 58  1  0
 28 59  1  0
M  END
>  <smiles>  (15) 
O=C(NCC(=O)N1CCC[C@H]1CNC1CCCCC1)c1ccc2cc(F)ccc2n1

>  <score_type>  (15) 
oracle

>  <origin>  (15) 
autodockgpu

>  <m_score__min__energy>  (15) 
-8.9399999999999995

>  <m_primary>  (15) 
energy

>  <rmsd>  (15) 
3.2065753471977443

>  <m_score__min__rmsd>  (15) 
3.2065753471977443

>  <meeko>  (15) 
{"free_energy": -8.54, "intermolecular_energy": -10.62, "internal_energy": -1.65, "cluster_size": 22, "cluster_id": 1, "rank_in_cluster": 12}

>  <energy>  (15) 
-8.47

>  <cluster_rmsd>  (15) 
1.56

>  <cluster>  (15) 
1

$$$$

     RDKit          3D

 59 62  0  0  0  0  0  0  0  0999 V2000
  139.1030   75.9940  222.7490 O   0  0  0  0  0  0  0  0  0  0  0  0
  140.1760   76.4820  222.2530 C   0  0  0  0  0  0  0  0  0  0  0  0
  141.0970   75.5070  221.7530 N   0  0  0  0  0  0  0  0  0  0  0  0
  140.7450   74.1390  221.8490 C   0  0  0  0  0  0  0  0  0  0  0  0
  141.5770   73.1060  221.2750 C   0  0  0  0  0  0  0  0  0  0  0  0
  141.1630   71.8900  221.5580 O   0  0  0  0  0  0  0  0  0  0  0  0
  142.7310   73.1480  220.4860 N   0  0  0  0  0  0  0  0  0  0  0  0
  143.2550   72.3790  219.3910 C   0  0  0  0  0  0  0  0  0  0  0  0
  144.7320   72.2390  219.7240 C   0  0  0  0  0  0  0  0  0  0  0  0
  144.9970   73.2010  220.8630 C   0  0  0  0  0  0  0  0  0  0  0  0
  143.7980   74.1520  220.7260 C   0  0  1  0  0  0  0  0  0  0  0  0
  144.0630   75.0420  219.5720 C   0  0  0  0  0  0  0  0  0  0  0  0
  143.4180   76.3040  219.5610 N   0  0  0  0  0  0  0  0  0  0  0  0
  142.3880   76.5140  218.6080 C   0  0  0  0  0  0  0  0  0  0  0  0
  141.3810   77.5100  219.0990 C   0  0  0  0  0  0  0  0  0  0  0  0
  142.1280   78.8310  219.3200 C   0  0  0  0  0  0  0  0  0  0  0  0
  142.5170   79.4060  217.9780 C   0  0  0  0  0  0  0  0  0  0  0  0
  142.3730   78.3600  216.8850 C   0  0  0  0  0  0  0  0  0  0  0  0
  143.0590   77.0990  217.3560 C   0  0  0  0  0  0  0  0  0  0  0  0
  140.4300   77.9110  222.2060 C   0  0  0  0  0  0  0  0  0  0  0  0
  141.4560   78.3910  223.0160 C   0  0  0  0  0  0  0  0  0  0  0  0
  141.8080   79.7090  223.0780 C   0  0  0  0  0  0  0  0  0  0  0  0
  141.0990   80.6050  222.2890 C   0  0  0  0  0  0  0  0  0  0  0  0
  141.4450   81.9330  222.3460 C   0  0  0  0  0  0  0  0  0  0  0  0
  140.7430   82.8120  221.5670 C   0  0  0  0  0  0  0  0  0  0  0  0
  141.0490   84.1300  221.5890 F   0  0  0  0  0  0  0  0  0  0  0  0
  139.7340   82.3260  220.7730 C   0  0  0  0  0  0  0  0  0  0  0  0
  139.3890   80.9870  220.7190 C   0  0  0  0  0  0  0  0  0  0  0  0
  140.1000   80.0900  221.5100 C   0  0  0  0  0  0  0  0  0  0  0  0
  139.7690   78.7860  221.4630 N   0  0  0  0  0  0  0  0  0  0  0  0
  141.9890   75.8820  221.3410 H   0  0  0  0  0  0  0  0  0  0  0  0
  140.6650   73.9131  222.9226 H   0  0  0  0  0  0  0  0  0  0  0  0
  139.8365   74.0833  221.2313 H   0  0  0  0  0  0  0  0  0  0  0  0
  142.7700   71.3932  219.3363 H   0  0  0  0  0  0  0  0  0  0  0  0
  143.0811   72.8542  218.4143 H   0  0  0  0  0  0  0  0  0  0  0  0
  144.9576   71.2081  220.0343 H   0  0  0  0  0  0  0  0  0  0  0  0
  145.3642   72.4634  218.8522 H   0  0  0  0  0  0  0  0  0  0  0  0
  144.9959   72.6865  221.8353 H   0  0  0  0  0  0  0  0  0  0  0  0
  145.9777   73.6974  220.8194 H   0  0  0  0  0  0  0  0  0  0  0  0
  143.5628   74.8311  221.5588 H   0  0  0  0  0  0  0  0  0  0  0  0
  145.1471   75.2251  219.5384 H   0  0  0  0  0  0  0  0  0  0  0  0
  143.6508   74.5074  218.7035 H   0  0  0  0  0  0  0  0  0  0  0  0
  144.0290   77.1000  219.7760 H   0  0  0  0  0  0  0  0  0  0  0  0
  141.8683   75.5643  218.4130 H   0  0  0  0  0  0  0  0  0  0  0  0
  140.5873   77.6456  218.3495 H   0  0  0  0  0  0  0  0  0  0  0  0
  140.9096   77.1648  220.0310 H   0  0  0  0  0  0  0  0  0  0  0  0
  141.4748   79.5400  219.8498 H   0  0  0  0  0  0  0  0  0  0  0  0
  143.0301   78.6516  219.9233 H   0  0  0  0  0  0  0  0  0  0  0  0
  141.8641   80.2610  217.7482 H   0  0  0  0  0  0  0  0  0  0  0  0
  143.5673   79.7298  218.0223 H   0  0  0  0  0  0  0  0  0  0  0  0
  141.3078   78.1586  216.6983 H   0  0  0  0  0  0  0  0  0  0  0  0
  142.8285   78.7177  215.9498 H   0  0  0  0  0  0  0  0  0  0  0  0
  143.0208   76.3513  216.5501 H   0  0  0  0  0  0  0  0  0  0  0  0
  144.0979   77.3525  217.6135 H   0  0  0  0  0  0  0  0  0  0  0  0
  142.0108   77.6724  223.6371 H   0  0  0  0  0  0  0  0  0  0  0  0
  142.6254   80.0493  223.7308 H   0  0  0  0  0  0  0  0  0  0  0  0
  142.2609   82.2791  222.9975 H   0  0  0  0  0  0  0  0  0  0  0  0
  139.1719   83.0362  220.1488 H   0  0  0  0  0  0  0  0  0  0  0  0
  138.5734   80.6406  220.0673 H   0  0  0  0  0  0  0  0  0  0  0  0
  1  2  2  0
  2  3  1  0
  3  4  1  0
  4  5  1  0
  5  6  2  0
  5  7  1  0
  7  8  1  0
  8  9  1  0
  9 10  1  0
 10 11  1  0
 11 12  1  0
 12 13  1  0
 13 14  1  0
 14 15  1  0
 15 16  1  0
 16 17  1  0
 17 18  1  0
 18 19  1  0
  2 20  1  0
 20 21  2  0
 21 22  1  0
 22 23  2  0
 23 24  1  0
 24 25  2  0
 25 26  1  0
 25 27  1  0
 27 28  2  0
 28 29  1  0
 29 30  2  0
 11  7  1  0
 19 14  1  0
 30 20  1  0
 29 23  1  0
  3 31  1  0
  4 32  1  0
  4 33  1  0
  8 34  1  0
  8 35  1  0
  9 36  1  0
  9 37  1  0
 10 38  1  0
 10 39  1  0
 11 40  1  1
 12 41  1  0
 12 42  1  0
 13 43  1  0
 14 44  1  0
 15 45  1  0
 15 46  1  0
 16 47  1  0
 16 48  1  0
 17 49  1  0
 17 50  1  0
 18 51  1  0
 18 52  1  0
 19 53  1  0
 19 54  1  0
 21 55  1  0
 22 56  1  0
 24 57  1  0
 27 58  1  0
 28 59  1  0
M  END
>  <smiles>  (16) 
O=C(NCC(=O)N1CCC[C@H]1CNC1CCCCC1)c1ccc2cc(F)ccc2n1

>  <score_type>  (16) 
oracle

>  <origin>  (16) 
autodockgpu

>  <m_score__min__energy>  (16) 
-8.9399999999999995

>  <m_primary>  (16) 
energy

>  <rmsd>  (16) 
8.1370229326177

>  <m_score__min__rmsd>  (16) 
8.1370229326177

>  <meeko>  (16) 
{"free_energy": -6.42, "intermolecular_energy": -8.5, "internal_energy": -2.97, "cluster_size": 3, "cluster_id": 8, "rank_in_cluster": 1}

>  <energy>  (16) 
-8.47

>  <cluster_rmsd>  (16) 
1.11

>  <cluster>  (16) 
1

$$$$

     RDKit          3D

 59 62  0  0  0  0  0  0  0  0999 V2000
  140.8760   73.0660  222.4230 O   0  0  0  0  0  0  0  0  0  0  0  0
  140.5930   73.9750  221.5700 C   0  0  0  0  0  0  0  0  0  0  0  0
  140.6810   73.5590  220.2040 N   0  0  0  0  0  0  0  0  0  0  0  0
  141.0590   72.2210  219.9320 C   0  0  0  0  0  0  0  0  0  0  0  0
  142.4180   71.8810  219.5810 C   0  0  0  0  0  0  0  0  0  0  0  0
  142.5580   70.6290  219.2000 O   0  0  0  0  0  0  0  0  0  0  0  0
  143.6070   72.6180  219.5690 N   0  0  0  0  0  0  0  0  0  0  0  0
  144.7850   72.6550  218.7460 C   0  0  0  0  0  0  0  0  0  0  0  0
  145.9210   72.7860  219.7490 C   0  0  0  0  0  0  0  0  0  0  0  0
  145.2700   73.1060  221.0790 C   0  0  0  0  0  0  0  0  0  0  0  0
  143.9020   73.6290  220.6150 C   0  0  1  0  0  0  0  0  0  0  0  0
  144.1030   75.0010  220.0920 C   0  0  0  0  0  0  0  0  0  0  0  0
  142.9780   75.8630  220.0790 N   0  0  0  0  0  0  0  0  0  0  0  0
  142.9600   76.9150  219.1250 C   0  0  0  0  0  0  0  0  0  0  0  0
  142.2470   76.5070  217.8720 C   0  0  0  0  0  0  0  0  0  0  0  0
  140.8050   76.1700  218.2650 C   0  0  0  0  0  0  0  0  0  0  0  0
  140.0870   77.4460  218.6380 C   0  0  0  0  0  0  0  0  0  0  0  0
  141.0800   78.5780  218.8480 C   0  0  0  0  0  0  0  0  0  0  0  0
  142.1730   78.0710  219.7610 C   0  0  0  0  0  0  0  0  0  0  0  0
  140.2120   75.3200  221.9670 C   0  0  0  0  0  0  0  0  0  0  0  0
  138.8540   75.6230  221.9290 C   0  0  0  0  0  0  0  0  0  0  0  0
  138.3480   76.8440  222.2720 C   0  0  0  0  0  0  0  0  0  0  0  0
  139.2450   77.8240  222.6770 C   0  0  0  0  0  0  0  0  0  0  0  0
  138.7450   79.0550  223.0230 C   0  0  0  0  0  0  0  0  0  0  0  0
  139.6320   80.0180  223.4210 C   0  0  0  0  0  0  0  0  0  0  0  0
  139.1870   81.2470  223.7730 F   0  0  0  0  0  0  0  0  0  0  0  0
  140.9690   79.7070  223.4550 C   0  0  0  0  0  0  0  0  0  0  0  0
  141.4670   78.4640  223.1050 C   0  0  0  0  0  0  0  0  0  0  0  0
  140.5680   77.4830  222.6990 C   0  0  0  0  0  0  0  0  0  0  0  0
  141.0470   76.2720  222.3570 N   0  0  0  0  0  0  0  0  0  0  0  0
  140.4540   74.2890  219.4820 H   0  0  0  0  0  0  0  0  0  0  0  0
  140.8158   71.6396  220.8336 H   0  0  0  0  0  0  0  0  0  0  0  0
  140.5114   72.0029  219.0032 H   0  0  0  0  0  0  0  0  0  0  0  0
  144.8836   71.7292  218.1602 H   0  0  0  0  0  0  0  0  0  0  0  0
  144.7672   73.4745  218.0124 H   0  0  0  0  0  0  0  0  0  0  0  0
  146.4825   71.8425  219.8157 H   0  0  0  0  0  0  0  0  0  0  0  0
  146.6332   73.5694  219.4505 H   0  0  0  0  0  0  0  0  0  0  0  0
  145.1681   72.2078  221.7058 H   0  0  0  0  0  0  0  0  0  0  0  0
  145.8374   73.8108  221.7046 H   0  0  0  0  0  0  0  0  0  0  0  0
  143.0927   73.7227  221.3541 H   0  0  0  0  0  0  0  0  0  0  0  0
  144.8786   75.4792  220.7083 H   0  0  0  0  0  0  0  0  0  0  0  0
  144.3658   74.8637  219.0327 H   0  0  0  0  0  0  0  0  0  0  0  0
  142.5770   76.0600  221.0020 H   0  0  0  0  0  0  0  0  0  0  0  0
  143.9917   77.1906  218.8612 H   0  0  0  0  0  0  0  0  0  0  0  0
  142.2571   77.3332  217.1458 H   0  0  0  0  0  0  0  0  0  0  0  0
  142.7388   75.6407  217.4055 H   0  0  0  0  0  0  0  0  0  0  0  0
  140.2930   75.6931  217.4162 H   0  0  0  0  0  0  0  0  0  0  0  0
  140.8044   75.4789  219.1208 H   0  0  0  0  0  0  0  0  0  0  0  0
  139.3928   77.7195  217.8297 H   0  0  0  0  0  0  0  0  0  0  0  0
  139.5347   77.2809  219.5749 H   0  0  0  0  0  0  0  0  0  0  0  0
  141.5102   78.8822  217.8824 H   0  0  0  0  0  0  0  0  0  0  0  0
  140.5798   79.4497  219.2950 H   0  0  0  0  0  0  0  0  0  0  0  0
  142.8667   78.8966  219.9779 H   0  0  0  0  0  0  0  0  0  0  0  0
  141.7019   77.6968  220.6819 H   0  0  0  0  0  0  0  0  0  0  0  0
  138.1529   74.8392  221.6063 H   0  0  0  0  0  0  0  0  0  0  0  0
  137.2673   77.0445  222.2290 H   0  0  0  0  0  0  0  0  0  0  0  0
  137.6652   79.2607  222.9816 H   0  0  0  0  0  0  0  0  0  0  0  0
  141.6788   80.4836  223.7760 H   0  0  0  0  0  0  0  0  0  0  0  0
  142.5465   78.2570  223.1468 H   0  0  0  0  0  0  0  0  0  0  0  0
  1  2  2  0
  2  3  1  0
  3  4  1  0
  4  5  1  0
  5  6  2  0
  5  7  1  0
  7  8  1  0
  8  9  1  0
  9 10  1  0
 10 11  1  0
 11 12  1  0
 12 13  1  0
 13 14  1  0
 14 15  1  0
 15 16  1  0
 16 17  1  0
 17 18  1  0
 18 19  1  0
  2 20  1  0
 20 21  2  0
 21 22  1  0
 22 23  2  0
 23 24  1  0
 24 25  2  0
 25 26  1  0
 25 27  1  0
 27 28  2  0
 28 29  1  0
 29 30  2  0
 11  7  1  0
 19 14  1  0
 30 20  1  0
 29 23  1  0
  3 31  1  0
  4 32  1  0
  4 33  1  0
  8 34  1  0
  8 35  1  0
  9 36  1  0
  9 37  1  0
 10 38  1  0
 10 39  1  0
 11 40  1  1
 12 41  1  0
 12 42  1  0
 13 43  1  0
 14 44  1  0
 15 45  1  0
 15 46  1  0
 16 47  1  0
 16 48  1  0
 17 49  1  0
 17 50  1  0
 18 51  1  0
 18 52  1  0
 19 53  1  0
 19 54  1  0
 21 55  1  0
 22 56  1  0
 24 57  1  0
 27 58  1  0
 28 59  1  0
M  END
>  <smiles>  (17) 
O=C(NCC(=O)N1CCC[C@H]1CNC1CCCCC1)c1ccc2cc(F)ccc2n1

>  <score_type>  (17) 
oracle

>  <origin>  (17) 
autodockgpu

>  <m_score__min__energy>  (17) 
-8.9399999999999995

>  <m_primary>  (17) 
energy

>  <rmsd>  (17) 
6.74727906135858

>  <m_score__min__rmsd>  (17) 
6.74727906135858

>  <meeko>  (17) 
{"free_energy": -6.14, "intermolecular_energy": -8.23, "internal_energy": -3.88, "cluster_size": 3, "cluster_id": 8, "rank_in_cluster": 3}

>  <energy>  (17) 
-8.45

>  <cluster_rmsd>  (17) 
1.07

>  <cluster>  (17) 
1

$$$$

     RDKit          3D

 59 62  0  0  0  0  0  0  0  0999 V2000
  141.5760   72.4650  221.6510 O   0  0  0  0  0  0  0  0  0  0  0  0
  140.5870   72.5650  222.4550 C   0  0  0  0  0  0  0  0  0  0  0  0
  139.6740   73.6230  222.1470 N   0  0  0  0  0  0  0  0  0  0  0  0
  139.9410   74.4340  221.0170 C   0  0  0  0  0  0  0  0  0  0  0  0
  140.8630   75.5430  221.0880 C   0  0  0  0  0  0  0  0  0  0  0  0
  141.2290   75.8370  222.3170 O   0  0  0  0  0  0  0  0  0  0  0  0
  141.4370   76.3620  220.1100 N   0  0  0  0  0  0  0  0  0  0  0  0
  141.8860   77.7260  220.0470 C   0  0  0  0  0  0  0  0  0  0  0  0
  141.3930   78.2050  218.6900 C   0  0  0  0  0  0  0  0  0  0  0  0
  140.9370   76.9650  217.9490 C   0  0  0  0  0  0  0  0  0  0  0  0
  141.6780   75.8700  218.7300 C   0  0  1  0  0  0  0  0  0  0  0  0
  143.1000   75.9080  218.3140 C   0  0  0  0  0  0  0  0  0  0  0  0
  143.8750   74.7420  218.5350 N   0  0  0  0  0  0  0  0  0  0  0  0
  143.6930   74.0470  219.7590 C   0  0  0  0  0  0  0  0  0  0  0  0
  143.8120   72.5650  219.5710 C   0  0  0  0  0  0  0  0  0  0  0  0
  145.2290   72.2910  219.0530 C   0  0  0  0  0  0  0  0  0  0  0  0
  146.2180   72.5520  220.1640 C   0  0  0  0  0  0  0  0  0  0  0  0
  145.5600   73.3230  221.2970 C   0  0  0  0  0  0  0  0  0  0  0  0
  144.8260   74.4980  220.6930 C   0  0  0  0  0  0  0  0  0  0  0  0
  140.4130   71.6700  223.5860 C   0  0  0  0  0  0  0  0  0  0  0  0
  139.7390   70.4760  223.3420 C   0  0  0  0  0  0  0  0  0  0  0  0
  139.5010   69.5400  224.3060 C   0  0  0  0  0  0  0  0  0  0  0  0
  139.9580   69.8030  225.5910 C   0  0  0  0  0  0  0  0  0  0  0  0
  139.7210   68.8670  226.5670 C   0  0  0  0  0  0  0  0  0  0  0  0
  140.1740   69.1320  227.8310 C   0  0  0  0  0  0  0  0  0  0  0  0
  139.9650   68.2380  228.8270 F   0  0  0  0  0  0  0  0  0  0  0  0
  140.8380   70.3120  228.0590 C   0  0  0  0  0  0  0  0  0  0  0  0
  141.0730   71.2520  227.0710 C   0  0  0  0  0  0  0  0  0  0  0  0
  140.6140   70.9870  225.7850 C   0  0  0  0  0  0  0  0  0  0  0  0
  140.8400   71.8980  224.8190 N   0  0  0  0  0  0  0  0  0  0  0  0
  138.8520   73.7280  222.7950 H   0  0  0  0  0  0  0  0  0  0  0  0
  140.3234   73.7614  220.2351 H   0  0  0  0  0  0  0  0  0  0  0  0
  138.9767   74.9370  220.8524 H   0  0  0  0  0  0  0  0  0  0  0  0
  141.4434   78.3226  220.8582 H   0  0  0  0  0  0  0  0  0  0  0  0
  142.9756   77.8221  220.1632 H   0  0  0  0  0  0  0  0  0  0  0  0
  140.5545   78.9061  218.8138 H   0  0  0  0  0  0  0  0  0  0  0  0
  142.1834   78.7355  218.1388 H   0  0  0  0  0  0  0  0  0  0  0  0
  139.8462   76.8365  218.0089 H   0  0  0  0  0  0  0  0  0  0  0  0
  141.1504   76.9766  216.8700 H   0  0  0  0  0  0  0  0  0  0  0  0
  141.3702   74.8229  218.5928 H   0  0  0  0  0  0  0  0  0  0  0  0
  143.1227   76.1197  217.2348 H   0  0  0  0  0  0  0  0  0  0  0  0
  143.5597   76.6769  218.9524 H   0  0  0  0  0  0  0  0  0  0  0  0
  144.8270   74.7810  218.1550 H   0  0  0  0  0  0  0  0  0  0  0  0
  142.6925   74.2646  220.1610 H   0  0  0  0  0  0  0  0  0  0  0  0
  143.6537   72.0487  220.5294 H   0  0  0  0  0  0  0  0  0  0  0  0
  143.0566   72.1975  218.8608 H   0  0  0  0  0  0  0  0  0  0  0  0
  145.3068   71.2428  218.7288 H   0  0  0  0  0  0  0  0  0  0  0  0
  145.4465   72.9501  218.1996 H   0  0  0  0  0  0  0  0  0  0  0  0
  146.5906   71.5914  220.5492 H   0  0  0  0  0  0  0  0  0  0  0  0
  147.0499   73.1506  219.7644 H   0  0  0  0  0  0  0  0  0  0  0  0
  144.8505   72.6725  221.8294 H   0  0  0  0  0  0  0  0  0  0  0  0
  146.3175   73.6715  222.0145 H   0  0  0  0  0  0  0  0  0  0  0  0
  144.3977   75.1049  221.5043 H   0  0  0  0  0  0  0  0  0  0  0  0
  145.5456   75.0807  220.0992 H   0  0  0  0  0  0  0  0  0  0  0  0
  139.3806   70.2775  222.3211 H   0  0  0  0  0  0  0  0  0  0  0  0
  138.9650   68.6081  224.0732 H   0  0  0  0  0  0  0  0  0  0  0  0
  139.1842   67.9340  226.3404 H   0  0  0  0  0  0  0  0  0  0  0  0
  141.2007   70.5202  229.0764 H   0  0  0  0  0  0  0  0  0  0  0  0
  141.6094   72.1854  227.2970 H   0  0  0  0  0  0  0  0  0  0  0  0
  1  2  2  0
  2  3  1  0
  3  4  1  0
  4  5  1  0
  5  6  2  0
  5  7  1  0
  7  8  1  0
  8  9  1  0
  9 10  1  0
 10 11  1  0
 11 12  1  0
 12 13  1  0
 13 14  1  0
 14 15  1  0
 15 16  1  0
 16 17  1  0
 17 18  1  0
 18 19  1  0
  2 20  1  0
 20 21  2  0
 21 22  1  0
 22 23  2  0
 23 24  1  0
 24 25  2  0
 25 26  1  0
 25 27  1  0
 27 28  2  0
 28 29  1  0
 29 30  2  0
 11  7  1  0
 19 14  1  0
 30 20  1  0
 29 23  1  0
  3 31  1  0
  4 32  1  0
  4 33  1  0
  8 34  1  0
  8 35  1  0
  9 36  1  0
  9 37  1  0
 10 38  1  0
 10 39  1  0
 11 40  1  1
 12 41  1  0
 12 42  1  0
 13 43  1  0
 14 44  1  0
 15 45  1  0
 15 46  1  0
 16 47  1  0
 16 48  1  0
 17 49  1  0
 17 50  1  0
 18 51  1  0
 18 52  1  0
 19 53  1  0
 19 54  1  0
 21 55  1  0
 22 56  1  0
 24 57  1  0
 27 58  1  0
 28 59  1  0
M  END
>  <smiles>  (18) 
O=C(NCC(=O)N1CCC[C@H]1CNC1CCCCC1)c1ccc2cc(F)ccc2n1

>  <score_type>  (18) 
oracle

>  <origin>  (18) 
autodockgpu

>  <m_score__min__energy>  (18) 
-8.9399999999999995

>  <m_primary>  (18) 
energy

>  <rmsd>  (18) 
4.7692003134794785

>  <m_score__min__rmsd>  (18) 
4.7692003134794785

>  <meeko>  (18) 
{"free_energy": -8.07, "intermolecular_energy": -10.16, "internal_energy": -1.96, "cluster_size": 11, "cluster_id": 3, "rank_in_cluster": 1}

>  <energy>  (18) 
-8.44

>  <cluster_rmsd>  (18) 
0.56

>  <cluster>  (18) 
1

$$$$

     RDKit          3D

 59 62  0  0  0  0  0  0  0  0999 V2000
  141.3060   73.6970  220.6750 O   0  0  0  0  0  0  0  0  0  0  0  0
  140.6450   74.4790  221.4420 C   0  0  0  0  0  0  0  0  0  0  0  0
  139.5700   73.8510  222.1470 N   0  0  0  0  0  0  0  0  0  0  0  0
  139.3450   72.4690  221.9380 C   0  0  0  0  0  0  0  0  0  0  0  0
  139.1490   71.5630  223.0450 C   0  0  0  0  0  0  0  0  0  0  0  0
  139.9700   71.7860  224.0500 O   0  0  0  0  0  0  0  0  0  0  0  0
  138.2660   70.4990  223.2550 N   0  0  0  0  0  0  0  0  0  0  0  0
  137.6630   69.4860  222.4320 C   0  0  0  0  0  0  0  0  0  0  0  0
  136.2270   69.4280  222.9280 C   0  0  0  0  0  0  0  0  0  0  0  0
  136.1940   70.2280  224.2140 C   0  0  0  0  0  0  0  0  0  0  0  0
  137.6830   70.2280  224.5930 C   0  0  1  0  0  0  0  0  0  0  0  0
  138.0060   68.8870  225.1350 C   0  0  0  0  0  0  0  0  0  0  0  0
  139.3760   68.5310  225.2190 N   0  0  0  0  0  0  0  0  0  0  0  0
  139.9690   68.4760  226.5070 C   0  0  0  0  0  0  0  0  0  0  0  0
  141.4110   68.8830  226.4650 C   0  0  0  0  0  0  0  0  0  0  0  0
  141.4540   70.3310  225.9610 C   0  0  0  0  0  0  0  0  0  0  0  0
  140.8970   71.2400  227.0320 C   0  0  0  0  0  0  0  0  0  0  0  0
  140.1620   70.4350  228.0900 C   0  0  0  0  0  0  0  0  0  0  0  0
  139.2170   69.4920  227.3810 C   0  0  0  0  0  0  0  0  0  0  0  0
  140.9700   75.8880  221.5800 C   0  0  0  0  0  0  0  0  0  0  0  0
  141.4790   76.5250  220.4510 C   0  0  0  0  0  0  0  0  0  0  0  0
  141.8300   77.8440  220.4300 C   0  0  0  0  0  0  0  0  0  0  0  0
  141.6660   78.5760  221.5990 C   0  0  0  0  0  0  0  0  0  0  0  0
  142.0180   79.9030  221.5870 C   0  0  0  0  0  0  0  0  0  0  0  0
  141.8550   80.6190  222.7410 C   0  0  0  0  0  0  0  0  0  0  0  0
  142.1870   81.9310  222.7770 F   0  0  0  0  0  0  0  0  0  0  0  0
  141.3520   79.9800  223.8470 C   0  0  0  0  0  0  0  0  0  0  0  0
  141.0000   78.6420  223.8530 C   0  0  0  0  0  0  0  0  0  0  0  0
  141.1640   77.9100  222.6820 C   0  0  0  0  0  0  0  0  0  0  0  0
  140.8230   76.6070  222.6820 N   0  0  0  0  0  0  0  0  0  0  0  0
  139.0090   74.4730  222.7840 H   0  0  0  0  0  0  0  0  0  0  0  0
  138.4450   72.3921  221.3103 H   0  0  0  0  0  0  0  0  0  0  0  0
  140.3061   72.1320  221.5225 H   0  0  0  0  0  0  0  0  0  0  0  0
  137.7002   69.7698  221.3699 H   0  0  0  0  0  0  0  0  0  0  0  0
  138.1782   68.5166  222.5022 H   0  0  0  0  0  0  0  0  0  0  0  0
  135.5482   69.8718  222.1848 H   0  0  0  0  0  0  0  0  0  0  0  0
  135.9000   68.3906  223.0916 H   0  0  0  0  0  0  0  0  0  0  0  0
  135.8192   71.2485  224.0462 H   0  0  0  0  0  0  0  0  0  0  0  0
  135.5277   69.8185  224.9875 H   0  0  0  0  0  0  0  0  0  0  0  0
  138.0339   70.9352  225.3590 H   0  0  0  0  0  0  0  0  0  0  0  0
  137.5876   68.8319  226.1508 H   0  0  0  0  0  0  0  0  0  0  0  0
  137.5747   68.1793  224.4117 H   0  0  0  0  0  0  0  0  0  0  0  0
  139.9570   68.8790  224.4490 H   0  0  0  0  0  0  0  0  0  0  0  0
  139.9110   67.4484  226.8952 H   0  0  0  0  0  0  0  0  0  0  0  0
  141.8507   68.8201  227.4713 H   0  0  0  0  0  0  0  0  0  0  0  0
  141.9869   68.2197  225.8029 H   0  0  0  0  0  0  0  0  0  0  0  0
  142.4938   70.6143  225.7406 H   0  0  0  0  0  0  0  0  0  0  0  0
  140.8531   70.4241  225.0443 H   0  0  0  0  0  0  0  0  0  0  0  0
  141.7241   71.7890  227.5058 H   0  0  0  0  0  0  0  0  0  0  0  0
  140.1897   71.9425  226.5671 H   0  0  0  0  0  0  0  0  0  0  0  0
  140.8827   69.8607  228.6907 H   0  0  0  0  0  0  0  0  0  0  0  0
  139.6043   71.1036  228.7623 H   0  0  0  0  0  0  0  0  0  0  0  0
  138.6281   68.9467  228.1332 H   0  0  0  0  0  0  0  0  0  0  0  0
  138.5671   70.0902  226.7254 H   0  0  0  0  0  0  0  0  0  0  0  0
  141.6044   75.9360  219.5305 H   0  0  0  0  0  0  0  0  0  0  0  0
  142.2293   78.3115  219.5179 H   0  0  0  0  0  0  0  0  0  0  0  0
  142.4185   80.3755  220.6780 H   0  0  0  0  0  0  0  0  0  0  0  0
  141.2226   80.5596  224.7729 H   0  0  0  0  0  0  0  0  0  0  0  0
  140.6001   78.1687  224.7619 H   0  0  0  0  0  0  0  0  0  0  0  0
  1  2  2  0
  2  3  1  0
  3  4  1  0
  4  5  1  0
  5  6  2  0
  5  7  1  0
  7  8  1  0
  8  9  1  0
  9 10  1  0
 10 11  1  0
 11 12  1  0
 12 13  1  0
 13 14  1  0
 14 15  1  0
 15 16  1  0
 16 17  1  0
 17 18  1  0
 18 19  1  0
  2 20  1  0
 20 21  2  0
 21 22  1  0
 22 23  2  0
 23 24  1  0
 24 25  2  0
 25 26  1  0
 25 27  1  0
 27 28  2  0
 28 29  1  0
 29 30  2  0
 11  7  1  0
 19 14  1  0
 30 20  1  0
 29 23  1  0
  3 31  1  0
  4 32  1  0
  4 33  1  0
  8 34  1  0
  8 35  1  0
  9 36  1  0
  9 37  1  0
 10 38  1  0
 10 39  1  0
 11 40  1  1
 12 41  1  0
 12 42  1  0
 13 43  1  0
 14 44  1  0
 15 45  1  0
 15 46  1  0
 16 47  1  0
 16 48  1  0
 17 49  1  0
 17 50  1  0
 18 51  1  0
 18 52  1  0
 19 53  1  0
 19 54  1  0
 21 55  1  0
 22 56  1  0
 24 57  1  0
 27 58  1  0
 28 59  1  0
M  END
>  <smiles>  (19) 
O=C(NCC(=O)N1CCC[C@H]1CNC1CCCCC1)c1ccc2cc(F)ccc2n1

>  <score_type>  (19) 
oracle

>  <origin>  (19) 
autodockgpu

>  <m_score__min__energy>  (19) 
-8.9399999999999995

>  <m_primary>  (19) 
energy

>  <rmsd>  (19) 
9.65003394496754

>  <m_score__min__rmsd>  (19) 
9.65003394496754

>  <meeko>  (19) 
{"free_energy": -8.2, "intermolecular_energy": -10.29, "internal_energy": -1.85, "cluster_size": 1, "cluster_id": 2, "rank_in_cluster": 1}

>  <energy>  (19) 
-8.39

>  <cluster_rmsd>  (19) 
1.37

>  <cluster>  (19) 
1

$$$$

     RDKit          3D

 59 62  0  0  0  0  0  0  0  0999 V2000
  140.5680   71.1490  221.6300 O   0  0  0  0  0  0  0  0  0  0  0  0
  140.2000   71.7390  222.7030 C   0  0  0  0  0  0  0  0  0  0  0  0
  139.7110   73.0710  222.5120 N   0  0  0  0  0  0  0  0  0  0  0  0
  139.6790   73.5930  221.1960 C   0  0  0  0  0  0  0  0  0  0  0  0
  140.6240   74.5940  220.7610 C   0  0  0  0  0  0  0  0  0  0  0  0
  141.8470   74.3770  221.1970 O   0  0  0  0  0  0  0  0  0  0  0  0
  140.4940   75.7430  219.9740 N   0  0  0  0  0  0  0  0  0  0  0  0
  139.4010   76.5610  219.5240 C   0  0  0  0  0  0  0  0  0  0  0  0
  139.7470   76.8560  218.0730 C   0  0  0  0  0  0  0  0  0  0  0  0
  141.1820   76.4090  217.8850 C   0  0  0  0  0  0  0  0  0  0  0  0
  141.6720   76.3860  219.3410 C   0  0  1  0  0  0  0  0  0  0  0  0
  141.8940   77.7900  219.7590 C   0  0  0  0  0  0  0  0  0  0  0  0
  141.8340   78.0730  221.1470 N   0  0  0  0  0  0  0  0  0  0  0  0
  140.9740   79.1190  221.5740 C   0  0  0  0  0  0  0  0  0  0  0  0
  140.5720   78.9480  223.0070 C   0  0  0  0  0  0  0  0  0  0  0  0
  141.8570   78.9910  223.8420 C   0  0  0  0  0  0  0  0  0  0  0  0
  142.4020   80.4000  223.8310 C   0  0  0  0  0  0  0  0  0  0  0  0
  141.7350   81.2240  222.7420 C   0  0  0  0  0  0  0  0  0  0  0  0
  141.7780   80.4230  221.4620 C   0  0  0  0  0  0  0  0  0  0  0  0
  140.2760   71.1000  224.0050 C   0  0  0  0  0  0  0  0  0  0  0  0
  140.7330   71.8850  225.0610 C   0  0  0  0  0  0  0  0  0  0  0  0
  140.8590   71.4220  226.3390 C   0  0  0  0  0  0  0  0  0  0  0  0
  140.5120   70.1010  226.5850 C   0  0  0  0  0  0  0  0  0  0  0  0
  140.6370   69.6260  227.8680 C   0  0  0  0  0  0  0  0  0  0  0  0
  140.2930   68.3230  228.1050 C   0  0  0  0  0  0  0  0  0  0  0  0
  140.3990   67.8110  229.3530 F   0  0  0  0  0  0  0  0  0  0  0  0
  139.8440   67.5600  227.0560 C   0  0  0  0  0  0  0  0  0  0  0  0
  139.7200   68.0430  225.7650 C   0  0  0  0  0  0  0  0  0  0  0  0
  140.0690   69.3670  225.5200 C   0  0  0  0  0  0  0  0  0  0  0  0
  139.9500   69.8440  224.2660 N   0  0  0  0  0  0  0  0  0  0  0  0
  139.4030   73.5790  223.3800 H   0  0  0  0  0  0  0  0  0  0  0  0
  139.8008   72.7352  220.5183 H   0  0  0  0  0  0  0  0  0  0  0  0
  138.7266   74.1432  221.1816 H   0  0  0  0  0  0  0  0  0  0  0  0
  138.4476   76.0172  219.5974 H   0  0  0  0  0  0  0  0  0  0  0  0
  139.2739   77.4726  220.1263 H   0  0  0  0  0  0  0  0  0  0  0  0
  139.0812   76.2957  217.4001 H   0  0  0  0  0  0  0  0  0  0  0  0
  139.6245   77.9239  217.8394 H   0  0  0  0  0  0  0  0  0  0  0  0
  141.2379   75.4120  217.4237 H   0  0  0  0  0  0  0  0  0  0  0  0
  141.7741   77.0510  217.2162 H   0  0  0  0  0  0  0  0  0  0  0  0
  142.6140   75.8683  219.5748 H   0  0  0  0  0  0  0  0  0  0  0  0
  142.8922   78.0863  219.4043 H   0  0  0  0  0  0  0  0  0  0  0  0
  141.0557   78.3509  219.3202 H   0  0  0  0  0  0  0  0  0  0  0  0
  142.7230   77.9630  221.6470 H   0  0  0  0  0  0  0  0  0  0  0  0
  140.0632   79.1210  220.9572 H   0  0  0  0  0  0  0  0  0  0  0  0
  139.8975   79.7625  223.3098 H   0  0  0  0  0  0  0  0  0  0  0  0
  140.0402   77.9965  223.1543 H   0  0  0  0  0  0  0  0  0  0  0  0
  141.6353   78.6891  224.8763 H   0  0  0  0  0  0  0  0  0  0  0  0
  142.6006   78.3009  223.4167 H   0  0  0  0  0  0  0  0  0  0  0  0
  142.2107   80.8691  224.8074 H   0  0  0  0  0  0  0  0  0  0  0  0
  143.4833   80.3601  223.6329 H   0  0  0  0  0  0  0  0  0  0  0  0
  140.6907   81.4324  223.0176 H   0  0  0  0  0  0  0  0  0  0  0  0
  142.2584   82.1827  222.6120 H   0  0  0  0  0  0  0  0  0  0  0  0
  141.3572   81.0312  220.6478 H   0  0  0  0  0  0  0  0  0  0  0  0
  142.8268   80.1601  221.2599 H   0  0  0  0  0  0  0  0  0  0  0  0
  141.0061   72.9304  224.8548 H   0  0  0  0  0  0  0  0  0  0  0  0
  141.2233   72.0740  227.1466 H   0  0  0  0  0  0  0  0  0  0  0  0
  141.0022   70.2729  228.6793 H   0  0  0  0  0  0  0  0  0  0  0  0
  139.5691   66.5129  227.2511 H   0  0  0  0  0  0  0  0  0  0  0  0
  139.3548   67.3964  224.9534 H   0  0  0  0  0  0  0  0  0  0  0  0
  1  2  2  0
  2  3  1  0
  3  4  1  0
  4  5  1  0
  5  6  2  0
  5  7  1  0
  7  8  1  0
  8  9  1  0
  9 10  1  0
 10 11  1  0
 11 12  1  0
 12 13  1  0
 13 14  1  0
 14 15  1  0
 15 16  1  0
 16 17  1  0
 17 18  1  0
 18 19  1  0
  2 20  1  0
 20 21  2  0
 21 22  1  0
 22 23  2  0
 23 24  1  0
 24 25  2  0
 25 26  1  0
 25 27  1  0
 27 28  2  0
 28 29  1  0
 29 30  2  0
 11  7  1  0
 19 14  1  0
 30 20  1  0
 29 23  1  0
  3 31  1  0
  4 32  1  0
  4 33  1  0
  8 34  1  0
  8 35  1  0
  9 36  1  0
  9 37  1  0
 10 38  1  0
 10 39  1  0
 11 40  1  6
 12 41  1  0
 12 42  1  0
 13 43  1  0
 14 44  1  0
 15 45  1  0
 15 46  1  0
 16 47  1  0
 16 48  1  0
 17 49  1  0
 17 50  1  0
 18 51  1  0
 18 52  1  0
 19 53  1  0
 19 54  1  0
 21 55  1  0
 22 56  1  0
 24 57  1  0
 27 58  1  0
 28 59  1  0
M  END
>  <smiles>  (20) 
O=C(NCC(=O)N1CCC[C@H]1CNC1CCCCC1)c1ccc2cc(F)ccc2n1

>  <score_type>  (20) 
oracle

>  <origin>  (20) 
autodockgpu

>  <m_score__min__energy>  (20) 
-8.9399999999999995

>  <m_primary>  (20) 
energy

>  <rmsd>  (20) 
2.826247763342506

>  <m_score__min__rmsd>  (20) 
2.826247763342506

>  <meeko>  (20) 
{"free_energy": -8.49, "intermolecular_energy": -10.58, "internal_energy": -1.43, "cluster_size": 22, "cluster_id": 1, "rank_in_cluster": 13}

>  <energy>  (20) 
-8.32

>  <cluster_rmsd>  (20) 
0.95

>  <cluster>  (20) 
1

$$$$

     RDKit          3D

 59 62  0  0  0  0  0  0  0  0999 V2000
  138.5900   70.6950  221.5300 O   0  0  0  0  0  0  0  0  0  0  0  0
  138.3910   71.1160  222.7210 C   0  0  0  0  0  0  0  0  0  0  0  0
  137.5940   72.3010  222.8090 N   0  0  0  0  0  0  0  0  0  0  0  0
  137.1130   72.8780  221.6080 C   0  0  0  0  0  0  0  0  0  0  0  0
  137.9170   73.8020  220.8430 C   0  0  0  0  0  0  0  0  0  0  0  0
  137.2130   74.7620  220.2820 O   0  0  0  0  0  0  0  0  0  0  0  0
  139.2900   73.8740  220.5820 N   0  0  0  0  0  0  0  0  0  0  0  0
  140.1330   73.6280  219.4450 C   0  0  0  0  0  0  0  0  0  0  0  0
  141.3300   72.8980  220.0350 C   0  0  0  0  0  0  0  0  0  0  0  0
  141.2060   73.0380  221.5380 C   0  0  0  0  0  0  0  0  0  0  0  0
  140.2620   74.2460  221.6410 C   0  0  1  0  0  0  0  0  0  0  0  0
  141.0550   75.4600  221.3360 C   0  0  0  0  0  0  0  0  0  0  0  0
  141.0500   76.5000  222.2990 N   0  0  0  0  0  0  0  0  0  0  0  0
  140.5070   77.7540  221.9180 C   0  0  0  0  0  0  0  0  0  0  0  0
  140.3110   78.6500  223.1030 C   0  0  0  0  0  0  0  0  0  0  0  0
  141.6920   78.8780  223.7270 C   0  0  0  0  0  0  0  0  0  0  0  0
  142.5120   79.7480  222.8030 C   0  0  0  0  0  0  0  0  0  0  0  0
  141.8670   79.8250  221.4290 C   0  0  0  0  0  0  0  0  0  0  0  0
  141.5380   78.4170  220.9910 C   0  0  0  0  0  0  0  0  0  0  0  0
  138.9350   70.4370  223.8850 C   0  0  0  0  0  0  0  0  0  0  0  0
  138.8110   69.0500  223.9140 C   0  0  0  0  0  0  0  0  0  0  0  0
  139.2730   68.2790  224.9410 C   0  0  0  0  0  0  0  0  0  0  0  0
  139.8950   68.9210  226.0030 C   0  0  0  0  0  0  0  0  0  0  0  0
  140.3610   68.1520  227.0420 C   0  0  0  0  0  0  0  0  0  0  0  0
  140.9740   68.7900  228.0860 C   0  0  0  0  0  0  0  0  0  0  0  0
  141.4500   68.0750  229.1320 F   0  0  0  0  0  0  0  0  0  0  0  0
  141.0900   70.1570  228.0450 C   0  0  0  0  0  0  0  0  0  0  0  0
  140.6180   70.9270  226.9960 C   0  0  0  0  0  0  0  0  0  0  0  0
  139.9950   70.2820  225.9320 C   0  0  0  0  0  0  0  0  0  0  0  0
  139.5330   71.0260  224.9090 N   0  0  0  0  0  0  0  0  0  0  0  0
  137.4170   72.6680  223.7780 H   0  0  0  0  0  0  0  0  0  0  0  0
  136.8753   72.0414  220.9345 H   0  0  0  0  0  0  0  0  0  0  0  0
  136.2907   73.5163  221.9636 H   0  0  0  0  0  0  0  0  0  0  0  0
  139.6176   73.0005  218.7030 H   0  0  0  0  0  0  0  0  0  0  0  0
  140.4146   74.5502  218.9156 H   0  0  0  0  0  0  0  0  0  0  0  0
  141.3100   71.8365  219.7472 H   0  0  0  0  0  0  0  0  0  0  0  0
  142.2783   73.3178  219.6684 H   0  0  0  0  0  0  0  0  0  0  0  0
  140.7637   72.1393  221.9926 H   0  0  0  0  0  0  0  0  0  0  0  0
  142.1643   73.1644  222.0630 H   0  0  0  0  0  0  0  0  0  0  0  0
  139.7779   74.4587  222.6056 H   0  0  0  0  0  0  0  0  0  0  0  0
  142.0996   75.1453  221.1953 H   0  0  0  0  0  0  0  0  0  0  0  0
  140.5733   75.8956  220.4482 H   0  0  0  0  0  0  0  0  0  0  0  0
  141.8650   76.5110  222.9220 H   0  0  0  0  0  0  0  0  0  0  0  0
  139.5306   77.6002  221.4353 H   0  0  0  0  0  0  0  0  0  0  0  0
  139.8780   79.6094  222.7834 H   0  0  0  0  0  0  0  0  0  0  0  0
  139.6228   78.1939  223.8298 H   0  0  0  0  0  0  0  0  0  0  0  0
  141.5789   79.3779  224.7003 H   0  0  0  0  0  0  0  0  0  0  0  0
  142.1975   77.9121  223.8737 H   0  0  0  0  0  0  0  0  0  0  0  0
  142.5817   80.7606  223.2270 H   0  0  0  0  0  0  0  0  0  0  0  0
  143.5153   79.3090  222.6998 H   0  0  0  0  0  0  0  0  0  0  0  0
  140.9465   80.4249  221.4813 H   0  0  0  0  0  0  0  0  0  0  0  0
  142.5513   80.2998  220.7105 H   0  0  0  0  0  0  0  0  0  0  0  0
  141.1297   78.4485  219.9701 H   0  0  0  0  0  0  0  0  0  0  0  0
  142.4630   77.8231  221.0303 H   0  0  0  0  0  0  0  0  0  0  0  0
  138.3163   68.5514  223.0674 H   0  0  0  0  0  0  0  0  0  0  0  0
  139.1563   67.1853  224.9276 H   0  0  0  0  0  0  0  0  0  0  0  0
  140.2450   67.0582  227.0348 H   0  0  0  0  0  0  0  0  0  0  0  0
  141.5822   70.6656  228.8870 H   0  0  0  0  0  0  0  0  0  0  0  0
  140.7325   72.0210  227.0033 H   0  0  0  0  0  0  0  0  0  0  0  0
  1  2  2  0
  2  3  1  0
  3  4  1  0
  4  5  1  0
  5  6  2  0
  5  7  1  0
  7  8  1  0
  8  9  1  0
  9 10  1  0
 10 11  1  0
 11 12  1  0
 12 13  1  0
 13 14  1  0
 14 15  1  0
 15 16  1  0
 16 17  1  0
 17 18  1  0
 18 19  1  0
  2 20  1  0
 20 21  2  0
 21 22  1  0
 22 23  2  0
 23 24  1  0
 24 25  2  0
 25 26  1  0
 25 27  1  0
 27 28  2  0
 28 29  1  0
 29 30  2  0
 11  7  1  0
 19 14  1  0
 30 20  1  0
 29 23  1  0
  3 31  1  0
  4 32  1  0
  4 33  1  0
  8 34  1  0
  8 35  1  0
  9 36  1  0
  9 37  1  0
 10 38  1  0
 10 39  1  0
 11 40  1  1
 12 41  1  0
 12 42  1  0
 13 43  1  0
 14 44  1  0
 15 45  1  0
 15 46  1  0
 16 47  1  0
 16 48  1  0
 17 49  1  0
 17 50  1  0
 18 51  1  0
 18 52  1  0
 19 53  1  0
 19 54  1  0
 21 55  1  0
 22 56  1  0
 24 57  1  0
 27 58  1  0
 28 59  1  0
M  END
>  <smiles>  (21) 
O=C(NCC(=O)N1CCC[C@H]1CNC1CCCCC1)c1ccc2cc(F)ccc2n1

>  <score_type>  (21) 
oracle

>  <origin>  (21) 
autodockgpu

>  <m_score__min__energy>  (21) 
-8.9399999999999995

>  <m_primary>  (21) 
energy

>  <rmsd>  (21) 
2.7994295724618135

>  <m_score__min__rmsd>  (21) 
2.7994295724618135

>  <meeko>  (21) 
{"free_energy": -8.07, "intermolecular_energy": -10.16, "internal_energy": -1.75, "cluster_size": 22, "cluster_id": 1, "rank_in_cluster": 21}

>  <energy>  (21) 
-8.07

>  <cluster_rmsd>  (21) 
1.74

>  <cluster>  (21) 
1

$$$$

     RDKit          3D

 59 62  0  0  0  0  0  0  0  0999 V2000
  139.8200   71.5880  221.5520 O   0  0  0  0  0  0  0  0  0  0  0  0
  139.1790   71.7500  222.6470 C   0  0  0  0  0  0  0  0  0  0  0  0
  138.0100   72.5680  222.5360 N   0  0  0  0  0  0  0  0  0  0  0  0
  137.6820   73.1030  221.2660 C   0  0  0  0  0  0  0  0  0  0  0  0
  138.3340   74.2860  220.7570 C   0  0  0  0  0  0  0  0  0  0  0  0
  137.8050   74.7290  219.6360 O   0  0  0  0  0  0  0  0  0  0  0  0
  139.4140   75.0460  221.2180 N   0  0  0  0  0  0  0  0  0  0  0  0
  139.6550   75.9170  222.3350 C   0  0  0  0  0  0  0  0  0  0  0  0
  140.4270   77.0780  221.7270 C   0  0  0  0  0  0  0  0  0  0  0  0
  140.8220   76.6340  220.3340 C   0  0  0  0  0  0  0  0  0  0  0  0
  140.6940   75.1090  220.4670 C   0  0  1  0  0  0  0  0  0  0  0  0
  141.8680   74.6270  221.2320 C   0  0  0  0  0  0  0  0  0  0  0  0
  142.3280   73.3140  220.9600 N   0  0  0  0  0  0  0  0  0  0  0  0
  143.0990   73.1110  219.7860 C   0  0  0  0  0  0  0  0  0  0  0  0
  144.0930   74.2150  219.5850 C   0  0  0  0  0  0  0  0  0  0  0  0
  145.0280   74.2040  220.8000 C   0  0  0  0  0  0  0  0  0  0  0  0
  145.9020   72.9730  220.7360 C   0  0  0  0  0  0  0  0  0  0  0  0
  145.3570   71.9810  219.7220 C   0  0  0  0  0  0  0  0  0  0  0  0
  143.8800   71.8050  219.9940 C   0  0  0  0  0  0  0  0  0  0  0  0
  139.6110   71.1480  223.8960 C   0  0  0  0  0  0  0  0  0  0  0  0
  140.5000   71.8880  224.6720 C   0  0  0  0  0  0  0  0  0  0  0  0
  140.9930   71.4510  225.8680 C   0  0  0  0  0  0  0  0  0  0  0  0
  140.5800   70.2050  226.3210 C   0  0  0  0  0  0  0  0  0  0  0  0
  141.0730   69.7580  227.5220 C   0  0  0  0  0  0  0  0  0  0  0  0
  140.6630   68.5290  227.9650 C   0  0  0  0  0  0  0  0  0  0  0  0
  141.1210   68.0460  229.1440 F   0  0  0  0  0  0  0  0  0  0  0  0
  139.7870   67.8100  227.1910 C   0  0  0  0  0  0  0  0  0  0  0  0
  139.2940   68.2660  225.9810 C   0  0  0  0  0  0  0  0  0  0  0  0
  139.7080   69.5140  225.5270 C   0  0  0  0  0  0  0  0  0  0  0  0
  139.2320   69.9630  224.3510 N   0  0  0  0  0  0  0  0  0  0  0  0
  137.4660   72.7190  223.4230 H   0  0  0  0  0  0  0  0  0  0  0  0
  137.8717   72.3042  220.5339 H   0  0  0  0  0  0  0  0  0  0  0  0
  136.6475   73.4467  221.4131 H   0  0  0  0  0  0  0  0  0  0  0  0
  138.7077   76.2630  222.7741 H   0  0  0  0  0  0  0  0  0  0  0  0
  140.2020   75.4222  223.1511 H   0  0  0  0  0  0  0  0  0  0  0  0
  139.7916   77.9745  221.6764 H   0  0  0  0  0  0  0  0  0  0  0  0
  141.3085   77.3362  222.3323 H   0  0  0  0  0  0  0  0  0  0  0  0
  140.1352   77.0325  219.5727 H   0  0  0  0  0  0  0  0  0  0  0  0
  141.8152   76.9799  220.0117 H   0  0  0  0  0  0  0  0  0  0  0  0
  140.6804   74.4978  219.5525 H   0  0  0  0  0  0  0  0  0  0  0  0
  142.7003   75.3171  221.0292 H   0  0  0  0  0  0  0  0  0  0  0  0
  141.5294   74.5960  222.2781 H   0  0  0  0  0  0  0  0  0  0  0  0
  141.6780   72.5670  221.2300 H   0  0  0  0  0  0  0  0  0  0  0  0
  142.4346   73.0802  218.9098 H   0  0  0  0  0  0  0  0  0  0  0  0
  144.6687   74.0417  218.6639 H   0  0  0  0  0  0  0  0  0  0  0  0
  143.5861   75.1865  219.4889 H   0  0  0  0  0  0  0  0  0  0  0  0
  145.6586   75.1052  220.7884 H   0  0  0  0  0  0  0  0  0  0  0  0
  144.4345   74.1911  221.7260 H   0  0  0  0  0  0  0  0  0  0  0  0
  146.9202   73.2677  220.4420 H   0  0  0  0  0  0  0  0  0  0  0  0
  145.9147   72.4957  221.7270 H   0  0  0  0  0  0  0  0  0  0  0  0
  145.5062   72.3676  218.7030 H   0  0  0  0  0  0  0  0  0  0  0  0
  145.8806   71.0175  219.8079 H   0  0  0  0  0  0  0  0  0  0  0  0
  143.4815   71.0399  219.3114 H   0  0  0  0  0  0  0  0  0  0  0  0
  143.7610   71.5006  221.0443 H   0  0  0  0  0  0  0  0  0  0  0  0
  140.8208   72.8734  224.3030 H   0  0  0  0  0  0  0  0  0  0  0  0
  141.6936   72.0651  226.4528 H   0  0  0  0  0  0  0  0  0  0  0  0
  141.7750   70.3678  228.1096 H   0  0  0  0  0  0  0  0  0  0  0  0
  139.4607   66.8228  227.5500 H   0  0  0  0  0  0  0  0  0  0  0  0
  138.5921   67.6566  225.3928 H   0  0  0  0  0  0  0  0  0  0  0  0
  1  2  2  0
  2  3  1  0
  3  4  1  0
  4  5  1  0
  5  6  2  0
  5  7  1  0
  7  8  1  0
  8  9  1  0
  9 10  1  0
 10 11  1  0
 11 12  1  0
 12 13  1  0
 13 14  1  0
 14 15  1  0
 15 16  1  0
 16 17  1  0
 17 18  1  0
 18 19  1  0
  2 20  1  0
 20 21  2  0
 21 22  1  0
 22 23  2  0
 23 24  1  0
 24 25  2  0
 25 26  1  0
 25 27  1  0
 27 28  2  0
 28 29  1  0
 29 30  2  0
 11  7  1  0
 19 14  1  0
 30 20  1  0
 29 23  1  0
  3 31  1  0
  4 32  1  0
  4 33  1  0
  8 34  1  0
  8 35  1  0
  9 36  1  0
  9 37  1  0
 10 38  1  0
 10 39  1  0
 11 40  1  6
 12 41  1  0
 12 42  1  0
 13 43  1  0
 14 44  1  0
 15 45  1  0
 15 46  1  0
 16 47  1  0
 16 48  1  0
 17 49  1  0
 17 50  1  0
 18 51  1  0
 18 52  1  0
 19 53  1  0
 19 54  1  0
 21 55  1  0
 22 56  1  0
 24 57  1  0
 27 58  1  0
 28 59  1  0
M  END
>  <smiles>  (22) 
O=C(NCC(=O)N1CCC[C@H]1CNC1CCCCC1)c1ccc2cc(F)ccc2n1

>  <score_type>  (22) 
oracle

>  <origin>  (22) 
autodockgpu

>  <m_score__min__energy>  (22) 
-8.9399999999999995

>  <m_primary>  (22) 
energy

>  <rmsd>  (22) 
5.190250847969019

>  <m_score__min__rmsd>  (22) 
5.190250847969019

>  <meeko>  (22) 
{"free_energy": -7.37, "intermolecular_energy": -9.46, "internal_energy": -2.5, "cluster_size": 11, "cluster_id": 3, "rank_in_cluster": 10}

>  <energy>  (22) 
-8.06

>  <cluster_rmsd>  (22) 
1.44

>  <cluster>  (22) 
1

$$$$

     RDKit          3D

 59 62  0  0  0  0  0  0  0  0999 V2000
  139.9390   73.0660  222.6160 O   0  0  0  0  0  0  0  0  0  0  0  0
  139.6290   71.8460  222.8400 C   0  0  0  0  0  0  0  0  0  0  0  0
  138.9720   71.1900  221.7520 N   0  0  0  0  0  0  0  0  0  0  0  0
  138.7350   71.9270  220.5670 C   0  0  0  0  0  0  0  0  0  0  0  0
  137.8850   73.0960  220.5640 C   0  0  0  0  0  0  0  0  0  0  0  0
  137.7800   73.6590  219.3800 O   0  0  0  0  0  0  0  0  0  0  0  0
  137.1600   73.7420  221.5710 N   0  0  0  0  0  0  0  0  0  0  0  0
  136.4790   73.3360  222.7690 C   0  0  0  0  0  0  0  0  0  0  0  0
  135.1960   74.1510  222.7480 C   0  0  0  0  0  0  0  0  0  0  0  0
  135.3770   75.1900  221.6610 C   0  0  0  0  0  0  0  0  0  0  0  0
  136.9080   75.2050  221.5260 C   0  0  1  0  0  0  0  0  0  0  0  0
  137.4520   75.9490  222.6860 C   0  0  0  0  0  0  0  0  0  0  0  0
  138.8580   75.9400  222.8650 N   0  0  0  0  0  0  0  0  0  0  0  0
  139.6440   76.7170  221.9760 C   0  0  0  0  0  0  0  0  0  0  0  0
  139.0240   78.0580  221.7230 C   0  0  0  0  0  0  0  0  0  0  0  0
  138.9460   78.7780  223.0750 C   0  0  0  0  0  0  0  0  0  0  0  0
  140.3430   79.1510  223.5130 C   0  0  0  0  0  0  0  0  0  0  0  0
  141.3800   78.4080  222.6890 C   0  0  0  0  0  0  0  0  0  0  0  0
  140.9960   76.9460  222.6690 C   0  0  0  0  0  0  0  0  0  0  0  0
  139.9260   71.1890  224.1010 C   0  0  0  0  0  0  0  0  0  0  0  0
  140.6840   71.9110  225.0200 C   0  0  0  0  0  0  0  0  0  0  0  0
  141.0410   71.4240  226.2440 C   0  0  0  0  0  0  0  0  0  0  0  0
  140.6220   70.1430  226.5780 C   0  0  0  0  0  0  0  0  0  0  0  0
  140.9780   69.6450  227.8070 C   0  0  0  0  0  0  0  0  0  0  0  0
  140.5630   68.3820  228.1310 C   0  0  0  0  0  0  0  0  0  0  0  0
  140.8880   67.8490  229.3310 F   0  0  0  0  0  0  0  0  0  0  0  0
  139.8160   67.6800  227.2170 C   0  0  0  0  0  0  0  0  0  0  0  0
  139.4600   68.1870  225.9790 C   0  0  0  0  0  0  0  0  0  0  0  0
  139.8810   69.4710  225.6460 C   0  0  0  0  0  0  0  0  0  0  0  0
  139.5380   69.9700  224.4440 N   0  0  0  0  0  0  0  0  0  0  0  0
  138.7050   70.1850  221.9110 H   0  0  0  0  0  0  0  0  0  0  0  0
  139.7195   72.2578  220.2047 H   0  0  0  0  0  0  0  0  0  0  0  0
  138.1614   71.2150  219.9555 H   0  0  0  0  0  0  0  0  0  0  0  0
  136.2595   72.2583  222.7494 H   0  0  0  0  0  0  0  0  0  0  0  0
  137.0765   73.5049  223.6770 H   0  0  0  0  0  0  0  0  0  0  0  0
  134.3364   73.5041  222.5186 H   0  0  0  0  0  0  0  0  0  0  0  0
  135.0013   74.6197  223.7239 H   0  0  0  0  0  0  0  0  0  0  0  0
  134.8912   74.8829  220.7230 H   0  0  0  0  0  0  0  0  0  0  0  0
  134.9311   76.1693  221.8894 H   0  0  0  0  0  0  0  0  0  0  0  0
  137.3571   75.6867  220.6449 H   0  0  0  0  0  0  0  0  0  0  0  0
  137.1394   76.9984  222.5811 H   0  0  0  0  0  0  0  0  0  0  0  0
  137.0526   75.4266  223.5678 H   0  0  0  0  0  0  0  0  0  0  0  0
  139.2450   75.0410  223.1710 H   0  0  0  0  0  0  0  0  0  0  0  0
  139.7369   76.1921  221.0138 H   0  0  0  0  0  0  0  0  0  0  0  0
  139.6454   78.6355  221.0227 H   0  0  0  0  0  0  0  0  0  0  0  0
  138.0242   77.9505  221.2772 H   0  0  0  0  0  0  0  0  0  0  0  0
  138.3356   79.6875  222.9741 H   0  0  0  0  0  0  0  0  0  0  0  0
  138.4854   78.1162  223.8233 H   0  0  0  0  0  0  0  0  0  0  0  0
  140.4856   80.2338  223.3817 H   0  0  0  0  0  0  0  0  0  0  0  0
  140.4676   78.8752  224.5705 H   0  0  0  0  0  0  0  0  0  0  0  0
  141.3963   78.8043  221.6630 H   0  0  0  0  0  0  0  0  0  0  0  0
  142.3810   78.5356  223.1269 H   0  0  0  0  0  0  0  0  0  0  0  0
  141.7716   76.3821  222.1301 H   0  0  0  0  0  0  0  0  0  0  0  0
  140.9071   76.6031  223.7104 H   0  0  0  0  0  0  0  0  0  0  0  0
  141.0113   72.9246  224.7454 H   0  0  0  0  0  0  0  0  0  0  0  0
  141.6406   72.0261  226.9425 H   0  0  0  0  0  0  0  0  0  0  0  0
  141.5780   70.2426  228.5091 H   0  0  0  0  0  0  0  0  0  0  0  0
  139.4843   66.6651  227.4816 H   0  0  0  0  0  0  0  0  0  0  0  0
  138.8597   67.5902  225.2765 H   0  0  0  0  0  0  0  0  0  0  0  0
  1  2  2  0
  2  3  1  0
  3  4  1  0
  4  5  1  0
  5  6  2  0
  5  7  1  0
  7  8  1  0
  8  9  1  0
  9 10  1  0
 10 11  1  0
 11 12  1  0
 12 13  1  0
 13 14  1  0
 14 15  1  0
 15 16  1  0
 16 17  1  0
 17 18  1  0
 18 19  1  0
  2 20  1  0
 20 21  2  0
 21 22  1  0
 22 23  2  0
 23 24  1  0
 24 25  2  0
 25 26  1  0
 25 27  1  0
 27 28  2  0
 28 29  1  0
 29 30  2  0
 11  7  1  0
 19 14  1  0
 30 20  1  0
 29 23  1  0
  3 31  1  0
  4 32  1  0
  4 33  1  0
  8 34  1  0
  8 35  1  0
  9 36  1  0
  9 37  1  0
 10 38  1  0
 10 39  1  0
 11 40  1  6
 12 41  1  0
 12 42  1  0
 13 43  1  0
 14 44  1  0
 15 45  1  0
 15 46  1  0
 16 47  1  0
 16 48  1  0
 17 49  1  0
 17 50  1  0
 18 51  1  0
 18 52  1  0
 19 53  1  0
 19 54  1  0
 21 55  1  0
 22 56  1  0
 24 57  1  0
 27 58  1  0
 28 59  1  0
M  END
>  <smiles>  (23) 
O=C(NCC(=O)N1CCC[C@H]1CNC1CCCCC1)c1ccc2cc(F)ccc2n1

>  <score_type>  (23) 
oracle

>  <origin>  (23) 
autodockgpu

>  <m_score__min__energy>  (23) 
-8.9399999999999995

>  <m_primary>  (23) 
energy

>  <rmsd>  (23) 
4.260973239811616

>  <m_score__min__rmsd>  (23) 
4.260973239811616

>  <meeko>  (23) 
{"free_energy": -7.2, "intermolecular_energy": -9.29, "internal_energy": -2.69, "cluster_size": 1, "cluster_id": 6, "rank_in_cluster": 1}

>  <energy>  (23) 
-8.2

>  <cluster_rmsd>  (23) 
0.0

>  <cluster>  (23) 
2

$$$$

     RDKit          3D

 59 62  0  0  0  0  0  0  0  0999 V2000
  140.6770   77.9000  218.9480 O   0  0  0  0  0  0  0  0  0  0  0  0
  141.9450   77.7650  218.8540 C   0  0  0  0  0  0  0  0  0  0  0  0
  142.6630   78.9920  218.6870 N   0  0  0  0  0  0  0  0  0  0  0  0
  141.9270   80.2010  218.6450 C   0  0  0  0  0  0  0  0  0  0  0  0
  141.6690   80.9670  219.8420 C   0  0  0  0  0  0  0  0  0  0  0  0
  141.6400   82.2650  219.6310 O   0  0  0  0  0  0  0  0  0  0  0  0
  141.4480   80.5990  221.1730 N   0  0  0  0  0  0  0  0  0  0  0  0
  140.6680   81.1120  222.2650 C   0  0  0  0  0  0  0  0  0  0  0  0
  141.5960   80.9850  223.4620 C   0  0  0  0  0  0  0  0  0  0  0  0
  142.7570   80.1270  223.0030 C   0  0  0  0  0  0  0  0  0  0  0  0
  142.1390   79.4330  221.7800 C   0  0  1  0  0  0  0  0  0  0  0  0
  141.2240   78.3790  222.2790 C   0  0  0  0  0  0  0  0  0  0  0  0
  141.3520   77.0850  221.7150 N   0  0  0  0  0  0  0  0  0  0  0  0
  140.6470   76.0200  222.3330 C   0  0  0  0  0  0  0  0  0  0  0  0
  139.1640   76.1970  222.2040 C   0  0  0  0  0  0  0  0  0  0  0  0
  138.8410   76.2010  220.7050 C   0  0  0  0  0  0  0  0  0  0  0  0
  139.0450   74.8090  220.1550 C   0  0  0  0  0  0  0  0  0  0  0  0
  139.8230   73.9520  221.1390 C   0  0  0  0  0  0  0  0  0  0  0  0
  141.0360   74.7390  221.5800 C   0  0  0  0  0  0  0  0  0  0  0  0
  142.5940   76.4670  218.9130 C   0  0  0  0  0  0  0  0  0  0  0  0
  142.1630   75.5100  217.9990 C   0  0  0  0  0  0  0  0  0  0  0  0
  142.6780   74.2470  217.9360 C   0  0  0  0  0  0  0  0  0  0  0  0
  143.6820   73.9130  218.8350 C   0  0  0  0  0  0  0  0  0  0  0  0
  144.2050   72.6450  218.7800 C   0  0  0  0  0  0  0  0  0  0  0  0
  145.1940   72.3210  219.6690 C   0  0  0  0  0  0  0  0  0  0  0  0
  145.7410   71.0830  219.6520 F   0  0  0  0  0  0  0  0  0  0  0  0
  145.6110   73.2730  220.5650 C   0  0  0  0  0  0  0  0  0  0  0  0
  145.0800   74.5500  220.6170 C   0  0  0  0  0  0  0  0  0  0  0  0
  144.0740   74.8830  219.7150 C   0  0  0  0  0  0  0  0  0  0  0  0
  143.5530   76.1240  219.7600 N   0  0  0  0  0  0  0  0  0  0  0  0
  143.7080   78.9080  218.6050 H   0  0  0  0  0  0  0  0  0  0  0  0
  142.4668   80.8697  217.9584 H   0  0  0  0  0  0  0  0  0  0  0  0
  140.9213   79.8570  218.3618 H   0  0  0  0  0  0  0  0  0  0  0  0
  140.3936   82.1630  222.0913 H   0  0  0  0  0  0  0  0  0  0  0  0
  139.7195   80.5719  222.4019 H   0  0  0  0  0  0  0  0  0  0  0  0
  141.9543   81.9770  223.7745 H   0  0  0  0  0  0  0  0  0  0  0  0
  141.0810   80.5369  224.3245 H   0  0  0  0  0  0  0  0  0  0  0  0
  143.6270   80.7395  222.7238 H   0  0  0  0  0  0  0  0  0  0  0  0
  143.1443   79.4388  223.7688 H   0  0  0  0  0  0  0  0  0  0  0  0
  142.8046   78.9184  221.0714 H   0  0  0  0  0  0  0  0  0  0  0  0
  141.3887   78.2847  223.3625 H   0  0  0  0  0  0  0  0  0  0  0  0
  140.2190   78.7162  221.9854 H   0  0  0  0  0  0  0  0  0  0  0  0
  142.2800   76.8730  221.3330 H   0  0  0  0  0  0  0  0  0  0  0  0
  140.8999   75.9833  223.4029 H   0  0  0  0  0  0  0  0  0  0  0  0
  138.6400   75.3673  222.7010 H   0  0  0  0  0  0  0  0  0  0  0  0
  138.8381   77.1346  222.6780 H   0  0  0  0  0  0  0  0  0  0  0  0
  137.7956   76.5079  220.5537 H   0  0  0  0  0  0  0  0  0  0  0  0
  139.5034   76.9077  220.1837 H   0  0  0  0  0  0  0  0  0  0  0  0
  138.0643   74.3465  219.9699 H   0  0  0  0  0  0  0  0  0  0  0  0
  139.6166   74.8791  219.2178 H   0  0  0  0  0  0  0  0  0  0  0  0
  139.1931   73.7166  222.0095 H   0  0  0  0  0  0  0  0  0  0  0  0
  140.1294   73.0071  220.6665 H   0  0  0  0  0  0  0  0  0  0  0  0
  141.6467   74.1086  222.2431 H   0  0  0  0  0  0  0  0  0  0  0  0
  141.5979   75.0305  220.6804 H   0  0  0  0  0  0  0  0  0  0  0  0
  141.3670   75.7851  217.2914 H   0  0  0  0  0  0  0  0  0  0  0  0
  142.3100   73.5189  217.1981 H   0  0  0  0  0  0  0  0  0  0  0  0
  143.8408   71.9124  218.0447 H   0  0  0  0  0  0  0  0  0  0  0  0
  146.4065   73.0081  221.2770 H   0  0  0  0  0  0  0  0  0  0  0  0
  145.4438   75.2828  221.3523 H   0  0  0  0  0  0  0  0  0  0  0  0
  1  2  2  0
  2  3  1  0
  3  4  1  0
  4  5  1  0
  5  6  2  0
  5  7  1  0
  7  8  1  0
  8  9  1  0
  9 10  1  0
 10 11  1  0
 11 12  1  0
 12 13  1  0
 13 14  1  0
 14 15  1  0
 15 16  1  0
 16 17  1  0
 17 18  1  0
 18 19  1  0
  2 20  1  0
 20 21  2  0
 21 22  1  0
 22 23  2  0
 23 24  1  0
 24 25  2  0
 25 26  1  0
 25 27  1  0
 27 28  2  0
 28 29  1  0
 29 30  2  0
 11  7  1  0
 19 14  1  0
 30 20  1  0
 29 23  1  0
  3 31  1  0
  4 32  1  0
  4 33  1  0
  8 34  1  0
  8 35  1  0
  9 36  1  0
  9 37  1  0
 10 38  1  0
 10 39  1  0
 11 40  1  6
 12 41  1  0
 12 42  1  0
 13 43  1  0
 14 44  1  0
 15 45  1  0
 15 46  1  0
 16 47  1  0
 16 48  1  0
 17 49  1  0
 17 50  1  0
 18 51  1  0
 18 52  1  0
 19 53  1  0
 19 54  1  0
 21 55  1  0
 22 56  1  0
 24 57  1  0
 27 58  1  0
 28 59  1  0
M  END
>  <smiles>  (24) 
O=C(NCC(=O)N1CCC[C@H]1CNC1CCCCC1)c1ccc2cc(F)ccc2n1

>  <score_type>  (24) 
oracle

>  <origin>  (24) 
autodockgpu

>  <m_score__min__energy>  (24) 
-8.9399999999999995

>  <m_primary>  (24) 
energy

>  <rmsd>  (24) 
7.521972733771557

>  <m_score__min__rmsd>  (24) 
7.521972733771557

>  <meeko>  (24) 
{"free_energy": -6.42, "intermolecular_energy": -8.51, "internal_energy": -3.66, "cluster_size": 10, "cluster_id": 7, "rank_in_cluster": 5}

>  <energy>  (24) 
-8.07

>  <cluster_rmsd>  (24) 
0.0

>  <cluster>  (24) 
3

$$$$

     RDKit          3D

 59 62  0  0  0  0  0  0  0  0999 V2000
  140.9160   71.9450  221.3450 O   0  0  0  0  0  0  0  0  0  0  0  0
  140.3220   72.3380  222.4070 C   0  0  0  0  0  0  0  0  0  0  0  0
  139.7340   73.6390  222.3130 N   0  0  0  0  0  0  0  0  0  0  0  0
  139.8580   74.3460  221.0920 C   0  0  0  0  0  0  0  0  0  0  0  0
  140.6870   75.5240  220.9870 C   0  0  0  0  0  0  0  0  0  0  0  0
  140.5700   76.3350  222.0160 O   0  0  0  0  0  0  0  0  0  0  0  0
  141.5810   75.9700  220.0070 N   0  0  0  0  0  0  0  0  0  0  0  0
  142.6020   76.9780  219.9300 C   0  0  0  0  0  0  0  0  0  0  0  0
  142.3950   77.5960  218.5560 C   0  0  0  0  0  0  0  0  0  0  0  0
  141.4330   76.6820  217.8270 C   0  0  0  0  0  0  0  0  0  0  0  0
  141.5860   75.3880  218.6410 C   0  0  1  0  0  0  0  0  0  0  0  0
  142.8740   74.7660  218.2530 C   0  0  0  0  0  0  0  0  0  0  0  0
  143.1420   73.4630  218.7430 N   0  0  0  0  0  0  0  0  0  0  0  0
  143.4110   73.3190  220.1290 C   0  0  0  0  0  0  0  0  0  0  0  0
  143.9910   71.9710  220.4370 C   0  0  0  0  0  0  0  0  0  0  0  0
  145.3090   71.8620  219.6620 C   0  0  0  0  0  0  0  0  0  0  0  0
  146.3230   72.7940  220.2830 C   0  0  0  0  0  0  0  0  0  0  0  0
  145.6420   73.7790  221.2190 C   0  0  0  0  0  0  0  0  0  0  0  0
  144.4650   74.3780  220.4850 C   0  0  0  0  0  0  0  0  0  0  0  0
  140.2560   71.5210  223.6060 C   0  0  0  0  0  0  0  0  0  0  0  0
  139.6670   70.2660  223.4770 C   0  0  0  0  0  0  0  0  0  0  0  0
  139.5340   69.3900  224.5150 C   0  0  0  0  0  0  0  0  0  0  0  0
  140.0130   69.7830  225.7580 C   0  0  0  0  0  0  0  0  0  0  0  0
  139.8820   68.9080  226.8080 C   0  0  0  0  0  0  0  0  0  0  0  0
  140.3550   69.3000  228.0310 C   0  0  0  0  0  0  0  0  0  0  0  0
  140.2490   68.4710  229.0960 F   0  0  0  0  0  0  0  0  0  0  0  0
  140.9340   70.5390  228.1460 C   0  0  0  0  0  0  0  0  0  0  0  0
  141.0630   71.4170  227.0840 C   0  0  0  0  0  0  0  0  0  0  0  0
  140.5830   71.0220  225.8390 C   0  0  0  0  0  0  0  0  0  0  0  0
  140.7060   71.8720  224.8020 N   0  0  0  0  0  0  0  0  0  0  0  0
  139.2400   73.9860  223.1740 H   0  0  0  0  0  0  0  0  0  0  0  0
  140.2439   73.6272  220.3541 H   0  0  0  0  0  0  0  0  0  0  0  0
  138.8462   74.7532  220.9487 H   0  0  0  0  0  0  0  0  0  0  0  0
  142.4714   77.7300  220.7221 H   0  0  0  0  0  0  0  0  0  0  0  0
  143.6146   76.5705  220.0661 H   0  0  0  0  0  0  0  0  0  0  0  0
  141.9660   78.6044  218.6513 H   0  0  0  0  0  0  0  0  0  0  0  0
  143.3459   77.6958  218.0121 H   0  0  0  0  0  0  0  0  0  0  0  0
  140.4027   77.0651  217.8669 H   0  0  0  0  0  0  0  0  0  0  0  0
  141.6399   76.5694  216.7525 H   0  0  0  0  0  0  0  0  0  0  0  0
  140.8373   74.5920  218.5156 H   0  0  0  0  0  0  0  0  0  0  0  0
  142.8994   74.7173  217.1544 H   0  0  0  0  0  0  0  0  0  0  0  0
  143.6442   75.4034  218.7118 H   0  0  0  0  0  0  0  0  0  0  0  0
  143.6650   72.8610  218.0980 H   0  0  0  0  0  0  0  0  0  0  0  0
  142.4772   73.4332  220.6991 H   0  0  0  0  0  0  0  0  0  0  0  0
  144.1791   71.8785  221.5168 H   0  0  0  0  0  0  0  0  0  0  0  0
  143.2968   71.1692  220.1452 H   0  0  0  0  0  0  0  0  0  0  0  0
  145.6807   70.8278  219.7100 H   0  0  0  0  0  0  0  0  0  0  0  0
  145.1455   72.1383  218.6099 H   0  0  0  0  0  0  0  0  0  0  0  0
  147.0564   72.2032  220.8514 H   0  0  0  0  0  0  0  0  0  0  0  0
  146.8255   73.3558  219.4818 H   0  0  0  0  0  0  0  0  0  0  0  0
  145.2930   73.2566  222.1220 H   0  0  0  0  0  0  0  0  0  0  0  0
  146.3456   74.5677  221.5238 H   0  0  0  0  0  0  0  0  0  0  0  0
  143.9990   75.1422  221.1244 H   0  0  0  0  0  0  0  0  0  0  0  0
  144.8364   74.8171  219.5473 H   0  0  0  0  0  0  0  0  0  0  0  0
  139.2898   69.9653  222.4884 H   0  0  0  0  0  0  0  0  0  0  0  0
  139.0634   68.4061  224.3720 H   0  0  0  0  0  0  0  0  0  0  0  0
  139.4118   67.9231  226.6706 H   0  0  0  0  0  0  0  0  0  0  0  0
  141.3142   70.8494  229.1304 H   0  0  0  0  0  0  0  0  0  0  0  0
  141.5330   72.4021  227.2206 H   0  0  0  0  0  0  0  0  0  0  0  0
  1  2  2  0
  2  3  1  0
  3  4  1  0
  4  5  1  0
  5  6  2  0
  5  7  1  0
  7  8  1  0
  8  9  1  0
  9 10  1  0
 10 11  1  0
 11 12  1  0
 12 13  1  0
 13 14  1  0
 14 15  1  0
 15 16  1  0
 16 17  1  0
 17 18  1  0
 18 19  1  0
  2 20  1  0
 20 21  2  0
 21 22  1  0
 22 23  2  0
 23 24  1  0
 24 25  2  0
 25 26  1  0
 25 27  1  0
 27 28  2  0
 28 29  1  0
 29 30  2  0
 11  7  1  0
 19 14  1  0
 30 20  1  0
 29 23  1  0
  3 31  1  0
  4 32  1  0
  4 33  1  0
  8 34  1  0
  8 35  1  0
  9 36  1  0
  9 37  1  0
 10 38  1  0
 10 39  1  0
 11 40  1  1
 12 41  1  0
 12 42  1  0
 13 43  1  0
 14 44  1  0
 15 45  1  0
 15 46  1  0
 16 47  1  0
 16 48  1  0
 17 49  1  0
 17 50  1  0
 18 51  1  0
 18 52  1  0
 19 53  1  0
 19 54  1  0
 21 55  1  0
 22 56  1  0
 24 57  1  0
 27 58  1  0
 28 59  1  0
M  END
>  <smiles>  (25) 
O=C(NCC(=O)N1CCC[C@H]1CNC1CCCCC1)c1ccc2cc(F)ccc2n1

>  <score_type>  (25) 
oracle

>  <origin>  (25) 
autodockgpu

>  <m_score__min__energy>  (25) 
-8.9399999999999995

>  <m_primary>  (25) 
energy

>  <rmsd>  (25) 
4.852704297894338

>  <m_score__min__rmsd>  (25) 
4.852704297894338

>  <meeko>  (25) 
{"free_energy": -7.8, "intermolecular_energy": -9.89, "internal_energy": -2.05, "cluster_size": 11, "cluster_id": 3, "rank_in_cluster": 4}

>  <energy>  (25) 
-8.01

>  <cluster_rmsd>  (25) 
1.05

>  <cluster>  (25) 
3

$$$$

     RDKit          3D

 59 62  0  0  0  0  0  0  0  0999 V2000
  141.1600   72.1000  221.7300 O   0  0  0  0  0  0  0  0  0  0  0  0
  140.2540   72.2330  222.6230 C   0  0  0  0  0  0  0  0  0  0  0  0
  139.2990   73.2630  222.3530 N   0  0  0  0  0  0  0  0  0  0  0  0
  139.4390   74.0150  221.1610 C   0  0  0  0  0  0  0  0  0  0  0  0
  140.4060   75.0830  221.0540 C   0  0  0  0  0  0  0  0  0  0  0  0
  141.0580   75.3060  222.1750 O   0  0  0  0  0  0  0  0  0  0  0  0
  140.7790   75.9220  219.9990 N   0  0  0  0  0  0  0  0  0  0  0  0
  140.3640   76.1040  218.6350 C   0  0  0  0  0  0  0  0  0  0  0  0
  141.6720   76.2870  217.8830 C   0  0  0  0  0  0  0  0  0  0  0  0
  142.7390   76.4830  218.9390 C   0  0  0  0  0  0  0  0  0  0  0  0
  141.8830   76.9040  220.1430 C   0  0  1  0  0  0  0  0  0  0  0  0
  141.4730   78.3120  219.9290 C   0  0  0  0  0  0  0  0  0  0  0  0
  142.0180   79.2880  220.8000 N   0  0  0  0  0  0  0  0  0  0  0  0
  141.1220   80.0050  221.6360 C   0  0  0  0  0  0  0  0  0  0  0  0
  140.8570   79.2700  222.9140 C   0  0  0  0  0  0  0  0  0  0  0  0
  142.2010   79.1260  223.6370 C   0  0  0  0  0  0  0  0  0  0  0  0
  142.6380   80.4840  224.1360 C   0  0  0  0  0  0  0  0  0  0  0  0
  141.8210   81.5840  223.4790 C   0  0  0  0  0  0  0  0  0  0  0  0
  141.8150   81.3300  221.9890 C   0  0  0  0  0  0  0  0  0  0  0  0
  140.2080   71.3990  223.8110 C   0  0  0  0  0  0  0  0  0  0  0  0
  139.6240   70.1420  223.6710 C   0  0  0  0  0  0  0  0  0  0  0  0
  139.5090   69.2510  224.6990 C   0  0  0  0  0  0  0  0  0  0  0  0
  140.0020   69.6280  225.9400 C   0  0  0  0  0  0  0  0  0  0  0  0
  139.8890   68.7380  226.9800 C   0  0  0  0  0  0  0  0  0  0  0  0
  140.3770   69.1150  228.2020 C   0  0  0  0  0  0  0  0  0  0  0  0
  140.2890   68.2700  229.2560 F   0  0  0  0  0  0  0  0  0  0  0  0
  140.9510   70.3550  228.3270 C   0  0  0  0  0  0  0  0  0  0  0  0
  141.0620   71.2490  227.2760 C   0  0  0  0  0  0  0  0  0  0  0  0
  140.5670   70.8690  226.0320 C   0  0  0  0  0  0  0  0  0  0  0  0
  140.6720   71.7350  225.0050 N   0  0  0  0  0  0  0  0  0  0  0  0
  138.5440   73.3940  223.0730 H   0  0  0  0  0  0  0  0  0  0  0  0
  139.6821   73.2948  220.3659 H   0  0  0  0  0  0  0  0  0  0  0  0
  138.4821   74.5547  221.1069 H   0  0  0  0  0  0  0  0  0  0  0  0
  139.8211   75.2202  218.2687 H   0  0  0  0  0  0  0  0  0  0  0  0
  139.6763   76.9530  218.5079 H   0  0  0  0  0  0  0  0  0  0  0  0
  141.8927   75.3952  217.2781 H   0  0  0  0  0  0  0  0  0  0  0  0
  141.6241   77.1446  217.1958 H   0  0  0  0  0  0  0  0  0  0  0  0
  143.2865   75.5500  219.1386 H   0  0  0  0  0  0  0  0  0  0  0  0
  143.5227   77.2044  218.6644 H   0  0  0  0  0  0  0  0  0  0  0  0
  142.3357   76.8898  221.1454 H   0  0  0  0  0  0  0  0  0  0  0  0
  141.7602   78.5873  218.9035 H   0  0  0  0  0  0  0  0  0  0  0  0
  140.3920   78.3249  220.1321 H   0  0  0  0  0  0  0  0  0  0  0  0
  142.8200   79.8030  220.4200 H   0  0  0  0  0  0  0  0  0  0  0  0
  140.1644   80.1460  221.1133 H   0  0  0  0  0  0  0  0  0  0  0  0
  140.1520   79.8392  223.5376 H   0  0  0  0  0  0  0  0  0  0  0  0
  140.4119   78.2841  222.7141 H   0  0  0  0  0  0  0  0  0  0  0  0
  142.0903   78.4382  224.4882 H   0  0  0  0  0  0  0  0  0  0  0  0
  142.9549   78.7238  222.9443 H   0  0  0  0  0  0  0  0  0  0  0  0
  142.4971   80.5311  225.2259 H   0  0  0  0  0  0  0  0  0  0  0  0
  143.6983   80.6304  223.8825 H   0  0  0  0  0  0  0  0  0  0  0  0
  140.7913   81.5665  223.8654 H   0  0  0  0  0  0  0  0  0  0  0  0
  142.2579   82.5694  223.6984 H   0  0  0  0  0  0  0  0  0  0  0  0
  141.2830   82.1534  221.4901 H   0  0  0  0  0  0  0  0  0  0  0  0
  142.8595   81.2692  221.6495 H   0  0  0  0  0  0  0  0  0  0  0  0
  139.2362   69.8530  222.6830 H   0  0  0  0  0  0  0  0  0  0  0  0
  139.0411   68.2669  224.5485 H   0  0  0  0  0  0  0  0  0  0  0  0
  139.4210   67.7531  226.8354 H   0  0  0  0  0  0  0  0  0  0  0  0
  141.3422   70.6534  229.3108 H   0  0  0  0  0  0  0  0  0  0  0  0
  141.5293   72.2343  227.4203 H   0  0  0  0  0  0  0  0  0  0  0  0
  1  2  2  0
  2  3  1  0
  3  4  1  0
  4  5  1  0
  5  6  2  0
  5  7  1  0
  7  8  1  0
  8  9  1  0
  9 10  1  0
 10 11  1  0
 11 12  1  0
 12 13  1  0
 13 14  1  0
 14 15  1  0
 15 16  1  0
 16 17  1  0
 17 18  1  0
 18 19  1  0
  2 20  1  0
 20 21  2  0
 21 22  1  0
 22 23  2  0
 23 24  1  0
 24 25  2  0
 25 26  1  0
 25 27  1  0
 27 28  2  0
 28 29  1  0
 29 30  2  0
 11  7  1  0
 19 14  1  0
 30 20  1  0
 29 23  1  0
  3 31  1  0
  4 32  1  0
  4 33  1  0
  8 34  1  0
  8 35  1  0
  9 36  1  0
  9 37  1  0
 10 38  1  0
 10 39  1  0
 11 40  1  1
 12 41  1  0
 12 42  1  0
 13 43  1  0
 14 44  1  0
 15 45  1  0
 15 46  1  0
 16 47  1  0
 16 48  1  0
 17 49  1  0
 17 50  1  0
 18 51  1  0
 18 52  1  0
 19 53  1  0
 19 54  1  0
 21 55  1  0
 22 56  1  0
 24 57  1  0
 27 58  1  0
 28 59  1  0
M  END
>  <smiles>  (26) 
O=C(NCC(=O)N1CCC[C@H]1CNC1CCCCC1)c1ccc2cc(F)ccc2n1

>  <score_type>  (26) 
oracle

>  <origin>  (26) 
autodockgpu

>  <m_score__min__energy>  (26) 
-8.9399999999999995

>  <m_primary>  (26) 
energy

>  <rmsd>  (26) 
2.2078260034476624

>  <m_score__min__rmsd>  (26) 
2.2078260034476624

>  <meeko>  (26) 
{"free_energy": -8.89, "intermolecular_energy": -10.98, "internal_energy": -1.42, "cluster_size": 22, "cluster_id": 1, "rank_in_cluster": 3}

>  <energy>  (26) 
-7.82

>  <cluster_rmsd>  (26) 
1.4

>  <cluster>  (26) 
3

$$$$

     RDKit          3D

 59 62  0  0  0  0  0  0  0  0999 V2000
  141.2470   72.1540  221.7080 O   0  0  0  0  0  0  0  0  0  0  0  0
  140.3370   72.2860  222.5960 C   0  0  0  0  0  0  0  0  0  0  0  0
  139.4040   73.3400  222.3410 N   0  0  0  0  0  0  0  0  0  0  0  0
  139.5690   74.1130  221.1660 C   0  0  0  0  0  0  0  0  0  0  0  0
  140.1560   75.4320  221.2090 C   0  0  0  0  0  0  0  0  0  0  0  0
  140.7520   75.6980  222.3520 O   0  0  0  0  0  0  0  0  0  0  0  0
  140.2110   76.4760  220.2800 N   0  0  0  0  0  0  0  0  0  0  0  0
  139.2830   77.4490  219.7720 C   0  0  0  0  0  0  0  0  0  0  0  0
  139.5760   77.4810  218.2800 C   0  0  0  0  0  0  0  0  0  0  0  0
  140.8690   76.7150  218.0910 C   0  0  0  0  0  0  0  0  0  0  0  0
  141.4480   76.7660  219.5130 C   0  0  1  0  0  0  0  0  0  0  0  0
  141.9880   78.1290  219.7270 C   0  0  0  0  0  0  0  0  0  0  0  0
  142.1020   78.5820  221.0650 N   0  0  0  0  0  0  0  0  0  0  0  0
  141.9980   79.9780  221.3040 C   0  0  0  0  0  0  0  0  0  0  0  0
  140.5670   80.4200  221.3530 C   0  0  0  0  0  0  0  0  0  0  0  0
  139.9040   79.6680  222.5120 C   0  0  0  0  0  0  0  0  0  0  0  0
  140.4470   80.2010  223.8180 C   0  0  0  0  0  0  0  0  0  0  0  0
  141.6970   81.0320  223.5790 C   0  0  0  0  0  0  0  0  0  0  0  0
  142.6190   80.2350  222.6850 C   0  0  0  0  0  0  0  0  0  0  0  0
  140.2650   71.4280  223.7670 C   0  0  0  0  0  0  0  0  0  0  0  0
  139.6880   70.1730  223.5880 C   0  0  0  0  0  0  0  0  0  0  0  0
  139.5510   69.2620  224.5950 C   0  0  0  0  0  0  0  0  0  0  0  0
  140.0140   69.6150  225.8550 C   0  0  0  0  0  0  0  0  0  0  0  0
  139.8790   68.7050  226.8740 C   0  0  0  0  0  0  0  0  0  0  0  0
  140.3370   69.0580  228.1140 C   0  0  0  0  0  0  0  0  0  0  0  0
  140.2260   68.1930  229.1490 F   0  0  0  0  0  0  0  0  0  0  0  0
  140.9040   70.2980  228.2770 C   0  0  0  0  0  0  0  0  0  0  0  0
  141.0370   71.2120  227.2470 C   0  0  0  0  0  0  0  0  0  0  0  0
  140.5730   70.8560  225.9850 C   0  0  0  0  0  0  0  0  0  0  0  0
  140.7000   71.7410  224.9780 N   0  0  0  0  0  0  0  0  0  0  0  0
  138.6460   73.4700  223.0580 H   0  0  0  0  0  0  0  0  0  0  0  0
  140.1953   73.5161  220.4867 H   0  0  0  0  0  0  0  0  0  0  0  0
  138.5300   74.3249  220.8734 H   0  0  0  0  0  0  0  0  0  0  0  0
  138.2451   77.1377  219.9615 H   0  0  0  0  0  0  0  0  0  0  0  0
  139.3934   78.4337  220.2496 H   0  0  0  0  0  0  0  0  0  0  0  0
  138.7610   76.9989  217.7202 H   0  0  0  0  0  0  0  0  0  0  0  0
  139.6615   78.5129  217.9086 H   0  0  0  0  0  0  0  0  0  0  0  0
  140.6824   75.6804  217.7673 H   0  0  0  0  0  0  0  0  0  0  0  0
  141.5318   77.1268  217.3157 H   0  0  0  0  0  0  0  0  0  0  0  0
  142.2758   76.0894  219.7718 H   0  0  0  0  0  0  0  0  0  0  0  0
  142.9933   78.1595  219.2814 H   0  0  0  0  0  0  0  0  0  0  0  0
  141.2496   78.8003  219.2644 H   0  0  0  0  0  0  0  0  0  0  0  0
  142.7680   78.0560  221.6410 H   0  0  0  0  0  0  0  0  0  0  0  0
  142.5028   80.5286  220.4966 H   0  0  0  0  0  0  0  0  0  0  0  0
  140.5127   81.5049  221.5266 H   0  0  0  0  0  0  0  0  0  0  0  0
  140.0571   80.2038  220.4026 H   0  0  0  0  0  0  0  0  0  0  0  0
  138.8152   79.8201  222.4756 H   0  0  0  0  0  0  0  0  0  0  0  0
  140.1209   78.5927  222.4302 H   0  0  0  0  0  0  0  0  0  0  0  0
  139.6820   80.8289  224.2981 H   0  0  0  0  0  0  0  0  0  0  0  0
  140.7050   79.3515  224.4675 H   0  0  0  0  0  0  0  0  0  0  0  0
  141.4282   81.9796  223.0893 H   0  0  0  0  0  0  0  0  0  0  0  0
  142.1928   81.2627  224.5334 H   0  0  0  0  0  0  0  0  0  0  0  0
  143.5577   80.7934  222.5543 H   0  0  0  0  0  0  0  0  0  0  0  0
  142.7997   79.2612  223.1637 H   0  0  0  0  0  0  0  0  0  0  0  0
  139.3248   69.9027  222.5855 H   0  0  0  0  0  0  0  0  0  0  0  0
  139.0888   68.2803  224.4140 H   0  0  0  0  0  0  0  0  0  0  0  0
  139.4168   67.7223  226.6989 H   0  0  0  0  0  0  0  0  0  0  0  0
  141.2705   70.5783  229.2756 H   0  0  0  0  0  0  0  0  0  0  0  0
  141.4980   72.1953  227.4217 H   0  0  0  0  0  0  0  0  0  0  0  0
  1  2  2  0
  2  3  1  0
  3  4  1  0
  4  5  1  0
  5  6  2  0
  5  7  1  0
  7  8  1  0
  8  9  1  0
  9 10  1  0
 10 11  1  0
 11 12  1  0
 12 13  1  0
 13 14  1  0
 14 15  1  0
 15 16  1  0
 16 17  1  0
 17 18  1  0
 18 19  1  0
  2 20  1  0
 20 21  2  0
 21 22  1  0
 22 23  2  0
 23 24  1  0
 24 25  2  0
 25 26  1  0
 25 27  1  0
 27 28  2  0
 28 29  1  0
 29 30  2  0
 11  7  1  0
 19 14  1  0
 30 20  1  0
 29 23  1  0
  3 31  1  0
  4 32  1  0
  4 33  1  0
  8 34  1  0
  8 35  1  0
  9 36  1  0
  9 37  1  0
 10 38  1  0
 10 39  1  0
 11 40  1  6
 12 41  1  0
 12 42  1  0
 13 43  1  0
 14 44  1  0
 15 45  1  0
 15 46  1  0
 16 47  1  0
 16 48  1  0
 17 49  1  0
 17 50  1  0
 18 51  1  0
 18 52  1  0
 19 53  1  0
 19 54  1  0
 21 55  1  0
 22 56  1  0
 24 57  1  0
 27 58  1  0
 28 59  1  0
M  END
>  <smiles>  (27) 
O=C(NCC(=O)N1CCC[C@H]1CNC1CCCCC1)c1ccc2cc(F)ccc2n1

>  <score_type>  (27) 
oracle

>  <origin>  (27) 
autodockgpu

>  <m_score__min__energy>  (27) 
-8.9399999999999995

>  <m_primary>  (27) 
energy

>  <rmsd>  (27) 
2.008609277860183

>  <m_score__min__rmsd>  (27) 
2.008609277860183

>  <meeko>  (27) 
{"free_energy": -8.44, "intermolecular_energy": -10.53, "internal_energy": -1.67, "cluster_size": 22, "cluster_id": 1, "rank_in_cluster": 18}

>  <energy>  (27) 
-7.8

>  <cluster_rmsd>  (27) 
0.74

>  <cluster>  (27) 
3

$$$$

     RDKit          3D

 59 62  0  0  0  0  0  0  0  0999 V2000
  140.6860   73.2570  222.2840 O   0  0  0  0  0  0  0  0  0  0  0  0
  139.8020   72.3800  222.5730 C   0  0  0  0  0  0  0  0  0  0  0  0
  138.7140   72.3030  221.6470 N   0  0  0  0  0  0  0  0  0  0  0  0
  138.7180   73.1760  220.5320 C   0  0  0  0  0  0  0  0  0  0  0  0
  138.6350   74.6080  220.6970 C   0  0  0  0  0  0  0  0  0  0  0  0
  137.4640   75.1030  220.3580 O   0  0  0  0  0  0  0  0  0  0  0  0
  139.5530   75.5660  221.1410 N   0  0  0  0  0  0  0  0  0  0  0  0
  139.9310   76.1130  222.4150 C   0  0  0  0  0  0  0  0  0  0  0  0
  140.0760   77.6010  222.1390 C   0  0  0  0  0  0  0  0  0  0  0  0
  140.0450   77.7520  220.6320 C   0  0  0  0  0  0  0  0  0  0  0  0
  140.4020   76.3250  220.1890 C   0  0  1  0  0  0  0  0  0  0  0  0
  141.8580   76.1430  220.3980 C   0  0  0  0  0  0  0  0  0  0  0  0
  142.2980   74.8720  220.8440 N   0  0  0  0  0  0  0  0  0  0  0  0
  142.8000   73.9660  219.8730 C   0  0  0  0  0  0  0  0  0  0  0  0
  144.1100   74.4320  219.3140 C   0  0  0  0  0  0  0  0  0  0  0  0
  145.0980   74.5010  220.4850 C   0  0  0  0  0  0  0  0  0  0  0  0
  145.4260   73.0970  220.9350 C   0  0  0  0  0  0  0  0  0  0  0  0
  144.4360   72.1030  220.3500 C   0  0  0  0  0  0  0  0  0  0  0  0
  143.0430   72.6340  220.5980 C   0  0  0  0  0  0  0  0  0  0  0  0
  139.9040   71.5340  223.7500 C   0  0  0  0  0  0  0  0  0  0  0  0
  139.3720   70.2510  223.6470 C   0  0  0  0  0  0  0  0  0  0  0  0
  139.3930   69.3470  224.6680 C   0  0  0  0  0  0  0  0  0  0  0  0
  139.9780   69.7380  225.8660 C   0  0  0  0  0  0  0  0  0  0  0  0
  140.0030   68.8340  226.9000 C   0  0  0  0  0  0  0  0  0  0  0  0
  140.5800   69.2240  228.0780 C   0  0  0  0  0  0  0  0  0  0  0  0
  140.6290   68.3680  229.1250 F   0  0  0  0  0  0  0  0  0  0  0  0
  141.1010   70.4910  228.1670 C   0  0  0  0  0  0  0  0  0  0  0  0
  141.0730   71.3980  227.1220 C   0  0  0  0  0  0  0  0  0  0  0  0
  140.4870   71.0050  225.9230 C   0  0  0  0  0  0  0  0  0  0  0  0
  140.4570   71.8830  224.9020 N   0  0  0  0  0  0  0  0  0  0  0  0
  137.9720   71.5900  221.8630 H   0  0  0  0  0  0  0  0  0  0  0  0
  139.6531   72.9797  219.9870 H   0  0  0  0  0  0  0  0  0  0  0  0
  137.7630   72.9380  220.0408 H   0  0  0  0  0  0  0  0  0  0  0  0
  139.1512   75.9279  223.1684 H   0  0  0  0  0  0  0  0  0  0  0  0
  140.8504   75.6622  222.8168 H   0  0  0  0  0  0  0  0  0  0  0  0
  139.2442   78.1572  222.5959 H   0  0  0  0  0  0  0  0  0  0  0  0
  141.0085   78.0003  222.5645 H   0  0  0  0  0  0  0  0  0  0  0  0
  139.0473   78.0482  220.2758 H   0  0  0  0  0  0  0  0  0  0  0  0
  140.7157   78.5306  220.2397 H   0  0  0  0  0  0  0  0  0  0  0  0
  140.2279   76.0367  219.1418 H   0  0  0  0  0  0  0  0  0  0  0  0
  142.3572   76.3475  219.4394 H   0  0  0  0  0  0  0  0  0  0  0  0
  142.1136   76.8326  221.2160 H   0  0  0  0  0  0  0  0  0  0  0  0
  141.7530   74.4760  221.6180 H   0  0  0  0  0  0  0  0  0  0  0  0
  142.0817   73.8794  219.0444 H   0  0  0  0  0  0  0  0  0  0  0  0
  144.4715   73.7215  218.5561 H   0  0  0  0  0  0  0  0  0  0  0  0
  144.0036   75.4149  218.8316 H   0  0  0  0  0  0  0  0  0  0  0  0
  146.0184   75.0091  220.1615 H   0  0  0  0  0  0  0  0  0  0  0  0
  144.6491   75.0627  221.3174 H   0  0  0  0  0  0  0  0  0  0  0  0
  146.4406   72.8373  220.5987 H   0  0  0  0  0  0  0  0  0  0  0  0
  145.3661   73.0532  222.0325 H   0  0  0  0  0  0  0  0  0  0  0  0
  144.6083   71.9962  219.2688 H   0  0  0  0  0  0  0  0  0  0  0  0
  144.5596   71.1167  220.8212 H   0  0  0  0  0  0  0  0  0  0  0  0
  142.3116   71.8951  220.2388 H   0  0  0  0  0  0  0  0  0  0  0  0
  142.9323   72.8089  221.6784 H   0  0  0  0  0  0  0  0  0  0  0  0
  138.9115   69.9516  222.6939 H   0  0  0  0  0  0  0  0  0  0  0  0
  138.9615   68.3424  224.5471 H   0  0  0  0  0  0  0  0  0  0  0  0
  139.5728   67.8282  226.7847 H   0  0  0  0  0  0  0  0  0  0  0  0
  141.5636   70.8006  229.1158 H   0  0  0  0  0  0  0  0  0  0  0  0
  141.5031   72.4039  227.2365 H   0  0  0  0  0  0  0  0  0  0  0  0
  1  2  2  0
  2  3  1  0
  3  4  1  0
  4  5  1  0
  5  6  2  0
  5  7  1  0
  7  8  1  0
  8  9  1  0
  9 10  1  0
 10 11  1  0
 11 12  1  0
 12 13  1  0
 13 14  1  0
 14 15  1  0
 15 16  1  0
 16 17  1  0
 17 18  1  0
 18 19  1  0
  2 20  1  0
 20 21  2  0
 21 22  1  0
 22 23  2  0
 23 24  1  0
 24 25  2  0
 25 26  1  0
 25 27  1  0
 27 28  2  0
 28 29  1  0
 29 30  2  0
 11  7  1  0
 19 14  1  0
 30 20  1  0
 29 23  1  0
  3 31  1  0
  4 32  1  0
  4 33  1  0
  8 34  1  0
  8 35  1  0
  9 36  1  0
  9 37  1  0
 10 38  1  0
 10 39  1  0
 11 40  1  6
 12 41  1  0
 12 42  1  0
 13 43  1  0
 14 44  1  0
 15 45  1  0
 15 46  1  0
 16 47  1  0
 16 48  1  0
 17 49  1  0
 17 50  1  0
 18 51  1  0
 18 52  1  0
 19 53  1  0
 19 54  1  0
 21 55  1  0
 22 56  1  0
 24 57  1  0
 27 58  1  0
 28 59  1  0
M  END
>  <smiles>  (28) 
O=C(NCC(=O)N1CCC[C@H]1CNC1CCCCC1)c1ccc2cc(F)ccc2n1

>  <score_type>  (28) 
oracle

>  <origin>  (28) 
autodockgpu

>  <m_score__min__energy>  (28) 
-8.9399999999999995

>  <m_primary>  (28) 
energy

>  <rmsd>  (28) 
4.630605306378152

>  <m_score__min__rmsd>  (28) 
4.630605306378152

>  <meeko>  (28) 
{"free_energy": -7.38, "intermolecular_energy": -9.47, "internal_energy": -2.57, "cluster_size": 11, "cluster_id": 3, "rank_in_cluster": 9}

>  <energy>  (28) 
-7.61

>  <cluster_rmsd>  (28) 
1.43

>  <cluster>  (28) 
3

$$$$

     RDKit          3D

 59 62  0  0  0  0  0  0  0  0999 V2000
  140.6450   77.6720  218.7590 O   0  0  0  0  0  0  0  0  0  0  0  0
  141.9210   77.6370  218.8360 C   0  0  0  0  0  0  0  0  0  0  0  0
  142.5510   78.9210  218.8600 N   0  0  0  0  0  0  0  0  0  0  0  0
  141.7310   80.0740  218.8000 C   0  0  0  0  0  0  0  0  0  0  0  0
  141.4300   80.8460  219.9840 C   0  0  0  0  0  0  0  0  0  0  0  0
  141.2160   82.1190  219.7320 O   0  0  0  0  0  0  0  0  0  0  0  0
  141.3270   80.5050  221.3360 N   0  0  0  0  0  0  0  0  0  0  0  0
  140.5850   80.9960  222.4650 C   0  0  0  0  0  0  0  0  0  0  0  0
  141.5990   80.9740  223.5990 C   0  0  0  0  0  0  0  0  0  0  0  0
  142.7860   80.1880  223.0830 C   0  0  0  0  0  0  0  0  0  0  0  0
  142.1410   79.4120  221.9250 C   0  0  1  0  0  0  0  0  0  0  0  0
  141.3430   78.3120  222.5140 C   0  0  0  0  0  0  0  0  0  0  0  0
  141.3040   77.0840  221.8070 N   0  0  0  0  0  0  0  0  0  0  0  0
  140.5110   76.0350  222.3410 C   0  0  0  0  0  0  0  0  0  0  0  0
  139.0490   76.2980  222.1420 C   0  0  0  0  0  0  0  0  0  0  0  0
  138.8090   76.3780  220.6300 C   0  0  0  0  0  0  0  0  0  0  0  0
  138.9690   75.0000  220.0330 C   0  0  0  0  0  0  0  0  0  0  0  0
  139.6470   74.0640  221.0200 C   0  0  0  0  0  0  0  0  0  0  0  0
  140.8730   74.7650  221.5570 C   0  0  0  0  0  0  0  0  0  0  0  0
  142.6610   76.3880  218.8940 C   0  0  0  0  0  0  0  0  0  0  0  0
  142.4610   75.4940  217.8450 C   0  0  0  0  0  0  0  0  0  0  0  0
  143.0860   74.2830  217.7640 C   0  0  0  0  0  0  0  0  0  0  0  0
  143.9610   73.9370  218.7860 C   0  0  0  0  0  0  0  0  0  0  0  0
  144.5920   72.7200  218.7130 C   0  0  0  0  0  0  0  0  0  0  0  0
  145.4530   72.3830  219.7220 C   0  0  0  0  0  0  0  0  0  0  0  0
  146.1000   71.1940  219.6940 F   0  0  0  0  0  0  0  0  0  0  0  0
  145.6420   73.2730  220.7500 C   0  0  0  0  0  0  0  0  0  0  0  0
  145.0020   74.4990  220.8180 C   0  0  0  0  0  0  0  0  0  0  0  0
  144.1260   74.8440  219.7940 C   0  0  0  0  0  0  0  0  0  0  0  0
  143.5010   76.0350  219.8550 N   0  0  0  0  0  0  0  0  0  0  0  0
  143.6010   78.9200  218.9210 H   0  0  0  0  0  0  0  0  0  0  0  0
  142.2161   80.7641  218.0940 H   0  0  0  0  0  0  0  0  0  0  0  0
  140.7496   79.6541  218.5343 H   0  0  0  0  0  0  0  0  0  0  0  0
  140.2230   82.0185  222.2820 H   0  0  0  0  0  0  0  0  0  0  0  0
  139.6898   80.3945  222.6814 H   0  0  0  0  0  0  0  0  0  0  0  0
  141.9032   81.9985  223.8595 H   0  0  0  0  0  0  0  0  0  0  0  0
  141.1779   80.5177  224.5070 H   0  0  0  0  0  0  0  0  0  0  0  0
  143.5871   80.8526  222.7275 H   0  0  0  0  0  0  0  0  0  0  0  0
  143.2737   79.5541  223.8382 H   0  0  0  0  0  0  0  0  0  0  0  0
  142.7938   78.9240  221.1863 H   0  0  0  0  0  0  0  0  0  0  0  0
  141.7537   78.1047  223.5132 H   0  0  0  0  0  0  0  0  0  0  0  0
  140.3058   78.6779  222.5000 H   0  0  0  0  0  0  0  0  0  0  0  0
  142.1860   76.8210  221.3550 H   0  0  0  0  0  0  0  0  0  0  0  0
  140.7026   75.9422  223.4202 H   0  0  0  0  0  0  0  0  0  0  0  0
  138.4556   75.4796  222.5758 H   0  0  0  0  0  0  0  0  0  0  0  0
  138.7477   77.2330  222.6370 H   0  0  0  0  0  0  0  0  0  0  0  0
  137.7910   76.7475  220.4372 H   0  0  0  0  0  0  0  0  0  0  0  0
  139.5355   77.0670  220.1744 H   0  0  0  0  0  0  0  0  0  0  0  0
  137.9768   74.5992  219.7780 H   0  0  0  0  0  0  0  0  0  0  0  0
  139.5929   75.0753  219.1302 H   0  0  0  0  0  0  0  0  0  0  0  0
  138.9590   73.8291  221.8455 H   0  0  0  0  0  0  0  0  0  0  0  0
  139.9294   73.1235  220.5244 H   0  0  0  0  0  0  0  0  0  0  0  0
  141.4120   74.0768  222.2247 H   0  0  0  0  0  0  0  0  0  0  0  0
  141.4984   75.0599  220.7015 H   0  0  0  0  0  0  0  0  0  0  0  0
  141.7649   75.7777  217.0419 H   0  0  0  0  0  0  0  0  0  0  0  0
  142.9029   73.6041  216.9181 H   0  0  0  0  0  0  0  0  0  0  0  0
  144.4112   72.0370  217.8699 H   0  0  0  0  0  0  0  0  0  0  0  0
  146.3354   72.9989  221.5588 H   0  0  0  0  0  0  0  0  0  0  0  0
  145.1818   75.1829  221.6606 H   0  0  0  0  0  0  0  0  0  0  0  0
  1  2  2  0
  2  3  1  0
  3  4  1  0
  4  5  1  0
  5  6  2  0
  5  7  1  0
  7  8  1  0
  8  9  1  0
  9 10  1  0
 10 11  1  0
 11 12  1  0
 12 13  1  0
 13 14  1  0
 14 15  1  0
 15 16  1  0
 16 17  1  0
 17 18  1  0
 18 19  1  0
  2 20  1  0
 20 21  2  0
 21 22  1  0
 22 23  2  0
 23 24  1  0
 24 25  2  0
 25 26  1  0
 25 27  1  0
 27 28  2  0
 28 29  1  0
 29 30  2  0
 11  7  1  0
 19 14  1  0
 30 20  1  0
 29 23  1  0
  3 31  1  0
  4 32  1  0
  4 33  1  0
  8 34  1  0
  8 35  1  0
  9 36  1  0
  9 37  1  0
 10 38  1  0
 10 39  1  0
 11 40  1  6
 12 41  1  0
 12 42  1  0
 13 43  1  0
 14 44  1  0
 15 45  1  0
 15 46  1  0
 16 47  1  0
 16 48  1  0
 17 49  1  0
 17 50  1  0
 18 51  1  0
 18 52  1  0
 19 53  1  0
 19 54  1  0
 21 55  1  0
 22 56  1  0
 24 57  1  0
 27 58  1  0
 28 59  1  0
M  END
>  <smiles>  (29) 
O=C(NCC(=O)N1CCC[C@H]1CNC1CCCCC1)c1ccc2cc(F)ccc2n1

>  <score_type>  (29) 
oracle

>  <origin>  (29) 
autodockgpu

>  <m_score__min__energy>  (29) 
-8.9399999999999995

>  <m_primary>  (29) 
energy

>  <rmsd>  (29) 
7.51083990903255

>  <m_score__min__rmsd>  (29) 
7.51083990903255

>  <meeko>  (29) 
{"free_energy": -6.56, "intermolecular_energy": -8.65, "internal_energy": -3.59, "cluster_size": 10, "cluster_id": 7, "rank_in_cluster": 2}

>  <energy>  (29) 
-7.61

>  <cluster_rmsd>  (29) 
0.48

>  <cluster>  (29) 
3

$$$$

     RDKit          3D

 59 62  0  0  0  0  0  0  0  0999 V2000
  140.6930   77.5830  218.8940 O   0  0  0  0  0  0  0  0  0  0  0  0
  141.9720   77.5690  218.9020 C   0  0  0  0  0  0  0  0  0  0  0  0
  142.5810   78.8630  218.8580 N   0  0  0  0  0  0  0  0  0  0  0  0
  141.7400   80.0010  218.8130 C   0  0  0  0  0  0  0  0  0  0  0  0
  141.5450   80.8390  219.9730 C   0  0  0  0  0  0  0  0  0  0  0  0
  141.3720   82.1090  219.6730 O   0  0  0  0  0  0  0  0  0  0  0  0
  141.5080   80.5660  221.3440 N   0  0  0  0  0  0  0  0  0  0  0  0
  141.1900   81.3100  222.5320 C   0  0  0  0  0  0  0  0  0  0  0  0
  142.2610   80.8820  223.5230 C   0  0  0  0  0  0  0  0  0  0  0  0
  142.9540   79.6880  222.9000 C   0  0  0  0  0  0  0  0  0  0  0  0
  141.8970   79.2370  221.8810 C   0  0  1  0  0  0  0  0  0  0  0  0
  140.8210   78.5470  222.6280 C   0  0  0  0  0  0  0  0  0  0  0  0
  140.0110   77.6320  221.9090 N   0  0  0  0  0  0  0  0  0  0  0  0
  139.9590   76.2900  222.3680 C   0  0  0  0  0  0  0  0  0  0  0  0
  138.7100   75.6010  221.9070 C   0  0  0  0  0  0  0  0  0  0  0  0
  138.7380   75.6000  220.3740 C   0  0  0  0  0  0  0  0  0  0  0  0
  139.8160   74.6530  219.9030 C   0  0  0  0  0  0  0  0  0  0  0  0
  140.7440   74.2850  221.0490 C   0  0  0  0  0  0  0  0  0  0  0  0
  141.1580   75.5640  221.7390 C   0  0  0  0  0  0  0  0  0  0  0  0
  142.7340   76.3340  218.9520 C   0  0  0  0  0  0  0  0  0  0  0  0
  142.5080   75.4170  217.9280 C   0  0  0  0  0  0  0  0  0  0  0  0
  143.1480   74.2150  217.8440 C   0  0  0  0  0  0  0  0  0  0  0  0
  144.0690   73.9020  218.8350 C   0  0  0  0  0  0  0  0  0  0  0  0
  144.7180   72.6940  218.7580 C   0  0  0  0  0  0  0  0  0  0  0  0
  145.6240   72.3900  219.7370 C   0  0  0  0  0  0  0  0  0  0  0  0
  146.2890   71.2110  219.7040 F   0  0  0  0  0  0  0  0  0  0  0  0
  145.8390   73.3020  220.7410 C   0  0  0  0  0  0  0  0  0  0  0  0
  145.1830   74.5190  220.8130 C   0  0  0  0  0  0  0  0  0  0  0  0
  144.2600   74.8300  219.8200 C   0  0  0  0  0  0  0  0  0  0  0  0
  143.6180   76.0120  219.8850 N   0  0  0  0  0  0  0  0  0  0  0  0
  143.6330   78.8790  218.8620 H   0  0  0  0  0  0  0  0  0  0  0  0
  142.1409   80.6527  218.0227 H   0  0  0  0  0  0  0  0  0  0  0  0
  140.7444   79.5551  218.6721 H   0  0  0  0  0  0  0  0  0  0  0  0
  141.2411   82.3923  222.3424 H   0  0  0  0  0  0  0  0  0  0  0  0
  140.1703   81.1161  222.8962 H   0  0  0  0  0  0  0  0  0  0  0  0
  142.9795   81.6989  223.6856 H   0  0  0  0  0  0  0  0  0  0  0  0
  141.8265   80.6299  224.5016 H   0  0  0  0  0  0  0  0  0  0  0  0
  143.8934   79.9778  222.4066 H   0  0  0  0  0  0  0  0  0  0  0  0
  143.2531   78.9106  223.6184 H   0  0  0  0  0  0  0  0  0  0  0  0
  142.1912   78.5298  221.0915 H   0  0  0  0  0  0  0  0  0  0  0  0
  141.2944   77.9922  223.4514 H   0  0  0  0  0  0  0  0  0  0  0  0
  140.1340   79.3487  222.9366 H   0  0  0  0  0  0  0  0  0  0  0  0
  139.9910   77.7830  220.8950 H   0  0  0  0  0  0  0  0  0  0  0  0
  139.9760   76.2759  223.4678 H   0  0  0  0  0  0  0  0  0  0  0  0
  138.6868   74.5683  222.2850 H   0  0  0  0  0  0  0  0  0  0  0  0
  137.8149   76.1183  222.2828 H   0  0  0  0  0  0  0  0  0  0  0  0
  137.7625   75.2700  219.9874 H   0  0  0  0  0  0  0  0  0  0  0  0
  138.9476   76.6149  220.0053 H   0  0  0  0  0  0  0  0  0  0  0  0
  139.3473   73.7388  219.5097 H   0  0  0  0  0  0  0  0  0  0  0  0
  140.4038   75.1485  219.1163 H   0  0  0  0  0  0  0  0  0  0  0  0
  140.2190   73.6298  221.7597 H   0  0  0  0  0  0  0  0  0  0  0  0
  141.6275   73.7500  220.6705 H   0  0  0  0  0  0  0  0  0  0  0  0
  141.8826   75.3225  222.5306 H   0  0  0  0  0  0  0  0  0  0  0  0
  141.6020   76.2299  220.9844 H   0  0  0  0  0  0  0  0  0  0  0  0
  141.7767   75.6750  217.1478 H   0  0  0  0  0  0  0  0  0  0  0  0
  142.9414   73.5173  217.0190 H   0  0  0  0  0  0  0  0  0  0  0  0
  144.5157   71.9929  217.9349 H   0  0  0  0  0  0  0  0  0  0  0  0
  146.5680   73.0534  221.5263 H   0  0  0  0  0  0  0  0  0  0  0  0
  145.3865   75.2219  221.6343 H   0  0  0  0  0  0  0  0  0  0  0  0
  1  2  2  0
  2  3  1  0
  3  4  1  0
  4  5  1  0
  5  6  2  0
  5  7  1  0
  7  8  1  0
  8  9  1  0
  9 10  1  0
 10 11  1  0
 11 12  1  0
 12 13  1  0
 13 14  1  0
 14 15  1  0
 15 16  1  0
 16 17  1  0
 17 18  1  0
 18 19  1  0
  2 20  1  0
 20 21  2  0
 21 22  1  0
 22 23  2  0
 23 24  1  0
 24 25  2  0
 25 26  1  0
 25 27  1  0
 27 28  2  0
 28 29  1  0
 29 30  2  0
 11  7  1  0
 19 14  1  0
 30 20  1  0
 29 23  1  0
  3 31  1  0
  4 32  1  0
  4 33  1  0
  8 34  1  0
  8 35  1  0
  9 36  1  0
  9 37  1  0
 10 38  1  0
 10 39  1  0
 11 40  1  6
 12 41  1  0
 12 42  1  0
 13 43  1  0
 14 44  1  0
 15 45  1  0
 15 46  1  0
 16 47  1  0
 16 48  1  0
 17 49  1  0
 17 50  1  0
 18 51  1  0
 18 52  1  0
 19 53  1  0
 19 54  1  0
 21 55  1  0
 22 56  1  0
 24 57  1  0
 27 58  1  0
 28 59  1  0
M  END
>  <smiles>  (30) 
O=C(NCC(=O)N1CCC[C@H]1CNC1CCCCC1)c1ccc2cc(F)ccc2n1

>  <score_type>  (30) 
oracle

>  <origin>  (30) 
autodockgpu

>  <m_score__min__energy>  (30) 
-8.9399999999999995

>  <m_primary>  (30) 
energy

>  <rmsd>  (30) 
7.534705131711786

>  <m_score__min__rmsd>  (30) 
7.534705131711786

>  <meeko>  (30) 
{"free_energy": -6.23, "intermolecular_energy": -8.31, "internal_energy": -3.57, "cluster_size": 10, "cluster_id": 7, "rank_in_cluster": 8}

>  <energy>  (30) 
-7.41

>  <cluster_rmsd>  (30) 
1.63

>  <cluster>  (30) 
3

$$$$

     RDKit          3D

 59 62  0  0  0  0  0  0  0  0999 V2000
  140.6590   72.5460  221.7270 O   0  0  0  0  0  0  0  0  0  0  0  0
  139.7370   72.3940  222.6000 C   0  0  0  0  0  0  0  0  0  0  0  0
  138.5450   73.1420  222.3440 N   0  0  0  0  0  0  0  0  0  0  0  0
  138.4970   73.9540  221.1840 C   0  0  0  0  0  0  0  0  0  0  0  0
  138.7860   75.3670  221.2430 C   0  0  0  0  0  0  0  0  0  0  0  0
  137.7250   76.1230  221.0560 O   0  0  0  0  0  0  0  0  0  0  0  0
  139.9670   76.0850  221.4550 N   0  0  0  0  0  0  0  0  0  0  0  0
  140.6470   76.6300  222.5980 C   0  0  0  0  0  0  0  0  0  0  0  0
  141.1200   77.9940  222.1200 C   0  0  0  0  0  0  0  0  0  0  0  0
  140.9140   78.0060  220.6190 C   0  0  0  0  0  0  0  0  0  0  0  0
  140.8360   76.5000  220.3250 C   0  0  1  0  0  0  0  0  0  0  0  0
  142.2140   75.9600  220.3900 C   0  0  0  0  0  0  0  0  0  0  0  0
  142.3620   74.5900  220.7260 N   0  0  0  0  0  0  0  0  0  0  0  0
  142.9810   73.7380  219.7750 C   0  0  0  0  0  0  0  0  0  0  0  0
  144.2730   74.3150  219.2800 C   0  0  0  0  0  0  0  0  0  0  0  0
  145.1960   74.4550  220.4950 C   0  0  0  0  0  0  0  0  0  0  0  0
  145.6180   73.0790  220.9530 C   0  0  0  0  0  0  0  0  0  0  0  0
  144.7420   72.0110  220.3190 C   0  0  0  0  0  0  0  0  0  0  0  0
  143.3000   72.4240  220.5040 C   0  0  0  0  0  0  0  0  0  0  0  0
  139.8980   71.5280  223.7560 C   0  0  0  0  0  0  0  0  0  0  0  0
  139.4730   70.2100  223.6130 C   0  0  0  0  0  0  0  0  0  0  0  0
  139.5600   69.2830  224.6110 C   0  0  0  0  0  0  0  0  0  0  0  0
  140.1010   69.6870  225.8240 C   0  0  0  0  0  0  0  0  0  0  0  0
  140.1910   68.7610  226.8340 C   0  0  0  0  0  0  0  0  0  0  0  0
  140.7260   69.1650  228.0280 C   0  0  0  0  0  0  0  0  0  0  0  0
  140.8360   68.2870  229.0530 F   0  0  0  0  0  0  0  0  0  0  0  0
  141.1420   70.4670  228.1560 C   0  0  0  0  0  0  0  0  0  0  0  0
  141.0480   71.3960  227.1340 C   0  0  0  0  0  0  0  0  0  0  0  0
  140.5060   70.9890  225.9190 C   0  0  0  0  0  0  0  0  0  0  0  0
  140.4120   71.8890  224.9220 N   0  0  0  0  0  0  0  0  0  0  0  0
  137.7710   73.0350  223.0480 H   0  0  0  0  0  0  0  0  0  0  0  0
  139.2130   73.5198  220.4707 H   0  0  0  0  0  0  0  0  0  0  0  0
  137.4271   73.9407  220.9287 H   0  0  0  0  0  0  0  0  0  0  0  0
  139.9607   76.7299  223.4518 H   0  0  0  0  0  0  0  0  0  0  0  0
  141.4716   75.9915  222.9477 H   0  0  0  0  0  0  0  0  0  0  0  0
  140.5279   78.7911  222.5933 H   0  0  0  0  0  0  0  0  0  0  0  0
  142.1735   78.1697  222.3832 H   0  0  0  0  0  0  0  0  0  0  0  0
  139.9820   78.5209  220.3427 H   0  0  0  0  0  0  0  0  0  0  0  0
  141.6951   78.5391  220.0571 H   0  0  0  0  0  0  0  0  0  0  0  0
  140.4486   76.1708  219.3495 H   0  0  0  0  0  0  0  0  0  0  0  0
  142.6740   76.1092  219.4020 H   0  0  0  0  0  0  0  0  0  0  0  0
  142.6919   76.5061  221.2167 H   0  0  0  0  0  0  0  0  0  0  0  0
  141.5900   74.1980  221.2760 H   0  0  0  0  0  0  0  0  0  0  0  0
  142.3111   73.6005  218.9134 H   0  0  0  0  0  0  0  0  0  0  0  0
  144.7265   73.6430  218.5365 H   0  0  0  0  0  0  0  0  0  0  0  0
  144.1083   75.2899  218.7979 H   0  0  0  0  0  0  0  0  0  0  0  0
  146.0851   75.0401  220.2172 H   0  0  0  0  0  0  0  0  0  0  0  0
  144.6642   74.9706  221.3083 H   0  0  0  0  0  0  0  0  0  0  0  0
  146.6649   72.9068  220.6627 H   0  0  0  0  0  0  0  0  0  0  0  0
  145.5114   73.0214  222.0463 H   0  0  0  0  0  0  0  0  0  0  0  0
  144.9722   71.9267  219.2467 H   0  0  0  0  0  0  0  0  0  0  0  0
  144.9249   71.0347  220.7916 H   0  0  0  0  0  0  0  0  0  0  0  0
  142.6494   71.6306  220.1074 H   0  0  0  0  0  0  0  0  0  0  0  0
  143.1260   72.5802  221.5788 H   0  0  0  0  0  0  0  0  0  0  0  0
  139.0459   69.9003  222.6478 H   0  0  0  0  0  0  0  0  0  0  0  0
  139.2130   68.2502  224.4592 H   0  0  0  0  0  0  0  0  0  0  0  0
  139.8442   67.7273  226.6885 H   0  0  0  0  0  0  0  0  0  0  0  0
  141.5707   70.7875  229.1170 H   0  0  0  0  0  0  0  0  0  0  0  0
  141.3933   72.4303  227.2789 H   0  0  0  0  0  0  0  0  0  0  0  0
  1  2  2  0
  2  3  1  0
  3  4  1  0
  4  5  1  0
  5  6  2  0
  5  7  1  0
  7  8  1  0
  8  9  1  0
  9 10  1  0
 10 11  1  0
 11 12  1  0
 12 13  1  0
 13 14  1  0
 14 15  1  0
 15 16  1  0
 16 17  1  0
 17 18  1  0
 18 19  1  0
  2 20  1  0
 20 21  2  0
 21 22  1  0
 22 23  2  0
 23 24  1  0
 24 25  2  0
 25 26  1  0
 25 27  1  0
 27 28  2  0
 28 29  1  0
 29 30  2  0
 11  7  1  0
 19 14  1  0
 30 20  1  0
 29 23  1  0
  3 31  1  0
  4 32  1  0
  4 33  1  0
  8 34  1  0
  8 35  1  0
  9 36  1  0
  9 37  1  0
 10 38  1  0
 10 39  1  0
 11 40  1  6
 12 41  1  0
 12 42  1  0
 13 43  1  0
 14 44  1  0
 15 45  1  0
 15 46  1  0
 16 47  1  0
 16 48  1  0
 17 49  1  0
 17 50  1  0
 18 51  1  0
 18 52  1  0
 19 53  1  0
 19 54  1  0
 21 55  1  0
 22 56  1  0
 24 57  1  0
 27 58  1  0
 28 59  1  0
M  END
>  <smiles>  (31) 
O=C(NCC(=O)N1CCC[C@H]1CNC1CCCCC1)c1ccc2cc(F)ccc2n1

>  <score_type>  (31) 
oracle

>  <origin>  (31) 
autodockgpu

>  <m_score__min__energy>  (31) 
-8.9399999999999995

>  <m_primary>  (31) 
energy

>  <rmsd>  (31) 
4.730720781569217

>  <m_score__min__rmsd>  (31) 
4.730720781569217

>  <meeko>  (31) 
{"free_energy": -7.61, "intermolecular_energy": -9.7, "internal_energy": -2.5, "cluster_size": 11, "cluster_id": 3, "rank_in_cluster": 5}

>  <energy>  (31) 
-7.4

>  <cluster_rmsd>  (31) 
1.66

>  <cluster>  (31) 
3

$$$$

     RDKit          3D

 59 62  0  0  0  0  0  0  0  0999 V2000
  139.4200   71.3620  221.2060 O   0  0  0  0  0  0  0  0  0  0  0  0
  138.9730   71.6900  222.3580 C   0  0  0  0  0  0  0  0  0  0  0  0
  138.0650   72.7960  222.3510 N   0  0  0  0  0  0  0  0  0  0  0  0
  137.7560   73.4040  221.1090 C   0  0  0  0  0  0  0  0  0  0  0  0
  138.0740   74.7880  220.8490 C   0  0  0  0  0  0  0  0  0  0  0  0
  137.0100   75.5430  220.6780 O   0  0  0  0  0  0  0  0  0  0  0  0
  139.2870   75.4770  220.7400 N   0  0  0  0  0  0  0  0  0  0  0  0
  140.1280   75.9130  219.6590 C   0  0  0  0  0  0  0  0  0  0  0  0
  141.5330   75.6010  220.1480 C   0  0  0  0  0  0  0  0  0  0  0  0
  141.4000   75.2650  221.6190 C   0  0  0  0  0  0  0  0  0  0  0  0
  140.0430   75.9090  221.9420 C   0  0  1  0  0  0  0  0  0  0  0  0
  140.2540   77.3730  222.0320 C   0  0  0  0  0  0  0  0  0  0  0  0
  141.4830   77.8220  222.5760 N   0  0  0  0  0  0  0  0  0  0  0  0
  141.4360   78.8060  223.5980 C   0  0  0  0  0  0  0  0  0  0  0  0
  142.5360   79.8120  223.4420 C   0  0  0  0  0  0  0  0  0  0  0  0
  142.3300   80.4960  222.0860 C   0  0  0  0  0  0  0  0  0  0  0  0
  141.1040   81.3750  222.1600 C   0  0  0  0  0  0  0  0  0  0  0  0
  140.2800   81.0420  223.3920 C   0  0  0  0  0  0  0  0  0  0  0  0
  140.0970   79.5430  223.4370 C   0  0  0  0  0  0  0  0  0  0  0  0
  139.3610   70.9890  223.5700 C   0  0  0  0  0  0  0  0  0  0  0  0
  139.1170   69.6180  223.6050 C   0  0  0  0  0  0  0  0  0  0  0  0
  139.4270   68.8300  224.6750 C   0  0  0  0  0  0  0  0  0  0  0  0
  140.0130   69.4370  225.7780 C   0  0  0  0  0  0  0  0  0  0  0  0
  140.3260   68.6510  226.8600 C   0  0  0  0  0  0  0  0  0  0  0  0
  140.9030   69.2550  227.9440 C   0  0  0  0  0  0  0  0  0  0  0  0
  141.2300   68.5210  229.0340 F   0  0  0  0  0  0  0  0  0  0  0  0
  141.1380   70.6060  227.8980 C   0  0  0  0  0  0  0  0  0  0  0  0
  140.8200   71.3940  226.8050 C   0  0  0  0  0  0  0  0  0  0  0  0
  140.2330   70.7840  225.7000 C   0  0  0  0  0  0  0  0  0  0  0  0
  139.9210   71.5450  224.6340 N   0  0  0  0  0  0  0  0  0  0  0  0
  137.6830   73.0870  223.2860 H   0  0  0  0  0  0  0  0  0  0  0  0
  138.2745   72.8158  220.3375 H   0  0  0  0  0  0  0  0  0  0  0  0
  136.6560   73.4102  221.1149 H   0  0  0  0  0  0  0  0  0  0  0  0
  139.9012   75.3578  218.7369 H   0  0  0  0  0  0  0  0  0  0  0  0
  139.9885   76.9758  219.4120 H   0  0  0  0  0  0  0  0  0  0  0  0
  141.9479   74.7444  219.5966 H   0  0  0  0  0  0  0  0  0  0  0  0
  142.2122   76.4517  219.9896 H   0  0  0  0  0  0  0  0  0  0  0  0
  141.3816   74.1778  221.7855 H   0  0  0  0  0  0  0  0  0  0  0  0
  142.2324   75.6210  222.2438 H   0  0  0  0  0  0  0  0  0  0  0  0
  139.5379   75.6373  222.8806 H   0  0  0  0  0  0  0  0  0  0  0  0
  140.1752   77.7810  221.0135 H   0  0  0  0  0  0  0  0  0  0  0  0
  139.4880   77.7249  222.7387 H   0  0  0  0  0  0  0  0  0  0  0  0
  142.2540   77.8820  221.9030 H   0  0  0  0  0  0  0  0  0  0  0  0
  141.5462   78.3224  224.5798 H   0  0  0  0  0  0  0  0  0  0  0  0
  142.4855   80.5552  224.2514 H   0  0  0  0  0  0  0  0  0  0  0  0
  143.5216   79.3260  223.4904 H   0  0  0  0  0  0  0  0  0  0  0  0
  143.2102   81.1102  221.8452 H   0  0  0  0  0  0  0  0  0  0  0  0
  142.1954   79.7355  221.3027 H   0  0  0  0  0  0  0  0  0  0  0  0
  141.4170   82.4284  222.2085 H   0  0  0  0  0  0  0  0  0  0  0  0
  140.4889   81.2012  221.2648 H   0  0  0  0  0  0  0  0  0  0  0  0
  140.8060   81.3816  224.2964 H   0  0  0  0  0  0  0  0  0  0  0  0
  139.3033   81.5461  223.3475 H   0  0  0  0  0  0  0  0  0  0  0  0
  139.4472   79.2896  224.2876 H   0  0  0  0  0  0  0  0  0  0  0  0
  139.6462   79.2262  222.4849 H   0  0  0  0  0  0  0  0  0  0  0  0
  138.6514   69.1473  222.7266 H   0  0  0  0  0  0  0  0  0  0  0  0
  139.2196   67.7498  224.6642 H   0  0  0  0  0  0  0  0  0  0  0  0
  140.1195   67.5706  226.8554 H   0  0  0  0  0  0  0  0  0  0  0  0
  141.6017   71.0865  228.7722 H   0  0  0  0  0  0  0  0  0  0  0  0
  141.0260   72.4745  226.8096 H   0  0  0  0  0  0  0  0  0  0  0  0
  1  2  2  0
  2  3  1  0
  3  4  1  0
  4  5  1  0
  5  6  2  0
  5  7  1  0
  7  8  1  0
  8  9  1  0
  9 10  1  0
 10 11  1  0
 11 12  1  0
 12 13  1  0
 13 14  1  0
 14 15  1  0
 15 16  1  0
 16 17  1  0
 17 18  1  0
 18 19  1  0
  2 20  1  0
 20 21  2  0
 21 22  1  0
 22 23  2  0
 23 24  1  0
 24 25  2  0
 25 26  1  0
 25 27  1  0
 27 28  2  0
 28 29  1  0
 29 30  2  0
 11  7  1  0
 19 14  1  0
 30 20  1  0
 29 23  1  0
  3 31  1  0
  4 32  1  0
  4 33  1  0
  8 34  1  0
  8 35  1  0
  9 36  1  0
  9 37  1  0
 10 38  1  0
 10 39  1  0
 11 40  1  1
 12 41  1  0
 12 42  1  0
 13 43  1  0
 14 44  1  0
 15 45  1  0
 15 46  1  0
 16 47  1  0
 16 48  1  0
 17 49  1  0
 17 50  1  0
 18 51  1  0
 18 52  1  0
 19 53  1  0
 19 54  1  0
 21 55  1  0
 22 56  1  0
 24 57  1  0
 27 58  1  0
 28 59  1  0
M  END
>  <smiles>  (32) 
O=C(NCC(=O)N1CCC[C@H]1CNC1CCCCC1)c1ccc2cc(F)ccc2n1

>  <score_type>  (32) 
oracle

>  <origin>  (32) 
autodockgpu

>  <m_score__min__energy>  (32) 
-8.9399999999999995

>  <m_primary>  (32) 
energy

>  <rmsd>  (32) 
2.126384789653269

>  <m_score__min__rmsd>  (32) 
2.126384789653269

>  <meeko>  (32) 
{"free_energy": -8.39, "intermolecular_energy": -10.47, "internal_energy": -1.53, "cluster_size": 22, "cluster_id": 1, "rank_in_cluster": 19}

>  <energy>  (32) 
-7.38

>  <cluster_rmsd>  (32) 
1.59

>  <cluster>  (32) 
3

$$$$

     RDKit          3D

 59 62  0  0  0  0  0  0  0  0999 V2000
  140.3080   70.8930  221.5970 O   0  0  0  0  0  0  0  0  0  0  0  0
  140.1070   71.5820  222.6560 C   0  0  0  0  0  0  0  0  0  0  0  0
  139.7950   72.9580  222.4190 N   0  0  0  0  0  0  0  0  0  0  0  0
  139.7390   73.4140  221.0800 C   0  0  0  0  0  0  0  0  0  0  0  0
  139.3980   74.7820  220.7640 C   0  0  0  0  0  0  0  0  0  0  0  0
  139.6660   75.1100  219.5190 O   0  0  0  0  0  0  0  0  0  0  0  0
  138.8440   75.8200  221.5220 N   0  0  0  0  0  0  0  0  0  0  0  0
  137.7570   75.9450  222.4530 C   0  0  0  0  0  0  0  0  0  0  0  0
  137.1010   77.2610  222.0660 C   0  0  0  0  0  0  0  0  0  0  0  0
  138.0560   77.9380  221.1060 C   0  0  0  0  0  0  0  0  0  0  0  0
  139.3660   77.2070  221.4340 C   0  0  1  0  0  0  0  0  0  0  0  0
  139.8700   77.7470  222.7180 C   0  0  0  0  0  0  0  0  0  0  0  0
  141.2730   77.7530  222.9170 N   0  0  0  0  0  0  0  0  0  0  0  0
  141.8450   78.8730  223.5750 C   0  0  0  0  0  0  0  0  0  0  0  0
  142.8690   79.5510  222.7160 C   0  0  0  0  0  0  0  0  0  0  0  0
  142.1460   80.0340  221.4540 C   0  0  0  0  0  0  0  0  0  0  0  0
  141.2300   81.1790  221.8200 C   0  0  0  0  0  0  0  0  0  0  0  0
  141.0440   81.2550  223.3260 C   0  0  0  0  0  0  0  0  0  0  0  0
  140.7010   79.8690  223.8220 C   0  0  0  0  0  0  0  0  0  0  0  0
  140.1900   71.0040  223.9860 C   0  0  0  0  0  0  0  0  0  0  0  0
  140.6930   71.8230  224.9930 C   0  0  0  0  0  0  0  0  0  0  0  0
  140.8310   71.4170  226.2890 C   0  0  0  0  0  0  0  0  0  0  0  0
  140.4470   70.1210  226.6060 C   0  0  0  0  0  0  0  0  0  0  0  0
  140.5830   69.7040  227.9070 C   0  0  0  0  0  0  0  0  0  0  0  0
  140.2030   68.4260  228.2130 C   0  0  0  0  0  0  0  0  0  0  0  0
  140.3180   67.9700  229.4830 F   0  0  0  0  0  0  0  0  0  0  0  0
  139.7080   67.6280  227.2120 C   0  0  0  0  0  0  0  0  0  0  0  0
  139.5730   68.0530  225.9010 C   0  0  0  0  0  0  0  0  0  0  0  0
  139.9590   69.3530  225.5860 C   0  0  0  0  0  0  0  0  0  0  0  0
  139.8290   69.7720  224.3130 N   0  0  0  0  0  0  0  0  0  0  0  0
  139.6270   73.5480  223.2740 H   0  0  0  0  0  0  0  0  0  0  0  0
  140.7348   73.2344  220.6487 H   0  0  0  0  0  0  0  0  0  0  0  0
  138.8819   72.8561  220.6749 H   0  0  0  0  0  0  0  0  0  0  0  0
  137.0509   75.1083  222.3463 H   0  0  0  0  0  0  0  0  0  0  0  0
  138.0892   75.9262  223.5015 H   0  0  0  0  0  0  0  0  0  0  0  0
  136.1337   77.0761  221.5759 H   0  0  0  0  0  0  0  0  0  0  0  0
  136.9054   77.8880  222.9484 H   0  0  0  0  0  0  0  0  0  0  0  0
  137.7563   77.7805  220.0594 H   0  0  0  0  0  0  0  0  0  0  0  0
  138.1074   79.0316  221.2124 H   0  0  0  0  0  0  0  0  0  0  0  0
  140.2119   77.2987  220.7368 H   0  0  0  0  0  0  0  0  0  0  0  0
  139.5209   78.7870  222.7983 H   0  0  0  0  0  0  0  0  0  0  0  0
  139.4801   77.0608  223.4842 H   0  0  0  0  0  0  0  0  0  0  0  0
  141.8160   77.3280  222.1570 H   0  0  0  0  0  0  0  0  0  0  0  0
  142.3363   78.5434  224.5023 H   0  0  0  0  0  0  0  0  0  0  0  0
  143.3053   80.4066  223.2523 H   0  0  0  0  0  0  0  0  0  0  0  0
  143.6863   78.8606  222.4604 H   0  0  0  0  0  0  0  0  0  0  0  0
  142.8845   80.3747  220.7133 H   0  0  0  0  0  0  0  0  0  0  0  0
  141.5576   79.2099  221.0242 H   0  0  0  0  0  0  0  0  0  0  0  0
  141.6692   82.1219  221.4620 H   0  0  0  0  0  0  0  0  0  0  0  0
  140.2496   81.0130  221.3497 H   0  0  0  0  0  0  0  0  0  0  0  0
  141.9737   81.6023  223.8004 H   0  0  0  0  0  0  0  0  0  0  0  0
  140.2398   81.9621  223.5777 H   0  0  0  0  0  0  0  0  0  0  0  0
  140.4988   79.9177  224.9022 H   0  0  0  0  0  0  0  0  0  0  0  0
  139.8175   79.5177  223.2688 H   0  0  0  0  0  0  0  0  0  0  0  0
  140.9942   72.8481  224.7314 H   0  0  0  0  0  0  0  0  0  0  0  0
  141.2331   72.0943  227.0568 H   0  0  0  0  0  0  0  0  0  0  0  0
  140.9849   70.3765  228.6791 H   0  0  0  0  0  0  0  0  0  0  0  0
  139.4038   66.6012  227.4633 H   0  0  0  0  0  0  0  0  0  0  0  0
  139.1712   67.3809  225.1285 H   0  0  0  0  0  0  0  0  0  0  0  0
  1  2  2  0
  2  3  1  0
  3  4  1  0
  4  5  1  0
  5  6  2  0
  5  7  1  0
  7  8  1  0
  8  9  1  0
  9 10  1  0
 10 11  1  0
 11 12  1  0
 12 13  1  0
 13 14  1  0
 14 15  1  0
 15 16  1  0
 16 17  1  0
 17 18  1  0
 18 19  1  0
  2 20  1  0
 20 21  2  0
 21 22  1  0
 22 23  2  0
 23 24  1  0
 24 25  2  0
 25 26  1  0
 25 27  1  0
 27 28  2  0
 28 29  1  0
 29 30  2  0
 11  7  1  0
 19 14  1  0
 30 20  1  0
 29 23  1  0
  3 31  1  0
  4 32  1  0
  4 33  1  0
  8 34  1  0
  8 35  1  0
  9 36  1  0
  9 37  1  0
 10 38  1  0
 10 39  1  0
 11 40  1  6
 12 41  1  0
 12 42  1  0
 13 43  1  0
 14 44  1  0
 15 45  1  0
 15 46  1  0
 16 47  1  0
 16 48  1  0
 17 49  1  0
 17 50  1  0
 18 51  1  0
 18 52  1  0
 19 53  1  0
 19 54  1  0
 21 55  1  0
 22 56  1  0
 24 57  1  0
 27 58  1  0
 28 59  1  0
M  END
>  <smiles>  (33) 
O=C(NCC(=O)N1CCC[C@H]1CNC1CCCCC1)c1ccc2cc(F)ccc2n1

>  <score_type>  (33) 
oracle

>  <origin>  (33) 
autodockgpu

>  <m_score__min__energy>  (33) 
-8.9399999999999995

>  <m_primary>  (33) 
energy

>  <rmsd>  (33) 
3.140611800041982

>  <m_score__min__rmsd>  (33) 
3.140611800041982

>  <meeko>  (33) 
{"free_energy": -8.47, "intermolecular_energy": -10.56, "internal_energy": -1.43, "cluster_size": 22, "cluster_id": 1, "rank_in_cluster": 15}

>  <energy>  (33) 
-7.37

>  <cluster_rmsd>  (33) 
1.74

>  <cluster>  (33) 
3

$$$$

     RDKit          3D

 59 62  0  0  0  0  0  0  0  0999 V2000
  133.8300   70.3070  227.2130 O   0  0  0  0  0  0  0  0  0  0  0  0
  133.6670   71.2340  226.3470 C   0  0  0  0  0  0  0  0  0  0  0  0
  133.9800   70.8550  225.0030 N   0  0  0  0  0  0  0  0  0  0  0  0
  134.4240   69.5320  224.7640 C   0  0  0  0  0  0  0  0  0  0  0  0
  135.6090   69.2660  223.9820 C   0  0  0  0  0  0  0  0  0  0  0  0
  135.5340   68.1490  223.2900 O   0  0  0  0  0  0  0  0  0  0  0  0
  136.8130   69.9590  223.8200 N   0  0  0  0  0  0  0  0  0  0  0  0
  137.2520   71.3140  224.0110 C   0  0  0  0  0  0  0  0  0  0  0  0
  138.1270   71.5830  222.7970 C   0  0  0  0  0  0  0  0  0  0  0  0
  138.3530   70.2380  222.1370 C   0  0  0  0  0  0  0  0  0  0  0  0
  138.0300   69.2870  223.2990 C   0  0  1  0  0  0  0  0  0  0  0  0
  139.1820   69.3110  224.2310 C   0  0  0  0  0  0  0  0  0  0  0  0
  138.9010   69.2180  225.6170 N   0  0  0  0  0  0  0  0  0  0  0  0
  139.9950   69.0520  226.5050 C   0  0  0  0  0  0  0  0  0  0  0  0
  141.2200   69.7560  226.0040 C   0  0  0  0  0  0  0  0  0  0  0  0
  140.8760   71.2470  225.9140 C   0  0  0  0  0  0  0  0  0  0  0  0
  140.7380   71.8050  227.3120 C   0  0  0  0  0  0  0  0  0  0  0  0
  140.6300   70.6810  228.3290 C   0  0  0  0  0  0  0  0  0  0  0  0
  139.5860   69.7060  227.8340 C   0  0  0  0  0  0  0  0  0  0  0  0
  133.2020   72.5610  226.7110 C   0  0  0  0  0  0  0  0  0  0  0  0
  131.9870   72.6340  227.3880 C   0  0  0  0  0  0  0  0  0  0  0  0
  131.4250   73.8100  227.7920 C   0  0  0  0  0  0  0  0  0  0  0  0
  132.1070   74.9850  227.5070 C   0  0  0  0  0  0  0  0  0  0  0  0
  131.5470   76.1730  227.9080 C   0  0  0  0  0  0  0  0  0  0  0  0
  132.2240   77.3290  227.6250 C   0  0  0  0  0  0  0  0  0  0  0  0
  131.7120   78.5240  228.0020 F   0  0  0  0  0  0  0  0  0  0  0  0
  133.4200   77.2430  226.9570 C   0  0  0  0  0  0  0  0  0  0  0  0
  133.9800   76.0430  226.5540 C   0  0  0  0  0  0  0  0  0  0  0  0
  133.2950   74.8670  226.8410 C   0  0  0  0  0  0  0  0  0  0  0  0
  133.8340   73.6960  226.4510 N   0  0  0  0  0  0  0  0  0  0  0  0
  133.8550   71.6010  224.2720 H   0  0  0  0  0  0  0  0  0  0  0  0
  134.5948   69.0782  225.7514 H   0  0  0  0  0  0  0  0  0  0  0  0
  133.6237   69.1237  224.1293 H   0  0  0  0  0  0  0  0  0  0  0  0
  136.3956   72.0038  224.0380 H   0  0  0  0  0  0  0  0  0  0  0  0
  137.7853   71.4596  224.9620 H   0  0  0  0  0  0  0  0  0  0  0  0
  137.6176   72.2681  222.1033 H   0  0  0  0  0  0  0  0  0  0  0  0
  139.0782   72.0555  223.0834 H   0  0  0  0  0  0  0  0  0  0  0  0
  137.6713   70.0847  221.2874 H   0  0  0  0  0  0  0  0  0  0  0  0
  139.3566   70.1056  221.7067 H   0  0  0  0  0  0  0  0  0  0  0  0
  137.8656   68.2216  223.0804 H   0  0  0  0  0  0  0  0  0  0  0  0
  139.8359   68.4660  223.9694 H   0  0  0  0  0  0  0  0  0  0  0  0
  139.6290   70.3076  224.1006 H   0  0  0  0  0  0  0  0  0  0  0  0
  138.0310   68.7240  225.8460 H   0  0  0  0  0  0  0  0  0  0  0  0
  140.2277   67.9816  226.6057 H   0  0  0  0  0  0  0  0  0  0  0  0
  142.0558   69.6028  226.7026 H   0  0  0  0  0  0  0  0  0  0  0  0
  141.5238   69.3637  225.0223 H   0  0  0  0  0  0  0  0  0  0  0  0
  141.6783   71.7792  225.3819 H   0  0  0  0  0  0  0  0  0  0  0  0
  139.9311   71.3782  225.3663 H   0  0  0  0  0  0  0  0  0  0  0  0
  141.6203   72.4193  227.5446 H   0  0  0  0  0  0  0  0  0  0  0  0
  139.8247   72.4162  227.3610 H   0  0  0  0  0  0  0  0  0  0  0  0
  141.6000   70.1718  228.4279 H   0  0  0  0  0  0  0  0  0  0  0  0
  140.3452   71.0807  229.3134 H   0  0  0  0  0  0  0  0  0  0  0  0
  139.4482   68.9188  228.5899 H   0  0  0  0  0  0  0  0  0  0  0  0
  138.6526   70.2632  227.6660 H   0  0  0  0  0  0  0  0  0  0  0  0
  131.4540   71.6972  227.6079 H   0  0  0  0  0  0  0  0  0  0  0  0
  130.4634   73.8264  228.3259 H   0  0  0  0  0  0  0  0  0  0  0  0
  130.5845   76.1952  228.4400 H   0  0  0  0  0  0  0  0  0  0  0  0
  133.9603   78.1740  226.7307 H   0  0  0  0  0  0  0  0  0  0  0  0
  134.9418   76.0200  226.0206 H   0  0  0  0  0  0  0  0  0  0  0  0
  1  2  2  0
  2  3  1  0
  3  4  1  0
  4  5  1  0
  5  6  2  0
  5  7  1  0
  7  8  1  0
  8  9  1  0
  9 10  1  0
 10 11  1  0
 11 12  1  0
 12 13  1  0
 13 14  1  0
 14 15  1  0
 15 16  1  0
 16 17  1  0
 17 18  1  0
 18 19  1  0
  2 20  1  0
 20 21  2  0
 21 22  1  0
 22 23  2  0
 23 24  1  0
 24 25  2  0
 25 26  1  0
 25 27  1  0
 27 28  2  0
 28 29  1  0
 29 30  2  0
 11  7  1  0
 19 14  1  0
 30 20  1  0
 29 23  1  0
  3 31  1  0
  4 32  1  0
  4 33  1  0
  8 34  1  0
  8 35  1  0
  9 36  1  0
  9 37  1  0
 10 38  1  0
 10 39  1  0
 11 40  1  6
 12 41  1  0
 12 42  1  0
 13 43  1  0
 14 44  1  0
 15 45  1  0
 15 46  1  0
 16 47  1  0
 16 48  1  0
 17 49  1  0
 17 50  1  0
 18 51  1  0
 18 52  1  0
 19 53  1  0
 19 54  1  0
 21 55  1  0
 22 56  1  0
 24 57  1  0
 27 58  1  0
 28 59  1  0
M  END
>  <smiles>  (34) 
O=C(NCC(=O)N1CCC[C@H]1CNC1CCCCC1)c1ccc2cc(F)ccc2n1

>  <score_type>  (34) 
oracle

>  <origin>  (34) 
autodockgpu

>  <m_score__min__energy>  (34) 
-8.9399999999999995

>  <m_primary>  (34) 
energy

>  <rmsd>  (34) 
9.652483596956952

>  <m_score__min__rmsd>  (34) 
9.652483596956952

>  <meeko>  (34) 
{"free_energy": -8.0, "intermolecular_energy": -10.09, "internal_energy": -1.59, "cluster_size": 1, "cluster_id": 4, "rank_in_cluster": 1}

>  <energy>  (34) 
-7.15

>  <cluster_rmsd>  (34) 
1.76

>  <cluster>  (34) 
3

$$$$

     RDKit          3D

 59 62  0  0  0  0  0  0  0  0999 V2000
  140.6350   71.4070  221.4780 O   0  0  0  0  0  0  0  0  0  0  0  0
  140.1830   71.8560  222.5860 C   0  0  0  0  0  0  0  0  0  0  0  0
  139.7050   73.2030  222.5320 N   0  0  0  0  0  0  0  0  0  0  0  0
  139.7730   73.8920  221.2960 C   0  0  0  0  0  0  0  0  0  0  0  0
  139.8140   75.3340  221.2400 C   0  0  0  0  0  0  0  0  0  0  0  0
  139.4320   75.9090  222.3600 O   0  0  0  0  0  0  0  0  0  0  0  0
  140.1750   76.2330  220.2310 N   0  0  0  0  0  0  0  0  0  0  0  0
  139.4840   77.1900  219.4120 C   0  0  0  0  0  0  0  0  0  0  0  0
  140.0980   76.9950  218.0340 C   0  0  0  0  0  0  0  0  0  0  0  0
  141.3170   76.1200  218.2390 C   0  0  0  0  0  0  0  0  0  0  0  0
  141.5740   76.3260  219.7400 C   0  0  1  0  0  0  0  0  0  0  0  0
  142.1880   77.6630  219.9090 C   0  0  0  0  0  0  0  0  0  0  0  0
  142.1880   78.2200  221.2130 N   0  0  0  0  0  0  0  0  0  0  0  0
  141.2210   79.2160  221.5090 C   0  0  0  0  0  0  0  0  0  0  0  0
  140.6850   79.0640  222.9000 C   0  0  0  0  0  0  0  0  0  0  0  0
  141.8710   79.2250  223.8580 C   0  0  0  0  0  0  0  0  0  0  0  0
  142.3200   80.6680  223.8460 C   0  0  0  0  0  0  0  0  0  0  0  0
  141.7150   81.4070  222.6640 C   0  0  0  0  0  0  0  0  0  0  0  0
  141.9430   80.5690  221.4270 C   0  0  0  0  0  0  0  0  0  0  0  0
  140.1610   71.0530  223.7970 C   0  0  0  0  0  0  0  0  0  0  0  0
  139.5790   69.7920  223.7010 C   0  0  0  0  0  0  0  0  0  0  0  0
  139.4860   68.9280  224.7540 C   0  0  0  0  0  0  0  0  0  0  0  0
  140.0000   69.3400  225.9760 C   0  0  0  0  0  0  0  0  0  0  0  0
  139.9090   68.4770  227.0410 C   0  0  0  0  0  0  0  0  0  0  0  0
  140.4170   68.8880  228.2430 C   0  0  0  0  0  0  0  0  0  0  0  0
  140.3520   68.0720  229.3210 F   0  0  0  0  0  0  0  0  0  0  0  0
  140.9890   70.1340  228.3250 C   0  0  0  0  0  0  0  0  0  0  0  0
  141.0780   70.9990  227.2480 C   0  0  0  0  0  0  0  0  0  0  0  0
  140.5620   70.5850  226.0240 C   0  0  0  0  0  0  0  0  0  0  0  0
  140.6450   71.4230  224.9730 N   0  0  0  0  0  0  0  0  0  0  0  0
  139.3290   73.5970  223.4320 H   0  0  0  0  0  0  0  0  0  0  0  0
  140.6828   73.5353  220.7910 H   0  0  0  0  0  0  0  0  0  0  0  0
  138.7967   73.6644  220.8432 H   0  0  0  0  0  0  0  0  0  0  0  0
  138.4038   76.9828  219.3931 H   0  0  0  0  0  0  0  0  0  0  0  0
  139.5861   78.2208  219.7823 H   0  0  0  0  0  0  0  0  0  0  0  0
  139.3808   76.4999  217.3628 H   0  0  0  0  0  0  0  0  0  0  0  0
  140.3661   77.9571  217.5730 H   0  0  0  0  0  0  0  0  0  0  0  0
  141.1023   75.0665  218.0064 H   0  0  0  0  0  0  0  0  0  0  0  0
  142.1710   76.3721  217.5931 H   0  0  0  0  0  0  0  0  0  0  0  0
  142.2534   75.6351  220.2607 H   0  0  0  0  0  0  0  0  0  0  0  0
  143.2355   77.5890  219.5816 H   0  0  0  0  0  0  0  0  0  0  0  0
  141.5576   78.3398  219.3136 H   0  0  0  0  0  0  0  0  0  0  0  0
  143.1170   78.3290  221.6330 H   0  0  0  0  0  0  0  0  0  0  0  0
  140.3809   79.1336  220.8037 H   0  0  0  0  0  0  0  0  0  0  0  0
  139.9298   79.8383  223.1004 H   0  0  0  0  0  0  0  0  0  0  0  0
  140.2055   78.0827  223.0306 H   0  0  0  0  0  0  0  0  0  0  0  0
  141.5640   78.9426  224.8759 H   0  0  0  0  0  0  0  0  0  0  0  0
  142.6988   78.5753  223.5376 H   0  0  0  0  0  0  0  0  0  0  0  0
  141.9989   81.1542  224.7790 H   0  0  0  0  0  0  0  0  0  0  0  0
  143.4162   80.6974  223.7590 H   0  0  0  0  0  0  0  0  0  0  0  0
  140.6363   81.5502  222.8250 H   0  0  0  0  0  0  0  0  0  0  0  0
  142.1836   82.3955  222.5492 H   0  0  0  0  0  0  0  0  0  0  0  0
  141.5685   81.1191  220.5511 H   0  0  0  0  0  0  0  0  0  0  0  0
  143.0223   80.3742  221.3422 H   0  0  0  0  0  0  0  0  0  0  0  0
  139.1739   69.4760  222.7283 H   0  0  0  0  0  0  0  0  0  0  0  0
  139.0194   67.9386  224.6380 H   0  0  0  0  0  0  0  0  0  0  0  0
  139.4425   67.4869  226.9308 H   0  0  0  0  0  0  0  0  0  0  0  0
  141.3961   70.4603  229.2934 H   0  0  0  0  0  0  0  0  0  0  0  0
  141.5450   71.9889  227.3571 H   0  0  0  0  0  0  0  0  0  0  0  0
  1  2  2  0
  2  3  1  0
  3  4  1  0
  4  5  1  0
  5  6  2  0
  5  7  1  0
  7  8  1  0
  8  9  1  0
  9 10  1  0
 10 11  1  0
 11 12  1  0
 12 13  1  0
 13 14  1  0
 14 15  1  0
 15 16  1  0
 16 17  1  0
 17 18  1  0
 18 19  1  0
  2 20  1  0
 20 21  2  0
 21 22  1  0
 22 23  2  0
 23 24  1  0
 24 25  2  0
 25 26  1  0
 25 27  1  0
 27 28  2  0
 28 29  1  0
 29 30  2  0
 11  7  1  0
 19 14  1  0
 30 20  1  0
 29 23  1  0
  3 31  1  0
  4 32  1  0
  4 33  1  0
  8 34  1  0
  8 35  1  0
  9 36  1  0
  9 37  1  0
 10 38  1  0
 10 39  1  0
 11 40  1  1
 12 41  1  0
 12 42  1  0
 13 43  1  0
 14 44  1  0
 15 45  1  0
 15 46  1  0
 16 47  1  0
 16 48  1  0
 17 49  1  0
 17 50  1  0
 18 51  1  0
 18 52  1  0
 19 53  1  0
 19 54  1  0
 21 55  1  0
 22 56  1  0
 24 57  1  0
 27 58  1  0
 28 59  1  0
M  END
>  <smiles>  (35) 
O=C(NCC(=O)N1CCC[C@H]1CNC1CCCCC1)c1ccc2cc(F)ccc2n1

>  <score_type>  (35) 
oracle

>  <origin>  (35) 
autodockgpu

>  <m_score__min__energy>  (35) 
-8.9399999999999995

>  <m_primary>  (35) 
energy

>  <rmsd>  (35) 
2.130401526460412

>  <m_score__min__rmsd>  (35) 
2.130401526460412

>  <meeko>  (35) 
{"free_energy": -8.58, "intermolecular_energy": -10.67, "internal_energy": -1.78, "cluster_size": 22, "cluster_id": 1, "rank_in_cluster": 10}

>  <energy>  (35) 
-8.0

>  <cluster_rmsd>  (35) 
0.0

>  <cluster>  (35) 
4

$$$$

     RDKit          3D

 59 62  0  0  0  0  0  0  0  0999 V2000
  141.2170   72.1010  221.4920 O   0  0  0  0  0  0  0  0  0  0  0  0
  140.3700   72.3610  222.4140 C   0  0  0  0  0  0  0  0  0  0  0  0
  139.5540   73.5100  222.1670 N   0  0  0  0  0  0  0  0  0  0  0  0
  139.7520   74.2280  220.9630 C   0  0  0  0  0  0  0  0  0  0  0  0
  140.7750   75.2410  220.8500 C   0  0  0  0  0  0  0  0  0  0  0  0
  141.4600   75.4130  221.9600 O   0  0  0  0  0  0  0  0  0  0  0  0
  141.1740   76.0730  219.7980 N   0  0  0  0  0  0  0  0  0  0  0  0
  141.5430   77.4550  219.6650 C   0  0  0  0  0  0  0  0  0  0  0  0
  140.8540   77.8890  218.3810 C   0  0  0  0  0  0  0  0  0  0  0  0
  140.3660   76.6180  217.7170 C   0  0  0  0  0  0  0  0  0  0  0  0
  141.2570   75.5710  218.4030 C   0  0  1  0  0  0  0  0  0  0  0  0
  142.6080   75.6720  217.8030 C   0  0  0  0  0  0  0  0  0  0  0  0
  143.6740   75.0360  218.4880 N   0  0  0  0  0  0  0  0  0  0  0  0
  143.3470   74.0450  219.4500 C   0  0  0  0  0  0  0  0  0  0  0  0
  143.6980   72.6720  218.9630 C   0  0  0  0  0  0  0  0  0  0  0  0
  145.2120   72.6520  218.7260 C   0  0  0  0  0  0  0  0  0  0  0  0
  145.9180   72.7060  220.0610 C   0  0  0  0  0  0  0  0  0  0  0  0
  144.9530   73.1130  221.1620 C   0  0  0  0  0  0  0  0  0  0  0  0
  144.2030   74.3380  220.6910 C   0  0  0  0  0  0  0  0  0  0  0  0
  140.2550   71.5480  223.6130 C   0  0  0  0  0  0  0  0  0  0  0  0
  139.6370   70.3080  223.4700 C   0  0  0  0  0  0  0  0  0  0  0  0
  139.4560   69.4370  224.5060 C   0  0  0  0  0  0  0  0  0  0  0  0
  139.9160   69.8190  225.7590 C   0  0  0  0  0  0  0  0  0  0  0  0
  139.7370   68.9500  226.8070 C   0  0  0  0  0  0  0  0  0  0  0  0
  140.1920   69.3310  228.0400 C   0  0  0  0  0  0  0  0  0  0  0  0
  140.0400   68.5070  229.1030 F   0  0  0  0  0  0  0  0  0  0  0  0
  140.8000   70.5550  228.1680 C   0  0  0  0  0  0  0  0  0  0  0  0
  140.9780   71.4280  227.1080 C   0  0  0  0  0  0  0  0  0  0  0  0
  140.5160   71.0440  225.8530 C   0  0  0  0  0  0  0  0  0  0  0  0
  140.6860   71.8880  224.8180 N   0  0  0  0  0  0  0  0  0  0  0  0
  138.8500   73.7460  222.9120 H   0  0  0  0  0  0  0  0  0  0  0  0
  139.9691   73.4793  220.1869 H   0  0  0  0  0  0  0  0  0  0  0  0
  138.8259   74.8161  220.8824 H   0  0  0  0  0  0  0  0  0  0  0  0
  141.1814   78.0420  220.5221 H   0  0  0  0  0  0  0  0  0  0  0  0
  142.6324   77.6049  219.6364 H   0  0  0  0  0  0  0  0  0  0  0  0
  140.0056   78.5514  218.6079 H   0  0  0  0  0  0  0  0  0  0  0  0
  141.5388   78.4477  217.7260 H   0  0  0  0  0  0  0  0  0  0  0  0
  139.3002   76.4384  217.9216 H   0  0  0  0  0  0  0  0  0  0  0  0
  140.4345   76.6237  216.6191 H   0  0  0  0  0  0  0  0  0  0  0  0
  140.9873   74.5081  218.3170 H   0  0  0  0  0  0  0  0  0  0  0  0
  142.5553   75.2343  216.7952 H   0  0  0  0  0  0  0  0  0  0  0  0
  142.8516   76.7442  217.8359 H   0  0  0  0  0  0  0  0  0  0  0  0
  144.4740   75.6440  218.6940 H   0  0  0  0  0  0  0  0  0  0  0  0
  142.2668   74.0738  219.6558 H   0  0  0  0  0  0  0  0  0  0  0  0
  143.4245   71.9218  219.7195 H   0  0  0  0  0  0  0  0  0  0  0  0
  143.1534   72.4334  218.0375 H   0  0  0  0  0  0  0  0  0  0  0  0
  145.4908   71.7281  218.1981 H   0  0  0  0  0  0  0  0  0  0  0  0
  145.5047   73.5184  218.1147 H   0  0  0  0  0  0  0  0  0  0  0  0
  146.3311   71.7129  220.2916 H   0  0  0  0  0  0  0  0  0  0  0  0
  146.7253   73.4511  220.0046 H   0  0  0  0  0  0  0  0  0  0  0  0
  144.2454   72.2946  221.3605 H   0  0  0  0  0  0  0  0  0  0  0  0
  145.5005   73.3317  222.0907 H   0  0  0  0  0  0  0  0  0  0  0  0
  143.5461   74.6861  221.5017 H   0  0  0  0  0  0  0  0  0  0  0  0
  144.9421   75.1066  220.4209 H   0  0  0  0  0  0  0  0  0  0  0  0
  139.2767   70.0157  222.4726 H   0  0  0  0  0  0  0  0  0  0  0  0
  138.9626   68.4659  224.3530 H   0  0  0  0  0  0  0  0  0  0  0  0
  139.2433   67.9781  226.6600 H   0  0  0  0  0  0  0  0  0  0  0  0
  141.1636   70.8571  229.1612 H   0  0  0  0  0  0  0  0  0  0  0  0
  141.4719   72.3999  227.2543 H   0  0  0  0  0  0  0  0  0  0  0  0
  1  2  2  0
  2  3  1  0
  3  4  1  0
  4  5  1  0
  5  6  2  0
  5  7  1  0
  7  8  1  0
  8  9  1  0
  9 10  1  0
 10 11  1  0
 11 12  1  0
 12 13  1  0
 13 14  1  0
 14 15  1  0
 15 16  1  0
 16 17  1  0
 17 18  1  0
 18 19  1  0
  2 20  1  0
 20 21  2  0
 21 22  1  0
 22 23  2  0
 23 24  1  0
 24 25  2  0
 25 26  1  0
 25 27  1  0
 27 28  2  0
 28 29  1  0
 29 30  2  0
 11  7  1  0
 19 14  1  0
 30 20  1  0
 29 23  1  0
  3 31  1  0
  4 32  1  0
  4 33  1  0
  8 34  1  0
  8 35  1  0
  9 36  1  0
  9 37  1  0
 10 38  1  0
 10 39  1  0
 11 40  1  1
 12 41  1  0
 12 42  1  0
 13 43  1  0
 14 44  1  0
 15 45  1  0
 15 46  1  0
 16 47  1  0
 16 48  1  0
 17 49  1  0
 17 50  1  0
 18 51  1  0
 18 52  1  0
 19 53  1  0
 19 54  1  0
 21 55  1  0
 22 56  1  0
 24 57  1  0
 27 58  1  0
 28 59  1  0
M  END
>  <smiles>  (36) 
O=C(NCC(=O)N1CCC[C@H]1CNC1CCCCC1)c1ccc2cc(F)ccc2n1

>  <score_type>  (36) 
oracle

>  <origin>  (36) 
autodockgpu

>  <m_score__min__energy>  (36) 
-8.9399999999999995

>  <m_primary>  (36) 
energy

>  <rmsd>  (36) 
4.632549498221986

>  <m_score__min__rmsd>  (36) 
4.632549498221986

>  <meeko>  (36) 
{"free_energy": -7.61, "intermolecular_energy": -9.69, "internal_energy": -1.97, "cluster_size": 11, "cluster_id": 3, "rank_in_cluster": 6}

>  <energy>  (36) 
-7.24

>  <cluster_rmsd>  (36) 
0.0

>  <cluster>  (36) 
5

$$$$

     RDKit          3D

 59 62  0  0  0  0  0  0  0  0999 V2000
  140.7790   71.8830  222.0290 O   0  0  0  0  0  0  0  0  0  0  0  0
  139.9330   71.8300  222.9870 C   0  0  0  0  0  0  0  0  0  0  0  0
  138.6990   72.5060  222.7280 N   0  0  0  0  0  0  0  0  0  0  0  0
  138.5330   73.1480  221.4770 C   0  0  0  0  0  0  0  0  0  0  0  0
  138.5170   74.5880  221.3660 C   0  0  0  0  0  0  0  0  0  0  0  0
  137.3100   75.0810  221.1890 O   0  0  0  0  0  0  0  0  0  0  0  0
  139.5280   75.5530  221.4070 N   0  0  0  0  0  0  0  0  0  0  0  0
  139.9380   76.5730  222.3320 C   0  0  0  0  0  0  0  0  0  0  0  0
  140.2600   77.7610  221.4390 C   0  0  0  0  0  0  0  0  0  0  0  0
  140.2810   77.2270  220.0230 C   0  0  0  0  0  0  0  0  0  0  0  0
  140.4810   75.7250  220.2810 C   0  0  1  0  0  0  0  0  0  0  0  0
  141.9000   75.5210  220.6530 C   0  0  0  0  0  0  0  0  0  0  0  0
  142.3210   74.1930  220.9150 N   0  0  0  0  0  0  0  0  0  0  0  0
  142.9740   73.4860  219.8720 C   0  0  0  0  0  0  0  0  0  0  0  0
  144.1590   74.2430  219.3540 C   0  0  0  0  0  0  0  0  0  0  0  0
  145.1330   74.4090  220.5260 C   0  0  0  0  0  0  0  0  0  0  0  0
  145.7360   73.0630  220.8580 C   0  0  0  0  0  0  0  0  0  0  0  0
  144.9490   71.9460  220.1920 C   0  0  0  0  0  0  0  0  0  0  0  0
  143.4840   72.1720  220.4840 C   0  0  0  0  0  0  0  0  0  0  0  0
  140.2130   71.1370  224.2320 C   0  0  0  0  0  0  0  0  0  0  0  0
  140.8200   71.8820  225.2400 C   0  0  0  0  0  0  0  0  0  0  0  0
  141.1440   71.3670  226.4610 C   0  0  0  0  0  0  0  0  0  0  0  0
  140.8490   70.0310  226.6980 C   0  0  0  0  0  0  0  0  0  0  0  0
  141.1730   69.5030  227.9240 C   0  0  0  0  0  0  0  0  0  0  0  0
  140.8800   68.1860  228.1520 C   0  0  0  0  0  0  0  0  0  0  0  0
  141.1800   67.6220  229.3460 F   0  0  0  0  0  0  0  0  0  0  0  0
  140.2810   67.4620  227.1510 C   0  0  0  0  0  0  0  0  0  0  0  0
  139.9570   67.9990  225.9170 C   0  0  0  0  0  0  0  0  0  0  0  0
  140.2540   69.3380  225.6810 C   0  0  0  0  0  0  0  0  0  0  0  0
  139.9410   69.8650  224.4830 N   0  0  0  0  0  0  0  0  0  0  0  0
  137.9860   72.4790  223.5010 H   0  0  0  0  0  0  0  0  0  0  0  0
  139.3545   72.7960  220.8357 H   0  0  0  0  0  0  0  0  0  0  0  0
  137.5016   72.8777  221.2065 H   0  0  0  0  0  0  0  0  0  0  0  0
  139.1254   76.8173  223.0320 H   0  0  0  0  0  0  0  0  0  0  0  0
  140.7901   76.2652  222.9558 H   0  0  0  0  0  0  0  0  0  0  0  0
  139.4877   78.5374  221.5430 H   0  0  0  0  0  0  0  0  0  0  0  0
  141.2225   78.2191  221.7105 H   0  0  0  0  0  0  0  0  0  0  0  0
  139.3326   77.4250  219.5021 H   0  0  0  0  0  0  0  0  0  0  0  0
  141.0459   77.6827  219.3770 H   0  0  0  0  0  0  0  0  0  0  0  0
  140.2989   75.0177  219.4585 H   0  0  0  0  0  0  0  0  0  0  0  0
  142.5163   75.9057  219.8270 H   0  0  0  0  0  0  0  0  0  0  0  0
  142.0183   76.0480  221.6113 H   0  0  0  0  0  0  0  0  0  0  0  0
  141.6940   73.6570  221.5250 H   0  0  0  0  0  0  0  0  0  0  0  0
  142.2731   73.3292  219.0389 H   0  0  0  0  0  0  0  0  0  0  0  0
  144.6399   73.6807  218.5400 H   0  0  0  0  0  0  0  0  0  0  0  0
  143.8552   75.2219  218.9548 H   0  0  0  0  0  0  0  0  0  0  0  0
  145.9313   75.1119  220.2456 H   0  0  0  0  0  0  0  0  0  0  0  0
  144.5971   74.8029  221.4022 H   0  0  0  0  0  0  0  0  0  0  0  0
  146.7762   73.0349  220.5014 H   0  0  0  0  0  0  0  0  0  0  0  0
  145.7037   72.9188  221.9480 H   0  0  0  0  0  0  0  0  0  0  0  0
  145.1207   71.9642  219.1056 H   0  0  0  0  0  0  0  0  0  0  0  0
  145.2703   70.9676  220.5788 H   0  0  0  0  0  0  0  0  0  0  0  0
  142.9047   71.3361  220.0649 H   0  0  0  0  0  0  0  0  0  0  0  0
  143.3593   72.2331  221.5752 H   0  0  0  0  0  0  0  0  0  0  0  0
  141.0498   72.9393  225.0416 H   0  0  0  0  0  0  0  0  0  0  0  0
  141.6227   71.9890  227.2317 H   0  0  0  0  0  0  0  0  0  0  0  0
  141.6530   70.1196  228.6982 H   0  0  0  0  0  0  0  0  0  0  0  0
  140.0472   66.4037  227.3388 H   0  0  0  0  0  0  0  0  0  0  0  0
  139.4769   67.3829  225.1425 H   0  0  0  0  0  0  0  0  0  0  0  0
  1  2  2  0
  2  3  1  0
  3  4  1  0
  4  5  1  0
  5  6  2  0
  5  7  1  0
  7  8  1  0
  8  9  1  0
  9 10  1  0
 10 11  1  0
 11 12  1  0
 12 13  1  0
 13 14  1  0
 14 15  1  0
 15 16  1  0
 16 17  1  0
 17 18  1  0
 18 19  1  0
  2 20  1  0
 20 21  2  0
 21 22  1  0
 22 23  2  0
 23 24  1  0
 24 25  2  0
 25 26  1  0
 25 27  1  0
 27 28  2  0
 28 29  1  0
 29 30  2  0
 11  7  1  0
 19 14  1  0
 30 20  1  0
 29 23  1  0
  3 31  1  0
  4 32  1  0
  4 33  1  0
  8 34  1  0
  8 35  1  0
  9 36  1  0
  9 37  1  0
 10 38  1  0
 10 39  1  0
 11 40  1  6
 12 41  1  0
 12 42  1  0
 13 43  1  0
 14 44  1  0
 15 45  1  0
 15 46  1  0
 16 47  1  0
 16 48  1  0
 17 49  1  0
 17 50  1  0
 18 51  1  0
 18 52  1  0
 19 53  1  0
 19 54  1  0
 21 55  1  0
 22 56  1  0
 24 57  1  0
 27 58  1  0
 28 59  1  0
M  END
>  <smiles>  (37) 
O=C(NCC(=O)N1CCC[C@H]1CNC1CCCCC1)c1ccc2cc(F)ccc2n1

>  <score_type>  (37) 
oracle

>  <origin>  (37) 
autodockgpu

>  <m_score__min__energy>  (37) 
-8.9399999999999995

>  <m_primary>  (37) 
energy

>  <rmsd>  (37) 
5.102698121125021

>  <m_score__min__rmsd>  (37) 
5.102698121125021

>  <meeko>  (37) 
{"free_energy": -7.4, "intermolecular_energy": -9.49, "internal_energy": -2.43, "cluster_size": 11, "cluster_id": 3, "rank_in_cluster": 8}

>  <energy>  (37) 
-7.2

>  <cluster_rmsd>  (37) 
0.0

>  <cluster>  (37) 
6

$$$$

     RDKit          3D

 59 62  0  0  0  0  0  0  0  0999 V2000
  139.9940   73.0440  222.7460 O   0  0  0  0  0  0  0  0  0  0  0  0
  140.0510   71.7720  222.8590 C   0  0  0  0  0  0  0  0  0  0  0  0
  139.9300   71.0590  221.6240 N   0  0  0  0  0  0  0  0  0  0  0  0
  139.7670   71.8040  220.4310 C   0  0  0  0  0  0  0  0  0  0  0  0
  140.9000   72.1900  219.6240 C   0  0  0  0  0  0  0  0  0  0  0  0
  141.2470   71.2750  218.7440 O   0  0  0  0  0  0  0  0  0  0  0  0
  141.6980   73.3390  219.5970 N   0  0  0  0  0  0  0  0  0  0  0  0
  142.2250   74.2000  218.5750 C   0  0  0  0  0  0  0  0  0  0  0  0
  143.6500   74.4720  219.0320 C   0  0  0  0  0  0  0  0  0  0  0  0
  143.7370   73.9630  220.4550 C   0  0  0  0  0  0  0  0  0  0  0  0
  142.2500   73.9280  220.8430 C   0  0  1  0  0  0  0  0  0  0  0  0
  141.8220   75.3230  221.0960 C   0  0  0  0  0  0  0  0  0  0  0  0
  140.5530   75.5150  221.6990 N   0  0  0  0  0  0  0  0  0  0  0  0
  139.8580   76.7190  221.4110 C   0  0  0  0  0  0  0  0  0  0  0  0
  139.7280   77.5820  222.6300 C   0  0  0  0  0  0  0  0  0  0  0  0
  141.1480   77.9280  223.0890 C   0  0  0  0  0  0  0  0  0  0  0  0
  141.7700   78.8780  222.0920 C   0  0  0  0  0  0  0  0  0  0  0  0
  140.9600   78.9100  220.8060 C   0  0  0  0  0  0  0  0  0  0  0  0
  140.7070   77.4820  220.3820 C   0  0  0  0  0  0  0  0  0  0  0  0
  140.2250   71.1140  224.1420 C   0  0  0  0  0  0  0  0  0  0  0  0
  140.7070   71.8980  225.1870 C   0  0  0  0  0  0  0  0  0  0  0  0
  140.9210   71.4180  226.4470 C   0  0  0  0  0  0  0  0  0  0  0  0
  140.6410   70.0790  226.6850 C   0  0  0  0  0  0  0  0  0  0  0  0
  140.8550   69.5880  227.9500 C   0  0  0  0  0  0  0  0  0  0  0  0
  140.5770   68.2680  228.1790 C   0  0  0  0  0  0  0  0  0  0  0  0
  140.7710   67.7380  229.4100 F   0  0  0  0  0  0  0  0  0  0  0  0
  140.1010   67.5050  227.1420 C   0  0  0  0  0  0  0  0  0  0  0  0
  139.8870   68.0060  225.8690 C   0  0  0  0  0  0  0  0  0  0  0  0
  140.1690   69.3480  225.6320 C   0  0  0  0  0  0  0  0  0  0  0  0
  139.9630   69.8400  224.3950 N   0  0  0  0  0  0  0  0  0  0  0  0
  139.9730   70.0100  221.6900 H   0  0  0  0  0  0  0  0  0  0  0  0
  139.1104   71.2082  219.7799 H   0  0  0  0  0  0  0  0  0  0  0  0
  139.4006   72.7718  220.8039 H   0  0  0  0  0  0  0  0  0  0  0  0
  142.2161   73.6981  217.5962 H   0  0  0  0  0  0  0  0  0  0  0  0
  141.6356   75.1199  218.4469 H   0  0  0  0  0  0  0  0  0  0  0  0
  144.3657   73.9370  218.3904 H   0  0  0  0  0  0  0  0  0  0  0  0
  143.8946   75.5428  218.9718 H   0  0  0  0  0  0  0  0  0  0  0  0
  144.1901   72.9616  220.4992 H   0  0  0  0  0  0  0  0  0  0  0  0
  144.3654   74.5750  221.1188 H   0  0  0  0  0  0  0  0  0  0  0  0
  141.9501   73.3724  221.7438 H   0  0  0  0  0  0  0  0  0  0  0  0
  142.5734   75.7851  221.7532 H   0  0  0  0  0  0  0  0  0  0  0  0
  141.7316   75.7760  220.0977 H   0  0  0  0  0  0  0  0  0  0  0  0
  140.4680   75.1400  222.6490 H   0  0  0  0  0  0  0  0  0  0  0  0
  138.8482   76.4821  221.0448 H   0  0  0  0  0  0  0  0  0  0  0  0
  139.1760   78.5013  222.3846 H   0  0  0  0  0  0  0  0  0  0  0  0
  139.1761   77.0580  223.4242 H   0  0  0  0  0  0  0  0  0  0  0  0
  141.1093   78.4059  224.0790 H   0  0  0  0  0  0  0  0  0  0  0  0
  141.7513   77.0105  223.1541 H   0  0  0  0  0  0  0  0  0  0  0  0
  141.7999   79.8885  222.5256 H   0  0  0  0  0  0  0  0  0  0  0  0
  142.7885   78.5327  221.8610 H   0  0  0  0  0  0  0  0  0  0  0  0
  140.0029   79.4237  220.9796 H   0  0  0  0  0  0  0  0  0  0  0  0
  141.5079   79.4519  220.0210 H   0  0  0  0  0  0  0  0  0  0  0  0
  140.1778   77.4861  219.4177 H   0  0  0  0  0  0  0  0  0  0  0  0
  141.6793   76.9742  220.2995 H   0  0  0  0  0  0  0  0  0  0  0  0
  140.9263   72.9572  224.9872 H   0  0  0  0  0  0  0  0  0  0  0  0
  141.3024   72.0700  227.2467 H   0  0  0  0  0  0  0  0  0  0  0  0
  141.2375   70.2352  228.7530 H   0  0  0  0  0  0  0  0  0  0  0  0
  139.8788   66.4444  227.3314 H   0  0  0  0  0  0  0  0  0  0  0  0
  139.5038   67.3597  225.0656 H   0  0  0  0  0  0  0  0  0  0  0  0
  1  2  2  0
  2  3  1  0
  3  4  1  0
  4  5  1  0
  5  6  2  0
  5  7  1  0
  7  8  1  0
  8  9  1  0
  9 10  1  0
 10 11  1  0
 11 12  1  0
 12 13  1  0
 13 14  1  0
 14 15  1  0
 15 16  1  0
 16 17  1  0
 17 18  1  0
 18 19  1  0
  2 20  1  0
 20 21  2  0
 21 22  1  0
 22 23  2  0
 23 24  1  0
 24 25  2  0
 25 26  1  0
 25 27  1  0
 27 28  2  0
 28 29  1  0
 29 30  2  0
 11  7  1  0
 19 14  1  0
 30 20  1  0
 29 23  1  0
  3 31  1  0
  4 32  1  0
  4 33  1  0
  8 34  1  0
  8 35  1  0
  9 36  1  0
  9 37  1  0
 10 38  1  0
 10 39  1  0
 11 40  1  1
 12 41  1  0
 12 42  1  0
 13 43  1  0
 14 44  1  0
 15 45  1  0
 15 46  1  0
 16 47  1  0
 16 48  1  0
 17 49  1  0
 17 50  1  0
 18 51  1  0
 18 52  1  0
 19 53  1  0
 19 54  1  0
 21 55  1  0
 22 56  1  0
 24 57  1  0
 27 58  1  0
 28 59  1  0
M  END
>  <smiles>  (38) 
O=C(NCC(=O)N1CCC[C@H]1CNC1CCCCC1)c1ccc2cc(F)ccc2n1

>  <score_type>  (38) 
oracle

>  <origin>  (38) 
autodockgpu

>  <m_score__min__energy>  (38) 
-8.9399999999999995

>  <m_primary>  (38) 
energy

>  <rmsd>  (38) 
3.7309638274104953

>  <m_score__min__rmsd>  (38) 
3.7309638274104953

>  <meeko>  (38) 
{"free_energy": -7.24, "intermolecular_energy": -9.33, "internal_energy": -2.6, "cluster_size": 1, "cluster_id": 5, "rank_in_cluster": 1}

>  <energy>  (38) 
-6.7

>  <cluster_rmsd>  (38) 
0.0

>  <cluster>  (38) 
7

$$$$

     RDKit          3D

 59 62  0  0  0  0  0  0  0  0999 V2000
  140.5750   78.1440  218.6000 O   0  0  0  0  0  0  0  0  0  0  0  0
  141.8290   77.9530  218.7610 C   0  0  0  0  0  0  0  0  0  0  0  0
  142.6090   79.1500  218.8310 N   0  0  0  0  0  0  0  0  0  0  0  0
  141.9420   80.3940  218.7210 C   0  0  0  0  0  0  0  0  0  0  0  0
  141.5130   81.1240  219.8910 C   0  0  0  0  0  0  0  0  0  0  0  0
  141.1380   82.3570  219.6250 O   0  0  0  0  0  0  0  0  0  0  0  0
  141.4210   80.7790  221.2430 N   0  0  0  0  0  0  0  0  0  0  0  0
  140.7100   81.2810  222.3860 C   0  0  0  0  0  0  0  0  0  0  0  0
  141.7390   81.2270  223.5040 C   0  0  0  0  0  0  0  0  0  0  0  0
  142.8990   80.4150  222.9660 C   0  0  0  0  0  0  0  0  0  0  0  0
  142.2170   79.6620  221.8130 C   0  0  1  0  0  0  0  0  0  0  0  0
  141.4010   78.5790  222.4080 C   0  0  0  0  0  0  0  0  0  0  0  0
  141.4200   77.3180  221.7600 N   0  0  0  0  0  0  0  0  0  0  0  0
  140.6410   76.2730  222.3210 C   0  0  0  0  0  0  0  0  0  0  0  0
  139.1740   76.5340  222.1570 C   0  0  0  0  0  0  0  0  0  0  0  0
  138.8960   76.6060  220.6520 C   0  0  0  0  0  0  0  0  0  0  0  0
  139.0410   75.2240  220.0580 C   0  0  0  0  0  0  0  0  0  0  0  0
  139.7440   74.2940  221.0330 C   0  0  0  0  0  0  0  0  0  0  0  0
  140.9840   74.9980  221.5350 C   0  0  0  0  0  0  0  0  0  0  0  0
  142.4040   76.6230  218.8640 C   0  0  0  0  0  0  0  0  0  0  0  0
  141.8430   75.6340  218.0600 C   0  0  0  0  0  0  0  0  0  0  0  0
  142.2770   74.3400  218.0500 C   0  0  0  0  0  0  0  0  0  0  0  0
  143.3320   74.0060  218.8890 C   0  0  0  0  0  0  0  0  0  0  0  0
  143.7740   72.7060  218.8860 C   0  0  0  0  0  0  0  0  0  0  0  0
  144.8140   72.3810  219.7140 C   0  0  0  0  0  0  0  0  0  0  0  0
  145.2850   71.1120  219.7450 F   0  0  0  0  0  0  0  0  0  0  0  0
  145.3590   73.3640  220.5020 C   0  0  0  0  0  0  0  0  0  0  0  0
  144.9090   74.6730  220.5010 C   0  0  0  0  0  0  0  0  0  0  0  0
  143.8520   75.0070  219.6600 C   0  0  0  0  0  0  0  0  0  0  0  0
  143.4100   76.2790  219.6550 N   0  0  0  0  0  0  0  0  0  0  0  0
  143.6450   79.0200  218.9620 H   0  0  0  0  0  0  0  0  0  0  0  0
  142.6194   81.0621  218.1689 H   0  0  0  0  0  0  0  0  0  0  0  0
  140.9870   80.1109  218.2544 H   0  0  0  0  0  0  0  0  0  0  0  0
  140.3711   82.3133  222.2146 H   0  0  0  0  0  0  0  0  0  0  0  0
  139.8038   80.7001  222.6128 H   0  0  0  0  0  0  0  0  0  0  0  0
  142.0722   82.2421  223.7660 H   0  0  0  0  0  0  0  0  0  0  0  0
  141.3200   80.7755  224.4154 H   0  0  0  0  0  0  0  0  0  0  0  0
  143.7110   81.0618  222.6022 H   0  0  0  0  0  0  0  0  0  0  0  0
  143.3824   79.7649  223.7102 H   0  0  0  0  0  0  0  0  0  0  0  0
  142.8461   79.1625  221.0615 H   0  0  0  0  0  0  0  0  0  0  0  0
  141.7556   78.4263  223.4380 H   0  0  0  0  0  0  0  0  0  0  0  0
  140.3615   78.9270  222.3171 H   0  0  0  0  0  0  0  0  0  0  0  0
  142.3230   77.0610  221.3480 H   0  0  0  0  0  0  0  0  0  0  0  0
  140.8593   76.1876  223.3957 H   0  0  0  0  0  0  0  0  0  0  0  0
  138.5923   75.7175  222.6097 H   0  0  0  0  0  0  0  0  0  0  0  0
  138.8846   77.4715  222.6544 H   0  0  0  0  0  0  0  0  0  0  0  0
  137.8734   76.9745  220.4831 H   0  0  0  0  0  0  0  0  0  0  0  0
  139.6107   77.2925  220.1746 H   0  0  0  0  0  0  0  0  0  0  0  0
  138.0428   74.8217  219.8304 H   0  0  0  0  0  0  0  0  0  0  0  0
  139.6415   75.2941  219.1390 H   0  0  0  0  0  0  0  0  0  0  0  0
  139.0772   74.0642  221.8771 H   0  0  0  0  0  0  0  0  0  0  0  0
  140.0139   73.3506  220.5358 H   0  0  0  0  0  0  0  0  0  0  0  0
  141.5397   74.3135  222.1928 H   0  0  0  0  0  0  0  0  0  0  0  0
  141.5881   75.2877  220.6626 H   0  0  0  0  0  0  0  0  0  0  0  0
  141.0077   75.9097  217.3995 H   0  0  0  0  0  0  0  0  0  0  0  0
  141.8072   73.5875  217.3997 H   0  0  0  0  0  0  0  0  0  0  0  0
  143.3068   71.9495  218.2384 H   0  0  0  0  0  0  0  0  0  0  0  0
  146.1942   73.0985  221.1668 H   0  0  0  0  0  0  0  0  0  0  0  0
  145.3752   75.4301  221.1487 H   0  0  0  0  0  0  0  0  0  0  0  0
  1  2  2  0
  2  3  1  0
  3  4  1  0
  4  5  1  0
  5  6  2  0
  5  7  1  0
  7  8  1  0
  8  9  1  0
  9 10  1  0
 10 11  1  0
 11 12  1  0
 12 13  1  0
 13 14  1  0
 14 15  1  0
 15 16  1  0
 16 17  1  0
 17 18  1  0
 18 19  1  0
  2 20  1  0
 20 21  2  0
 21 22  1  0
 22 23  2  0
 23 24  1  0
 24 25  2  0
 25 26  1  0
 25 27  1  0
 27 28  2  0
 28 29  1  0
 29 30  2  0
 11  7  1  0
 19 14  1  0
 30 20  1  0
 29 23  1  0
  3 31  1  0
  4 32  1  0
  4 33  1  0
  8 34  1  0
  8 35  1  0
  9 36  1  0
  9 37  1  0
 10 38  1  0
 10 39  1  0
 11 40  1  6
 12 41  1  0
 12 42  1  0
 13 43  1  0
 14 44  1  0
 15 45  1  0
 15 46  1  0
 16 47  1  0
 16 48  1  0
 17 49  1  0
 17 50  1  0
 18 51  1  0
 18 52  1  0
 19 53  1  0
 19 54  1  0
 21 55  1  0
 22 56  1  0
 24 57  1  0
 27 58  1  0
 28 59  1  0
M  END
>  <smiles>  (39) 
O=C(NCC(=O)N1CCC[C@H]1CNC1CCCCC1)c1ccc2cc(F)ccc2n1

>  <score_type>  (39) 
oracle

>  <origin>  (39) 
autodockgpu

>  <m_score__min__energy>  (39) 
-8.9399999999999995

>  <m_primary>  (39) 
energy

>  <rmsd>  (39) 
7.485589083479563

>  <m_score__min__rmsd>  (39) 
7.485589083479563

>  <meeko>  (39) 
{"free_energy": -6.24, "intermolecular_energy": -8.33, "internal_energy": -3.79, "cluster_size": 10, "cluster_id": 7, "rank_in_cluster": 7}

>  <energy>  (39) 
-6.56

>  <cluster_rmsd>  (39) 
0.19

>  <cluster>  (39) 
7

$$$$

     RDKit          3D

 59 62  0  0  0  0  0  0  0  0999 V2000
  140.9990   71.9710  221.7800 O   0  0  0  0  0  0  0  0  0  0  0  0
  140.0600   72.0250  222.6460 C   0  0  0  0  0  0  0  0  0  0  0  0
  139.0200   72.9600  222.3400 N   0  0  0  0  0  0  0  0  0  0  0  0
  139.1230   73.7120  221.1440 C   0  0  0  0  0  0  0  0  0  0  0  0
  140.0320   74.8290  221.0340 C   0  0  0  0  0  0  0  0  0  0  0  0
  141.2250   74.4870  220.5970 O   0  0  0  0  0  0  0  0  0  0  0  0
  139.8910   76.1950  221.3030 N   0  0  0  0  0  0  0  0  0  0  0  0
  138.7990   77.1270  221.3420 C   0  0  0  0  0  0  0  0  0  0  0  0
  139.3610   78.3690  220.6670 C   0  0  0  0  0  0  0  0  0  0  0  0
  140.8530   78.1410  220.5470 C   0  0  0  0  0  0  0  0  0  0  0  0
  141.0670   77.0490  221.6070 C   0  0  1  0  0  0  0  0  0  0  0  0
  141.0140   77.7010  222.9360 C   0  0  0  0  0  0  0  0  0  0  0  0
  142.0770   78.5740  223.2760 N   0  0  0  0  0  0  0  0  0  0  0  0
  141.7450   79.8460  223.8120 C   0  0  0  0  0  0  0  0  0  0  0  0
  142.5450   80.9380  223.1690 C   0  0  0  0  0  0  0  0  0  0  0  0
  142.2020   80.9250  221.6750 C   0  0  0  0  0  0  0  0  0  0  0  0
  140.7850   81.4180  221.4920 C   0  0  0  0  0  0  0  0  0  0  0  0
  140.0460   81.4290  222.8200 C   0  0  0  0  0  0  0  0  0  0  0  0
  140.2640   80.0890  223.4830 C   0  0  0  0  0  0  0  0  0  0  0  0
  140.0580   71.2000  223.8420 C   0  0  0  0  0  0  0  0  0  0  0  0
  139.4910   69.9330  223.7270 C   0  0  0  0  0  0  0  0  0  0  0  0
  139.4180   69.0490  224.7640 C   0  0  0  0  0  0  0  0  0  0  0  0
  139.9380   69.4440  225.9890 C   0  0  0  0  0  0  0  0  0  0  0  0
  139.8670   68.5600  227.0380 C   0  0  0  0  0  0  0  0  0  0  0  0
  140.3800   68.9550  228.2440 C   0  0  0  0  0  0  0  0  0  0  0  0
  140.3340   68.1170  229.3060 F   0  0  0  0  0  0  0  0  0  0  0  0
  140.9370   70.2050  228.3440 C   0  0  0  0  0  0  0  0  0  0  0  0
  141.0050   71.0920  227.2840 C   0  0  0  0  0  0  0  0  0  0  0  0
  140.4840   70.6950  226.0560 C   0  0  0  0  0  0  0  0  0  0  0  0
  140.5480   71.5530  225.0210 N   0  0  0  0  0  0  0  0  0  0  0  0
  138.2360   73.0250  223.0380 H   0  0  0  0  0  0  0  0  0  0  0  0
  139.4063   73.0015  220.3534 H   0  0  0  0  0  0  0  0  0  0  0  0
  138.1388   74.1996  221.0842 H   0  0  0  0  0  0  0  0  0  0  0  0
  137.9315   76.7383  220.7885 H   0  0  0  0  0  0  0  0  0  0  0  0
  138.4411   77.3220  222.3637 H   0  0  0  0  0  0  0  0  0  0  0  0
  138.9129   78.4982  219.6708 H   0  0  0  0  0  0  0  0  0  0  0  0
  139.1379   79.2775  221.2457 H   0  0  0  0  0  0  0  0  0  0  0  0
  141.1286   77.7885  219.5421 H   0  0  0  0  0  0  0  0  0  0  0  0
  141.4638   79.0438  220.6952 H   0  0  0  0  0  0  0  0  0  0  0  0
  142.0122   76.4864  221.6043 H   0  0  0  0  0  0  0  0  0  0  0  0
  140.0816   78.2829  222.9813 H   0  0  0  0  0  0  0  0  0  0  0  0
  141.0863   76.8745  223.6583 H   0  0  0  0  0  0  0  0  0  0  0  0
  142.8890   78.5260  222.6510 H   0  0  0  0  0  0  0  0  0  0  0  0
  141.9527   79.8557  224.8922 H   0  0  0  0  0  0  0  0  0  0  0  0
  142.2790   81.9104  223.6092 H   0  0  0  0  0  0  0  0  0  0  0  0
  143.6222   80.7797  223.3257 H   0  0  0  0  0  0  0  0  0  0  0  0
  142.8950   81.5841  221.1316 H   0  0  0  0  0  0  0  0  0  0  0  0
  142.2937   79.9020  221.2812 H   0  0  0  0  0  0  0  0  0  0  0  0
  140.8075   82.4387  221.0825 H   0  0  0  0  0  0  0  0  0  0  0  0
  140.2611   80.7417  220.8005 H   0  0  0  0  0  0  0  0  0  0  0  0
  140.4402   82.2316  223.4606 H   0  0  0  0  0  0  0  0  0  0  0  0
  138.9725   81.6076  222.6600 H   0  0  0  0  0  0  0  0  0  0  0  0
  139.6824   80.0552  224.4160 H   0  0  0  0  0  0  0  0  0  0  0  0
  139.9376   79.3056  222.7832 H   0  0  0  0  0  0  0  0  0  0  0  0
  139.0818   69.6300  222.7520 H   0  0  0  0  0  0  0  0  0  0  0  0
  138.9622   68.0564  224.6336 H   0  0  0  0  0  0  0  0  0  0  0  0
  139.4123   67.5662  226.9128 H   0  0  0  0  0  0  0  0  0  0  0  0
  141.3498   70.5174  229.3146 H   0  0  0  0  0  0  0  0  0  0  0  0
  141.4595   72.0859  227.4088 H   0  0  0  0  0  0  0  0  0  0  0  0
  1  2  2  0
  2  3  1  0
  3  4  1  0
  4  5  1  0
  5  6  2  0
  5  7  1  0
  7  8  1  0
  8  9  1  0
  9 10  1  0
 10 11  1  0
 11 12  1  0
 12 13  1  0
 13 14  1  0
 14 15  1  0
 15 16  1  0
 16 17  1  0
 17 18  1  0
 18 19  1  0
  2 20  1  0
 20 21  2  0
 21 22  1  0
 22 23  2  0
 23 24  1  0
 24 25  2  0
 25 26  1  0
 25 27  1  0
 27 28  2  0
 28 29  1  0
 29 30  2  0
 11  7  1  0
 19 14  1  0
 30 20  1  0
 29 23  1  0
  3 31  1  0
  4 32  1  0
  4 33  1  0
  8 34  1  0
  8 35  1  0
  9 36  1  0
  9 37  1  0
 10 38  1  0
 10 39  1  0
 11 40  1  6
 12 41  1  0
 12 42  1  0
 13 43  1  0
 14 44  1  0
 15 45  1  0
 15 46  1  0
 16 47  1  0
 16 48  1  0
 17 49  1  0
 17 50  1  0
 18 51  1  0
 18 52  1  0
 19 53  1  0
 19 54  1  0
 21 55  1  0
 22 56  1  0
 24 57  1  0
 27 58  1  0
 28 59  1  0
M  END
>  <smiles>  (40) 
O=C(NCC(=O)N1CCC[C@H]1CNC1CCCCC1)c1ccc2cc(F)ccc2n1

>  <score_type>  (40) 
oracle

>  <origin>  (40) 
autodockgpu

>  <m_score__min__energy>  (40) 
-8.9399999999999995

>  <m_primary>  (40) 
energy

>  <rmsd>  (40) 
2.0187343881865236

>  <m_score__min__rmsd>  (40) 
2.0187343881865236

>  <meeko>  (40) 
{"free_energy": -8.71, "intermolecular_energy": -10.8, "internal_energy": -1.56, "cluster_size": 22, "cluster_id": 1, "rank_in_cluster": 7}

>  <energy>  (40) 
-6.52

>  <cluster_rmsd>  (40) 
0.28

>  <cluster>  (40) 
7

$$$$

     RDKit          3D

 59 62  0  0  0  0  0  0  0  0999 V2000
  140.7370   77.3510  218.9340 O   0  0  0  0  0  0  0  0  0  0  0  0
  142.0150   77.3440  218.9450 C   0  0  0  0  0  0  0  0  0  0  0  0
  142.6170   78.6420  218.9370 N   0  0  0  0  0  0  0  0  0  0  0  0
  141.7690   79.7760  218.9210 C   0  0  0  0  0  0  0  0  0  0  0  0
  141.2560   80.3490  220.1430 C   0  0  0  0  0  0  0  0  0  0  0  0
  141.1940   81.6630  220.1150 O   0  0  0  0  0  0  0  0  0  0  0  0
  140.8170   79.7820  221.3450 N   0  0  0  0  0  0  0  0  0  0  0  0
  139.7640   80.0530  222.2840 C   0  0  0  0  0  0  0  0  0  0  0  0
  140.4320   79.8710  223.6370 C   0  0  0  0  0  0  0  0  0  0  0  0
  141.7710   79.2190  223.3590 C   0  0  0  0  0  0  0  0  0  0  0  0
  141.5220   78.6310  221.9610 C   0  0  1  0  0  0  0  0  0  0  0  0
  140.6800   77.4230  222.1280 C   0  0  0  0  0  0  0  0  0  0  0  0
  141.1740   76.2060  221.5960 N   0  0  0  0  0  0  0  0  0  0  0  0
  140.5140   75.0050  221.9650 C   0  0  0  0  0  0  0  0  0  0  0  0
  139.1180   74.9570  221.4210 C   0  0  0  0  0  0  0  0  0  0  0  0
  139.2300   75.0120  219.8930 C   0  0  0  0  0  0  0  0  0  0  0  0
  139.8100   73.7080  219.3960 C   0  0  0  0  0  0  0  0  0  0  0  0
  140.4160   72.9190  220.5440 C   0  0  0  0  0  0  0  0  0  0  0  0
  141.3080   73.8530  221.3290 C   0  0  0  0  0  0  0  0  0  0  0  0
  142.7850   76.1120  218.9630 C   0  0  0  0  0  0  0  0  0  0  0  0
  142.6140   75.2520  217.8810 C   0  0  0  0  0  0  0  0  0  0  0  0
  143.2680   74.0600  217.7610 C   0  0  0  0  0  0  0  0  0  0  0  0
  144.1450   73.6990  218.7760 C   0  0  0  0  0  0  0  0  0  0  0  0
  144.8060   72.5000  218.6640 C   0  0  0  0  0  0  0  0  0  0  0  0
  145.6690   72.1490  219.6660 C   0  0  0  0  0  0  0  0  0  0  0  0
  146.3440   70.9770  219.5990 F   0  0  0  0  0  0  0  0  0  0  0  0
  145.8290   73.0050  220.7270 C   0  0  0  0  0  0  0  0  0  0  0  0
  145.1600   74.2120  220.8350 C   0  0  0  0  0  0  0  0  0  0  0  0
  144.2820   74.5730  219.8180 C   0  0  0  0  0  0  0  0  0  0  0  0
  143.6270   75.7450  219.9170 N   0  0  0  0  0  0  0  0  0  0  0  0
  143.6680   78.6650  218.9440 H   0  0  0  0  0  0  0  0  0  0  0  0
  142.3288   80.5756  218.4138 H   0  0  0  0  0  0  0  0  0  0  0  0
  140.8592   79.3855  218.4415 H   0  0  0  0  0  0  0  0  0  0  0  0
  139.3888   81.0804  222.1668 H   0  0  0  0  0  0  0  0  0  0  0  0
  138.8918   79.3967  222.1475 H   0  0  0  0  0  0  0  0  0  0  0  0
  140.5760   80.8457  224.1261 H   0  0  0  0  0  0  0  0  0  0  0  0
  139.8168   79.2555  224.3098 H   0  0  0  0  0  0  0  0  0  0  0  0
  142.5861   79.9576  223.3479 H   0  0  0  0  0  0  0  0  0  0  0  0
  142.0834   78.4819  224.1134 H   0  0  0  0  0  0  0  0  0  0  0  0
  142.3846   78.2951  221.3668 H   0  0  0  0  0  0  0  0  0  0  0  0
  140.5273   77.2737  223.2071 H   0  0  0  0  0  0  0  0  0  0  0  0
  139.7679   77.6333  221.5502 H   0  0  0  0  0  0  0  0  0  0  0  0
  142.1930   76.1670  221.4880 H   0  0  0  0  0  0  0  0  0  0  0  0
  140.4607   74.9366  223.0616 H   0  0  0  0  0  0  0  0  0  0  0  0
  138.6240   74.0241  221.7302 H   0  0  0  0  0  0  0  0  0  0  0  0
  138.5195   75.7980  221.8012 H   0  0  0  0  0  0  0  0  0  0  0  0
  138.2323   75.1628  219.4551 H   0  0  0  0  0  0  0  0  0  0  0  0
  139.8832   75.8463  219.5976 H   0  0  0  0  0  0  0  0  0  0  0  0
  139.0117   73.1120  218.9297 H   0  0  0  0  0  0  0  0  0  0  0  0
  140.5993   73.9283  218.6622 H   0  0  0  0  0  0  0  0  0  0  0  0
  139.6175   72.5308  221.1934 H   0  0  0  0  0  0  0  0  0  0  0  0
  140.9964   72.0673  220.1596 H   0  0  0  0  0  0  0  0  0  0  0  0
  141.8065   73.2821  222.1262 H   0  0  0  0  0  0  0  0  0  0  0  0
  142.0415   74.2877  220.6341 H   0  0  0  0  0  0  0  0  0  0  0  0
  141.9170   75.5482  217.0832 H   0  0  0  0  0  0  0  0  0  0  0  0
  143.1061   73.4075  216.8903 H   0  0  0  0  0  0  0  0  0  0  0  0
  144.6465   71.8430  217.7963 H   0  0  0  0  0  0  0  0  0  0  0  0
  146.5228   72.7178  221.5308 H   0  0  0  0  0  0  0  0  0  0  0  0
  145.3186   74.8690  221.7029 H   0  0  0  0  0  0  0  0  0  0  0  0
  1  2  2  0
  2  3  1  0
  3  4  1  0
  4  5  1  0
  5  6  2  0
  5  7  1  0
  7  8  1  0
  8  9  1  0
  9 10  1  0
 10 11  1  0
 11 12  1  0
 12 13  1  0
 13 14  1  0
 14 15  1  0
 15 16  1  0
 16 17  1  0
 17 18  1  0
 18 19  1  0
  2 20  1  0
 20 21  2  0
 21 22  1  0
 22 23  2  0
 23 24  1  0
 24 25  2  0
 25 26  1  0
 25 27  1  0
 27 28  2  0
 28 29  1  0
 29 30  2  0
 11  7  1  0
 19 14  1  0
 30 20  1  0
 29 23  1  0
  3 31  1  0
  4 32  1  0
  4 33  1  0
  8 34  1  0
  8 35  1  0
  9 36  1  0
  9 37  1  0
 10 38  1  0
 10 39  1  0
 11 40  1  6
 12 41  1  0
 12 42  1  0
 13 43  1  0
 14 44  1  0
 15 45  1  0
 15 46  1  0
 16 47  1  0
 16 48  1  0
 17 49  1  0
 17 50  1  0
 18 51  1  0
 18 52  1  0
 19 53  1  0
 19 54  1  0
 21 55  1  0
 22 56  1  0
 24 57  1  0
 27 58  1  0
 28 59  1  0
M  END
>  <smiles>  (41) 
O=C(NCC(=O)N1CCC[C@H]1CNC1CCCCC1)c1ccc2cc(F)ccc2n1

>  <score_type>  (41) 
oracle

>  <origin>  (41) 
autodockgpu

>  <m_score__min__energy>  (41) 
-8.9399999999999995

>  <m_primary>  (41) 
energy

>  <rmsd>  (41) 
7.52230403935525

>  <m_score__min__rmsd>  (41) 
7.52230403935525

>  <meeko>  (41) 
{"free_energy": -6.11, "intermolecular_energy": -8.2, "internal_energy": -3.71, "cluster_size": 10, "cluster_id": 7, "rank_in_cluster": 9}

>  <energy>  (41) 
-6.44

>  <cluster_rmsd>  (41) 
0.26

>  <cluster>  (41) 
7

$$$$

     RDKit          3D

 59 62  0  0  0  0  0  0  0  0999 V2000
  141.0120   73.0230  222.3130 O   0  0  0  0  0  0  0  0  0  0  0  0
  139.9740   72.5630  222.9000 C   0  0  0  0  0  0  0  0  0  0  0  0
  138.7330   73.0750  222.4040 N   0  0  0  0  0  0  0  0  0  0  0  0
  138.7690   74.0110  221.3420 C   0  0  0  0  0  0  0  0  0  0  0  0
  138.9720   75.4200  221.5880 C   0  0  0  0  0  0  0  0  0  0  0  0
  137.8760   76.0440  221.9650 O   0  0  0  0  0  0  0  0  0  0  0  0
  140.0980   76.2450  221.5010 N   0  0  0  0  0  0  0  0  0  0  0  0
  140.8350   77.0750  222.4130 C   0  0  0  0  0  0  0  0  0  0  0  0
  141.1310   78.3270  221.6020 C   0  0  0  0  0  0  0  0  0  0  0  0
  140.7770   77.9900  220.1680 C   0  0  0  0  0  0  0  0  0  0  0  0
  140.8080   76.4550  220.2140 C   0  0  1  0  0  0  0  0  0  0  0  0
  142.2290   76.0370  220.2310 C   0  0  0  0  0  0  0  0  0  0  0  0
  142.5170   74.7270  220.6900 N   0  0  0  0  0  0  0  0  0  0  0  0
  143.0050   73.7860  219.7450 C   0  0  0  0  0  0  0  0  0  0  0  0
  144.3760   74.1550  219.2620 C   0  0  0  0  0  0  0  0  0  0  0  0
  145.2980   74.1520  220.4860 C   0  0  0  0  0  0  0  0  0  0  0  0
  145.4970   72.7270  220.9490 C   0  0  0  0  0  0  0  0  0  0  0  0
  144.4710   71.8080  220.3060 C   0  0  0  0  0  0  0  0  0  0  0  0
  143.1090   72.4400  220.4780 C   0  0  0  0  0  0  0  0  0  0  0  0
  140.0580   71.5980  223.9830 C   0  0  0  0  0  0  0  0  0  0  0  0
  139.5970   70.3120  223.7130 C   0  0  0  0  0  0  0  0  0  0  0  0
  139.6120   69.3020  224.6310 C   0  0  0  0  0  0  0  0  0  0  0  0
  140.1150   69.5840  225.8940 C   0  0  0  0  0  0  0  0  0  0  0  0
  140.1320   68.5740  226.8240 C   0  0  0  0  0  0  0  0  0  0  0  0
  140.6290   68.8570  228.0680 C   0  0  0  0  0  0  0  0  0  0  0  0
  140.6670   67.8930  229.0170 F   0  0  0  0  0  0  0  0  0  0  0  0
  141.0810   70.1280  228.3220 C   0  0  0  0  0  0  0  0  0  0  0  0
  141.0610   71.1420  227.3800 C   0  0  0  0  0  0  0  0  0  0  0  0
  140.5560   70.8580  226.1150 C   0  0  0  0  0  0  0  0  0  0  0  0
  140.5340   71.8410  225.1950 N   0  0  0  0  0  0  0  0  0  0  0  0
  137.8640   72.7130  222.8720 H   0  0  0  0  0  0  0  0  0  0  0  0
  139.5822   73.6917  220.6735 H   0  0  0  0  0  0  0  0  0  0  0  0
  137.7363   73.9819  220.9642 H   0  0  0  0  0  0  0  0  0  0  0  0
  140.2307   77.3159  223.3000 H   0  0  0  0  0  0  0  0  0  0  0  0
  141.7453   76.5877  222.7924 H   0  0  0  0  0  0  0  0  0  0  0  0
  140.5180   79.1675  221.9594 H   0  0  0  0  0  0  0  0  0  0  0  0
  142.1848   78.6281  221.6964 H   0  0  0  0  0  0  0  0  0  0  0  0
  139.7791   78.3664  219.8987 H   0  0  0  0  0  0  0  0  0  0  0  0
  141.4468   78.4357  219.4179 H   0  0  0  0  0  0  0  0  0  0  0  0
  140.3569   75.8916  219.3839 H   0  0  0  0  0  0  0  0  0  0  0  0
  142.6092   76.1173  219.2019 H   0  0  0  0  0  0  0  0  0  0  0  0
  142.7103   76.7038  220.9616 H   0  0  0  0  0  0  0  0  0  0  0  0
  141.8830   74.3770  221.4160 H   0  0  0  0  0  0  0  0  0  0  0  0
  142.3300   73.7517  218.8771 H   0  0  0  0  0  0  0  0  0  0  0  0
  144.7268   73.4196  218.5230 H   0  0  0  0  0  0  0  0  0  0  0  0
  144.3691   75.1428  218.7781 H   0  0  0  0  0  0  0  0  0  0  0  0
  146.2698   74.5913  220.2167 H   0  0  0  0  0  0  0  0  0  0  0  0
  144.8449   74.7453  221.2939 H   0  0  0  0  0  0  0  0  0  0  0  0
  146.5071   72.3935  220.6689 H   0  0  0  0  0  0  0  0  0  0  0  0
  145.3730   72.6882  222.0413 H   0  0  0  0  0  0  0  0  0  0  0  0
  144.6951   71.6884  219.2357 H   0  0  0  0  0  0  0  0  0  0  0  0
  144.4955   70.8155  220.7796 H   0  0  0  0  0  0  0  0  0  0  0  0
  142.3465   71.7565  220.0762 H   0  0  0  0  0  0  0  0  0  0  0  0
  142.9515   72.6233  221.5511 H   0  0  0  0  0  0  0  0  0  0  0  0
  139.2007   70.0994  222.7091 H   0  0  0  0  0  0  0  0  0  0  0  0
  139.2383   68.2987  224.3787 H   0  0  0  0  0  0  0  0  0  0  0  0
  139.7582   67.5693  226.5774 H   0  0  0  0  0  0  0  0  0  0  0  0
  141.4785   70.3516  229.3230 H   0  0  0  0  0  0  0  0  0  0  0  0
  141.4349   72.1470  227.6253 H   0  0  0  0  0  0  0  0  0  0  0  0
  1  2  2  0
  2  3  1  0
  3  4  1  0
  4  5  1  0
  5  6  2  0
  5  7  1  0
  7  8  1  0
  8  9  1  0
  9 10  1  0
 10 11  1  0
 11 12  1  0
 12 13  1  0
 13 14  1  0
 14 15  1  0
 15 16  1  0
 16 17  1  0
 17 18  1  0
 18 19  1  0
  2 20  1  0
 20 21  2  0
 21 22  1  0
 22 23  2  0
 23 24  1  0
 24 25  2  0
 25 26  1  0
 25 27  1  0
 27 28  2  0
 28 29  1  0
 29 30  2  0
 11  7  1  0
 19 14  1  0
 30 20  1  0
 29 23  1  0
  3 31  1  0
  4 32  1  0
  4 33  1  0
  8 34  1  0
  8 35  1  0
  9 36  1  0
  9 37  1  0
 10 38  1  0
 10 39  1  0
 11 40  1  6
 12 41  1  0
 12 42  1  0
 13 43  1  0
 14 44  1  0
 15 45  1  0
 15 46  1  0
 16 47  1  0
 16 48  1  0
 17 49  1  0
 17 50  1  0
 18 51  1  0
 18 52  1  0
 19 53  1  0
 19 54  1  0
 21 55  1  0
 22 56  1  0
 24 57  1  0
 27 58  1  0
 28 59  1  0
M  END
>  <smiles>  (42) 
O=C(NCC(=O)N1CCC[C@H]1CNC1CCCCC1)c1ccc2cc(F)ccc2n1

>  <score_type>  (42) 
oracle

>  <origin>  (42) 
autodockgpu

>  <m_score__min__energy>  (42) 
-8.9399999999999995

>  <m_primary>  (42) 
energy

>  <rmsd>  (42) 
4.783858409142159

>  <m_score__min__rmsd>  (42) 
4.783858409142159

>  <meeko>  (42) 
{"free_energy": -7.82, "intermolecular_energy": -9.91, "internal_energy": -2.49, "cluster_size": 11, "cluster_id": 3, "rank_in_cluster": 3}

>  <energy>  (42) 
-6.42

>  <cluster_rmsd>  (42) 
0.27

>  <cluster>  (42) 
7

$$$$

     RDKit          3D

 59 62  0  0  0  0  0  0  0  0999 V2000
  140.9100   71.8560  221.7360 O   0  0  0  0  0  0  0  0  0  0  0  0
  140.0070   71.9320  222.6380 C   0  0  0  0  0  0  0  0  0  0  0  0
  138.9690   72.8780  222.3630 N   0  0  0  0  0  0  0  0  0  0  0  0
  139.0350   73.6160  221.1560 C   0  0  0  0  0  0  0  0  0  0  0  0
  139.8170   74.8260  221.0560 C   0  0  0  0  0  0  0  0  0  0  0  0
  140.9070   74.6820  220.3330 O   0  0  0  0  0  0  0  0  0  0  0  0
  139.6430   76.1130  221.5770 N   0  0  0  0  0  0  0  0  0  0  0  0
  138.5370   76.8730  222.0890 C   0  0  0  0  0  0  0  0  0  0  0  0
  138.7450   78.2580  221.4960 C   0  0  0  0  0  0  0  0  0  0  0  0
  140.1400   78.2550  220.9070 C   0  0  0  0  0  0  0  0  0  0  0  0
  140.7720   77.0740  221.6600 C   0  0  1  0  0  0  0  0  0  0  0  0
  141.0760   77.5330  223.0360 C   0  0  0  0  0  0  0  0  0  0  0  0
  142.1040   78.4980  223.1880 N   0  0  0  0  0  0  0  0  0  0  0  0
  141.7970   79.6870  223.8990 C   0  0  0  0  0  0  0  0  0  0  0  0
  142.4270   80.8870  223.2590 C   0  0  0  0  0  0  0  0  0  0  0  0
  141.8510   80.9940  221.8430 C   0  0  0  0  0  0  0  0  0  0  0  0
  140.4000   81.4060  221.9320 C   0  0  0  0  0  0  0  0  0  0  0  0
  139.8820   81.2400  223.3510 C   0  0  0  0  0  0  0  0  0  0  0  0
  140.2720   79.8600  223.8290 C   0  0  0  0  0  0  0  0  0  0  0  0
  140.0420   71.1190  223.8410 C   0  0  0  0  0  0  0  0  0  0  0  0
  139.5000   69.8400  223.7480 C   0  0  0  0  0  0  0  0  0  0  0  0
  139.4610   68.9640  224.7940 C   0  0  0  0  0  0  0  0  0  0  0  0
  139.9920   69.3830  226.0070 C   0  0  0  0  0  0  0  0  0  0  0  0
  139.9560   68.5080  227.0660 C   0  0  0  0  0  0  0  0  0  0  0  0
  140.4800   68.9260  228.2590 C   0  0  0  0  0  0  0  0  0  0  0  0
  140.4680   68.0980  229.3310 F   0  0  0  0  0  0  0  0  0  0  0  0
  141.0120   70.1890  228.3380 C   0  0  0  0  0  0  0  0  0  0  0  0
  141.0450   71.0660  227.2680 C   0  0  0  0  0  0  0  0  0  0  0  0
  140.5130   70.6450  226.0530 C   0  0  0  0  0  0  0  0  0  0  0  0
  140.5430   71.4940  225.0090 N   0  0  0  0  0  0  0  0  0  0  0  0
  138.2150   72.9620  223.0910 H   0  0  0  0  0  0  0  0  0  0  0  0
  139.4272   72.9284  220.3923 H   0  0  0  0  0  0  0  0  0  0  0  0
  138.0057   73.9888  221.0488 H   0  0  0  0  0  0  0  0  0  0  0  0
  137.5797   76.4443  221.7576 H   0  0  0  0  0  0  0  0  0  0  0  0
  138.4987   76.8817  223.1883 H   0  0  0  0  0  0  0  0  0  0  0  0
  137.9993   78.4537  220.7114 H   0  0  0  0  0  0  0  0  0  0  0  0
  138.6310   79.0435  222.2576 H   0  0  0  0  0  0  0  0  0  0  0  0
  140.1201   78.0781  219.8215 H   0  0  0  0  0  0  0  0  0  0  0  0
  140.6816   79.2060  221.0176 H   0  0  0  0  0  0  0  0  0  0  0  0
  141.7168   76.6526  221.2861 H   0  0  0  0  0  0  0  0  0  0  0  0
  140.1536   77.9648  223.4515 H   0  0  0  0  0  0  0  0  0  0  0  0
  141.4496   76.6384  223.5558 H   0  0  0  0  0  0  0  0  0  0  0  0
  142.7370   78.5810  222.3850 H   0  0  0  0  0  0  0  0  0  0  0  0
  142.1737   79.6073  224.9294 H   0  0  0  0  0  0  0  0  0  0  0  0
  142.1853   81.7927  223.8346 H   0  0  0  0  0  0  0  0  0  0  0  0
  143.5221   80.7872  223.2308 H   0  0  0  0  0  0  0  0  0  0  0  0
  142.4138   81.7470  221.2718 H   0  0  0  0  0  0  0  0  0  0  0  0
  141.9307   80.0216  221.3349 H   0  0  0  0  0  0  0  0  0  0  0  0
  140.3048   82.4605  221.6336 H   0  0  0  0  0  0  0  0  0  0  0  0
  139.8081   80.7655  221.2616 H   0  0  0  0  0  0  0  0  0  0  0  0
  140.3308   82.0026  224.0044 H   0  0  0  0  0  0  0  0  0  0  0  0
  138.7889   81.3598  223.3765 H   0  0  0  0  0  0  0  0  0  0  0  0
  139.8495   79.6985  224.8317 H   0  0  0  0  0  0  0  0  0  0  0  0
  139.8786   79.1266  223.1097 H   0  0  0  0  0  0  0  0  0  0  0  0
  139.0819   69.5191  222.7825 H   0  0  0  0  0  0  0  0  0  0  0  0
  139.0241   67.9609  224.6802 H   0  0  0  0  0  0  0  0  0  0  0  0
  139.5200   67.5039  226.9582 H   0  0  0  0  0  0  0  0  0  0  0  0
  141.4327   70.5202  229.2989 H   0  0  0  0  0  0  0  0  0  0  0  0
  141.4807   72.0703  227.3752 H   0  0  0  0  0  0  0  0  0  0  0  0
  1  2  2  0
  2  3  1  0
  3  4  1  0
  4  5  1  0
  5  6  2  0
  5  7  1  0
  7  8  1  0
  8  9  1  0
  9 10  1  0
 10 11  1  0
 11 12  1  0
 12 13  1  0
 13 14  1  0
 14 15  1  0
 15 16  1  0
 16 17  1  0
 17 18  1  0
 18 19  1  0
  2 20  1  0
 20 21  2  0
 21 22  1  0
 22 23  2  0
 23 24  1  0
 24 25  2  0
 25 26  1  0
 25 27  1  0
 27 28  2  0
 28 29  1  0
 29 30  2  0
 11  7  1  0
 19 14  1  0
 30 20  1  0
 29 23  1  0
  3 31  1  0
  4 32  1  0
  4 33  1  0
  8 34  1  0
  8 35  1  0
  9 36  1  0
  9 37  1  0
 10 38  1  0
 10 39  1  0
 11 40  1  6
 12 41  1  0
 12 42  1  0
 13 43  1  0
 14 44  1  0
 15 45  1  0
 15 46  1  0
 16 47  1  0
 16 48  1  0
 17 49  1  0
 17 50  1  0
 18 51  1  0
 18 52  1  0
 19 53  1  0
 19 54  1  0
 21 55  1  0
 22 56  1  0
 24 57  1  0
 27 58  1  0
 28 59  1  0
M  END
>  <smiles>  (43) 
O=C(NCC(=O)N1CCC[C@H]1CNC1CCCCC1)c1ccc2cc(F)ccc2n1

>  <score_type>  (43) 
oracle

>  <origin>  (43) 
autodockgpu

>  <m_score__min__energy>  (43) 
-8.9399999999999995

>  <m_primary>  (43) 
energy

>  <rmsd>  (43) 
2.214245461594001

>  <m_score__min__rmsd>  (43) 
2.214245461594001

>  <meeko>  (43) 
{"free_energy": -8.59, "intermolecular_energy": -10.68, "internal_energy": -1.53, "cluster_size": 22, "cluster_id": 1, "rank_in_cluster": 9}

>  <energy>  (43) 
-6.31

>  <cluster_rmsd>  (43) 
0.39

>  <cluster>  (43) 
7

$$$$

     RDKit          3D

 59 62  0  0  0  0  0  0  0  0999 V2000
  139.8800   71.4810  221.0640 O   0  0  0  0  0  0  0  0  0  0  0  0
  139.6070   71.9980  222.2010 C   0  0  0  0  0  0  0  0  0  0  0  0
  139.0930   73.3320  222.1400 N   0  0  0  0  0  0  0  0  0  0  0  0
  138.9370   73.9350  220.8680 C   0  0  0  0  0  0  0  0  0  0  0  0
  140.0500   74.5580  220.1900 C   0  0  0  0  0  0  0  0  0  0  0  0
  140.3850   73.9470  219.0740 O   0  0  0  0  0  0  0  0  0  0  0  0
  140.8370   75.6750  220.4880 N   0  0  0  0  0  0  0  0  0  0  0  0
  141.1160   76.4500  221.6650 C   0  0  0  0  0  0  0  0  0  0  0  0
  141.0920   77.8860  221.1650 C   0  0  0  0  0  0  0  0  0  0  0  0
  141.0820   77.8020  219.6530 C   0  0  0  0  0  0  0  0  0  0  0  0
  141.6150   76.3780  219.4370 C   0  0  1  0  0  0  0  0  0  0  0  0
  143.0760   76.4060  219.6810 C   0  0  0  0  0  0  0  0  0  0  0  0
  143.8000   75.2100  219.4430 N   0  0  0  0  0  0  0  0  0  0  0  0
  144.0630   74.3630  220.5510 C   0  0  0  0  0  0  0  0  0  0  0  0
  143.3990   73.0280  220.3910 C   0  0  0  0  0  0  0  0  0  0  0  0
  143.9820   72.3860  219.1270 C   0  0  0  0  0  0  0  0  0  0  0  0
  145.4190   71.9980  219.3900 C   0  0  0  0  0  0  0  0  0  0  0  0
  145.9300   72.6660  220.6560 C   0  0  0  0  0  0  0  0  0  0  0  0
  145.5810   74.1340  220.5790 C   0  0  0  0  0  0  0  0  0  0  0  0
  139.8060   71.2800  223.4480 C   0  0  0  0  0  0  0  0  0  0  0  0
  139.4450   69.9350  223.4600 C   0  0  0  0  0  0  0  0  0  0  0  0
  139.5740   69.1350  224.5580 C   0  0  0  0  0  0  0  0  0  0  0  0
  140.0910   69.7020  225.7150 C   0  0  0  0  0  0  0  0  0  0  0  0
  140.2230   68.9040  226.8250 C   0  0  0  0  0  0  0  0  0  0  0  0
  140.7330   69.4680  227.9620 C   0  0  0  0  0  0  0  0  0  0  0  0
  140.8820   68.7210  229.0810 F   0  0  0  0  0  0  0  0  0  0  0  0
  141.0850   70.7950  227.9380 C   0  0  0  0  0  0  0  0  0  0  0  0
  140.9500   71.5950  226.8160 C   0  0  0  0  0  0  0  0  0  0  0  0
  140.4320   71.0250  225.6580 C   0  0  0  0  0  0  0  0  0  0  0  0
  140.2980   71.7980  224.5640 N   0  0  0  0  0  0  0  0  0  0  0  0
  138.8610   73.7810  223.0630 H   0  0  0  0  0  0  0  0  0  0  0  0
  138.5632   73.1492  220.1950 H   0  0  0  0  0  0  0  0  0  0  0  0
  138.2833   74.7916  221.0892 H   0  0  0  0  0  0  0  0  0  0  0  0
  140.3448   76.2890  222.4326 H   0  0  0  0  0  0  0  0  0  0  0  0
  142.0717   76.1789  222.1373 H   0  0  0  0  0  0  0  0  0  0  0  0
  140.1891   78.4009  221.5251 H   0  0  0  0  0  0  0  0  0  0  0  0
  141.9597   78.4544  221.5310 H   0  0  0  0  0  0  0  0  0  0  0  0
  140.0659   77.9190  219.2483 H   0  0  0  0  0  0  0  0  0  0  0  0
  141.6666   78.5868  219.1507 H   0  0  0  0  0  0  0  0  0  0  0  0
  141.5024   75.9155  218.4453 H   0  0  0  0  0  0  0  0  0  0  0  0
  143.5039   77.1853  219.0332 H   0  0  0  0  0  0  0  0  0  0  0  0
  143.1776   76.5863  220.7614 H   0  0  0  0  0  0  0  0  0  0  0  0
  144.5290   75.2850  218.7260 H   0  0  0  0  0  0  0  0  0  0  0  0
  143.6816   74.8312  221.4704 H   0  0  0  0  0  0  0  0  0  0  0  0
  143.6071   72.3953  221.2664 H   0  0  0  0  0  0  0  0  0  0  0  0
  142.3079   73.1398  220.3070 H   0  0  0  0  0  0  0  0  0  0  0  0
  143.3998   71.4898  218.8664 H   0  0  0  0  0  0  0  0  0  0  0  0
  143.9369   73.1011  218.2924 H   0  0  0  0  0  0  0  0  0  0  0  0
  145.4832   70.9060  219.5062 H   0  0  0  0  0  0  0  0  0  0  0  0
  146.0364   72.3272  218.5412 H   0  0  0  0  0  0  0  0  0  0  0  0
  145.4511   72.2136  221.5369 H   0  0  0  0  0  0  0  0  0  0  0  0
  147.0184   72.5348  220.7463 H   0  0  0  0  0  0  0  0  0  0  0  0
  146.0013   74.6456  221.4574 H   0  0  0  0  0  0  0  0  0  0  0  0
  146.0027   74.5353  219.6456 H   0  0  0  0  0  0  0  0  0  0  0  0
  139.0355   69.4956  222.5385 H   0  0  0  0  0  0  0  0  0  0  0  0
  139.2782   68.0760  224.5274 H   0  0  0  0  0  0  0  0  0  0  0  0
  139.9279   67.8446  226.8004 H   0  0  0  0  0  0  0  0  0  0  0  0
  141.4942   71.2444  228.8548 H   0  0  0  0  0  0  0  0  0  0  0  0
  141.2449   72.6545  226.8399 H   0  0  0  0  0  0  0  0  0  0  0  0
  1  2  2  0
  2  3  1  0
  3  4  1  0
  4  5  1  0
  5  6  2  0
  5  7  1  0
  7  8  1  0
  8  9  1  0
  9 10  1  0
 10 11  1  0
 11 12  1  0
 12 13  1  0
 13 14  1  0
 14 15  1  0
 15 16  1  0
 16 17  1  0
 17 18  1  0
 18 19  1  0
  2 20  1  0
 20 21  2  0
 21 22  1  0
 22 23  2  0
 23 24  1  0
 24 25  2  0
 25 26  1  0
 25 27  1  0
 27 28  2  0
 28 29  1  0
 29 30  2  0
 11  7  1  0
 19 14  1  0
 30 20  1  0
 29 23  1  0
  3 31  1  0
  4 32  1  0
  4 33  1  0
  8 34  1  0
  8 35  1  0
  9 36  1  0
  9 37  1  0
 10 38  1  0
 10 39  1  0
 11 40  1  6
 12 41  1  0
 12 42  1  0
 13 43  1  0
 14 44  1  0
 15 45  1  0
 15 46  1  0
 16 47  1  0
 16 48  1  0
 17 49  1  0
 17 50  1  0
 18 51  1  0
 18 52  1  0
 19 53  1  0
 19 54  1  0
 21 55  1  0
 22 56  1  0
 24 57  1  0
 27 58  1  0
 28 59  1  0
M  END
>  <smiles>  (44) 
O=C(NCC(=O)N1CCC[C@H]1CNC1CCCCC1)c1ccc2cc(F)ccc2n1

>  <score_type>  (44) 
oracle

>  <origin>  (44) 
autodockgpu

>  <m_score__min__energy>  (44) 
-8.9399999999999995

>  <m_primary>  (44) 
energy

>  <rmsd>  (44) 
4.705114840128685

>  <m_score__min__rmsd>  (44) 
4.705114840128685

>  <meeko>  (44) 
{"free_energy": -8.01, "intermolecular_energy": -10.1, "internal_energy": -1.92, "cluster_size": 11, "cluster_id": 3, "rank_in_cluster": 2}

>  <energy>  (44) 
-6.24

>  <cluster_rmsd>  (44) 
0.49

>  <cluster>  (44) 
7

$$$$

     RDKit          3D

 59 62  0  0  0  0  0  0  0  0999 V2000
  140.4920   71.3230  221.4810 O   0  0  0  0  0  0  0  0  0  0  0  0
  140.0580   71.7880  222.5910 C   0  0  0  0  0  0  0  0  0  0  0  0
  139.5710   73.1320  222.5240 N   0  0  0  0  0  0  0  0  0  0  0  0
  139.6120   73.8000  221.2770 C   0  0  0  0  0  0  0  0  0  0  0  0
  140.4630   74.9480  221.0660 C   0  0  0  0  0  0  0  0  0  0  0  0
  141.4300   75.0470  221.9520 O   0  0  0  0  0  0  0  0  0  0  0  0
  140.4570   75.9690  220.1100 N   0  0  0  0  0  0  0  0  0  0  0  0
  139.4500   76.6800  219.3720 C   0  0  0  0  0  0  0  0  0  0  0  0
  140.0330   76.7780  217.9710 C   0  0  0  0  0  0  0  0  0  0  0  0
  141.4820   76.3560  218.0900 C   0  0  0  0  0  0  0  0  0  0  0  0
  141.7200   76.5550  219.5940 C   0  0  1  0  0  0  0  0  0  0  0  0
  141.8570   78.0100  219.8370 C   0  0  0  0  0  0  0  0  0  0  0  0
  141.9960   78.4370  221.1810 N   0  0  0  0  0  0  0  0  0  0  0  0
  141.0880   79.4150  221.6640 C   0  0  0  0  0  0  0  0  0  0  0  0
  140.7600   79.1940  223.1090 C   0  0  0  0  0  0  0  0  0  0  0  0
  142.0730   79.3090  223.8900 C   0  0  0  0  0  0  0  0  0  0  0  0
  142.5250   80.7520  223.8840 C   0  0  0  0  0  0  0  0  0  0  0  0
  141.7580   81.5470  222.8400 C   0  0  0  0  0  0  0  0  0  0  0  0
  141.7990   80.7720  221.5430 C   0  0  0  0  0  0  0  0  0  0  0  0
  140.0630   71.0050  223.8150 C   0  0  0  0  0  0  0  0  0  0  0  0
  139.4910   69.7360  223.7480 C   0  0  0  0  0  0  0  0  0  0  0  0
  139.4230   68.8890  224.8160 C   0  0  0  0  0  0  0  0  0  0  0  0
  139.9520   69.3250  226.0230 C   0  0  0  0  0  0  0  0  0  0  0  0
  139.8860   68.4790  227.1020 C   0  0  0  0  0  0  0  0  0  0  0  0
  140.4100   68.9130  228.2900 C   0  0  0  0  0  0  0  0  0  0  0  0
  140.3690   68.1140  229.3820 F   0  0  0  0  0  0  0  0  0  0  0  0
  140.9710   70.1650  228.3430 C   0  0  0  0  0  0  0  0  0  0  0  0
  141.0340   71.0140  227.2510 C   0  0  0  0  0  0  0  0  0  0  0  0
  140.5030   70.5760  226.0420 C   0  0  0  0  0  0  0  0  0  0  0  0
  140.5620   71.3970  224.9770 N   0  0  0  0  0  0  0  0  0  0  0  0
  139.2100   73.5380  223.4240 H   0  0  0  0  0  0  0  0  0  0  0  0
  139.9128   73.0489  220.5318 H   0  0  0  0  0  0  0  0  0  0  0  0
  138.6042   74.2353  221.2074 H   0  0  0  0  0  0  0  0  0  0  0  0
  138.5019   76.1223  219.3644 H   0  0  0  0  0  0  0  0  0  0  0  0
  139.2168   77.6631  219.8068 H   0  0  0  0  0  0  0  0  0  0  0  0
  139.4948   76.1069  217.2855 H   0  0  0  0  0  0  0  0  0  0  0  0
  139.9427   77.7975  217.5681 H   0  0  0  0  0  0  0  0  0  0  0  0
  141.6230   75.3061  217.7937 H   0  0  0  0  0  0  0  0  0  0  0  0
  142.1729   76.9159  217.4426 H   0  0  0  0  0  0  0  0  0  0  0  0
  142.6140   76.1067  220.0520 H   0  0  0  0  0  0  0  0  0  0  0  0
  142.7461   78.3538  219.2881 H   0  0  0  0  0  0  0  0  0  0  0  0
  140.9023   78.4419  219.5022 H   0  0  0  0  0  0  0  0  0  0  0  0
  142.9630   78.4880  221.5180 H   0  0  0  0  0  0  0  0  0  0  0  0
  140.1529   79.3659  221.0867 H   0  0  0  0  0  0  0  0  0  0  0  0
  140.0467   79.9565  223.4552 H   0  0  0  0  0  0  0  0  0  0  0  0
  140.2991   78.2067  223.2600 H   0  0  0  0  0  0  0  0  0  0  0  0
  141.9158   78.9761  224.9266 H   0  0  0  0  0  0  0  0  0  0  0  0
  142.8412   78.6771  223.4203 H   0  0  0  0  0  0  0  0  0  0  0  0
  142.3462   81.1912  224.8765 H   0  0  0  0  0  0  0  0  0  0  0  0
  143.5971   80.7874  223.6405 H   0  0  0  0  0  0  0  0  0  0  0  0
  140.7150   81.6797  223.1632 H   0  0  0  0  0  0  0  0  0  0  0  0
  142.2103   82.5408  222.7068 H   0  0  0  0  0  0  0  0  0  0  0  0
  141.3042   81.3641  220.7590 H   0  0  0  0  0  0  0  0  0  0  0  0
  142.8531   80.5835  221.2915 H   0  0  0  0  0  0  0  0  0  0  0  0
  139.0738   69.4005  222.7871 H   0  0  0  0  0  0  0  0  0  0  0  0
  138.9641   67.8936  224.7233 H   0  0  0  0  0  0  0  0  0  0  0  0
  139.4264   67.4834  227.0148 H   0  0  0  0  0  0  0  0  0  0  0  0
  141.3907   70.5103  229.2993 H   0  0  0  0  0  0  0  0  0  0  0  0
  141.4925   72.0101  227.3373 H   0  0  0  0  0  0  0  0  0  0  0  0
  1  2  2  0
  2  3  1  0
  3  4  1  0
  4  5  1  0
  5  6  2  0
  5  7  1  0
  7  8  1  0
  8  9  1  0
  9 10  1  0
 10 11  1  0
 11 12  1  0
 12 13  1  0
 13 14  1  0
 14 15  1  0
 15 16  1  0
 16 17  1  0
 17 18  1  0
 18 19  1  0
  2 20  1  0
 20 21  2  0
 21 22  1  0
 22 23  2  0
 23 24  1  0
 24 25  2  0
 25 26  1  0
 25 27  1  0
 27 28  2  0
 28 29  1  0
 29 30  2  0
 11  7  1  0
 19 14  1  0
 30 20  1  0
 29 23  1  0
  3 31  1  0
  4 32  1  0
  4 33  1  0
  8 34  1  0
  8 35  1  0
  9 36  1  0
  9 37  1  0
 10 38  1  0
 10 39  1  0
 11 40  1  1
 12 41  1  0
 12 42  1  0
 13 43  1  0
 14 44  1  0
 15 45  1  0
 15 46  1  0
 16 47  1  0
 16 48  1  0
 17 49  1  0
 17 50  1  0
 18 51  1  0
 18 52  1  0
 19 53  1  0
 19 54  1  0
 21 55  1  0
 22 56  1  0
 24 57  1  0
 27 58  1  0
 28 59  1  0
M  END
>  <smiles>  (45) 
O=C(NCC(=O)N1CCC[C@H]1CNC1CCCCC1)c1ccc2cc(F)ccc2n1

>  <score_type>  (45) 
oracle

>  <origin>  (45) 
autodockgpu

>  <m_score__min__energy>  (45) 
-8.9399999999999995

>  <m_primary>  (45) 
energy

>  <rmsd>  (45) 
2.0534143829195903

>  <m_score__min__rmsd>  (45) 
2.0534143829195903

>  <meeko>  (45) 
{"free_energy": -8.72, "intermolecular_energy": -10.81, "internal_energy": -1.49, "cluster_size": 22, "cluster_id": 1, "rank_in_cluster": 6}

>  <energy>  (45) 
-6.23

>  <cluster_rmsd>  (45) 
0.67

>  <cluster>  (45) 
7

$$$$

     RDKit          3D

 59 62  0  0  0  0  0  0  0  0999 V2000
  139.8030   71.8130  221.5880 O   0  0  0  0  0  0  0  0  0  0  0  0
  139.1200   71.8610  222.6680 C   0  0  0  0  0  0  0  0  0  0  0  0
  137.8890   72.5830  222.5610 N   0  0  0  0  0  0  0  0  0  0  0  0
  137.5520   73.1570  221.3110 C   0  0  0  0  0  0  0  0  0  0  0  0
  138.3420   74.2190  220.7340 C   0  0  0  0  0  0  0  0  0  0  0  0
  138.1250   74.3870  219.4470 O   0  0  0  0  0  0  0  0  0  0  0  0
  139.2890   75.0970  221.2720 N   0  0  0  0  0  0  0  0  0  0  0  0
  139.4310   75.8270  222.5020 C   0  0  0  0  0  0  0  0  0  0  0  0
  139.9390   77.1890  222.0550 C   0  0  0  0  0  0  0  0  0  0  0  0
  140.3260   77.0350  220.5990 C   0  0  0  0  0  0  0  0  0  0  0  0
  140.4890   75.5100  220.5020 C   0  0  1  0  0  0  0  0  0  0  0  0
  141.7750   75.1560  221.1470 C   0  0  0  0  0  0  0  0  0  0  0  0
  142.1370   73.7860  221.1690 N   0  0  0  0  0  0  0  0  0  0  0  0
  142.7560   73.2450  220.0120 C   0  0  0  0  0  0  0  0  0  0  0  0
  143.7660   74.1910  219.4370 C   0  0  0  0  0  0  0  0  0  0  0  0
  144.8350   74.4150  220.5120 C   0  0  0  0  0  0  0  0  0  0  0  0
  145.6420   73.1470  220.6730 C   0  0  0  0  0  0  0  0  0  0  0  0
  144.9400   71.9770  220.0050 C   0  0  0  0  0  0  0  0  0  0  0  0
  143.4990   71.9780  220.4620 C   0  0  0  0  0  0  0  0  0  0  0  0
  139.5670   71.2300  223.8980 C   0  0  0  0  0  0  0  0  0  0  0  0
  140.5480   71.9000  224.6240 C   0  0  0  0  0  0  0  0  0  0  0  0
  141.0650   71.4290  225.7960 C   0  0  0  0  0  0  0  0  0  0  0  0
  140.5800   70.2200  226.2770 C   0  0  0  0  0  0  0  0  0  0  0  0
  141.0970   69.7380  227.4550 C   0  0  0  0  0  0  0  0  0  0  0  0
  140.6160   68.5460  227.9240 C   0  0  0  0  0  0  0  0  0  0  0  0
  141.0930   68.0310  229.0820 F   0  0  0  0  0  0  0  0  0  0  0  0
  139.6490   67.8950  227.2000 C   0  0  0  0  0  0  0  0  0  0  0  0
  139.1320   68.3850  226.0130 C   0  0  0  0  0  0  0  0  0  0  0  0
  139.6190   69.5970  225.5320 C   0  0  0  0  0  0  0  0  0  0  0  0
  139.1200   70.0790  224.3780 N   0  0  0  0  0  0  0  0  0  0  0  0
  137.3090   72.6390  223.4370 H   0  0  0  0  0  0  0  0  0  0  0  0
  137.5553   72.3348  220.5803 H   0  0  0  0  0  0  0  0  0  0  0  0
  136.5993   73.6614  221.5301 H   0  0  0  0  0  0  0  0  0  0  0  0
  138.4638   75.9188  223.0178 H   0  0  0  0  0  0  0  0  0  0  0  0
  140.1064   75.3329  223.2159 H   0  0  0  0  0  0  0  0  0  0  0  0
  139.1477   77.9456  222.1618 H   0  0  0  0  0  0  0  0  0  0  0  0
  140.7924   77.5200  222.6651 H   0  0  0  0  0  0  0  0  0  0  0  0
  139.5338   77.4006  219.9291 H   0  0  0  0  0  0  0  0  0  0  0  0
  141.2174   77.6073  220.3025 H   0  0  0  0  0  0  0  0  0  0  0  0
  140.5345   75.0448  219.5062 H   0  0  0  0  0  0  0  0  0  0  0  0
  142.5709   75.6993  220.6167 H   0  0  0  0  0  0  0  0  0  0  0  0
  141.6448   75.4301  222.2043 H   0  0  0  0  0  0  0  0  0  0  0  0
  141.4880   73.1790  221.6810 H   0  0  0  0  0  0  0  0  0  0  0  0
  141.9925   73.0464  219.2454 H   0  0  0  0  0  0  0  0  0  0  0  0
  144.2221   73.7545  218.5362 H   0  0  0  0  0  0  0  0  0  0  0  0
  143.2935   75.1420  219.1499 H   0  0  0  0  0  0  0  0  0  0  0  0
  145.4979   75.2382  220.2074 H   0  0  0  0  0  0  0  0  0  0  0  0
  144.3543   74.6741  221.4668 H   0  0  0  0  0  0  0  0  0  0  0  0
  146.6306   73.2867  220.2112 H   0  0  0  0  0  0  0  0  0  0  0  0
  145.7500   72.9296  221.7459 H   0  0  0  0  0  0  0  0  0  0  0  0
  144.9855   72.0886  218.9116 H   0  0  0  0  0  0  0  0  0  0  0  0
  145.4283   71.0300  220.2786 H   0  0  0  0  0  0  0  0  0  0  0  0
  142.9911   71.0988  220.0389 H   0  0  0  0  0  0  0  0  0  0  0  0
  143.4902   71.9502  221.5616 H   0  0  0  0  0  0  0  0  0  0  0  0
  140.9252   72.8567  224.2335 H   0  0  0  0  0  0  0  0  0  0  0  0
  141.8397   71.9882  226.3412 H   0  0  0  0  0  0  0  0  0  0  0  0
  141.8727   70.2925  228.0035 H   0  0  0  0  0  0  0  0  0  0  0  0
  139.2660   66.9370  227.5815 H   0  0  0  0  0  0  0  0  0  0  0  0
  138.3564   67.8309  225.4641 H   0  0  0  0  0  0  0  0  0  0  0  0
  1  2  2  0
  2  3  1  0
  3  4  1  0
  4  5  1  0
  5  6  2  0
  5  7  1  0
  7  8  1  0
  8  9  1  0
  9 10  1  0
 10 11  1  0
 11 12  1  0
 12 13  1  0
 13 14  1  0
 14 15  1  0
 15 16  1  0
 16 17  1  0
 17 18  1  0
 18 19  1  0
  2 20  1  0
 20 21  2  0
 21 22  1  0
 22 23  2  0
 23 24  1  0
 24 25  2  0
 25 26  1  0
 25 27  1  0
 27 28  2  0
 28 29  1  0
 29 30  2  0
 11  7  1  0
 19 14  1  0
 30 20  1  0
 29 23  1  0
  3 31  1  0
  4 32  1  0
  4 33  1  0
  8 34  1  0
  8 35  1  0
  9 36  1  0
  9 37  1  0
 10 38  1  0
 10 39  1  0
 11 40  1  6
 12 41  1  0
 12 42  1  0
 13 43  1  0
 14 44  1  0
 15 45  1  0
 15 46  1  0
 16 47  1  0
 16 48  1  0
 17 49  1  0
 17 50  1  0
 18 51  1  0
 18 52  1  0
 19 53  1  0
 19 54  1  0
 21 55  1  0
 22 56  1  0
 24 57  1  0
 27 58  1  0
 28 59  1  0
M  END
>  <smiles>  (46) 
O=C(NCC(=O)N1CCC[C@H]1CNC1CCCCC1)c1ccc2cc(F)ccc2n1

>  <score_type>  (46) 
oracle

>  <origin>  (46) 
autodockgpu

>  <m_score__min__energy>  (46) 
-8.9399999999999995

>  <m_primary>  (46) 
energy

>  <rmsd>  (46) 
5.076119125919426

>  <m_score__min__rmsd>  (46) 
5.076119125919426

>  <meeko>  (46) 
{"free_energy": -7.15, "intermolecular_energy": -9.23, "internal_energy": -2.61, "cluster_size": 11, "cluster_id": 3, "rank_in_cluster": 11}

>  <energy>  (46) 
-6.11

>  <cluster_rmsd>  (46) 
0.81

>  <cluster>  (46) 
7

$$$$

     RDKit          3D

 59 62  0  0  0  0  0  0  0  0999 V2000
  140.5900   77.8890  218.7520 O   0  0  0  0  0  0  0  0  0  0  0  0
  141.8590   77.7690  218.8560 C   0  0  0  0  0  0  0  0  0  0  0  0
  142.5740   79.0080  218.8910 N   0  0  0  0  0  0  0  0  0  0  0  0
  141.8340   80.2130  218.8120 C   0  0  0  0  0  0  0  0  0  0  0  0
  141.2830   80.8360  219.9930 C   0  0  0  0  0  0  0  0  0  0  0  0
  140.6390   81.9540  219.7370 O   0  0  0  0  0  0  0  0  0  0  0  0
  141.3030   80.4860  221.3470 N   0  0  0  0  0  0  0  0  0  0  0  0
  140.6700   80.9690  222.5430 C   0  0  0  0  0  0  0  0  0  0  0  0
  141.7830   80.9370  223.5780 C   0  0  0  0  0  0  0  0  0  0  0  0
  142.9170   80.1540  222.9500 C   0  0  0  0  0  0  0  0  0  0  0  0
  142.1660   79.3870  221.8500 C   0  0  1  0  0  0  0  0  0  0  0  0
  141.4230   78.2840  222.5020 C   0  0  0  0  0  0  0  0  0  0  0  0
  141.3340   77.0550  221.8010 N   0  0  0  0  0  0  0  0  0  0  0  0
  140.4940   76.0450  222.3370 C   0  0  0  0  0  0  0  0  0  0  0  0
  139.0460   76.3540  222.1040 C   0  0  0  0  0  0  0  0  0  0  0  0
  138.8390   76.4150  220.5870 C   0  0  0  0  0  0  0  0  0  0  0  0
  138.9620   75.0210  220.0170 C   0  0  0  0  0  0  0  0  0  0  0  0
  139.5880   74.0810  221.0340 C   0  0  0  0  0  0  0  0  0  0  0  0
  140.8270   74.7490  221.5830 C   0  0  0  0  0  0  0  0  0  0  0  0
  142.5110   76.4730  218.9310 C   0  0  0  0  0  0  0  0  0  0  0  0
  142.0550   75.4910  218.0560 C   0  0  0  0  0  0  0  0  0  0  0  0
  142.5700   74.2280  218.0130 C   0  0  0  0  0  0  0  0  0  0  0  0
  143.6000   73.9190  218.8910 C   0  0  0  0  0  0  0  0  0  0  0  0
  144.1240   72.6500  218.8550 C   0  0  0  0  0  0  0  0  0  0  0  0
  145.1390   72.3510  219.7230 C   0  0  0  0  0  0  0  0  0  0  0  0
  145.6870   71.1130  219.7240 F   0  0  0  0  0  0  0  0  0  0  0  0
  145.5810   73.3280  220.5800 C   0  0  0  0  0  0  0  0  0  0  0  0
  145.0490   74.6050  220.6120 C   0  0  0  0  0  0  0  0  0  0  0  0
  144.0170   74.9130  219.7320 C   0  0  0  0  0  0  0  0  0  0  0  0
  143.4960   76.1540  219.7580 N   0  0  0  0  0  0  0  0  0  0  0  0
  143.6190   78.9360  218.9750 H   0  0  0  0  0  0  0  0  0  0  0  0
  142.4996   80.9569  218.3498 H   0  0  0  0  0  0  0  0  0  0  0  0
  140.9321   79.9026  218.2641 H   0  0  0  0  0  0  0  0  0  0  0  0
  140.2949   81.9934  222.4020 H   0  0  0  0  0  0  0  0  0  0  0  0
  139.7975   80.3668  222.8365 H   0  0  0  0  0  0  0  0  0  0  0  0
  142.1114   81.9592  223.8174 H   0  0  0  0  0  0  0  0  0  0  0  0
  141.4459   80.4736  224.5169 H   0  0  0  0  0  0  0  0  0  0  0  0
  143.6832   80.8205  222.5273 H   0  0  0  0  0  0  0  0  0  0  0  0
  143.4715   79.5144  223.6525 H   0  0  0  0  0  0  0  0  0  0  0  0
  142.7470   78.9036  221.0508 H   0  0  0  0  0  0  0  0  0  0  0  0
  141.9132   78.0799  223.4654 H   0  0  0  0  0  0  0  0  0  0  0  0
  140.3862   78.6448  222.5710 H   0  0  0  0  0  0  0  0  0  0  0  0
  142.2050   76.7520  221.3530 H   0  0  0  0  0  0  0  0  0  0  0  0
  140.6605   75.9664  223.4215 H   0  0  0  0  0  0  0  0  0  0  0  0
  138.4164   75.5642  222.5397 H   0  0  0  0  0  0  0  0  0  0  0  0
  138.7672   77.3073  222.5767 H   0  0  0  0  0  0  0  0  0  0  0  0
  137.8387   76.8163  220.3672 H   0  0  0  0  0  0  0  0  0  0  0  0
  139.5983   77.0698  220.1345 H   0  0  0  0  0  0  0  0  0  0  0  0
  137.9615   74.6501  219.7497 H   0  0  0  0  0  0  0  0  0  0  0  0
  139.6048   75.0578  219.1251 H   0  0  0  0  0  0  0  0  0  0  0  0
  138.8764   73.8853  221.8496 H   0  0  0  0  0  0  0  0  0  0  0  0
  139.8473   73.1224  220.5609 H   0  0  0  0  0  0  0  0  0  0  0  0
  141.3286   74.0550  222.2734 H   0  0  0  0  0  0  0  0  0  0  0  0
  141.4790   75.0063  220.7352 H   0  0  0  0  0  0  0  0  0  0  0  0
  141.2384   75.7459  217.3645 H   0  0  0  0  0  0  0  0  0  0  0  0
  142.1820   73.4797  217.3062 H   0  0  0  0  0  0  0  0  0  0  0  0
  143.7399   71.8975  218.1506 H   0  0  0  0  0  0  0  0  0  0  0  0
  146.3978   73.0839  221.2751 H   0  0  0  0  0  0  0  0  0  0  0  0
  145.4328   75.3580  221.3161 H   0  0  0  0  0  0  0  0  0  0  0  0
  1  2  2  0
  2  3  1  0
  3  4  1  0
  4  5  1  0
  5  6  2  0
  5  7  1  0
  7  8  1  0
  8  9  1  0
  9 10  1  0
 10 11  1  0
 11 12  1  0
 12 13  1  0
 13 14  1  0
 14 15  1  0
 15 16  1  0
 16 17  1  0
 17 18  1  0
 18 19  1  0
  2 20  1  0
 20 21  2  0
 21 22  1  0
 22 23  2  0
 23 24  1  0
 24 25  2  0
 25 26  1  0
 25 27  1  0
 27 28  2  0
 28 29  1  0
 29 30  2  0
 11  7  1  0
 19 14  1  0
 30 20  1  0
 29 23  1  0
  3 31  1  0
  4 32  1  0
  4 33  1  0
  8 34  1  0
  8 35  1  0
  9 36  1  0
  9 37  1  0
 10 38  1  0
 10 39  1  0
 11 40  1  6
 12 41  1  0
 12 42  1  0
 13 43  1  0
 14 44  1  0
 15 45  1  0
 15 46  1  0
 16 47  1  0
 16 48  1  0
 17 49  1  0
 17 50  1  0
 18 51  1  0
 18 52  1  0
 19 53  1  0
 19 54  1  0
 21 55  1  0
 22 56  1  0
 24 57  1  0
 27 58  1  0
 28 59  1  0
M  END
>  <smiles>  (47) 
O=C(NCC(=O)N1CCC[C@H]1CNC1CCCCC1)c1ccc2cc(F)ccc2n1

>  <score_type>  (47) 
oracle

>  <origin>  (47) 
autodockgpu

>  <m_score__min__energy>  (47) 
-8.9399999999999995

>  <m_primary>  (47) 
energy

>  <rmsd>  (47) 
7.462660211939917

>  <m_score__min__rmsd>  (47) 
7.462660211939917

>  <meeko>  (47) 
{"free_energy": -6.31, "intermolecular_energy": -8.4, "internal_energy": -3.72, "cluster_size": 10, "cluster_id": 7, "rank_in_cluster": 6}

>  <energy>  (47) 
-5.78

>  <cluster_rmsd>  (47) 
0.95

>  <cluster>  (47) 
7

$$$$

     RDKit          3D

 59 62  0  0  0  0  0  0  0  0999 V2000
  141.0320   73.3470  222.1690 O   0  0  0  0  0  0  0  0  0  0  0  0
  140.1370   72.4480  222.3310 C   0  0  0  0  0  0  0  0  0  0  0  0
  139.2590   72.2750  221.2140 N   0  0  0  0  0  0  0  0  0  0  0  0
  139.4570   73.0860  220.0710 C   0  0  0  0  0  0  0  0  0  0  0  0
  139.5320   74.5240  220.1720 C   0  0  0  0  0  0  0  0  0  0  0  0
  140.2000   75.0810  219.1850 O   0  0  0  0  0  0  0  0  0  0  0  0
  139.0360   75.4350  221.1120 N   0  0  0  0  0  0  0  0  0  0  0  0
  137.9190   75.4750  222.0140 C   0  0  0  0  0  0  0  0  0  0  0  0
  137.4060   76.9010  221.8900 C   0  0  0  0  0  0  0  0  0  0  0  0
  138.4670   77.6620  221.1220 C   0  0  0  0  0  0  0  0  0  0  0  0
  139.6860   76.7520  221.3320 C   0  0  1  0  0  0  0  0  0  0  0  0
  140.1700   76.9650  222.7150 C   0  0  0  0  0  0  0  0  0  0  0  0
  141.4500   77.5530  222.8750 N   0  0  0  0  0  0  0  0  0  0  0  0
  141.5510   78.7110  223.6890 C   0  0  0  0  0  0  0  0  0  0  0  0
  142.5960   79.6550  223.1740 C   0  0  0  0  0  0  0  0  0  0  0  0
  142.1650   80.0760  221.7640 C   0  0  0  0  0  0  0  0  0  0  0  0
  140.9510   80.9710  221.8680 C   0  0  0  0  0  0  0  0  0  0  0  0
  140.3410   80.8860  223.2570 C   0  0  0  0  0  0  0  0  0  0  0  0
  140.1920   79.4240  223.6100 C   0  0  0  0  0  0  0  0  0  0  0  0
  140.0290   71.6720  223.5540 C   0  0  0  0  0  0  0  0  0  0  0  0
  139.2150   70.5430  223.5090 C   0  0  0  0  0  0  0  0  0  0  0  0
  139.0170   69.7190  224.5790 C   0  0  0  0  0  0  0  0  0  0  0  0
  139.6650   70.0330  225.7660 C   0  0  0  0  0  0  0  0  0  0  0  0
  139.4690   69.2100  226.8480 C   0  0  0  0  0  0  0  0  0  0  0  0
  140.1100   69.5250  228.0160 C   0  0  0  0  0  0  0  0  0  0  0  0
  139.9490   68.7430  229.1090 F   0  0  0  0  0  0  0  0  0  0  0  0
  140.9090   70.6400  228.0480 C   0  0  0  0  0  0  0  0  0  0  0  0
  141.1020   71.4670  226.9540 C   0  0  0  0  0  0  0  0  0  0  0  0
  140.4530   71.1500  225.7650 C   0  0  0  0  0  0  0  0  0  0  0  0
  140.6360   71.9500  224.6980 N   0  0  0  0  0  0  0  0  0  0  0  0
  138.5120   71.5420  221.3230 H   0  0  0  0  0  0  0  0  0  0  0  0
  140.4031   72.7568  219.6166 H   0  0  0  0  0  0  0  0  0  0  0  0
  138.5232   72.9361  219.5093 H   0  0  0  0  0  0  0  0  0  0  0  0
  137.1460   74.7525  221.7132 H   0  0  0  0  0  0  0  0  0  0  0  0
  138.1944   75.2093  223.0453 H   0  0  0  0  0  0  0  0  0  0  0  0
  136.4522   76.9176  221.3423 H   0  0  0  0  0  0  0  0  0  0  0  0
  137.2235   77.3505  222.8773 H   0  0  0  0  0  0  0  0  0  0  0  0
  138.2085   77.7523  220.0566 H   0  0  0  0  0  0  0  0  0  0  0  0
  138.6122   78.7003  221.4549 H   0  0  0  0  0  0  0  0  0  0  0  0
  140.5717   76.8992  220.6965 H   0  0  0  0  0  0  0  0  0  0  0  0
  139.4424   77.6153  223.2227 H   0  0  0  0  0  0  0  0  0  0  0  0
  140.2702   75.9540  223.1368 H   0  0  0  0  0  0  0  0  0  0  0  0
  142.0490   77.5110  222.0430 H   0  0  0  0  0  0  0  0  0  0  0  0
  141.8245   78.4175  224.7132 H   0  0  0  0  0  0  0  0  0  0  0  0
  142.6630   80.5372  223.8276 H   0  0  0  0  0  0  0  0  0  0  0  0
  143.5846   79.1731  223.1545 H   0  0  0  0  0  0  0  0  0  0  0  0
  142.9852   80.6221  221.2751 H   0  0  0  0  0  0  0  0  0  0  0  0
  141.9199   79.1844  221.1682 H   0  0  0  0  0  0  0  0  0  0  0  0
  141.2500   82.0104  221.6675 H   0  0  0  0  0  0  0  0  0  0  0  0
  140.2033   80.6412  221.1317 H   0  0  0  0  0  0  0  0  0  0  0  0
  140.9998   81.3812  223.9855 H   0  0  0  0  0  0  0  0  0  0  0  0
  139.3618   81.3868  223.2769 H   0  0  0  0  0  0  0  0  0  0  0  0
  139.6910   79.3433  224.5860 H   0  0  0  0  0  0  0  0  0  0  0  0
  139.5999   78.9414  222.8185 H   0  0  0  0  0  0  0  0  0  0  0  0
  138.7061   70.3032  222.5638 H   0  0  0  0  0  0  0  0  0  0  0  0
  138.3658   68.8357  224.5033 H   0  0  0  0  0  0  0  0  0  0  0  0
  138.8179   68.3261  226.7783 H   0  0  0  0  0  0  0  0  0  0  0  0
  141.4215   70.8893  228.9889 H   0  0  0  0  0  0  0  0  0  0  0  0
  141.7518   72.3518  227.0234 H   0  0  0  0  0  0  0  0  0  0  0  0
  1  2  2  0
  2  3  1  0
  3  4  1  0
  4  5  1  0
  5  6  2  0
  5  7  1  0
  7  8  1  0
  8  9  1  0
  9 10  1  0
 10 11  1  0
 11 12  1  0
 12 13  1  0
 13 14  1  0
 14 15  1  0
 15 16  1  0
 16 17  1  0
 17 18  1  0
 18 19  1  0
  2 20  1  0
 20 21  2  0
 21 22  1  0
 22 23  2  0
 23 24  1  0
 24 25  2  0
 25 26  1  0
 25 27  1  0
 27 28  2  0
 28 29  1  0
 29 30  2  0
 11  7  1  0
 19 14  1  0
 30 20  1  0
 29 23  1  0
  3 31  1  0
  4 32  1  0
  4 33  1  0
  8 34  1  0
  8 35  1  0
  9 36  1  0
  9 37  1  0
 10 38  1  0
 10 39  1  0
 11 40  1  6
 12 41  1  0
 12 42  1  0
 13 43  1  0
 14 44  1  0
 15 45  1  0
 15 46  1  0
 16 47  1  0
 16 48  1  0
 17 49  1  0
 17 50  1  0
 18 51  1  0
 18 52  1  0
 19 53  1  0
 19 54  1  0
 21 55  1  0
 22 56  1  0
 24 57  1  0
 27 58  1  0
 28 59  1  0
M  END
>  <smiles>  (48) 
O=C(NCC(=O)N1CCC[C@H]1CNC1CCCCC1)c1ccc2cc(F)ccc2n1

>  <score_type>  (48) 
oracle

>  <origin>  (48) 
autodockgpu

>  <m_score__min__energy>  (48) 
-8.9399999999999995

>  <m_primary>  (48) 
energy

>  <rmsd>  (48) 
2.4860762634176647

>  <m_score__min__rmsd>  (48) 
2.4860762634176647

>  <meeko>  (48) 
{"free_energy": -8.06, "intermolecular_energy": -10.15, "internal_energy": -1.67, "cluster_size": 22, "cluster_id": 1, "rank_in_cluster": 22}

>  <energy>  (48) 
-6.42

>  <cluster_rmsd>  (48) 
0.0

>  <cluster>  (48) 
8

$$$$

     RDKit          3D

 59 62  0  0  0  0  0  0  0  0999 V2000
  139.6370   73.4960  222.3300 O   0  0  0  0  0  0  0  0  0  0  0  0
  140.2370   72.3690  222.3950 C   0  0  0  0  0  0  0  0  0  0  0  0
  140.9470   72.0030  221.2070 N   0  0  0  0  0  0  0  0  0  0  0  0
  140.9200   72.8940  220.1070 C   0  0  0  0  0  0  0  0  0  0  0  0
  141.8000   74.0370  220.0430 C   0  0  0  0  0  0  0  0  0  0  0  0
  142.8530   73.9260  220.8250 O   0  0  0  0  0  0  0  0  0  0  0  0
  141.7510   75.2330  219.3190 N   0  0  0  0  0  0  0  0  0  0  0  0
  141.0560   75.6980  218.1500 C   0  0  0  0  0  0  0  0  0  0  0  0
  142.1140   76.4830  217.3910 C   0  0  0  0  0  0  0  0  0  0  0  0
  143.2780   76.6470  218.3460 C   0  0  0  0  0  0  0  0  0  0  0  0
  142.5850   76.4020  219.6950 C   0  0  1  0  0  0  0  0  0  0  0  0
  141.8090   77.6190  220.0270 C   0  0  0  0  0  0  0  0  0  0  0  0
  141.6620   77.9440  221.3990 N   0  0  0  0  0  0  0  0  0  0  0  0
  140.9000   79.0950  221.7290 C   0  0  0  0  0  0  0  0  0  0  0  0
  140.5250   79.1070  223.1800 C   0  0  0  0  0  0  0  0  0  0  0  0
  141.8320   79.1310  223.9810 C   0  0  0  0  0  0  0  0  0  0  0  0
  142.4880   80.4820  223.8110 C   0  0  0  0  0  0  0  0  0  0  0  0
  141.8580   81.2410  222.6540 C   0  0  0  0  0  0  0  0  0  0  0  0
  141.8020   80.3100  221.4650 C   0  0  0  0  0  0  0  0  0  0  0  0
  140.1960   71.5350  223.5840 C   0  0  0  0  0  0  0  0  0  0  0  0
  139.6020   70.2830  223.4500 C   0  0  0  0  0  0  0  0  0  0  0  0
  139.4900   69.3930  224.4790 C   0  0  0  0  0  0  0  0  0  0  0  0
  139.9980   69.7670  225.7150 C   0  0  0  0  0  0  0  0  0  0  0  0
  139.8880   68.8780  226.7560 C   0  0  0  0  0  0  0  0  0  0  0  0
  140.3900   69.2520  227.9730 C   0  0  0  0  0  0  0  0  0  0  0  0
  140.3050   68.4080  229.0290 F   0  0  0  0  0  0  0  0  0  0  0  0
  140.9740   70.4880  228.0930 C   0  0  0  0  0  0  0  0  0  0  0  0
  141.0820   71.3800  227.0400 C   0  0  0  0  0  0  0  0  0  0  0  0
  140.5720   71.0040  225.8010 C   0  0  0  0  0  0  0  0  0  0  0  0
  140.6740   71.8680  224.7740 N   0  0  0  0  0  0  0  0  0  0  0  0
  141.4480   71.0790  221.2340 H   0  0  0  0  0  0  0  0  0  0  0  0
  141.1300   72.2896  219.2122 H   0  0  0  0  0  0  0  0  0  0  0  0
  139.9294   73.3621  220.2047 H   0  0  0  0  0  0  0  0  0  0  0  0
  140.6887   74.8526  217.5497 H   0  0  0  0  0  0  0  0  0  0  0  0
  140.1692   76.3018  218.3929 H   0  0  0  0  0  0  0  0  0  0  0  0
  142.4304   75.9298  216.4944 H   0  0  0  0  0  0  0  0  0  0  0  0
  141.7288   77.4569  217.0546 H   0  0  0  0  0  0  0  0  0  0  0  0
  144.0654   75.9030  218.1550 H   0  0  0  0  0  0  0  0  0  0  0  0
  143.7946   77.6152  218.2701 H   0  0  0  0  0  0  0  0  0  0  0  0
  143.2061   76.2125  220.5829 H   0  0  0  0  0  0  0  0  0  0  0  0
  142.3046   78.4703  219.5374 H   0  0  0  0  0  0  0  0  0  0  0  0
  140.7881   77.4063  219.6770 H   0  0  0  0  0  0  0  0  0  0  0  0
  142.4840   77.7430  221.9780 H   0  0  0  0  0  0  0  0  0  0  0  0
  139.9757   79.1077  221.1327 H   0  0  0  0  0  0  0  0  0  0  0  0
  139.9259   80.0010  223.4079 H   0  0  0  0  0  0  0  0  0  0  0  0
  139.9234   78.2227  223.4371 H   0  0  0  0  0  0  0  0  0  0  0  0
  141.6156   78.9573  225.0454 H   0  0  0  0  0  0  0  0  0  0  0  0
  142.5061   78.3418  223.6165 H   0  0  0  0  0  0  0  0  0  0  0  0
  142.3625   81.0638  224.7361 H   0  0  0  0  0  0  0  0  0  0  0  0
  143.5567   80.3329  223.5973 H   0  0  0  0  0  0  0  0  0  0  0  0
  140.8415   81.5614  222.9263 H   0  0  0  0  0  0  0  0  0  0  0  0
  142.4515   82.1354  222.4134 H   0  0  0  0  0  0  0  0  0  0  0  0
  141.4090   80.8628  220.5990 H   0  0  0  0  0  0  0  0  0  0  0  0
  142.8207   79.9421  221.2726 H   0  0  0  0  0  0  0  0  0  0  0  0
  139.2030   69.9966  222.4657 H   0  0  0  0  0  0  0  0  0  0  0  0
  139.0132   68.4125  224.3333 H   0  0  0  0  0  0  0  0  0  0  0  0
  139.4115   67.8965  226.6161 H   0  0  0  0  0  0  0  0  0  0  0  0
  141.3757   70.7842  229.0733 H   0  0  0  0  0  0  0  0  0  0  0  0
  141.5590   72.3614  227.1791 H   0  0  0  0  0  0  0  0  0  0  0  0
  1  2  2  0
  2  3  1  0
  3  4  1  0
  4  5  1  0
  5  6  2  0
  5  7  1  0
  7  8  1  0
  8  9  1  0
  9 10  1  0
 10 11  1  0
 11 12  1  0
 12 13  1  0
 13 14  1  0
 14 15  1  0
 15 16  1  0
 16 17  1  0
 17 18  1  0
 18 19  1  0
  2 20  1  0
 20 21  2  0
 21 22  1  0
 22 23  2  0
 23 24  1  0
 24 25  2  0
 25 26  1  0
 25 27  1  0
 27 28  2  0
 28 29  1  0
 29 30  2  0
 11  7  1  0
 19 14  1  0
 30 20  1  0
 29 23  1  0
  3 31  1  0
  4 32  1  0
  4 33  1  0
  8 34  1  0
  8 35  1  0
  9 36  1  0
  9 37  1  0
 10 38  1  0
 10 39  1  0
 11 40  1  1
 12 41  1  0
 12 42  1  0
 13 43  1  0
 14 44  1  0
 15 45  1  0
 15 46  1  0
 16 47  1  0
 16 48  1  0
 17 49  1  0
 17 50  1  0
 18 51  1  0
 18 52  1  0
 19 53  1  0
 19 54  1  0
 21 55  1  0
 22 56  1  0
 24 57  1  0
 27 58  1  0
 28 59  1  0
M  END
>  <smiles>  (49) 
O=C(NCC(=O)N1CCC[C@H]1CNC1CCCCC1)c1ccc2cc(F)ccc2n1

>  <score_type>  (49) 
oracle

>  <origin>  (49) 
autodockgpu

>  <m_score__min__energy>  (49) 
-8.9399999999999995

>  <m_primary>  (49) 
energy

>  <rmsd>  (49) 
2.457951528652542

>  <m_score__min__rmsd>  (49) 
2.457951528652542

>  <meeko>  (49) 
{"free_energy": -8.87, "intermolecular_energy": -10.96, "internal_energy": -1.32, "cluster_size": 22, "cluster_id": 1, "rank_in_cluster": 4}

>  <energy>  (49) 
-6.25

>  <cluster_rmsd>  (49) 
1.73

>  <cluster>  (49) 
8

$$$$

     RDKit          3D

 59 62  0  0  0  0  0  0  0  0999 V2000
  141.2870   71.8810  221.5590 O   0  0  0  0  0  0  0  0  0  0  0  0
  140.3850   72.1830  222.4130 C   0  0  0  0  0  0  0  0  0  0  0  0
  139.5480   73.2790  222.0330 N   0  0  0  0  0  0  0  0  0  0  0  0
  139.7870   73.9060  220.7860 C   0  0  0  0  0  0  0  0  0  0  0  0
  139.1460   75.1520  220.4350 C   0  0  0  0  0  0  0  0  0  0  0  0
  138.2400   75.0220  219.4890 O   0  0  0  0  0  0  0  0  0  0  0  0
  139.3020   76.4620  220.9000 N   0  0  0  0  0  0  0  0  0  0  0  0
  138.4380   77.5950  221.0880 C   0  0  0  0  0  0  0  0  0  0  0  0
  139.2690   78.7680  220.5920 C   0  0  0  0  0  0  0  0  0  0  0  0
  140.6780   78.2390  220.4200 C   0  0  0  0  0  0  0  0  0  0  0  0
  140.6290   76.9870  221.3080 C   0  0  1  0  0  0  0  0  0  0  0  0
  140.6960   77.4360  222.7180 C   0  0  0  0  0  0  0  0  0  0  0  0
  141.8140   78.2190  223.1000 N   0  0  0  0  0  0  0  0  0  0  0  0
  141.5730   79.3930  223.8590 C   0  0  0  0  0  0  0  0  0  0  0  0
  142.5110   80.4970  223.4760 C   0  0  0  0  0  0  0  0  0  0  0  0
  142.2620   80.8040  221.9950 C   0  0  0  0  0  0  0  0  0  0  0  0
  140.9130   81.4690  221.8510 C   0  0  0  0  0  0  0  0  0  0  0  0
  140.0970   81.3070  223.1240 C   0  0  0  0  0  0  0  0  0  0  0  0
  140.1450   79.8490  223.5220 C   0  0  0  0  0  0  0  0  0  0  0  0
  140.2310   71.4640  223.6660 C   0  0  0  0  0  0  0  0  0  0  0  0
  139.5260   70.2630  223.6160 C   0  0  0  0  0  0  0  0  0  0  0  0
  139.3010   69.4810  224.7110 C   0  0  0  0  0  0  0  0  0  0  0  0
  139.8050   69.9140  225.9310 C   0  0  0  0  0  0  0  0  0  0  0  0
  139.5810   69.1330  227.0380 C   0  0  0  0  0  0  0  0  0  0  0  0
  140.0800   69.5650  228.2370 C   0  0  0  0  0  0  0  0  0  0  0  0
  139.8860   68.8290  229.3560 F   0  0  0  0  0  0  0  0  0  0  0  0
  140.7720   70.7500  228.2740 C   0  0  0  0  0  0  0  0  0  0  0  0
  140.9940   71.5330  227.1540 C   0  0  0  0  0  0  0  0  0  0  0  0
  140.4890   71.0970  225.9330 C   0  0  0  0  0  0  0  0  0  0  0  0
  140.7010   71.8550  224.8410 N   0  0  0  0  0  0  0  0  0  0  0  0
  138.7980   73.5480  222.7190 H   0  0  0  0  0  0  0  0  0  0  0  0
  140.8705   74.0879  220.7322 H   0  0  0  0  0  0  0  0  0  0  0  0
  139.3367   73.1985  220.0742 H   0  0  0  0  0  0  0  0  0  0  0  0
  137.5170   77.4885  220.4960 H   0  0  0  0  0  0  0  0  0  0  0  0
  138.1124   77.7143  222.1319 H   0  0  0  0  0  0  0  0  0  0  0  0
  138.8782   79.1339  219.6310 H   0  0  0  0  0  0  0  0  0  0  0  0
  139.2386   79.6104  221.2987 H   0  0  0  0  0  0  0  0  0  0  0  0
  140.8885   77.9828  219.3712 H   0  0  0  0  0  0  0  0  0  0  0  0
  141.4682   78.9556  220.6883 H   0  0  0  0  0  0  0  0  0  0  0  0
  141.4290   76.2382  221.2113 H   0  0  0  0  0  0  0  0  0  0  0  0
  139.7926   78.0307  222.9184 H   0  0  0  0  0  0  0  0  0  0  0  0
  140.7872   76.5099  223.3045 H   0  0  0  0  0  0  0  0  0  0  0  0
  142.5700   78.2540  222.4080 H   0  0  0  0  0  0  0  0  0  0  0  0
  141.7143   79.1750  224.9279 H   0  0  0  0  0  0  0  0  0  0  0  0
  142.3115   81.3906  224.0856 H   0  0  0  0  0  0  0  0  0  0  0  0
  143.5565   80.1996  223.6446 H   0  0  0  0  0  0  0  0  0  0  0  0
  143.0471   81.4775  221.6208 H   0  0  0  0  0  0  0  0  0  0  0  0
  142.2803   79.8704  221.4136 H   0  0  0  0  0  0  0  0  0  0  0  0
  141.0580   82.5405  221.6486 H   0  0  0  0  0  0  0  0  0  0  0  0
  140.3709   80.9944  221.0198 H   0  0  0  0  0  0  0  0  0  0  0  0
  140.5256   81.9277  223.9246 H   0  0  0  0  0  0  0  0  0  0  0  0
  139.0574   81.6254  222.9569 H   0  0  0  0  0  0  0  0  0  0  0  0
  139.5066   79.7005  224.4054 H   0  0  0  0  0  0  0  0  0  0  0  0
  139.7889   79.2515  222.6699 H   0  0  0  0  0  0  0  0  0  0  0  0
  139.1312   69.9288  222.6452 H   0  0  0  0  0  0  0  0  0  0  0  0
  138.7391   68.5388  224.6305 H   0  0  0  0  0  0  0  0  0  0  0  0
  139.0186   68.1906  226.9635 H   0  0  0  0  0  0  0  0  0  0  0  0
  141.1694   71.0941  229.2403 H   0  0  0  0  0  0  0  0  0  0  0  0
  141.5555   72.4760  227.2276 H   0  0  0  0  0  0  0  0  0  0  0  0
  1  2  2  0
  2  3  1  0
  3  4  1  0
  4  5  1  0
  5  6  2  0
  5  7  1  0
  7  8  1  0
  8  9  1  0
  9 10  1  0
 10 11  1  0
 11 12  1  0
 12 13  1  0
 13 14  1  0
 14 15  1  0
 15 16  1  0
 16 17  1  0
 17 18  1  0
 18 19  1  0
  2 20  1  0
 20 21  2  0
 21 22  1  0
 22 23  2  0
 23 24  1  0
 24 25  2  0
 25 26  1  0
 25 27  1  0
 27 28  2  0
 28 29  1  0
 29 30  2  0
 11  7  1  0
 19 14  1  0
 30 20  1  0
 29 23  1  0
  3 31  1  0
  4 32  1  0
  4 33  1  0
  8 34  1  0
  8 35  1  0
  9 36  1  0
  9 37  1  0
 10 38  1  0
 10 39  1  0
 11 40  1  6
 12 41  1  0
 12 42  1  0
 13 43  1  0
 14 44  1  0
 15 45  1  0
 15 46  1  0
 16 47  1  0
 16 48  1  0
 17 49  1  0
 17 50  1  0
 18 51  1  0
 18 52  1  0
 19 53  1  0
 19 54  1  0
 21 55  1  0
 22 56  1  0
 24 57  1  0
 27 58  1  0
 28 59  1  0
M  END
>  <smiles>  (50) 
O=C(NCC(=O)N1CCC[C@H]1CNC1CCCCC1)c1ccc2cc(F)ccc2n1

>  <score_type>  (50) 
oracle

>  <origin>  (50) 
autodockgpu

>  <m_score__min__energy>  (50) 
-8.9399999999999995

>  <m_primary>  (50) 
energy

>  <rmsd>  (50) 
2.2337187261701046

>  <m_score__min__rmsd>  (50) 
2.2337187261701046

>  <meeko>  (50) 
{"free_energy": -8.48, "intermolecular_energy": -10.57, "internal_energy": -1.55, "cluster_size": 22, "cluster_id": 1, "rank_in_cluster": 14}

>  <energy>  (50) 
-6.14

>  <cluster_rmsd>  (50) 
1.76

>  <cluster>  (50) 
8

$$$$
