
     RDKit          3D

 57 61  0  0  0  0  0  0  0  0999 V2000
  139.9590   74.2790  221.9570 O   0  0  0  0  0  0  0  0  0  0  0  0
  140.2260   75.5100  221.8520 C   0  0  0  0  0  0  0  0  0  0  0  0
  141.4900   75.8540  221.2940 N   0  0  0  0  0  0  0  0  0  0  0  0
  142.4670   74.9120  220.8480 C   0  0  0  0  0  0  0  0  0  0  0  0
  142.4690   74.7430  219.3700 C   0  0  0  0  0  0  0  0  0  0  0  0
  142.6320   73.6350  218.7990 O   0  0  0  0  0  0  0  0  0  0  0  0
  142.2730   75.9010  218.5650 N   0  0  0  0  0  0  0  0  0  0  0  0
  143.3230   76.6990  217.9750 C   0  0  0  0  0  0  0  0  0  0  0  0
  142.6980   77.4730  216.8460 C   0  0  0  0  0  0  0  0  0  0  0  0
  141.2720   76.9670  216.7710 C   0  0  0  0  0  0  0  0  0  0  0  0
  141.0200   76.5160  218.1730 C   0  0  2  0  0  0  0  0  0  0  0  0
  140.8600   77.7540  219.0050 C   0  0  0  0  0  0  0  0  0  0  0  0
  139.8370   78.6270  219.0180 N   0  0  0  0  0  0  0  0  0  0  0  0
  140.1800   79.5670  219.9440 C   0  0  0  0  0  0  0  0  0  0  0  0
  141.4100   79.2380  220.4710 C   0  0  0  0  0  0  0  0  0  0  0  0
  142.1860   79.9830  221.5210 C   0  0  0  0  0  0  0  0  0  0  0  0
  141.3980   81.1840  222.0200 C   0  0  0  0  0  0  0  0  0  0  0  0
  142.1980   81.5200  223.2800 C   0  0  0  0  0  0  0  0  0  0  0  0
  142.6720   80.1730  223.8080 C   0  0  0  0  0  0  0  0  0  0  0  0
  142.3250   79.1470  222.7470 C   0  0  0  0  0  0  0  0  0  0  0  0
  141.7750   78.1310  219.8670 O   0  0  0  0  0  0  0  0  0  0  0  0
  139.2850   76.5470  222.2840 C   0  0  0  0  0  0  0  0  0  0  0  0
  137.9370   76.3160  222.1000 C   0  0  0  0  0  0  0  0  0  0  0  0
  136.9820   77.2540  222.4840 C   0  0  0  0  0  0  0  0  0  0  0  0
  137.4560   78.4220  223.0570 C   0  0  0  0  0  0  0  0  0  0  0  0
  136.5760   79.4050  223.4660 C   0  0  0  0  0  0  0  0  0  0  0  0
  136.9830   80.5900  224.0430 C   0  0  0  0  0  0  0  0  0  0  0  0
  135.8010   81.7790  224.5310 Cl  0  0  0  0  0  0  0  0  0  0  0  0
  138.3420   80.7710  224.2040 C   0  0  0  0  0  0  0  0  0  0  0  0
  139.2700   79.8180  223.8110 C   0  0  0  0  0  0  0  0  0  0  0  0
  138.8200   78.6320  223.2310 C   0  0  0  0  0  0  0  0  0  0  0  0
  139.7240   77.7040  222.8490 N   0  0  0  0  0  0  0  0  0  0  0  0
  141.7190   76.8790  221.2050 H   0  0  0  0  0  0  0  0  0  0  0  0
  143.4615   75.2603  221.1637 H   0  0  0  0  0  0  0  0  0  0  0  0
  142.2168   73.9378  221.2934 H   0  0  0  0  0  0  0  0  0  0  0  0
  143.7394   77.3898  218.7229 H   0  0  0  0  0  0  0  0  0  0  0  0
  144.1445   76.0642  217.6114 H   0  0  0  0  0  0  0  0  0  0  0  0
  142.7154   78.5519  217.0598 H   0  0  0  0  0  0  0  0  0  0  0  0
  143.2382   77.3328  215.8981 H   0  0  0  0  0  0  0  0  0  0  0  0
  140.5790   77.7703  216.4803 H   0  0  0  0  0  0  0  0  0  0  0  0
  141.1241   76.1764  216.0207 H   0  0  0  0  0  0  0  0  0  0  0  0
  140.1479   75.8542  218.2797 H   0  0  0  0  0  0  0  0  0  0  0  0
  139.5755   80.4424  220.2239 H   0  0  0  0  0  0  0  0  0  0  0  0
  143.1466   80.2552  221.0594 H   0  0  0  0  0  0  0  0  0  0  0  0
  141.4114   82.0112  221.2950 H   0  0  0  0  0  0  0  0  0  0  0  0
  140.3265   80.9991  222.1865 H   0  0  0  0  0  0  0  0  0  0  0  0
  143.0554   82.1640  223.0348 H   0  0  0  0  0  0  0  0  0  0  0  0
  141.5973   82.0689  224.0201 H   0  0  0  0  0  0  0  0  0  0  0  0
  143.7588   80.1923  223.9766 H   0  0  0  0  0  0  0  0  0  0  0  0
  142.1911   79.9308  224.7672 H   0  0  0  0  0  0  0  0  0  0  0  0
  143.1295   78.4056  222.6331 H   0  0  0  0  0  0  0  0  0  0  0  0
  141.4240   78.5614  222.9822 H   0  0  0  0  0  0  0  0  0  0  0  0
  137.6101   75.3715  221.6406 H   0  0  0  0  0  0  0  0  0  0  0  0
  135.9061   77.0761  222.3395 H   0  0  0  0  0  0  0  0  0  0  0  0
  135.4985   79.2346  223.3248 H   0  0  0  0  0  0  0  0  0  0  0  0
  138.7020   81.7048  224.6605 H   0  0  0  0  0  0  0  0  0  0  0  0
  140.3461   79.9951  223.9548 H   0  0  0  0  0  0  0  0  0  0  0  0
  1  2  2  0
  2  3  1  0
  3  4  1  0
  4  5  1  0
  5  6  2  0
  5  7  1  0
  7  8  1  0
  8  9  1  0
  9 10  1  0
 10 11  1  0
 11 12  1  0
 12 13  2  0
 13 14  1  0
 14 15  2  0
 15 16  1  0
 16 17  1  0
 17 18  1  0
 18 19  1  0
 19 20  1  0
 15 21  1  0
  2 22  1  0
 22 23  2  0
 23 24  1  0
 24 25  2  0
 25 26  1  0
 26 27  2  0
 27 28  1  0
 27 29  1  0
 29 30  2  0
 30 31  1  0
 31 32  2  0
 11  7  1  0
 21 12  1  0
 32 22  1  0
 20 16  1  0
 31 25  1  0
  3 33  1  0
  4 34  1  0
  4 35  1  0
  8 36  1  0
  8 37  1  0
  9 38  1  0
  9 39  1  0
 10 40  1  0
 10 41  1  0
 11 42  1  6
 14 43  1  0
 16 44  1  0
 17 45  1  0
 17 46  1  0
 18 47  1  0
 18 48  1  0
 19 49  1  0
 19 50  1  0
 20 51  1  0
 20 52  1  0
 23 53  1  0
 24 54  1  0
 26 55  1  0
 29 56  1  0
 30 57  1  0
M  END
>  <smiles>  (1) 
O=C(NCC(=O)N1CCC[C@@H]1c1ncc(C2CCCC2)o1)c1ccc2cc(Cl)ccc2n1

>  <score_type>  (1) 
oracle

>  <origin>  (1) 
autodockgpu

>  <m_score__min__energy>  (1) 
-8.9900000000000002

>  <m_primary>  (1) 
energy

>  <rmsd>  (1) 
6.2780697572727

>  <m_score__min__rmsd>  (1) 
6.2780697572727

>  <meeko>  (1) 
{"free_energy": -6.34, "intermolecular_energy": -8.13, "internal_energy": -4.23, "cluster_size": 5, "cluster_id": 7, "rank_in_cluster": 4}

>  <energy>  (1) 
-8.99

>  <cluster_rmsd>  (1) 
0.0

>  <cluster>  (1) 
1

$$$$

     RDKit          3D

 57 61  0  0  0  0  0  0  0  0999 V2000
  142.8990   76.3390  218.0650 O   0  0  0  0  0  0  0  0  0  0  0  0
  142.5180   76.9510  219.1030 C   0  0  0  0  0  0  0  0  0  0  0  0
  142.5300   76.2250  220.3270 N   0  0  0  0  0  0  0  0  0  0  0  0
  142.9410   74.8620  220.4610 C   0  0  0  0  0  0  0  0  0  0  0  0
  141.7950   73.9310  220.6370 C   0  0  0  0  0  0  0  0  0  0  0  0
  141.9230   72.6840  220.7350 O   0  0  0  0  0  0  0  0  0  0  0  0
  140.4850   74.4880  220.6980 N   0  0  0  0  0  0  0  0  0  0  0  0
  139.7330   74.9870  219.5700 C   0  0  0  0  0  0  0  0  0  0  0  0
  138.2880   75.0020  219.9850 C   0  0  0  0  0  0  0  0  0  0  0  0
  138.2710   74.3710  221.3620 C   0  0  0  0  0  0  0  0  0  0  0  0
  139.6460   74.6700  221.8660 C   0  0  2  0  0  0  0  0  0  0  0  0
  139.6750   76.1330  222.2020 C   0  0  0  0  0  0  0  0  0  0  0  0
  138.6930   77.0410  222.0700 N   0  0  0  0  0  0  0  0  0  0  0  0
  139.2270   78.2130  222.5140 C   0  0  0  0  0  0  0  0  0  0  0  0
  140.5280   77.9840  222.9070 C   0  0  0  0  0  0  0  0  0  0  0  0
  141.5070   78.9810  223.4630 C   0  0  0  0  0  0  0  0  0  0  0  0
  142.5940   79.2900  222.4450 C   0  0  0  0  0  0  0  0  0  0  0  0
  143.1990   80.5450  223.0790 C   0  0  0  0  0  0  0  0  0  0  0  0
  142.0220   81.2520  223.7350 C   0  0  0  0  0  0  0  0  0  0  0  0
  140.8440   80.3020  223.6500 C   0  0  0  0  0  0  0  0  0  0  0  0
  140.7470   76.7070  222.6960 O   0  0  0  0  0  0  0  0  0  0  0  0
  142.0790   78.3490  219.0610 C   0  0  0  0  0  0  0  0  0  0  0  0
  140.9480   78.6950  219.7710 C   0  0  0  0  0  0  0  0  0  0  0  0
  140.4690   80.0030  219.7790 C   0  0  0  0  0  0  0  0  0  0  0  0
  141.1850   80.9300  219.0410 C   0  0  0  0  0  0  0  0  0  0  0  0
  140.7780   82.2490  218.9950 C   0  0  0  0  0  0  0  0  0  0  0  0
  141.4460   83.2200  218.2780 C   0  0  0  0  0  0  0  0  0  0  0  0
  140.8610   84.8650  218.2760 Cl  0  0  0  0  0  0  0  0  0  0  0  0
  142.5720   82.8220  217.5860 C   0  0  0  0  0  0  0  0  0  0  0  0
  143.0240   81.5110  217.5970 C   0  0  0  0  0  0  0  0  0  0  0  0
  142.3230   80.5560  218.3320 C   0  0  0  0  0  0  0  0  0  0  0  0
  142.7650   79.2800  218.3430 N   0  0  0  0  0  0  0  0  0  0  0  0
  142.2130   76.7300  221.1960 H   0  0  0  0  0  0  0  0  0  0  0  0
  143.4949   74.5710  219.5563 H   0  0  0  0  0  0  0  0  0  0  0  0
  143.5675   74.7913  221.3624 H   0  0  0  0  0  0  0  0  0  0  0  0
  140.0642   76.0042  219.3140 H   0  0  0  0  0  0  0  0  0  0  0  0
  139.8830   74.3531  218.6836 H   0  0  0  0  0  0  0  0  0  0  0  0
  137.9082   76.0335  220.0273 H   0  0  0  0  0  0  0  0  0  0  0  0
  137.6473   74.4604  219.2735 H   0  0  0  0  0  0  0  0  0  0  0  0
  137.5034   74.8311  222.0016 H   0  0  0  0  0  0  0  0  0  0  0  0
  138.0290   73.2980  221.3520 H   0  0  0  0  0  0  0  0  0  0  0  0
  139.9485   74.0601  222.7300 H   0  0  0  0  0  0  0  0  0  0  0  0
  138.7063   79.1812  222.5525 H   0  0  0  0  0  0  0  0  0  0  0  0
  141.8961   78.5454  224.3951 H   0  0  0  0  0  0  0  0  0  0  0  0
  143.3286   78.4746  222.3713 H   0  0  0  0  0  0  0  0  0  0  0  0
  142.2397   79.4166  221.4114 H   0  0  0  0  0  0  0  0  0  0  0  0
  143.9561   80.2740  223.8296 H   0  0  0  0  0  0  0  0  0  0  0  0
  143.7072   81.1813  222.3395 H   0  0  0  0  0  0  0  0  0  0  0  0
  142.2528   81.4772  224.7867 H   0  0  0  0  0  0  0  0  0  0  0  0
  141.8006   82.2045  223.2313 H   0  0  0  0  0  0  0  0  0  0  0  0
  140.2504   80.3212  224.5759 H   0  0  0  0  0  0  0  0  0  0  0  0
  140.1349   80.5539  222.8477 H   0  0  0  0  0  0  0  0  0  0  0  0
  140.4134   77.9221  220.3426 H   0  0  0  0  0  0  0  0  0  0  0  0
  139.5677   80.2850  220.3430 H   0  0  0  0  0  0  0  0  0  0  0  0
  139.8780   82.5392  219.5570 H   0  0  0  0  0  0  0  0  0  0  0  0
  143.1305   83.5710  217.0054 H   0  0  0  0  0  0  0  0  0  0  0  0
  143.9248   81.2280  217.0326 H   0  0  0  0  0  0  0  0  0  0  0  0
  1  2  2  0
  2  3  1  0
  3  4  1  0
  4  5  1  0
  5  6  2  0
  5  7  1  0
  7  8  1  0
  8  9  1  0
  9 10  1  0
 10 11  1  0
 11 12  1  0
 12 13  2  0
 13 14  1  0
 14 15  2  0
 15 16  1  0
 16 17  1  0
 17 18  1  0
 18 19  1  0
 19 20  1  0
 15 21  1  0
  2 22  1  0
 22 23  2  0
 23 24  1  0
 24 25  2  0
 25 26  1  0
 26 27  2  0
 27 28  1  0
 27 29  1  0
 29 30  2  0
 30 31  1  0
 31 32  2  0
 11  7  1  0
 21 12  1  0
 32 22  1  0
 20 16  1  0
 31 25  1  0
  3 33  1  0
  4 34  1  0
  4 35  1  0
  8 36  1  0
  8 37  1  0
  9 38  1  0
  9 39  1  0
 10 40  1  0
 10 41  1  0
 11 42  1  1
 14 43  1  0
 16 44  1  0
 17 45  1  0
 17 46  1  0
 18 47  1  0
 18 48  1  0
 19 49  1  0
 19 50  1  0
 20 51  1  0
 20 52  1  0
 23 53  1  0
 24 54  1  0
 26 55  1  0
 29 56  1  0
 30 57  1  0
M  END
>  <smiles>  (2) 
O=C(NCC(=O)N1CCC[C@@H]1c1ncc(C2CCCC2)o1)c1ccc2cc(Cl)ccc2n1

>  <score_type>  (2) 
oracle

>  <origin>  (2) 
autodockgpu

>  <m_score__min__energy>  (2) 
-8.9900000000000002

>  <m_primary>  (2) 
energy

>  <rmsd>  (2) 
8.456903465024471

>  <m_score__min__rmsd>  (2) 
8.456903465024471

>  <meeko>  (2) 
{"free_energy": -6.5, "intermolecular_energy": -8.29, "internal_energy": -3.87, "cluster_size": 14, "cluster_id": 8, "rank_in_cluster": 5}

>  <energy>  (2) 
-8.97

>  <cluster_rmsd>  (2) 
0.22

>  <cluster>  (2) 
1

$$$$

     RDKit          3D

 57 61  0  0  0  0  0  0  0  0999 V2000
  142.6540   76.4080  218.1670 O   0  0  0  0  0  0  0  0  0  0  0  0
  142.4130   77.1280  219.1780 C   0  0  0  0  0  0  0  0  0  0  0  0
  142.3750   76.4780  220.4430 N   0  0  0  0  0  0  0  0  0  0  0  0
  142.5900   75.0800  220.6490 C   0  0  0  0  0  0  0  0  0  0  0  0
  141.3440   74.2800  220.5110 C   0  0  0  0  0  0  0  0  0  0  0  0
  141.3350   73.0360  220.3320 O   0  0  0  0  0  0  0  0  0  0  0  0
  140.0980   74.9660  220.5890 N   0  0  0  0  0  0  0  0  0  0  0  0
  139.4340   75.6260  219.4890 C   0  0  0  0  0  0  0  0  0  0  0  0
  137.9870   75.7620  219.8740 C   0  0  0  0  0  0  0  0  0  0  0  0
  137.8670   75.0330  221.1970 C   0  0  0  0  0  0  0  0  0  0  0  0
  139.2500   75.1470  221.7500 C   0  0  2  0  0  0  0  0  0  0  0  0
  139.4210   76.5690  222.2010 C   0  0  0  0  0  0  0  0  0  0  0  0
  138.5220   77.5670  222.1770 N   0  0  0  0  0  0  0  0  0  0  0  0
  139.1720   78.6480  222.6940 C   0  0  0  0  0  0  0  0  0  0  0  0
  140.4580   78.2740  223.0190 C   0  0  0  0  0  0  0  0  0  0  0  0
  141.5390   79.1310  223.6160 C   0  0  0  0  0  0  0  0  0  0  0  0
  142.6690   79.3420  222.6200 C   0  0  0  0  0  0  0  0  0  0  0  0
  143.4070   80.4970  223.2990 C   0  0  0  0  0  0  0  0  0  0  0  0
  142.3110   81.3170  223.9660 C   0  0  0  0  0  0  0  0  0  0  0  0
  141.0320   80.5150  223.8390 C   0  0  0  0  0  0  0  0  0  0  0  0
  140.5540   77.0030  222.6990 O   0  0  0  0  0  0  0  0  0  0  0  0
  142.1780   78.5700  219.0630 C   0  0  0  0  0  0  0  0  0  0  0  0
  142.7540   79.2380  218.0020 C   0  0  0  0  0  0  0  0  0  0  0  0
  142.5770   80.6080  217.8260 C   0  0  0  0  0  0  0  0  0  0  0  0
  141.7980   81.2590  218.7680 C   0  0  0  0  0  0  0  0  0  0  0  0
  141.5730   82.6180  218.6680 C   0  0  0  0  0  0  0  0  0  0  0  0
  140.8070   83.3240  219.5730 C   0  0  0  0  0  0  0  0  0  0  0  0
  140.5740   85.0430  219.3700 Cl  0  0  0  0  0  0  0  0  0  0  0  0
  140.2540   82.6090  220.6150 C   0  0  0  0  0  0  0  0  0  0  0  0
  140.4480   81.2440  220.7640 C   0  0  0  0  0  0  0  0  0  0  0  0
  141.2290   80.5630  219.8300 C   0  0  0  0  0  0  0  0  0  0  0  0
  141.4170   79.2330  219.9750 N   0  0  0  0  0  0  0  0  0  0  0  0
  142.1730   77.0730  221.2900 H   0  0  0  0  0  0  0  0  0  0  0  0
  143.3206   74.7236  219.9080 H   0  0  0  0  0  0  0  0  0  0  0  0
  142.9562   74.9488  221.6779 H   0  0  0  0  0  0  0  0  0  0  0  0
  139.8761   76.6191  219.3207 H   0  0  0  0  0  0  0  0  0  0  0  0
  139.5425   75.0489  218.5588 H   0  0  0  0  0  0  0  0  0  0  0  0
  137.7149   76.8215  219.9896 H   0  0  0  0  0  0  0  0  0  0  0  0
  137.3137   75.3473  219.1094 H   0  0  0  0  0  0  0  0  0  0  0  0
  137.1332   75.5208  221.8555 H   0  0  0  0  0  0  0  0  0  0  0  0
  137.5166   73.9951  221.0977 H   0  0  0  0  0  0  0  0  0  0  0  0
  139.4634   74.4452  222.5697 H   0  0  0  0  0  0  0  0  0  0  0  0
  138.7418   79.6513  222.8292 H   0  0  0  0  0  0  0  0  0  0  0  0
  141.8619   78.6237  224.5371 H   0  0  0  0  0  0  0  0  0  0  0  0
  143.3046   78.4489  222.5281 H   0  0  0  0  0  0  0  0  0  0  0  0
  142.3462   79.5409  221.5874 H   0  0  0  0  0  0  0  0  0  0  0  0
  144.1172   80.1167  224.0480 H   0  0  0  0  0  0  0  0  0  0  0  0
  143.9957   81.0917  222.5851 H   0  0  0  0  0  0  0  0  0  0  0  0
  142.5522   81.4813  225.0266 H   0  0  0  0  0  0  0  0  0  0  0  0
  142.2092   82.3038  223.4908 H   0  0  0  0  0  0  0  0  0  0  0  0
  140.4322   80.5751  224.7592 H   0  0  0  0  0  0  0  0  0  0  0  0
  140.3680   80.8728  223.0383 H   0  0  0  0  0  0  0  0  0  0  0  0
  143.3657   78.6768  217.2802 H   0  0  0  0  0  0  0  0  0  0  0  0
  143.0328   81.1458  216.9816 H   0  0  0  0  0  0  0  0  0  0  0  0
  142.0259   83.1635  217.8270 H   0  0  0  0  0  0  0  0  0  0  0  0
  139.6370   83.1407  221.3543 H   0  0  0  0  0  0  0  0  0  0  0  0
  139.9920   80.7052  221.6077 H   0  0  0  0  0  0  0  0  0  0  0  0
  1  2  2  0
  2  3  1  0
  3  4  1  0
  4  5  1  0
  5  6  2  0
  5  7  1  0
  7  8  1  0
  8  9  1  0
  9 10  1  0
 10 11  1  0
 11 12  1  0
 12 13  2  0
 13 14  1  0
 14 15  2  0
 15 16  1  0
 16 17  1  0
 17 18  1  0
 18 19  1  0
 19 20  1  0
 15 21  1  0
  2 22  1  0
 22 23  2  0
 23 24  1  0
 24 25  2  0
 25 26  1  0
 26 27  2  0
 27 28  1  0
 27 29  1  0
 29 30  2  0
 30 31  1  0
 31 32  2  0
 11  7  1  0
 21 12  1  0
 32 22  1  0
 20 16  1  0
 31 25  1  0
  3 33  1  0
  4 34  1  0
  4 35  1  0
  8 36  1  0
  8 37  1  0
  9 38  1  0
  9 39  1  0
 10 40  1  0
 10 41  1  0
 11 42  1  1
 14 43  1  0
 16 44  1  0
 17 45  1  0
 17 46  1  0
 18 47  1  0
 18 48  1  0
 19 49  1  0
 19 50  1  0
 20 51  1  0
 20 52  1  0
 23 53  1  0
 24 54  1  0
 26 55  1  0
 29 56  1  0
 30 57  1  0
M  END
>  <smiles>  (3) 
O=C(NCC(=O)N1CCC[C@@H]1c1ncc(C2CCCC2)o1)c1ccc2cc(Cl)ccc2n1

>  <score_type>  (3) 
oracle

>  <origin>  (3) 
autodockgpu

>  <m_score__min__energy>  (3) 
-8.9900000000000002

>  <m_primary>  (3) 
energy

>  <rmsd>  (3) 
8.378846463310852

>  <m_score__min__rmsd>  (3) 
8.378846463310852

>  <meeko>  (3) 
{"free_energy": -6.42, "intermolecular_energy": -8.21, "internal_energy": -4.28, "cluster_size": 14, "cluster_id": 8, "rank_in_cluster": 8}

>  <energy>  (3) 
-8.94

>  <cluster_rmsd>  (3) 
0.34

>  <cluster>  (3) 
1

$$$$

     RDKit          3D

 57 61  0  0  0  0  0  0  0  0999 V2000
  137.6580   70.5450  221.5490 O   0  0  0  0  0  0  0  0  0  0  0  0
  138.3850   71.3280  222.2250 C   0  0  0  0  0  0  0  0  0  0  0  0
  138.5480   72.6520  221.7300 N   0  0  0  0  0  0  0  0  0  0  0  0
  137.9500   73.1530  220.5320 C   0  0  0  0  0  0  0  0  0  0  0  0
  136.8000   74.0580  220.8000 C   0  0  0  0  0  0  0  0  0  0  0  0
  135.6000   73.6840  220.7610 O   0  0  0  0  0  0  0  0  0  0  0  0
  137.0800   75.4180  221.1170 N   0  0  0  0  0  0  0  0  0  0  0  0
  137.0900   76.5130  220.1740 C   0  0  0  0  0  0  0  0  0  0  0  0
  136.9300   77.7760  220.9750 C   0  0  0  0  0  0  0  0  0  0  0  0
  136.7110   77.3080  222.3990 C   0  0  0  0  0  0  0  0  0  0  0  0
  137.4050   75.9850  222.4100 C   0  0  2  0  0  0  0  0  0  0  0  0
  138.8790   76.2690  222.4060 C   0  0  0  0  0  0  0  0  0  0  0  0
  139.8980   75.3970  222.3120 N   0  0  0  0  0  0  0  0  0  0  0  0
  141.0270   76.1590  222.3550 C   0  0  0  0  0  0  0  0  0  0  0  0
  140.6610   77.4820  222.4740 C   0  0  0  0  0  0  0  0  0  0  0  0
  141.5660   78.6790  222.5590 C   0  0  0  0  0  0  0  0  0  0  0  0
  140.8810   79.9120  221.9920 C   0  0  0  0  0  0  0  0  0  0  0  0
  141.8140   81.0020  222.5240 C   0  0  0  0  0  0  0  0  0  0  0  0
  142.2820   80.4820  223.8770 C   0  0  0  0  0  0  0  0  0  0  0  0
  141.7910   79.0520  223.9850 C   0  0  0  0  0  0  0  0  0  0  0  0
  139.3480   77.4900  222.5010 O   0  0  0  0  0  0  0  0  0  0  0  0
  139.0380   70.9010  223.4660 C   0  0  0  0  0  0  0  0  0  0  0  0
  139.9660   71.7480  224.0350 C   0  0  0  0  0  0  0  0  0  0  0  0
  140.6280   71.4130  225.2130 C   0  0  0  0  0  0  0  0  0  0  0  0
  140.3080   70.1900  225.7770 C   0  0  0  0  0  0  0  0  0  0  0  0
  140.9190   69.7800  226.9460 C   0  0  0  0  0  0  0  0  0  0  0  0
  140.6440   68.5740  227.5580 C   0  0  0  0  0  0  0  0  0  0  0  0
  141.4650   68.1350  229.0350 Cl  0  0  0  0  0  0  0  0  0  0  0  0
  139.7080   67.7630  226.9480 C   0  0  0  0  0  0  0  0  0  0  0  0
  139.0650   68.1250  225.7740 C   0  0  0  0  0  0  0  0  0  0  0  0
  139.3690   69.3510  225.1840 C   0  0  0  0  0  0  0  0  0  0  0  0
  138.7410   69.7040  224.0410 N   0  0  0  0  0  0  0  0  0  0  0  0
  139.1530   73.3090  222.2890 H   0  0  0  0  0  0  0  0  0  0  0  0
  138.7108   73.7091  219.9647 H   0  0  0  0  0  0  0  0  0  0  0  0
  137.5694   72.2909  219.9646 H   0  0  0  0  0  0  0  0  0  0  0  0
  138.0426   76.5310  219.6243 H   0  0  0  0  0  0  0  0  0  0  0  0
  136.2804   76.4072  219.4369 H   0  0  0  0  0  0  0  0  0  0  0  0
  137.8363   78.3956  220.9061 H   0  0  0  0  0  0  0  0  0  0  0  0
  136.0979   78.3959  220.6098 H   0  0  0  0  0  0  0  0  0  0  0  0
  137.1658   78.0023  223.1209 H   0  0  0  0  0  0  0  0  0  0  0  0
  135.6505   77.2513  222.6857 H   0  0  0  0  0  0  0  0  0  0  0  0
  137.1293   75.3422  223.2590 H   0  0  0  0  0  0  0  0  0  0  0  0
  142.0587   75.7808  222.3033 H   0  0  0  0  0  0  0  0  0  0  0  0
  142.4867   78.4086  222.0212 H   0  0  0  0  0  0  0  0  0  0  0  0
  140.8567   79.8963  220.8924 H   0  0  0  0  0  0  0  0  0  0  0  0
  139.8245   80.0271  222.2759 H   0  0  0  0  0  0  0  0  0  0  0  0
  142.6687   81.1459  221.8467 H   0  0  0  0  0  0  0  0  0  0  0  0
  141.3123   81.9777  222.6034 H   0  0  0  0  0  0  0  0  0  0  0  0
  143.3800   80.5117  223.9358 H   0  0  0  0  0  0  0  0  0  0  0  0
  141.8877   81.0998  224.6973 H   0  0  0  0  0  0  0  0  0  0  0  0
  142.5497   78.4053  224.4500 H   0  0  0  0  0  0  0  0  0  0  0  0
  140.8948   78.9426  224.6134 H   0  0  0  0  0  0  0  0  0  0  0  0
  140.1878   72.7088  223.5476 H   0  0  0  0  0  0  0  0  0  0  0  0
  141.3675   72.0857  225.6721 H   0  0  0  0  0  0  0  0  0  0  0  0
  141.6601   70.4465  227.4113 H   0  0  0  0  0  0  0  0  0  0  0  0
  139.4635   66.7950  227.4098 H   0  0  0  0  0  0  0  0  0  0  0  0
  138.3248   67.4537  225.3142 H   0  0  0  0  0  0  0  0  0  0  0  0
  1  2  2  0
  2  3  1  0
  3  4  1  0
  4  5  1  0
  5  6  2  0
  5  7  1  0
  7  8  1  0
  8  9  1  0
  9 10  1  0
 10 11  1  0
 11 12  1  0
 12 13  2  0
 13 14  1  0
 14 15  2  0
 15 16  1  0
 16 17  1  0
 17 18  1  0
 18 19  1  0
 19 20  1  0
 15 21  1  0
  2 22  1  0
 22 23  2  0
 23 24  1  0
 24 25  2  0
 25 26  1  0
 26 27  2  0
 27 28  1  0
 27 29  1  0
 29 30  2  0
 30 31  1  0
 31 32  2  0
 11  7  1  0
 21 12  1  0
 32 22  1  0
 20 16  1  0
 31 25  1  0
  3 33  1  0
  4 34  1  0
  4 35  1  0
  8 36  1  0
  8 37  1  0
  9 38  1  0
  9 39  1  0
 10 40  1  0
 10 41  1  0
 11 42  1  1
 14 43  1  0
 16 44  1  0
 17 45  1  0
 17 46  1  0
 18 47  1  0
 18 48  1  0
 19 49  1  0
 19 50  1  0
 20 51  1  0
 20 52  1  0
 23 53  1  0
 24 54  1  0
 26 55  1  0
 29 56  1  0
 30 57  1  0
M  END
>  <smiles>  (4) 
O=C(NCC(=O)N1CCC[C@@H]1c1ncc(C2CCCC2)o1)c1ccc2cc(Cl)ccc2n1

>  <score_type>  (4) 
oracle

>  <origin>  (4) 
autodockgpu

>  <m_score__min__energy>  (4) 
-8.9900000000000002

>  <m_primary>  (4) 
energy

>  <rmsd>  (4) 
3.712341631059996

>  <m_score__min__rmsd>  (4) 
3.712341631059996

>  <meeko>  (4) 
{"free_energy": -8.2, "intermolecular_energy": -9.99, "internal_energy": -2.4, "cluster_size": 6, "cluster_id": 3, "rank_in_cluster": 5}

>  <energy>  (4) 
-8.9

>  <cluster_rmsd>  (4) 
0.48

>  <cluster>  (4) 
1

$$$$

     RDKit          3D

 57 61  0  0  0  0  0  0  0  0999 V2000
  137.7280   70.5590  221.0540 O   0  0  0  0  0  0  0  0  0  0  0  0
  138.3880   71.3730  221.7610 C   0  0  0  0  0  0  0  0  0  0  0  0
  138.5070   72.7060  221.2760 N   0  0  0  0  0  0  0  0  0  0  0  0
  137.9330   73.1830  220.0560 C   0  0  0  0  0  0  0  0  0  0  0  0
  136.8050   74.1250  220.2820 C   0  0  0  0  0  0  0  0  0  0  0  0
  135.6470   73.9420  219.8270 O   0  0  0  0  0  0  0  0  0  0  0  0
  137.0550   75.2940  221.0570 N   0  0  0  0  0  0  0  0  0  0  0  0
  136.8580   76.6540  220.6090 C   0  0  0  0  0  0  0  0  0  0  0  0
  136.7550   77.5060  221.8440 C   0  0  0  0  0  0  0  0  0  0  0  0
  136.7860   76.5250  222.9980 C   0  0  0  0  0  0  0  0  0  0  0  0
  137.5460   75.3760  222.4180 C   0  0  2  0  0  0  0  0  0  0  0  0
  138.9830   75.8000  222.3410 C   0  0  0  0  0  0  0  0  0  0  0  0
  140.0480   75.0800  221.9480 N   0  0  0  0  0  0  0  0  0  0  0  0
  141.1130   75.9230  222.0610 C   0  0  0  0  0  0  0  0  0  0  0  0
  140.6630   77.1410  222.5230 C   0  0  0  0  0  0  0  0  0  0  0  0
  141.4780   78.3730  222.8000 C   0  0  0  0  0  0  0  0  0  0  0  0
  141.5740   79.2450  221.5580 C   0  0  0  0  0  0  0  0  0  0  0  0
  142.0930   80.5410  222.1840 C   0  0  0  0  0  0  0  0  0  0  0  0
  141.4460   80.5910  223.5610 C   0  0  0  0  0  0  0  0  0  0  0  0
  140.7640   79.2540  223.7680 C   0  0  0  0  0  0  0  0  0  0  0  0
  139.3650   77.0100  222.6750 O   0  0  0  0  0  0  0  0  0  0  0  0
  139.0120   70.9730  223.0250 C   0  0  0  0  0  0  0  0  0  0  0  0
  139.9500   71.8180  223.5810 C   0  0  0  0  0  0  0  0  0  0  0  0
  140.5850   71.5070  224.7810 C   0  0  0  0  0  0  0  0  0  0  0  0
  140.2270   70.3110  225.3800 C   0  0  0  0  0  0  0  0  0  0  0  0
  140.8100   69.9260  226.5710 C   0  0  0  0  0  0  0  0  0  0  0  0
  140.4970   68.7480  227.2180 C   0  0  0  0  0  0  0  0  0  0  0  0
  141.2840   68.3400  228.7230 Cl  0  0  0  0  0  0  0  0  0  0  0  0
  139.5530   67.9390  226.6200 C   0  0  0  0  0  0  0  0  0  0  0  0
  138.9370   68.2760  225.4240 C   0  0  0  0  0  0  0  0  0  0  0  0
  139.2790   69.4750  224.7990 C   0  0  0  0  0  0  0  0  0  0  0  0
  138.6780   69.8030  223.6340 N   0  0  0  0  0  0  0  0  0  0  0  0
  139.0570   73.3900  221.8600 H   0  0  0  0  0  0  0  0  0  0  0  0
  138.7133   73.7005  219.4787 H   0  0  0  0  0  0  0  0  0  0  0  0
  137.5353   72.3126  219.5135 H   0  0  0  0  0  0  0  0  0  0  0  0
  137.7113   76.9781  219.9951 H   0  0  0  0  0  0  0  0  0  0  0  0
  135.9509   76.7398  219.9927 H   0  0  0  0  0  0  0  0  0  0  0  0
  137.6040   78.2027  221.9054 H   0  0  0  0  0  0  0  0  0  0  0  0
  135.8431   78.1212  221.8478 H   0  0  0  0  0  0  0  0  0  0  0  0
  137.3082   76.9496  223.8681 H   0  0  0  0  0  0  0  0  0  0  0  0
  135.7879   76.2504  223.3700 H   0  0  0  0  0  0  0  0  0  0  0  0
  137.4419   74.4393  222.9853 H   0  0  0  0  0  0  0  0  0  0  0  0
  142.1575   75.6729  221.8232 H   0  0  0  0  0  0  0  0  0  0  0  0
  142.4563   78.0211  223.1593 H   0  0  0  0  0  0  0  0  0  0  0  0
  142.2826   78.8337  220.8240 H   0  0  0  0  0  0  0  0  0  0  0  0
  140.6378   79.3471  220.9896 H   0  0  0  0  0  0  0  0  0  0  0  0
  143.1893   80.5179  222.2711 H   0  0  0  0  0  0  0  0  0  0  0  0
  141.8472   81.4243  221.5763 H   0  0  0  0  0  0  0  0  0  0  0  0
  142.2117   80.7502  224.3345 H   0  0  0  0  0  0  0  0  0  0  0  0
  140.7251   81.4189  223.6306 H   0  0  0  0  0  0  0  0  0  0  0  0
  140.8939   78.8973  224.8004 H   0  0  0  0  0  0  0  0  0  0  0  0
  139.6760   79.2880  223.6093 H   0  0  0  0  0  0  0  0  0  0  0  0
  140.2017   72.7568  223.0660 H   0  0  0  0  0  0  0  0  0  0  0  0
  141.3328   72.1773  225.2300 H   0  0  0  0  0  0  0  0  0  0  0  0
  141.5598   70.5901  227.0258 H   0  0  0  0  0  0  0  0  0  0  0  0
  139.2790   66.9927  227.1093 H   0  0  0  0  0  0  0  0  0  0  0  0
  138.1888   67.6067  224.9744 H   0  0  0  0  0  0  0  0  0  0  0  0
  1  2  2  0
  2  3  1  0
  3  4  1  0
  4  5  1  0
  5  6  2  0
  5  7  1  0
  7  8  1  0
  8  9  1  0
  9 10  1  0
 10 11  1  0
 11 12  1  0
 12 13  2  0
 13 14  1  0
 14 15  2  0
 15 16  1  0
 16 17  1  0
 17 18  1  0
 18 19  1  0
 19 20  1  0
 15 21  1  0
  2 22  1  0
 22 23  2  0
 23 24  1  0
 24 25  2  0
 25 26  1  0
 26 27  2  0
 27 28  1  0
 27 29  1  0
 29 30  2  0
 30 31  1  0
 31 32  2  0
 11  7  1  0
 21 12  1  0
 32 22  1  0
 20 16  1  0
 31 25  1  0
  3 33  1  0
  4 34  1  0
  4 35  1  0
  8 36  1  0
  8 37  1  0
  9 38  1  0
  9 39  1  0
 10 40  1  0
 10 41  1  0
 11 42  1  1
 14 43  1  0
 16 44  1  0
 17 45  1  0
 17 46  1  0
 18 47  1  0
 18 48  1  0
 19 49  1  0
 19 50  1  0
 20 51  1  0
 20 52  1  0
 23 53  1  0
 24 54  1  0
 26 55  1  0
 29 56  1  0
 30 57  1  0
M  END
>  <smiles>  (5) 
O=C(NCC(=O)N1CCC[C@@H]1c1ncc(C2CCCC2)o1)c1ccc2cc(Cl)ccc2n1

>  <score_type>  (5) 
oracle

>  <origin>  (5) 
autodockgpu

>  <m_score__min__energy>  (5) 
-8.9900000000000002

>  <m_primary>  (5) 
energy

>  <rmsd>  (5) 
3.876886830866732

>  <m_score__min__rmsd>  (5) 
3.876886830866732

>  <meeko>  (5) 
{"free_energy": -7.94, "intermolecular_energy": -9.73, "internal_energy": -2.54, "cluster_size": 6, "cluster_id": 3, "rank_in_cluster": 6}

>  <energy>  (5) 
-8.81

>  <cluster_rmsd>  (5) 
1.19

>  <cluster>  (5) 
1

$$$$

     RDKit          3D

 57 61  0  0  0  0  0  0  0  0999 V2000
  142.4180   77.6500  217.8520 O   0  0  0  0  0  0  0  0  0  0  0  0
  142.2010   77.8870  219.0740 C   0  0  0  0  0  0  0  0  0  0  0  0
  142.8360   77.0380  220.0230 N   0  0  0  0  0  0  0  0  0  0  0  0
  143.6960   75.9460  219.6920 C   0  0  0  0  0  0  0  0  0  0  0  0
  143.0170   74.6270  219.7960 C   0  0  0  0  0  0  0  0  0  0  0  0
  143.5950   73.5310  219.5870 O   0  0  0  0  0  0  0  0  0  0  0  0
  141.6380   74.6120  220.1540 N   0  0  0  0  0  0  0  0  0  0  0  0
  140.5340   74.8150  219.2440 C   0  0  0  0  0  0  0  0  0  0  0  0
  139.3150   74.2360  219.9060 C   0  0  0  0  0  0  0  0  0  0  0  0
  139.8300   73.5960  221.1790 C   0  0  0  0  0  0  0  0  0  0  0  0
  141.0580   74.3980  221.4640 C   0  0  2  0  0  0  0  0  0  0  0  0
  140.5950   75.7370  221.9620 C   0  0  0  0  0  0  0  0  0  0  0  0
  139.3590   76.2640  221.9170 N   0  0  0  0  0  0  0  0  0  0  0  0
  139.4720   77.4910  222.4980 C   0  0  0  0  0  0  0  0  0  0  0  0
  140.7820   77.6780  222.8830 C   0  0  0  0  0  0  0  0  0  0  0  0
  141.3750   78.8810  223.5610 C   0  0  0  0  0  0  0  0  0  0  0  0
  142.5970   79.3770  222.8040 C   0  0  0  0  0  0  0  0  0  0  0  0
  142.7660   80.7550  223.4470 C   0  0  0  0  0  0  0  0  0  0  0  0
  141.3460   81.2190  223.7430 C   0  0  0  0  0  0  0  0  0  0  0  0
  140.4380   80.0370  223.4690 C   0  0  0  0  0  0  0  0  0  0  0  0
  141.4180   76.5840  222.5340 O   0  0  0  0  0  0  0  0  0  0  0  0
  141.3320   78.9860  219.5070 C   0  0  0  0  0  0  0  0  0  0  0  0
  139.9700   78.7670  219.5250 C   0  0  0  0  0  0  0  0  0  0  0  0
  139.0810   79.7620  219.9250 C   0  0  0  0  0  0  0  0  0  0  0  0
  139.6350   80.9740  220.2990 C   0  0  0  0  0  0  0  0  0  0  0  0
  138.8240   82.0140  220.7080 C   0  0  0  0  0  0  0  0  0  0  0  0
  139.3130   83.2450  221.0930 C   0  0  0  0  0  0  0  0  0  0  0  0
  138.2140   84.5060  221.5960 Cl  0  0  0  0  0  0  0  0  0  0  0  0
  140.6820   83.4130  221.0570 C   0  0  0  0  0  0  0  0  0  0  0  0
  141.5430   82.4020  220.6540 C   0  0  0  0  0  0  0  0  0  0  0  0
  141.0120   81.1710  220.2720 C   0  0  0  0  0  0  0  0  0  0  0  0
  141.8510   80.1870  219.8800 N   0  0  0  0  0  0  0  0  0  0  0  0
  142.6580   77.2310  221.0440 H   0  0  0  0  0  0  0  0  0  0  0  0
  144.0509   76.0784  218.6593 H   0  0  0  0  0  0  0  0  0  0  0  0
  144.5275   75.9486  220.4121 H   0  0  0  0  0  0  0  0  0  0  0  0
  140.3895   75.8894  219.0573 H   0  0  0  0  0  0  0  0  0  0  0  0
  140.7258   74.3299  218.2756 H   0  0  0  0  0  0  0  0  0  0  0  0
  138.5875   75.0278  220.1378 H   0  0  0  0  0  0  0  0  0  0  0  0
  138.7965   73.5129  219.2593 H   0  0  0  0  0  0  0  0  0  0  0  0
  139.0974   73.6857  221.9946 H   0  0  0  0  0  0  0  0  0  0  0  0
  140.0208   72.5169  221.0836 H   0  0  0  0  0  0  0  0  0  0  0  0
  141.7443   73.9254  222.1820 H   0  0  0  0  0  0  0  0  0  0  0  0
  138.6535   78.2127  222.6368 H   0  0  0  0  0  0  0  0  0  0  0  0
  141.5991   78.5735  224.5931 H   0  0  0  0  0  0  0  0  0  0  0  0
  143.4732   78.7351  222.9777 H   0  0  0  0  0  0  0  0  0  0  0  0
  142.4917   79.3862  221.7091 H   0  0  0  0  0  0  0  0  0  0  0  0
  143.3515   80.6810  224.3753 H   0  0  0  0  0  0  0  0  0  0  0  0
  143.3058   81.4563  222.7937 H   0  0  0  0  0  0  0  0  0  0  0  0
  141.2593   81.5282  224.7951 H   0  0  0  0  0  0  0  0  0  0  0  0
  141.0726   82.0823  223.1185 H   0  0  0  0  0  0  0  0  0  0  0  0
  139.6417   79.9641  224.2244 H   0  0  0  0  0  0  0  0  0  0  0  0
  139.9147   80.1011  222.5036 H   0  0  0  0  0  0  0  0  0  0  0  0
  139.5780   77.7864  219.2171 H   0  0  0  0  0  0  0  0  0  0  0  0
  137.9942   79.5931  219.9427 H   0  0  0  0  0  0  0  0  0  0  0  0
  137.7360   81.8532  220.7277 H   0  0  0  0  0  0  0  0  0  0  0  0
  141.1058   84.3823  221.3583 H   0  0  0  0  0  0  0  0  0  0  0  0
  142.6300   82.5698  220.6362 H   0  0  0  0  0  0  0  0  0  0  0  0
  1  2  2  0
  2  3  1  0
  3  4  1  0
  4  5  1  0
  5  6  2  0
  5  7  1  0
  7  8  1  0
  8  9  1  0
  9 10  1  0
 10 11  1  0
 11 12  1  0
 12 13  2  0
 13 14  1  0
 14 15  2  0
 15 16  1  0
 16 17  1  0
 17 18  1  0
 18 19  1  0
 19 20  1  0
 15 21  1  0
  2 22  1  0
 22 23  2  0
 23 24  1  0
 24 25  2  0
 25 26  1  0
 26 27  2  0
 27 28  1  0
 27 29  1  0
 29 30  2  0
 30 31  1  0
 31 32  2  0
 11  7  1  0
 21 12  1  0
 32 22  1  0
 20 16  1  0
 31 25  1  0
  3 33  1  0
  4 34  1  0
  4 35  1  0
  8 36  1  0
  8 37  1  0
  9 38  1  0
  9 39  1  0
 10 40  1  0
 10 41  1  0
 11 42  1  1
 14 43  1  0
 16 44  1  0
 17 45  1  0
 17 46  1  0
 18 47  1  0
 18 48  1  0
 19 49  1  0
 19 50  1  0
 20 51  1  0
 20 52  1  0
 23 53  1  0
 24 54  1  0
 26 55  1  0
 29 56  1  0
 30 57  1  0
M  END
>  <smiles>  (6) 
O=C(NCC(=O)N1CCC[C@@H]1c1ncc(C2CCCC2)o1)c1ccc2cc(Cl)ccc2n1

>  <score_type>  (6) 
oracle

>  <origin>  (6) 
autodockgpu

>  <m_score__min__energy>  (6) 
-8.9900000000000002

>  <m_primary>  (6) 
energy

>  <rmsd>  (6) 
8.14692292747973

>  <m_score__min__rmsd>  (6) 
8.14692292747973

>  <meeko>  (6) 
{"free_energy": -6.06, "intermolecular_energy": -7.85, "internal_energy": -4.56, "cluster_size": 14, "cluster_id": 8, "rank_in_cluster": 12}

>  <energy>  (6) 
-8.76

>  <cluster_rmsd>  (6) 
0.75

>  <cluster>  (6) 
1

$$$$

     RDKit          3D

 57 61  0  0  0  0  0  0  0  0999 V2000
  134.9780   77.0310  223.6980 O   0  0  0  0  0  0  0  0  0  0  0  0
  135.7800   77.9050  223.2620 C   0  0  0  0  0  0  0  0  0  0  0  0
  135.3710   79.2650  223.3530 N   0  0  0  0  0  0  0  0  0  0  0  0
  134.1260   79.7070  223.8990 C   0  0  0  0  0  0  0  0  0  0  0  0
  134.2860   80.4000  225.2060 C   0  0  0  0  0  0  0  0  0  0  0  0
  133.5510   80.1800  226.2020 O   0  0  0  0  0  0  0  0  0  0  0  0
  135.3290   81.3610  225.3290 N   0  0  0  0  0  0  0  0  0  0  0  0
  135.2090   82.7710  225.0360 C   0  0  0  0  0  0  0  0  0  0  0  0
  136.3340   83.4610  225.7560 C   0  0  0  0  0  0  0  0  0  0  0  0
  137.0110   82.3680  226.5580 C   0  0  0  0  0  0  0  0  0  0  0  0
  136.6970   81.1460  225.7590 C   0  0  2  0  0  0  0  0  0  0  0  0
  137.5560   81.1980  224.5300 C   0  0  0  0  0  0  0  0  0  0  0  0
  137.2740   81.7430  223.3350 N   0  0  0  0  0  0  0  0  0  0  0  0
  138.3800   81.5240  222.5700 C   0  0  0  0  0  0  0  0  0  0  0  0
  139.3120   80.8460  223.3260 C   0  0  0  0  0  0  0  0  0  0  0  0
  140.6790   80.3890  222.9030 C   0  0  0  0  0  0  0  0  0  0  0  0
  141.7460   81.3540  223.3990 C   0  0  0  0  0  0  0  0  0  0  0  0
  142.9960   80.5010  223.1800 C   0  0  0  0  0  0  0  0  0  0  0  0
  142.5420   79.0720  223.4480 C   0  0  0  0  0  0  0  0  0  0  0  0
  141.0340   79.1190  223.5960 C   0  0  0  0  0  0  0  0  0  0  0  0
  138.7590   80.6750  224.5060 O   0  0  0  0  0  0  0  0  0  0  0  0
  137.0790   77.5460  222.6850 C   0  0  0  0  0  0  0  0  0  0  0  0
  137.6570   76.3580  223.0800 C   0  0  0  0  0  0  0  0  0  0  0  0
  138.8890   75.9480  222.5760 C   0  0  0  0  0  0  0  0  0  0  0  0
  139.4970   76.7920  221.6630 C   0  0  0  0  0  0  0  0  0  0  0  0
  140.7210   76.4610  221.1150 C   0  0  0  0  0  0  0  0  0  0  0  0
  141.3780   77.2590  220.2010 C   0  0  0  0  0  0  0  0  0  0  0  0
  142.9240   76.7630  219.5580 Cl  0  0  0  0  0  0  0  0  0  0  0  0
  140.7570   78.4370  219.8390 C   0  0  0  0  0  0  0  0  0  0  0  0
  139.5290   78.8190  220.3590 C   0  0  0  0  0  0  0  0  0  0  0  0
  138.8940   77.9870  221.2800 C   0  0  0  0  0  0  0  0  0  0  0  0
  137.6970   78.3580  221.7860 N   0  0  0  0  0  0  0  0  0  0  0  0
  136.0360   79.9990  222.9900 H   0  0  0  0  0  0  0  0  0  0  0  0
  133.6565   80.4020  223.1873 H   0  0  0  0  0  0  0  0  0  0  0  0
  133.5029   78.8166  224.0691 H   0  0  0  0  0  0  0  0  0  0  0  0
  135.2920   82.9411  223.9524 H   0  0  0  0  0  0  0  0  0  0  0  0
  134.2334   83.1606  225.3624 H   0  0  0  0  0  0  0  0  0  0  0  0
  137.0378   83.9066  225.0376 H   0  0  0  0  0  0  0  0  0  0  0  0
  135.9757   84.2820  226.3944 H   0  0  0  0  0  0  0  0  0  0  0  0
  138.0965   82.5345  226.6213 H   0  0  0  0  0  0  0  0  0  0  0  0
  136.6690   82.3116  227.6020 H   0  0  0  0  0  0  0  0  0  0  0  0
  136.8482   80.2035  226.3056 H   0  0  0  0  0  0  0  0  0  0  0  0
  138.5079   81.8364  221.5231 H   0  0  0  0  0  0  0  0  0  0  0  0
  140.6489   80.3013  221.8069 H   0  0  0  0  0  0  0  0  0  0  0  0
  141.7715   82.2771  222.8013 H   0  0  0  0  0  0  0  0  0  0  0  0
  141.6040   81.7129  224.4291 H   0  0  0  0  0  0  0  0  0  0  0  0
  143.3603   80.6049  222.1473 H   0  0  0  0  0  0  0  0  0  0  0  0
  143.8259   80.8035  223.8356 H   0  0  0  0  0  0  0  0  0  0  0  0
  142.8210   78.4207  222.6066 H   0  0  0  0  0  0  0  0  0  0  0  0
  143.0177   78.6671  224.3534 H   0  0  0  0  0  0  0  0  0  0  0  0
  140.5600   78.2545  223.1082 H   0  0  0  0  0  0  0  0  0  0  0  0
  140.6956   79.0820  224.6420 H   0  0  0  0  0  0  0  0  0  0  0  0
  137.1341   75.7208  223.8084 H   0  0  0  0  0  0  0  0  0  0  0  0
  139.3550   75.0016  222.8877 H   0  0  0  0  0  0  0  0  0  0  0  0
  141.1943   75.5166  221.4218 H   0  0  0  0  0  0  0  0  0  0  0  0
  141.2535   79.0966  219.1121 H   0  0  0  0  0  0  0  0  0  0  0  0
  139.0625   79.7657  220.0488 H   0  0  0  0  0  0  0  0  0  0  0  0
  1  2  2  0
  2  3  1  0
  3  4  1  0
  4  5  1  0
  5  6  2  0
  5  7  1  0
  7  8  1  0
  8  9  1  0
  9 10  1  0
 10 11  1  0
 11 12  1  0
 12 13  2  0
 13 14  1  0
 14 15  2  0
 15 16  1  0
 16 17  1  0
 17 18  1  0
 18 19  1  0
 19 20  1  0
 15 21  1  0
  2 22  1  0
 22 23  2  0
 23 24  1  0
 24 25  2  0
 25 26  1  0
 26 27  2  0
 27 28  1  0
 27 29  1  0
 29 30  2  0
 30 31  1  0
 31 32  2  0
 11  7  1  0
 21 12  1  0
 32 22  1  0
 20 16  1  0
 31 25  1  0
  3 33  1  0
  4 34  1  0
  4 35  1  0
  8 36  1  0
  8 37  1  0
  9 38  1  0
  9 39  1  0
 10 40  1  0
 10 41  1  0
 11 42  1  1
 14 43  1  0
 16 44  1  0
 17 45  1  0
 17 46  1  0
 18 47  1  0
 18 48  1  0
 19 49  1  0
 19 50  1  0
 20 51  1  0
 20 52  1  0
 23 53  1  0
 24 54  1  0
 26 55  1  0
 29 56  1  0
 30 57  1  0
M  END
>  <smiles>  (7) 
O=C(NCC(=O)N1CCC[C@@H]1c1ncc(C2CCCC2)o1)c1ccc2cc(Cl)ccc2n1

>  <score_type>  (7) 
oracle

>  <origin>  (7) 
autodockgpu

>  <m_score__min__energy>  (7) 
-8.9900000000000002

>  <m_primary>  (7) 
energy

>  <rmsd>  (7) 
8.35687490838759

>  <m_score__min__rmsd>  (7) 
8.35687490838759

>  <meeko>  (7) 
{"free_energy": -5.85, "intermolecular_energy": -7.64, "internal_energy": -4.2, "cluster_size": 1, "cluster_id": 12, "rank_in_cluster": 1}

>  <energy>  (7) 
-8.66

>  <cluster_rmsd>  (7) 
1.32

>  <cluster>  (7) 
1

$$$$

     RDKit          3D

 57 61  0  0  0  0  0  0  0  0999 V2000
  139.9020   74.1560  221.9730 O   0  0  0  0  0  0  0  0  0  0  0  0
  140.2430   75.3640  221.8270 C   0  0  0  0  0  0  0  0  0  0  0  0
  141.5390   75.6130  221.2940 N   0  0  0  0  0  0  0  0  0  0  0  0
  142.4720   74.5990  220.9140 C   0  0  0  0  0  0  0  0  0  0  0  0
  143.2550   74.9630  219.7030 C   0  0  0  0  0  0  0  0  0  0  0  0
  144.4190   74.5460  219.4780 O   0  0  0  0  0  0  0  0  0  0  0  0
  142.6470   75.8300  218.7510 N   0  0  0  0  0  0  0  0  0  0  0  0
  143.3330   76.5020  217.6710 C   0  0  0  0  0  0  0  0  0  0  0  0
  142.2860   76.8780  216.6590 C   0  0  0  0  0  0  0  0  0  0  0  0
  141.0010   76.2710  217.1850 C   0  0  0  0  0  0  0  0  0  0  0  0
  141.2530   76.2170  218.6570 C   0  0  2  0  0  0  0  0  0  0  0  0
  141.1540   77.6260  219.1660 C   0  0  0  0  0  0  0  0  0  0  0  0
  140.3920   78.6310  218.7020 N   0  0  0  0  0  0  0  0  0  0  0  0
  140.6700   79.6940  219.5080 C   0  0  0  0  0  0  0  0  0  0  0  0
  141.6000   79.3030  220.4470 C   0  0  0  0  0  0  0  0  0  0  0  0
  142.2040   80.1370  221.5420 C   0  0  0  0  0  0  0  0  0  0  0  0
  141.2130   81.1830  222.0300 C   0  0  0  0  0  0  0  0  0  0  0  0
  141.9000   81.6120  223.3280 C   0  0  0  0  0  0  0  0  0  0  0  0
  142.5670   80.3460  223.8490 C   0  0  0  0  0  0  0  0  0  0  0  0
  142.4320   79.3050  222.7570 C   0  0  0  0  0  0  0  0  0  0  0  0
  141.8580   78.0400  220.1930 O   0  0  0  0  0  0  0  0  0  0  0  0
  139.3520   76.4700  222.1900 C   0  0  0  0  0  0  0  0  0  0  0  0
  138.0310   76.3930  221.7990 C   0  0  0  0  0  0  0  0  0  0  0  0
  137.1240   77.4050  222.1060 C   0  0  0  0  0  0  0  0  0  0  0  0
  137.6170   78.4840  222.8190 C   0  0  0  0  0  0  0  0  0  0  0  0
  136.7850   79.5300  223.1650 C   0  0  0  0  0  0  0  0  0  0  0  0
  137.2140   80.6330  223.8740 C   0  0  0  0  0  0  0  0  0  0  0  0
  136.0920   81.9120  224.2680 Cl  0  0  0  0  0  0  0  0  0  0  0  0
  138.5440   80.6610  224.2410 C   0  0  0  0  0  0  0  0  0  0  0  0
  139.4240   79.6380  223.9200 C   0  0  0  0  0  0  0  0  0  0  0  0
  138.9540   78.5390  223.2020 C   0  0  0  0  0  0  0  0  0  0  0  0
  139.8120   77.5420  222.8910 N   0  0  0  0  0  0  0  0  0  0  0  0
  141.8300   76.6190  221.1710 H   0  0  0  0  0  0  0  0  0  0  0  0
  143.1702   74.4332  221.7476 H   0  0  0  0  0  0  0  0  0  0  0  0
  141.8975   73.6913  220.6773 H   0  0  0  0  0  0  0  0  0  0  0  0
  143.8382   77.4042  218.0464 H   0  0  0  0  0  0  0  0  0  0  0  0
  144.0986   75.8509  217.2238 H   0  0  0  0  0  0  0  0  0  0  0  0
  142.1952   77.9717  216.5839 H   0  0  0  0  0  0  0  0  0  0  0  0
  142.5341   76.5140  215.6511 H   0  0  0  0  0  0  0  0  0  0  0  0
  140.1351   76.9082  216.9523 H   0  0  0  0  0  0  0  0  0  0  0  0
  140.7631   75.2923  216.7428 H   0  0  0  0  0  0  0  0  0  0  0  0
  140.5691   75.5512  219.2038 H   0  0  0  0  0  0  0  0  0  0  0  0
  140.2262   80.6969  219.4233 H   0  0  0  0  0  0  0  0  0  0  0  0
  143.1243   80.5721  221.1252 H   0  0  0  0  0  0  0  0  0  0  0  0
  141.1196   82.0192  221.3215 H   0  0  0  0  0  0  0  0  0  0  0  0
  140.1800   80.8239  222.1485 H   0  0  0  0  0  0  0  0  0  0  0  0
  142.6497   82.3924  223.1305 H   0  0  0  0  0  0  0  0  0  0  0  0
  141.1908   82.0375  224.0533 H   0  0  0  0  0  0  0  0  0  0  0  0
  143.6291   80.5368  224.0623 H   0  0  0  0  0  0  0  0  0  0  0  0
  142.0960   80.0049  224.7827 H   0  0  0  0  0  0  0  0  0  0  0  0
  143.3505   78.7072  222.6624 H   0  0  0  0  0  0  0  0  0  0  0  0
  141.6306   78.5753  222.9446 H   0  0  0  0  0  0  0  0  0  0  0  0
  137.6870   75.5146  221.2333 H   0  0  0  0  0  0  0  0  0  0  0  0
  136.0696   77.3493  221.7974 H   0  0  0  0  0  0  0  0  0  0  0  0
  135.7290   79.4816  222.8607 H   0  0  0  0  0  0  0  0  0  0  0  0
  138.9197   81.5253  224.8083 H   0  0  0  0  0  0  0  0  0  0  0  0
  140.4786   79.6930  224.2278 H   0  0  0  0  0  0  0  0  0  0  0  0
  1  2  2  0
  2  3  1  0
  3  4  1  0
  4  5  1  0
  5  6  2  0
  5  7  1  0
  7  8  1  0
  8  9  1  0
  9 10  1  0
 10 11  1  0
 11 12  1  0
 12 13  2  0
 13 14  1  0
 14 15  2  0
 15 16  1  0
 16 17  1  0
 17 18  1  0
 18 19  1  0
 19 20  1  0
 15 21  1  0
  2 22  1  0
 22 23  2  0
 23 24  1  0
 24 25  2  0
 25 26  1  0
 26 27  2  0
 27 28  1  0
 27 29  1  0
 29 30  2  0
 30 31  1  0
 31 32  2  0
 11  7  1  0
 21 12  1  0
 32 22  1  0
 20 16  1  0
 31 25  1  0
  3 33  1  0
  4 34  1  0
  4 35  1  0
  8 36  1  0
  8 37  1  0
  9 38  1  0
  9 39  1  0
 10 40  1  0
 10 41  1  0
 11 42  1  1
 14 43  1  0
 16 44  1  0
 17 45  1  0
 17 46  1  0
 18 47  1  0
 18 48  1  0
 19 49  1  0
 19 50  1  0
 20 51  1  0
 20 52  1  0
 23 53  1  0
 24 54  1  0
 26 55  1  0
 29 56  1  0
 30 57  1  0
M  END
>  <smiles>  (8) 
O=C(NCC(=O)N1CCC[C@@H]1c1ncc(C2CCCC2)o1)c1ccc2cc(Cl)ccc2n1

>  <score_type>  (8) 
oracle

>  <origin>  (8) 
autodockgpu

>  <m_score__min__energy>  (8) 
-8.9900000000000002

>  <m_primary>  (8) 
energy

>  <rmsd>  (8) 
6.26382915153156

>  <m_score__min__rmsd>  (8) 
6.26382915153156

>  <meeko>  (8) 
{"free_energy": -6.64, "intermolecular_energy": -8.43, "internal_energy": -3.88, "cluster_size": 5, "cluster_id": 7, "rank_in_cluster": 1}

>  <energy>  (8) 
-8.66

>  <cluster_rmsd>  (8) 
0.29

>  <cluster>  (8) 
1

$$$$

     RDKit          3D

 57 61  0  0  0  0  0  0  0  0999 V2000
  139.4320   73.9790  222.3540 O   0  0  0  0  0  0  0  0  0  0  0  0
  139.6370   72.7510  222.1380 C   0  0  0  0  0  0  0  0  0  0  0  0
  139.6990   72.3330  220.7790 N   0  0  0  0  0  0  0  0  0  0  0  0
  139.5500   73.2000  219.6520 C   0  0  0  0  0  0  0  0  0  0  0  0
  140.8180   73.3830  218.8960 C   0  0  0  0  0  0  0  0  0  0  0  0
  141.0080   72.9280  217.7400 O   0  0  0  0  0  0  0  0  0  0  0  0
  141.8680   74.1150  219.5210 N   0  0  0  0  0  0  0  0  0  0  0  0
  142.8400   73.5670  220.4400 C   0  0  0  0  0  0  0  0  0  0  0  0
  144.0080   74.5140  220.4520 C   0  0  0  0  0  0  0  0  0  0  0  0
  143.6780   75.5510  219.3970 C   0  0  0  0  0  0  0  0  0  0  0  0
  142.1850   75.5220  219.3780 C   0  0  2  0  0  0  0  0  0  0  0  0
  141.7210   76.2050  220.6330 C   0  0  0  0  0  0  0  0  0  0  0  0
  141.2350   75.6490  221.7550 N   0  0  0  0  0  0  0  0  0  0  0  0
  140.9660   76.6960  222.5860 C   0  0  0  0  0  0  0  0  0  0  0  0
  141.2980   77.8670  221.9400 C   0  0  0  0  0  0  0  0  0  0  0  0
  141.1730   79.2700  222.4640 C   0  0  0  0  0  0  0  0  0  0  0  0
  142.1860   79.5230  223.5700 C   0  0  0  0  0  0  0  0  0  0  0  0
  142.1120   81.0490  223.6530 C   0  0  0  0  0  0  0  0  0  0  0  0
  141.8540   81.5010  222.2230 C   0  0  0  0  0  0  0  0  0  0  0  0
  141.5780   80.2480  221.4160 C   0  0  0  0  0  0  0  0  0  0  0  0
  141.7510   77.5100  220.7600 O   0  0  0  0  0  0  0  0  0  0  0  0
  139.8010   71.7880  223.2310 C   0  0  0  0  0  0  0  0  0  0  0  0
  139.4150   70.4830  223.0090 C   0  0  0  0  0  0  0  0  0  0  0  0
  139.5400   69.5110  223.9980 C   0  0  0  0  0  0  0  0  0  0  0  0
  140.0700   69.9240  225.2090 C   0  0  0  0  0  0  0  0  0  0  0  0
  140.2280   69.0240  226.2440 C   0  0  0  0  0  0  0  0  0  0  0  0
  140.7490   69.3720  227.4730 C   0  0  0  0  0  0  0  0  0  0  0  0
  140.9130   68.1680  228.7280 Cl  0  0  0  0  0  0  0  0  0  0  0  0
  141.1200   70.6900  227.6440 C   0  0  0  0  0  0  0  0  0  0  0  0
  140.9830   71.6360  226.6390 C   0  0  0  0  0  0  0  0  0  0  0  0
  140.4520   71.2470  225.4090 C   0  0  0  0  0  0  0  0  0  0  0  0
  140.3190   72.1680  224.4300 N   0  0  0  0  0  0  0  0  0  0  0  0
  139.8690   71.3090  220.5910 H   0  0  0  0  0  0  0  0  0  0  0  0
  138.7959   72.7712  218.9756 H   0  0  0  0  0  0  0  0  0  0  0  0
  139.2437   74.1865  220.0303 H   0  0  0  0  0  0  0  0  0  0  0  0
  142.4060   73.4880  221.4477 H   0  0  0  0  0  0  0  0  0  0  0  0
  143.1522   72.5589  220.1298 H   0  0  0  0  0  0  0  0  0  0  0  0
  144.1134   74.9864  221.4398 H   0  0  0  0  0  0  0  0  0  0  0  0
  144.9595   74.0017  220.2466 H   0  0  0  0  0  0  0  0  0  0  0  0
  144.0535   76.5444  219.6837 H   0  0  0  0  0  0  0  0  0  0  0  0
  144.1350   75.3441  218.4180 H   0  0  0  0  0  0  0  0  0  0  0  0
  141.7406   75.9895  218.4869 H   0  0  0  0  0  0  0  0  0  0  0  0
  140.5529   76.6188  223.6025 H   0  0  0  0  0  0  0  0  0  0  0  0
  140.1304   79.3830  222.7959 H   0  0  0  0  0  0  0  0  0  0  0  0
  141.8857   79.0476  224.5154 H   0  0  0  0  0  0  0  0  0  0  0  0
  143.1907   79.1172  223.3802 H   0  0  0  0  0  0  0  0  0  0  0  0
  141.2898   81.3623  224.3133 H   0  0  0  0  0  0  0  0  0  0  0  0
  143.0305   81.4884  224.0693 H   0  0  0  0  0  0  0  0  0  0  0  0
  140.9844   82.1738  222.1886 H   0  0  0  0  0  0  0  0  0  0  0  0
  142.7167   82.0511  221.8190 H   0  0  0  0  0  0  0  0  0  0  0  0
  140.7667   80.4127  220.6917 H   0  0  0  0  0  0  0  0  0  0  0  0
  142.4378   79.9156  220.8158 H   0  0  0  0  0  0  0  0  0  0  0  0
  138.9994   70.2039  222.0295 H   0  0  0  0  0  0  0  0  0  0  0  0
  139.2335   68.4686  223.8263 H   0  0  0  0  0  0  0  0  0  0  0  0
  139.9239   67.9795  226.0808 H   0  0  0  0  0  0  0  0  0  0  0  0
  141.5394   71.0016  228.6120 H   0  0  0  0  0  0  0  0  0  0  0  0
  141.2889   72.6788  226.8095 H   0  0  0  0  0  0  0  0  0  0  0  0
  1  2  2  0
  2  3  1  0
  3  4  1  0
  4  5  1  0
  5  6  2  0
  5  7  1  0
  7  8  1  0
  8  9  1  0
  9 10  1  0
 10 11  1  0
 11 12  1  0
 12 13  2  0
 13 14  1  0
 14 15  2  0
 15 16  1  0
 16 17  1  0
 17 18  1  0
 18 19  1  0
 19 20  1  0
 15 21  1  0
  2 22  1  0
 22 23  2  0
 23 24  1  0
 24 25  2  0
 25 26  1  0
 26 27  2  0
 27 28  1  0
 27 29  1  0
 29 30  2  0
 30 31  1  0
 31 32  2  0
 11  7  1  0
 21 12  1  0
 32 22  1  0
 20 16  1  0
 31 25  1  0
  3 33  1  0
  4 34  1  0
  4 35  1  0
  8 36  1  0
  8 37  1  0
  9 38  1  0
  9 39  1  0
 10 40  1  0
 10 41  1  0
 11 42  1  6
 14 43  1  0
 16 44  1  0
 17 45  1  0
 17 46  1  0
 18 47  1  0
 18 48  1  0
 19 49  1  0
 19 50  1  0
 20 51  1  0
 20 52  1  0
 23 53  1  0
 24 54  1  0
 26 55  1  0
 29 56  1  0
 30 57  1  0
M  END
>  <smiles>  (9) 
O=C(NCC(=O)N1CCC[C@@H]1c1ncc(C2CCCC2)o1)c1ccc2cc(Cl)ccc2n1

>  <score_type>  (9) 
oracle

>  <origin>  (9) 
autodockgpu

>  <m_score__min__energy>  (9) 
-8.9900000000000002

>  <m_primary>  (9) 
energy

>  <rmsd>  (9) 
3.04611724323326

>  <m_score__min__rmsd>  (9) 
3.04611724323326

>  <meeko>  (9) 
{"free_energy": -8.94, "intermolecular_energy": -10.73, "internal_energy": -1.81, "cluster_size": 11, "cluster_id": 1, "rank_in_cluster": 3}

>  <energy>  (9) 
-8.51

>  <cluster_rmsd>  (9) 
1.63

>  <cluster>  (9) 
1

$$$$

     RDKit          3D

 57 61  0  0  0  0  0  0  0  0999 V2000
  136.0650   72.2520  221.5080 O   0  0  0  0  0  0  0  0  0  0  0  0
  137.0350   72.5610  222.2580 C   0  0  0  0  0  0  0  0  0  0  0  0
  137.5350   73.8900  222.1580 N   0  0  0  0  0  0  0  0  0  0  0  0
  137.0190   74.8900  221.2760 C   0  0  0  0  0  0  0  0  0  0  0  0
  137.4350   76.2650  221.6620 C   0  0  0  0  0  0  0  0  0  0  0  0
  136.6390   77.1310  222.1070 O   0  0  0  0  0  0  0  0  0  0  0  0
  138.8090   76.6130  221.5190 N   0  0  0  0  0  0  0  0  0  0  0  0
  139.3820   77.3190  220.3960 C   0  0  0  0  0  0  0  0  0  0  0  0
  140.6880   77.8970  220.8690 C   0  0  0  0  0  0  0  0  0  0  0  0
  140.7450   77.5710  222.3470 C   0  0  0  0  0  0  0  0  0  0  0  0
  139.8990   76.3430  222.4360 C   0  0  2  0  0  0  0  0  0  0  0  0
  140.7010   75.2200  221.8450 C   0  0  0  0  0  0  0  0  0  0  0  0
  141.8490   75.2880  221.1500 N   0  0  0  0  0  0  0  0  0  0  0  0
  142.1600   73.9970  220.8450 C   0  0  0  0  0  0  0  0  0  0  0  0
  141.1860   73.1740  221.3670 C   0  0  0  0  0  0  0  0  0  0  0  0
  141.1090   71.6750  221.2790 C   0  0  0  0  0  0  0  0  0  0  0  0
  139.7520   71.2370  220.7520 C   0  0  0  0  0  0  0  0  0  0  0  0
  140.0590   69.7770  220.4130 C   0  0  0  0  0  0  0  0  0  0  0  0
  141.5090   69.7850  219.9500 C   0  0  0  0  0  0  0  0  0  0  0  0
  142.0470   71.1730  220.2350 C   0  0  0  0  0  0  0  0  0  0  0  0
  140.3270   73.9680  221.9630 O   0  0  0  0  0  0  0  0  0  0  0  0
  137.6280   71.6010  223.1930 C   0  0  0  0  0  0  0  0  0  0  0  0
  136.8610   70.5260  223.5920 C   0  0  0  0  0  0  0  0  0  0  0  0
  137.3550   69.5720  224.4780 C   0  0  0  0  0  0  0  0  0  0  0  0
  138.6490   69.7600  224.9330 C   0  0  0  0  0  0  0  0  0  0  0  0
  139.2150   68.8600  225.8150 C   0  0  0  0  0  0  0  0  0  0  0  0
  140.4980   68.9910  226.3050 C   0  0  0  0  0  0  0  0  0  0  0  0
  141.1350   67.8050  227.4180 Cl  0  0  0  0  0  0  0  0  0  0  0  0
  141.2230   70.0830  225.8750 C   0  0  0  0  0  0  0  0  0  0  0  0
  140.7040   71.0180  224.9910 C   0  0  0  0  0  0  0  0  0  0  0  0
  139.4030   70.8530  224.5170 C   0  0  0  0  0  0  0  0  0  0  0  0
  138.8970   71.7630  223.6550 N   0  0  0  0  0  0  0  0  0  0  0  0
  138.3440   74.1540  222.7800 H   0  0  0  0  0  0  0  0  0  0  0  0
  137.3838   74.6844  220.2588 H   0  0  0  0  0  0  0  0  0  0  0  0
  135.9212   74.8471  221.3306 H   0  0  0  0  0  0  0  0  0  0  0  0
  139.5552   76.6250  219.5603 H   0  0  0  0  0  0  0  0  0  0  0  0
  138.7057   78.1097  220.0391 H   0  0  0  0  0  0  0  0  0  0  0  0
  141.5319   77.4330  220.3374 H   0  0  0  0  0  0  0  0  0  0  0  0
  140.7550   78.9786  220.6803 H   0  0  0  0  0  0  0  0  0  0  0  0
  141.7766   77.3682  222.6705 H   0  0  0  0  0  0  0  0  0  0  0  0
  140.3987   78.3917  222.9924 H   0  0  0  0  0  0  0  0  0  0  0  0
  139.5711   76.0983  223.4571 H   0  0  0  0  0  0  0  0  0  0  0  0
  143.0419   73.6667  220.2766 H   0  0  0  0  0  0  0  0  0  0  0  0
  141.3256   71.2951  222.2883 H   0  0  0  0  0  0  0  0  0  0  0  0
  138.9688   71.3221  221.5197 H   0  0  0  0  0  0  0  0  0  0  0  0
  139.3641   71.8359  219.9148 H   0  0  0  0  0  0  0  0  0  0  0  0
  139.9388   69.1390  221.3009 H   0  0  0  0  0  0  0  0  0  0  0  0
  139.3795   69.3757  219.6467 H   0  0  0  0  0  0  0  0  0  0  0  0
  142.0886   69.0321  220.5043 H   0  0  0  0  0  0  0  0  0  0  0  0
  141.5850   69.5421  218.8798 H   0  0  0  0  0  0  0  0  0  0  0  0
  143.0783   71.1292  220.6152 H   0  0  0  0  0  0  0  0  0  0  0  0
  142.0955   71.8158  219.3437 H   0  0  0  0  0  0  0  0  0  0  0  0
  135.8378   70.4202  223.2021 H   0  0  0  0  0  0  0  0  0  0  0  0
  136.7481   68.7129  224.7999 H   0  0  0  0  0  0  0  0  0  0  0  0
  138.6145   67.9984  226.1420 H   0  0  0  0  0  0  0  0  0  0  0  0
  142.2497   70.2173  226.2464 H   0  0  0  0  0  0  0  0  0  0  0  0
  141.3103   71.8774  224.6686 H   0  0  0  0  0  0  0  0  0  0  0  0
  1  2  2  0
  2  3  1  0
  3  4  1  0
  4  5  1  0
  5  6  2  0
  5  7  1  0
  7  8  1  0
  8  9  1  0
  9 10  1  0
 10 11  1  0
 11 12  1  0
 12 13  2  0
 13 14  1  0
 14 15  2  0
 15 16  1  0
 16 17  1  0
 17 18  1  0
 18 19  1  0
 19 20  1  0
 15 21  1  0
  2 22  1  0
 22 23  2  0
 23 24  1  0
 24 25  2  0
 25 26  1  0
 26 27  2  0
 27 28  1  0
 27 29  1  0
 29 30  2  0
 30 31  1  0
 31 32  2  0
 11  7  1  0
 21 12  1  0
 32 22  1  0
 20 16  1  0
 31 25  1  0
  3 33  1  0
  4 34  1  0
  4 35  1  0
  8 36  1  0
  8 37  1  0
  9 38  1  0
  9 39  1  0
 10 40  1  0
 10 41  1  0
 11 42  1  1
 14 43  1  0
 16 44  1  0
 17 45  1  0
 17 46  1  0
 18 47  1  0
 18 48  1  0
 19 49  1  0
 19 50  1  0
 20 51  1  0
 20 52  1  0
 23 53  1  0
 24 54  1  0
 26 55  1  0
 29 56  1  0
 30 57  1  0
M  END
>  <smiles>  (10) 
O=C(NCC(=O)N1CCC[C@@H]1c1ncc(C2CCCC2)o1)c1ccc2cc(Cl)ccc2n1

>  <score_type>  (10) 
oracle

>  <origin>  (10) 
autodockgpu

>  <m_score__min__energy>  (10) 
-8.9900000000000002

>  <m_primary>  (10) 
energy

>  <rmsd>  (10) 
5.642418693167184

>  <m_score__min__rmsd>  (10) 
5.642418693167184

>  <meeko>  (10) 
{"free_energy": -6.54, "intermolecular_energy": -8.33, "internal_energy": -3.72, "cluster_size": 2, "cluster_id": 5, "rank_in_cluster": 2}

>  <energy>  (10) 
-8.32

>  <cluster_rmsd>  (10) 
1.45

>  <cluster>  (10) 
1

$$$$

     RDKit          3D

 57 61  0  0  0  0  0  0  0  0999 V2000
  138.5500   70.7310  221.2500 O   0  0  0  0  0  0  0  0  0  0  0  0
  138.8610   71.5320  222.1780 C   0  0  0  0  0  0  0  0  0  0  0  0
  138.6380   72.9170  221.9410 N   0  0  0  0  0  0  0  0  0  0  0  0
  138.0890   73.4610  220.7390 C   0  0  0  0  0  0  0  0  0  0  0  0
  139.0380   73.3980  219.5950 C   0  0  0  0  0  0  0  0  0  0  0  0
  138.8110   72.7500  218.5410 O   0  0  0  0  0  0  0  0  0  0  0  0
  140.2650   74.1120  219.7040 N   0  0  0  0  0  0  0  0  0  0  0  0
  141.5210   73.5560  220.1520 C   0  0  0  0  0  0  0  0  0  0  0  0
  142.6040   74.4700  219.6490 C   0  0  0  0  0  0  0  0  0  0  0  0
  141.8830   75.4960  218.7980 C   0  0  0  0  0  0  0  0  0  0  0  0
  140.5170   75.5070  219.4020 C   0  0  2  0  0  0  0  0  0  0  0  0
  140.6300   76.2260  220.7150 C   0  0  0  0  0  0  0  0  0  0  0  0
  140.5840   75.7120  221.9560 N   0  0  0  0  0  0  0  0  0  0  0  0
  140.7340   76.7790  222.7920 C   0  0  0  0  0  0  0  0  0  0  0  0
  140.8690   77.9190  222.0300 C   0  0  0  0  0  0  0  0  0  0  0  0
  141.0570   79.3290  222.5160 C   0  0  0  0  0  0  0  0  0  0  0  0
  142.1680   79.3960  223.5530 C   0  0  0  0  0  0  0  0  0  0  0  0
  142.4010   80.9080  223.5920 C   0  0  0  0  0  0  0  0  0  0  0  0
  142.1480   81.3750  222.1650 C   0  0  0  0  0  0  0  0  0  0  0  0
  141.5790   80.1870  221.4150 C   0  0  0  0  0  0  0  0  0  0  0  0
  140.7980   77.5260  220.7790 O   0  0  0  0  0  0  0  0  0  0  0  0
  139.4300   71.0650  223.4460 C   0  0  0  0  0  0  0  0  0  0  0  0
  140.3190   71.8910  224.1000 C   0  0  0  0  0  0  0  0  0  0  0  0
  140.9020   71.5170  225.3090 C   0  0  0  0  0  0  0  0  0  0  0  0
  140.5420   70.2790  225.8130 C   0  0  0  0  0  0  0  0  0  0  0  0
  141.0730   69.8320  227.0070 C   0  0  0  0  0  0  0  0  0  0  0  0
  140.7560   68.6100  227.5620 C   0  0  0  0  0  0  0  0  0  0  0  0
  141.4760   68.1230  229.0770 Cl  0  0  0  0  0  0  0  0  0  0  0  0
  139.8610   67.8210  226.8680 C   0  0  0  0  0  0  0  0  0  0  0  0
  139.2980   68.2210  225.6650 C   0  0  0  0  0  0  0  0  0  0  0  0
  139.6430   69.4630  225.1340 C   0  0  0  0  0  0  0  0  0  0  0  0
  139.0930   69.8530  223.9630 N   0  0  0  0  0  0  0  0  0  0  0  0
  138.8960   73.5900  222.7110 H   0  0  0  0  0  0  0  0  0  0  0  0
  137.1838   72.8935  220.4771 H   0  0  0  0  0  0  0  0  0  0  0  0
  137.8641   74.5213  220.9264 H   0  0  0  0  0  0  0  0  0  0  0  0
  141.5444   73.5098  221.2508 H   0  0  0  0  0  0  0  0  0  0  0  0
  141.6586   72.5334  219.7708 H   0  0  0  0  0  0  0  0  0  0  0  0
  143.1202   74.9577  220.4891 H   0  0  0  0  0  0  0  0  0  0  0  0
  143.3736   73.9272  219.0806 H   0  0  0  0  0  0  0  0  0  0  0  0
  142.3606   76.4839  218.8750 H   0  0  0  0  0  0  0  0  0  0  0  0
  141.8878   75.2591  217.7238 H   0  0  0  0  0  0  0  0  0  0  0  0
  139.7494   75.9688  218.7636 H   0  0  0  0  0  0  0  0  0  0  0  0
  140.7453   76.7366  223.8911 H   0  0  0  0  0  0  0  0  0  0  0  0
  140.0807   79.6541  222.9047 H   0  0  0  0  0  0  0  0  0  0  0  0
  141.8403   79.0078  224.5286 H   0  0  0  0  0  0  0  0  0  0  0  0
  143.0589   78.7949  223.3183 H   0  0  0  0  0  0  0  0  0  0  0  0
  141.6995   81.3908  224.2883 H   0  0  0  0  0  0  0  0  0  0  0  0
  143.4123   81.1644  223.9407 H   0  0  0  0  0  0  0  0  0  0  0  0
  141.4285   82.2071  222.1599 H   0  0  0  0  0  0  0  0  0  0  0  0
  143.0754   81.7338  221.6947 H   0  0  0  0  0  0  0  0  0  0  0  0
  140.7714   80.4961  220.7351 H   0  0  0  0  0  0  0  0  0  0  0  0
  142.3158   79.6789  220.7754 H   0  0  0  0  0  0  0  0  0  0  0  0
  140.5734   72.8657  223.6582 H   0  0  0  0  0  0  0  0  0  0  0  0
  141.6117   72.1718  225.8358 H   0  0  0  0  0  0  0  0  0  0  0  0
  141.7825   70.4815  227.5406 H   0  0  0  0  0  0  0  0  0  0  0  0
  139.5845   66.8407  227.2834 H   0  0  0  0  0  0  0  0  0  0  0  0
  138.5887   67.5668  225.1369 H   0  0  0  0  0  0  0  0  0  0  0  0
  1  2  2  0
  2  3  1  0
  3  4  1  0
  4  5  1  0
  5  6  2  0
  5  7  1  0
  7  8  1  0
  8  9  1  0
  9 10  1  0
 10 11  1  0
 11 12  1  0
 12 13  2  0
 13 14  1  0
 14 15  2  0
 15 16  1  0
 16 17  1  0
 17 18  1  0
 18 19  1  0
 19 20  1  0
 15 21  1  0
  2 22  1  0
 22 23  2  0
 23 24  1  0
 24 25  2  0
 25 26  1  0
 26 27  2  0
 27 28  1  0
 27 29  1  0
 29 30  2  0
 30 31  1  0
 31 32  2  0
 11  7  1  0
 21 12  1  0
 32 22  1  0
 20 16  1  0
 31 25  1  0
  3 33  1  0
  4 34  1  0
  4 35  1  0
  8 36  1  0
  8 37  1  0
  9 38  1  0
  9 39  1  0
 10 40  1  0
 10 41  1  0
 11 42  1  6
 14 43  1  0
 16 44  1  0
 17 45  1  0
 17 46  1  0
 18 47  1  0
 18 48  1  0
 19 49  1  0
 19 50  1  0
 20 51  1  0
 20 52  1  0
 23 53  1  0
 24 54  1  0
 26 55  1  0
 29 56  1  0
 30 57  1  0
M  END
>  <smiles>  (11) 
O=C(NCC(=O)N1CCC[C@@H]1c1ncc(C2CCCC2)o1)c1ccc2cc(Cl)ccc2n1

>  <score_type>  (11) 
oracle

>  <origin>  (11) 
autodockgpu

>  <m_score__min__energy>  (11) 
-8.9900000000000002

>  <m_primary>  (11) 
energy

>  <rmsd>  (11) 
3.1787753010955146

>  <m_score__min__rmsd>  (11) 
3.1787753010955146

>  <meeko>  (11) 
{"free_energy": -8.32, "intermolecular_energy": -10.11, "internal_energy": -1.92, "cluster_size": 11, "cluster_id": 1, "rank_in_cluster": 10}

>  <energy>  (11) 
-8.28

>  <cluster_rmsd>  (11) 
1.63

>  <cluster>  (11) 
1

$$$$

     RDKit          3D

 57 61  0  0  0  0  0  0  0  0999 V2000
  137.5910   70.6900  221.7110 O   0  0  0  0  0  0  0  0  0  0  0  0
  138.2880   71.4740  222.4150 C   0  0  0  0  0  0  0  0  0  0  0  0
  138.3830   72.8260  221.9800 N   0  0  0  0  0  0  0  0  0  0  0  0
  137.7470   73.3530  220.8130 C   0  0  0  0  0  0  0  0  0  0  0  0
  136.6530   74.3080  221.1360 C   0  0  0  0  0  0  0  0  0  0  0  0
  135.4360   73.9930  221.1380 O   0  0  0  0  0  0  0  0  0  0  0  0
  137.0110   75.6480  221.4620 N   0  0  0  0  0  0  0  0  0  0  0  0
  136.9730   76.7700  220.5520 C   0  0  0  0  0  0  0  0  0  0  0  0
  136.9350   78.0130  221.3980 C   0  0  0  0  0  0  0  0  0  0  0  0
  136.8330   77.5100  222.8240 C   0  0  0  0  0  0  0  0  0  0  0  0
  137.4760   76.1640  222.7340 C   0  0  2  0  0  0  0  0  0  0  0  0
  138.9530   76.3980  222.5980 C   0  0  0  0  0  0  0  0  0  0  0  0
  139.9220   75.5000  222.3500 N   0  0  0  0  0  0  0  0  0  0  0  0
  141.0790   76.2190  222.3240 C   0  0  0  0  0  0  0  0  0  0  0  0
  140.7800   77.5440  222.5580 C   0  0  0  0  0  0  0  0  0  0  0  0
  141.7360   78.7020  222.6220 C   0  0  0  0  0  0  0  0  0  0  0  0
  141.1820   79.8990  221.8640 C   0  0  0  0  0  0  0  0  0  0  0  0
  142.1130   80.9950  222.3840 C   0  0  0  0  0  0  0  0  0  0  0  0
  142.4090   80.6000  223.8240 C   0  0  0  0  0  0  0  0  0  0  0  0
  141.8320   79.2120  224.0190 C   0  0  0  0  0  0  0  0  0  0  0  0
  139.4770   77.5950  222.7170 O   0  0  0  0  0  0  0  0  0  0  0  0
  138.9770   71.0230  223.6270 C   0  0  0  0  0  0  0  0  0  0  0  0
  139.9650   71.8300  224.1510 C   0  0  0  0  0  0  0  0  0  0  0  0
  140.6630   71.4690  225.3000 C   0  0  0  0  0  0  0  0  0  0  0  0
  140.3150   70.2630  225.8840 C   0  0  0  0  0  0  0  0  0  0  0  0
  140.9590   69.8300  227.0260 C   0  0  0  0  0  0  0  0  0  0  0  0
  140.6590   68.6390  227.6550 C   0  0  0  0  0  0  0  0  0  0  0  0
  141.5250   68.1680  229.0970 Cl  0  0  0  0  0  0  0  0  0  0  0  0
  139.6630   67.8680  227.0910 C   0  0  0  0  0  0  0  0  0  0  0  0
  138.9850   68.2540  225.9450 C   0  0  0  0  0  0  0  0  0  0  0  0
  139.3150   69.4650  225.3360 C   0  0  0  0  0  0  0  0  0  0  0  0
  138.6540   69.8420  224.2200 N   0  0  0  0  0  0  0  0  0  0  0  0
  138.9640   73.4850  222.5620 H   0  0  0  0  0  0  0  0  0  0  0  0
  138.5018   73.8749  220.2064 H   0  0  0  0  0  0  0  0  0  0  0  0
  137.3000   72.5082  220.2685 H   0  0  0  0  0  0  0  0  0  0  0  0
  137.8701   76.7722  219.9155 H   0  0  0  0  0  0  0  0  0  0  0  0
  136.0947   76.7141  219.8921 H   0  0  0  0  0  0  0  0  0  0  0  0
  137.8530   78.6032  221.2604 H   0  0  0  0  0  0  0  0  0  0  0  0
  136.0957   78.6715  221.1297 H   0  0  0  0  0  0  0  0  0  0  0  0
  137.3785   78.1664  223.5179 H   0  0  0  0  0  0  0  0  0  0  0  0
  135.8026   77.4810  223.2081 H   0  0  0  0  0  0  0  0  0  0  0  0
  137.2574   75.5055  223.5876 H   0  0  0  0  0  0  0  0  0  0  0  0
  142.0845   75.8101  222.1459 H   0  0  0  0  0  0  0  0  0  0  0  0
  142.6911   78.3360  222.2172 H   0  0  0  0  0  0  0  0  0  0  0  0
  141.2712   79.7699  220.7752 H   0  0  0  0  0  0  0  0  0  0  0  0
  140.1097   80.0897  222.0181 H   0  0  0  0  0  0  0  0  0  0  0  0
  143.0400   81.0292  221.7928 H   0  0  0  0  0  0  0  0  0  0  0  0
  141.6599   81.9947  222.3116 H   0  0  0  0  0  0  0  0  0  0  0  0
  143.4950   80.5877  223.9987 H   0  0  0  0  0  0  0  0  0  0  0  0
  141.9663   81.3168  224.5312 H   0  0  0  0  0  0  0  0  0  0  0  0
  142.5018   78.5849  224.6257 H   0  0  0  0  0  0  0  0  0  0  0  0
  140.8707   79.2084  224.5536 H   0  0  0  0  0  0  0  0  0  0  0  0
  140.2066   72.7792  223.6503 H   0  0  0  0  0  0  0  0  0  0  0  0
  141.4511   72.1095  225.7225 H   0  0  0  0  0  0  0  0  0  0  0  0
  141.7487   70.4645  227.4547 H   0  0  0  0  0  0  0  0  0  0  0  0
  139.3975   66.9129  227.5679 H   0  0  0  0  0  0  0  0  0  0  0  0
  138.1971   67.6138  225.5214 H   0  0  0  0  0  0  0  0  0  0  0  0
  1  2  2  0
  2  3  1  0
  3  4  1  0
  4  5  1  0
  5  6  2  0
  5  7  1  0
  7  8  1  0
  8  9  1  0
  9 10  1  0
 10 11  1  0
 11 12  1  0
 12 13  2  0
 13 14  1  0
 14 15  2  0
 15 16  1  0
 16 17  1  0
 17 18  1  0
 18 19  1  0
 19 20  1  0
 15 21  1  0
  2 22  1  0
 22 23  2  0
 23 24  1  0
 24 25  2  0
 25 26  1  0
 26 27  2  0
 27 28  1  0
 27 29  1  0
 29 30  2  0
 30 31  1  0
 31 32  2  0
 11  7  1  0
 21 12  1  0
 32 22  1  0
 20 16  1  0
 31 25  1  0
  3 33  1  0
  4 34  1  0
  4 35  1  0
  8 36  1  0
  8 37  1  0
  9 38  1  0
  9 39  1  0
 10 40  1  0
 10 41  1  0
 11 42  1  1
 14 43  1  0
 16 44  1  0
 17 45  1  0
 17 46  1  0
 18 47  1  0
 18 48  1  0
 19 49  1  0
 19 50  1  0
 20 51  1  0
 20 52  1  0
 23 53  1  0
 24 54  1  0
 26 55  1  0
 29 56  1  0
 30 57  1  0
M  END
>  <smiles>  (12) 
O=C(NCC(=O)N1CCC[C@@H]1c1ncc(C2CCCC2)o1)c1ccc2cc(Cl)ccc2n1

>  <score_type>  (12) 
oracle

>  <origin>  (12) 
autodockgpu

>  <m_score__min__energy>  (12) 
-8.9900000000000002

>  <m_primary>  (12) 
energy

>  <rmsd>  (12) 
3.8001876672263926

>  <m_score__min__rmsd>  (12) 
3.8001876672263926

>  <meeko>  (12) 
{"free_energy": -8.49, "intermolecular_energy": -10.28, "internal_energy": -2.38, "cluster_size": 6, "cluster_id": 3, "rank_in_cluster": 4}

>  <energy>  (12) 
-8.9

>  <cluster_rmsd>  (12) 
0.0

>  <cluster>  (12) 
2

$$$$

     RDKit          3D

 57 61  0  0  0  0  0  0  0  0999 V2000
  141.5480   73.3100  221.0510 O   0  0  0  0  0  0  0  0  0  0  0  0
  140.7540   74.1410  221.5780 C   0  0  0  0  0  0  0  0  0  0  0  0
  139.6210   73.6130  222.2580 N   0  0  0  0  0  0  0  0  0  0  0  0
  139.3220   72.2210  222.3860 C   0  0  0  0  0  0  0  0  0  0  0  0
  137.8600   71.9460  222.3890 C   0  0  0  0  0  0  0  0  0  0  0  0
  137.0080   72.7140  221.8740 O   0  0  0  0  0  0  0  0  0  0  0  0
  137.4080   70.7460  223.0090 N   0  0  0  0  0  0  0  0  0  0  0  0
  136.2950   70.6430  223.9250 C   0  0  0  0  0  0  0  0  0  0  0  0
  135.8700   69.2010  223.9310 C   0  0  0  0  0  0  0  0  0  0  0  0
  136.7330   68.5370  222.8780 C   0  0  0  0  0  0  0  0  0  0  0  0
  137.9460   69.4080  222.8650 C   0  0  2  0  0  0  0  0  0  0  0  0
  138.7110   69.1050  224.1200 C   0  0  0  0  0  0  0  0  0  0  0  0
  138.8580   67.9240  224.7450 N   0  0  0  0  0  0  0  0  0  0  0  0
  139.6400   68.1880  225.8300 C   0  0  0  0  0  0  0  0  0  0  0  0
  139.9490   69.5310  225.8350 C   0  0  0  0  0  0  0  0  0  0  0  0
  140.7850   70.2760  226.8380 C   0  0  0  0  0  0  0  0  0  0  0  0
  141.2320   71.6160  226.2750 C   0  0  0  0  0  0  0  0  0  0  0  0
  141.7080   72.2960  227.5600 C   0  0  0  0  0  0  0  0  0  0  0  0
  140.7760   71.7720  228.6430 C   0  0  0  0  0  0  0  0  0  0  0  0
  139.9510   70.6700  228.0090 C   0  0  0  0  0  0  0  0  0  0  0  0
  139.3600   70.0380  224.7760 O   0  0  0  0  0  0  0  0  0  0  0  0
  140.9800   75.5870  221.4980 C   0  0  0  0  0  0  0  0  0  0  0  0
  141.7500   76.0660  220.4590 C   0  0  0  0  0  0  0  0  0  0  0  0
  142.0090   77.4270  220.3160 C   0  0  0  0  0  0  0  0  0  0  0  0
  141.4560   78.2670  221.2680 C   0  0  0  0  0  0  0  0  0  0  0  0
  141.6640   79.6300  221.2010 C   0  0  0  0  0  0  0  0  0  0  0  0
  141.1420   80.5190  222.1170 C   0  0  0  0  0  0  0  0  0  0  0  0
  141.4560   82.2290  221.9560 Cl  0  0  0  0  0  0  0  0  0  0  0  0
  140.3790   79.9880  223.1370 C   0  0  0  0  0  0  0  0  0  0  0  0
  140.1390   78.6270  223.2540 C   0  0  0  0  0  0  0  0  0  0  0  0
  140.6830   77.7590  222.3080 C   0  0  0  0  0  0  0  0  0  0  0  0
  140.4480   76.4330  222.4210 N   0  0  0  0  0  0  0  0  0  0  0  0
  138.9550   74.3010  222.7000 H   0  0  0  0  0  0  0  0  0  0  0  0
  139.7795   71.6837  221.5422 H   0  0  0  0  0  0  0  0  0  0  0  0
  139.7260   71.8817  223.3512 H   0  0  0  0  0  0  0  0  0  0  0  0
  136.6055   70.9505  224.9345 H   0  0  0  0  0  0  0  0  0  0  0  0
  135.4669   71.2975  223.6154 H   0  0  0  0  0  0  0  0  0  0  0  0
  136.0473   68.7492  224.9181 H   0  0  0  0  0  0  0  0  0  0  0  0
  134.7965   69.0844  223.7210 H   0  0  0  0  0  0  0  0  0  0  0  0
  136.9864   67.5053  223.1633 H   0  0  0  0  0  0  0  0  0  0  0  0
  136.2426   68.4502  221.8972 H   0  0  0  0  0  0  0  0  0  0  0  0
  138.5804   69.2780  221.9758 H   0  0  0  0  0  0  0  0  0  0  0  0
  139.9696   67.4513  226.5774 H   0  0  0  0  0  0  0  0  0  0  0  0
  141.6238   69.6125  227.0951 H   0  0  0  0  0  0  0  0  0  0  0  0
  142.0484   71.5014  225.5468 H   0  0  0  0  0  0  0  0  0  0  0  0
  140.4596   72.1661  225.7174 H   0  0  0  0  0  0  0  0  0  0  0  0
  142.7506   72.0228  227.7801 H   0  0  0  0  0  0  0  0  0  0  0  0
  141.6824   73.3931  227.4842 H   0  0  0  0  0  0  0  0  0  0  0  0
  141.3598   71.3722  229.4852 H   0  0  0  0  0  0  0  0  0  0  0  0
  140.1326   72.5738  229.0344 H   0  0  0  0  0  0  0  0  0  0  0  0
  139.8148   69.8266  228.7019 H   0  0  0  0  0  0  0  0  0  0  0  0
  138.9332   70.9857  227.7362 H   0  0  0  0  0  0  0  0  0  0  0  0
  142.1683   75.3585  219.7280 H   0  0  0  0  0  0  0  0  0  0  0  0
  142.6217   77.8150  219.4889 H   0  0  0  0  0  0  0  0  0  0  0  0
  142.2757   80.0262  220.3771 H   0  0  0  0  0  0  0  0  0  0  0  0
  139.9454   80.6689  223.8843 H   0  0  0  0  0  0  0  0  0  0  0  0
  139.5279   78.2377  224.0817 H   0  0  0  0  0  0  0  0  0  0  0  0
  1  2  2  0
  2  3  1  0
  3  4  1  0
  4  5  1  0
  5  6  2  0
  5  7  1  0
  7  8  1  0
  8  9  1  0
  9 10  1  0
 10 11  1  0
 11 12  1  0
 12 13  2  0
 13 14  1  0
 14 15  2  0
 15 16  1  0
 16 17  1  0
 17 18  1  0
 18 19  1  0
 19 20  1  0
 15 21  1  0
  2 22  1  0
 22 23  2  0
 23 24  1  0
 24 25  2  0
 25 26  1  0
 26 27  2  0
 27 28  1  0
 27 29  1  0
 29 30  2  0
 30 31  1  0
 31 32  2  0
 11  7  1  0
 21 12  1  0
 32 22  1  0
 20 16  1  0
 31 25  1  0
  3 33  1  0
  4 34  1  0
  4 35  1  0
  8 36  1  0
  8 37  1  0
  9 38  1  0
  9 39  1  0
 10 40  1  0
 10 41  1  0
 11 42  1  6
 14 43  1  0
 16 44  1  0
 17 45  1  0
 17 46  1  0
 18 47  1  0
 18 48  1  0
 19 49  1  0
 19 50  1  0
 20 51  1  0
 20 52  1  0
 23 53  1  0
 24 54  1  0
 26 55  1  0
 29 56  1  0
 30 57  1  0
M  END
>  <smiles>  (13) 
O=C(NCC(=O)N1CCC[C@@H]1c1ncc(C2CCCC2)o1)c1ccc2cc(Cl)ccc2n1

>  <score_type>  (13) 
oracle

>  <origin>  (13) 
autodockgpu

>  <m_score__min__energy>  (13) 
-8.9900000000000002

>  <m_primary>  (13) 
energy

>  <rmsd>  (13) 
9.63826586903297

>  <m_score__min__rmsd>  (13) 
9.63826586903297

>  <meeko>  (13) 
{"free_energy": -8.83, "intermolecular_energy": -10.62, "internal_energy": -2.12, "cluster_size": 5, "cluster_id": 2, "rank_in_cluster": 4}

>  <energy>  (13) 
-8.87

>  <cluster_rmsd>  (13) 
0.14

>  <cluster>  (13) 
2

$$$$

     RDKit          3D

 57 61  0  0  0  0  0  0  0  0999 V2000
  138.4160   71.0010  220.9510 O   0  0  0  0  0  0  0  0  0  0  0  0
  138.7660   71.5640  222.0270 C   0  0  0  0  0  0  0  0  0  0  0  0
  138.7980   72.9860  222.0350 N   0  0  0  0  0  0  0  0  0  0  0  0
  138.4620   73.8150  220.9200 C   0  0  0  0  0  0  0  0  0  0  0  0
  139.4760   73.7550  219.8340 C   0  0  0  0  0  0  0  0  0  0  0  0
  139.2540   73.2470  218.7060 O   0  0  0  0  0  0  0  0  0  0  0  0
  140.7640   74.3070  220.0910 N   0  0  0  0  0  0  0  0  0  0  0  0
  141.8130   73.6670  220.8510 C   0  0  0  0  0  0  0  0  0  0  0  0
  143.1020   74.3330  220.4580 C   0  0  0  0  0  0  0  0  0  0  0  0
  142.7210   75.2940  219.3500 C   0  0  0  0  0  0  0  0  0  0  0  0
  141.2900   75.5880  219.6610 C   0  0  2  0  0  0  0  0  0  0  0  0
  141.2830   76.4890  220.8620 C   0  0  0  0  0  0  0  0  0  0  0  0
  140.7670   76.2530  222.0810 N   0  0  0  0  0  0  0  0  0  0  0  0
  141.0230   77.3810  222.8020 C   0  0  0  0  0  0  0  0  0  0  0  0
  141.6920   78.2770  221.9960 C   0  0  0  0  0  0  0  0  0  0  0  0
  142.1760   79.6520  222.3600 C   0  0  0  0  0  0  0  0  0  0  0  0
  141.1790   80.7100  221.9110 C   0  0  0  0  0  0  0  0  0  0  0  0
  141.6970   81.9130  222.7020 C   0  0  0  0  0  0  0  0  0  0  0  0
  142.2190   81.3240  224.0050 C   0  0  0  0  0  0  0  0  0  0  0  0
  142.1880   79.8180  223.8410 C   0  0  0  0  0  0  0  0  0  0  0  0
  141.8220   77.6840  220.8320 O   0  0  0  0  0  0  0  0  0  0  0  0
  139.1280   70.7940  223.2210 C   0  0  0  0  0  0  0  0  0  0  0  0
  138.7910   69.4580  223.2580 C   0  0  0  0  0  0  0  0  0  0  0  0
  139.1010   68.6610  224.3580 C   0  0  0  0  0  0  0  0  0  0  0  0
  139.7620   69.2810  225.4050 C   0  0  0  0  0  0  0  0  0  0  0  0
  140.1060   68.5640  226.5340 C   0  0  0  0  0  0  0  0  0  0  0  0
  140.7640   69.1230  227.6100 C   0  0  0  0  0  0  0  0  0  0  0  0
  141.1610   68.1410  228.9990 Cl  0  0  0  0  0  0  0  0  0  0  0  0
  141.0790   70.4630  227.5230 C   0  0  0  0  0  0  0  0  0  0  0  0
  140.7560   71.2310  226.4140 C   0  0  0  0  0  0  0  0  0  0  0  0
  140.0910   70.6320  225.3450 C   0  0  0  0  0  0  0  0  0  0  0  0
  139.7780   71.3800  224.2640 N   0  0  0  0  0  0  0  0  0  0  0  0
  139.0900   73.4610  222.9300 H   0  0  0  0  0  0  0  0  0  0  0  0
  137.4935   73.4855  220.5157 H   0  0  0  0  0  0  0  0  0  0  0  0
  138.4208   74.8540  221.2790 H   0  0  0  0  0  0  0  0  0  0  0  0
  141.6330   73.7964  221.9284 H   0  0  0  0  0  0  0  0  0  0  0  0
  141.8476   72.5871  220.6444 H   0  0  0  0  0  0  0  0  0  0  0  0
  143.5326   74.8772  221.3115 H   0  0  0  0  0  0  0  0  0  0  0  0
  143.8618   73.6067  220.1337 H   0  0  0  0  0  0  0  0  0  0  0  0
  143.3325   76.2076  219.3874 H   0  0  0  0  0  0  0  0  0  0  0  0
  142.8773   74.8862  218.3404 H   0  0  0  0  0  0  0  0  0  0  0  0
  140.7346   76.0395  218.8257 H   0  0  0  0  0  0  0  0  0  0  0  0
  140.7424   77.5485  223.8523 H   0  0  0  0  0  0  0  0  0  0  0  0
  143.1662   79.7627  221.8938 H   0  0  0  0  0  0  0  0  0  0  0  0
  141.2278   80.8829  220.8258 H   0  0  0  0  0  0  0  0  0  0  0  0
  140.1231   80.4577  222.0885 H   0  0  0  0  0  0  0  0  0  0  0  0
  142.5055   82.4186  222.1537 H   0  0  0  0  0  0  0  0  0  0  0  0
  140.9148   82.6678  222.8707 H   0  0  0  0  0  0  0  0  0  0  0  0
  143.2484   81.6647  224.1903 H   0  0  0  0  0  0  0  0  0  0  0  0
  141.6043   81.6432  224.8596 H   0  0  0  0  0  0  0  0  0  0  0  0
  143.0797   79.3518  224.2855 H   0  0  0  0  0  0  0  0  0  0  0  0
  141.3324   79.3411  224.3415 H   0  0  0  0  0  0  0  0  0  0  0  0
  138.2660   69.0114  222.4007 H   0  0  0  0  0  0  0  0  0  0  0  0
  138.8344   67.5944  224.3929 H   0  0  0  0  0  0  0  0  0  0  0  0
  139.8429   67.4968  226.5774 H   0  0  0  0  0  0  0  0  0  0  0  0
  141.6052   70.9397  228.3632 H   0  0  0  0  0  0  0  0  0  0  0  0
  141.0209   72.2980  226.3785 H   0  0  0  0  0  0  0  0  0  0  0  0
  1  2  2  0
  2  3  1  0
  3  4  1  0
  4  5  1  0
  5  6  2  0
  5  7  1  0
  7  8  1  0
  8  9  1  0
  9 10  1  0
 10 11  1  0
 11 12  1  0
 12 13  2  0
 13 14  1  0
 14 15  2  0
 15 16  1  0
 16 17  1  0
 17 18  1  0
 18 19  1  0
 19 20  1  0
 15 21  1  0
  2 22  1  0
 22 23  2  0
 23 24  1  0
 24 25  2  0
 25 26  1  0
 26 27  2  0
 27 28  1  0
 27 29  1  0
 29 30  2  0
 30 31  1  0
 31 32  2  0
 11  7  1  0
 21 12  1  0
 32 22  1  0
 20 16  1  0
 31 25  1  0
  3 33  1  0
  4 34  1  0
  4 35  1  0
  8 36  1  0
  8 37  1  0
  9 38  1  0
  9 39  1  0
 10 40  1  0
 10 41  1  0
 11 42  1  6
 14 43  1  0
 16 44  1  0
 17 45  1  0
 17 46  1  0
 18 47  1  0
 18 48  1  0
 19 49  1  0
 19 50  1  0
 20 51  1  0
 20 52  1  0
 23 53  1  0
 24 54  1  0
 26 55  1  0
 29 56  1  0
 30 57  1  0
M  END
>  <smiles>  (14) 
O=C(NCC(=O)N1CCC[C@@H]1c1ncc(C2CCCC2)o1)c1ccc2cc(Cl)ccc2n1

>  <score_type>  (14) 
oracle

>  <origin>  (14) 
autodockgpu

>  <m_score__min__energy>  (14) 
-8.9900000000000002

>  <m_primary>  (14) 
energy

>  <rmsd>  (14) 
2.4954967812613384

>  <m_score__min__rmsd>  (14) 
2.4954967812613384

>  <meeko>  (14) 
{"free_energy": -8.66, "intermolecular_energy": -10.45, "internal_energy": -1.97, "cluster_size": 11, "cluster_id": 1, "rank_in_cluster": 7}

>  <energy>  (14) 
-8.85

>  <cluster_rmsd>  (14) 
0.28

>  <cluster>  (14) 
2

$$$$

     RDKit          3D

 57 61  0  0  0  0  0  0  0  0999 V2000
  141.6690   73.1290  220.6140 O   0  0  0  0  0  0  0  0  0  0  0  0
  140.9420   73.9090  221.2930 C   0  0  0  0  0  0  0  0  0  0  0  0
  139.9200   73.3170  222.0880 N   0  0  0  0  0  0  0  0  0  0  0  0
  139.6630   71.9130  222.1710 C   0  0  0  0  0  0  0  0  0  0  0  0
  138.2360   71.5750  221.9250 C   0  0  0  0  0  0  0  0  0  0  0  0
  137.5590   72.0650  220.9860 O   0  0  0  0  0  0  0  0  0  0  0  0
  137.6090   70.6450  222.8030 N   0  0  0  0  0  0  0  0  0  0  0  0
  136.6300   70.9760  223.8130 C   0  0  0  0  0  0  0  0  0  0  0  0
  135.8940   69.7040  224.1360 C   0  0  0  0  0  0  0  0  0  0  0  0
  136.4410   68.6800  223.1620 C   0  0  0  0  0  0  0  0  0  0  0  0
  137.8080   69.2110  222.8770 C   0  0  2  0  0  0  0  0  0  0  0  0
  138.6410   68.9460  224.0970 C   0  0  0  0  0  0  0  0  0  0  0  0
  138.8710   67.7750  224.7140 N   0  0  0  0  0  0  0  0  0  0  0  0
  139.6850   68.0760  225.7640 C   0  0  0  0  0  0  0  0  0  0  0  0
  139.9300   69.4320  225.7570 C   0  0  0  0  0  0  0  0  0  0  0  0
  140.7710   70.2170  226.7240 C   0  0  0  0  0  0  0  0  0  0  0  0
  141.1680   71.5580  226.1260 C   0  0  0  0  0  0  0  0  0  0  0  0
  141.6590   72.2740  227.3860 C   0  0  0  0  0  0  0  0  0  0  0  0
  140.7700   71.7460  228.5030 C   0  0  0  0  0  0  0  0  0  0  0  0
  139.9590   70.6110  227.9100 C   0  0  0  0  0  0  0  0  0  0  0  0
  139.2720   69.9100  224.7260 O   0  0  0  0  0  0  0  0  0  0  0  0
  141.1320   75.3620  221.2700 C   0  0  0  0  0  0  0  0  0  0  0  0
  141.9240   75.8960  220.2750 C   0  0  0  0  0  0  0  0  0  0  0  0
  142.1520   77.2670  220.1870 C   0  0  0  0  0  0  0  0  0  0  0  0
  141.5440   78.0590  221.1460 C   0  0  0  0  0  0  0  0  0  0  0  0
  141.7190   79.4290  221.1310 C   0  0  0  0  0  0  0  0  0  0  0  0
  141.1410   80.2730  222.0580 C   0  0  0  0  0  0  0  0  0  0  0  0
  141.4150   81.9950  221.9650 Cl  0  0  0  0  0  0  0  0  0  0  0  0
  140.3580   79.6880  223.0320 C   0  0  0  0  0  0  0  0  0  0  0  0
  140.1500   78.3190  223.0940 C   0  0  0  0  0  0  0  0  0  0  0  0
  140.7500   77.4970  222.1400 C   0  0  0  0  0  0  0  0  0  0  0  0
  140.5460   76.1630  222.2010 N   0  0  0  0  0  0  0  0  0  0  0  0
  139.3100   73.9630  222.6560 H   0  0  0  0  0  0  0  0  0  0  0  0
  140.2810   71.3972  221.4213 H   0  0  0  0  0  0  0  0  0  0  0  0
  139.9093   71.5901  223.1933 H   0  0  0  0  0  0  0  0  0  0  0  0
  137.1300   71.3635  224.7129 H   0  0  0  0  0  0  0  0  0  0  0  0
  135.9386   71.7526  223.4540 H   0  0  0  0  0  0  0  0  0  0  0  0
  136.0909   69.3955  225.1733 H   0  0  0  0  0  0  0  0  0  0  0  0
  134.8040   69.8214  224.0453 H   0  0  0  0  0  0  0  0  0  0  0  0
  136.4890   67.6808  223.6195 H   0  0  0  0  0  0  0  0  0  0  0  0
  135.8212   68.5527  222.2622 H   0  0  0  0  0  0  0  0  0  0  0  0
  138.2764   68.7803  221.9797 H   0  0  0  0  0  0  0  0  0  0  0  0
  140.0809   67.3563  226.4957 H   0  0  0  0  0  0  0  0  0  0  0  0
  141.6330   69.5796  226.9701 H   0  0  0  0  0  0  0  0  0  0  0  0
  141.9682   71.4512  225.3788 H   0  0  0  0  0  0  0  0  0  0  0  0
  140.3672   72.0776  225.5794 H   0  0  0  0  0  0  0  0  0  0  0  0
  142.7139   72.0324  227.5830 H   0  0  0  0  0  0  0  0  0  0  0  0
  141.6018   73.3684  227.2913 H   0  0  0  0  0  0  0  0  0  0  0  0
  141.3860   71.3774  229.3365 H   0  0  0  0  0  0  0  0  0  0  0  0
  140.1159   72.5375  228.8976 H   0  0  0  0  0  0  0  0  0  0  0  0
  139.8639   69.7771  228.6210 H   0  0  0  0  0  0  0  0  0  0  0  0
  138.9266   70.8954  227.6587 H   0  0  0  0  0  0  0  0  0  0  0  0
  142.3852   75.2249  219.5355 H   0  0  0  0  0  0  0  0  0  0  0  0
  142.7829   77.6986  219.3960 H   0  0  0  0  0  0  0  0  0  0  0  0
  142.3486   79.8683  220.3432 H   0  0  0  0  0  0  0  0  0  0  0  0
  139.8817   80.3313  223.7865 H   0  0  0  0  0  0  0  0  0  0  0  0
  139.5200   77.8864  223.8852 H   0  0  0  0  0  0  0  0  0  0  0  0
  1  2  2  0
  2  3  1  0
  3  4  1  0
  4  5  1  0
  5  6  2  0
  5  7  1  0
  7  8  1  0
  8  9  1  0
  9 10  1  0
 10 11  1  0
 11 12  1  0
 12 13  2  0
 13 14  1  0
 14 15  2  0
 15 16  1  0
 16 17  1  0
 17 18  1  0
 18 19  1  0
 19 20  1  0
 15 21  1  0
  2 22  1  0
 22 23  2  0
 23 24  1  0
 24 25  2  0
 25 26  1  0
 26 27  2  0
 27 28  1  0
 27 29  1  0
 29 30  2  0
 30 31  1  0
 31 32  2  0
 11  7  1  0
 21 12  1  0
 32 22  1  0
 20 16  1  0
 31 25  1  0
  3 33  1  0
  4 34  1  0
  4 35  1  0
  8 36  1  0
  8 37  1  0
  9 38  1  0
  9 39  1  0
 10 40  1  0
 10 41  1  0
 11 42  1  6
 14 43  1  0
 16 44  1  0
 17 45  1  0
 17 46  1  0
 18 47  1  0
 18 48  1  0
 19 49  1  0
 19 50  1  0
 20 51  1  0
 20 52  1  0
 23 53  1  0
 24 54  1  0
 26 55  1  0
 29 56  1  0
 30 57  1  0
M  END
>  <smiles>  (15) 
O=C(NCC(=O)N1CCC[C@@H]1c1ncc(C2CCCC2)o1)c1ccc2cc(Cl)ccc2n1

>  <score_type>  (15) 
oracle

>  <origin>  (15) 
autodockgpu

>  <m_score__min__energy>  (15) 
-8.9900000000000002

>  <m_primary>  (15) 
energy

>  <rmsd>  (15) 
9.601342217995791

>  <m_score__min__rmsd>  (15) 
9.601342217995791

>  <meeko>  (15) 
{"free_energy": -8.87, "intermolecular_energy": -10.66, "internal_energy": -2.06, "cluster_size": 5, "cluster_id": 2, "rank_in_cluster": 2}

>  <energy>  (15) 
-8.83

>  <cluster_rmsd>  (15) 
0.32

>  <cluster>  (15) 
2

$$$$

     RDKit          3D

 57 61  0  0  0  0  0  0  0  0999 V2000
  143.1450   76.8030  217.8010 O   0  0  0  0  0  0  0  0  0  0  0  0
  142.7950   77.3780  218.8710 C   0  0  0  0  0  0  0  0  0  0  0  0
  142.8370   76.6080  220.0660 N   0  0  0  0  0  0  0  0  0  0  0  0
  143.2480   75.2400  220.1410 C   0  0  0  0  0  0  0  0  0  0  0  0
  142.1010   74.2940  220.1130 C   0  0  0  0  0  0  0  0  0  0  0  0
  142.2310   73.0490  219.9910 O   0  0  0  0  0  0  0  0  0  0  0  0
  140.7870   74.8320  220.2330 N   0  0  0  0  0  0  0  0  0  0  0  0
  140.0470   75.4800  219.1740 C   0  0  0  0  0  0  0  0  0  0  0  0
  138.5970   75.4320  219.5670 C   0  0  0  0  0  0  0  0  0  0  0  0
  138.5660   74.6170  220.8440 C   0  0  0  0  0  0  0  0  0  0  0  0
  139.9320   74.8500  221.4030 C   0  0  2  0  0  0  0  0  0  0  0  0
  139.9490   76.2520  221.9370 C   0  0  0  0  0  0  0  0  0  0  0  0
  138.9530   77.1540  221.9510 N   0  0  0  0  0  0  0  0  0  0  0  0
  139.4810   78.2620  222.5420 C   0  0  0  0  0  0  0  0  0  0  0  0
  140.7920   78.0020  222.8750 C   0  0  0  0  0  0  0  0  0  0  0  0
  141.7690   78.9280  223.5440 C   0  0  0  0  0  0  0  0  0  0  0  0
  142.8800   79.3230  222.5830 C   0  0  0  0  0  0  0  0  0  0  0  0
  143.4840   80.5020  223.3480 C   0  0  0  0  0  0  0  0  0  0  0  0
  142.3010   81.1560  224.0470 C   0  0  0  0  0  0  0  0  0  0  0  0
  141.1160   80.2330  223.8470 C   0  0  0  0  0  0  0  0  0  0  0  0
  141.0230   76.7700  222.4850 O   0  0  0  0  0  0  0  0  0  0  0  0
  142.3590   78.7780  218.8910 C   0  0  0  0  0  0  0  0  0  0  0  0
  142.7850   79.6040  217.8720 C   0  0  0  0  0  0  0  0  0  0  0  0
  142.4130   80.9450  217.8220 C   0  0  0  0  0  0  0  0  0  0  0  0
  141.5980   81.4010  218.8450 C   0  0  0  0  0  0  0  0  0  0  0  0
  141.1840   82.7180  218.8710 C   0  0  0  0  0  0  0  0  0  0  0  0
  140.3730   83.2330  219.8610 C   0  0  0  0  0  0  0  0  0  0  0  0
  139.8960   84.9120  219.8170 Cl  0  0  0  0  0  0  0  0  0  0  0  0
  139.9740   82.3650  220.8570 C   0  0  0  0  0  0  0  0  0  0  0  0
  140.3620   81.0330  220.8800 C   0  0  0  0  0  0  0  0  0  0  0  0
  141.1820   80.5480  219.8620 C   0  0  0  0  0  0  0  0  0  0  0  0
  141.5580   79.2500  219.8840 N   0  0  0  0  0  0  0  0  0  0  0  0
  142.5450   77.0820  220.9620 H   0  0  0  0  0  0  0  0  0  0  0  0
  143.9046   75.0224  219.2857 H   0  0  0  0  0  0  0  0  0  0  0  0
  143.7695   75.1018  221.0996 H   0  0  0  0  0  0  0  0  0  0  0  0
  140.3759   76.5241  219.0659 H   0  0  0  0  0  0  0  0  0  0  0  0
  140.2123   74.9757  218.2105 H   0  0  0  0  0  0  0  0  0  0  0  0
  138.2107   76.4463  219.7457 H   0  0  0  0  0  0  0  0  0  0  0  0
  137.9688   74.9911  218.7790 H   0  0  0  0  0  0  0  0  0  0  0  0
  137.7872   74.9811  221.5302 H   0  0  0  0  0  0  0  0  0  0  0  0
  138.3310   73.5545  220.6831 H   0  0  0  0  0  0  0  0  0  0  0  0
  140.2265   74.1290  222.1799 H   0  0  0  0  0  0  0  0  0  0  0  0
  138.9487   79.2074  222.7232 H   0  0  0  0  0  0  0  0  0  0  0  0
  142.1342   78.3978  224.4359 H   0  0  0  0  0  0  0  0  0  0  0  0
  143.6080   78.5102  222.4440 H   0  0  0  0  0  0  0  0  0  0  0  0
  142.5481   79.5548  221.5602 H   0  0  0  0  0  0  0  0  0  0  0  0
  144.2226   80.1499  224.0831 H   0  0  0  0  0  0  0  0  0  0  0  0
  144.0136   81.2012  222.6843 H   0  0  0  0  0  0  0  0  0  0  0  0
  142.5125   81.2752  225.1199 H   0  0  0  0  0  0  0  0  0  0  0  0
  142.0994   82.1556  223.6345 H   0  0  0  0  0  0  0  0  0  0  0  0
  140.5042   80.1688  224.7589 H   0  0  0  0  0  0  0  0  0  0  0  0
  140.4260   80.5706  223.0596 H   0  0  0  0  0  0  0  0  0  0  0  0
  143.4322   79.1949  217.0822 H   0  0  0  0  0  0  0  0  0  0  0  0
  142.7492   81.6083  217.0115 H   0  0  0  0  0  0  0  0  0  0  0  0
  141.5165   83.3880  218.0644 H   0  0  0  0  0  0  0  0  0  0  0  0
  139.3253   82.7425  221.6612 H   0  0  0  0  0  0  0  0  0  0  0  0
  140.0272   80.3687  221.6904 H   0  0  0  0  0  0  0  0  0  0  0  0
  1  2  2  0
  2  3  1  0
  3  4  1  0
  4  5  1  0
  5  6  2  0
  5  7  1  0
  7  8  1  0
  8  9  1  0
  9 10  1  0
 10 11  1  0
 11 12  1  0
 12 13  2  0
 13 14  1  0
 14 15  2  0
 15 16  1  0
 16 17  1  0
 17 18  1  0
 18 19  1  0
 19 20  1  0
 15 21  1  0
  2 22  1  0
 22 23  2  0
 23 24  1  0
 24 25  2  0
 25 26  1  0
 26 27  2  0
 27 28  1  0
 27 29  1  0
 29 30  2  0
 30 31  1  0
 31 32  2  0
 11  7  1  0
 21 12  1  0
 32 22  1  0
 20 16  1  0
 31 25  1  0
  3 33  1  0
  4 34  1  0
  4 35  1  0
  8 36  1  0
  8 37  1  0
  9 38  1  0
  9 39  1  0
 10 40  1  0
 10 41  1  0
 11 42  1  1
 14 43  1  0
 16 44  1  0
 17 45  1  0
 17 46  1  0
 18 47  1  0
 18 48  1  0
 19 49  1  0
 19 50  1  0
 20 51  1  0
 20 52  1  0
 23 53  1  0
 24 54  1  0
 26 55  1  0
 29 56  1  0
 30 57  1  0
M  END
>  <smiles>  (16) 
O=C(NCC(=O)N1CCC[C@@H]1c1ncc(C2CCCC2)o1)c1ccc2cc(Cl)ccc2n1

>  <score_type>  (16) 
oracle

>  <origin>  (16) 
autodockgpu

>  <m_score__min__energy>  (16) 
-8.9900000000000002

>  <m_primary>  (16) 
energy

>  <rmsd>  (16) 
8.43780768630312

>  <m_score__min__rmsd>  (16) 
8.43780768630312

>  <meeko>  (16) 
{"free_energy": -6.45, "intermolecular_energy": -8.24, "internal_energy": -4.28, "cluster_size": 14, "cluster_id": 8, "rank_in_cluster": 7}

>  <energy>  (16) 
-8.74

>  <cluster_rmsd>  (16) 
0.35

>  <cluster>  (16) 
2

$$$$

     RDKit          3D

 57 61  0  0  0  0  0  0  0  0999 V2000
  139.2320   78.0980  222.7080 O   0  0  0  0  0  0  0  0  0  0  0  0
  140.0030   77.1730  222.3240 C   0  0  0  0  0  0  0  0  0  0  0  0
  141.3470   77.5320  222.0240 N   0  0  0  0  0  0  0  0  0  0  0  0
  141.8810   78.8530  222.1290 C   0  0  0  0  0  0  0  0  0  0  0  0
  141.3090   79.7860  221.1210 C   0  0  0  0  0  0  0  0  0  0  0  0
  140.8910   80.9380  221.4010 O   0  0  0  0  0  0  0  0  0  0  0  0
  141.2340   79.3440  219.7690 N   0  0  0  0  0  0  0  0  0  0  0  0
  140.0380   78.8820  219.1030 C   0  0  0  0  0  0  0  0  0  0  0  0
  140.2910   79.0000  217.6260 C   0  0  0  0  0  0  0  0  0  0  0  0
  141.6480   79.6660  217.5150 C   0  0  0  0  0  0  0  0  0  0  0  0
  142.3050   79.2640  218.7950 C   0  0  2  0  0  0  0  0  0  0  0  0
  142.6660   77.8130  218.6600 C   0  0  0  0  0  0  0  0  0  0  0  0
  142.8750   77.1050  217.5370 N   0  0  0  0  0  0  0  0  0  0  0  0
  143.1730   75.8440  217.9590 C   0  0  0  0  0  0  0  0  0  0  0  0
  143.1360   75.8200  219.3370 C   0  0  0  0  0  0  0  0  0  0  0  0
  143.3960   74.6470  220.2400 C   0  0  0  0  0  0  0  0  0  0  0  0
  143.0220   73.3440  219.5510 C   0  0  0  0  0  0  0  0  0  0  0  0
  143.7080   72.3450  220.4840 C   0  0  0  0  0  0  0  0  0  0  0  0
  144.9660   73.0590  220.9590 C   0  0  0  0  0  0  0  0  0  0  0  0
  144.8600   74.4900  220.4710 C   0  0  0  0  0  0  0  0  0  0  0  0
  142.8240   77.0400  219.7080 O   0  0  0  0  0  0  0  0  0  0  0  0
  139.5430   75.7880  222.1860 C   0  0  0  0  0  0  0  0  0  0  0  0
  138.1870   75.5630  222.0770 C   0  0  0  0  0  0  0  0  0  0  0  0
  137.6740   74.2750  221.9430 C   0  0  0  0  0  0  0  0  0  0  0  0
  138.5930   73.2400  221.9270 C   0  0  0  0  0  0  0  0  0  0  0  0
  138.1690   71.9330  221.7980 C   0  0  0  0  0  0  0  0  0  0  0  0
  139.0340   70.8580  221.7750 C   0  0  0  0  0  0  0  0  0  0  0  0
  138.4100   69.2350  221.6090 Cl  0  0  0  0  0  0  0  0  0  0  0  0
  140.3800   71.1370  221.8870 C   0  0  0  0  0  0  0  0  0  0  0  0
  140.8610   72.4310  222.0190 C   0  0  0  0  0  0  0  0  0  0  0  0
  139.9570   73.4930  222.0390 C   0  0  0  0  0  0  0  0  0  0  0  0
  140.4260   74.7530  222.1670 N   0  0  0  0  0  0  0  0  0  0  0  0
  141.9950   76.7650  221.7020 H   0  0  0  0  0  0  0  0  0  0  0  0
  141.6608   79.2426  223.1338 H   0  0  0  0  0  0  0  0  0  0  0  0
  142.9637   78.7890  221.9454 H   0  0  0  0  0  0  0  0  0  0  0  0
  139.8363   77.8342  219.3702 H   0  0  0  0  0  0  0  0  0  0  0  0
  139.1636   79.4783  219.4028 H   0  0  0  0  0  0  0  0  0  0  0  0
  140.3082   78.0058  217.1556 H   0  0  0  0  0  0  0  0  0  0  0  0
  139.5044   79.5751  217.1157 H   0  0  0  0  0  0  0  0  0  0  0  0
  142.2065   79.2899  216.6452 H   0  0  0  0  0  0  0  0  0  0  0  0
  141.5938   80.7551  217.3705 H   0  0  0  0  0  0  0  0  0  0  0  0
  143.1872   79.8680  219.0536 H   0  0  0  0  0  0  0  0  0  0  0  0
  143.4045   74.9877  217.3085 H   0  0  0  0  0  0  0  0  0  0  0  0
  142.8202   74.8328  221.1587 H   0  0  0  0  0  0  0  0  0  0  0  0
  141.9325   73.1949  219.5230 H   0  0  0  0  0  0  0  0  0  0  0  0
  143.3231   73.2747  218.4953 H   0  0  0  0  0  0  0  0  0  0  0  0
  143.0565   72.0995  221.3357 H   0  0  0  0  0  0  0  0  0  0  0  0
  143.9349   71.3939  219.9802 H   0  0  0  0  0  0  0  0  0  0  0  0
  145.0244   73.0355  222.0572 H   0  0  0  0  0  0  0  0  0  0  0  0
  145.8713   72.5717  220.5678 H   0  0  0  0  0  0  0  0  0  0  0  0
  145.2199   75.1971  221.2329 H   0  0  0  0  0  0  0  0  0  0  0  0
  145.4683   74.6937  219.5774 H   0  0  0  0  0  0  0  0  0  0  0  0
  137.4959   76.4186  222.0963 H   0  0  0  0  0  0  0  0  0  0  0  0
  136.5933   74.0897  221.8544 H   0  0  0  0  0  0  0  0  0  0  0  0
  137.0899   71.7389  221.7093 H   0  0  0  0  0  0  0  0  0  0  0  0
  141.0976   70.3034  221.8710 H   0  0  0  0  0  0  0  0  0  0  0  0
  141.9415   72.6174  222.1068 H   0  0  0  0  0  0  0  0  0  0  0  0
  1  2  2  0
  2  3  1  0
  3  4  1  0
  4  5  1  0
  5  6  2  0
  5  7  1  0
  7  8  1  0
  8  9  1  0
  9 10  1  0
 10 11  1  0
 11 12  1  0
 12 13  2  0
 13 14  1  0
 14 15  2  0
 15 16  1  0
 16 17  1  0
 17 18  1  0
 18 19  1  0
 19 20  1  0
 15 21  1  0
  2 22  1  0
 22 23  2  0
 23 24  1  0
 24 25  2  0
 25 26  1  0
 26 27  2  0
 27 28  1  0
 27 29  1  0
 29 30  2  0
 30 31  1  0
 31 32  2  0
 11  7  1  0
 21 12  1  0
 32 22  1  0
 20 16  1  0
 31 25  1  0
  3 33  1  0
  4 34  1  0
  4 35  1  0
  8 36  1  0
  8 37  1  0
  9 38  1  0
  9 39  1  0
 10 40  1  0
 10 41  1  0
 11 42  1  1
 14 43  1  0
 16 44  1  0
 17 45  1  0
 17 46  1  0
 18 47  1  0
 18 48  1  0
 19 49  1  0
 19 50  1  0
 20 51  1  0
 20 52  1  0
 23 53  1  0
 24 54  1  0
 26 55  1  0
 29 56  1  0
 30 57  1  0
M  END
>  <smiles>  (17) 
O=C(NCC(=O)N1CCC[C@@H]1c1ncc(C2CCCC2)o1)c1ccc2cc(Cl)ccc2n1

>  <score_type>  (17) 
oracle

>  <origin>  (17) 
autodockgpu

>  <m_score__min__energy>  (17) 
-8.9900000000000002

>  <m_primary>  (17) 
energy

>  <rmsd>  (17) 
6.402948437577007

>  <m_score__min__rmsd>  (17) 
6.402948437577007

>  <meeko>  (17) 
{"free_energy": -6.34, "intermolecular_energy": -8.13, "internal_energy": -3.77, "cluster_size": 1, "cluster_id": 9, "rank_in_cluster": 1}

>  <energy>  (17) 
-8.81

>  <cluster_rmsd>  (17) 
0.0

>  <cluster>  (17) 
3

$$$$

     RDKit          3D

 57 61  0  0  0  0  0  0  0  0999 V2000
  139.4310   73.6520  222.3140 O   0  0  0  0  0  0  0  0  0  0  0  0
  139.7510   72.4390  222.1630 C   0  0  0  0  0  0  0  0  0  0  0  0
  139.9830   71.9890  220.8330 N   0  0  0  0  0  0  0  0  0  0  0  0
  139.8820   72.8090  219.6660 C   0  0  0  0  0  0  0  0  0  0  0  0
  141.1870   72.9880  218.9760 C   0  0  0  0  0  0  0  0  0  0  0  0
  141.5100   72.3680  217.9310 O   0  0  0  0  0  0  0  0  0  0  0  0
  142.1150   73.9150  219.5310 N   0  0  0  0  0  0  0  0  0  0  0  0
  143.1650   73.5900  220.4690 C   0  0  0  0  0  0  0  0  0  0  0  0
  144.1720   74.7040  220.3960 C   0  0  0  0  0  0  0  0  0  0  0  0
  143.6780   75.6020  219.2800 C   0  0  0  0  0  0  0  0  0  0  0  0
  142.2070   75.3410  219.2880 C   0  0  2  0  0  0  0  0  0  0  0  0
  141.6510   76.0300  220.5010 C   0  0  0  0  0  0  0  0  0  0  0  0
  140.9410   75.4990  221.5110 N   0  0  0  0  0  0  0  0  0  0  0  0
  140.6830   76.5390  222.3530 C   0  0  0  0  0  0  0  0  0  0  0  0
  141.2470   77.6810  221.8280 C   0  0  0  0  0  0  0  0  0  0  0  0
  141.2190   79.0680  222.4080 C   0  0  0  0  0  0  0  0  0  0  0  0
  142.1460   79.1670  223.6100 C   0  0  0  0  0  0  0  0  0  0  0  0
  142.2210   80.6870  223.7610 C   0  0  0  0  0  0  0  0  0  0  0  0
  142.1450   81.2210  222.3370 C   0  0  0  0  0  0  0  0  0  0  0  0
  141.8180   80.0380  221.4480 C   0  0  0  0  0  0  0  0  0  0  0  0
  141.8220   77.3140  220.7050 O   0  0  0  0  0  0  0  0  0  0  0  0
  139.8780   71.5240  223.3010 C   0  0  0  0  0  0  0  0  0  0  0  0
  139.4820   70.2140  223.1280 C   0  0  0  0  0  0  0  0  0  0  0  0
  139.5720   69.2860  224.1620 C   0  0  0  0  0  0  0  0  0  0  0  0
  140.0770   69.7470  225.3660 C   0  0  0  0  0  0  0  0  0  0  0  0
  140.2000   68.8920  226.4430 C   0  0  0  0  0  0  0  0  0  0  0  0
  140.6950   69.2890  227.6680 C   0  0  0  0  0  0  0  0  0  0  0  0
  140.8160   68.1400  228.9780 Cl  0  0  0  0  0  0  0  0  0  0  0  0
  141.0780   70.6090  227.7900 C   0  0  0  0  0  0  0  0  0  0  0  0
  140.9750   71.5110  226.7410 C   0  0  0  0  0  0  0  0  0  0  0  0
  140.4700   71.0730  225.5170 C   0  0  0  0  0  0  0  0  0  0  0  0
  140.3710   71.9520  224.4950 N   0  0  0  0  0  0  0  0  0  0  0  0
  140.2490   70.9770  220.7010 H   0  0  0  0  0  0  0  0  0  0  0  0
  139.1753   72.3394  218.9660 H   0  0  0  0  0  0  0  0  0  0  0  0
  139.5367   73.8028  219.9870 H   0  0  0  0  0  0  0  0  0  0  0  0
  142.7543   73.5167  221.4868 H   0  0  0  0  0  0  0  0  0  0  0  0
  143.6278   72.6226  220.2241 H   0  0  0  0  0  0  0  0  0  0  0  0
  144.2103   75.2544  221.3476 H   0  0  0  0  0  0  0  0  0  0  0  0
  145.1898   74.3312  220.2084 H   0  0  0  0  0  0  0  0  0  0  0  0
  143.8961   76.6589  219.4932 H   0  0  0  0  0  0  0  0  0  0  0  0
  144.1554   75.4013  218.3095 H   0  0  0  0  0  0  0  0  0  0  0  0
  141.6887   75.6706  218.3754 H   0  0  0  0  0  0  0  0  0  0  0  0
  140.1184   76.4770  223.2950 H   0  0  0  0  0  0  0  0  0  0  0  0
  140.1675   79.2788  222.6527 H   0  0  0  0  0  0  0  0  0  0  0  0
  141.7124   78.6889  224.5007 H   0  0  0  0  0  0  0  0  0  0  0  0
  143.1170   78.6643  223.4896 H   0  0  0  0  0  0  0  0  0  0  0  0
  141.3772   81.0594  224.3605 H   0  0  0  0  0  0  0  0  0  0  0  0
  143.1369   81.0092  224.2781 H   0  0  0  0  0  0  0  0  0  0  0  0
  141.3562   81.9837  222.2592 H   0  0  0  0  0  0  0  0  0  0  0  0
  143.0935   81.6914  222.0385 H   0  0  0  0  0  0  0  0  0  0  0  0
  141.0986   80.3169  220.6640 H   0  0  0  0  0  0  0  0  0  0  0  0
  142.6908   79.6398  220.9098 H   0  0  0  0  0  0  0  0  0  0  0  0
  139.0866   69.8957  222.1521 H   0  0  0  0  0  0  0  0  0  0  0  0
  139.2580   68.2402  224.0292 H   0  0  0  0  0  0  0  0  0  0  0  0
  139.8885   67.8444  226.3184 H   0  0  0  0  0  0  0  0  0  0  0  0
  141.4791   70.9584  228.7528 H   0  0  0  0  0  0  0  0  0  0  0  0
  141.2874   72.5574  226.8729 H   0  0  0  0  0  0  0  0  0  0  0  0
  1  2  2  0
  2  3  1  0
  3  4  1  0
  4  5  1  0
  5  6  2  0
  5  7  1  0
  7  8  1  0
  8  9  1  0
  9 10  1  0
 10 11  1  0
 11 12  1  0
 12 13  2  0
 13 14  1  0
 14 15  2  0
 15 16  1  0
 16 17  1  0
 17 18  1  0
 18 19  1  0
 19 20  1  0
 15 21  1  0
  2 22  1  0
 22 23  2  0
 23 24  1  0
 24 25  2  0
 25 26  1  0
 26 27  2  0
 27 28  1  0
 27 29  1  0
 29 30  2  0
 30 31  1  0
 31 32  2  0
 11  7  1  0
 21 12  1  0
 32 22  1  0
 20 16  1  0
 31 25  1  0
  3 33  1  0
  4 34  1  0
  4 35  1  0
  8 36  1  0
  8 37  1  0
  9 38  1  0
  9 39  1  0
 10 40  1  0
 10 41  1  0
 11 42  1  6
 14 43  1  0
 16 44  1  0
 17 45  1  0
 17 46  1  0
 18 47  1  0
 18 48  1  0
 19 49  1  0
 19 50  1  0
 20 51  1  0
 20 52  1  0
 23 53  1  0
 24 54  1  0
 26 55  1  0
 29 56  1  0
 30 57  1  0
M  END
>  <smiles>  (18) 
O=C(NCC(=O)N1CCC[C@@H]1c1ncc(C2CCCC2)o1)c1ccc2cc(Cl)ccc2n1

>  <score_type>  (18) 
oracle

>  <origin>  (18) 
autodockgpu

>  <m_score__min__energy>  (18) 
-8.9900000000000002

>  <m_primary>  (18) 
energy

>  <rmsd>  (18) 
3.150424012903664

>  <m_score__min__rmsd>  (18) 
3.150424012903664

>  <meeko>  (18) 
{"free_energy": -8.99, "intermolecular_energy": -10.78, "internal_energy": -1.81, "cluster_size": 11, "cluster_id": 1, "rank_in_cluster": 1}

>  <energy>  (18) 
-8.7

>  <cluster_rmsd>  (18) 
0.37

>  <cluster>  (18) 
3

$$$$

     RDKit          3D

 57 61  0  0  0  0  0  0  0  0999 V2000
  142.9340   76.8650  217.8480 O   0  0  0  0  0  0  0  0  0  0  0  0
  142.5990   77.4370  218.9250 C   0  0  0  0  0  0  0  0  0  0  0  0
  142.6150   76.6500  220.1100 N   0  0  0  0  0  0  0  0  0  0  0  0
  142.9820   75.2690  220.1670 C   0  0  0  0  0  0  0  0  0  0  0  0
  141.8110   74.3590  220.0530 C   0  0  0  0  0  0  0  0  0  0  0  0
  141.9050   73.1450  219.7390 O   0  0  0  0  0  0  0  0  0  0  0  0
  140.5190   74.8960  220.3160 N   0  0  0  0  0  0  0  0  0  0  0  0
  139.6450   75.4950  219.3330 C   0  0  0  0  0  0  0  0  0  0  0  0
  138.2560   75.4590  219.9090 C   0  0  0  0  0  0  0  0  0  0  0  0
  138.3950   74.6980  221.2120 C   0  0  0  0  0  0  0  0  0  0  0  0
  139.8180   74.9590  221.5830 C   0  0  2  0  0  0  0  0  0  0  0  0
  139.8900   76.3830  222.0530 C   0  0  0  0  0  0  0  0  0  0  0  0
  138.9400   77.3320  221.9930 N   0  0  0  0  0  0  0  0  0  0  0  0
  139.5040   78.4400  222.5490 C   0  0  0  0  0  0  0  0  0  0  0  0
  140.7910   78.1330  222.9350 C   0  0  0  0  0  0  0  0  0  0  0  0
  141.7930   79.0410  223.5910 C   0  0  0  0  0  0  0  0  0  0  0  0
  142.9160   79.3890  222.6270 C   0  0  0  0  0  0  0  0  0  0  0  0
  143.5520   80.5630  223.3740 C   0  0  0  0  0  0  0  0  0  0  0  0
  142.3870   81.2610  224.0600 C   0  0  0  0  0  0  0  0  0  0  0  0
  141.1760   80.3690  223.8720 C   0  0  0  0  0  0  0  0  0  0  0  0
  140.9720   76.8730  222.6100 O   0  0  0  0  0  0  0  0  0  0  0  0
  142.2080   78.8490  218.9630 C   0  0  0  0  0  0  0  0  0  0  0  0
  142.6290   79.6670  217.9350 C   0  0  0  0  0  0  0  0  0  0  0  0
  142.2980   81.0190  217.9010 C   0  0  0  0  0  0  0  0  0  0  0  0
  141.5280   81.4950  218.9490 C   0  0  0  0  0  0  0  0  0  0  0  0
  141.1550   82.8240  218.9930 C   0  0  0  0  0  0  0  0  0  0  0  0
  140.3900   83.3590  220.0080 C   0  0  0  0  0  0  0  0  0  0  0  0
  139.9650   85.0530  219.9840 Cl  0  0  0  0  0  0  0  0  0  0  0  0
  139.9950   82.4990  221.0120 C   0  0  0  0  0  0  0  0  0  0  0  0
  140.3410   81.1560  221.0190 C   0  0  0  0  0  0  0  0  0  0  0  0
  141.1160   80.6500  219.9750 C   0  0  0  0  0  0  0  0  0  0  0  0
  141.4520   79.3420  219.9810 N   0  0  0  0  0  0  0  0  0  0  0  0
  142.3360   77.1210  221.0110 H   0  0  0  0  0  0  0  0  0  0  0  0
  143.6759   75.0548  219.3408 H   0  0  0  0  0  0  0  0  0  0  0  0
  143.4485   75.0892  221.1468 H   0  0  0  0  0  0  0  0  0  0  0  0
  139.9482   76.5346  219.1397 H   0  0  0  0  0  0  0  0  0  0  0  0
  139.6913   74.9500  218.3786 H   0  0  0  0  0  0  0  0  0  0  0  0
  137.8868   76.4786  220.0936 H   0  0  0  0  0  0  0  0  0  0  0  0
  137.5363   74.9838  219.2262 H   0  0  0  0  0  0  0  0  0  0  0  0
  137.7063   75.0875  221.9762 H   0  0  0  0  0  0  0  0  0  0  0  0
  138.1514   73.6288  221.1257 H   0  0  0  0  0  0  0  0  0  0  0  0
  140.2144   74.2717  222.3449 H   0  0  0  0  0  0  0  0  0  0  0  0
  139.0139   79.4173  222.6699 H   0  0  0  0  0  0  0  0  0  0  0  0
  142.1421   78.5148  224.4917 H   0  0  0  0  0  0  0  0  0  0  0  0
  143.6211   78.5539  222.5028 H   0  0  0  0  0  0  0  0  0  0  0  0
  142.5924   79.6136  221.5999 H   0  0  0  0  0  0  0  0  0  0  0  0
  144.2795   80.2023  224.1161 H   0  0  0  0  0  0  0  0  0  0  0  0
  144.1020   81.2362  222.7000 H   0  0  0  0  0  0  0  0  0  0  0  0
  142.6000   81.3909  225.1313 H   0  0  0  0  0  0  0  0  0  0  0  0
  142.2147   82.2593  223.6313 H   0  0  0  0  0  0  0  0  0  0  0  0
  140.5610   80.3366  224.7834 H   0  0  0  0  0  0  0  0  0  0  0  0
  140.4970   80.7135  223.0781 H   0  0  0  0  0  0  0  0  0  0  0  0
  143.2394   79.2419  217.1246 H   0  0  0  0  0  0  0  0  0  0  0  0
  142.6311   81.6754  217.0836 H   0  0  0  0  0  0  0  0  0  0  0  0
  141.4838   83.4875  218.1796 H   0  0  0  0  0  0  0  0  0  0  0  0
  139.3833   82.8929  221.8370 H   0  0  0  0  0  0  0  0  0  0  0  0
  140.0090   80.4989  221.8363 H   0  0  0  0  0  0  0  0  0  0  0  0
  1  2  2  0
  2  3  1  0
  3  4  1  0
  4  5  1  0
  5  6  2  0
  5  7  1  0
  7  8  1  0
  8  9  1  0
  9 10  1  0
 10 11  1  0
 11 12  1  0
 12 13  2  0
 13 14  1  0
 14 15  2  0
 15 16  1  0
 16 17  1  0
 17 18  1  0
 18 19  1  0
 19 20  1  0
 15 21  1  0
  2 22  1  0
 22 23  2  0
 23 24  1  0
 24 25  2  0
 25 26  1  0
 26 27  2  0
 27 28  1  0
 27 29  1  0
 29 30  2  0
 30 31  1  0
 31 32  2  0
 11  7  1  0
 21 12  1  0
 32 22  1  0
 20 16  1  0
 31 25  1  0
  3 33  1  0
  4 34  1  0
  4 35  1  0
  8 36  1  0
  8 37  1  0
  9 38  1  0
  9 39  1  0
 10 40  1  0
 10 41  1  0
 11 42  1  1
 14 43  1  0
 16 44  1  0
 17 45  1  0
 17 46  1  0
 18 47  1  0
 18 48  1  0
 19 49  1  0
 19 50  1  0
 20 51  1  0
 20 52  1  0
 23 53  1  0
 24 54  1  0
 26 55  1  0
 29 56  1  0
 30 57  1  0
M  END
>  <smiles>  (19) 
O=C(NCC(=O)N1CCC[C@@H]1c1ncc(C2CCCC2)o1)c1ccc2cc(Cl)ccc2n1

>  <score_type>  (19) 
oracle

>  <origin>  (19) 
autodockgpu

>  <m_score__min__energy>  (19) 
-8.9900000000000002

>  <m_primary>  (19) 
energy

>  <rmsd>  (19) 
8.441778276448124

>  <m_score__min__rmsd>  (19) 
8.441778276448124

>  <meeko>  (19) 
{"free_energy": -6.49, "intermolecular_energy": -8.28, "internal_energy": -4.23, "cluster_size": 14, "cluster_id": 8, "rank_in_cluster": 6}

>  <energy>  (19) 
-8.61

>  <cluster_rmsd>  (19) 
0.37

>  <cluster>  (19) 
3

$$$$

     RDKit          3D

 57 61  0  0  0  0  0  0  0  0999 V2000
  142.5270   78.9130  217.5980 O   0  0  0  0  0  0  0  0  0  0  0  0
  142.6110   78.1670  218.6150 C   0  0  0  0  0  0  0  0  0  0  0  0
  142.1920   78.7160  219.8590 N   0  0  0  0  0  0  0  0  0  0  0  0
  141.6850   80.0410  220.0350 C   0  0  0  0  0  0  0  0  0  0  0  0
  141.6550   80.4590  221.4630 C   0  0  0  0  0  0  0  0  0  0  0  0
  142.5000   81.2360  221.9760 O   0  0  0  0  0  0  0  0  0  0  0  0
  140.6100   79.9500  222.2850 N   0  0  0  0  0  0  0  0  0  0  0  0
  140.6540   79.8430  223.7260 C   0  0  0  0  0  0  0  0  0  0  0  0
  139.2290   79.7460  224.1970 C   0  0  0  0  0  0  0  0  0  0  0  0
  138.3930   79.9250  222.9470 C   0  0  0  0  0  0  0  0  0  0  0  0
  139.3150   79.4440  221.8740 C   0  0  2  0  0  0  0  0  0  0  0  0
  139.3730   77.9480  221.9900 C   0  0  0  0  0  0  0  0  0  0  0  0
  138.5370   77.1280  222.6500 N   0  0  0  0  0  0  0  0  0  0  0  0
  139.0270   75.8740  222.4420 C   0  0  0  0  0  0  0  0  0  0  0  0
  140.1560   75.9660  221.6560 C   0  0  0  0  0  0  0  0  0  0  0  0
  141.0300   74.8440  221.1720 C   0  0  0  0  0  0  0  0  0  0  0  0
  140.7170   73.5580  221.9210 C   0  0  0  0  0  0  0  0  0  0  0  0
  141.4300   72.5470  221.0200 C   0  0  0  0  0  0  0  0  0  0  0  0
  141.2780   73.1090  219.6130 C   0  0  0  0  0  0  0  0  0  0  0  0
  140.6890   74.4980  219.7640 C   0  0  0  0  0  0  0  0  0  0  0  0
  140.3190   77.2470  221.4120 O   0  0  0  0  0  0  0  0  0  0  0  0
  143.1180   76.7940  218.5290 C   0  0  0  0  0  0  0  0  0  0  0  0
  143.0720   76.1620  217.3040 C   0  0  0  0  0  0  0  0  0  0  0  0
  143.5340   74.8580  217.1440 C   0  0  0  0  0  0  0  0  0  0  0  0
  144.0390   74.2360  218.2730 C   0  0  0  0  0  0  0  0  0  0  0  0
  144.5180   72.9430  218.2010 C   0  0  0  0  0  0  0  0  0  0  0  0
  145.0340   72.2680  219.2880 C   0  0  0  0  0  0  0  0  0  0  0  0
  145.6190   70.6330  219.1070 Cl  0  0  0  0  0  0  0  0  0  0  0  0
  145.0580   72.9460  220.4900 C   0  0  0  0  0  0  0  0  0  0  0  0
  144.5890   74.2450  220.6190 C   0  0  0  0  0  0  0  0  0  0  0  0
  144.0750   74.8950  219.4980 C   0  0  0  0  0  0  0  0  0  0  0  0
  143.6190   76.1610  219.6240 N   0  0  0  0  0  0  0  0  0  0  0  0
  142.2600   78.0990  220.7110 H   0  0  0  0  0  0  0  0  0  0  0  0
  142.3254   80.7399  219.4770 H   0  0  0  0  0  0  0  0  0  0  0  0
  140.6498   80.0529  219.6633 H   0  0  0  0  0  0  0  0  0  0  0  0
  141.2131   78.9432  224.0222 H   0  0  0  0  0  0  0  0  0  0  0  0
  141.1592   80.7126  224.1716 H   0  0  0  0  0  0  0  0  0  0  0  0
  139.0381   78.7633  224.6530 H   0  0  0  0  0  0  0  0  0  0  0  0
  138.9940   80.4987  224.9639 H   0  0  0  0  0  0  0  0  0  0  0  0
  137.4785   79.3152  222.9890 H   0  0  0  0  0  0  0  0  0  0  0  0
  138.0427   80.9567  222.7961 H   0  0  0  0  0  0  0  0  0  0  0  0
  139.0190   79.7499  220.8597 H   0  0  0  0  0  0  0  0  0  0  0  0
  138.5938   74.9427  222.8358 H   0  0  0  0  0  0  0  0  0  0  0  0
  142.0682   75.1821  221.3054 H   0  0  0  0  0  0  0  0  0  0  0  0
  141.1360   73.5654  222.9381 H   0  0  0  0  0  0  0  0  0  0  0  0
  139.6462   73.3629  222.0803 H   0  0  0  0  0  0  0  0  0  0  0  0
  142.4926   72.4660  221.2927 H   0  0  0  0  0  0  0  0  0  0  0  0
  141.0067   71.5359  221.1124 H   0  0  0  0  0  0  0  0  0  0  0  0
  142.2588   73.1642  219.1181 H   0  0  0  0  0  0  0  0  0  0  0  0
  140.6305   72.4678  218.9970 H   0  0  0  0  0  0  0  0  0  0  0  0
  141.1511   75.2042  219.0585 H   0  0  0  0  0  0  0  0  0  0  0  0
  139.6106   74.5415  219.5516 H   0  0  0  0  0  0  0  0  0  0  0  0
  142.6621   76.6988  216.4358 H   0  0  0  0  0  0  0  0  0  0  0  0
  143.4994   74.3481  216.1699 H   0  0  0  0  0  0  0  0  0  0  0  0
  144.4867   72.4263  217.2304 H   0  0  0  0  0  0  0  0  0  0  0  0
  145.4636   72.4380  221.3774 H   0  0  0  0  0  0  0  0  0  0  0  0
  144.6222   74.7554  221.5928 H   0  0  0  0  0  0  0  0  0  0  0  0
  1  2  2  0
  2  3  1  0
  3  4  1  0
  4  5  1  0
  5  6  2  0
  5  7  1  0
  7  8  1  0
  8  9  1  0
  9 10  1  0
 10 11  1  0
 11 12  1  0
 12 13  2  0
 13 14  1  0
 14 15  2  0
 15 16  1  0
 16 17  1  0
 17 18  1  0
 18 19  1  0
 19 20  1  0
 15 21  1  0
  2 22  1  0
 22 23  2  0
 23 24  1  0
 24 25  2  0
 25 26  1  0
 26 27  2  0
 27 28  1  0
 27 29  1  0
 29 30  2  0
 30 31  1  0
 31 32  2  0
 11  7  1  0
 21 12  1  0
 32 22  1  0
 20 16  1  0
 31 25  1  0
  3 33  1  0
  4 34  1  0
  4 35  1  0
  8 36  1  0
  8 37  1  0
  9 38  1  0
  9 39  1  0
 10 40  1  0
 10 41  1  0
 11 42  1  6
 14 43  1  0
 16 44  1  0
 17 45  1  0
 17 46  1  0
 18 47  1  0
 18 48  1  0
 19 49  1  0
 19 50  1  0
 20 51  1  0
 20 52  1  0
 23 53  1  0
 24 54  1  0
 26 55  1  0
 29 56  1  0
 30 57  1  0
M  END
>  <smiles>  (20) 
O=C(NCC(=O)N1CCC[C@@H]1c1ncc(C2CCCC2)o1)c1ccc2cc(Cl)ccc2n1

>  <score_type>  (20) 
oracle

>  <origin>  (20) 
autodockgpu

>  <m_score__min__energy>  (20) 
-8.9900000000000002

>  <m_primary>  (20) 
energy

>  <rmsd>  (20) 
8.010453397247417

>  <m_score__min__rmsd>  (20) 
8.010453397247417

>  <meeko>  (20) 
{"free_energy": -5.93, "intermolecular_energy": -7.72, "internal_energy": -4.02, "cluster_size": 1, "cluster_id": 11, "rank_in_cluster": 1}

>  <energy>  (20) 
-8.49

>  <cluster_rmsd>  (20) 
0.48

>  <cluster>  (20) 
3

$$$$

     RDKit          3D

 57 61  0  0  0  0  0  0  0  0999 V2000
  139.9960   74.1680  221.9330 O   0  0  0  0  0  0  0  0  0  0  0  0
  140.2260   75.4070  221.8310 C   0  0  0  0  0  0  0  0  0  0  0  0
  141.4840   75.7910  221.2900 N   0  0  0  0  0  0  0  0  0  0  0  0
  142.4970   74.8810  220.8550 C   0  0  0  0  0  0  0  0  0  0  0  0
  142.5400   74.7330  219.3760 C   0  0  0  0  0  0  0  0  0  0  0  0
  142.7750   73.6430  218.7940 O   0  0  0  0  0  0  0  0  0  0  0  0
  142.2990   75.8900  218.5810 N   0  0  0  0  0  0  0  0  0  0  0  0
  143.3170   76.7130  217.9690 C   0  0  0  0  0  0  0  0  0  0  0  0
  142.6480   77.4780  216.8610 C   0  0  0  0  0  0  0  0  0  0  0  0
  141.2310   76.9430  216.8190 C   0  0  0  0  0  0  0  0  0  0  0  0
  141.0240   76.4800  218.2250 C   0  0  2  0  0  0  0  0  0  0  0  0
  140.8600   77.7120  219.0670 C   0  0  0  0  0  0  0  0  0  0  0  0
  139.8390   78.5850  219.0800 N   0  0  0  0  0  0  0  0  0  0  0  0
  140.1760   79.5170  220.0160 C   0  0  0  0  0  0  0  0  0  0  0  0
  141.4010   79.1810  220.5510 C   0  0  0  0  0  0  0  0  0  0  0  0
  142.1690   79.9150  221.6130 C   0  0  0  0  0  0  0  0  0  0  0  0
  141.4220   81.1660  222.0500 C   0  0  0  0  0  0  0  0  0  0  0  0
  142.1860   81.4950  223.3330 C   0  0  0  0  0  0  0  0  0  0  0  0
  142.5720   80.1410  223.9120 C   0  0  0  0  0  0  0  0  0  0  0  0
  142.2190   79.1060  222.8630 C   0  0  0  0  0  0  0  0  0  0  0  0
  141.7690   78.0790  219.9390 O   0  0  0  0  0  0  0  0  0  0  0  0
  139.2470   76.4140  222.2520 C   0  0  0  0  0  0  0  0  0  0  0  0
  137.9080   76.1050  222.1330 C   0  0  0  0  0  0  0  0  0  0  0  0
  136.9190   77.0090  222.5120 C   0  0  0  0  0  0  0  0  0  0  0  0
  137.3500   78.2270  223.0090 C   0  0  0  0  0  0  0  0  0  0  0  0
  136.4340   79.1810  223.4070 C   0  0  0  0  0  0  0  0  0  0  0  0
  136.7990   80.4130  223.9100 C   0  0  0  0  0  0  0  0  0  0  0  0
  135.5740   81.5610  224.3900 Cl  0  0  0  0  0  0  0  0  0  0  0  0
  138.1510   80.6720  224.0080 C   0  0  0  0  0  0  0  0  0  0  0  0
  139.1130   79.7510  223.6230 C   0  0  0  0  0  0  0  0  0  0  0  0
  138.7070   78.5160  223.1180 C   0  0  0  0  0  0  0  0  0  0  0  0
  139.6450   77.6180  222.7440 N   0  0  0  0  0  0  0  0  0  0  0  0
  141.6820   76.8230  221.2030 H   0  0  0  0  0  0  0  0  0  0  0  0
  143.4738   75.2509  221.2000 H   0  0  0  0  0  0  0  0  0  0  0  0
  142.2617   73.8943  221.2805 H   0  0  0  0  0  0  0  0  0  0  0  0
  143.7374   77.4091  218.7098 H   0  0  0  0  0  0  0  0  0  0  0  0
  144.1424   76.0976  217.5817 H   0  0  0  0  0  0  0  0  0  0  0  0
  142.6484   78.5560  217.0797 H   0  0  0  0  0  0  0  0  0  0  0  0
  143.1668   77.3529  215.8991 H   0  0  0  0  0  0  0  0  0  0  0  0
  140.5146   77.7332  216.5502 H   0  0  0  0  0  0  0  0  0  0  0  0
  141.0803   76.1532  216.0683 H   0  0  0  0  0  0  0  0  0  0  0  0
  140.1690   75.7996  218.3512 H   0  0  0  0  0  0  0  0  0  0  0  0
  139.5710   80.3915  220.2975 H   0  0  0  0  0  0  0  0  0  0  0  0
  143.1592   80.1289  221.1844 H   0  0  0  0  0  0  0  0  0  0  0  0
  141.5057   81.9724  221.3065 H   0  0  0  0  0  0  0  0  0  0  0  0
  140.3368   81.0380  222.1762 H   0  0  0  0  0  0  0  0  0  0  0  0
  143.0831   82.0906  223.1082 H   0  0  0  0  0  0  0  0  0  0  0  0
  141.5836   82.0908  224.0345 H   0  0  0  0  0  0  0  0  0  0  0  0
  143.6508   80.1128  224.1253 H   0  0  0  0  0  0  0  0  0  0  0  0
  142.0413   79.9468  224.8557 H   0  0  0  0  0  0  0  0  0  0  0  0
  142.9910   78.3250  222.8000 H   0  0  0  0  0  0  0  0  0  0  0  0
  141.2823   78.5697  223.0751 H   0  0  0  0  0  0  0  0  0  0  0  0
  137.6154   75.1241  221.7303 H   0  0  0  0  0  0  0  0  0  0  0  0
  135.8497   76.7676  222.4211 H   0  0  0  0  0  0  0  0  0  0  0  0
  135.3627   78.9476  223.3188 H   0  0  0  0  0  0  0  0  0  0  0  0
  138.4771   81.6443  224.4059 H   0  0  0  0  0  0  0  0  0  0  0  0
  140.1826   79.9911  223.7146 H   0  0  0  0  0  0  0  0  0  0  0  0
  1  2  2  0
  2  3  1  0
  3  4  1  0
  4  5  1  0
  5  6  2  0
  5  7  1  0
  7  8  1  0
  8  9  1  0
  9 10  1  0
 10 11  1  0
 11 12  1  0
 12 13  2  0
 13 14  1  0
 14 15  2  0
 15 16  1  0
 16 17  1  0
 17 18  1  0
 18 19  1  0
 19 20  1  0
 15 21  1  0
  2 22  1  0
 22 23  2  0
 23 24  1  0
 24 25  2  0
 25 26  1  0
 26 27  2  0
 27 28  1  0
 27 29  1  0
 29 30  2  0
 30 31  1  0
 31 32  2  0
 11  7  1  0
 21 12  1  0
 32 22  1  0
 20 16  1  0
 31 25  1  0
  3 33  1  0
  4 34  1  0
  4 35  1  0
  8 36  1  0
  8 37  1  0
  9 38  1  0
  9 39  1  0
 10 40  1  0
 10 41  1  0
 11 42  1  6
 14 43  1  0
 16 44  1  0
 17 45  1  0
 17 46  1  0
 18 47  1  0
 18 48  1  0
 19 49  1  0
 19 50  1  0
 20 51  1  0
 20 52  1  0
 23 53  1  0
 24 54  1  0
 26 55  1  0
 29 56  1  0
 30 57  1  0
M  END
>  <smiles>  (21) 
O=C(NCC(=O)N1CCC[C@@H]1c1ncc(C2CCCC2)o1)c1ccc2cc(Cl)ccc2n1

>  <score_type>  (21) 
oracle

>  <origin>  (21) 
autodockgpu

>  <m_score__min__energy>  (21) 
-8.9900000000000002

>  <m_primary>  (21) 
energy

>  <rmsd>  (21) 
6.224791436033636

>  <m_score__min__rmsd>  (21) 
6.224791436033636

>  <meeko>  (21) 
{"free_energy": -6.3, "intermolecular_energy": -8.09, "internal_energy": -4.22, "cluster_size": 5, "cluster_id": 7, "rank_in_cluster": 5}

>  <energy>  (21) 
-8.2

>  <cluster_rmsd>  (21) 
0.46

>  <cluster>  (21) 
3

$$$$

     RDKit          3D

 57 61  0  0  0  0  0  0  0  0999 V2000
  139.9000   73.7370  222.4520 O   0  0  0  0  0  0  0  0  0  0  0  0
  139.6620   72.5000  222.3460 C   0  0  0  0  0  0  0  0  0  0  0  0
  139.2000   72.0350  221.0830 N   0  0  0  0  0  0  0  0  0  0  0  0
  138.9890   72.8620  219.9370 C   0  0  0  0  0  0  0  0  0  0  0  0
  140.2270   73.0650  219.1390 C   0  0  0  0  0  0  0  0  0  0  0  0
  140.4430   72.4980  218.0380 O   0  0  0  0  0  0  0  0  0  0  0  0
  141.2160   73.9510  219.6540 N   0  0  0  0  0  0  0  0  0  0  0  0
  142.2500   73.5950  220.5990 C   0  0  0  0  0  0  0  0  0  0  0  0
  143.3250   74.6390  220.4780 C   0  0  0  0  0  0  0  0  0  0  0  0
  142.8830   75.5230  219.3300 C   0  0  0  0  0  0  0  0  0  0  0  0
  141.3980   75.3580  219.3550 C   0  0  2  0  0  0  0  0  0  0  0  0
  140.8960   76.1270  220.5420 C   0  0  0  0  0  0  0  0  0  0  0  0
  139.7060   76.0280  221.1590 N   0  0  0  0  0  0  0  0  0  0  0  0
  139.7510   76.9370  222.1730 C   0  0  0  0  0  0  0  0  0  0  0  0
  140.9760   77.5680  222.1450 C   0  0  0  0  0  0  0  0  0  0  0  0
  141.4750   78.6440  223.0690 C   0  0  0  0  0  0  0  0  0  0  0  0
  142.5500   79.4790  222.3900 C   0  0  0  0  0  0  0  0  0  0  0  0
  142.6040   80.6690  223.3490 C   0  0  0  0  0  0  0  0  0  0  0  0
  141.1720   80.8390  223.8360 C   0  0  0  0  0  0  0  0  0  0  0  0
  140.3970   79.6400  223.3270 C   0  0  0  0  0  0  0  0  0  0  0  0
  141.6290   77.0380  221.1360 O   0  0  0  0  0  0  0  0  0  0  0  0
  139.8500   71.5760  223.4680 C   0  0  0  0  0  0  0  0  0  0  0  0
  139.4970   70.2550  223.2850 C   0  0  0  0  0  0  0  0  0  0  0  0
  139.6450   69.3180  224.3040 C   0  0  0  0  0  0  0  0  0  0  0  0
  140.1620   69.7810  225.5020 C   0  0  0  0  0  0  0  0  0  0  0  0
  140.3420   68.9170  226.5640 C   0  0  0  0  0  0  0  0  0  0  0  0
  140.8520   69.3150  227.7830 C   0  0  0  0  0  0  0  0  0  0  0  0
  141.0450   68.1550  229.0730 Cl  0  0  0  0  0  0  0  0  0  0  0  0
  141.1900   70.6470  227.9130 C   0  0  0  0  0  0  0  0  0  0  0  0
  141.0300   71.5580  226.8790 C   0  0  0  0  0  0  0  0  0  0  0  0
  140.5110   71.1180  225.6620 C   0  0  0  0  0  0  0  0  0  0  0  0
  140.3560   72.0060  224.6550 N   0  0  0  0  0  0  0  0  0  0  0  0
  138.9990   71.0040  220.9880 H   0  0  0  0  0  0  0  0  0  0  0  0
  138.2311   72.3881  219.2960 H   0  0  0  0  0  0  0  0  0  0  0  0
  138.6599   73.8484  220.2957 H   0  0  0  0  0  0  0  0  0  0  0  0
  141.8430   73.5868  221.6209 H   0  0  0  0  0  0  0  0  0  0  0  0
  142.6483   72.5913  220.3896 H   0  0  0  0  0  0  0  0  0  0  0  0
  143.4042   75.2223  221.4072 H   0  0  0  0  0  0  0  0  0  0  0  0
  144.3155   74.1946  220.3006 H   0  0  0  0  0  0  0  0  0  0  0  0
  143.1704   76.5710  219.5006 H   0  0  0  0  0  0  0  0  0  0  0  0
  143.3400   75.2547  218.3661 H   0  0  0  0  0  0  0  0  0  0  0  0
  140.8958   75.6850  218.4326 H   0  0  0  0  0  0  0  0  0  0  0  0
  138.9440   77.1344  222.8940 H   0  0  0  0  0  0  0  0  0  0  0  0
  141.8308   78.1320  223.9752 H   0  0  0  0  0  0  0  0  0  0  0  0
  143.5119   78.9474  222.3439 H   0  0  0  0  0  0  0  0  0  0  0  0
  142.3435   79.7373  221.3409 H   0  0  0  0  0  0  0  0  0  0  0  0
  143.2778   80.4572  224.1923 H   0  0  0  0  0  0  0  0  0  0  0  0
  142.9886   81.5777  222.8629 H   0  0  0  0  0  0  0  0  0  0  0  0
  141.1459   80.8691  224.9353 H   0  0  0  0  0  0  0  0  0  0  0  0
  140.7362   81.7792  223.4670 H   0  0  0  0  0  0  0  0  0  0  0  0
  139.6899   79.2728  224.0854 H   0  0  0  0  0  0  0  0  0  0  0  0
  139.7821   79.8594  222.4417 H   0  0  0  0  0  0  0  0  0  0  0  0
  139.0903   69.9355  222.3142 H   0  0  0  0  0  0  0  0  0  0  0  0
  139.3654   68.2633  224.1644 H   0  0  0  0  0  0  0  0  0  0  0  0
  140.0655   67.8605  226.4320 H   0  0  0  0  0  0  0  0  0  0  0  0
  141.6010   70.9988  228.8708 H   0  0  0  0  0  0  0  0  0  0  0  0
  141.3088   72.6130  227.0174 H   0  0  0  0  0  0  0  0  0  0  0  0
  1  2  2  0
  2  3  1  0
  3  4  1  0
  4  5  1  0
  5  6  2  0
  5  7  1  0
  7  8  1  0
  8  9  1  0
  9 10  1  0
 10 11  1  0
 11 12  1  0
 12 13  2  0
 13 14  1  0
 14 15  2  0
 15 16  1  0
 16 17  1  0
 17 18  1  0
 18 19  1  0
 19 20  1  0
 15 21  1  0
  2 22  1  0
 22 23  2  0
 23 24  1  0
 24 25  2  0
 25 26  1  0
 26 27  2  0
 27 28  1  0
 27 29  1  0
 29 30  2  0
 30 31  1  0
 31 32  2  0
 11  7  1  0
 21 12  1  0
 32 22  1  0
 20 16  1  0
 31 25  1  0
  3 33  1  0
  4 34  1  0
  4 35  1  0
  8 36  1  0
  8 37  1  0
  9 38  1  0
  9 39  1  0
 10 40  1  0
 10 41  1  0
 11 42  1  6
 14 43  1  0
 16 44  1  0
 17 45  1  0
 17 46  1  0
 18 47  1  0
 18 48  1  0
 19 49  1  0
 19 50  1  0
 20 51  1  0
 20 52  1  0
 23 53  1  0
 24 54  1  0
 26 55  1  0
 29 56  1  0
 30 57  1  0
M  END
>  <smiles>  (22) 
O=C(NCC(=O)N1CCC[C@@H]1c1ncc(C2CCCC2)o1)c1ccc2cc(Cl)ccc2n1

>  <score_type>  (22) 
oracle

>  <origin>  (22) 
autodockgpu

>  <m_score__min__energy>  (22) 
-8.9900000000000002

>  <m_primary>  (22) 
energy

>  <rmsd>  (22) 
2.9267706104598954

>  <m_score__min__rmsd>  (22) 
2.9267706104598954

>  <meeko>  (22) 
{"free_energy": -8.76, "intermolecular_energy": -10.55, "internal_energy": -1.97, "cluster_size": 11, "cluster_id": 1, "rank_in_cluster": 6}

>  <energy>  (22) 
-7.94

>  <cluster_rmsd>  (22) 
0.73

>  <cluster>  (22) 
3

$$$$

     RDKit          3D

 57 61  0  0  0  0  0  0  0  0999 V2000
  142.4680   77.6750  217.8680 O   0  0  0  0  0  0  0  0  0  0  0  0
  142.2070   77.8910  219.0860 C   0  0  0  0  0  0  0  0  0  0  0  0
  142.7980   77.0150  220.0410 N   0  0  0  0  0  0  0  0  0  0  0  0
  143.6590   75.9210  219.7190 C   0  0  0  0  0  0  0  0  0  0  0  0
  142.9430   74.6170  219.6850 C   0  0  0  0  0  0  0  0  0  0  0  0
  143.4740   73.5440  219.3010 O   0  0  0  0  0  0  0  0  0  0  0  0
  141.5850   74.5900  220.1130 N   0  0  0  0  0  0  0  0  0  0  0  0
  140.4320   74.7470  219.2560 C   0  0  0  0  0  0  0  0  0  0  0  0
  139.2590   74.1670  219.9960 C   0  0  0  0  0  0  0  0  0  0  0  0
  139.8500   73.5740  221.2590 C   0  0  0  0  0  0  0  0  0  0  0  0
  141.0750   74.4060  221.4580 C   0  0  2  0  0  0  0  0  0  0  0  0
  140.6140   75.7510  221.9400 C   0  0  0  0  0  0  0  0  0  0  0  0
  139.3880   76.2950  221.8510 N   0  0  0  0  0  0  0  0  0  0  0  0
  139.4970   77.5210  222.4360 C   0  0  0  0  0  0  0  0  0  0  0  0
  140.7950   77.6890  222.8670 C   0  0  0  0  0  0  0  0  0  0  0  0
  141.3800   78.8840  223.5670 C   0  0  0  0  0  0  0  0  0  0  0  0
  142.6080   79.3920  222.8270 C   0  0  0  0  0  0  0  0  0  0  0  0
  142.7680   80.7610  223.4910 C   0  0  0  0  0  0  0  0  0  0  0  0
  141.3460   81.2190  223.7820 C   0  0  0  0  0  0  0  0  0  0  0  0
  140.4420   80.0390  223.4840 C   0  0  0  0  0  0  0  0  0  0  0  0
  141.4280   76.5860  222.5410 O   0  0  0  0  0  0  0  0  0  0  0  0
  141.3350   78.9900  219.5100 C   0  0  0  0  0  0  0  0  0  0  0  0
  139.9720   78.7810  219.4860 C   0  0  0  0  0  0  0  0  0  0  0  0
  139.0790   79.7770  219.8730 C   0  0  0  0  0  0  0  0  0  0  0  0
  139.6300   80.9800  220.2800 C   0  0  0  0  0  0  0  0  0  0  0  0
  138.8150   82.0210  220.6800 C   0  0  0  0  0  0  0  0  0  0  0  0
  139.3020   83.2430  221.0960 C   0  0  0  0  0  0  0  0  0  0  0  0
  138.1990   84.5050  221.5850 Cl  0  0  0  0  0  0  0  0  0  0  0  0
  140.6730   83.4000  221.1010 C   0  0  0  0  0  0  0  0  0  0  0  0
  141.5380   82.3890  220.7090 C   0  0  0  0  0  0  0  0  0  0  0  0
  141.0090   81.1670  220.2950 C   0  0  0  0  0  0  0  0  0  0  0  0
  141.8520   80.1820  219.9140 N   0  0  0  0  0  0  0  0  0  0  0  0
  142.5840   77.1890  221.0580 H   0  0  0  0  0  0  0  0  0  0  0  0
  144.1049   76.1034  218.7301 H   0  0  0  0  0  0  0  0  0  0  0  0
  144.4253   75.8587  220.5057 H   0  0  0  0  0  0  0  0  0  0  0  0
  140.2582   75.8128  219.0464 H   0  0  0  0  0  0  0  0  0  0  0  0
  140.5831   74.2366  218.2934 H   0  0  0  0  0  0  0  0  0  0  0  0
  138.5295   74.9527  220.2419 H   0  0  0  0  0  0  0  0  0  0  0  0
  138.7219   73.4163  219.3978 H   0  0  0  0  0  0  0  0  0  0  0  0
  139.1579   73.6745  222.1081 H   0  0  0  0  0  0  0  0  0  0  0  0
  140.0567   72.4961  221.1848 H   0  0  0  0  0  0  0  0  0  0  0  0
  141.8049   73.9673  222.1543 H   0  0  0  0  0  0  0  0  0  0  0  0
  138.6844   78.2542  222.5458 H   0  0  0  0  0  0  0  0  0  0  0  0
  141.5958   78.5630  224.5967 H   0  0  0  0  0  0  0  0  0  0  0  0
  143.4839   78.7493  222.9995 H   0  0  0  0  0  0  0  0  0  0  0  0
  142.5129   79.4158  221.7314 H   0  0  0  0  0  0  0  0  0  0  0  0
  143.3459   80.6747  224.4230 H   0  0  0  0  0  0  0  0  0  0  0  0
  143.3113   81.4723  222.8515 H   0  0  0  0  0  0  0  0  0  0  0  0
  141.2505   81.5134  224.8376 H   0  0  0  0  0  0  0  0  0  0  0  0
  141.0762   82.0908  223.1678 H   0  0  0  0  0  0  0  0  0  0  0  0
  139.6399   79.9541  224.2319 H   0  0  0  0  0  0  0  0  0  0  0  0
  139.9261   80.1158  222.5155 H   0  0  0  0  0  0  0  0  0  0  0  0
  139.5822   77.8073  219.1543 H   0  0  0  0  0  0  0  0  0  0  0  0
  137.9910   79.6160  219.8562 H   0  0  0  0  0  0  0  0  0  0  0  0
  137.7257   81.8685  220.6662 H   0  0  0  0  0  0  0  0  0  0  0  0
  141.0952   84.3618  221.4277 H   0  0  0  0  0  0  0  0  0  0  0  0
  142.6262   82.5490  220.7245 H   0  0  0  0  0  0  0  0  0  0  0  0
  1  2  2  0
  2  3  1  0
  3  4  1  0
  4  5  1  0
  5  6  2  0
  5  7  1  0
  7  8  1  0
  8  9  1  0
  9 10  1  0
 10 11  1  0
 11 12  1  0
 12 13  2  0
 13 14  1  0
 14 15  2  0
 15 16  1  0
 16 17  1  0
 17 18  1  0
 18 19  1  0
 19 20  1  0
 15 21  1  0
  2 22  1  0
 22 23  2  0
 23 24  1  0
 24 25  2  0
 25 26  1  0
 26 27  2  0
 27 28  1  0
 27 29  1  0
 29 30  2  0
 30 31  1  0
 31 32  2  0
 11  7  1  0
 21 12  1  0
 32 22  1  0
 20 16  1  0
 31 25  1  0
  3 33  1  0
  4 34  1  0
  4 35  1  0
  8 36  1  0
  8 37  1  0
  9 38  1  0
  9 39  1  0
 10 40  1  0
 10 41  1  0
 11 42  1  1
 14 43  1  0
 16 44  1  0
 17 45  1  0
 17 46  1  0
 18 47  1  0
 18 48  1  0
 19 49  1  0
 19 50  1  0
 20 51  1  0
 20 52  1  0
 23 53  1  0
 24 54  1  0
 26 55  1  0
 29 56  1  0
 30 57  1  0
M  END
>  <smiles>  (23) 
O=C(NCC(=O)N1CCC[C@@H]1c1ncc(C2CCCC2)o1)c1ccc2cc(Cl)ccc2n1

>  <score_type>  (23) 
oracle

>  <origin>  (23) 
autodockgpu

>  <m_score__min__energy>  (23) 
-8.9900000000000002

>  <m_primary>  (23) 
energy

>  <rmsd>  (23) 
8.146967152017744

>  <m_score__min__rmsd>  (23) 
8.146967152017744

>  <meeko>  (23) 
{"free_energy": -6.05, "intermolecular_energy": -7.84, "internal_energy": -4.51, "cluster_size": 14, "cluster_id": 8, "rank_in_cluster": 13}

>  <energy>  (23) 
-7.7

>  <cluster_rmsd>  (23) 
0.0

>  <cluster>  (23) 
4

$$$$

     RDKit          3D

 57 61  0  0  0  0  0  0  0  0999 V2000
  139.5420   74.2150  221.1890 O   0  0  0  0  0  0  0  0  0  0  0  0
  140.0240   75.3440  221.4950 C   0  0  0  0  0  0  0  0  0  0  0  0
  141.4270   75.5150  221.3340 N   0  0  0  0  0  0  0  0  0  0  0  0
  142.3210   74.5090  220.8520 C   0  0  0  0  0  0  0  0  0  0  0  0
  143.2210   75.0070  219.7770 C   0  0  0  0  0  0  0  0  0  0  0  0
  144.4350   74.6920  219.6880 O   0  0  0  0  0  0  0  0  0  0  0  0
  142.6710   75.8840  218.7990 N   0  0  0  0  0  0  0  0  0  0  0  0
  143.3970   76.4660  217.6930 C   0  0  0  0  0  0  0  0  0  0  0  0
  142.3720   76.8850  216.6750 C   0  0  0  0  0  0  0  0  0  0  0  0
  141.0500   76.3930  217.2280 C   0  0  0  0  0  0  0  0  0  0  0  0
  141.3090   76.3700  218.6990 C   0  0  2  0  0  0  0  0  0  0  0  0
  141.3190   77.7990  219.1610 C   0  0  0  0  0  0  0  0  0  0  0  0
  140.7430   78.8670  218.5840 N   0  0  0  0  0  0  0  0  0  0  0  0
  141.0480   79.9190  219.3950 C   0  0  0  0  0  0  0  0  0  0  0  0
  141.8060   79.4580  220.4490 C   0  0  0  0  0  0  0  0  0  0  0  0
  142.3710   80.2570  221.5900 C   0  0  0  0  0  0  0  0  0  0  0  0
  141.3520   81.2670  222.0960 C   0  0  0  0  0  0  0  0  0  0  0  0
  142.0020   81.6540  223.4260 C   0  0  0  0  0  0  0  0  0  0  0  0
  142.6760   80.3790  223.9120 C   0  0  0  0  0  0  0  0  0  0  0  0
  142.5830   79.3800  222.7760 C   0  0  0  0  0  0  0  0  0  0  0  0
  141.9400   78.1660  220.2570 O   0  0  0  0  0  0  0  0  0  0  0  0
  139.1840   76.4350  221.9970 C   0  0  0  0  0  0  0  0  0  0  0  0
  137.8230   76.3550  221.7860 C   0  0  0  0  0  0  0  0  0  0  0  0
  136.9600   77.3520  222.2330 C   0  0  0  0  0  0  0  0  0  0  0  0
  137.5390   78.4210  222.8960 C   0  0  0  0  0  0  0  0  0  0  0  0
  136.7540   79.4530  223.3720 C   0  0  0  0  0  0  0  0  0  0  0  0
  137.2690   80.5450  224.0390 C   0  0  0  0  0  0  0  0  0  0  0  0
  136.2040   81.8070  224.6080 Cl  0  0  0  0  0  0  0  0  0  0  0  0
  138.6360   80.5770  224.2250 C   0  0  0  0  0  0  0  0  0  0  0  0
  139.4710   79.5680  223.7670 C   0  0  0  0  0  0  0  0  0  0  0  0
  138.9140   78.4790  223.0960 C   0  0  0  0  0  0  0  0  0  0  0  0
  139.7280   77.4960  222.6520 N   0  0  0  0  0  0  0  0  0  0  0  0
  141.8350   76.4530  221.5880 H   0  0  0  0  0  0  0  0  0  0  0  0
  142.9378   74.1551  221.6913 H   0  0  0  0  0  0  0  0  0  0  0  0
  141.7107   73.6993  220.4254 H   0  0  0  0  0  0  0  0  0  0  0  0
  143.9712   77.3399  218.0345 H   0  0  0  0  0  0  0  0  0  0  0  0
  144.1086   75.7452  217.2640 H   0  0  0  0  0  0  0  0  0  0  0  0
  142.3618   77.9793  216.5638 H   0  0  0  0  0  0  0  0  0  0  0  0
  142.5842   76.4702  215.6786 H   0  0  0  0  0  0  0  0  0  0  0  0
  140.2317   77.0844  216.9784 H   0  0  0  0  0  0  0  0  0  0  0  0
  140.7368   75.4204  216.8207 H   0  0  0  0  0  0  0  0  0  0  0  0
  140.5816   75.7756  219.2714 H   0  0  0  0  0  0  0  0  0  0  0  0
  140.7401   80.9628  219.2346 H   0  0  0  0  0  0  0  0  0  0  0  0
  143.2934   80.7228  221.2128 H   0  0  0  0  0  0  0  0  0  0  0  0
  141.2611   82.1296  221.4195 H   0  0  0  0  0  0  0  0  0  0  0  0
  140.3227   80.8874  222.1757 H   0  0  0  0  0  0  0  0  0  0  0  0
  142.7438   82.4525  223.2774 H   0  0  0  0  0  0  0  0  0  0  0  0
  141.2697   82.0398  224.1505 H   0  0  0  0  0  0  0  0  0  0  0  0
  143.7297   80.5768  224.1582 H   0  0  0  0  0  0  0  0  0  0  0  0
  142.1886   79.9939  224.8198 H   0  0  0  0  0  0  0  0  0  0  0  0
  143.5126   78.7998  222.6800 H   0  0  0  0  0  0  0  0  0  0  0  0
  141.7889   78.6316  222.9148 H   0  0  0  0  0  0  0  0  0  0  0  0
  137.4109   75.4852  221.2534 H   0  0  0  0  0  0  0  0  0  0  0  0
  135.8740   77.2935  222.0680 H   0  0  0  0  0  0  0  0  0  0  0  0
  135.6670   79.4016  223.2116 H   0  0  0  0  0  0  0  0  0  0  0  0
  139.0794   81.4328  224.7552 H   0  0  0  0  0  0  0  0  0  0  0  0
  140.5572   79.6259  223.9307 H   0  0  0  0  0  0  0  0  0  0  0  0
  1  2  2  0
  2  3  1  0
  3  4  1  0
  4  5  1  0
  5  6  2  0
  5  7  1  0
  7  8  1  0
  8  9  1  0
  9 10  1  0
 10 11  1  0
 11 12  1  0
 12 13  2  0
 13 14  1  0
 14 15  2  0
 15 16  1  0
 16 17  1  0
 17 18  1  0
 18 19  1  0
 19 20  1  0
 15 21  1  0
  2 22  1  0
 22 23  2  0
 23 24  1  0
 24 25  2  0
 25 26  1  0
 26 27  2  0
 27 28  1  0
 27 29  1  0
 29 30  2  0
 30 31  1  0
 31 32  2  0
 11  7  1  0
 21 12  1  0
 32 22  1  0
 20 16  1  0
 31 25  1  0
  3 33  1  0
  4 34  1  0
  4 35  1  0
  8 36  1  0
  8 37  1  0
  9 38  1  0
  9 39  1  0
 10 40  1  0
 10 41  1  0
 11 42  1  1
 14 43  1  0
 16 44  1  0
 17 45  1  0
 17 46  1  0
 18 47  1  0
 18 48  1  0
 19 49  1  0
 19 50  1  0
 20 51  1  0
 20 52  1  0
 23 53  1  0
 24 54  1  0
 26 55  1  0
 29 56  1  0
 30 57  1  0
M  END
>  <smiles>  (24) 
O=C(NCC(=O)N1CCC[C@@H]1c1ncc(C2CCCC2)o1)c1ccc2cc(Cl)ccc2n1

>  <score_type>  (24) 
oracle

>  <origin>  (24) 
autodockgpu

>  <m_score__min__energy>  (24) 
-8.9900000000000002

>  <m_primary>  (24) 
energy

>  <rmsd>  (24) 
6.228974218019573

>  <m_score__min__rmsd>  (24) 
6.228974218019573

>  <meeko>  (24) 
{"free_energy": -6.57, "intermolecular_energy": -8.36, "internal_energy": -3.93, "cluster_size": 5, "cluster_id": 7, "rank_in_cluster": 3}

>  <energy>  (24) 
-7.41

>  <cluster_rmsd>  (24) 
0.0

>  <cluster>  (24) 
5

$$$$

     RDKit          3D

 57 61  0  0  0  0  0  0  0  0999 V2000
  138.5310   70.6500  221.1940 O   0  0  0  0  0  0  0  0  0  0  0  0
  138.7620   71.4520  222.1430 C   0  0  0  0  0  0  0  0  0  0  0  0
  138.4340   72.8200  221.9310 N   0  0  0  0  0  0  0  0  0  0  0  0
  137.8650   73.3450  220.7300 C   0  0  0  0  0  0  0  0  0  0  0  0
  136.6560   74.1750  220.9810 C   0  0  0  0  0  0  0  0  0  0  0  0
  135.4810   73.7450  220.8530 O   0  0  0  0  0  0  0  0  0  0  0  0
  136.8460   75.5260  221.3910 N   0  0  0  0  0  0  0  0  0  0  0  0
  136.6520   76.6900  220.5570 C   0  0  0  0  0  0  0  0  0  0  0  0
  136.4710   77.8610  221.4820 C   0  0  0  0  0  0  0  0  0  0  0  0
  136.4560   77.2600  222.8720 C   0  0  0  0  0  0  0  0  0  0  0  0
  137.2630   76.0150  222.6900 C   0  0  2  0  0  0  0  0  0  0  0  0
  138.6960   76.4430  222.5580 C   0  0  0  0  0  0  0  0  0  0  0  0
  139.7840   75.6750  222.3750 N   0  0  0  0  0  0  0  0  0  0  0  0
  140.8310   76.5450  222.3200 C   0  0  0  0  0  0  0  0  0  0  0  0
  140.3480   77.8270  222.4720 C   0  0  0  0  0  0  0  0  0  0  0  0
  141.1340   79.1080  222.4800 C   0  0  0  0  0  0  0  0  0  0  0  0
  140.2730   80.2640  222.9650 C   0  0  0  0  0  0  0  0  0  0  0  0
  141.3590   81.3090  223.2310 C   0  0  0  0  0  0  0  0  0  0  0  0
  142.5590   80.5050  223.7120 C   0  0  0  0  0  0  0  0  0  0  0  0
  142.2110   79.0440  223.5080 C   0  0  0  0  0  0  0  0  0  0  0  0
  139.0480   77.7060  222.6130 O   0  0  0  0  0  0  0  0  0  0  0  0
  139.3440   71.0040  223.4120 C   0  0  0  0  0  0  0  0  0  0  0  0
  140.2210   71.8500  224.0570 C   0  0  0  0  0  0  0  0  0  0  0  0
  140.8150   71.4940  225.2660 C   0  0  0  0  0  0  0  0  0  0  0  0
  140.4790   70.2540  225.7800 C   0  0  0  0  0  0  0  0  0  0  0  0
  141.0230   69.8230  226.9740 C   0  0  0  0  0  0  0  0  0  0  0  0
  140.7290   68.6000  227.5390 C   0  0  0  0  0  0  0  0  0  0  0  0
  141.4640   68.1350  229.0540 Cl  0  0  0  0  0  0  0  0  0  0  0  0
  139.8460   67.7910  226.8540 C   0  0  0  0  0  0  0  0  0  0  0  0
  139.2710   68.1730  225.6510 C   0  0  0  0  0  0  0  0  0  0  0  0
  139.5910   69.4170  225.1100 C   0  0  0  0  0  0  0  0  0  0  0  0
  139.0300   69.7890  223.9390 N   0  0  0  0  0  0  0  0  0  0  0  0
  138.6250   73.4940  222.7190 H   0  0  0  0  0  0  0  0  0  0  0  0
  138.6197   73.9664  220.2257 H   0  0  0  0  0  0  0  0  0  0  0  0
  137.5580   72.4915  220.1077 H   0  0  0  0  0  0  0  0  0  0  0  0
  137.5313   76.8468  219.9150 H   0  0  0  0  0  0  0  0  0  0  0  0
  135.7771   76.5652  219.9020 H   0  0  0  0  0  0  0  0  0  0  0  0
  137.3048   78.5706  221.3760 H   0  0  0  0  0  0  0  0  0  0  0  0
  135.5511   78.4232  221.2637 H   0  0  0  0  0  0  0  0  0  0  0  0
  136.9248   77.9352  223.6029 H   0  0  0  0  0  0  0  0  0  0  0  0
  135.4437   77.0756  223.2610 H   0  0  0  0  0  0  0  0  0  0  0  0
  137.1438   75.2812  223.5008 H   0  0  0  0  0  0  0  0  0  0  0  0
  141.8865   76.2700  222.1779 H   0  0  0  0  0  0  0  0  0  0  0  0
  141.5083   79.2461  221.4549 H   0  0  0  0  0  0  0  0  0  0  0  0
  139.5650   80.5982  222.1923 H   0  0  0  0  0  0  0  0  0  0  0  0
  139.6299   80.0335  223.8272 H   0  0  0  0  0  0  0  0  0  0  0  0
  141.6037   81.8575  222.3094 H   0  0  0  0  0  0  0  0  0  0  0  0
  141.0406   82.0623  223.9667 H   0  0  0  0  0  0  0  0  0  0  0  0
  143.4518   80.7680  223.1257 H   0  0  0  0  0  0  0  0  0  0  0  0
  142.7805   80.7163  224.7685 H   0  0  0  0  0  0  0  0  0  0  0  0
  143.0785   78.4766  223.1398 H   0  0  0  0  0  0  0  0  0  0  0  0
  141.9039   78.5337  224.4328 H   0  0  0  0  0  0  0  0  0  0  0  0
  140.4566   72.8261  223.6079 H   0  0  0  0  0  0  0  0  0  0  0  0
  141.5154   72.1645  225.7855 H   0  0  0  0  0  0  0  0  0  0  0  0
  141.7246   70.4874  227.4996 H   0  0  0  0  0  0  0  0  0  0  0  0
  139.5890   66.8085  227.2768 H   0  0  0  0  0  0  0  0  0  0  0  0
  138.5713   67.5026  225.1305 H   0  0  0  0  0  0  0  0  0  0  0  0
  1  2  2  0
  2  3  1  0
  3  4  1  0
  4  5  1  0
  5  6  2  0
  5  7  1  0
  7  8  1  0
  8  9  1  0
  9 10  1  0
 10 11  1  0
 11 12  1  0
 12 13  2  0
 13 14  1  0
 14 15  2  0
 15 16  1  0
 16 17  1  0
 17 18  1  0
 18 19  1  0
 19 20  1  0
 15 21  1  0
  2 22  1  0
 22 23  2  0
 23 24  1  0
 24 25  2  0
 25 26  1  0
 26 27  2  0
 27 28  1  0
 27 29  1  0
 29 30  2  0
 30 31  1  0
 31 32  2  0
 11  7  1  0
 21 12  1  0
 32 22  1  0
 20 16  1  0
 31 25  1  0
  3 33  1  0
  4 34  1  0
  4 35  1  0
  8 36  1  0
  8 37  1  0
  9 38  1  0
  9 39  1  0
 10 40  1  0
 10 41  1  0
 11 42  1  1
 14 43  1  0
 16 44  1  0
 17 45  1  0
 17 46  1  0
 18 47  1  0
 18 48  1  0
 19 49  1  0
 19 50  1  0
 20 51  1  0
 20 52  1  0
 23 53  1  0
 24 54  1  0
 26 55  1  0
 29 56  1  0
 30 57  1  0
M  END
>  <smiles>  (25) 
O=C(NCC(=O)N1CCC[C@@H]1c1ncc(C2CCCC2)o1)c1ccc2cc(Cl)ccc2n1

>  <score_type>  (25) 
oracle

>  <origin>  (25) 
autodockgpu

>  <m_score__min__energy>  (25) 
-8.9900000000000002

>  <m_primary>  (25) 
energy

>  <rmsd>  (25) 
3.8363414685965354

>  <m_score__min__rmsd>  (25) 
3.8363414685965354

>  <meeko>  (25) 
{"free_energy": -8.81, "intermolecular_energy": -10.6, "internal_energy": -2.02, "cluster_size": 6, "cluster_id": 3, "rank_in_cluster": 1}

>  <energy>  (25) 
-6.54

>  <cluster_rmsd>  (25) 
1.66

>  <cluster>  (25) 
5

$$$$

     RDKit          3D

 57 61  0  0  0  0  0  0  0  0999 V2000
  141.5540   73.1230  220.7210 O   0  0  0  0  0  0  0  0  0  0  0  0
  140.8260   73.9230  221.3740 C   0  0  0  0  0  0  0  0  0  0  0  0
  139.7720   73.3580  222.1460 N   0  0  0  0  0  0  0  0  0  0  0  0
  139.4850   71.9610  222.2340 C   0  0  0  0  0  0  0  0  0  0  0  0
  138.0350   71.6620  222.0860 C   0  0  0  0  0  0  0  0  0  0  0  0
  137.2950   72.2210  221.2380 O   0  0  0  0  0  0  0  0  0  0  0  0
  137.4620   70.6880  222.9540 N   0  0  0  0  0  0  0  0  0  0  0  0
  136.5030   70.9590  224.0000 C   0  0  0  0  0  0  0  0  0  0  0  0
  135.8160   69.6570  224.3060 C   0  0  0  0  0  0  0  0  0  0  0  0
  136.3650   68.6780  223.2870 C   0  0  0  0  0  0  0  0  0  0  0  0
  137.7070   69.2600  222.9790 C   0  0  2  0  0  0  0  0  0  0  0  0
  138.5820   68.9860  224.1680 C   0  0  0  0  0  0  0  0  0  0  0  0
  138.8480   67.8070  224.7560 N   0  0  0  0  0  0  0  0  0  0  0  0
  139.6920   68.1020  225.7850 C   0  0  0  0  0  0  0  0  0  0  0  0
  139.9170   69.4620  225.7930 C   0  0  0  0  0  0  0  0  0  0  0  0
  140.7790   70.2420  226.7460 C   0  0  0  0  0  0  0  0  0  0  0  0
  141.2200   71.5550  226.1190 C   0  0  0  0  0  0  0  0  0  0  0  0
  141.7290   72.2840  227.3650 C   0  0  0  0  0  0  0  0  0  0  0  0
  140.8190   71.8110  228.4890 C   0  0  0  0  0  0  0  0  0  0  0  0
  139.9740   70.6890  227.9180 C   0  0  0  0  0  0  0  0  0  0  0  0
  139.2200   69.9470  224.7920 O   0  0  0  0  0  0  0  0  0  0  0  0
  141.0450   75.3720  221.3450 C   0  0  0  0  0  0  0  0  0  0  0  0
  141.8910   75.8800  220.3810 C   0  0  0  0  0  0  0  0  0  0  0  0
  142.1500   77.2450  220.2890 C   0  0  0  0  0  0  0  0  0  0  0  0
  141.5160   78.0590  221.2130 C   0  0  0  0  0  0  0  0  0  0  0  0
  141.7180   79.4250  221.1920 C   0  0  0  0  0  0  0  0  0  0  0  0
  141.1170   80.2900  222.0840 C   0  0  0  0  0  0  0  0  0  0  0  0
  141.4290   82.0050  221.9860 Cl  0  0  0  0  0  0  0  0  0  0  0  0
  140.2800   79.7310  223.0280 C   0  0  0  0  0  0  0  0  0  0  0  0
  140.0420   78.3670  223.0940 C   0  0  0  0  0  0  0  0  0  0  0  0
  140.6670   77.5230  222.1760 C   0  0  0  0  0  0  0  0  0  0  0  0
  140.4350   76.1940  222.2410 N   0  0  0  0  0  0  0  0  0  0  0  0
  139.1600   74.0200  222.6930 H   0  0  0  0  0  0  0  0  0  0  0  0
  140.0352   71.4379  221.4379 H   0  0  0  0  0  0  0  0  0  0  0  0
  139.7940   71.6208  223.2334 H   0  0  0  0  0  0  0  0  0  0  0  0
  137.0167   71.3362  224.8966 H   0  0  0  0  0  0  0  0  0  0  0  0
  135.7782   71.7233  223.6832 H   0  0  0  0  0  0  0  0  0  0  0  0
  136.0524   69.3254  225.3278 H   0  0  0  0  0  0  0  0  0  0  0  0
  134.7208   69.7431  224.2496 H   0  0  0  0  0  0  0  0  0  0  0  0
  136.4568   67.6683  223.7136 H   0  0  0  0  0  0  0  0  0  0  0  0
  135.7233   68.5565  222.4019 H   0  0  0  0  0  0  0  0  0  0  0  0
  138.1624   68.8709  222.0564 H   0  0  0  0  0  0  0  0  0  0  0  0
  140.1217   67.3761  226.4910 H   0  0  0  0  0  0  0  0  0  0  0  0
  141.6196   69.5840  227.0114 H   0  0  0  0  0  0  0  0  0  0  0  0
  142.0190   71.4059  225.3779 H   0  0  0  0  0  0  0  0  0  0  0  0
  140.4381   72.0868  225.5570 H   0  0  0  0  0  0  0  0  0  0  0  0
  142.7747   72.0131  227.5727 H   0  0  0  0  0  0  0  0  0  0  0  0
  141.7078   73.3772  227.2449 H   0  0  0  0  0  0  0  0  0  0  0  0
  141.4193   71.4421  229.3337 H   0  0  0  0  0  0  0  0  0  0  0  0
  140.1891   72.6320  228.8620 H   0  0  0  0  0  0  0  0  0  0  0  0
  139.8485   69.8753  228.6475 H   0  0  0  0  0  0  0  0  0  0  0  0
  138.9524   71.0003  227.6547 H   0  0  0  0  0  0  0  0  0  0  0  0
  142.3713   75.1919  219.6697 H   0  0  0  0  0  0  0  0  0  0  0  0
  142.8233   77.6556  219.5221 H   0  0  0  0  0  0  0  0  0  0  0  0
  142.3898   79.8436  220.4281 H   0  0  0  0  0  0  0  0  0  0  0  0
  139.7838   80.3916  223.7543 H   0  0  0  0  0  0  0  0  0  0  0  0
  139.3689   77.9554  223.8605 H   0  0  0  0  0  0  0  0  0  0  0  0
  1  2  2  0
  2  3  1  0
  3  4  1  0
  4  5  1  0
  5  6  2  0
  5  7  1  0
  7  8  1  0
  8  9  1  0
  9 10  1  0
 10 11  1  0
 11 12  1  0
 12 13  2  0
 13 14  1  0
 14 15  2  0
 15 16  1  0
 16 17  1  0
 17 18  1  0
 18 19  1  0
 19 20  1  0
 15 21  1  0
  2 22  1  0
 22 23  2  0
 23 24  1  0
 24 25  2  0
 25 26  1  0
 26 27  2  0
 27 28  1  0
 27 29  1  0
 29 30  2  0
 30 31  1  0
 31 32  2  0
 11  7  1  0
 21 12  1  0
 32 22  1  0
 20 16  1  0
 31 25  1  0
  3 33  1  0
  4 34  1  0
  4 35  1  0
  8 36  1  0
  8 37  1  0
  9 38  1  0
  9 39  1  0
 10 40  1  0
 10 41  1  0
 11 42  1  6
 14 43  1  0
 16 44  1  0
 17 45  1  0
 17 46  1  0
 18 47  1  0
 18 48  1  0
 19 49  1  0
 19 50  1  0
 20 51  1  0
 20 52  1  0
 23 53  1  0
 24 54  1  0
 26 55  1  0
 29 56  1  0
 30 57  1  0
M  END
>  <smiles>  (26) 
O=C(NCC(=O)N1CCC[C@@H]1c1ncc(C2CCCC2)o1)c1ccc2cc(Cl)ccc2n1

>  <score_type>  (26) 
oracle

>  <origin>  (26) 
autodockgpu

>  <m_score__min__energy>  (26) 
-8.9900000000000002

>  <m_primary>  (26) 
energy

>  <rmsd>  (26) 
9.614798762368283

>  <m_score__min__rmsd>  (26) 
9.614798762368283

>  <meeko>  (26) 
{"free_energy": -8.9, "intermolecular_energy": -10.69, "internal_energy": -2.08, "cluster_size": 5, "cluster_id": 2, "rank_in_cluster": 1}

>  <energy>  (26) 
-7.22

>  <cluster_rmsd>  (26) 
0.0

>  <cluster>  (26) 
6

$$$$

     RDKit          3D

 57 61  0  0  0  0  0  0  0  0999 V2000
  139.4760   73.7950  222.3440 O   0  0  0  0  0  0  0  0  0  0  0  0
  139.6940   72.5630  222.1590 C   0  0  0  0  0  0  0  0  0  0  0  0
  139.7840   72.1160  220.8110 N   0  0  0  0  0  0  0  0  0  0  0  0
  139.6480   72.9550  219.6630 C   0  0  0  0  0  0  0  0  0  0  0  0
  140.9250   73.1260  218.9210 C   0  0  0  0  0  0  0  0  0  0  0  0
  141.1520   72.6020  217.8010 O   0  0  0  0  0  0  0  0  0  0  0  0
  141.9410   73.9290  219.5150 N   0  0  0  0  0  0  0  0  0  0  0  0
  142.9450   73.4590  220.4420 C   0  0  0  0  0  0  0  0  0  0  0  0
  144.0630   74.4640  220.4150 C   0  0  0  0  0  0  0  0  0  0  0  0
  143.6730   75.4520  219.3340 C   0  0  0  0  0  0  0  0  0  0  0  0
  142.1830   75.3460  219.3280 C   0  0  2  0  0  0  0  0  0  0  0  0
  141.6940   76.0400  220.5660 C   0  0  0  0  0  0  0  0  0  0  0  0
  141.2070   75.4950  221.6940 N   0  0  0  0  0  0  0  0  0  0  0  0
  140.9090   76.5500  222.5030 C   0  0  0  0  0  0  0  0  0  0  0  0
  141.2250   77.7170  221.8400 C   0  0  0  0  0  0  0  0  0  0  0  0
  141.0660   79.1260  222.3380 C   0  0  0  0  0  0  0  0  0  0  0  0
  141.7420   79.2970  223.6900 C   0  0  0  0  0  0  0  0  0  0  0  0
  141.7660   80.8240  223.7820 C   0  0  0  0  0  0  0  0  0  0  0  0
  141.9590   81.2940  222.3470 C   0  0  0  0  0  0  0  0  0  0  0  0
  141.8260   80.0670  221.4680 C   0  0  0  0  0  0  0  0  0  0  0  0
  141.6960   77.3480  220.6710 O   0  0  0  0  0  0  0  0  0  0  0  0
  139.8480   71.6270  223.2770 C   0  0  0  0  0  0  0  0  0  0  0  0
  139.4700   70.3160  223.0800 C   0  0  0  0  0  0  0  0  0  0  0  0
  139.5860   69.3680  224.0940 C   0  0  0  0  0  0  0  0  0  0  0  0
  140.0970   69.8110  225.3010 C   0  0  0  0  0  0  0  0  0  0  0  0
  140.2450   68.9360  226.3600 C   0  0  0  0  0  0  0  0  0  0  0  0
  140.7470   69.3160  227.5870 C   0  0  0  0  0  0  0  0  0  0  0  0
  140.9000   68.1420  228.8710 Cl  0  0  0  0  0  0  0  0  0  0  0  0
  141.1110   70.6390  227.7320 C   0  0  0  0  0  0  0  0  0  0  0  0
  140.9830   71.5600  226.7030 C   0  0  0  0  0  0  0  0  0  0  0  0
  140.4710   71.1410  225.4760 C   0  0  0  0  0  0  0  0  0  0  0  0
  140.3480   72.0380  224.4730 N   0  0  0  0  0  0  0  0  0  0  0  0
  139.9660   71.0890  220.6500 H   0  0  0  0  0  0  0  0  0  0  0  0
  138.9053   72.5073  218.9862 H   0  0  0  0  0  0  0  0  0  0  0  0
  139.3328   73.9487  220.0140 H   0  0  0  0  0  0  0  0  0  0  0  0
  142.5224   73.3893  221.4552 H   0  0  0  0  0  0  0  0  0  0  0  0
  143.3057   72.4586  220.1607 H   0  0  0  0  0  0  0  0  0  0  0  0
  144.1523   74.9698  221.3877 H   0  0  0  0  0  0  0  0  0  0  0  0
  145.0373   73.9943  220.2148 H   0  0  0  0  0  0  0  0  0  0  0  0
  143.9988   76.4711  219.5895 H   0  0  0  0  0  0  0  0  0  0  0  0
  144.1334   75.2409  218.3576 H   0  0  0  0  0  0  0  0  0  0  0  0
  141.7085   75.7636  218.4277 H   0  0  0  0  0  0  0  0  0  0  0  0
  140.4866   76.4821  223.5164 H   0  0  0  0  0  0  0  0  0  0  0  0
  139.9842   79.3235  222.3651 H   0  0  0  0  0  0  0  0  0  0  0  0
  141.1510   78.8481  224.5019 H   0  0  0  0  0  0  0  0  0  0  0  0
  142.7246   78.8112  223.7821 H   0  0  0  0  0  0  0  0  0  0  0  0
  140.8175   81.2031  224.1902 H   0  0  0  0  0  0  0  0  0  0  0  0
  142.5603   81.1885  224.4500 H   0  0  0  0  0  0  0  0  0  0  0  0
  141.1897   82.0348  222.0835 H   0  0  0  0  0  0  0  0  0  0  0  0
  142.9408   81.7721  222.2148 H   0  0  0  0  0  0  0  0  0  0  0  0
  141.2682   80.2960  220.5480 H   0  0  0  0  0  0  0  0  0  0  0  0
  142.7918   79.6655  221.1275 H   0  0  0  0  0  0  0  0  0  0  0  0
  139.0685   70.0123  222.1020 H   0  0  0  0  0  0  0  0  0  0  0  0
  139.2865   68.3204  223.9428 H   0  0  0  0  0  0  0  0  0  0  0  0
  139.9483   67.8864  226.2177 H   0  0  0  0  0  0  0  0  0  0  0  0
  141.5169   70.9750  228.6976 H   0  0  0  0  0  0  0  0  0  0  0  0
  141.2818   72.6079  226.8532 H   0  0  0  0  0  0  0  0  0  0  0  0
  1  2  2  0
  2  3  1  0
  3  4  1  0
  4  5  1  0
  5  6  2  0
  5  7  1  0
  7  8  1  0
  8  9  1  0
  9 10  1  0
 10 11  1  0
 11 12  1  0
 12 13  2  0
 13 14  1  0
 14 15  2  0
 15 16  1  0
 16 17  1  0
 17 18  1  0
 18 19  1  0
 19 20  1  0
 15 21  1  0
  2 22  1  0
 22 23  2  0
 23 24  1  0
 24 25  2  0
 25 26  1  0
 26 27  2  0
 27 28  1  0
 27 29  1  0
 29 30  2  0
 30 31  1  0
 31 32  2  0
 11  7  1  0
 21 12  1  0
 32 22  1  0
 20 16  1  0
 31 25  1  0
  3 33  1  0
  4 34  1  0
  4 35  1  0
  8 36  1  0
  8 37  1  0
  9 38  1  0
  9 39  1  0
 10 40  1  0
 10 41  1  0
 11 42  1  6
 14 43  1  0
 16 44  1  0
 17 45  1  0
 17 46  1  0
 18 47  1  0
 18 48  1  0
 19 49  1  0
 19 50  1  0
 20 51  1  0
 20 52  1  0
 23 53  1  0
 24 54  1  0
 26 55  1  0
 29 56  1  0
 30 57  1  0
M  END
>  <smiles>  (27) 
O=C(NCC(=O)N1CCC[C@@H]1c1ncc(C2CCCC2)o1)c1ccc2cc(Cl)ccc2n1

>  <score_type>  (27) 
oracle

>  <origin>  (27) 
autodockgpu

>  <m_score__min__energy>  (27) 
-8.9900000000000002

>  <m_primary>  (27) 
energy

>  <rmsd>  (27) 
3.0884727298188315

>  <m_score__min__rmsd>  (27) 
3.0884727298188315

>  <meeko>  (27) 
{"free_energy": -8.97, "intermolecular_energy": -10.76, "internal_energy": -1.78, "cluster_size": 11, "cluster_id": 1, "rank_in_cluster": 2}

>  <energy>  (27) 
-6.64

>  <cluster_rmsd>  (27) 
0.0

>  <cluster>  (27) 
7

$$$$

     RDKit          3D

 57 61  0  0  0  0  0  0  0  0999 V2000
  143.0660   75.6730  219.0520 O   0  0  0  0  0  0  0  0  0  0  0  0
  142.3110   76.5470  219.5660 C   0  0  0  0  0  0  0  0  0  0  0  0
  141.5170   76.1470  220.6780 N   0  0  0  0  0  0  0  0  0  0  0  0
  141.5170   74.8370  221.2490 C   0  0  0  0  0  0  0  0  0  0  0  0
  140.1680   74.4120  221.7100 C   0  0  0  0  0  0  0  0  0  0  0  0
  139.9550   73.3450  222.3400 O   0  0  0  0  0  0  0  0  0  0  0  0
  139.0640   75.2640  221.4200 N   0  0  0  0  0  0  0  0  0  0  0  0
  138.7320   75.7930  220.1170 C   0  0  0  0  0  0  0  0  0  0  0  0
  137.2840   76.1940  220.1670 C   0  0  0  0  0  0  0  0  0  0  0  0
  136.8040   75.7470  221.5330 C   0  0  0  0  0  0  0  0  0  0  0  0
  138.0630   75.7720  222.3370 C   0  0  2  0  0  0  0  0  0  0  0  0
  138.3900   77.2150  222.5870 C   0  0  0  0  0  0  0  0  0  0  0  0
  137.5610   78.2100  222.9480 N   0  0  0  0  0  0  0  0  0  0  0  0
  138.3500   79.3170  223.0450 C   0  0  0  0  0  0  0  0  0  0  0  0
  139.6460   78.9620  222.7380 C   0  0  0  0  0  0  0  0  0  0  0  0
  140.8580   79.8510  222.7110 C   0  0  0  0  0  0  0  0  0  0  0  0
  140.7730   80.9080  223.8020 C   0  0  0  0  0  0  0  0  0  0  0  0
  142.2210   81.4020  223.8040 C   0  0  0  0  0  0  0  0  0  0  0  0
  143.0510   80.1680  223.4790 C   0  0  0  0  0  0  0  0  0  0  0  0
  142.0720   79.0770  223.0950 C   0  0  0  0  0  0  0  0  0  0  0  0
  139.6120   77.6770  222.4690 O   0  0  0  0  0  0  0  0  0  0  0  0
  142.2450   77.9170  219.0470 C   0  0  0  0  0  0  0  0  0  0  0  0
  142.5800   78.1250  217.7250 C   0  0  0  0  0  0  0  0  0  0  0  0
  142.5420   79.3980  217.1600 C   0  0  0  0  0  0  0  0  0  0  0  0
  142.1540   80.4340  217.9920 C   0  0  0  0  0  0  0  0  0  0  0  0
  142.0900   81.7270  217.5110 C   0  0  0  0  0  0  0  0  0  0  0  0
  141.7120   82.8030  218.2880 C   0  0  0  0  0  0  0  0  0  0  0  0
  141.6590   84.4060  217.5970 Cl  0  0  0  0  0  0  0  0  0  0  0  0
  141.3870   82.5400  219.6030 C   0  0  0  0  0  0  0  0  0  0  0  0
  141.4340   81.2610  220.1380 C   0  0  0  0  0  0  0  0  0  0  0  0
  141.8220   80.1980  219.3220 C   0  0  0  0  0  0  0  0  0  0  0  0
  141.8670   78.9530  219.8440 N   0  0  0  0  0  0  0  0  0  0  0  0
  140.8850   76.8720  221.1100 H   0  0  0  0  0  0  0  0  0  0  0  0
  141.8712   74.1227  220.4911 H   0  0  0  0  0  0  0  0  0  0  0  0
  142.1775   74.8577  222.1284 H   0  0  0  0  0  0  0  0  0  0  0  0
  139.3597   76.6680  219.8924 H   0  0  0  0  0  0  0  0  0  0  0  0
  138.9072   75.0440  219.3306 H   0  0  0  0  0  0  0  0  0  0  0  0
  137.1799   77.2836  220.0574 H   0  0  0  0  0  0  0  0  0  0  0  0
  136.6997   75.7399  219.3531 H   0  0  0  0  0  0  0  0  0  0  0  0
  136.0572   76.4442  221.9406 H   0  0  0  0  0  0  0  0  0  0  0  0
  136.3057   74.7664  221.5255 H   0  0  0  0  0  0  0  0  0  0  0  0
  138.0011   75.2126  223.2821 H   0  0  0  0  0  0  0  0  0  0  0  0
  138.0094   80.3256  223.3221 H   0  0  0  0  0  0  0  0  0  0  0  0
  140.9064   80.2757  221.6975 H   0  0  0  0  0  0  0  0  0  0  0  0
  140.0679   81.7104  223.5394 H   0  0  0  0  0  0  0  0  0  0  0  0
  140.4055   80.5442  224.7729 H   0  0  0  0  0  0  0  0  0  0  0  0
  142.3666   82.1797  223.0398 H   0  0  0  0  0  0  0  0  0  0  0  0
  142.5054   81.8532  224.7661 H   0  0  0  0  0  0  0  0  0  0  0  0
  143.7324   80.3786  222.6415 H   0  0  0  0  0  0  0  0  0  0  0  0
  143.6653   79.8650  224.3397 H   0  0  0  0  0  0  0  0  0  0  0  0
  142.4495   78.4845  222.2486 H   0  0  0  0  0  0  0  0  0  0  0  0
  141.8906   78.3487  223.8992 H   0  0  0  0  0  0  0  0  0  0  0  0
  142.8832   77.2687  217.1046 H   0  0  0  0  0  0  0  0  0  0  0  0
  142.8068   79.5710  216.1065 H   0  0  0  0  0  0  0  0  0  0  0  0
  142.3529   81.9078  216.4583 H   0  0  0  0  0  0  0  0  0  0  0  0
  141.0796   83.3746  220.2503 H   0  0  0  0  0  0  0  0  0  0  0  0
  141.1690   81.0873  221.1914 H   0  0  0  0  0  0  0  0  0  0  0  0
  1  2  2  0
  2  3  1  0
  3  4  1  0
  4  5  1  0
  5  6  2  0
  5  7  1  0
  7  8  1  0
  8  9  1  0
  9 10  1  0
 10 11  1  0
 11 12  1  0
 12 13  2  0
 13 14  1  0
 14 15  2  0
 15 16  1  0
 16 17  1  0
 17 18  1  0
 18 19  1  0
 19 20  1  0
 15 21  1  0
  2 22  1  0
 22 23  2  0
 23 24  1  0
 24 25  2  0
 25 26  1  0
 26 27  2  0
 27 28  1  0
 27 29  1  0
 29 30  2  0
 30 31  1  0
 31 32  2  0
 11  7  1  0
 21 12  1  0
 32 22  1  0
 20 16  1  0
 31 25  1  0
  3 33  1  0
  4 34  1  0
  4 35  1  0
  8 36  1  0
  8 37  1  0
  9 38  1  0
  9 39  1  0
 10 40  1  0
 10 41  1  0
 11 42  1  1
 14 43  1  0
 16 44  1  0
 17 45  1  0
 17 46  1  0
 18 47  1  0
 18 48  1  0
 19 49  1  0
 19 50  1  0
 20 51  1  0
 20 52  1  0
 23 53  1  0
 24 54  1  0
 26 55  1  0
 29 56  1  0
 30 57  1  0
M  END
>  <smiles>  (28) 
O=C(NCC(=O)N1CCC[C@@H]1c1ncc(C2CCCC2)o1)c1ccc2cc(Cl)ccc2n1

>  <score_type>  (28) 
oracle

>  <origin>  (28) 
autodockgpu

>  <m_score__min__energy>  (28) 
-8.9900000000000002

>  <m_primary>  (28) 
energy

>  <rmsd>  (28) 
8.251145944501715

>  <m_score__min__rmsd>  (28) 
8.251145944501715

>  <meeko>  (28) 
{"free_energy": -6.59, "intermolecular_energy": -8.38, "internal_energy": -3.79, "cluster_size": 14, "cluster_id": 8, "rank_in_cluster": 1}

>  <energy>  (28) 
-6.59

>  <cluster_rmsd>  (28) 
0.12

>  <cluster>  (28) 
7

$$$$

     RDKit          3D

 57 61  0  0  0  0  0  0  0  0999 V2000
  141.3840   73.2270  221.0110 O   0  0  0  0  0  0  0  0  0  0  0  0
  140.6060   74.0680  221.5440 C   0  0  0  0  0  0  0  0  0  0  0  0
  139.4590   73.5580  222.2130 N   0  0  0  0  0  0  0  0  0  0  0  0
  139.1290   72.1720  222.3250 C   0  0  0  0  0  0  0  0  0  0  0  0
  137.6730   71.9410  222.5170 C   0  0  0  0  0  0  0  0  0  0  0  0
  136.7880   72.7580  222.1570 O   0  0  0  0  0  0  0  0  0  0  0  0
  137.2650   70.7280  223.1420 N   0  0  0  0  0  0  0  0  0  0  0  0
  136.1960   70.5990  224.1050 C   0  0  0  0  0  0  0  0  0  0  0  0
  135.7910   69.1510  224.1130 C   0  0  0  0  0  0  0  0  0  0  0  0
  136.6150   68.5110  223.0140 C   0  0  0  0  0  0  0  0  0  0  0  0
  137.8150   69.3990  222.9580 C   0  0  2  0  0  0  0  0  0  0  0  0
  138.6390   69.0930  224.1740 C   0  0  0  0  0  0  0  0  0  0  0  0
  138.8550   67.9030  224.7600 N   0  0  0  0  0  0  0  0  0  0  0  0
  139.6680   68.1680  225.8210 C   0  0  0  0  0  0  0  0  0  0  0  0
  139.9250   69.5210  225.8520 C   0  0  0  0  0  0  0  0  0  0  0  0
  140.7700   70.2710  226.8440 C   0  0  0  0  0  0  0  0  0  0  0  0
  141.2190   71.6050  226.2670 C   0  0  0  0  0  0  0  0  0  0  0  0
  141.7060   72.2940  227.5430 C   0  0  0  0  0  0  0  0  0  0  0  0
  140.7780   71.7830  228.6370 C   0  0  0  0  0  0  0  0  0  0  0  0
  139.9450   70.6790  228.0160 C   0  0  0  0  0  0  0  0  0  0  0  0
  139.2770   70.0330  224.8310 O   0  0  0  0  0  0  0  0  0  0  0  0
  140.8630   75.5100  221.4800 C   0  0  0  0  0  0  0  0  0  0  0  0
  141.7200   75.9730  220.5030 C   0  0  0  0  0  0  0  0  0  0  0  0
  142.0130   77.3290  220.3800 C   0  0  0  0  0  0  0  0  0  0  0  0
  141.4030   78.1800  221.2850 C   0  0  0  0  0  0  0  0  0  0  0  0
  141.6400   79.5400  221.2320 C   0  0  0  0  0  0  0  0  0  0  0  0
  141.0640   80.4400  222.1050 C   0  0  0  0  0  0  0  0  0  0  0  0
  141.4200   82.1440  221.9660 Cl  0  0  0  0  0  0  0  0  0  0  0  0
  140.2150   79.9250  223.0630 C   0  0  0  0  0  0  0  0  0  0  0  0
  139.9420   78.5690  223.1620 C   0  0  0  0  0  0  0  0  0  0  0  0
  140.5430   77.6890  222.2620 C   0  0  0  0  0  0  0  0  0  0  0  0
  140.2760   76.3680  222.3580 N   0  0  0  0  0  0  0  0  0  0  0  0
  138.8050   74.2550  222.6600 H   0  0  0  0  0  0  0  0  0  0  0  0
  139.4481   71.6592  221.4057 H   0  0  0  0  0  0  0  0  0  0  0  0
  139.6469   71.7785  223.2121 H   0  0  0  0  0  0  0  0  0  0  0  0
  136.5472   70.8995  225.1032 H   0  0  0  0  0  0  0  0  0  0  0  0
  135.3461   71.2451  223.8402 H   0  0  0  0  0  0  0  0  0  0  0  0
  136.0186   68.6906  225.0857 H   0  0  0  0  0  0  0  0  0  0  0  0
  134.7108   69.0217  223.9502 H   0  0  0  0  0  0  0  0  0  0  0  0
  136.8945   67.4796  223.2749 H   0  0  0  0  0  0  0  0  0  0  0  0
  136.0825   68.4290  222.0550 H   0  0  0  0  0  0  0  0  0  0  0  0
  138.4113   69.2878  222.0403 H   0  0  0  0  0  0  0  0  0  0  0  0
  140.0547   67.4251  226.5341 H   0  0  0  0  0  0  0  0  0  0  0  0
  141.6073   69.6058  227.1018 H   0  0  0  0  0  0  0  0  0  0  0  0
  142.0303   71.4810  225.5346 H   0  0  0  0  0  0  0  0  0  0  0  0
  140.4452   72.1536  225.7100 H   0  0  0  0  0  0  0  0  0  0  0  0
  142.7488   72.0183  227.7589 H   0  0  0  0  0  0  0  0  0  0  0  0
  141.6846   73.3905  227.4579 H   0  0  0  0  0  0  0  0  0  0  0  0
  141.3651   71.3878  229.4791 H   0  0  0  0  0  0  0  0  0  0  0  0
  140.1405   72.5905  229.0262 H   0  0  0  0  0  0  0  0  0  0  0  0
  139.8089   69.8420  228.7167 H   0  0  0  0  0  0  0  0  0  0  0  0
  138.9274   70.9974  227.7457 H   0  0  0  0  0  0  0  0  0  0  0  0
  142.1812   75.2567  219.8071 H   0  0  0  0  0  0  0  0  0  0  0  0
  142.6948   77.7046  219.6028 H   0  0  0  0  0  0  0  0  0  0  0  0
  142.3201   79.9235  220.4572 H   0  0  0  0  0  0  0  0  0  0  0  0
  139.7373   80.6151  223.7741 H   0  0  0  0  0  0  0  0  0  0  0  0
  139.2610   78.1926  223.9395 H   0  0  0  0  0  0  0  0  0  0  0  0
  1  2  2  0
  2  3  1  0
  3  4  1  0
  4  5  1  0
  5  6  2  0
  5  7  1  0
  7  8  1  0
  8  9  1  0
  9 10  1  0
 10 11  1  0
 11 12  1  0
 12 13  2  0
 13 14  1  0
 14 15  2  0
 15 16  1  0
 16 17  1  0
 17 18  1  0
 18 19  1  0
 19 20  1  0
 15 21  1  0
  2 22  1  0
 22 23  2  0
 23 24  1  0
 24 25  2  0
 25 26  1  0
 26 27  2  0
 27 28  1  0
 27 29  1  0
 29 30  2  0
 30 31  1  0
 31 32  2  0
 11  7  1  0
 21 12  1  0
 32 22  1  0
 20 16  1  0
 31 25  1  0
  3 33  1  0
  4 34  1  0
  4 35  1  0
  8 36  1  0
  8 37  1  0
  9 38  1  0
  9 39  1  0
 10 40  1  0
 10 41  1  0
 11 42  1  6
 14 43  1  0
 16 44  1  0
 17 45  1  0
 17 46  1  0
 18 47  1  0
 18 48  1  0
 19 49  1  0
 19 50  1  0
 20 51  1  0
 20 52  1  0
 23 53  1  0
 24 54  1  0
 26 55  1  0
 29 56  1  0
 30 57  1  0
M  END
>  <smiles>  (29) 
O=C(NCC(=O)N1CCC[C@@H]1c1ncc(C2CCCC2)o1)c1ccc2cc(Cl)ccc2n1

>  <score_type>  (29) 
oracle

>  <origin>  (29) 
autodockgpu

>  <m_score__min__energy>  (29) 
-8.9900000000000002

>  <m_primary>  (29) 
energy

>  <rmsd>  (29) 
9.64923642036164

>  <m_score__min__rmsd>  (29) 
9.64923642036164

>  <meeko>  (29) 
{"free_energy": -8.74, "intermolecular_energy": -10.53, "internal_energy": -2.19, "cluster_size": 5, "cluster_id": 2, "rank_in_cluster": 5}

>  <energy>  (29) 
-6.57

>  <cluster_rmsd>  (29) 
0.28

>  <cluster>  (29) 
7

$$$$

     RDKit          3D

 57 61  0  0  0  0  0  0  0  0999 V2000
  139.9310   74.1180  221.9380 O   0  0  0  0  0  0  0  0  0  0  0  0
  140.2700   75.3280  221.7950 C   0  0  0  0  0  0  0  0  0  0  0  0
  141.5620   75.5810  221.2560 N   0  0  0  0  0  0  0  0  0  0  0  0
  142.4950   74.5700  220.8670 C   0  0  0  0  0  0  0  0  0  0  0  0
  143.2780   74.9440  219.6590 C   0  0  0  0  0  0  0  0  0  0  0  0
  144.4350   74.5150  219.4220 O   0  0  0  0  0  0  0  0  0  0  0  0
  142.6770   75.8360  218.7240 N   0  0  0  0  0  0  0  0  0  0  0  0
  143.3830   76.5910  217.7140 C   0  0  0  0  0  0  0  0  0  0  0  0
  142.3680   76.9780  216.6750 C   0  0  0  0  0  0  0  0  0  0  0  0
  141.0870   76.2940  217.1070 C   0  0  0  0  0  0  0  0  0  0  0  0
  141.2740   76.1720  218.5840 C   0  0  2  0  0  0  0  0  0  0  0  0
  141.0940   77.5470  219.1590 C   0  0  0  0  0  0  0  0  0  0  0  0
  140.1540   78.4610  218.8620 N   0  0  0  0  0  0  0  0  0  0  0  0
  140.4320   79.5320  219.6570 C   0  0  0  0  0  0  0  0  0  0  0  0
  141.5390   79.2380  220.4220 C   0  0  0  0  0  0  0  0  0  0  0  0
  142.2090   80.1160  221.4410 C   0  0  0  0  0  0  0  0  0  0  0  0
  141.2550   81.1940  221.9320 C   0  0  0  0  0  0  0  0  0  0  0  0
  142.0150   81.6770  223.1690 C   0  0  0  0  0  0  0  0  0  0  0  0
  142.6990   80.4300  223.7130 C   0  0  0  0  0  0  0  0  0  0  0  0
  142.4960   79.3400  222.6810 C   0  0  0  0  0  0  0  0  0  0  0  0
  141.8990   78.0220  220.0790 O   0  0  0  0  0  0  0  0  0  0  0  0
  139.3790   76.4310  222.1670 C   0  0  0  0  0  0  0  0  0  0  0  0
  138.0440   76.3270  221.8330 C   0  0  0  0  0  0  0  0  0  0  0  0
  137.1370   77.3340  222.1520 C   0  0  0  0  0  0  0  0  0  0  0  0
  137.6430   78.4370  222.8170 C   0  0  0  0  0  0  0  0  0  0  0  0
  136.8110   79.4810  223.1710 C   0  0  0  0  0  0  0  0  0  0  0  0
  137.2530   80.6070  223.8340 C   0  0  0  0  0  0  0  0  0  0  0  0
  136.1310   81.8800  224.2430 Cl  0  0  0  0  0  0  0  0  0  0  0  0
  138.5970   80.6610  224.1450 C   0  0  0  0  0  0  0  0  0  0  0  0
  139.4770   79.6420  223.8140 C   0  0  0  0  0  0  0  0  0  0  0  0
  138.9940   78.5190  223.1430 C   0  0  0  0  0  0  0  0  0  0  0  0
  139.8510   77.5260  222.8210 N   0  0  0  0  0  0  0  0  0  0  0  0
  141.8510   76.5880  221.1350 H   0  0  0  0  0  0  0  0  0  0  0  0
  143.1933   74.3970  221.6991 H   0  0  0  0  0  0  0  0  0  0  0  0
  141.9202   73.6645  220.6225 H   0  0  0  0  0  0  0  0  0  0  0  0
  143.8323   77.4912  218.1587 H   0  0  0  0  0  0  0  0  0  0  0  0
  144.1952   75.9959  217.2710 H   0  0  0  0  0  0  0  0  0  0  0  0
  142.2349   78.0697  216.6518 H   0  0  0  0  0  0  0  0  0  0  0  0
  142.6766   76.6776  215.6628 H   0  0  0  0  0  0  0  0  0  0  0  0
  140.2067   76.9081  216.8662 H   0  0  0  0  0  0  0  0  0  0  0  0
  140.9103   75.3317  216.6043 H   0  0  0  0  0  0  0  0  0  0  0  0
  140.5942   75.4518  219.0628 H   0  0  0  0  0  0  0  0  0  0  0  0
  139.8663   80.4750  219.6835 H   0  0  0  0  0  0  0  0  0  0  0  0
  143.1086   80.5206  220.9541 H   0  0  0  0  0  0  0  0  0  0  0  0
  141.1295   81.9968  221.1906 H   0  0  0  0  0  0  0  0  0  0  0  0
  140.2275   80.8514  222.1237 H   0  0  0  0  0  0  0  0  0  0  0  0
  142.7591   82.4391  222.8942 H   0  0  0  0  0  0  0  0  0  0  0  0
  141.3500   82.1441  223.9103 H   0  0  0  0  0  0  0  0  0  0  0  0
  143.7727   80.6192  223.8590 H   0  0  0  0  0  0  0  0  0  0  0  0
  142.2769   80.1386  224.6861 H   0  0  0  0  0  0  0  0  0  0  0  0
  143.4030   78.7283  222.5657 H   0  0  0  0  0  0  0  0  0  0  0  0
  141.6998   78.6289  222.9464 H   0  0  0  0  0  0  0  0  0  0  0  0
  137.6893   75.4302  221.3039 H   0  0  0  0  0  0  0  0  0  0  0  0
  136.0718   77.2567  221.8887 H   0  0  0  0  0  0  0  0  0  0  0  0
  135.7443   79.4112  222.9117 H   0  0  0  0  0  0  0  0  0  0  0  0
  138.9836   81.5443  224.6745 H   0  0  0  0  0  0  0  0  0  0  0  0
  140.5423   79.7184  224.0772 H   0  0  0  0  0  0  0  0  0  0  0  0
  1  2  2  0
  2  3  1  0
  3  4  1  0
  4  5  1  0
  5  6  2  0
  5  7  1  0
  7  8  1  0
  8  9  1  0
  9 10  1  0
 10 11  1  0
 11 12  1  0
 12 13  2  0
 13 14  1  0
 14 15  2  0
 15 16  1  0
 16 17  1  0
 17 18  1  0
 18 19  1  0
 19 20  1  0
 15 21  1  0
  2 22  1  0
 22 23  2  0
 23 24  1  0
 24 25  2  0
 25 26  1  0
 26 27  2  0
 27 28  1  0
 27 29  1  0
 29 30  2  0
 30 31  1  0
 31 32  2  0
 11  7  1  0
 21 12  1  0
 32 22  1  0
 20 16  1  0
 31 25  1  0
  3 33  1  0
  4 34  1  0
  4 35  1  0
  8 36  1  0
  8 37  1  0
  9 38  1  0
  9 39  1  0
 10 40  1  0
 10 41  1  0
 11 42  1  1
 14 43  1  0
 16 44  1  0
 17 45  1  0
 17 46  1  0
 18 47  1  0
 18 48  1  0
 19 49  1  0
 19 50  1  0
 20 51  1  0
 20 52  1  0
 23 53  1  0
 24 54  1  0
 26 55  1  0
 29 56  1  0
 30 57  1  0
M  END
>  <smiles>  (30) 
O=C(NCC(=O)N1CCC[C@@H]1c1ncc(C2CCCC2)o1)c1ccc2cc(Cl)ccc2n1

>  <score_type>  (30) 
oracle

>  <origin>  (30) 
autodockgpu

>  <m_score__min__energy>  (30) 
-8.9900000000000002

>  <m_primary>  (30) 
energy

>  <rmsd>  (30) 
6.252254743121372

>  <m_score__min__rmsd>  (30) 
6.252254743121372

>  <meeko>  (30) 
{"free_energy": -6.59, "intermolecular_energy": -8.38, "internal_energy": -4.01, "cluster_size": 5, "cluster_id": 7, "rank_in_cluster": 2}

>  <energy>  (30) 
-6.34

>  <cluster_rmsd>  (30) 
0.55

>  <cluster>  (30) 
7

$$$$

     RDKit          3D

 57 61  0  0  0  0  0  0  0  0999 V2000
  142.9580   76.2660  218.7420 O   0  0  0  0  0  0  0  0  0  0  0  0
  142.2360   77.0320  219.4420 C   0  0  0  0  0  0  0  0  0  0  0  0
  141.5240   76.4420  220.5240 N   0  0  0  0  0  0  0  0  0  0  0  0
  141.5680   75.0560  220.8700 C   0  0  0  0  0  0  0  0  0  0  0  0
  140.3510   74.6060  221.5960 C   0  0  0  0  0  0  0  0  0  0  0  0
  140.3100   73.5680  222.3050 O   0  0  0  0  0  0  0  0  0  0  0  0
  139.1720   75.3970  221.4790 N   0  0  0  0  0  0  0  0  0  0  0  0
  138.6190   75.8980  220.2420 C   0  0  0  0  0  0  0  0  0  0  0  0
  137.1760   76.2250  220.5120 C   0  0  0  0  0  0  0  0  0  0  0  0
  136.9340   75.7630  221.9350 C   0  0  0  0  0  0  0  0  0  0  0  0
  138.2970   75.8590  222.5380 C   0  0  2  0  0  0  0  0  0  0  0  0
  138.5830   77.3190  222.7360 C   0  0  0  0  0  0  0  0  0  0  0  0
  137.7200   78.3070  223.0300 N   0  0  0  0  0  0  0  0  0  0  0  0
  138.4790   79.4360  223.1030 C   0  0  0  0  0  0  0  0  0  0  0  0
  139.7920   79.1020  222.8500 C   0  0  0  0  0  0  0  0  0  0  0  0
  140.9820   80.0190  222.8210 C   0  0  0  0  0  0  0  0  0  0  0  0
  140.8290   81.1310  223.8460 C   0  0  0  0  0  0  0  0  0  0  0  0
  142.2630   81.6620  223.8780 C   0  0  0  0  0  0  0  0  0  0  0  0
  143.1340   80.4340  223.6550 C   0  0  0  0  0  0  0  0  0  0  0  0
  142.1970   79.2980  223.2950 C   0  0  0  0  0  0  0  0  0  0  0  0
  139.7960   77.8060  222.6340 O   0  0  0  0  0  0  0  0  0  0  0  0
  142.1290   78.4670  219.1620 C   0  0  0  0  0  0  0  0  0  0  0  0
  142.9520   79.0000  218.1920 C   0  0  0  0  0  0  0  0  0  0  0  0
  142.9090   80.3550  217.8700 C   0  0  0  0  0  0  0  0  0  0  0  0
  142.0010   81.1300  218.5710 C   0  0  0  0  0  0  0  0  0  0  0  0
  141.8940   82.4820  218.3130 C   0  0  0  0  0  0  0  0  0  0  0  0
  141.0110   83.3090  218.9760 C   0  0  0  0  0  0  0  0  0  0  0  0
  140.9410   85.0100  218.5860 Cl  0  0  0  0  0  0  0  0  0  0  0  0
  140.2100   82.7250  219.9360 C   0  0  0  0  0  0  0  0  0  0  0  0
  140.2760   81.3730  220.2360 C   0  0  0  0  0  0  0  0  0  0  0  0
  141.1820   80.5680  219.5450 C   0  0  0  0  0  0  0  0  0  0  0  0
  141.2450   79.2500  219.8360 N   0  0  0  0  0  0  0  0  0  0  0  0
  140.9200   77.0760  221.1120 H   0  0  0  0  0  0  0  0  0  0  0  0
  141.6652   74.4659  219.9468 H   0  0  0  0  0  0  0  0  0  0  0  0
  142.4277   74.9084  221.5401 H   0  0  0  0  0  0  0  0  0  0  0  0
  139.1592   76.8021  219.9245 H   0  0  0  0  0  0  0  0  0  0  0  0
  138.7111   75.1528  219.4381 H   0  0  0  0  0  0  0  0  0  0  0  0
  137.0002   77.3070  220.4207 H   0  0  0  0  0  0  0  0  0  0  0  0
  136.4986   75.7366  219.7960 H   0  0  0  0  0  0  0  0  0  0  0  0
  136.2223   76.4231  222.4524 H   0  0  0  0  0  0  0  0  0  0  0  0
  136.4929   74.7576  222.0022 H   0  0  0  0  0  0  0  0  0  0  0  0
  138.4083   75.3041  223.4812 H   0  0  0  0  0  0  0  0  0  0  0  0
  138.1059   80.4463  223.3267 H   0  0  0  0  0  0  0  0  0  0  0  0
  141.0609   80.3891  221.7881 H   0  0  0  0  0  0  0  0  0  0  0  0
  140.1165   81.8994  223.5114 H   0  0  0  0  0  0  0  0  0  0  0  0
  140.4315   80.8112  224.8206 H   0  0  0  0  0  0  0  0  0  0  0  0
  142.4213   82.4004  223.0782 H   0  0  0  0  0  0  0  0  0  0  0  0
  142.4971   82.1724  224.8239 H   0  0  0  0  0  0  0  0  0  0  0  0
  143.8432   80.6157  222.8340 H   0  0  0  0  0  0  0  0  0  0  0  0
  143.7202   80.1948  224.5545 H   0  0  0  0  0  0  0  0  0  0  0  0
  142.6221   78.6694  222.4986 H   0  0  0  0  0  0  0  0  0  0  0  0
  142.0004   78.6105  224.1309 H   0  0  0  0  0  0  0  0  0  0  0  0
  143.6565   78.3422  217.6619 H   0  0  0  0  0  0  0  0  0  0  0  0
  143.5631   80.7868  217.0982 H   0  0  0  0  0  0  0  0  0  0  0  0
  142.5440   82.9209  217.5418 H   0  0  0  0  0  0  0  0  0  0  0  0
  139.4932   83.3550  220.4831 H   0  0  0  0  0  0  0  0  0  0  0  0
  139.6228   80.9409  221.0084 H   0  0  0  0  0  0  0  0  0  0  0  0
  1  2  2  0
  2  3  1  0
  3  4  1  0
  4  5  1  0
  5  6  2  0
  5  7  1  0
  7  8  1  0
  8  9  1  0
  9 10  1  0
 10 11  1  0
 11 12  1  0
 12 13  2  0
 13 14  1  0
 14 15  2  0
 15 16  1  0
 16 17  1  0
 17 18  1  0
 18 19  1  0
 19 20  1  0
 15 21  1  0
  2 22  1  0
 22 23  2  0
 23 24  1  0
 24 25  2  0
 25 26  1  0
 26 27  2  0
 27 28  1  0
 27 29  1  0
 29 30  2  0
 30 31  1  0
 31 32  2  0
 11  7  1  0
 21 12  1  0
 32 22  1  0
 20 16  1  0
 31 25  1  0
  3 33  1  0
  4 34  1  0
  4 35  1  0
  8 36  1  0
  8 37  1  0
  9 38  1  0
  9 39  1  0
 10 40  1  0
 10 41  1  0
 11 42  1  1
 14 43  1  0
 16 44  1  0
 17 45  1  0
 17 46  1  0
 18 47  1  0
 18 48  1  0
 19 49  1  0
 19 50  1  0
 20 51  1  0
 20 52  1  0
 23 53  1  0
 24 54  1  0
 26 55  1  0
 29 56  1  0
 30 57  1  0
M  END
>  <smiles>  (31) 
O=C(NCC(=O)N1CCC[C@@H]1c1ncc(C2CCCC2)o1)c1ccc2cc(Cl)ccc2n1

>  <score_type>  (31) 
oracle

>  <origin>  (31) 
autodockgpu

>  <m_score__min__energy>  (31) 
-8.9900000000000002

>  <m_primary>  (31) 
energy

>  <rmsd>  (31) 
8.418397309026753

>  <m_score__min__rmsd>  (31) 
8.418397309026753

>  <meeko>  (31) 
{"free_energy": -6.39, "intermolecular_energy": -8.18, "internal_energy": -4.04, "cluster_size": 14, "cluster_id": 8, "rank_in_cluster": 9}

>  <energy>  (31) 
-6.3

>  <cluster_rmsd>  (31) 
0.56

>  <cluster>  (31) 
7

$$$$

     RDKit          3D

 57 61  0  0  0  0  0  0  0  0999 V2000
  137.2080   73.1320  221.0510 O   0  0  0  0  0  0  0  0  0  0  0  0
  138.1300   72.8650  221.8720 C   0  0  0  0  0  0  0  0  0  0  0  0
  137.7510   72.2370  223.0920 N   0  0  0  0  0  0  0  0  0  0  0  0
  136.4110   71.8890  223.4470 C   0  0  0  0  0  0  0  0  0  0  0  0
  135.8740   70.7670  222.6330 C   0  0  0  0  0  0  0  0  0  0  0  0
  134.7690   70.8110  222.0340 O   0  0  0  0  0  0  0  0  0  0  0  0
  136.6570   69.5820  222.5290 N   0  0  0  0  0  0  0  0  0  0  0  0
  136.1680   68.2350  222.7120 C   0  0  0  0  0  0  0  0  0  0  0  0
  137.1540   67.3200  222.0400 C   0  0  0  0  0  0  0  0  0  0  0  0
  138.1520   68.2460  221.3730 C   0  0  0  0  0  0  0  0  0  0  0  0
  138.0710   69.4690  222.2270 C   0  0  2  0  0  0  0  0  0  0  0  0
  138.7690   69.1460  223.5160 C   0  0  0  0  0  0  0  0  0  0  0  0
  138.8600   67.9610  224.1430 N   0  0  0  0  0  0  0  0  0  0  0  0
  139.5960   68.2040  225.2640 C   0  0  0  0  0  0  0  0  0  0  0  0
  139.9350   69.5400  225.2880 C   0  0  0  0  0  0  0  0  0  0  0  0
  140.7390   70.2630  226.3310 C   0  0  0  0  0  0  0  0  0  0  0  0
  140.9580   71.7140  225.9310 C   0  0  0  0  0  0  0  0  0  0  0  0
  141.4380   72.2870  227.2650 C   0  0  0  0  0  0  0  0  0  0  0  0
  140.6710   71.5030  228.3210 C   0  0  0  0  0  0  0  0  0  0  0  0
  139.9540   70.3840  227.5920 C   0  0  0  0  0  0  0  0  0  0  0  0
  139.4070   70.0620  224.2040 O   0  0  0  0  0  0  0  0  0  0  0  0
  139.5330   73.1850  221.5930 C   0  0  0  0  0  0  0  0  0  0  0  0
  139.8940   74.5150  221.5310 C   0  0  0  0  0  0  0  0  0  0  0  0
  141.2080   74.8980  221.2700 C   0  0  0  0  0  0  0  0  0  0  0  0
  142.1240   73.8790  221.0780 C   0  0  0  0  0  0  0  0  0  0  0  0
  143.4480   74.1720  220.8140 C   0  0  0  0  0  0  0  0  0  0  0  0
  144.4090   73.2030  220.6130 C   0  0  0  0  0  0  0  0  0  0  0  0
  146.0610   73.6630  220.2850 Cl  0  0  0  0  0  0  0  0  0  0  0  0
  143.9960   71.8880  220.6870 C   0  0  0  0  0  0  0  0  0  0  0  0
  142.6800   71.5370  220.9480 C   0  0  0  0  0  0  0  0  0  0  0  0
  141.7350   72.5440  221.1460 C   0  0  0  0  0  0  0  0  0  0  0  0
  140.4540   72.2020  221.4010 N   0  0  0  0  0  0  0  0  0  0  0  0
  138.5160   72.0120  223.7820 H   0  0  0  0  0  0  0  0  0  0  0  0
  136.3930   71.5948  224.5068 H   0  0  0  0  0  0  0  0  0  0  0  0
  135.7784   72.7688  223.2578 H   0  0  0  0  0  0  0  0  0  0  0  0
  136.1018   67.9985  223.7842 H   0  0  0  0  0  0  0  0  0  0  0  0
  135.1630   68.1178  222.2804 H   0  0  0  0  0  0  0  0  0  0  0  0
  137.6551   66.6796  222.7808 H   0  0  0  0  0  0  0  0  0  0  0  0
  136.6688   66.6452  221.3194 H   0  0  0  0  0  0  0  0  0  0  0  0
  139.1647   67.8168  221.3868 H   0  0  0  0  0  0  0  0  0  0  0  0
  137.9362   68.4350  220.3111 H   0  0  0  0  0  0  0  0  0  0  0  0
  138.4998   70.3684  221.7610 H   0  0  0  0  0  0  0  0  0  0  0  0
  139.8734   67.4581  226.0234 H   0  0  0  0  0  0  0  0  0  0  0  0
  141.6758   69.6977  226.4444 H   0  0  0  0  0  0  0  0  0  0  0  0
  141.7229   71.8103  225.1464 H   0  0  0  0  0  0  0  0  0  0  0  0
  140.0775   72.2144  225.5015 H   0  0  0  0  0  0  0  0  0  0  0  0
  142.5216   72.1393  227.3832 H   0  0  0  0  0  0  0  0  0  0  0  0
  141.2609   73.3700  227.3405 H   0  0  0  0  0  0  0  0  0  0  0  0
  141.3665   71.0872  229.0649 H   0  0  0  0  0  0  0  0  0  0  0  0
  139.9591   72.1487  228.8560 H   0  0  0  0  0  0  0  0  0  0  0  0
  139.9852   69.4490  228.1706 H   0  0  0  0  0  0  0  0  0  0  0  0
  138.8854   70.5846  227.4249 H   0  0  0  0  0  0  0  0  0  0  0  0
  139.1289   75.2890  221.6909 H   0  0  0  0  0  0  0  0  0  0  0  0
  141.5021   75.9567  221.2192 H   0  0  0  0  0  0  0  0  0  0  0  0
  143.7503   75.2283  220.7616 H   0  0  0  0  0  0  0  0  0  0  0  0
  144.7373   71.0899  220.5334 H   0  0  0  0  0  0  0  0  0  0  0  0
  142.3851   70.4785  220.9982 H   0  0  0  0  0  0  0  0  0  0  0  0
  1  2  2  0
  2  3  1  0
  3  4  1  0
  4  5  1  0
  5  6  2  0
  5  7  1  0
  7  8  1  0
  8  9  1  0
  9 10  1  0
 10 11  1  0
 11 12  1  0
 12 13  2  0
 13 14  1  0
 14 15  2  0
 15 16  1  0
 16 17  1  0
 17 18  1  0
 18 19  1  0
 19 20  1  0
 15 21  1  0
  2 22  1  0
 22 23  2  0
 23 24  1  0
 24 25  2  0
 25 26  1  0
 26 27  2  0
 27 28  1  0
 27 29  1  0
 29 30  2  0
 30 31  1  0
 31 32  2  0
 11  7  1  0
 21 12  1  0
 32 22  1  0
 20 16  1  0
 31 25  1  0
  3 33  1  0
  4 34  1  0
  4 35  1  0
  8 36  1  0
  8 37  1  0
  9 38  1  0
  9 39  1  0
 10 40  1  0
 10 41  1  0
 11 42  1  6
 14 43  1  0
 16 44  1  0
 17 45  1  0
 17 46  1  0
 18 47  1  0
 18 48  1  0
 19 49  1  0
 19 50  1  0
 20 51  1  0
 20 52  1  0
 23 53  1  0
 24 54  1  0
 26 55  1  0
 29 56  1  0
 30 57  1  0
M  END
>  <smiles>  (32) 
O=C(NCC(=O)N1CCC[C@@H]1c1ncc(C2CCCC2)o1)c1ccc2cc(Cl)ccc2n1

>  <score_type>  (32) 
oracle

>  <origin>  (32) 
autodockgpu

>  <m_score__min__energy>  (32) 
-8.9900000000000002

>  <m_primary>  (32) 
energy

>  <rmsd>  (32) 
8.855092280638646

>  <m_score__min__rmsd>  (32) 
8.855092280638646

>  <meeko>  (32) 
{"free_energy": -7.22, "intermolecular_energy": -9.01, "internal_energy": -2.95, "cluster_size": 1, "cluster_id": 6, "rank_in_cluster": 1}

>  <energy>  (32) 
-6.59

>  <cluster_rmsd>  (32) 
0.0

>  <cluster>  (32) 
8

$$$$

     RDKit          3D

 57 61  0  0  0  0  0  0  0  0999 V2000
  142.6750   77.1190  217.8980 O   0  0  0  0  0  0  0  0  0  0  0  0
  142.4270   77.5940  219.0430 C   0  0  0  0  0  0  0  0  0  0  0  0
  142.6180   76.7310  220.1580 N   0  0  0  0  0  0  0  0  0  0  0  0
  143.0680   75.3770  220.0740 C   0  0  0  0  0  0  0  0  0  0  0  0
  141.9590   74.4170  219.8320 C   0  0  0  0  0  0  0  0  0  0  0  0
  142.1260   73.2750  219.3330 O   0  0  0  0  0  0  0  0  0  0  0  0
  140.6390   74.8170  220.1880 N   0  0  0  0  0  0  0  0  0  0  0  0
  139.6680   75.3960  219.2880 C   0  0  0  0  0  0  0  0  0  0  0  0
  138.3180   75.1970  219.9210 C   0  0  0  0  0  0  0  0  0  0  0  0
  138.5890   74.3710  221.1630 C   0  0  0  0  0  0  0  0  0  0  0  0
  140.0010   74.7370  221.4870 C   0  0  2  0  0  0  0  0  0  0  0  0
  139.9710   76.1290  222.0470 C   0  0  0  0  0  0  0  0  0  0  0  0
  138.9210   76.9570  222.1730 N   0  0  0  0  0  0  0  0  0  0  0  0
  139.4240   78.0910  222.7370 C   0  0  0  0  0  0  0  0  0  0  0  0
  140.7760   77.9200  222.9410 C   0  0  0  0  0  0  0  0  0  0  0  0
  141.7450   78.9020  223.5360 C   0  0  0  0  0  0  0  0  0  0  0  0
  142.8020   79.2990  222.5170 C   0  0  0  0  0  0  0  0  0  0  0  0
  143.3930   80.5260  223.2140 C   0  0  0  0  0  0  0  0  0  0  0  0
  142.2160   81.1640  223.9380 C   0  0  0  0  0  0  0  0  0  0  0  0
  141.0580   80.1940  223.8200 C   0  0  0  0  0  0  0  0  0  0  0  0
  141.0540   76.7130  222.5040 O   0  0  0  0  0  0  0  0  0  0  0  0
  141.9610   78.9720  219.2260 C   0  0  0  0  0  0  0  0  0  0  0  0
  142.5850   79.9680  218.5050 C   0  0  0  0  0  0  0  0  0  0  0  0
  142.1990   81.3010  218.6260 C   0  0  0  0  0  0  0  0  0  0  0  0
  141.1610   81.5690  219.5030 C   0  0  0  0  0  0  0  0  0  0  0  0
  140.7170   82.8640  219.6820 C   0  0  0  0  0  0  0  0  0  0  0  0
  139.6890   83.1960  220.5400 C   0  0  0  0  0  0  0  0  0  0  0  0
  139.1900   84.8610  220.7060 Cl  0  0  0  0  0  0  0  0  0  0  0  0
  139.0980   82.1620  221.2380 C   0  0  0  0  0  0  0  0  0  0  0  0
  139.5050   80.8440  221.0970 C   0  0  0  0  0  0  0  0  0  0  0  0
  140.5480   80.5450  220.2200 C   0  0  0  0  0  0  0  0  0  0  0  0
  140.9440   79.2610  220.0820 N   0  0  0  0  0  0  0  0  0  0  0  0
  142.4130   77.1210  221.1160 H   0  0  0  0  0  0  0  0  0  0  0  0
  143.7894   75.2967  219.2475 H   0  0  0  0  0  0  0  0  0  0  0  0
  143.5256   75.1188  221.0404 H   0  0  0  0  0  0  0  0  0  0  0  0
  139.8689   76.4691  219.1532 H   0  0  0  0  0  0  0  0  0  0  0  0
  139.7141   74.9201  218.2974 H   0  0  0  0  0  0  0  0  0  0  0  0
  137.8699   76.1649  220.1898 H   0  0  0  0  0  0  0  0  0  0  0  0
  137.6097   74.7021  219.2403 H   0  0  0  0  0  0  0  0  0  0  0  0
  137.9080   74.6472  221.9815 H   0  0  0  0  0  0  0  0  0  0  0  0
  138.4364   73.2916  221.0160 H   0  0  0  0  0  0  0  0  0  0  0  0
  140.4947   74.0429  222.1831 H   0  0  0  0  0  0  0  0  0  0  0  0
  138.8466   78.9931  222.9878 H   0  0  0  0  0  0  0  0  0  0  0  0
  142.1646   78.4177  224.4301 H   0  0  0  0  0  0  0  0  0  0  0  0
  143.5528   78.5072  222.3776 H   0  0  0  0  0  0  0  0  0  0  0  0
  142.4217   79.4809  221.5010 H   0  0  0  0  0  0  0  0  0  0  0  0
  144.1729   80.2273  223.9299 H   0  0  0  0  0  0  0  0  0  0  0  0
  143.8696   81.2182  222.5043 H   0  0  0  0  0  0  0  0  0  0  0  0
  142.4660   81.3297  224.9963 H   0  0  0  0  0  0  0  0  0  0  0  0
  141.9621   82.1402  223.4991 H   0  0  0  0  0  0  0  0  0  0  0  0
  140.4862   80.1420  224.7583 H   0  0  0  0  0  0  0  0  0  0  0  0
  140.3251   80.4786  223.0507 H   0  0  0  0  0  0  0  0  0  0  0  0
  143.4045   79.7045  217.8202 H   0  0  0  0  0  0  0  0  0  0  0  0
  142.6934   82.1001  218.0542 H   0  0  0  0  0  0  0  0  0  0  0  0
  141.2060   83.6690  219.1137 H   0  0  0  0  0  0  0  0  0  0  0  0
  138.2750   82.3918  221.9307 H   0  0  0  0  0  0  0  0  0  0  0  0
  139.0118   80.0444  221.6693 H   0  0  0  0  0  0  0  0  0  0  0  0
  1  2  2  0
  2  3  1  0
  3  4  1  0
  4  5  1  0
  5  6  2  0
  5  7  1  0
  7  8  1  0
  8  9  1  0
  9 10  1  0
 10 11  1  0
 11 12  1  0
 12 13  2  0
 13 14  1  0
 14 15  2  0
 15 16  1  0
 16 17  1  0
 17 18  1  0
 18 19  1  0
 19 20  1  0
 15 21  1  0
  2 22  1  0
 22 23  2  0
 23 24  1  0
 24 25  2  0
 25 26  1  0
 26 27  2  0
 27 28  1  0
 27 29  1  0
 29 30  2  0
 30 31  1  0
 31 32  2  0
 11  7  1  0
 21 12  1  0
 32 22  1  0
 20 16  1  0
 31 25  1  0
  3 33  1  0
  4 34  1  0
  4 35  1  0
  8 36  1  0
  8 37  1  0
  9 38  1  0
  9 39  1  0
 10 40  1  0
 10 41  1  0
 11 42  1  1
 14 43  1  0
 16 44  1  0
 17 45  1  0
 17 46  1  0
 18 47  1  0
 18 48  1  0
 19 49  1  0
 19 50  1  0
 20 51  1  0
 20 52  1  0
 23 53  1  0
 24 54  1  0
 26 55  1  0
 29 56  1  0
 30 57  1  0
M  END
>  <smiles>  (33) 
O=C(NCC(=O)N1CCC[C@@H]1c1ncc(C2CCCC2)o1)c1ccc2cc(Cl)ccc2n1

>  <score_type>  (33) 
oracle

>  <origin>  (33) 
autodockgpu

>  <m_score__min__energy>  (33) 
-8.9900000000000002

>  <m_primary>  (33) 
energy

>  <rmsd>  (33) 
8.363819942014565

>  <m_score__min__rmsd>  (33) 
8.363819942014565

>  <meeko>  (33) 
{"free_energy": -6.18, "intermolecular_energy": -7.97, "internal_energy": -4.44, "cluster_size": 14, "cluster_id": 8, "rank_in_cluster": 11}

>  <energy>  (33) 
-6.57

>  <cluster_rmsd>  (33) 
1.24

>  <cluster>  (33) 
8

$$$$

     RDKit          3D

 57 61  0  0  0  0  0  0  0  0999 V2000
  142.6610   77.7030  217.8790 O   0  0  0  0  0  0  0  0  0  0  0  0
  142.2880   77.8410  219.0790 C   0  0  0  0  0  0  0  0  0  0  0  0
  142.7900   76.9050  220.0260 N   0  0  0  0  0  0  0  0  0  0  0  0
  143.6810   75.8310  219.7170 C   0  0  0  0  0  0  0  0  0  0  0  0
  143.0000   74.5090  219.6910 C   0  0  0  0  0  0  0  0  0  0  0  0
  143.5830   73.4340  219.4010 O   0  0  0  0  0  0  0  0  0  0  0  0
  141.6130   74.4660  220.0160 N   0  0  0  0  0  0  0  0  0  0  0  0
  140.5290   74.7010  219.0900 C   0  0  0  0  0  0  0  0  0  0  0  0
  139.3000   74.0810  219.6960 C   0  0  0  0  0  0  0  0  0  0  0  0
  139.7920   73.3870  220.9500 C   0  0  0  0  0  0  0  0  0  0  0  0
  141.0050   74.1860  221.3010 C   0  0  2  0  0  0  0  0  0  0  0  0
  140.5170   75.4960  221.8490 C   0  0  0  0  0  0  0  0  0  0  0  0
  139.2610   75.9730  221.8830 N   0  0  0  0  0  0  0  0  0  0  0  0
  139.3570   77.1950  222.4790 C   0  0  0  0  0  0  0  0  0  0  0  0
  140.6780   77.4290  222.7930 C   0  0  0  0  0  0  0  0  0  0  0  0
  141.2600   78.6440  223.4600 C   0  0  0  0  0  0  0  0  0  0  0  0
  142.4640   79.1570  222.6850 C   0  0  0  0  0  0  0  0  0  0  0  0
  142.6180   80.5400  223.3210 C   0  0  0  0  0  0  0  0  0  0  0  0
  141.1950   80.9820  223.6340 C   0  0  0  0  0  0  0  0  0  0  0  0
  140.3030   79.7830  223.3760 C   0  0  0  0  0  0  0  0  0  0  0  0
  141.3370   76.3670  222.3890 O   0  0  0  0  0  0  0  0  0  0  0  0
  141.3760   78.9130  219.4880 C   0  0  0  0  0  0  0  0  0  0  0  0
  140.0280   78.6290  219.5510 C   0  0  0  0  0  0  0  0  0  0  0  0
  139.1000   79.5950  219.9310 C   0  0  0  0  0  0  0  0  0  0  0  0
  139.6020   80.8480  220.2410 C   0  0  0  0  0  0  0  0  0  0  0  0
  138.7500   81.8640  220.6270 C   0  0  0  0  0  0  0  0  0  0  0  0
  139.1860   83.1330  220.9480 C   0  0  0  0  0  0  0  0  0  0  0  0
  138.0380   84.3590  221.4270 Cl  0  0  0  0  0  0  0  0  0  0  0  0
  140.5440   83.3650  220.8690 C   0  0  0  0  0  0  0  0  0  0  0  0
  141.4440   82.3820  220.4870 C   0  0  0  0  0  0  0  0  0  0  0  0
  140.9670   81.1110  220.1690 C   0  0  0  0  0  0  0  0  0  0  0  0
  141.8440   80.1530  219.7980 N   0  0  0  0  0  0  0  0  0  0  0  0
  142.4830   77.0150  221.0290 H   0  0  0  0  0  0  0  0  0  0  0  0
  144.1265   76.0168  218.7285 H   0  0  0  0  0  0  0  0  0  0  0  0
  144.4450   75.7955  220.5076 H   0  0  0  0  0  0  0  0  0  0  0  0
  140.3783   75.7815  218.9492 H   0  0  0  0  0  0  0  0  0  0  0  0
  140.7483   74.2629  218.1051 H   0  0  0  0  0  0  0  0  0  0  0  0
  138.5596   74.8549  219.9470 H   0  0  0  0  0  0  0  0  0  0  0  0
  138.8035   73.3843  219.0046 H   0  0  0  0  0  0  0  0  0  0  0  0
  139.0398   73.4319  221.7514 H   0  0  0  0  0  0  0  0  0  0  0  0
  139.9960   72.3153  220.8091 H   0  0  0  0  0  0  0  0  0  0  0  0
  141.6792   73.6868  222.0125 H   0  0  0  0  0  0  0  0  0  0  0  0
  138.5194   77.8802  222.6764 H   0  0  0  0  0  0  0  0  0  0  0  0
  141.5027   78.3445  224.4903 H   0  0  0  0  0  0  0  0  0  0  0  0
  143.3530   78.5304  222.8497 H   0  0  0  0  0  0  0  0  0  0  0  0
  142.3448   79.1600  221.5915 H   0  0  0  0  0  0  0  0  0  0  0  0
  143.2167   80.4791  224.2418 H   0  0  0  0  0  0  0  0  0  0  0  0
  143.1373   81.2476  222.6579 H   0  0  0  0  0  0  0  0  0  0  0  0
  141.1170   81.2939  224.6860 H   0  0  0  0  0  0  0  0  0  0  0  0
  140.8991   81.8385  223.0104 H   0  0  0  0  0  0  0  0  0  0  0  0
  139.5179   79.6997  224.1419 H   0  0  0  0  0  0  0  0  0  0  0  0
  139.7662   79.8345  222.4173 H   0  0  0  0  0  0  0  0  0  0  0  0
  139.6784   77.6178  219.2956 H   0  0  0  0  0  0  0  0  0  0  0  0
  138.0236   79.3743  219.9823 H   0  0  0  0  0  0  0  0  0  0  0  0
  137.6721   81.6513  220.6811 H   0  0  0  0  0  0  0  0  0  0  0  0
  140.9262   84.3659  221.1181 H   0  0  0  0  0  0  0  0  0  0  0  0
  142.5205   82.6020  220.4354 H   0  0  0  0  0  0  0  0  0  0  0  0
  1  2  2  0
  2  3  1  0
  3  4  1  0
  4  5  1  0
  5  6  2  0
  5  7  1  0
  7  8  1  0
  8  9  1  0
  9 10  1  0
 10 11  1  0
 11 12  1  0
 12 13  2  0
 13 14  1  0
 14 15  2  0
 15 16  1  0
 16 17  1  0
 17 18  1  0
 18 19  1  0
 19 20  1  0
 15 21  1  0
  2 22  1  0
 22 23  2  0
 23 24  1  0
 24 25  2  0
 25 26  1  0
 26 27  2  0
 27 28  1  0
 27 29  1  0
 29 30  2  0
 30 31  1  0
 31 32  2  0
 11  7  1  0
 21 12  1  0
 32 22  1  0
 20 16  1  0
 31 25  1  0
  3 33  1  0
  4 34  1  0
  4 35  1  0
  8 36  1  0
  8 37  1  0
  9 38  1  0
  9 39  1  0
 10 40  1  0
 10 41  1  0
 11 42  1  1
 14 43  1  0
 16 44  1  0
 17 45  1  0
 17 46  1  0
 18 47  1  0
 18 48  1  0
 19 49  1  0
 19 50  1  0
 20 51  1  0
 20 52  1  0
 23 53  1  0
 24 54  1  0
 26 55  1  0
 29 56  1  0
 30 57  1  0
M  END
>  <smiles>  (34) 
O=C(NCC(=O)N1CCC[C@@H]1c1ncc(C2CCCC2)o1)c1ccc2cc(Cl)ccc2n1

>  <score_type>  (34) 
oracle

>  <origin>  (34) 
autodockgpu

>  <m_score__min__energy>  (34) 
-8.9900000000000002

>  <m_primary>  (34) 
energy

>  <rmsd>  (34) 
8.125497260947125

>  <m_score__min__rmsd>  (34) 
8.125497260947125

>  <meeko>  (34) 
{"free_energy": -5.92, "intermolecular_energy": -7.7, "internal_energy": -4.58, "cluster_size": 2, "cluster_id": 10, "rank_in_cluster": 2}

>  <energy>  (34) 
-6.56

>  <cluster_rmsd>  (34) 
1.29

>  <cluster>  (34) 
8

$$$$

     RDKit          3D

 57 61  0  0  0  0  0  0  0  0999 V2000
  142.8150   76.6820  218.0810 O   0  0  0  0  0  0  0  0  0  0  0  0
  142.5090   77.3050  219.1370 C   0  0  0  0  0  0  0  0  0  0  0  0
  142.4770   76.5550  220.3470 N   0  0  0  0  0  0  0  0  0  0  0  0
  142.7690   75.1590  220.4490 C   0  0  0  0  0  0  0  0  0  0  0  0
  141.5450   74.3250  220.5800 C   0  0  0  0  0  0  0  0  0  0  0  0
  141.5660   73.0700  220.6580 O   0  0  0  0  0  0  0  0  0  0  0  0
  140.2850   74.9890  220.6200 N   0  0  0  0  0  0  0  0  0  0  0  0
  139.6680   75.6840  219.5140 C   0  0  0  0  0  0  0  0  0  0  0  0
  138.2010   75.7830  219.8280 C   0  0  0  0  0  0  0  0  0  0  0  0
  138.0240   74.9990  221.1130 C   0  0  0  0  0  0  0  0  0  0  0  0
  139.3750   75.1110  221.7420 C   0  0  2  0  0  0  0  0  0  0  0  0
  139.4990   76.5150  222.2570 C   0  0  0  0  0  0  0  0  0  0  0  0
  138.5460   77.4570  222.3550 N   0  0  0  0  0  0  0  0  0  0  0  0
  139.1720   78.5470  222.8820 C   0  0  0  0  0  0  0  0  0  0  0  0
  140.4980   78.2360  223.0910 C   0  0  0  0  0  0  0  0  0  0  0  0
  141.5700   79.1250  223.6540 C   0  0  0  0  0  0  0  0  0  0  0  0
  142.6980   79.3080  222.6500 C   0  0  0  0  0  0  0  0  0  0  0  0
  143.4260   80.4950  223.2840 C   0  0  0  0  0  0  0  0  0  0  0  0
  142.3230   81.3310  223.9190 C   0  0  0  0  0  0  0  0  0  0  0  0
  141.0510   80.5120  223.8230 C   0  0  0  0  0  0  0  0  0  0  0  0
  140.6410   76.9920  222.6940 O   0  0  0  0  0  0  0  0  0  0  0  0
  142.1940   78.7360  219.1290 C   0  0  0  0  0  0  0  0  0  0  0  0
  142.8030   79.5280  218.1780 C   0  0  0  0  0  0  0  0  0  0  0  0
  142.5550   80.8960  218.1070 C   0  0  0  0  0  0  0  0  0  0  0  0
  141.6700   81.4150  219.0370 C   0  0  0  0  0  0  0  0  0  0  0  0
  141.3690   82.7630  219.0360 C   0  0  0  0  0  0  0  0  0  0  0  0
  140.4970   83.3410  219.9350 C   0  0  0  0  0  0  0  0  0  0  0  0
  140.1730   85.0560  219.8630 Cl  0  0  0  0  0  0  0  0  0  0  0  0
  139.9140   82.5050  220.8660 C   0  0  0  0  0  0  0  0  0  0  0  0
  140.1820   81.1450  220.9120 C   0  0  0  0  0  0  0  0  0  0  0  0
  141.0690   80.5960  219.9870 C   0  0  0  0  0  0  0  0  0  0  0  0
  141.3280   79.2710  220.0320 N   0  0  0  0  0  0  0  0  0  0  0  0
  142.2220   77.0690  221.2310 H   0  0  0  0  0  0  0  0  0  0  0  0
  143.3129   74.8463  219.5455 H   0  0  0  0  0  0  0  0  0  0  0  0
  143.3709   75.0109  221.3577 H   0  0  0  0  0  0  0  0  0  0  0  0
  140.1016   76.6895  219.4092 H   0  0  0  0  0  0  0  0  0  0  0  0
  139.8341   75.1474  218.5683 H   0  0  0  0  0  0  0  0  0  0  0  0
  137.9058   76.8329  219.9713 H   0  0  0  0  0  0  0  0  0  0  0  0
  137.5754   75.3896  219.0132 H   0  0  0  0  0  0  0  0  0  0  0  0
  137.2489   75.4490  221.7508 H   0  0  0  0  0  0  0  0  0  0  0  0
  137.6962   73.9610  220.9545 H   0  0  0  0  0  0  0  0  0  0  0  0
  139.5573   74.3801  222.5436 H   0  0  0  0  0  0  0  0  0  0  0  0
  138.6975   79.5143  223.1037 H   0  0  0  0  0  0  0  0  0  0  0  0
  141.8968   78.6567  224.5941 H   0  0  0  0  0  0  0  0  0  0  0  0
  143.3416   78.4178  222.5919 H   0  0  0  0  0  0  0  0  0  0  0  0
  142.3732   79.4644  221.6108 H   0  0  0  0  0  0  0  0  0  0  0  0
  144.1392   80.1499  224.0471 H   0  0  0  0  0  0  0  0  0  0  0  0
  144.0096   81.0667  222.5475 H   0  0  0  0  0  0  0  0  0  0  0  0
  142.5624   81.5386  224.9724 H   0  0  0  0  0  0  0  0  0  0  0  0
  142.2125   82.2980  223.4065 H   0  0  0  0  0  0  0  0  0  0  0  0
  140.4503   80.6023  224.7401 H   0  0  0  0  0  0  0  0  0  0  0  0
  140.3846   80.8323  223.0086 H   0  0  0  0  0  0  0  0  0  0  0  0
  143.4992   79.0690  217.4606 H   0  0  0  0  0  0  0  0  0  0  0  0
  143.0375   81.5323  217.3505 H   0  0  0  0  0  0  0  0  0  0  0  0
  141.8473   83.4061  218.2826 H   0  0  0  0  0  0  0  0  0  0  0  0
  139.2121   82.9325  221.5972 H   0  0  0  0  0  0  0  0  0  0  0  0
  139.7009   80.5077  221.6686 H   0  0  0  0  0  0  0  0  0  0  0  0
  1  2  2  0
  2  3  1  0
  3  4  1  0
  4  5  1  0
  5  6  2  0
  5  7  1  0
  7  8  1  0
  8  9  1  0
  9 10  1  0
 10 11  1  0
 11 12  1  0
 12 13  2  0
 13 14  1  0
 14 15  2  0
 15 16  1  0
 16 17  1  0
 17 18  1  0
 18 19  1  0
 19 20  1  0
 15 21  1  0
  2 22  1  0
 22 23  2  0
 23 24  1  0
 24 25  2  0
 25 26  1  0
 26 27  2  0
 27 28  1  0
 27 29  1  0
 29 30  2  0
 30 31  1  0
 31 32  2  0
 11  7  1  0
 21 12  1  0
 32 22  1  0
 20 16  1  0
 31 25  1  0
  3 33  1  0
  4 34  1  0
  4 35  1  0
  8 36  1  0
  8 37  1  0
  9 38  1  0
  9 39  1  0
 10 40  1  0
 10 41  1  0
 11 42  1  1
 14 43  1  0
 16 44  1  0
 17 45  1  0
 17 46  1  0
 18 47  1  0
 18 48  1  0
 19 49  1  0
 19 50  1  0
 20 51  1  0
 20 52  1  0
 23 53  1  0
 24 54  1  0
 26 55  1  0
 29 56  1  0
 30 57  1  0
M  END
>  <smiles>  (35) 
O=C(NCC(=O)N1CCC[C@@H]1c1ncc(C2CCCC2)o1)c1ccc2cc(Cl)ccc2n1

>  <score_type>  (35) 
oracle

>  <origin>  (35) 
autodockgpu

>  <m_score__min__energy>  (35) 
-8.9900000000000002

>  <m_primary>  (35) 
energy

>  <rmsd>  (35) 
8.388617499365804

>  <m_score__min__rmsd>  (35) 
8.388617499365804

>  <meeko>  (35) 
{"free_energy": -6.57, "intermolecular_energy": -8.36, "internal_energy": -4.31, "cluster_size": 14, "cluster_id": 8, "rank_in_cluster": 2}

>  <energy>  (35) 
-6.51

>  <cluster_rmsd>  (35) 
1.47

>  <cluster>  (35) 
8

$$$$

     RDKit          3D

 57 61  0  0  0  0  0  0  0  0999 V2000
  139.1300   73.5810  222.1420 O   0  0  0  0  0  0  0  0  0  0  0  0
  139.5160   72.3860  221.9890 C   0  0  0  0  0  0  0  0  0  0  0  0
  139.7640   71.9510  220.6570 N   0  0  0  0  0  0  0  0  0  0  0  0
  139.6100   72.7640  219.4920 C   0  0  0  0  0  0  0  0  0  0  0  0
  140.9010   73.0360  218.8060 C   0  0  0  0  0  0  0  0  0  0  0  0
  141.1610   72.6520  217.6370 O   0  0  0  0  0  0  0  0  0  0  0  0
  141.8920   73.7730  219.5160 N   0  0  0  0  0  0  0  0  0  0  0  0
  142.7710   73.2340  220.5290 C   0  0  0  0  0  0  0  0  0  0  0  0
  143.9380   74.1770  220.6370 C   0  0  0  0  0  0  0  0  0  0  0  0
  143.7120   75.2010  219.5430 C   0  0  0  0  0  0  0  0  0  0  0  0
  142.2270   75.1770  219.3850 C   0  0  2  0  0  0  0  0  0  0  0  0
  141.6520   75.8780  220.5820 C   0  0  0  0  0  0  0  0  0  0  0  0
  140.9690   75.3490  221.6120 N   0  0  0  0  0  0  0  0  0  0  0  0
  140.6750   76.4020  222.4250 C   0  0  0  0  0  0  0  0  0  0  0  0
  141.1910   77.5500  221.8630 C   0  0  0  0  0  0  0  0  0  0  0  0
  141.1110   78.9510  222.4030 C   0  0  0  0  0  0  0  0  0  0  0  0
  141.8720   79.0650  223.7160 C   0  0  0  0  0  0  0  0  0  0  0  0
  141.9540   80.5870  223.8410 C   0  0  0  0  0  0  0  0  0  0  0  0
  142.0780   81.0880  222.4090 C   0  0  0  0  0  0  0  0  0  0  0  0
  141.8500   79.8880  221.5110 C   0  0  0  0  0  0  0  0  0  0  0  0
  141.7720   77.1740  220.7480 O   0  0  0  0  0  0  0  0  0  0  0  0
  139.7020   71.4800  223.1260 C   0  0  0  0  0  0  0  0  0  0  0  0
  139.3110   70.1660  222.9770 C   0  0  0  0  0  0  0  0  0  0  0  0
  139.4550   69.2450  224.0120 C   0  0  0  0  0  0  0  0  0  0  0  0
  140.0080   69.7180  225.1900 C   0  0  0  0  0  0  0  0  0  0  0  0
  140.1850   68.8700  226.2660 C   0  0  0  0  0  0  0  0  0  0  0  0
  140.7300   69.2790  227.4660 C   0  0  0  0  0  0  0  0  0  0  0  0
  140.9190   68.1400  228.7760 Cl  0  0  0  0  0  0  0  0  0  0  0  0
  141.1050   70.6040  227.5620 C   0  0  0  0  0  0  0  0  0  0  0  0
  140.9480   71.4980  226.5140 C   0  0  0  0  0  0  0  0  0  0  0  0
  140.3940   71.0490  225.3160 C   0  0  0  0  0  0  0  0  0  0  0  0
  140.2430   71.9200  224.2940 N   0  0  0  0  0  0  0  0  0  0  0  0
  140.0850   70.9560  220.5220 H   0  0  0  0  0  0  0  0  0  0  0  0
  138.9400   72.2476  218.7888 H   0  0  0  0  0  0  0  0  0  0  0  0
  139.1955   73.7306  219.8144 H   0  0  0  0  0  0  0  0  0  0  0  0
  142.2445   73.1708  221.4928 H   0  0  0  0  0  0  0  0  0  0  0  0
  143.1054   72.2203  220.2632 H   0  0  0  0  0  0  0  0  0  0  0  0
  143.9540   74.6620  221.6242 H   0  0  0  0  0  0  0  0  0  0  0  0
  144.9019   73.6585  220.5272 H   0  0  0  0  0  0  0  0  0  0  0  0
  144.0636   76.1968  219.8508 H   0  0  0  0  0  0  0  0  0  0  0  0
  144.2571   74.9796  218.6136 H   0  0  0  0  0  0  0  0  0  0  0  0
  141.8693   75.6340  218.4505 H   0  0  0  0  0  0  0  0  0  0  0  0
  140.1185   76.3455  223.3722 H   0  0  0  0  0  0  0  0  0  0  0  0
  140.0403   79.1836  222.5000 H   0  0  0  0  0  0  0  0  0  0  0  0
  141.3151   78.6158  224.5515 H   0  0  0  0  0  0  0  0  0  0  0  0
  142.8408   78.5445  223.7379 H   0  0  0  0  0  0  0  0  0  0  0  0
  141.0449   80.9866  224.3141 H   0  0  0  0  0  0  0  0  0  0  0  0
  142.7991   80.9074  224.4679 H   0  0  0  0  0  0  0  0  0  0  0  0
  141.3208   81.8607  222.2100 H   0  0  0  0  0  0  0  0  0  0  0  0
  143.0660   81.5370  222.2292 H   0  0  0  0  0  0  0  0  0  0  0  0
  141.2466   80.1587  220.6320 H   0  0  0  0  0  0  0  0  0  0  0  0
  142.7793   79.4633  221.1037 H   0  0  0  0  0  0  0  0  0  0  0  0
  138.8764   69.8384  222.0211 H   0  0  0  0  0  0  0  0  0  0  0  0
  139.1452   68.1956  223.8993 H   0  0  0  0  0  0  0  0  0  0  0  0
  139.8770   67.8192  226.1614 H   0  0  0  0  0  0  0  0  0  0  0  0
  141.5443   70.9636  228.5042 H   0  0  0  0  0  0  0  0  0  0  0  0
  141.2565   72.5479  226.6263 H   0  0  0  0  0  0  0  0  0  0  0  0
  1  2  2  0
  2  3  1  0
  3  4  1  0
  4  5  1  0
  5  6  2  0
  5  7  1  0
  7  8  1  0
  8  9  1  0
  9 10  1  0
 10 11  1  0
 11 12  1  0
 12 13  2  0
 13 14  1  0
 14 15  2  0
 15 16  1  0
 16 17  1  0
 17 18  1  0
 18 19  1  0
 19 20  1  0
 15 21  1  0
  2 22  1  0
 22 23  2  0
 23 24  1  0
 24 25  2  0
 25 26  1  0
 26 27  2  0
 27 28  1  0
 27 29  1  0
 29 30  2  0
 30 31  1  0
 31 32  2  0
 11  7  1  0
 21 12  1  0
 32 22  1  0
 20 16  1  0
 31 25  1  0
  3 33  1  0
  4 34  1  0
  4 35  1  0
  8 36  1  0
  8 37  1  0
  9 38  1  0
  9 39  1  0
 10 40  1  0
 10 41  1  0
 11 42  1  6
 14 43  1  0
 16 44  1  0
 17 45  1  0
 17 46  1  0
 18 47  1  0
 18 48  1  0
 19 49  1  0
 19 50  1  0
 20 51  1  0
 20 52  1  0
 23 53  1  0
 24 54  1  0
 26 55  1  0
 29 56  1  0
 30 57  1  0
M  END
>  <smiles>  (36) 
O=C(NCC(=O)N1CCC[C@@H]1c1ncc(C2CCCC2)o1)c1ccc2cc(Cl)ccc2n1

>  <score_type>  (36) 
oracle

>  <origin>  (36) 
autodockgpu

>  <m_score__min__energy>  (36) 
-8.9900000000000002

>  <m_primary>  (36) 
energy

>  <rmsd>  (36) 
3.1698989745209083

>  <m_score__min__rmsd>  (36) 
3.1698989745209083

>  <meeko>  (36) 
{"free_energy": -8.66, "intermolecular_energy": -10.45, "internal_energy": -1.9, "cluster_size": 11, "cluster_id": 1, "rank_in_cluster": 8}

>  <energy>  (36) 
-6.5

>  <cluster_rmsd>  (36) 
1.26

>  <cluster>  (36) 
8

$$$$

     RDKit          3D

 57 61  0  0  0  0  0  0  0  0999 V2000
  139.5070   73.6990  222.3470 O   0  0  0  0  0  0  0  0  0  0  0  0
  140.1220   72.5960  222.3000 C   0  0  0  0  0  0  0  0  0  0  0  0
  140.8230   72.2950  221.0990 N   0  0  0  0  0  0  0  0  0  0  0  0
  140.8820   73.1470  219.9540 C   0  0  0  0  0  0  0  0  0  0  0  0
  142.1190   73.9710  219.9130 C   0  0  0  0  0  0  0  0  0  0  0  0
  143.2740   73.4950  220.0510 O   0  0  0  0  0  0  0  0  0  0  0  0
  141.9820   75.3730  219.7040 N   0  0  0  0  0  0  0  0  0  0  0  0
  143.0660   76.3290  219.6890 C   0  0  0  0  0  0  0  0  0  0  0  0
  142.5620   77.5450  218.9630 C   0  0  0  0  0  0  0  0  0  0  0  0
  141.1800   77.1620  218.4740 C   0  0  0  0  0  0  0  0  0  0  0  0
  140.7660   76.1270  219.4690 C   0  0  2  0  0  0  0  0  0  0  0  0
  140.4470   76.8530  220.7440 C   0  0  0  0  0  0  0  0  0  0  0  0
  139.3020   76.8450  221.4470 N   0  0  0  0  0  0  0  0  0  0  0  0
  139.5310   77.6610  222.5140 C   0  0  0  0  0  0  0  0  0  0  0  0
  140.8180   78.1460  222.4300 C   0  0  0  0  0  0  0  0  0  0  0  0
  141.5090   79.0810  223.3830 C   0  0  0  0  0  0  0  0  0  0  0  0
  142.8610   79.5060  222.8320 C   0  0  0  0  0  0  0  0  0  0  0  0
  143.1640   80.6870  223.7570 C   0  0  0  0  0  0  0  0  0  0  0  0
  141.8050   81.3120  224.0420 C   0  0  0  0  0  0  0  0  0  0  0  0
  140.7660   80.3700  223.4670 C   0  0  0  0  0  0  0  0  0  0  0  0
  141.3270   77.6240  221.3380 O   0  0  0  0  0  0  0  0  0  0  0  0
  140.1180   71.6580  223.4270 C   0  0  0  0  0  0  0  0  0  0  0  0
  139.6100   70.3930  223.2150 C   0  0  0  0  0  0  0  0  0  0  0  0
  139.5730   69.4470  224.2360 C   0  0  0  0  0  0  0  0  0  0  0  0
  140.0690   69.8430  225.4670 C   0  0  0  0  0  0  0  0  0  0  0  0
  140.0680   68.9660  226.5340 C   0  0  0  0  0  0  0  0  0  0  0  0
  140.5470   69.2990  227.7840 C   0  0  0  0  0  0  0  0  0  0  0  0
  140.5080   68.1260  229.0780 Cl  0  0  0  0  0  0  0  0  0  0  0  0
  141.0440   70.5760  227.9430 C   0  0  0  0  0  0  0  0  0  0  0  0
  141.0680   71.4970  226.9060 C   0  0  0  0  0  0  0  0  0  0  0  0
  140.5750   71.1250  225.6560 C   0  0  0  0  0  0  0  0  0  0  0  0
  140.5990   72.0220  224.6460 N   0  0  0  0  0  0  0  0  0  0  0  0
  141.3380   71.3750  221.0540 H   0  0  0  0  0  0  0  0  0  0  0  0
  140.8452   72.5228  219.0490 H   0  0  0  0  0  0  0  0  0  0  0  0
  140.0263   73.8361  220.0091 H   0  0  0  0  0  0  0  0  0  0  0  0
  143.3520   76.5935  220.7177 H   0  0  0  0  0  0  0  0  0  0  0  0
  143.9538   75.9116  219.1913 H   0  0  0  0  0  0  0  0  0  0  0  0
  142.5065   78.4070  219.6440 H   0  0  0  0  0  0  0  0  0  0  0  0
  143.2266   77.8395  218.1374 H   0  0  0  0  0  0  0  0  0  0  0  0
  140.4983   78.0252  218.4900 H   0  0  0  0  0  0  0  0  0  0  0  0
  141.1641   76.8045  217.4338 H   0  0  0  0  0  0  0  0  0  0  0  0
  139.9158   75.5093  219.1439 H   0  0  0  0  0  0  0  0  0  0  0  0
  138.8085   77.8938  223.3101 H   0  0  0  0  0  0  0  0  0  0  0  0
  141.5796   78.5476  224.3424 H   0  0  0  0  0  0  0  0  0  0  0  0
  143.6113   78.7075  222.9299 H   0  0  0  0  0  0  0  0  0  0  0  0
  142.8702   79.7437  221.7580 H   0  0  0  0  0  0  0  0  0  0  0  0
  143.6344   80.3395  224.6886 H   0  0  0  0  0  0  0  0  0  0  0  0
  143.8648   81.4029  223.3027 H   0  0  0  0  0  0  0  0  0  0  0  0
  141.6581   81.4227  225.1265 H   0  0  0  0  0  0  0  0  0  0  0  0
  141.7261   82.3124  223.5915 H   0  0  0  0  0  0  0  0  0  0  0  0
  139.8953   80.2840  224.1337 H   0  0  0  0  0  0  0  0  0  0  0  0
  140.3582   80.7043  222.5016 H   0  0  0  0  0  0  0  0  0  0  0  0
  139.2264   70.1263  222.2191 H   0  0  0  0  0  0  0  0  0  0  0  0
  139.1703   68.4364  224.0732 H   0  0  0  0  0  0  0  0  0  0  0  0
  139.6661   67.9538  226.3796 H   0  0  0  0  0  0  0  0  0  0  0  0
  141.4351   70.8744  228.9268 H   0  0  0  0  0  0  0  0  0  0  0  0
  141.4707   72.5078  227.0678 H   0  0  0  0  0  0  0  0  0  0  0  0
  1  2  2  0
  2  3  1  0
  3  4  1  0
  4  5  1  0
  5  6  2  0
  5  7  1  0
  7  8  1  0
  8  9  1  0
  9 10  1  0
 10 11  1  0
 11 12  1  0
 12 13  2  0
 13 14  1  0
 14 15  2  0
 15 16  1  0
 16 17  1  0
 17 18  1  0
 18 19  1  0
 19 20  1  0
 15 21  1  0
  2 22  1  0
 22 23  2  0
 23 24  1  0
 24 25  2  0
 25 26  1  0
 26 27  2  0
 27 28  1  0
 27 29  1  0
 29 30  2  0
 30 31  1  0
 31 32  2  0
 11  7  1  0
 21 12  1  0
 32 22  1  0
 20 16  1  0
 31 25  1  0
  3 33  1  0
  4 34  1  0
  4 35  1  0
  8 36  1  0
  8 37  1  0
  9 38  1  0
  9 39  1  0
 10 40  1  0
 10 41  1  0
 11 42  1  6
 14 43  1  0
 16 44  1  0
 17 45  1  0
 17 46  1  0
 18 47  1  0
 18 48  1  0
 19 49  1  0
 19 50  1  0
 20 51  1  0
 20 52  1  0
 23 53  1  0
 24 54  1  0
 26 55  1  0
 29 56  1  0
 30 57  1  0
M  END
>  <smiles>  (37) 
O=C(NCC(=O)N1CCC[C@@H]1c1ncc(C2CCCC2)o1)c1ccc2cc(Cl)ccc2n1

>  <score_type>  (37) 
oracle

>  <origin>  (37) 
autodockgpu

>  <m_score__min__energy>  (37) 
-8.9900000000000002

>  <m_primary>  (37) 
energy

>  <rmsd>  (37) 
2.94302945392301

>  <m_score__min__rmsd>  (37) 
2.94302945392301

>  <meeko>  (37) 
{"free_energy": -8.81, "intermolecular_energy": -10.6, "internal_energy": -1.66, "cluster_size": 11, "cluster_id": 1, "rank_in_cluster": 5}

>  <energy>  (37) 
-6.49

>  <cluster_rmsd>  (37) 
1.39

>  <cluster>  (37) 
8

$$$$

     RDKit          3D

 57 61  0  0  0  0  0  0  0  0999 V2000
  141.6790   73.1510  220.8440 O   0  0  0  0  0  0  0  0  0  0  0  0
  140.9110   73.9530  221.4480 C   0  0  0  0  0  0  0  0  0  0  0  0
  139.8480   73.3870  222.2060 N   0  0  0  0  0  0  0  0  0  0  0  0
  139.5920   71.9860  222.3310 C   0  0  0  0  0  0  0  0  0  0  0  0
  138.1690   71.6370  222.0750 C   0  0  0  0  0  0  0  0  0  0  0  0
  137.4180   72.2990  221.3140 O   0  0  0  0  0  0  0  0  0  0  0  0
  137.6340   70.4900  222.7300 N   0  0  0  0  0  0  0  0  0  0  0  0
  136.4470   70.4730  223.5530 C   0  0  0  0  0  0  0  0  0  0  0  0
  135.9830   69.0440  223.6140 C   0  0  0  0  0  0  0  0  0  0  0  0
  136.9120   68.2930  222.6810 C   0  0  0  0  0  0  0  0  0  0  0  0
  138.1460   69.1340  222.7160 C   0  0  2  0  0  0  0  0  0  0  0  0
  138.7960   68.8970  224.0480 C   0  0  0  0  0  0  0  0  0  0  0  0
  138.8280   67.7660  224.7730 N   0  0  0  0  0  0  0  0  0  0  0  0
  139.5390   68.0780  225.8920 C   0  0  0  0  0  0  0  0  0  0  0  0
  139.9220   69.4000  225.8170 C   0  0  0  0  0  0  0  0  0  0  0  0
  140.7200   70.1810  226.8230 C   0  0  0  0  0  0  0  0  0  0  0  0
  141.1090   71.5400  226.2610 C   0  0  0  0  0  0  0  0  0  0  0  0
  141.5500   72.2410  227.5480 C   0  0  0  0  0  0  0  0  0  0  0  0
  140.6390   71.6760  228.6280 C   0  0  0  0  0  0  0  0  0  0  0  0
  139.8670   70.5380  227.9910 C   0  0  0  0  0  0  0  0  0  0  0  0
  139.4450   69.8470  224.6790 O   0  0  0  0  0  0  0  0  0  0  0  0
  141.0970   75.4050  221.3780 C   0  0  0  0  0  0  0  0  0  0  0  0
  141.8630   75.9110  220.3480 C   0  0  0  0  0  0  0  0  0  0  0  0
  142.0840   77.2800  220.2150 C   0  0  0  0  0  0  0  0  0  0  0  0
  141.4990   78.0990  221.1650 C   0  0  0  0  0  0  0  0  0  0  0  0
  141.6690   79.4680  221.1060 C   0  0  0  0  0  0  0  0  0  0  0  0
  141.1130   80.3370  222.0220 C   0  0  0  0  0  0  0  0  0  0  0  0
  141.3800   82.0560  221.8720 Cl  0  0  0  0  0  0  0  0  0  0  0  0
  140.3560   79.7790  223.0320 C   0  0  0  0  0  0  0  0  0  0  0  0
  140.1530   78.4120  223.1390 C   0  0  0  0  0  0  0  0  0  0  0  0
  140.7310   77.5640  222.1950 C   0  0  0  0  0  0  0  0  0  0  0  0
  140.5320   76.2310  222.3000 N   0  0  0  0  0  0  0  0  0  0  0  0
  139.2030   74.0510  222.7120 H   0  0  0  0  0  0  0  0  0  0  0  0
  140.2219   71.4473  221.6078 H   0  0  0  0  0  0  0  0  0  0  0  0
  139.8235   71.6973  223.3669 H   0  0  0  0  0  0  0  0  0  0  0  0
  136.6813   70.8388  224.5636 H   0  0  0  0  0  0  0  0  0  0  0  0
  135.6661   71.1247  223.1341 H   0  0  0  0  0  0  0  0  0  0  0  0
  136.0653   68.6537  224.6391 H   0  0  0  0  0  0  0  0  0  0  0  0
  134.9278   68.9381  223.3219 H   0  0  0  0  0  0  0  0  0  0  0  0
  137.1120   67.2766  223.0510 H   0  0  0  0  0  0  0  0  0  0  0  0
  136.5024   68.1536  221.6697 H   0  0  0  0  0  0  0  0  0  0  0  0
  138.8483   68.9321  221.8938 H   0  0  0  0  0  0  0  0  0  0  0  0
  139.7693   67.3894  226.7183 H   0  0  0  0  0  0  0  0  0  0  0  0
  141.5859   69.5545  227.0832 H   0  0  0  0  0  0  0  0  0  0  0  0
  141.9323   71.4617  225.5357 H   0  0  0  0  0  0  0  0  0  0  0  0
  140.3148   72.0551  225.7006 H   0  0  0  0  0  0  0  0  0  0  0  0
  142.6030   72.0148  227.7715 H   0  0  0  0  0  0  0  0  0  0  0  0
  141.4755   73.3358  227.4718 H   0  0  0  0  0  0  0  0  0  0  0  0
  141.2373   71.3030  229.4724 H   0  0  0  0  0  0  0  0  0  0  0  0
  139.9589   72.4479  229.0173 H   0  0  0  0  0  0  0  0  0  0  0  0
  139.7667   69.6894  228.6837 H   0  0  0  0  0  0  0  0  0  0  0  0
  138.8372   70.8084  227.7145 H   0  0  0  0  0  0  0  0  0  0  0  0
  142.3081   75.2196  219.6173 H   0  0  0  0  0  0  0  0  0  0  0  0
  142.6931   77.6896  219.3957 H   0  0  0  0  0  0  0  0  0  0  0  0
  142.2767   79.8857  220.2898 H   0  0  0  0  0  0  0  0  0  0  0  0
  139.8971   80.4431  223.7792 H   0  0  0  0  0  0  0  0  0  0  0  0
  139.5439   78.0015  223.9579 H   0  0  0  0  0  0  0  0  0  0  0  0
  1  2  2  0
  2  3  1  0
  3  4  1  0
  4  5  1  0
  5  6  2  0
  5  7  1  0
  7  8  1  0
  8  9  1  0
  9 10  1  0
 10 11  1  0
 11 12  1  0
 12 13  2  0
 13 14  1  0
 14 15  2  0
 15 16  1  0
 16 17  1  0
 17 18  1  0
 18 19  1  0
 19 20  1  0
 15 21  1  0
  2 22  1  0
 22 23  2  0
 23 24  1  0
 24 25  2  0
 25 26  1  0
 26 27  2  0
 27 28  1  0
 27 29  1  0
 29 30  2  0
 30 31  1  0
 31 32  2  0
 11  7  1  0
 21 12  1  0
 32 22  1  0
 20 16  1  0
 31 25  1  0
  3 33  1  0
  4 34  1  0
  4 35  1  0
  8 36  1  0
  8 37  1  0
  9 38  1  0
  9 39  1  0
 10 40  1  0
 10 41  1  0
 11 42  1  6
 14 43  1  0
 16 44  1  0
 17 45  1  0
 17 46  1  0
 18 47  1  0
 18 48  1  0
 19 49  1  0
 19 50  1  0
 20 51  1  0
 20 52  1  0
 23 53  1  0
 24 54  1  0
 26 55  1  0
 29 56  1  0
 30 57  1  0
M  END
>  <smiles>  (38) 
O=C(NCC(=O)N1CCC[C@@H]1c1ncc(C2CCCC2)o1)c1ccc2cc(Cl)ccc2n1

>  <score_type>  (38) 
oracle

>  <origin>  (38) 
autodockgpu

>  <m_score__min__energy>  (38) 
-8.9900000000000002

>  <m_primary>  (38) 
energy

>  <rmsd>  (38) 
9.629179675257676

>  <m_score__min__rmsd>  (38) 
9.629179675257676

>  <meeko>  (38) 
{"free_energy": -8.85, "intermolecular_energy": -10.64, "internal_energy": -2.06, "cluster_size": 5, "cluster_id": 2, "rank_in_cluster": 3}

>  <energy>  (38) 
-6.45

>  <cluster_rmsd>  (38) 
1.42

>  <cluster>  (38) 
8

$$$$

     RDKit          3D

 57 61  0  0  0  0  0  0  0  0999 V2000
  139.4460   73.8220  222.3460 O   0  0  0  0  0  0  0  0  0  0  0  0
  139.6220   72.5840  222.1600 C   0  0  0  0  0  0  0  0  0  0  0  0
  139.6480   72.1270  220.8130 N   0  0  0  0  0  0  0  0  0  0  0  0
  139.4930   72.9650  219.6650 C   0  0  0  0  0  0  0  0  0  0  0  0
  140.7700   73.1840  218.9360 C   0  0  0  0  0  0  0  0  0  0  0  0
  140.9690   72.8030  217.7540 O   0  0  0  0  0  0  0  0  0  0  0  0
  141.8200   73.8630  219.6170 N   0  0  0  0  0  0  0  0  0  0  0  0
  142.6330   73.3050  220.6730 C   0  0  0  0  0  0  0  0  0  0  0  0
  143.8840   74.1360  220.7440 C   0  0  0  0  0  0  0  0  0  0  0  0
  143.7690   75.1110  219.5890 C   0  0  0  0  0  0  0  0  0  0  0  0
  142.2900   75.2190  219.4100 C   0  0  2  0  0  0  0  0  0  0  0  0
  141.7730   76.0410  220.5550 C   0  0  0  0  0  0  0  0  0  0  0  0
  141.0500   75.6380  221.6140 N   0  0  0  0  0  0  0  0  0  0  0  0
  140.8410   76.7630  222.3540 C   0  0  0  0  0  0  0  0  0  0  0  0
  141.4480   77.8260  221.7210 C   0  0  0  0  0  0  0  0  0  0  0  0
  141.4810   79.2610  222.1670 C   0  0  0  0  0  0  0  0  0  0  0  0
  140.4830   79.4990  223.2890 C   0  0  0  0  0  0  0  0  0  0  0  0
  140.9680   80.8600  223.7910 C   0  0  0  0  0  0  0  0  0  0  0  0
  142.4780   80.8260  223.6020 C   0  0  0  0  0  0  0  0  0  0  0  0
  142.7870   79.5670  222.8170 C   0  0  0  0  0  0  0  0  0  0  0  0
  141.9970   77.3310  220.6360 O   0  0  0  0  0  0  0  0  0  0  0  0
  139.7910   71.6490  223.2770 C   0  0  0  0  0  0  0  0  0  0  0  0
  139.4100   70.3370  223.0870 C   0  0  0  0  0  0  0  0  0  0  0  0
  139.5390   69.3910  224.1010 C   0  0  0  0  0  0  0  0  0  0  0  0
  140.0670   69.8360  225.3000 C   0  0  0  0  0  0  0  0  0  0  0  0
  140.2290   68.9620  226.3570 C   0  0  0  0  0  0  0  0  0  0  0  0
  140.7490   69.3430  227.5770 C   0  0  0  0  0  0  0  0  0  0  0  0
  140.9190   68.1700  228.8610 Cl  0  0  0  0  0  0  0  0  0  0  0  0
  141.1150   70.6660  227.7150 C   0  0  0  0  0  0  0  0  0  0  0  0
  140.9740   71.5860  226.6870 C   0  0  0  0  0  0  0  0  0  0  0  0
  140.4440   71.1650  225.4680 C   0  0  0  0  0  0  0  0  0  0  0  0
  140.3080   72.0610  224.4660 N   0  0  0  0  0  0  0  0  0  0  0  0
  139.7940   71.0950  220.6510 H   0  0  0  0  0  0  0  0  0  0  0  0
  138.7734   72.4931  218.9798 H   0  0  0  0  0  0  0  0  0  0  0  0
  139.1390   73.9457  220.0157 H   0  0  0  0  0  0  0  0  0  0  0  0
  142.0934   73.3505  221.6305 H   0  0  0  0  0  0  0  0  0  0  0  0
  142.8710   72.2500  220.4720 H   0  0  0  0  0  0  0  0  0  0  0  0
  143.9373   74.6746  221.7016 H   0  0  0  0  0  0  0  0  0  0  0  0
  144.7941   73.5216  220.6790 H   0  0  0  0  0  0  0  0  0  0  0  0
  144.2116   76.0851  219.8444 H   0  0  0  0  0  0  0  0  0  0  0  0
  144.2998   74.7847  218.6825 H   0  0  0  0  0  0  0  0  0  0  0  0
  141.9873   75.6519  218.4451 H   0  0  0  0  0  0  0  0  0  0  0  0
  140.2809   76.8141  223.2994 H   0  0  0  0  0  0  0  0  0  0  0  0
  141.2790   79.8664  221.2711 H   0  0  0  0  0  0  0  0  0  0  0  0
  139.4502   79.5467  222.9135 H   0  0  0  0  0  0  0  0  0  0  0  0
  140.4478   78.7087  224.0534 H   0  0  0  0  0  0  0  0  0  0  0  0
  140.5213   81.6731  223.2000 H   0  0  0  0  0  0  0  0  0  0  0  0
  140.6836   81.0429  224.8377 H   0  0  0  0  0  0  0  0  0  0  0  0
  142.8108   81.7131  223.0432 H   0  0  0  0  0  0  0  0  0  0  0  0
  142.9995   80.8280  224.5705 H   0  0  0  0  0  0  0  0  0  0  0  0
  143.5709   79.7489  222.0671 H   0  0  0  0  0  0  0  0  0  0  0  0
  143.1689   78.7451  223.4404 H   0  0  0  0  0  0  0  0  0  0  0  0
  138.9958   70.0316  222.1148 H   0  0  0  0  0  0  0  0  0  0  0  0
  139.2365   68.3434  223.9560 H   0  0  0  0  0  0  0  0  0  0  0  0
  139.9293   67.9125  226.2198 H   0  0  0  0  0  0  0  0  0  0  0  0
  141.5336   71.0031  228.6747 H   0  0  0  0  0  0  0  0  0  0  0  0
  141.2762   72.6338  226.8313 H   0  0  0  0  0  0  0  0  0  0  0  0
  1  2  2  0
  2  3  1  0
  3  4  1  0
  4  5  1  0
  5  6  2  0
  5  7  1  0
  7  8  1  0
  8  9  1  0
  9 10  1  0
 10 11  1  0
 11 12  1  0
 12 13  2  0
 13 14  1  0
 14 15  2  0
 15 16  1  0
 16 17  1  0
 17 18  1  0
 18 19  1  0
 19 20  1  0
 15 21  1  0
  2 22  1  0
 22 23  2  0
 23 24  1  0
 24 25  2  0
 25 26  1  0
 26 27  2  0
 27 28  1  0
 27 29  1  0
 29 30  2  0
 30 31  1  0
 31 32  2  0
 11  7  1  0
 21 12  1  0
 32 22  1  0
 20 16  1  0
 31 25  1  0
  3 33  1  0
  4 34  1  0
  4 35  1  0
  8 36  1  0
  8 37  1  0
  9 38  1  0
  9 39  1  0
 10 40  1  0
 10 41  1  0
 11 42  1  6
 14 43  1  0
 16 44  1  0
 17 45  1  0
 17 46  1  0
 18 47  1  0
 18 48  1  0
 19 49  1  0
 19 50  1  0
 20 51  1  0
 20 52  1  0
 23 53  1  0
 24 54  1  0
 26 55  1  0
 29 56  1  0
 30 57  1  0
M  END
>  <smiles>  (39) 
O=C(NCC(=O)N1CCC[C@@H]1c1ncc(C2CCCC2)o1)c1ccc2cc(Cl)ccc2n1

>  <score_type>  (39) 
oracle

>  <origin>  (39) 
autodockgpu

>  <m_score__min__energy>  (39) 
-8.9900000000000002

>  <m_primary>  (39) 
energy

>  <rmsd>  (39) 
3.0734566206379137

>  <m_score__min__rmsd>  (39) 
3.0734566206379137

>  <meeko>  (39) 
{"free_energy": -8.9, "intermolecular_energy": -10.69, "internal_energy": -1.81, "cluster_size": 11, "cluster_id": 1, "rank_in_cluster": 4}

>  <energy>  (39) 
-6.42

>  <cluster_rmsd>  (39) 
1.12

>  <cluster>  (39) 
8

$$$$

     RDKit          3D

 57 61  0  0  0  0  0  0  0  0999 V2000
  142.1520   77.6400  217.9010 O   0  0  0  0  0  0  0  0  0  0  0  0
  142.0260   77.9360  219.1240 C   0  0  0  0  0  0  0  0  0  0  0  0
  142.7270   77.1270  220.0620 N   0  0  0  0  0  0  0  0  0  0  0  0
  143.5570   76.0150  219.7200 C   0  0  0  0  0  0  0  0  0  0  0  0
  142.7820   74.7650  219.4970 C   0  0  0  0  0  0  0  0  0  0  0  0
  143.2350   73.7680  218.8810 O   0  0  0  0  0  0  0  0  0  0  0  0
  141.4560   74.7020  220.0130 N   0  0  0  0  0  0  0  0  0  0  0  0
  140.2460   74.8640  219.2400 C   0  0  0  0  0  0  0  0  0  0  0  0
  139.1340   74.2420  220.0370 C   0  0  0  0  0  0  0  0  0  0  0  0
  139.8170   73.6220  221.2390 C   0  0  0  0  0  0  0  0  0  0  0  0
  141.0400   74.4680  221.3820 C   0  0  2  0  0  0  0  0  0  0  0  0
  140.5910   75.7890  221.9360 C   0  0  0  0  0  0  0  0  0  0  0  0
  139.3500   76.3030  221.9700 N   0  0  0  0  0  0  0  0  0  0  0  0
  139.4820   77.5190  222.5720 C   0  0  0  0  0  0  0  0  0  0  0  0
  140.8090   77.7120  222.8890 C   0  0  0  0  0  0  0  0  0  0  0  0
  141.4260   78.9060  223.5620 C   0  0  0  0  0  0  0  0  0  0  0  0
  142.6370   79.3950  222.7830 C   0  0  0  0  0  0  0  0  0  0  0  0
  142.8300   80.7680  223.4300 C   0  0  0  0  0  0  0  0  0  0  0  0
  141.4210   81.2430  223.7560 C   0  0  0  0  0  0  0  0  0  0  0  0
  140.4980   80.0700  223.4940 C   0  0  0  0  0  0  0  0  0  0  0  0
  141.4360   76.6330  222.4810 O   0  0  0  0  0  0  0  0  0  0  0  0
  141.1960   79.0590  219.5680 C   0  0  0  0  0  0  0  0  0  0  0  0
  139.8310   78.8690  219.6350 C   0  0  0  0  0  0  0  0  0  0  0  0
  138.9770   79.8880  220.0470 C   0  0  0  0  0  0  0  0  0  0  0  0
  139.5680   81.0940  220.3840 C   0  0  0  0  0  0  0  0  0  0  0  0
  138.7930   82.1570  220.8040 C   0  0  0  0  0  0  0  0  0  0  0  0
  139.3200   83.3830  221.1530 C   0  0  0  0  0  0  0  0  0  0  0  0
  138.2650   84.6750  221.6730 Cl  0  0  0  0  0  0  0  0  0  0  0  0
  140.6910   83.5210  221.0690 C   0  0  0  0  0  0  0  0  0  0  0  0
  141.5160   82.4870  220.6540 C   0  0  0  0  0  0  0  0  0  0  0  0
  140.9470   81.2610  220.3090 C   0  0  0  0  0  0  0  0  0  0  0  0
  141.7520   80.2540  219.9050 N   0  0  0  0  0  0  0  0  0  0  0  0
  142.6250   77.3680  221.0830 H   0  0  0  0  0  0  0  0  0  0  0  0
  144.1068   76.2569  218.7985 H   0  0  0  0  0  0  0  0  0  0  0  0
  144.2373   75.8367  220.5658 H   0  0  0  0  0  0  0  0  0  0  0  0
  140.0421   75.9323  219.0755 H   0  0  0  0  0  0  0  0  0  0  0  0
  140.3406   74.3848  218.2544 H   0  0  0  0  0  0  0  0  0  0  0  0
  138.4104   75.0072  220.3547 H   0  0  0  0  0  0  0  0  0  0  0  0
  138.5697   73.5004  219.4526 H   0  0  0  0  0  0  0  0  0  0  0  0
  139.1818   73.6855  222.1348 H   0  0  0  0  0  0  0  0  0  0  0  0
  140.0344   72.5505  221.1179 H   0  0  0  0  0  0  0  0  0  0  0  0
  141.8219   74.0209  222.0135 H   0  0  0  0  0  0  0  0  0  0  0  0
  138.6651   78.2281  222.7715 H   0  0  0  0  0  0  0  0  0  0  0  0
  141.6677   78.5915  224.5880 H   0  0  0  0  0  0  0  0  0  0  0  0
  143.5110   78.7448  222.9360 H   0  0  0  0  0  0  0  0  0  0  0  0
  142.5106   79.4105  221.6904 H   0  0  0  0  0  0  0  0  0  0  0  0
  143.4327   80.6838  224.3463 H   0  0  0  0  0  0  0  0  0  0  0  0
  143.3629   81.4680  222.7697 H   0  0  0  0  0  0  0  0  0  0  0  0
  141.3577   81.5477  224.8111 H   0  0  0  0  0  0  0  0  0  0  0  0
  141.1429   82.1120  223.1416 H   0  0  0  0  0  0  0  0  0  0  0  0
  139.7159   80.0001  224.2644 H   0  0  0  0  0  0  0  0  0  0  0  0
  139.9568   80.1434  222.5392 H   0  0  0  0  0  0  0  0  0  0  0  0
  139.4089   77.8920  219.3570 H   0  0  0  0  0  0  0  0  0  0  0  0
  137.8880   79.7426  220.1021 H   0  0  0  0  0  0  0  0  0  0  0  0
  137.7032   82.0195  220.8631 H   0  0  0  0  0  0  0  0  0  0  0  0
  141.1449   84.4854  221.3409 H   0  0  0  0  0  0  0  0  0  0  0  0
  142.6050   82.6315  220.5975 H   0  0  0  0  0  0  0  0  0  0  0  0
  1  2  2  0
  2  3  1  0
  3  4  1  0
  4  5  1  0
  5  6  2  0
  5  7  1  0
  7  8  1  0
  8  9  1  0
  9 10  1  0
 10 11  1  0
 11 12  1  0
 12 13  2  0
 13 14  1  0
 14 15  2  0
 15 16  1  0
 16 17  1  0
 17 18  1  0
 18 19  1  0
 19 20  1  0
 15 21  1  0
  2 22  1  0
 22 23  2  0
 23 24  1  0
 24 25  2  0
 25 26  1  0
 26 27  2  0
 27 28  1  0
 27 29  1  0
 29 30  2  0
 30 31  1  0
 31 32  2  0
 11  7  1  0
 21 12  1  0
 32 22  1  0
 20 16  1  0
 31 25  1  0
  3 33  1  0
  4 34  1  0
  4 35  1  0
  8 36  1  0
  8 37  1  0
  9 38  1  0
  9 39  1  0
 10 40  1  0
 10 41  1  0
 11 42  1  1
 14 43  1  0
 16 44  1  0
 17 45  1  0
 17 46  1  0
 18 47  1  0
 18 48  1  0
 19 49  1  0
 19 50  1  0
 20 51  1  0
 20 52  1  0
 23 53  1  0
 24 54  1  0
 26 55  1  0
 29 56  1  0
 30 57  1  0
M  END
>  <smiles>  (40) 
O=C(NCC(=O)N1CCC[C@@H]1c1ncc(C2CCCC2)o1)c1ccc2cc(Cl)ccc2n1

>  <score_type>  (40) 
oracle

>  <origin>  (40) 
autodockgpu

>  <m_score__min__energy>  (40) 
-8.9900000000000002

>  <m_primary>  (40) 
energy

>  <rmsd>  (40) 
8.174383836372701

>  <m_score__min__rmsd>  (40) 
8.174383836372701

>  <meeko>  (40) 
{"free_energy": -5.91, "intermolecular_energy": -7.7, "internal_energy": -4.54, "cluster_size": 14, "cluster_id": 8, "rank_in_cluster": 14}

>  <energy>  (40) 
-6.39

>  <cluster_rmsd>  (40) 
0.61

>  <cluster>  (40) 
8

$$$$

     RDKit          3D

 57 61  0  0  0  0  0  0  0  0999 V2000
  138.7360   71.5740  220.7130 O   0  0  0  0  0  0  0  0  0  0  0  0
  138.9530   72.0790  221.8520 C   0  0  0  0  0  0  0  0  0  0  0  0
  138.8700   73.4950  221.9600 N   0  0  0  0  0  0  0  0  0  0  0  0
  138.5600   74.3790  220.8800 C   0  0  0  0  0  0  0  0  0  0  0  0
  139.4610   74.1950  219.7110 C   0  0  0  0  0  0  0  0  0  0  0  0
  139.0830   73.7130  218.6130 O   0  0  0  0  0  0  0  0  0  0  0  0
  140.8220   74.5910  219.8480 N   0  0  0  0  0  0  0  0  0  0  0  0
  141.6150   74.4610  221.0490 C   0  0  0  0  0  0  0  0  0  0  0  0
  143.0570   74.5170  220.6240 C   0  0  0  0  0  0  0  0  0  0  0  0
  143.0150   74.5660  219.1100 C   0  0  0  0  0  0  0  0  0  0  0  0
  141.6830   75.1910  218.8480 C   0  0  2  0  0  0  0  0  0  0  0  0
  141.8110   76.6450  219.1960 C   0  0  0  0  0  0  0  0  0  0  0  0
  142.3310   77.6390  218.4560 N   0  0  0  0  0  0  0  0  0  0  0  0
  142.2070   78.7590  219.2220 C   0  0  0  0  0  0  0  0  0  0  0  0
  141.6110   78.4130  220.4150 C   0  0  0  0  0  0  0  0  0  0  0  0
  141.2750   79.3170  221.5680 C   0  0  0  0  0  0  0  0  0  0  0  0
  141.5160   78.6100  222.8930 C   0  0  0  0  0  0  0  0  0  0  0  0
  141.4710   79.8080  223.8430 C   0  0  0  0  0  0  0  0  0  0  0  0
  142.0680   80.9580  223.0440 C   0  0  0  0  0  0  0  0  0  0  0  0
  142.2330   80.4570  221.6230 C   0  0  0  0  0  0  0  0  0  0  0  0
  141.3920   77.1200  220.3450 O   0  0  0  0  0  0  0  0  0  0  0  0
  139.2780   71.2510  223.0170 C   0  0  0  0  0  0  0  0  0  0  0  0
  138.9460   69.9130  222.9740 C   0  0  0  0  0  0  0  0  0  0  0  0
  139.2230   69.0630  224.0420 C   0  0  0  0  0  0  0  0  0  0  0  0
  139.8440   69.6310  225.1420 C   0  0  0  0  0  0  0  0  0  0  0  0
  140.1530   68.8590  226.2440 C   0  0  0  0  0  0  0  0  0  0  0  0
  140.7710   69.3640  227.3690 C   0  0  0  0  0  0  0  0  0  0  0  0
  141.1250   68.3140  228.7190 Cl  0  0  0  0  0  0  0  0  0  0  0  0
  141.0810   70.7080  227.3610 C   0  0  0  0  0  0  0  0  0  0  0  0
  140.7930   71.5300  226.2820 C   0  0  0  0  0  0  0  0  0  0  0  0
  140.1680   70.9840  225.1610 C   0  0  0  0  0  0  0  0  0  0  0  0
  139.8880   71.7850  224.1100 N   0  0  0  0  0  0  0  0  0  0  0  0
  139.0500   73.9230  222.9070 H   0  0  0  0  0  0  0  0  0  0  0  0
  137.5245   74.1928  220.5590 H   0  0  0  0  0  0  0  0  0  0  0  0
  138.6941   75.4083  221.2441 H   0  0  0  0  0  0  0  0  0  0  0  0
  141.3918   75.2859  221.7417 H   0  0  0  0  0  0  0  0  0  0  0  0
  141.3926   73.5178  221.5694 H   0  0  0  0  0  0  0  0  0  0  0  0
  143.5447   75.4168  221.0271 H   0  0  0  0  0  0  0  0  0  0  0  0
  143.6320   73.6557  220.9949 H   0  0  0  0  0  0  0  0  0  0  0  0
  143.8311   75.1848  218.7087 H   0  0  0  0  0  0  0  0  0  0  0  0
  143.1411   73.5824  218.6340 H   0  0  0  0  0  0  0  0  0  0  0  0
  141.3232   75.0623  217.8165 H   0  0  0  0  0  0  0  0  0  0  0  0
  142.5291   79.7710  218.9356 H   0  0  0  0  0  0  0  0  0  0  0  0
  140.2287   79.6245  221.4241 H   0  0  0  0  0  0  0  0  0  0  0  0
  140.7235   77.8809  223.1171 H   0  0  0  0  0  0  0  0  0  0  0  0
  142.4399   78.0148  222.9401 H   0  0  0  0  0  0  0  0  0  0  0  0
  140.4343   80.0343  224.1330 H   0  0  0  0  0  0  0  0  0  0  0  0
  142.0219   79.6198  224.7763 H   0  0  0  0  0  0  0  0  0  0  0  0
  141.3923   81.8257  223.0646 H   0  0  0  0  0  0  0  0  0  0  0  0
  143.0320   81.2771  223.4670 H   0  0  0  0  0  0  0  0  0  0  0  0
  141.9659   81.2359  220.8936 H   0  0  0  0  0  0  0  0  0  0  0  0
  143.2666   80.1727  221.3762 H   0  0  0  0  0  0  0  0  0  0  0  0
  138.4523   69.5089  222.0779 H   0  0  0  0  0  0  0  0  0  0  0  0
  138.9618   67.9948  224.0133 H   0  0  0  0  0  0  0  0  0  0  0  0
  139.8940   67.7901  226.2239 H   0  0  0  0  0  0  0  0  0  0  0  0
  141.5745   71.1435  228.2424 H   0  0  0  0  0  0  0  0  0  0  0  0
  141.0539   72.5982  226.3098 H   0  0  0  0  0  0  0  0  0  0  0  0
  1  2  2  0
  2  3  1  0
  3  4  1  0
  4  5  1  0
  5  6  2  0
  5  7  1  0
  7  8  1  0
  8  9  1  0
  9 10  1  0
 10 11  1  0
 11 12  1  0
 12 13  2  0
 13 14  1  0
 14 15  2  0
 15 16  1  0
 16 17  1  0
 17 18  1  0
 18 19  1  0
 19 20  1  0
 15 21  1  0
  2 22  1  0
 22 23  2  0
 23 24  1  0
 24 25  2  0
 25 26  1  0
 26 27  2  0
 27 28  1  0
 27 29  1  0
 29 30  2  0
 30 31  1  0
 31 32  2  0
 11  7  1  0
 21 12  1  0
 32 22  1  0
 20 16  1  0
 31 25  1  0
  3 33  1  0
  4 34  1  0
  4 35  1  0
  8 36  1  0
  8 37  1  0
  9 38  1  0
  9 39  1  0
 10 40  1  0
 10 41  1  0
 11 42  1  6
 14 43  1  0
 16 44  1  0
 17 45  1  0
 17 46  1  0
 18 47  1  0
 18 48  1  0
 19 49  1  0
 19 50  1  0
 20 51  1  0
 20 52  1  0
 23 53  1  0
 24 54  1  0
 26 55  1  0
 29 56  1  0
 30 57  1  0
M  END
>  <smiles>  (41) 
O=C(NCC(=O)N1CCC[C@@H]1c1ncc(C2CCCC2)o1)c1ccc2cc(Cl)ccc2n1

>  <score_type>  (41) 
oracle

>  <origin>  (41) 
autodockgpu

>  <m_score__min__energy>  (41) 
-8.9900000000000002

>  <m_primary>  (41) 
energy

>  <rmsd>  (41) 
2.8642003656030592

>  <m_score__min__rmsd>  (41) 
2.8642003656030592

>  <meeko>  (41) 
{"free_energy": -8.28, "intermolecular_energy": -10.07, "internal_energy": -2.0, "cluster_size": 11, "cluster_id": 1, "rank_in_cluster": 11}

>  <energy>  (41) 
-6.35

>  <cluster_rmsd>  (41) 
0.7

>  <cluster>  (41) 
8

$$$$

     RDKit          3D

 57 61  0  0  0  0  0  0  0  0999 V2000
  139.2830   71.1090  221.1330 O   0  0  0  0  0  0  0  0  0  0  0  0
  138.9560   71.5980  222.2520 C   0  0  0  0  0  0  0  0  0  0  0  0
  138.0340   72.6820  222.2420 N   0  0  0  0  0  0  0  0  0  0  0  0
  137.4570   73.2500  221.0640 C   0  0  0  0  0  0  0  0  0  0  0  0
  136.3300   74.1740  221.3640 C   0  0  0  0  0  0  0  0  0  0  0  0
  135.1260   73.8120  221.3930 O   0  0  0  0  0  0  0  0  0  0  0  0
  136.6390   75.5380  221.6340 N   0  0  0  0  0  0  0  0  0  0  0  0
  136.5130   76.6270  220.6930 C   0  0  0  0  0  0  0  0  0  0  0  0
  136.4510   77.8940  221.5010 C   0  0  0  0  0  0  0  0  0  0  0  0
  136.4300   77.4330  222.9450 C   0  0  0  0  0  0  0  0  0  0  0  0
  137.1300   76.1150  222.8690 C   0  0  2  0  0  0  0  0  0  0  0  0
  138.5880   76.4100  222.6650 C   0  0  0  0  0  0  0  0  0  0  0  0
  139.5880   75.5480  222.4130 N   0  0  0  0  0  0  0  0  0  0  0  0
  140.7080   76.3180  222.3120 C   0  0  0  0  0  0  0  0  0  0  0  0
  140.3560   77.6360  222.5070 C   0  0  0  0  0  0  0  0  0  0  0  0
  141.2580   78.8380  222.4880 C   0  0  0  0  0  0  0  0  0  0  0  0
  140.4460   80.1200  222.5830 C   0  0  0  0  0  0  0  0  0  0  0  0
  141.5610   81.1140  222.9160 C   0  0  0  0  0  0  0  0  0  0  0  0
  142.5410   80.3230  223.7710 C   0  0  0  0  0  0  0  0  0  0  0  0
  142.0860   78.8780  223.7260 C   0  0  0  0  0  0  0  0  0  0  0  0
  139.0590   77.6330  222.7160 O   0  0  0  0  0  0  0  0  0  0  0  0
  139.4970   71.0800  223.5130 C   0  0  0  0  0  0  0  0  0  0  0  0
  140.4080   71.8590  224.1950 C   0  0  0  0  0  0  0  0  0  0  0  0
  140.9660   71.4350  225.3980 C   0  0  0  0  0  0  0  0  0  0  0  0
  140.5600   70.1980  225.8690 C   0  0  0  0  0  0  0  0  0  0  0  0
  141.0650   69.7020  227.0550 C   0  0  0  0  0  0  0  0  0  0  0  0
  140.7000   68.4780  227.5760 C   0  0  0  0  0  0  0  0  0  0  0  0
  141.3900   67.9290  229.0840 Cl  0  0  0  0  0  0  0  0  0  0  0  0
  139.7860   67.7390  226.8550 C   0  0  0  0  0  0  0  0  0  0  0  0
  139.2470   68.1880  225.6580 C   0  0  0  0  0  0  0  0  0  0  0  0
  139.6390   69.4300  225.1610 C   0  0  0  0  0  0  0  0  0  0  0  0
  139.1130   69.8680  223.9960 N   0  0  0  0  0  0  0  0  0  0  0  0
  137.7570   73.0950  223.1720 H   0  0  0  0  0  0  0  0  0  0  0  0
  138.2362   73.8089  220.5250 H   0  0  0  0  0  0  0  0  0  0  0  0
  137.0565   72.4234  220.4588 H   0  0  0  0  0  0  0  0  0  0  0  0
  137.3831   76.6489  220.0204 H   0  0  0  0  0  0  0  0  0  0  0  0
  135.6125   76.5102  220.0721 H   0  0  0  0  0  0  0  0  0  0  0  0
  137.3341   78.5205  221.3073 H   0  0  0  0  0  0  0  0  0  0  0  0
  135.5720   78.5049  221.2478 H   0  0  0  0  0  0  0  0  0  0  0  0
  136.9724   78.1352  223.5952 H   0  0  0  0  0  0  0  0  0  0  0  0
  135.4184   77.3703  223.3726 H   0  0  0  0  0  0  0  0  0  0  0  0
  136.9761   75.4753  223.7505 H   0  0  0  0  0  0  0  0  0  0  0  0
  141.7240   75.9488  222.1086 H   0  0  0  0  0  0  0  0  0  0  0  0
  141.8487   78.7663  221.5628 H   0  0  0  0  0  0  0  0  0  0  0  0
  139.9531   80.3630  221.6301 H   0  0  0  0  0  0  0  0  0  0  0  0
  139.6176   80.0923  223.3062 H   0  0  0  0  0  0  0  0  0  0  0  0
  142.0488   81.4719  221.9973 H   0  0  0  0  0  0  0  0  0  0  0  0
  141.1817   82.0064  223.4354 H   0  0  0  0  0  0  0  0  0  0  0  0
  143.5588   80.4133  223.3637 H   0  0  0  0  0  0  0  0  0  0  0  0
  142.5611   80.7007  224.8039 H   0  0  0  0  0  0  0  0  0  0  0  0
  142.9439   78.1934  223.6526 H   0  0  0  0  0  0  0  0  0  0  0  0
  141.5412   78.5619  224.6278 H   0  0  0  0  0  0  0  0  0  0  0  0
  140.6997   72.8351  223.7801 H   0  0  0  0  0  0  0  0  0  0  0  0
  141.6929   72.0518  225.9467 H   0  0  0  0  0  0  0  0  0  0  0  0
  141.7927   70.3119  227.6104 H   0  0  0  0  0  0  0  0  0  0  0  0
  139.4730   66.7583  227.2427 H   0  0  0  0  0  0  0  0  0  0  0  0
  138.5199   67.5721  225.1084 H   0  0  0  0  0  0  0  0  0  0  0  0
  1  2  2  0
  2  3  1  0
  3  4  1  0
  4  5  1  0
  5  6  2  0
  5  7  1  0
  7  8  1  0
  8  9  1  0
  9 10  1  0
 10 11  1  0
 11 12  1  0
 12 13  2  0
 13 14  1  0
 14 15  2  0
 15 16  1  0
 16 17  1  0
 17 18  1  0
 18 19  1  0
 19 20  1  0
 15 21  1  0
  2 22  1  0
 22 23  2  0
 23 24  1  0
 24 25  2  0
 25 26  1  0
 26 27  2  0
 27 28  1  0
 27 29  1  0
 29 30  2  0
 30 31  1  0
 31 32  2  0
 11  7  1  0
 21 12  1  0
 32 22  1  0
 20 16  1  0
 31 25  1  0
  3 33  1  0
  4 34  1  0
  4 35  1  0
  8 36  1  0
  8 37  1  0
  9 38  1  0
  9 39  1  0
 10 40  1  0
 10 41  1  0
 11 42  1  1
 14 43  1  0
 16 44  1  0
 17 45  1  0
 17 46  1  0
 18 47  1  0
 18 48  1  0
 19 49  1  0
 19 50  1  0
 20 51  1  0
 20 52  1  0
 23 53  1  0
 24 54  1  0
 26 55  1  0
 29 56  1  0
 30 57  1  0
M  END
>  <smiles>  (42) 
O=C(NCC(=O)N1CCC[C@@H]1c1ncc(C2CCCC2)o1)c1ccc2cc(Cl)ccc2n1

>  <score_type>  (42) 
oracle

>  <origin>  (42) 
autodockgpu

>  <m_score__min__energy>  (42) 
-8.9900000000000002

>  <m_primary>  (42) 
energy

>  <rmsd>  (42) 
3.914769176003274

>  <m_score__min__rmsd>  (42) 
3.914769176003274

>  <meeko>  (42) 
{"free_energy": -8.7, "intermolecular_energy": -10.49, "internal_energy": -1.83, "cluster_size": 6, "cluster_id": 3, "rank_in_cluster": 2}

>  <energy>  (42) 
-6.18

>  <cluster_rmsd>  (42) 
1.59

>  <cluster>  (42) 
8

$$$$

     RDKit          3D

 57 61  0  0  0  0  0  0  0  0999 V2000
  142.9350   76.4000  218.7240 O   0  0  0  0  0  0  0  0  0  0  0  0
  142.2210   77.1680  219.4300 C   0  0  0  0  0  0  0  0  0  0  0  0
  141.5290   76.5840  220.5280 N   0  0  0  0  0  0  0  0  0  0  0  0
  141.5860   75.2010  220.8840 C   0  0  0  0  0  0  0  0  0  0  0  0
  140.3640   74.7400  221.5960 C   0  0  0  0  0  0  0  0  0  0  0  0
  140.3170   73.6870  222.2820 O   0  0  0  0  0  0  0  0  0  0  0  0
  139.1900   75.5400  221.4930 N   0  0  0  0  0  0  0  0  0  0  0  0
  138.5970   76.0030  220.2600 C   0  0  0  0  0  0  0  0  0  0  0  0
  137.1680   76.3540  220.5700 C   0  0  0  0  0  0  0  0  0  0  0  0
  136.9730   75.9460  222.0160 C   0  0  0  0  0  0  0  0  0  0  0  0
  138.3580   76.0480  222.5660 C   0  0  2  0  0  0  0  0  0  0  0  0
  138.6640   77.5110  222.7020 C   0  0  0  0  0  0  0  0  0  0  0  0
  137.8120   78.5260  222.9260 N   0  0  0  0  0  0  0  0  0  0  0  0
  138.5890   79.6450  222.9650 C   0  0  0  0  0  0  0  0  0  0  0  0
  139.9020   79.2770  222.7620 C   0  0  0  0  0  0  0  0  0  0  0  0
  141.1090   80.1720  222.7210 C   0  0  0  0  0  0  0  0  0  0  0  0
  141.1030   81.1370  223.8960 C   0  0  0  0  0  0  0  0  0  0  0  0
  142.5470   81.6370  223.8350 C   0  0  0  0  0  0  0  0  0  0  0  0
  143.3510   80.4370  223.3530 C   0  0  0  0  0  0  0  0  0  0  0  0
  142.3470   79.3750  222.9530 C   0  0  0  0  0  0  0  0  0  0  0  0
  139.8890   77.9730  222.6080 O   0  0  0  0  0  0  0  0  0  0  0  0
  142.1020   78.6000  219.1400 C   0  0  0  0  0  0  0  0  0  0  0  0
  142.9300   79.1370  218.1750 C   0  0  0  0  0  0  0  0  0  0  0  0
  142.8760   80.4880  217.8440 C   0  0  0  0  0  0  0  0  0  0  0  0
  141.9530   81.2590  218.5310 C   0  0  0  0  0  0  0  0  0  0  0  0
  141.8360   82.6080  218.2640 C   0  0  0  0  0  0  0  0  0  0  0  0
  140.9370   83.4300  218.9140 C   0  0  0  0  0  0  0  0  0  0  0  0
  140.8550   85.1280  218.5130 Cl  0  0  0  0  0  0  0  0  0  0  0  0
  140.1330   82.8440  219.8700 C   0  0  0  0  0  0  0  0  0  0  0  0
  140.2100   81.4940  220.1780 C   0  0  0  0  0  0  0  0  0  0  0  0
  141.1300   80.6940  219.5010 C   0  0  0  0  0  0  0  0  0  0  0  0
  141.2040   79.3790  219.8010 N   0  0  0  0  0  0  0  0  0  0  0  0
  140.9320   77.2200  221.1200 H   0  0  0  0  0  0  0  0  0  0  0  0
  141.7040   74.6061  219.9663 H   0  0  0  0  0  0  0  0  0  0  0  0
  142.4380   75.0689  221.5672 H   0  0  0  0  0  0  0  0  0  0  0  0
  139.1334   76.8898  219.8915 H   0  0  0  0  0  0  0  0  0  0  0  0
  138.6531   75.2292  219.4801 H   0  0  0  0  0  0  0  0  0  0  0  0
  136.9988   77.4338  220.4461 H   0  0  0  0  0  0  0  0  0  0  0  0
  136.4610   75.8469  219.8970 H   0  0  0  0  0  0  0  0  0  0  0  0
  136.2872   76.6322  222.5344 H   0  0  0  0  0  0  0  0  0  0  0  0
  136.5244   74.9487  222.1353 H   0  0  0  0  0  0  0  0  0  0  0  0
  138.4986   75.5249  223.5234 H   0  0  0  0  0  0  0  0  0  0  0  0
  138.2285   80.6709  223.1308 H   0  0  0  0  0  0  0  0  0  0  0  0
  141.0848   80.6781  221.7447 H   0  0  0  0  0  0  0  0  0  0  0  0
  140.3813   81.9542  223.7497 H   0  0  0  0  0  0  0  0  0  0  0  0
  140.8058   80.6943  224.8581 H   0  0  0  0  0  0  0  0  0  0  0  0
  142.6381   82.4745  223.1277 H   0  0  0  0  0  0  0  0  0  0  0  0
  142.8996   82.0110  224.8075 H   0  0  0  0  0  0  0  0  0  0  0  0
  143.9708   80.7179  222.4888 H   0  0  0  0  0  0  0  0  0  0  0  0
  144.0248   80.0690  224.1407 H   0  0  0  0  0  0  0  0  0  0  0  0
  142.6625   78.8549  222.0365 H   0  0  0  0  0  0  0  0  0  0  0  0
  142.2236   78.5826  223.7060 H   0  0  0  0  0  0  0  0  0  0  0  0
  143.6474   78.4838  217.6568 H   0  0  0  0  0  0  0  0  0  0  0  0
  143.5332   80.9214  217.0757 H   0  0  0  0  0  0  0  0  0  0  0  0
  142.4898   83.0491  217.4972 H   0  0  0  0  0  0  0  0  0  0  0  0
  139.4050   83.4699  220.4070 H   0  0  0  0  0  0  0  0  0  0  0  0
  139.5537   81.0598  220.9466 H   0  0  0  0  0  0  0  0  0  0  0  0
  1  2  2  0
  2  3  1  0
  3  4  1  0
  4  5  1  0
  5  6  2  0
  5  7  1  0
  7  8  1  0
  8  9  1  0
  9 10  1  0
 10 11  1  0
 11 12  1  0
 12 13  2  0
 13 14  1  0
 14 15  2  0
 15 16  1  0
 16 17  1  0
 17 18  1  0
 18 19  1  0
 19 20  1  0
 15 21  1  0
  2 22  1  0
 22 23  2  0
 23 24  1  0
 24 25  2  0
 25 26  1  0
 26 27  2  0
 27 28  1  0
 27 29  1  0
 29 30  2  0
 30 31  1  0
 31 32  2  0
 11  7  1  0
 21 12  1  0
 32 22  1  0
 20 16  1  0
 31 25  1  0
  3 33  1  0
  4 34  1  0
  4 35  1  0
  8 36  1  0
  8 37  1  0
  9 38  1  0
  9 39  1  0
 10 40  1  0
 10 41  1  0
 11 42  1  1
 14 43  1  0
 16 44  1  0
 17 45  1  0
 17 46  1  0
 18 47  1  0
 18 48  1  0
 19 49  1  0
 19 50  1  0
 20 51  1  0
 20 52  1  0
 23 53  1  0
 24 54  1  0
 26 55  1  0
 29 56  1  0
 30 57  1  0
M  END
>  <smiles>  (43) 
O=C(NCC(=O)N1CCC[C@@H]1c1ncc(C2CCCC2)o1)c1ccc2cc(Cl)ccc2n1

>  <score_type>  (43) 
oracle

>  <origin>  (43) 
autodockgpu

>  <m_score__min__energy>  (43) 
-8.9900000000000002

>  <m_primary>  (43) 
energy

>  <rmsd>  (43) 
8.491898906366163

>  <m_score__min__rmsd>  (43) 
8.491898906366163

>  <meeko>  (43) 
{"free_energy": -6.35, "intermolecular_energy": -8.14, "internal_energy": -4.1, "cluster_size": 14, "cluster_id": 8, "rank_in_cluster": 10}

>  <energy>  (43) 
-6.06

>  <cluster_rmsd>  (43) 
2.0

>  <cluster>  (43) 
8

$$$$

     RDKit          3D

 57 61  0  0  0  0  0  0  0  0999 V2000
  142.9380   76.9300  217.8100 O   0  0  0  0  0  0  0  0  0  0  0  0
  142.6580   77.4590  218.9230 C   0  0  0  0  0  0  0  0  0  0  0  0
  142.7850   76.6420  220.0810 N   0  0  0  0  0  0  0  0  0  0  0  0
  143.2060   75.2760  220.0720 C   0  0  0  0  0  0  0  0  0  0  0  0
  142.0760   74.3260  220.2520 C   0  0  0  0  0  0  0  0  0  0  0  0
  142.2240   73.0800  220.3290 O   0  0  0  0  0  0  0  0  0  0  0  0
  140.7600   74.8620  220.3410 N   0  0  0  0  0  0  0  0  0  0  0  0
  140.0540   75.5340  219.2740 C   0  0  0  0  0  0  0  0  0  0  0  0
  138.5920   75.4790  219.6190 C   0  0  0  0  0  0  0  0  0  0  0  0
  138.5200   74.6350  220.8750 C   0  0  0  0  0  0  0  0  0  0  0  0
  139.8670   74.8540  221.4830 C   0  0  2  0  0  0  0  0  0  0  0  0
  139.8670   76.2440  222.0490 C   0  0  0  0  0  0  0  0  0  0  0  0
  138.8290   77.0840  222.2030 N   0  0  0  0  0  0  0  0  0  0  0  0
  139.3590   78.2100  222.7590 C   0  0  0  0  0  0  0  0  0  0  0  0
  140.7140   78.0230  222.9280 C   0  0  0  0  0  0  0  0  0  0  0  0
  141.7090   78.9920  223.5030 C   0  0  0  0  0  0  0  0  0  0  0  0
  142.7610   79.3590  222.4680 C   0  0  0  0  0  0  0  0  0  0  0  0
  143.3840   80.5800  223.1460 C   0  0  0  0  0  0  0  0  0  0  0  0
  142.2280   81.2480  223.8770 C   0  0  0  0  0  0  0  0  0  0  0  0
  141.0500   80.2990  223.7810 C   0  0  0  0  0  0  0  0  0  0  0  0
  140.9670   76.8140  222.4810 O   0  0  0  0  0  0  0  0  0  0  0  0
  142.2180   78.8540  219.0290 C   0  0  0  0  0  0  0  0  0  0  0  0
  142.7960   79.7810  218.1870 C   0  0  0  0  0  0  0  0  0  0  0  0
  142.4310   81.1250  218.2280 C   0  0  0  0  0  0  0  0  0  0  0  0
  141.4620   81.4760  219.1540 C   0  0  0  0  0  0  0  0  0  0  0  0
  141.0430   82.7870  219.2600 C   0  0  0  0  0  0  0  0  0  0  0  0
  140.0830   83.2000  220.1610 C   0  0  0  0  0  0  0  0  0  0  0  0
  139.6110   84.8810  220.2280 Cl  0  0  0  0  0  0  0  0  0  0  0  0
  139.5360   82.2340  220.9790 C   0  0  0  0  0  0  0  0  0  0  0  0
  139.9210   80.9030  220.9150 C   0  0  0  0  0  0  0  0  0  0  0  0
  140.8940   80.5210  219.9920 C   0  0  0  0  0  0  0  0  0  0  0  0
  141.2680   79.2240  219.9290 N   0  0  0  0  0  0  0  0  0  0  0  0
  142.5520   77.0780  221.0120 H   0  0  0  0  0  0  0  0  0  0  0  0
  143.6937   75.0644  219.1090 H   0  0  0  0  0  0  0  0  0  0  0  0
  143.8961   75.1354  220.9170 H   0  0  0  0  0  0  0  0  0  0  0  0
  140.3865   76.5799  219.1997 H   0  0  0  0  0  0  0  0  0  0  0  0
  140.2496   75.0507  218.3054 H   0  0  0  0  0  0  0  0  0  0  0  0
  138.2007   76.4894  219.8086 H   0  0  0  0  0  0  0  0  0  0  0  0
  137.9889   75.0574  218.8014 H   0  0  0  0  0  0  0  0  0  0  0  0
  137.7195   74.9837  221.5440 H   0  0  0  0  0  0  0  0  0  0  0  0
  138.2905   73.5767  220.6821 H   0  0  0  0  0  0  0  0  0  0  0  0
  140.1358   74.1152  222.2524 H   0  0  0  0  0  0  0  0  0  0  0  0
  138.7983   79.1173  223.0281 H   0  0  0  0  0  0  0  0  0  0  0  0
  142.1297   78.5086  224.3971 H   0  0  0  0  0  0  0  0  0  0  0  0
  143.4945   78.5515  222.3271 H   0  0  0  0  0  0  0  0  0  0  0  0
  142.3720   79.5391  221.4550 H   0  0  0  0  0  0  0  0  0  0  0  0
  144.1660   80.2726  223.8559 H   0  0  0  0  0  0  0  0  0  0  0  0
  143.8662   81.2559  222.4244 H   0  0  0  0  0  0  0  0  0  0  0  0
  142.4931   81.4188  224.9308 H   0  0  0  0  0  0  0  0  0  0  0  0
  141.9882   82.2249  223.4319 H   0  0  0  0  0  0  0  0  0  0  0  0
  140.4874   80.2673  224.7257 H   0  0  0  0  0  0  0  0  0  0  0  0
  140.3143   80.5899  223.0167 H   0  0  0  0  0  0  0  0  0  0  0  0
  143.5610   79.4524  217.4682 H   0  0  0  0  0  0  0  0  0  0  0  0
  142.8886   81.8692  217.5595 H   0  0  0  0  0  0  0  0  0  0  0  0
  141.4955   83.5375  218.5952 H   0  0  0  0  0  0  0  0  0  0  0  0
  138.7671   82.5294  221.7081 H   0  0  0  0  0  0  0  0  0  0  0  0
  139.4647   80.1583  221.5837 H   0  0  0  0  0  0  0  0  0  0  0  0
  1  2  2  0
  2  3  1  0
  3  4  1  0
  4  5  1  0
  5  6  2  0
  5  7  1  0
  7  8  1  0
  8  9  1  0
  9 10  1  0
 10 11  1  0
 11 12  1  0
 12 13  2  0
 13 14  1  0
 14 15  2  0
 15 16  1  0
 16 17  1  0
 17 18  1  0
 18 19  1  0
 19 20  1  0
 15 21  1  0
  2 22  1  0
 22 23  2  0
 23 24  1  0
 24 25  2  0
 25 26  1  0
 26 27  2  0
 27 28  1  0
 27 29  1  0
 29 30  2  0
 30 31  1  0
 31 32  2  0
 11  7  1  0
 21 12  1  0
 32 22  1  0
 20 16  1  0
 31 25  1  0
  3 33  1  0
  4 34  1  0
  4 35  1  0
  8 36  1  0
  8 37  1  0
  9 38  1  0
  9 39  1  0
 10 40  1  0
 10 41  1  0
 11 42  1  1
 14 43  1  0
 16 44  1  0
 17 45  1  0
 17 46  1  0
 18 47  1  0
 18 48  1  0
 19 49  1  0
 19 50  1  0
 20 51  1  0
 20 52  1  0
 23 53  1  0
 24 54  1  0
 26 55  1  0
 29 56  1  0
 30 57  1  0
M  END
>  <smiles>  (44) 
O=C(NCC(=O)N1CCC[C@@H]1c1ncc(C2CCCC2)o1)c1ccc2cc(Cl)ccc2n1

>  <score_type>  (44) 
oracle

>  <origin>  (44) 
autodockgpu

>  <m_score__min__energy>  (44) 
-8.9900000000000002

>  <m_primary>  (44) 
energy

>  <rmsd>  (44) 
8.392156475598908

>  <m_score__min__rmsd>  (44) 
8.392156475598908

>  <meeko>  (44) 
{"free_energy": -6.51, "intermolecular_energy": -8.3, "internal_energy": -4.34, "cluster_size": 14, "cluster_id": 8, "rank_in_cluster": 4}

>  <energy>  (44) 
-6.05

>  <cluster_rmsd>  (44) 
2.0

>  <cluster>  (44) 
8

$$$$

     RDKit          3D

 57 61  0  0  0  0  0  0  0  0999 V2000
  143.0790   76.9720  217.8710 O   0  0  0  0  0  0  0  0  0  0  0  0
  142.6740   77.2180  219.0430 C   0  0  0  0  0  0  0  0  0  0  0  0
  143.1490   76.3720  220.0840 N   0  0  0  0  0  0  0  0  0  0  0  0
  144.0470   75.2760  219.8980 C   0  0  0  0  0  0  0  0  0  0  0  0
  143.4320   73.9650  220.2390 C   0  0  0  0  0  0  0  0  0  0  0  0
  144.0990   72.9430  220.5400 O   0  0  0  0  0  0  0  0  0  0  0  0
  142.0110   73.8700  220.2230 N   0  0  0  0  0  0  0  0  0  0  0  0
  141.1640   74.1630  219.0890 C   0  0  0  0  0  0  0  0  0  0  0  0
  139.8510   73.4730  219.3390 C   0  0  0  0  0  0  0  0  0  0  0  0
  140.0630   72.6850  220.6150 C   0  0  0  0  0  0  0  0  0  0  0  0
  141.1290   73.4730  221.3030 C   0  0  2  0  0  0  0  0  0  0  0  0
  140.4800   74.7230  221.8210 C   0  0  0  0  0  0  0  0  0  0  0  0
  139.2550   74.8690  222.3540 N   0  0  0  0  0  0  0  0  0  0  0  0
  139.1540   76.1930  222.6620 C   0  0  0  0  0  0  0  0  0  0  0  0
  140.3280   76.8190  222.3050 C   0  0  0  0  0  0  0  0  0  0  0  0
  140.6730   78.2750  222.4550 C   0  0  0  0  0  0  0  0  0  0  0  0
  139.5520   79.0230  223.1600 C   0  0  0  0  0  0  0  0  0  0  0  0
  140.2810   80.3210  223.5110 C   0  0  0  0  0  0  0  0  0  0  0  0
  141.7150   79.8960  223.7910 C   0  0  0  0  0  0  0  0  0  0  0  0
  141.8190   78.4370  223.3930 C   0  0  0  0  0  0  0  0  0  0  0  0
  141.0960   75.8810  221.8010 O   0  0  0  0  0  0  0  0  0  0  0  0
  141.7530   78.3210  219.3290 C   0  0  0  0  0  0  0  0  0  0  0  0
  140.4270   78.1640  218.9830 C   0  0  0  0  0  0  0  0  0  0  0  0
  139.4910   79.1680  219.2230 C   0  0  0  0  0  0  0  0  0  0  0  0
  139.9620   80.3240  219.8220 C   0  0  0  0  0  0  0  0  0  0  0  0
  139.1010   81.3690  220.0940 C   0  0  0  0  0  0  0  0  0  0  0  0
  139.5070   82.5450  220.6890 C   0  0  0  0  0  0  0  0  0  0  0  0
  138.3500   83.8160  220.9970 Cl  0  0  0  0  0  0  0  0  0  0  0  0
  140.8440   82.6510  221.0150 C   0  0  0  0  0  0  0  0  0  0  0  0
  141.7520   81.6340  220.7640 C   0  0  0  0  0  0  0  0  0  0  0  0
  141.3050   80.4590  220.1610 C   0  0  0  0  0  0  0  0  0  0  0  0
  142.1900   79.4670  219.9170 N   0  0  0  0  0  0  0  0  0  0  0  0
  142.8140   76.5710  221.0640 H   0  0  0  0  0  0  0  0  0  0  0  0
  144.3613   75.2537  218.8441 H   0  0  0  0  0  0  0  0  0  0  0  0
  144.9011   75.4281  220.5743 H   0  0  0  0  0  0  0  0  0  0  0  0
  141.0108   75.2487  219.0010 H   0  0  0  0  0  0  0  0  0  0  0  0
  141.6224   73.8128  218.1524 H   0  0  0  0  0  0  0  0  0  0  0  0
  139.0447   74.2100  219.4685 H   0  0  0  0  0  0  0  0  0  0  0  0
  139.5546   72.8286  218.4982 H   0  0  0  0  0  0  0  0  0  0  0  0
  139.1435   72.6479  221.2176 H   0  0  0  0  0  0  0  0  0  0  0  0
  140.3349   71.6331  220.4428 H   0  0  0  0  0  0  0  0  0  0  0  0
  141.6354   72.9277  222.1131 H   0  0  0  0  0  0  0  0  0  0  0  0
  138.2804   76.6804  223.1195 H   0  0  0  0  0  0  0  0  0  0  0  0
  140.8744   78.6503  221.4408 H   0  0  0  0  0  0  0  0  0  0  0  0
  138.6971   79.2025  222.4915 H   0  0  0  0  0  0  0  0  0  0  0  0
  139.1080   78.4941  224.0162 H   0  0  0  0  0  0  0  0  0  0  0  0
  140.2433   81.0270  222.6683 H   0  0  0  0  0  0  0  0  0  0  0  0
  139.8245   80.8353  224.3696 H   0  0  0  0  0  0  0  0  0  0  0  0
  142.4138   80.5026  223.1962 H   0  0  0  0  0  0  0  0  0  0  0  0
  141.9712   80.0375  224.8514 H   0  0  0  0  0  0  0  0  0  0  0  0
  142.7756   78.2292  222.8912 H   0  0  0  0  0  0  0  0  0  0  0  0
  141.7860   77.7462  224.2484 H   0  0  0  0  0  0  0  0  0  0  0  0
  140.1017   77.2268  218.5078 H   0  0  0  0  0  0  0  0  0  0  0  0
  138.4320   79.0483  218.9505 H   0  0  0  0  0  0  0  0  0  0  0  0
  138.0407   81.2580  219.8231 H   0  0  0  0  0  0  0  0  0  0  0  0
  141.2019   83.5758  221.4911 H   0  0  0  0  0  0  0  0  0  0  0  0
  142.8110   81.7524  221.0369 H   0  0  0  0  0  0  0  0  0  0  0  0
  1  2  2  0
  2  3  1  0
  3  4  1  0
  4  5  1  0
  5  6  2  0
  5  7  1  0
  7  8  1  0
  8  9  1  0
  9 10  1  0
 10 11  1  0
 11 12  1  0
 12 13  2  0
 13 14  1  0
 14 15  2  0
 15 16  1  0
 16 17  1  0
 17 18  1  0
 18 19  1  0
 19 20  1  0
 15 21  1  0
  2 22  1  0
 22 23  2  0
 23 24  1  0
 24 25  2  0
 25 26  1  0
 26 27  2  0
 27 28  1  0
 27 29  1  0
 29 30  2  0
 30 31  1  0
 31 32  2  0
 11  7  1  0
 21 12  1  0
 32 22  1  0
 20 16  1  0
 31 25  1  0
  3 33  1  0
  4 34  1  0
  4 35  1  0
  8 36  1  0
  8 37  1  0
  9 38  1  0
  9 39  1  0
 10 40  1  0
 10 41  1  0
 11 42  1  1
 14 43  1  0
 16 44  1  0
 17 45  1  0
 17 46  1  0
 18 47  1  0
 18 48  1  0
 19 49  1  0
 19 50  1  0
 20 51  1  0
 20 52  1  0
 23 53  1  0
 24 54  1  0
 26 55  1  0
 29 56  1  0
 30 57  1  0
M  END
>  <smiles>  (45) 
O=C(NCC(=O)N1CCC[C@@H]1c1ncc(C2CCCC2)o1)c1ccc2cc(Cl)ccc2n1

>  <score_type>  (45) 
oracle

>  <origin>  (45) 
autodockgpu

>  <m_score__min__energy>  (45) 
-8.9900000000000002

>  <m_primary>  (45) 
energy

>  <rmsd>  (45) 
7.9776751011035065

>  <m_score__min__rmsd>  (45) 
7.9776751011035065

>  <meeko>  (45) 
{"free_energy": -6.11, "intermolecular_energy": -7.9, "internal_energy": -4.47, "cluster_size": 2, "cluster_id": 10, "rank_in_cluster": 1}

>  <energy>  (45) 
-5.91

>  <cluster_rmsd>  (45) 
1.98

>  <cluster>  (45) 
8

$$$$

     RDKit          3D

 57 61  0  0  0  0  0  0  0  0999 V2000
  138.1640   70.5230  221.3230 O   0  0  0  0  0  0  0  0  0  0  0  0
  138.5570   71.3580  222.1870 C   0  0  0  0  0  0  0  0  0  0  0  0
  138.3750   72.7370  221.8870 N   0  0  0  0  0  0  0  0  0  0  0  0
  137.7810   73.2380  220.6870 C   0  0  0  0  0  0  0  0  0  0  0  0
  136.6570   74.1750  220.9500 C   0  0  0  0  0  0  0  0  0  0  0  0
  135.4500   73.8820  220.7560 O   0  0  0  0  0  0  0  0  0  0  0  0
  136.9710   75.4720  221.4500 N   0  0  0  0  0  0  0  0  0  0  0  0
  136.8400   76.7080  220.7140 C   0  0  0  0  0  0  0  0  0  0  0  0
  136.7880   77.8150  221.7300 C   0  0  0  0  0  0  0  0  0  0  0  0
  136.7780   77.1100  223.0720 C   0  0  0  0  0  0  0  0  0  0  0  0
  137.4750   75.8250  222.7620 C   0  0  2  0  0  0  0  0  0  0  0  0
  138.9310   76.1500  222.5990 C   0  0  0  0  0  0  0  0  0  0  0  0
  139.9510   75.3120  222.3450 N   0  0  0  0  0  0  0  0  0  0  0  0
  141.0600   76.1020  222.2920 C   0  0  0  0  0  0  0  0  0  0  0  0
  140.6810   77.4080  222.5170 C   0  0  0  0  0  0  0  0  0  0  0  0
  141.5630   78.6240  222.5530 C   0  0  0  0  0  0  0  0  0  0  0  0
  140.8310   79.8360  221.9970 C   0  0  0  0  0  0  0  0  0  0  0  0
  141.7600   80.9510  222.4810 C   0  0  0  0  0  0  0  0  0  0  0  0
  142.2900   80.4590  223.8200 C   0  0  0  0  0  0  0  0  0  0  0  0
  141.8340   79.0210  223.9640 C   0  0  0  0  0  0  0  0  0  0  0  0
  139.3810   77.3780  222.6970 O   0  0  0  0  0  0  0  0  0  0  0  0
  139.1770   70.9360  223.4470 C   0  0  0  0  0  0  0  0  0  0  0  0
  140.0660   71.7990  224.0530 C   0  0  0  0  0  0  0  0  0  0  0  0
  140.6950   71.4690  225.2510 C   0  0  0  0  0  0  0  0  0  0  0  0
  140.3820   70.2360  225.7960 C   0  0  0  0  0  0  0  0  0  0  0  0
  140.9620   69.8310  226.9820 C   0  0  0  0  0  0  0  0  0  0  0  0
  140.6930   68.6150  227.5760 C   0  0  0  0  0  0  0  0  0  0  0  0
  141.4720   68.1820  229.0780 Cl  0  0  0  0  0  0  0  0  0  0  0  0
  139.7970   67.7880  226.9290 C   0  0  0  0  0  0  0  0  0  0  0  0
  139.1860   68.1450  225.7360 C   0  0  0  0  0  0  0  0  0  0  0  0
  139.4830   69.3820  225.1650 C   0  0  0  0  0  0  0  0  0  0  0  0
  138.8870   69.7290  224.0030 N   0  0  0  0  0  0  0  0  0  0  0  0
  138.7010   73.4380  222.6030 H   0  0  0  0  0  0  0  0  0  0  0  0
  138.5517   73.7671  220.1073 H   0  0  0  0  0  0  0  0  0  0  0  0
  137.3741   72.3785  220.1342 H   0  0  0  0  0  0  0  0  0  0  0  0
  137.7045   76.8456  220.0479 H   0  0  0  0  0  0  0  0  0  0  0  0
  135.9340   76.7018  220.0902 H   0  0  0  0  0  0  0  0  0  0  0  0
  137.6710   78.4648  221.6404 H   0  0  0  0  0  0  0  0  0  0  0  0
  135.9084   78.4615  221.5945 H   0  0  0  0  0  0  0  0  0  0  0  0
  137.3270   77.6882  223.8298 H   0  0  0  0  0  0  0  0  0  0  0  0
  135.7699   76.9744  223.4907 H   0  0  0  0  0  0  0  0  0  0  0  0
  137.3283   75.0418  223.5204 H   0  0  0  0  0  0  0  0  0  0  0  0
  142.0864   75.7553  222.1015 H   0  0  0  0  0  0  0  0  0  0  0  0
  142.4681   78.3648  221.9841 H   0  0  0  0  0  0  0  0  0  0  0  0
  140.7663   79.8060  220.8993 H   0  0  0  0  0  0  0  0  0  0  0  0
  139.7835   79.9329  222.3185 H   0  0  0  0  0  0  0  0  0  0  0  0
  142.5852   81.1043  221.7699 H   0  0  0  0  0  0  0  0  0  0  0  0
  141.2404   81.9166  222.5687 H   0  0  0  0  0  0  0  0  0  0  0  0
  143.3886   80.5123  223.8361 H   0  0  0  0  0  0  0  0  0  0  0  0
  141.9145   81.0790  224.6474 H   0  0  0  0  0  0  0  0  0  0  0  0
  142.6233   78.3965  224.4078 H   0  0  0  0  0  0  0  0  0  0  0  0
  140.9645   78.9017  224.6272 H   0  0  0  0  0  0  0  0  0  0  0  0
  140.2828   72.7683  223.5802 H   0  0  0  0  0  0  0  0  0  0  0  0
  141.4044   72.1535  225.7391 H   0  0  0  0  0  0  0  0  0  0  0  0
  141.6721   70.5100  227.4766 H   0  0  0  0  0  0  0  0  0  0  0  0
  139.5591   66.8112  227.3753 H   0  0  0  0  0  0  0  0  0  0  0  0
  138.4766   67.4613  225.2468 H   0  0  0  0  0  0  0  0  0  0  0  0
  1  2  2  0
  2  3  1  0
  3  4  1  0
  4  5  1  0
  5  6  2  0
  5  7  1  0
  7  8  1  0
  8  9  1  0
  9 10  1  0
 10 11  1  0
 11 12  1  0
 12 13  2  0
 13 14  1  0
 14 15  2  0
 15 16  1  0
 16 17  1  0
 17 18  1  0
 18 19  1  0
 19 20  1  0
 15 21  1  0
  2 22  1  0
 22 23  2  0
 23 24  1  0
 24 25  2  0
 25 26  1  0
 26 27  2  0
 27 28  1  0
 27 29  1  0
 29 30  2  0
 30 31  1  0
 31 32  2  0
 11  7  1  0
 21 12  1  0
 32 22  1  0
 20 16  1  0
 31 25  1  0
  3 33  1  0
  4 34  1  0
  4 35  1  0
  8 36  1  0
  8 37  1  0
  9 38  1  0
  9 39  1  0
 10 40  1  0
 10 41  1  0
 11 42  1  1
 14 43  1  0
 16 44  1  0
 17 45  1  0
 17 46  1  0
 18 47  1  0
 18 48  1  0
 19 49  1  0
 19 50  1  0
 20 51  1  0
 20 52  1  0
 23 53  1  0
 24 54  1  0
 26 55  1  0
 29 56  1  0
 30 57  1  0
M  END
>  <smiles>  (46) 
O=C(NCC(=O)N1CCC[C@@H]1c1ncc(C2CCCC2)o1)c1ccc2cc(Cl)ccc2n1

>  <score_type>  (46) 
oracle

>  <origin>  (46) 
autodockgpu

>  <m_score__min__energy>  (46) 
-8.9900000000000002

>  <m_primary>  (46) 
energy

>  <rmsd>  (46) 
3.8560153629948135

>  <m_score__min__rmsd>  (46) 
3.8560153629948135

>  <meeko>  (46) 
{"free_energy": -8.61, "intermolecular_energy": -10.4, "internal_energy": -2.35, "cluster_size": 6, "cluster_id": 3, "rank_in_cluster": 3}

>  <energy>  (46) 
-6.34

>  <cluster_rmsd>  (46) 
0.0

>  <cluster>  (46) 
9

$$$$

     RDKit          3D

 57 61  0  0  0  0  0  0  0  0999 V2000
  136.1170   74.6940  221.4030 O   0  0  0  0  0  0  0  0  0  0  0  0
  137.1790   74.4040  222.0250 C   0  0  0  0  0  0  0  0  0  0  0  0
  137.2590   73.1070  222.6040 N   0  0  0  0  0  0  0  0  0  0  0  0
  136.2300   72.1170  222.5310 C   0  0  0  0  0  0  0  0  0  0  0  0
  136.5530   71.0230  221.5750 C   0  0  0  0  0  0  0  0  0  0  0  0
  135.7200   70.5420  220.7650 O   0  0  0  0  0  0  0  0  0  0  0  0
  137.8770   70.4990  221.5820 N   0  0  0  0  0  0  0  0  0  0  0  0
  138.2250   69.1030  221.7220 C   0  0  0  0  0  0  0  0  0  0  0  0
  139.6210   68.9490  221.1870 C   0  0  0  0  0  0  0  0  0  0  0  0
  139.9790   70.3140  220.6340 C   0  0  0  0  0  0  0  0  0  0  0  0
  139.1260   71.2240  221.4560 C   0  0  2  0  0  0  0  0  0  0  0  0
  139.7410   71.2780  222.8250 C   0  0  0  0  0  0  0  0  0  0  0  0
  140.2510   72.3400  223.4700 N   0  0  0  0  0  0  0  0  0  0  0  0
  140.6780   71.8590  224.6710 C   0  0  0  0  0  0  0  0  0  0  0  0
  140.4140   70.5070  224.7230 C   0  0  0  0  0  0  0  0  0  0  0  0
  140.7110   69.5580  225.8500 C   0  0  0  0  0  0  0  0  0  0  0  0
  140.3760   70.1940  227.1910 C   0  0  0  0  0  0  0  0  0  0  0  0
  140.4010   68.9530  228.0850 C   0  0  0  0  0  0  0  0  0  0  0  0
  139.8840   67.8280  227.2000 C   0  0  0  0  0  0  0  0  0  0  0  0
  139.7840   68.3920  225.7970 C   0  0  0  0  0  0  0  0  0  0  0  0
  139.8460   70.2080  223.5770 O   0  0  0  0  0  0  0  0  0  0  0  0
  138.2870   75.3560  222.1510 C   0  0  0  0  0  0  0  0  0  0  0  0
  139.5550   74.9220  221.8250 C   0  0  0  0  0  0  0  0  0  0  0  0
  140.6570   75.7680  221.9190 C   0  0  0  0  0  0  0  0  0  0  0  0
  140.4120   77.0590  222.3570 C   0  0  0  0  0  0  0  0  0  0  0  0
  141.4500   77.9610  222.4800 C   0  0  0  0  0  0  0  0  0  0  0  0
  141.2730   79.2600  222.9100 C   0  0  0  0  0  0  0  0  0  0  0  0
  142.6430   80.3360  223.0360 Cl  0  0  0  0  0  0  0  0  0  0  0  0
  139.9850   79.6440  223.2240 C   0  0  0  0  0  0  0  0  0  0  0  0
  138.9060   78.7780  223.1200 C   0  0  0  0  0  0  0  0  0  0  0  0
  139.1240   77.4720  222.6820 C   0  0  0  0  0  0  0  0  0  0  0  0
  138.0730   76.6300  222.5790 N   0  0  0  0  0  0  0  0  0  0  0  0
  138.1420   72.8600  223.1240 H   0  0  0  0  0  0  0  0  0  0  0  0
  136.0898   71.6806  223.5310 H   0  0  0  0  0  0  0  0  0  0  0  0
  135.3162   72.6131  222.1722 H   0  0  0  0  0  0  0  0  0  0  0  0
  138.1905   68.8083  222.7812 H   0  0  0  0  0  0  0  0  0  0  0  0
  137.5186   68.4627  221.1734 H   0  0  0  0  0  0  0  0  0  0  0  0
  140.3146   68.6632  221.9916 H   0  0  0  0  0  0  0  0  0  0  0  0
  139.6868   68.1617  220.4216 H   0  0  0  0  0  0  0  0  0  0  0  0
  141.0475   70.5336  220.7758 H   0  0  0  0  0  0  0  0  0  0  0  0
  139.8088   70.4092  219.5514 H   0  0  0  0  0  0  0  0  0  0  0  0
  139.0141   72.2338  221.0343 H   0  0  0  0  0  0  0  0  0  0  0  0
  141.1541   72.4509  225.4666 H   0  0  0  0  0  0  0  0  0  0  0  0
  141.7722   69.2853  225.7521 H   0  0  0  0  0  0  0  0  0  0  0  0
  141.1340   70.9313  227.4942 H   0  0  0  0  0  0  0  0  0  0  0  0
  139.4346   70.7626  227.2126 H   0  0  0  0  0  0  0  0  0  0  0  0
  141.4255   68.7400  228.4242 H   0  0  0  0  0  0  0  0  0  0  0  0
  139.7924   69.0816  228.9922 H   0  0  0  0  0  0  0  0  0  0  0  0
  140.5828   66.9787  227.2187 H   0  0  0  0  0  0  0  0  0  0  0  0
  138.9075   67.4635  227.5516 H   0  0  0  0  0  0  0  0  0  0  0  0
  140.1134   67.6562  225.0486 H   0  0  0  0  0  0  0  0  0  0  0  0
  138.7581   68.6609  225.5050 H   0  0  0  0  0  0  0  0  0  0  0  0
  139.6986   73.8862  221.4837 H   0  0  0  0  0  0  0  0  0  0  0  0
  141.6704   75.4284  221.6587 H   0  0  0  0  0  0  0  0  0  0  0  0
  142.4664   77.6282  222.2229 H   0  0  0  0  0  0  0  0  0  0  0  0
  139.8076   80.6733  223.5690 H   0  0  0  0  0  0  0  0  0  0  0  0
  137.8922   79.1170  223.3795 H   0  0  0  0  0  0  0  0  0  0  0  0
  1  2  2  0
  2  3  1  0
  3  4  1  0
  4  5  1  0
  5  6  2  0
  5  7  1  0
  7  8  1  0
  8  9  1  0
  9 10  1  0
 10 11  1  0
 11 12  1  0
 12 13  2  0
 13 14  1  0
 14 15  2  0
 15 16  1  0
 16 17  1  0
 17 18  1  0
 18 19  1  0
 19 20  1  0
 15 21  1  0
  2 22  1  0
 22 23  2  0
 23 24  1  0
 24 25  2  0
 25 26  1  0
 26 27  2  0
 27 28  1  0
 27 29  1  0
 29 30  2  0
 30 31  1  0
 31 32  2  0
 11  7  1  0
 21 12  1  0
 32 22  1  0
 20 16  1  0
 31 25  1  0
  3 33  1  0
  4 34  1  0
  4 35  1  0
  8 36  1  0
  8 37  1  0
  9 38  1  0
  9 39  1  0
 10 40  1  0
 10 41  1  0
 11 42  1  6
 14 43  1  0
 16 44  1  0
 17 45  1  0
 17 46  1  0
 18 47  1  0
 18 48  1  0
 19 49  1  0
 19 50  1  0
 20 51  1  0
 20 52  1  0
 23 53  1  0
 24 54  1  0
 26 55  1  0
 29 56  1  0
 30 57  1  0
M  END
>  <smiles>  (47) 
O=C(NCC(=O)N1CCC[C@@H]1c1ncc(C2CCCC2)o1)c1ccc2cc(Cl)ccc2n1

>  <score_type>  (47) 
oracle

>  <origin>  (47) 
autodockgpu

>  <m_score__min__energy>  (47) 
-8.9900000000000002

>  <m_primary>  (47) 
energy

>  <rmsd>  (47) 
8.900056005935408

>  <m_score__min__rmsd>  (47) 
8.900056005935408

>  <meeko>  (47) 
{"free_energy": -7.7, "intermolecular_energy": -9.49, "internal_energy": -2.52, "cluster_size": 1, "cluster_id": 4, "rank_in_cluster": 1}

>  <energy>  (47) 
-6.11

>  <cluster_rmsd>  (47) 
0.0

>  <cluster>  (47) 
10

$$$$

     RDKit          3D

 57 61  0  0  0  0  0  0  0  0999 V2000
  142.7710   76.5480  218.0430 O   0  0  0  0  0  0  0  0  0  0  0  0
  142.4790   77.1920  219.0910 C   0  0  0  0  0  0  0  0  0  0  0  0
  142.4480   76.4640  220.3130 N   0  0  0  0  0  0  0  0  0  0  0  0
  142.7250   75.0680  220.4380 C   0  0  0  0  0  0  0  0  0  0  0  0
  141.5310   74.2200  220.1780 C   0  0  0  0  0  0  0  0  0  0  0  0
  141.5960   73.0610  219.6940 O   0  0  0  0  0  0  0  0  0  0  0  0
  140.2500   74.7540  220.4980 N   0  0  0  0  0  0  0  0  0  0  0  0
  139.3030   75.2870  219.5460 C   0  0  0  0  0  0  0  0  0  0  0  0
  137.9560   75.2640  220.2140 C   0  0  0  0  0  0  0  0  0  0  0  0
  138.1940   74.5780  221.5440 C   0  0  0  0  0  0  0  0  0  0  0  0
  139.6340   74.8770  221.8040 C   0  0  2  0  0  0  0  0  0  0  0  0
  139.7130   76.3260  222.1910 C   0  0  0  0  0  0  0  0  0  0  0  0
  138.7840   77.2840  222.0350 N   0  0  0  0  0  0  0  0  0  0  0  0
  139.3470   78.4150  222.5470 C   0  0  0  0  0  0  0  0  0  0  0  0
  140.6100   78.1110  223.0040 C   0  0  0  0  0  0  0  0  0  0  0  0
  141.6010   79.0400  223.6470 C   0  0  0  0  0  0  0  0  0  0  0  0
  142.7670   79.3150  222.7090 C   0  0  0  0  0  0  0  0  0  0  0  0
  143.3930   80.5210  223.4130 C   0  0  0  0  0  0  0  0  0  0  0  0
  142.2140   81.2740  224.0120 C   0  0  0  0  0  0  0  0  0  0  0  0
  140.9970   80.3900  223.8280 C   0  0  0  0  0  0  0  0  0  0  0  0
  140.7810   76.8310  222.7630 O   0  0  0  0  0  0  0  0  0  0  0  0
  142.1800   78.6270  219.0600 C   0  0  0  0  0  0  0  0  0  0  0  0
  142.7290   79.3810  218.0440 C   0  0  0  0  0  0  0  0  0  0  0  0
  142.4910   80.7500  217.9480 C   0  0  0  0  0  0  0  0  0  0  0  0
  141.6790   81.3080  218.9200 C   0  0  0  0  0  0  0  0  0  0  0  0
  141.3930   82.6590  218.8980 C   0  0  0  0  0  0  0  0  0  0  0  0
  140.5910   83.2750  219.8380 C   0  0  0  0  0  0  0  0  0  0  0  0
  140.2810   84.9910  219.7340 Cl  0  0  0  0  0  0  0  0  0  0  0  0
  140.0660   82.4760  220.8320 C   0  0  0  0  0  0  0  0  0  0  0  0
  140.3220   81.1140  220.9020 C   0  0  0  0  0  0  0  0  0  0  0  0
  141.1370   80.5260  219.9350 C   0  0  0  0  0  0  0  0  0  0  0  0
  141.3840   79.2000  220.0030 N   0  0  0  0  0  0  0  0  0  0  0  0
  142.2040   76.9960  221.1900 H   0  0  0  0  0  0  0  0  0  0  0  0
  143.5111   74.7993  219.7170 H   0  0  0  0  0  0  0  0  0  0  0  0
  143.0435   74.8842  221.4747 H   0  0  0  0  0  0  0  0  0  0  0  0
  139.5752   76.3185  219.2780 H   0  0  0  0  0  0  0  0  0  0  0  0
  139.2952   74.6914  218.6212 H   0  0  0  0  0  0  0  0  0  0  0  0
  137.5822   76.2871  220.3673 H   0  0  0  0  0  0  0  0  0  0  0  0
  137.2010   74.7423  219.6074 H   0  0  0  0  0  0  0  0  0  0  0  0
  137.5513   75.0003  222.3305 H   0  0  0  0  0  0  0  0  0  0  0  0
  137.9629   73.5026  221.5322 H   0  0  0  0  0  0  0  0  0  0  0  0
  140.0917   74.2375  222.5732 H   0  0  0  0  0  0  0  0  0  0  0  0
  138.8714   79.4060  222.5883 H   0  0  0  0  0  0  0  0  0  0  0  0
  141.9058   78.5615  224.5894 H   0  0  0  0  0  0  0  0  0  0  0  0
  143.4621   78.4638  222.6609 H   0  0  0  0  0  0  0  0  0  0  0  0
  142.4876   79.4843  221.6586 H   0  0  0  0  0  0  0  0  0  0  0  0
  144.0852   80.1930  224.2025 H   0  0  0  0  0  0  0  0  0  0  0  0
  143.9796   81.1466  222.7241 H   0  0  0  0  0  0  0  0  0  0  0  0
  142.3880   81.4625  225.0817 H   0  0  0  0  0  0  0  0  0  0  0  0
  142.0746   82.2482  223.5206 H   0  0  0  0  0  0  0  0  0  0  0  0
  140.3474   80.4188  224.7152 H   0  0  0  0  0  0  0  0  0  0  0  0
  140.3548   80.6982  222.9898 H   0  0  0  0  0  0  0  0  0  0  0  0
  143.3678   78.8913  217.2943 H   0  0  0  0  0  0  0  0  0  0  0  0
  142.9264   81.3570  217.1405 H   0  0  0  0  0  0  0  0  0  0  0  0
  141.8245   83.2731  218.0938 H   0  0  0  0  0  0  0  0  0  0  0  0
  139.4215   82.9346  221.5964 H   0  0  0  0  0  0  0  0  0  0  0  0
  139.8879   80.5061  221.7095 H   0  0  0  0  0  0  0  0  0  0  0  0
  1  2  2  0
  2  3  1  0
  3  4  1  0
  4  5  1  0
  5  6  2  0
  5  7  1  0
  7  8  1  0
  8  9  1  0
  9 10  1  0
 10 11  1  0
 11 12  1  0
 12 13  2  0
 13 14  1  0
 14 15  2  0
 15 16  1  0
 16 17  1  0
 17 18  1  0
 18 19  1  0
 19 20  1  0
 15 21  1  0
  2 22  1  0
 22 23  2  0
 23 24  1  0
 24 25  2  0
 25 26  1  0
 26 27  2  0
 27 28  1  0
 27 29  1  0
 29 30  2  0
 30 31  1  0
 31 32  2  0
 11  7  1  0
 21 12  1  0
 32 22  1  0
 20 16  1  0
 31 25  1  0
  3 33  1  0
  4 34  1  0
  4 35  1  0
  8 36  1  0
  8 37  1  0
  9 38  1  0
  9 39  1  0
 10 40  1  0
 10 41  1  0
 11 42  1  1
 14 43  1  0
 16 44  1  0
 17 45  1  0
 17 46  1  0
 18 47  1  0
 18 48  1  0
 19 49  1  0
 19 50  1  0
 20 51  1  0
 20 52  1  0
 23 53  1  0
 24 54  1  0
 26 55  1  0
 29 56  1  0
 30 57  1  0
M  END
>  <smiles>  (48) 
O=C(NCC(=O)N1CCC[C@@H]1c1ncc(C2CCCC2)o1)c1ccc2cc(Cl)ccc2n1

>  <score_type>  (48) 
oracle

>  <origin>  (48) 
autodockgpu

>  <m_score__min__energy>  (48) 
-8.9900000000000002

>  <m_primary>  (48) 
energy

>  <rmsd>  (48) 
8.379782254078584

>  <m_score__min__rmsd>  (48) 
8.379782254078584

>  <meeko>  (48) 
{"free_energy": -6.56, "intermolecular_energy": -8.35, "internal_energy": -4.18, "cluster_size": 14, "cluster_id": 8, "rank_in_cluster": 3}

>  <energy>  (48) 
-5.92

>  <cluster_rmsd>  (48) 
0.86

>  <cluster>  (48) 
10

$$$$

     RDKit          3D

 57 61  0  0  0  0  0  0  0  0999 V2000
  138.8460   71.8250  220.8320 O   0  0  0  0  0  0  0  0  0  0  0  0
  139.1820   72.2780  221.9640 C   0  0  0  0  0  0  0  0  0  0  0  0
  139.2920   73.6910  222.0910 N   0  0  0  0  0  0  0  0  0  0  0  0
  139.0500   74.6250  221.0370 C   0  0  0  0  0  0  0  0  0  0  0  0
  139.8400   74.3270  219.8120 C   0  0  0  0  0  0  0  0  0  0  0  0
  139.3940   73.6610  218.8440 O   0  0  0  0  0  0  0  0  0  0  0  0
  141.1720   74.8280  219.7380 N   0  0  0  0  0  0  0  0  0  0  0  0
  142.1700   74.7120  220.7760 C   0  0  0  0  0  0  0  0  0  0  0  0
  143.5070   74.9060  220.1160 C   0  0  0  0  0  0  0  0  0  0  0  0
  143.1980   75.0170  218.6370 C   0  0  0  0  0  0  0  0  0  0  0  0
  141.7980   75.5400  218.6420 C   0  0  2  0  0  0  0  0  0  0  0  0
  141.8760   76.9840  219.0460 C   0  0  0  0  0  0  0  0  0  0  0  0
  142.3120   78.0310  218.3250 N   0  0  0  0  0  0  0  0  0  0  0  0
  142.1760   79.1120  219.1440 C   0  0  0  0  0  0  0  0  0  0  0  0
  141.6580   78.6890  220.3490 C   0  0  0  0  0  0  0  0  0  0  0  0
  141.3400   79.5270  221.5550 C   0  0  0  0  0  0  0  0  0  0  0  0
  140.9730   78.6470  222.7400 C   0  0  0  0  0  0  0  0  0  0  0  0
  141.0700   79.6730  223.8710 C   0  0  0  0  0  0  0  0  0  0  0  0
  142.2000   80.6040  223.4530 C   0  0  0  0  0  0  0  0  0  0  0  0
  142.5660   80.2280  222.0310 C   0  0  0  0  0  0  0  0  0  0  0  0
  141.4960   77.3900  220.2340 O   0  0  0  0  0  0  0  0  0  0  0  0
  139.4500   71.3950  223.1030 C   0  0  0  0  0  0  0  0  0  0  0  0
  139.1040   70.0650  222.9880 C   0  0  0  0  0  0  0  0  0  0  0  0
  139.3270   69.1650  224.0270 C   0  0  0  0  0  0  0  0  0  0  0  0
  139.9110   69.6750  225.1740 C   0  0  0  0  0  0  0  0  0  0  0  0
  140.1660   68.8500  226.2520 C   0  0  0  0  0  0  0  0  0  0  0  0
  140.7450   69.2970  227.4220 C   0  0  0  0  0  0  0  0  0  0  0  0
  141.0320   68.1830  228.7370 Cl  0  0  0  0  0  0  0  0  0  0  0  0
  141.0720   70.6360  227.4860 C   0  0  0  0  0  0  0  0  0  0  0  0
  140.8370   71.5080  226.4340 C   0  0  0  0  0  0  0  0  0  0  0  0
  140.2500   71.0210  225.2670 C   0  0  0  0  0  0  0  0  0  0  0  0
  140.0220   71.8710  224.2420 N   0  0  0  0  0  0  0  0  0  0  0  0
  139.5730   74.0740  223.0320 H   0  0  0  0  0  0  0  0  0  0  0  0
  137.9805   74.5974  220.7812 H   0  0  0  0  0  0  0  0  0  0  0  0
  139.3572   75.6181  221.3966 H   0  0  0  0  0  0  0  0  0  0  0  0
  142.0105   75.4843  221.5428 H   0  0  0  0  0  0  0  0  0  0  0  0
  142.1126   73.7315  221.2712 H   0  0  0  0  0  0  0  0  0  0  0  0
  143.9892   75.8249  220.4808 H   0  0  0  0  0  0  0  0  0  0  0  0
  144.2005   74.0804  220.3338 H   0  0  0  0  0  0  0  0  0  0  0  0
  143.8834   75.7183  218.1385 H   0  0  0  0  0  0  0  0  0  0  0  0
  143.3118   74.0688  218.0911 H   0  0  0  0  0  0  0  0  0  0  0  0
  141.2746   75.4268  217.6812 H   0  0  0  0  0  0  0  0  0  0  0  0
  142.4363   80.1492  218.8861 H   0  0  0  0  0  0  0  0  0  0  0  0
  140.5300   80.2072  221.2527 H   0  0  0  0  0  0  0  0  0  0  0  0
  139.9563   78.2380  222.6456 H   0  0  0  0  0  0  0  0  0  0  0  0
  141.6033   77.7546  222.8679 H   0  0  0  0  0  0  0  0  0  0  0  0
  140.1264   80.2293  223.9720 H   0  0  0  0  0  0  0  0  0  0  0  0
  141.2594   79.2006  224.8462 H   0  0  0  0  0  0  0  0  0  0  0  0
  141.8646   81.6508  223.4946 H   0  0  0  0  0  0  0  0  0  0  0  0
  143.0652   80.5051  224.1251 H   0  0  0  0  0  0  0  0  0  0  0  0
  142.7731   81.1220  221.4245 H   0  0  0  0  0  0  0  0  0  0  0  0
  143.4762   79.6143  221.9609 H   0  0  0  0  0  0  0  0  0  0  0  0
  138.6421   69.7075  222.0559 H   0  0  0  0  0  0  0  0  0  0  0  0
  139.0531   68.1031  223.9408 H   0  0  0  0  0  0  0  0  0  0  0  0
  139.8948   67.7868  226.1742 H   0  0  0  0  0  0  0  0  0  0  0  0
  141.5356   71.0255  228.4043 H   0  0  0  0  0  0  0  0  0  0  0  0
  141.1101   72.5702  226.5190 H   0  0  0  0  0  0  0  0  0  0  0  0
  1  2  2  0
  2  3  1  0
  3  4  1  0
  4  5  1  0
  5  6  2  0
  5  7  1  0
  7  8  1  0
  8  9  1  0
  9 10  1  0
 10 11  1  0
 11 12  1  0
 12 13  2  0
 13 14  1  0
 14 15  2  0
 15 16  1  0
 16 17  1  0
 17 18  1  0
 18 19  1  0
 19 20  1  0
 15 21  1  0
  2 22  1  0
 22 23  2  0
 23 24  1  0
 24 25  2  0
 25 26  1  0
 26 27  2  0
 27 28  1  0
 27 29  1  0
 29 30  2  0
 30 31  1  0
 31 32  2  0
 11  7  1  0
 21 12  1  0
 32 22  1  0
 20 16  1  0
 31 25  1  0
  3 33  1  0
  4 34  1  0
  4 35  1  0
  8 36  1  0
  8 37  1  0
  9 38  1  0
  9 39  1  0
 10 40  1  0
 10 41  1  0
 11 42  1  6
 14 43  1  0
 16 44  1  0
 17 45  1  0
 17 46  1  0
 18 47  1  0
 18 48  1  0
 19 49  1  0
 19 50  1  0
 20 51  1  0
 20 52  1  0
 23 53  1  0
 24 54  1  0
 26 55  1  0
 29 56  1  0
 30 57  1  0
M  END
>  <smiles>  (49) 
O=C(NCC(=O)N1CCC[C@@H]1c1ncc(C2CCCC2)o1)c1ccc2cc(Cl)ccc2n1

>  <score_type>  (49) 
oracle

>  <origin>  (49) 
autodockgpu

>  <m_score__min__energy>  (49) 
-8.9900000000000002

>  <m_primary>  (49) 
energy

>  <rmsd>  (49) 
2.8646550279704632

>  <m_score__min__rmsd>  (49) 
2.8646550279704632

>  <meeko>  (49) 
{"free_energy": -8.51, "intermolecular_energy": -10.3, "internal_energy": -2.02, "cluster_size": 11, "cluster_id": 1, "rank_in_cluster": 9}

>  <energy>  (49) 
-5.93

>  <cluster_rmsd>  (49) 
0.0

>  <cluster>  (49) 
11

$$$$

     RDKit          3D

 57 61  0  0  0  0  0  0  0  0999 V2000
  136.2910   71.2270  221.7840 O   0  0  0  0  0  0  0  0  0  0  0  0
  137.2120   71.7230  222.4950 C   0  0  0  0  0  0  0  0  0  0  0  0
  137.6140   73.0550  222.1970 N   0  0  0  0  0  0  0  0  0  0  0  0
  137.0520   73.8640  221.1610 C   0  0  0  0  0  0  0  0  0  0  0  0
  137.5250   75.2740  221.2130 C   0  0  0  0  0  0  0  0  0  0  0  0
  136.7690   76.2500  221.4520 O   0  0  0  0  0  0  0  0  0  0  0  0
  138.9070   75.5240  220.9810 N   0  0  0  0  0  0  0  0  0  0  0  0
  139.5010   75.8190  219.6970 C   0  0  0  0  0  0  0  0  0  0  0  0
  140.8200   76.4860  219.9720 C   0  0  0  0  0  0  0  0  0  0  0  0
  140.8660   76.6500  221.4780 C   0  0  0  0  0  0  0  0  0  0  0  0
  139.9880   75.5360  221.9470 C   0  0  2  0  0  0  0  0  0  0  0  0
  140.7610   74.2640  221.7550 C   0  0  0  0  0  0  0  0  0  0  0  0
  140.3980   73.0090  222.0710 N   0  0  0  0  0  0  0  0  0  0  0  0
  141.4480   72.2270  221.6950 C   0  0  0  0  0  0  0  0  0  0  0  0
  142.4280   73.0330  221.1580 C   0  0  0  0  0  0  0  0  0  0  0  0
  143.7640   72.6120  220.6120 C   0  0  0  0  0  0  0  0  0  0  0  0
  143.7110   72.4910  219.0960 C   0  0  0  0  0  0  0  0  0  0  0  0
  145.2070   72.4330  218.7830 C   0  0  0  0  0  0  0  0  0  0  0  0
  145.8560   73.3290  219.8300 C   0  0  0  0  0  0  0  0  0  0  0  0
  144.7680   73.6920  220.8220 C   0  0  0  0  0  0  0  0  0  0  0  0
  141.9590   74.2580  221.2190 O   0  0  0  0  0  0  0  0  0  0  0  0
  137.8460   70.9680  223.5790 C   0  0  0  0  0  0  0  0  0  0  0  0
  137.3500   69.7150  223.8730 C   0  0  0  0  0  0  0  0  0  0  0  0
  137.9000   68.9380  224.8890 C   0  0  0  0  0  0  0  0  0  0  0  0
  138.9650   69.4870  225.5830 C   0  0  0  0  0  0  0  0  0  0  0  0
  139.5680   68.7820  226.6060 C   0  0  0  0  0  0  0  0  0  0  0  0
  140.6320   69.2730  227.3340 C   0  0  0  0  0  0  0  0  0  0  0  0
  141.3350   68.3140  228.6130 Cl  0  0  0  0  0  0  0  0  0  0  0  0
  141.0910   70.5310  227.0000 C   0  0  0  0  0  0  0  0  0  0  0  0
  140.5220   71.2820  225.9820 C   0  0  0  0  0  0  0  0  0  0  0  0
  139.4480   70.7530  225.2670 C   0  0  0  0  0  0  0  0  0  0  0  0
  138.8940   71.4850  224.2750 N   0  0  0  0  0  0  0  0  0  0  0  0
  138.3820   73.4740  222.7860 H   0  0  0  0  0  0  0  0  0  0  0  0
  137.3323   73.4344  220.1879 H   0  0  0  0  0  0  0  0  0  0  0  0
  135.9611   73.8741  221.3021 H   0  0  0  0  0  0  0  0  0  0  0  0
  139.6575   74.8897  219.1296 H   0  0  0  0  0  0  0  0  0  0  0  0
  138.8463   76.4702  219.0993 H   0  0  0  0  0  0  0  0  0  0  0  0
  141.6523   75.8558  219.6255 H   0  0  0  0  0  0  0  0  0  0  0  0
  140.9157   77.4479  219.4470 H   0  0  0  0  0  0  0  0  0  0  0  0
  141.8914   76.5367  221.8598 H   0  0  0  0  0  0  0  0  0  0  0  0
  140.5402   77.6424  221.8230 H   0  0  0  0  0  0  0  0  0  0  0  0
  139.6521   75.6396  222.9893 H   0  0  0  0  0  0  0  0  0  0  0  0
  141.5042   71.1337  221.8023 H   0  0  0  0  0  0  0  0  0  0  0  0
  144.0186   71.6671  221.1143 H   0  0  0  0  0  0  0  0  0  0  0  0
  143.1912   71.5754  218.7773 H   0  0  0  0  0  0  0  0  0  0  0  0
  143.1612   73.2954  218.5855 H   0  0  0  0  0  0  0  0  0  0  0  0
  145.5815   71.4023  218.8685 H   0  0  0  0  0  0  0  0  0  0  0  0
  145.4307   72.7618  217.7574 H   0  0  0  0  0  0  0  0  0  0  0  0
  146.6696   72.7910  220.3386 H   0  0  0  0  0  0  0  0  0  0  0  0
  146.2897   74.2287  219.3692 H   0  0  0  0  0  0  0  0  0  0  0  0
  145.1514   73.6829  221.8530 H   0  0  0  0  0  0  0  0  0  0  0  0
  144.3606   74.7031  220.6743 H   0  0  0  0  0  0  0  0  0  0  0  0
  136.5024   69.3215  223.2928 H   0  0  0  0  0  0  0  0  0  0  0  0
  137.5082   67.9384  225.1283 H   0  0  0  0  0  0  0  0  0  0  0  0
  139.1817   67.7819  226.8520 H   0  0  0  0  0  0  0  0  0  0  0  0
  141.9380   70.9530  227.5609 H   0  0  0  0  0  0  0  0  0  0  0  0
  140.9129   72.2818  225.7419 H   0  0  0  0  0  0  0  0  0  0  0  0
  1  2  2  0
  2  3  1  0
  3  4  1  0
  4  5  1  0
  5  6  2  0
  5  7  1  0
  7  8  1  0
  8  9  1  0
  9 10  1  0
 10 11  1  0
 11 12  1  0
 12 13  2  0
 13 14  1  0
 14 15  2  0
 15 16  1  0
 16 17  1  0
 17 18  1  0
 18 19  1  0
 19 20  1  0
 15 21  1  0
  2 22  1  0
 22 23  2  0
 23 24  1  0
 24 25  2  0
 25 26  1  0
 26 27  2  0
 27 28  1  0
 27 29  1  0
 29 30  2  0
 30 31  1  0
 31 32  2  0
 11  7  1  0
 21 12  1  0
 32 22  1  0
 20 16  1  0
 31 25  1  0
  3 33  1  0
  4 34  1  0
  4 35  1  0
  8 36  1  0
  8 37  1  0
  9 38  1  0
  9 39  1  0
 10 40  1  0
 10 41  1  0
 11 42  1  1
 14 43  1  0
 16 44  1  0
 17 45  1  0
 17 46  1  0
 18 47  1  0
 18 48  1  0
 19 49  1  0
 19 50  1  0
 20 51  1  0
 20 52  1  0
 23 53  1  0
 24 54  1  0
 26 55  1  0
 29 56  1  0
 30 57  1  0
M  END
>  <smiles>  (50) 
O=C(NCC(=O)N1CCC[C@@H]1c1ncc(C2CCCC2)o1)c1ccc2cc(Cl)ccc2n1

>  <score_type>  (50) 
oracle

>  <origin>  (50) 
autodockgpu

>  <m_score__min__energy>  (50) 
-8.9900000000000002

>  <m_primary>  (50) 
energy

>  <rmsd>  (50) 
5.289352366074309

>  <m_score__min__rmsd>  (50) 
5.289352366074309

>  <meeko>  (50) 
{"free_energy": -7.41, "intermolecular_energy": -9.2, "internal_energy": -2.98, "cluster_size": 2, "cluster_id": 5, "rank_in_cluster": 1}

>  <energy>  (50) 
-5.85

>  <cluster_rmsd>  (50) 
0.0

>  <cluster>  (50) 
12

$$$$
