
     RDKit          3D

 57 60  0  0  0  0  0  0  0  0999 V2000
  143.5250   76.3930  219.6000 C   0  0  0  0  0  0  0  0  0  0  0  0
  142.5560   77.4020  219.0790 C   0  0  0  0  0  0  0  0  0  0  0  0
  141.2430   77.2620  219.7620 C   0  0  0  0  0  0  0  0  0  0  0  0
  140.2150   77.0940  219.0590 O   0  0  0  0  0  0  0  0  0  0  0  0
  141.1840   77.3210  221.2020 N   0  0  0  0  0  0  0  0  0  0  0  0
  141.5190   78.5520  221.8710 C   0  0  0  0  0  0  0  0  0  0  0  0
  141.5460   79.7160  221.1280 C   0  0  0  0  0  0  0  0  0  0  0  0
  141.8590   80.9400  221.6990 C   0  0  0  0  0  0  0  0  0  0  0  0
  142.1510   80.9570  223.0670 C   0  0  0  0  0  0  0  0  0  0  0  0
  142.1260   79.7990  223.8150 C   0  0  0  0  0  0  0  0  0  0  0  0
  141.8090   78.5810  223.2210 C   0  0  0  0  0  0  0  0  0  0  0  0
  140.7910   76.1360  221.9400 C   0  0  0  0  0  0  0  0  0  0  0  0
  141.1470   74.9400  221.0930 C   0  0  0  0  0  0  0  0  0  0  0  0
  140.7680   73.7330  221.9600 C   0  0  0  0  0  0  0  0  0  0  0  0
  139.3050   73.7490  221.9640 N   0  0  0  0  0  0  0  0  0  0  0  0
  138.5830   72.5170  221.9740 C   0  0  0  0  0  0  0  0  0  0  0  0
  137.3160   72.4770  221.9750 O   0  0  0  0  0  0  0  0  0  0  0  0
  139.3120   71.2400  221.9840 C   0  0  0  0  0  0  0  0  0  0  0  0
  139.5120   70.7720  223.3750 C   0  0  0  0  0  0  0  0  0  0  0  0
  139.0620   69.5200  223.7300 C   0  0  0  0  0  0  0  0  0  0  0  0
  139.2060   69.0160  224.9780 N   0  0  0  0  0  0  0  0  0  0  0  0
  139.8260   69.8030  225.9050 C   0  0  0  0  0  0  0  0  0  0  0  0
  139.9990   69.3420  227.1870 C   0  0  0  0  0  0  0  0  0  0  0  0
  140.6150   70.0740  228.1790 C   0  0  0  0  0  0  0  0  0  0  0  0
  141.0780   71.3470  227.8380 C   0  0  0  0  0  0  0  0  0  0  0  0
  140.9200   71.8490  226.5490 C   0  0  0  0  0  0  0  0  0  0  0  0
  140.2910   71.0670  225.5880 C   0  0  0  0  0  0  0  0  0  0  0  0
  140.1410   71.5850  224.2980 C   0  0  0  0  0  0  0  0  0  0  0  0
  138.5550   74.9770  221.9600 C   0  0  0  0  0  0  0  0  0  0  0  0
  139.3460   76.1890  222.3100 C   0  0  0  0  0  0  0  0  0  0  0  0
  143.5123   76.4062  220.6999 H   0  0  0  0  0  0  0  0  0  0  0  0
  143.2406   75.3925  219.2420 H   0  0  0  0  0  0  0  0  0  0  0  0
  144.5362   76.6367  219.2420 H   0  0  0  0  0  0  0  0  0  0  0  0
  142.9525   78.4120  219.2597 H   0  0  0  0  0  0  0  0  0  0  0  0
  142.4159   77.2378  218.0004 H   0  0  0  0  0  0  0  0  0  0  0  0
  141.3128   79.6707  220.0540 H   0  0  0  0  0  0  0  0  0  0  0  0
  141.8770   81.8621  221.0995 H   0  0  0  0  0  0  0  0  0  0  0  0
  142.4048   81.9101  223.5540 H   0  0  0  0  0  0  0  0  0  0  0  0
  142.3584   79.8382  224.8895 H   0  0  0  0  0  0  0  0  0  0  0  0
  141.7898   77.6566  223.8169 H   0  0  0  0  0  0  0  0  0  0  0  0
  141.3278   76.0666  222.8976 H   0  0  0  0  0  0  0  0  0  0  0  0
  140.5718   74.9418  220.1554 H   0  0  0  0  0  0  0  0  0  0  0  0
  142.2082   74.9319  220.8034 H   0  0  0  0  0  0  0  0  0  0  0  0
  141.1481   72.7996  221.5192 H   0  0  0  0  0  0  0  0  0  0  0  0
  141.1959   73.7862  222.9720 H   0  0  0  0  0  0  0  0  0  0  0  0
  138.7334   70.4877  221.4279 H   0  0  0  0  0  0  0  0  0  0  0  0
  140.2945   71.3856  221.5112 H   0  0  0  0  0  0  0  0  0  0  0  0
  138.5644   68.9033  222.9671 H   0  0  0  0  0  0  0  0  0  0  0  0
  139.6268   68.3370  227.4348 H   0  0  0  0  0  0  0  0  0  0  0  0
  140.7369   69.6729  229.1960 H   0  0  0  0  0  0  0  0  0  0  0  0
  141.5760   71.9634  228.6009 H   0  0  0  0  0  0  0  0  0  0  0  0
  141.2890   72.8535  226.2942 H   0  0  0  0  0  0  0  0  0  0  0  0
  140.5051   72.5883  224.0317 H   0  0  0  0  0  0  0  0  0  0  0  0
  138.1364   75.1198  220.9528 H   0  0  0  0  0  0  0  0  0  0  0  0
  137.7840   74.8733  222.7377 H   0  0  0  0  0  0  0  0  0  0  0  0
  138.8946   77.0499  221.7950 H   0  0  0  0  0  0  0  0  0  0  0  0
  139.3153   76.2661  223.4069 H   0  0  0  0  0  0  0  0  0  0  0  0
  1  2  1  0
  2  3  1  0
  3  4  2  0
  3  5  1  0
  5  6  1  0
  6  7  2  0
  7  8  1  0
  8  9  2  0
  9 10  1  0
 10 11  2  0
  5 12  1  0
 12 13  1  0
 13 14  1  0
 14 15  1  0
 15 16  1  0
 16 17  2  0
 16 18  1  0
 18 19  1  0
 19 20  2  0
 20 21  1  0
 21 22  2  0
 22 23  1  0
 23 24  2  0
 24 25  1  0
 25 26  2  0
 26 27  1  0
 27 28  2  0
 15 29  1  0
 29 30  1  0
 11  6  1  0
 30 12  1  0
 28 19  1  0
 27 22  1  0
  1 31  1  0
  1 32  1  0
  1 33  1  0
  2 34  1  0
  2 35  1  0
  7 36  1  0
  8 37  1  0
  9 38  1  0
 10 39  1  0
 11 40  1  0
 12 41  1  0
 13 42  1  0
 13 43  1  0
 14 44  1  0
 14 45  1  0
 18 46  1  0
 18 47  1  0
 20 48  1  0
 23 49  1  0
 24 50  1  0
 25 51  1  0
 26 52  1  0
 28 53  1  0
 29 54  1  0
 29 55  1  0
 30 56  1  0
 30 57  1  0
M  END
>  <smiles>  (1) 
CCC(=O)N(c1ccccc1)C1CCN(C(=O)Cc2cnc3ccccc3c2)CC1

>  <score_type>  (1) 
oracle

>  <origin>  (1) 
autodockgpu

>  <m_score__min__energy>  (1) 
-8.8599999999999994

>  <m_primary>  (1) 
energy

>  <rmsd>  (1) 
8.290585905961128

>  <m_score__min__rmsd>  (1) 
8.290585905961128

>  <meeko>  (1) 
{"free_energy": -8.74, "intermolecular_energy": -10.53, "internal_energy": -1.49, "cluster_size": 43, "cluster_id": 1, "rank_in_cluster": 19}

>  <energy>  (1) 
-8.86

>  <cluster_rmsd>  (1) 
0.0

>  <cluster>  (1) 
1

$$$$

     RDKit          3D

 57 60  0  0  0  0  0  0  0  0999 V2000
  142.1900   79.6200  218.7800 C   0  0  0  0  0  0  0  0  0  0  0  0
  142.0920   78.1910  219.2050 C   0  0  0  0  0  0  0  0  0  0  0  0
  140.8440   77.9650  219.9810 C   0  0  0  0  0  0  0  0  0  0  0  0
  139.7610   77.8420  219.3540 O   0  0  0  0  0  0  0  0  0  0  0  0
  140.9080   77.8930  221.4190 N   0  0  0  0  0  0  0  0  0  0  0  0
  141.2570   79.0710  222.1700 C   0  0  0  0  0  0  0  0  0  0  0  0
  142.5940   79.3270  222.4030 C   0  0  0  0  0  0  0  0  0  0  0  0
  143.0110   80.4400  223.1170 C   0  0  0  0  0  0  0  0  0  0  0  0
  142.0220   81.3030  223.6010 C   0  0  0  0  0  0  0  0  0  0  0  0
  140.6860   81.0540  223.3720 C   0  0  0  0  0  0  0  0  0  0  0  0
  140.2890   79.9310  222.6520 C   0  0  0  0  0  0  0  0  0  0  0  0
  140.6190   76.6310  222.0740 C   0  0  0  0  0  0  0  0  0  0  0  0
  141.0990   75.5310  221.1620 C   0  0  0  0  0  0  0  0  0  0  0  0
  140.8260   74.2400  221.9440 C   0  0  0  0  0  0  0  0  0  0  0  0
  139.3680   74.1180  221.9210 N   0  0  0  0  0  0  0  0  0  0  0  0
  138.7660   72.8250  221.8410 C   0  0  0  0  0  0  0  0  0  0  0  0
  137.5090   72.6650  221.8140 O   0  0  0  0  0  0  0  0  0  0  0  0
  139.6130   71.6250  221.7850 C   0  0  0  0  0  0  0  0  0  0  0  0
  139.7660   71.0390  223.1360 C   0  0  0  0  0  0  0  0  0  0  0  0
  139.3680   69.7390  223.3500 C   0  0  0  0  0  0  0  0  0  0  0  0
  139.4740   69.1280  224.5540 N   0  0  0  0  0  0  0  0  0  0  0  0
  140.0020   69.8540  225.5820 C   0  0  0  0  0  0  0  0  0  0  0  0
  140.1330   69.2840  226.8250 C   0  0  0  0  0  0  0  0  0  0  0  0
  140.6560   69.9500  227.9120 C   0  0  0  0  0  0  0  0  0  0  0  0
  141.0660   71.2700  227.7140 C   0  0  0  0  0  0  0  0  0  0  0  0
  140.9480   71.8820  226.4700 C   0  0  0  0  0  0  0  0  0  0  0  0
  140.4130   71.1630  225.4070 C   0  0  0  0  0  0  0  0  0  0  0  0
  140.3030   71.7920  224.1630 C   0  0  0  0  0  0  0  0  0  0  0  0
  138.5040   75.2660  221.9800 C   0  0  0  0  0  0  0  0  0  0  0  0
  139.1710   76.5230  222.4200 C   0  0  0  0  0  0  0  0  0  0  0  0
  142.2342   80.2650  219.6699 H   0  0  0  0  0  0  0  0  0  0  0  0
  143.1000   79.7621  218.1786 H   0  0  0  0  0  0  0  0  0  0  0  0
  141.3079   79.8850  218.1786 H   0  0  0  0  0  0  0  0  0  0  0  0
  142.0857   77.5473  218.3130 H   0  0  0  0  0  0  0  0  0  0  0  0
  142.9562   77.9479  219.8407 H   0  0  0  0  0  0  0  0  0  0  0  0
  143.3486   78.6289  222.0115 H   0  0  0  0  0  0  0  0  0  0  0  0
  144.0783   80.6368  223.2960 H   0  0  0  0  0  0  0  0  0  0  0  0
  142.3156   82.1950  224.1738 H   0  0  0  0  0  0  0  0  0  0  0  0
  139.9271   81.7486  223.7615 H   0  0  0  0  0  0  0  0  0  0  0  0
  139.2227   79.7315  222.4698 H   0  0  0  0  0  0  0  0  0  0  0  0
  141.1467   76.5520  223.0359 H   0  0  0  0  0  0  0  0  0  0  0  0
  140.5390   75.5383  220.2153 H   0  0  0  0  0  0  0  0  0  0  0  0
  142.1600   75.6421  220.8938 H   0  0  0  0  0  0  0  0  0  0  0  0
  141.2990   73.3770  221.4526 H   0  0  0  0  0  0  0  0  0  0  0  0
  141.2339   74.2676  222.9652 H   0  0  0  0  0  0  0  0  0  0  0  0
  139.1479   70.8836  221.1187 H   0  0  0  0  0  0  0  0  0  0  0  0
  140.6055   71.9058  221.4029 H   0  0  0  0  0  0  0  0  0  0  0  0
  138.9458   69.1721  222.5072 H   0  0  0  0  0  0  0  0  0  0  0  0
  139.8037   68.2431  226.9594 H   0  0  0  0  0  0  0  0  0  0  0  0
  140.7467   69.4625  228.8939 H   0  0  0  0  0  0  0  0  0  0  0  0
  141.4898   71.8361  228.5565 H   0  0  0  0  0  0  0  0  0  0  0  0
  141.2743   72.9230  226.3291 H   0  0  0  0  0  0  0  0  0  0  0  0
  140.6270   72.8320  224.0098 H   0  0  0  0  0  0  0  0  0  0  0  0
  138.0862   75.4327  220.9762 H   0  0  0  0  0  0  0  0  0  0  0  0
  137.7367   75.0398  222.7351 H   0  0  0  0  0  0  0  0  0  0  0  0
  138.6457   77.3685  221.9518 H   0  0  0  0  0  0  0  0  0  0  0  0
  139.1195   76.5264  223.5188 H   0  0  0  0  0  0  0  0  0  0  0  0
  1  2  1  0
  2  3  1  0
  3  4  2  0
  3  5  1  0
  5  6  1  0
  6  7  2  0
  7  8  1  0
  8  9  2  0
  9 10  1  0
 10 11  2  0
  5 12  1  0
 12 13  1  0
 13 14  1  0
 14 15  1  0
 15 16  1  0
 16 17  2  0
 16 18  1  0
 18 19  1  0
 19 20  2  0
 20 21  1  0
 21 22  2  0
 22 23  1  0
 23 24  2  0
 24 25  1  0
 25 26  2  0
 26 27  1  0
 27 28  2  0
 15 29  1  0
 29 30  1  0
 11  6  1  0
 30 12  1  0
 28 19  1  0
 27 22  1  0
  1 31  1  0
  1 32  1  0
  1 33  1  0
  2 34  1  0
  2 35  1  0
  7 36  1  0
  8 37  1  0
  9 38  1  0
 10 39  1  0
 11 40  1  0
 12 41  1  0
 13 42  1  0
 13 43  1  0
 14 44  1  0
 14 45  1  0
 18 46  1  0
 18 47  1  0
 20 48  1  0
 23 49  1  0
 24 50  1  0
 25 51  1  0
 26 52  1  0
 28 53  1  0
 29 54  1  0
 29 55  1  0
 30 56  1  0
 30 57  1  0
M  END
>  <smiles>  (2) 
CCC(=O)N(c1ccccc1)C1CCN(C(=O)Cc2cnc3ccccc3c2)CC1

>  <score_type>  (2) 
oracle

>  <origin>  (2) 
autodockgpu

>  <m_score__min__energy>  (2) 
-8.8599999999999994

>  <m_primary>  (2) 
energy

>  <rmsd>  (2) 
8.183192249460872

>  <m_score__min__rmsd>  (2) 
8.183192249460872

>  <meeko>  (2) 
{"free_energy": -8.37, "intermolecular_energy": -10.16, "internal_energy": -1.55, "cluster_size": 43, "cluster_id": 1, "rank_in_cluster": 41}

>  <energy>  (2) 
-8.85

>  <cluster_rmsd>  (2) 
0.08

>  <cluster>  (2) 
1

$$$$

     RDKit          3D

 57 60  0  0  0  0  0  0  0  0999 V2000
  138.0450   80.4480  223.6430 C   0  0  0  0  0  0  0  0  0  0  0  0
  137.4410   79.2010  223.0870 C   0  0  0  0  0  0  0  0  0  0  0  0
  138.0750   78.8510  221.7880 C   0  0  0  0  0  0  0  0  0  0  0  0
  137.4930   79.1880  220.7260 O   0  0  0  0  0  0  0  0  0  0  0  0
  139.3310   78.1430  221.7810 N   0  0  0  0  0  0  0  0  0  0  0  0
  140.5150   78.8030  222.2670 C   0  0  0  0  0  0  0  0  0  0  0  0
  141.1330   79.7290  221.4480 C   0  0  0  0  0  0  0  0  0  0  0  0
  142.2760   80.4050  221.8450 C   0  0  0  0  0  0  0  0  0  0  0  0
  142.7910   80.1160  223.1120 C   0  0  0  0  0  0  0  0  0  0  0  0
  142.1800   79.1940  223.9350 C   0  0  0  0  0  0  0  0  0  0  0  0
  141.0320   78.5260  223.5180 C   0  0  0  0  0  0  0  0  0  0  0  0
  139.3690   76.7820  221.2820 C   0  0  0  0  0  0  0  0  0  0  0  0
  138.7550   75.8980  222.3380 C   0  0  0  0  0  0  0  0  0  0  0  0
  138.7670   74.4960  221.7160 C   0  0  0  0  0  0  0  0  0  0  0  0
  140.1820   74.1250  221.7150 N   0  0  0  0  0  0  0  0  0  0  0  0
  140.5600   72.7660  221.9400 C   0  0  0  0  0  0  0  0  0  0  0  0
  141.7710   72.3940  221.9520 O   0  0  0  0  0  0  0  0  0  0  0  0
  139.5250   71.7470  222.1690 C   0  0  0  0  0  0  0  0  0  0  0  0
  139.6600   71.1730  223.5270 C   0  0  0  0  0  0  0  0  0  0  0  0
  139.0900   69.9490  223.7950 C   0  0  0  0  0  0  0  0  0  0  0  0
  139.1670   69.3530  225.0090 N   0  0  0  0  0  0  0  0  0  0  0  0
  139.8450   70.0160  225.9910 C   0  0  0  0  0  0  0  0  0  0  0  0
  139.9550   69.4590  227.2410 C   0  0  0  0  0  0  0  0  0  0  0  0
  140.6220   70.0630  228.2850 C   0  0  0  0  0  0  0  0  0  0  0  0
  141.2070   71.3070  228.0320 C   0  0  0  0  0  0  0  0  0  0  0  0
  141.1160   71.9030  226.7780 C   0  0  0  0  0  0  0  0  0  0  0  0
  140.4310   71.2490  225.7620 C   0  0  0  0  0  0  0  0  0  0  0  0
  140.3490   71.8610  224.5070 C   0  0  0  0  0  0  0  0  0  0  0  0
  141.2250   75.0910  221.4890 C   0  0  0  0  0  0  0  0  0  0  0  0
  140.7600   76.3830  220.9140 C   0  0  0  0  0  0  0  0  0  0  0  0
  138.0250   80.4067  224.7420 H   0  0  0  0  0  0  0  0  0  0  0  0
  139.0858   80.5365  223.2983 H   0  0  0  0  0  0  0  0  0  0  0  0
  137.4692   81.3196  223.2983 H   0  0  0  0  0  0  0  0  0  0  0  0
  137.5937   78.3761  223.7985 H   0  0  0  0  0  0  0  0  0  0  0  0
  136.3657   79.3673  222.9253 H   0  0  0  0  0  0  0  0  0  0  0  0
  140.7066   79.9349  220.4551 H   0  0  0  0  0  0  0  0  0  0  0  0
  142.7601   81.1419  221.1872 H   0  0  0  0  0  0  0  0  0  0  0  0
  143.6984   80.6326  223.4580 H   0  0  0  0  0  0  0  0  0  0  0  0
  142.6028   78.9846  224.9287 H   0  0  0  0  0  0  0  0  0  0  0  0
  140.5444   77.7896  224.1738 H   0  0  0  0  0  0  0  0  0  0  0  0
  138.7889   76.6829  220.3527 H   0  0  0  0  0  0  0  0  0  0  0  0
  139.3540   75.9198  223.2603 H   0  0  0  0  0  0  0  0  0  0  0  0
  137.7427   76.2229  222.6201 H   0  0  0  0  0  0  0  0  0  0  0  0
  138.1783   73.7930  222.3236 H   0  0  0  0  0  0  0  0  0  0  0  0
  138.3213   74.4736  220.7106 H   0  0  0  0  0  0  0  0  0  0  0  0
  138.5320   72.2093  222.0676 H   0  0  0  0  0  0  0  0  0  0  0  0
  139.6442   70.9433  221.4275 H   0  0  0  0  0  0  0  0  0  0  0  0
  138.5486   69.4326  222.9886 H   0  0  0  0  0  0  0  0  0  0  0  0
  139.4864   68.4797  227.4185 H   0  0  0  0  0  0  0  0  0  0  0  0
  140.6909   69.5868  229.2742 H   0  0  0  0  0  0  0  0  0  0  0  0
  141.7486   71.8236  228.8381 H   0  0  0  0  0  0  0  0  0  0  0  0
  141.5818   72.8822  226.5931 H   0  0  0  0  0  0  0  0  0  0  0  0
  140.8097   72.8403  224.3103 H   0  0  0  0  0  0  0  0  0  0  0  0
  141.7133   75.3002  222.4522 H   0  0  0  0  0  0  0  0  0  0  0  0
  141.9054   74.6470  220.7474 H   0  0  0  0  0  0  0  0  0  0  0  0
  141.4427   77.1736  221.2588 H   0  0  0  0  0  0  0  0  0  0  0  0
  140.7584   76.2468  219.8225 H   0  0  0  0  0  0  0  0  0  0  0  0
  1  2  1  0
  2  3  1  0
  3  4  2  0
  3  5  1  0
  5  6  1  0
  6  7  2  0
  7  8  1  0
  8  9  2  0
  9 10  1  0
 10 11  2  0
  5 12  1  0
 12 13  1  0
 13 14  1  0
 14 15  1  0
 15 16  1  0
 16 17  2  0
 16 18  1  0
 18 19  1  0
 19 20  2  0
 20 21  1  0
 21 22  2  0
 22 23  1  0
 23 24  2  0
 24 25  1  0
 25 26  2  0
 26 27  1  0
 27 28  2  0
 15 29  1  0
 29 30  1  0
 11  6  1  0
 30 12  1  0
 28 19  1  0
 27 22  1  0
  1 31  1  0
  1 32  1  0
  1 33  1  0
  2 34  1  0
  2 35  1  0
  7 36  1  0
  8 37  1  0
  9 38  1  0
 10 39  1  0
 11 40  1  0
 12 41  1  0
 13 42  1  0
 13 43  1  0
 14 44  1  0
 14 45  1  0
 18 46  1  0
 18 47  1  0
 20 48  1  0
 23 49  1  0
 24 50  1  0
 25 51  1  0
 26 52  1  0
 28 53  1  0
 29 54  1  0
 29 55  1  0
 30 56  1  0
 30 57  1  0
M  END
>  <smiles>  (3) 
CCC(=O)N(c1ccccc1)C1CCN(C(=O)Cc2cnc3ccccc3c2)CC1

>  <score_type>  (3) 
oracle

>  <origin>  (3) 
autodockgpu

>  <m_score__min__energy>  (3) 
-8.8599999999999994

>  <m_primary>  (3) 
energy

>  <rmsd>  (3) 
8.139351673185521

>  <m_score__min__rmsd>  (3) 
8.139351673185521

>  <meeko>  (3) 
{"free_energy": -8.49, "intermolecular_energy": -10.28, "internal_energy": -1.54, "cluster_size": 43, "cluster_id": 1, "rank_in_cluster": 38}

>  <energy>  (3) 
-8.84

>  <cluster_rmsd>  (3) 
0.22

>  <cluster>  (3) 
1

$$$$

     RDKit          3D

 57 60  0  0  0  0  0  0  0  0999 V2000
  137.9840   80.5550  224.4250 C   0  0  0  0  0  0  0  0  0  0  0  0
  137.9770   80.2160  222.9700 C   0  0  0  0  0  0  0  0  0  0  0  0
  138.0900   78.7460  222.7790 C   0  0  0  0  0  0  0  0  0  0  0  0
  137.0810   78.0320  223.0060 O   0  0  0  0  0  0  0  0  0  0  0  0
  139.3440   78.1840  222.3420 N   0  0  0  0  0  0  0  0  0  0  0  0
  140.5610   78.9220  222.5570 C   0  0  0  0  0  0  0  0  0  0  0  0
  141.0510   79.6950  221.5220 C   0  0  0  0  0  0  0  0  0  0  0  0
  142.2170   80.4340  221.6520 C   0  0  0  0  0  0  0  0  0  0  0  0
  142.8890   80.3700  222.8770 C   0  0  0  0  0  0  0  0  0  0  0  0
  142.4050   79.6010  223.9150 C   0  0  0  0  0  0  0  0  0  0  0  0
  141.2330   78.8670  223.7630 C   0  0  0  0  0  0  0  0  0  0  0  0
  139.3450   76.8860  221.6940 C   0  0  0  0  0  0  0  0  0  0  0  0
  138.8120   75.8860  222.6880 C   0  0  0  0  0  0  0  0  0  0  0  0
  138.7780   74.5610  221.9150 C   0  0  0  0  0  0  0  0  0  0  0  0
  140.1900   74.2050  221.7680 N   0  0  0  0  0  0  0  0  0  0  0  0
  140.5830   72.8330  221.8130 C   0  0  0  0  0  0  0  0  0  0  0  0
  141.7920   72.4730  221.6940 O   0  0  0  0  0  0  0  0  0  0  0  0
  139.5690   71.7860  222.0040 C   0  0  0  0  0  0  0  0  0  0  0  0
  139.6480   71.2370  223.3770 C   0  0  0  0  0  0  0  0  0  0  0  0
  138.9730   70.0740  223.6720 C   0  0  0  0  0  0  0  0  0  0  0  0
  138.9930   69.5050  224.9000 N   0  0  0  0  0  0  0  0  0  0  0  0
  139.7220   70.1310  225.8690 C   0  0  0  0  0  0  0  0  0  0  0  0
  139.7780   69.5980  227.1340 C   0  0  0  0  0  0  0  0  0  0  0  0
  140.4910   70.1690  228.1660 C   0  0  0  0  0  0  0  0  0  0  0  0
  141.1840   71.3500  227.8860 C   0  0  0  0  0  0  0  0  0  0  0  0
  141.1500   71.9200  226.6170 C   0  0  0  0  0  0  0  0  0  0  0  0
  140.4140   71.3020  225.6130 C   0  0  0  0  0  0  0  0  0  0  0  0
  140.3910   71.8870  224.3430 C   0  0  0  0  0  0  0  0  0  0  0  0
  141.2120   75.1990  221.5740 C   0  0  0  0  0  0  0  0  0  0  0  0
  140.7040   76.5430  221.1820 C   0  0  0  0  0  0  0  0  0  0  0  0
  137.9649   79.6284  225.0175 H   0  0  0  0  0  0  0  0  0  0  0  0
  138.8941   81.1246  224.6644 H   0  0  0  0  0  0  0  0  0  0  0  0
  137.0982   81.1616  224.6644 H   0  0  0  0  0  0  0  0  0  0  0  0
  137.0370   80.5686  222.5204 H   0  0  0  0  0  0  0  0  0  0  0  0
  138.8350   80.7054  222.4858 H   0  0  0  0  0  0  0  0  0  0  0  0
  140.5015   79.7250  220.5696 H   0  0  0  0  0  0  0  0  0  0  0  0
  142.5992   81.0476  220.8228 H   0  0  0  0  0  0  0  0  0  0  0  0
  143.8184   80.9421  223.0149 H   0  0  0  0  0  0  0  0  0  0  0  0
  142.9498   79.5679  224.8700 H   0  0  0  0  0  0  0  0  0  0  0  0
  140.8474   78.2525  224.5899 H   0  0  0  0  0  0  0  0  0  0  0  0
  138.6968   76.8843  220.8052 H   0  0  0  0  0  0  0  0  0  0  0  0
  139.4782   75.8109  223.5601 H   0  0  0  0  0  0  0  0  0  0  0  0
  137.8235   76.1691  223.0788 H   0  0  0  0  0  0  0  0  0  0  0  0
  138.2367   73.7900  222.4829 H   0  0  0  0  0  0  0  0  0  0  0  0
  138.2583   74.6457  220.9492 H   0  0  0  0  0  0  0  0  0  0  0  0
  138.5693   72.2154  221.8421 H   0  0  0  0  0  0  0  0  0  0  0  0
  139.7525   70.9751  221.2838 H   0  0  0  0  0  0  0  0  0  0  0  0
  138.3923   69.5860  222.8753 H   0  0  0  0  0  0  0  0  0  0  0  0
  139.2255   68.6679  227.3334 H   0  0  0  0  0  0  0  0  0  0  0  0
  140.5137   69.7146  229.1675 H   0  0  0  0  0  0  0  0  0  0  0  0
  141.7661   71.8371  228.6822 H   0  0  0  0  0  0  0  0  0  0  0  0
  141.6999   72.8501  226.4107 H   0  0  0  0  0  0  0  0  0  0  0  0
  140.9365   72.8169  224.1246 H   0  0  0  0  0  0  0  0  0  0  0  0
  141.7708   75.3047  222.5156 H   0  0  0  0  0  0  0  0  0  0  0  0
  141.8354   74.8460  220.7393 H   0  0  0  0  0  0  0  0  0  0  0  0
  141.4099   77.2968  221.5608 H   0  0  0  0  0  0  0  0  0  0  0  0
  140.6208   76.5284  220.0853 H   0  0  0  0  0  0  0  0  0  0  0  0
  1  2  1  0
  2  3  1  0
  3  4  2  0
  3  5  1  0
  5  6  1  0
  6  7  2  0
  7  8  1  0
  8  9  2  0
  9 10  1  0
 10 11  2  0
  5 12  1  0
 12 13  1  0
 13 14  1  0
 14 15  1  0
 15 16  1  0
 16 17  2  0
 16 18  1  0
 18 19  1  0
 19 20  2  0
 20 21  1  0
 21 22  2  0
 22 23  1  0
 23 24  2  0
 24 25  1  0
 25 26  2  0
 26 27  1  0
 27 28  2  0
 15 29  1  0
 29 30  1  0
 11  6  1  0
 30 12  1  0
 28 19  1  0
 27 22  1  0
  1 31  1  0
  1 32  1  0
  1 33  1  0
  2 34  1  0
  2 35  1  0
  7 36  1  0
  8 37  1  0
  9 38  1  0
 10 39  1  0
 11 40  1  0
 12 41  1  0
 13 42  1  0
 13 43  1  0
 14 44  1  0
 14 45  1  0
 18 46  1  0
 18 47  1  0
 20 48  1  0
 23 49  1  0
 24 50  1  0
 25 51  1  0
 26 52  1  0
 28 53  1  0
 29 54  1  0
 29 55  1  0
 30 56  1  0
 30 57  1  0
M  END
>  <smiles>  (4) 
CCC(=O)N(c1ccccc1)C1CCN(C(=O)Cc2cnc3ccccc3c2)CC1

>  <score_type>  (4) 
oracle

>  <origin>  (4) 
autodockgpu

>  <m_score__min__energy>  (4) 
-8.8599999999999994

>  <m_primary>  (4) 
energy

>  <rmsd>  (4) 
8.134768800185453

>  <m_score__min__rmsd>  (4) 
8.134768800185453

>  <meeko>  (4) 
{"free_energy": -8.79, "intermolecular_energy": -10.58, "internal_energy": -1.47, "cluster_size": 43, "cluster_id": 1, "rank_in_cluster": 5}

>  <energy>  (4) 
-8.84

>  <cluster_rmsd>  (4) 
0.21

>  <cluster>  (4) 
1

$$$$

     RDKit          3D

 57 60  0  0  0  0  0  0  0  0999 V2000
  138.0760   81.1230  223.0880 C   0  0  0  0  0  0  0  0  0  0  0  0
  138.1730   79.8240  223.8180 C   0  0  0  0  0  0  0  0  0  0  0  0
  138.1470   78.6870  222.8600 C   0  0  0  0  0  0  0  0  0  0  0  0
  137.0350   78.2020  222.5340 O   0  0  0  0  0  0  0  0  0  0  0  0
  139.3890   78.1760  222.3350 N   0  0  0  0  0  0  0  0  0  0  0  0
  140.5900   78.9560  222.4820 C   0  0  0  0  0  0  0  0  0  0  0  0
  141.3060   78.8430  223.6580 C   0  0  0  0  0  0  0  0  0  0  0  0
  142.4720   79.5610  223.8740 C   0  0  0  0  0  0  0  0  0  0  0  0
  142.9040   80.4140  222.8540 C   0  0  0  0  0  0  0  0  0  0  0  0
  142.1950   80.5320  221.6770 C   0  0  0  0  0  0  0  0  0  0  0  0
  141.0270   79.8020  221.4800 C   0  0  0  0  0  0  0  0  0  0  0  0
  139.3940   76.8880  221.6680 C   0  0  0  0  0  0  0  0  0  0  0  0
  138.8470   75.8760  222.6420 C   0  0  0  0  0  0  0  0  0  0  0  0
  138.8190   74.5610  221.8510 C   0  0  0  0  0  0  0  0  0  0  0  0
  140.2310   74.2040  221.7150 N   0  0  0  0  0  0  0  0  0  0  0  0
  140.6210   72.8300  221.7450 C   0  0  0  0  0  0  0  0  0  0  0  0
  141.8300   72.4680  221.6350 O   0  0  0  0  0  0  0  0  0  0  0  0
  139.6020   71.7830  221.9090 C   0  0  0  0  0  0  0  0  0  0  0  0
  139.6300   71.2510  223.2910 C   0  0  0  0  0  0  0  0  0  0  0  0
  138.8850   70.1330  223.5920 C   0  0  0  0  0  0  0  0  0  0  0  0
  138.8550   69.5810  224.8280 N   0  0  0  0  0  0  0  0  0  0  0  0
  139.6050   70.1790  225.7990 C   0  0  0  0  0  0  0  0  0  0  0  0
  139.6130   69.6620  227.0720 C   0  0  0  0  0  0  0  0  0  0  0  0
  140.3430   70.2060  228.1070 C   0  0  0  0  0  0  0  0  0  0  0  0
  141.1050   71.3410  227.8210 C   0  0  0  0  0  0  0  0  0  0  0  0
  141.1220   71.8940  226.5440 C   0  0  0  0  0  0  0  0  0  0  0  0
  140.3660   71.3040  225.5370 C   0  0  0  0  0  0  0  0  0  0  0  0
  140.3950   71.8710  224.2600 C   0  0  0  0  0  0  0  0  0  0  0  0
  141.2580   75.1970  221.5460 C   0  0  0  0  0  0  0  0  0  0  0  0
  140.7580   76.5480  221.1670 C   0  0  0  0  0  0  0  0  0  0  0  0
  138.0144   81.9476  223.8135 H   0  0  0  0  0  0  0  0  0  0  0  0
  138.9667   81.2561  222.4564 H   0  0  0  0  0  0  0  0  0  0  0  0
  137.1754   81.1223  222.4564 H   0  0  0  0  0  0  0  0  0  0  0  0
  139.1143   79.7973  224.3865 H   0  0  0  0  0  0  0  0  0  0  0  0
  137.3156   79.7341  224.5013 H   0  0  0  0  0  0  0  0  0  0  0  0
  140.9412   78.1653  224.4439 H   0  0  0  0  0  0  0  0  0  0  0  0
  143.0364   79.4632  224.8131 H   0  0  0  0  0  0  0  0  0  0  0  0
  143.8243   81.0005  222.9925 H   0  0  0  0  0  0  0  0  0  0  0  0
  142.5556   81.2083  220.8880 H   0  0  0  0  0  0  0  0  0  0  0  0
  140.4604   79.8966  220.5419 H   0  0  0  0  0  0  0  0  0  0  0  0
  138.7567   76.9011  220.7715 H   0  0  0  0  0  0  0  0  0  0  0  0
  139.5027   75.7877  223.5208 H   0  0  0  0  0  0  0  0  0  0  0  0
  137.8545   76.1563  223.0246 H   0  0  0  0  0  0  0  0  0  0  0  0
  138.2699   73.7837  222.4027 H   0  0  0  0  0  0  0  0  0  0  0  0
  138.3103   74.6596  220.8807 H   0  0  0  0  0  0  0  0  0  0  0  0
  138.6085   72.2082  221.7038 H   0  0  0  0  0  0  0  0  0  0  0  0
  139.8138   70.9641  221.2058 H   0  0  0  0  0  0  0  0  0  0  0  0
  138.2881   69.6680  222.7936 H   0  0  0  0  0  0  0  0  0  0  0  0
  139.0055   68.7679  227.2757 H   0  0  0  0  0  0  0  0  0  0  0  0
  140.3261   69.7652  229.1147 H   0  0  0  0  0  0  0  0  0  0  0  0
  141.7022   71.8060  228.6192 H   0  0  0  0  0  0  0  0  0  0  0  0
  141.7270   72.7882  226.3335 H   0  0  0  0  0  0  0  0  0  0  0  0
  140.9961   72.7651  224.0378 H   0  0  0  0  0  0  0  0  0  0  0  0
  141.8067   75.2880  222.4950 H   0  0  0  0  0  0  0  0  0  0  0  0
  141.8897   74.8536  220.7135 H   0  0  0  0  0  0  0  0  0  0  0  0
  141.4616   77.2943  221.5644 H   0  0  0  0  0  0  0  0  0  0  0  0
  140.6873   76.5487  220.0693 H   0  0  0  0  0  0  0  0  0  0  0  0
  1  2  1  0
  2  3  1  0
  3  4  2  0
  3  5  1  0
  5  6  1  0
  6  7  2  0
  7  8  1  0
  8  9  2  0
  9 10  1  0
 10 11  2  0
  5 12  1  0
 12 13  1  0
 13 14  1  0
 14 15  1  0
 15 16  1  0
 16 17  2  0
 16 18  1  0
 18 19  1  0
 19 20  2  0
 20 21  1  0
 21 22  2  0
 22 23  1  0
 23 24  2  0
 24 25  1  0
 25 26  2  0
 26 27  1  0
 27 28  2  0
 15 29  1  0
 29 30  1  0
 11  6  1  0
 30 12  1  0
 28 19  1  0
 27 22  1  0
  1 31  1  0
  1 32  1  0
  1 33  1  0
  2 34  1  0
  2 35  1  0
  7 36  1  0
  8 37  1  0
  9 38  1  0
 10 39  1  0
 11 40  1  0
 12 41  1  0
 13 42  1  0
 13 43  1  0
 14 44  1  0
 14 45  1  0
 18 46  1  0
 18 47  1  0
 20 48  1  0
 23 49  1  0
 24 50  1  0
 25 51  1  0
 26 52  1  0
 28 53  1  0
 29 54  1  0
 29 55  1  0
 30 56  1  0
 30 57  1  0
M  END
>  <smiles>  (5) 
CCC(=O)N(c1ccccc1)C1CCN(C(=O)Cc2cnc3ccccc3c2)CC1

>  <score_type>  (5) 
oracle

>  <origin>  (5) 
autodockgpu

>  <m_score__min__energy>  (5) 
-8.8599999999999994

>  <m_primary>  (5) 
energy

>  <rmsd>  (5) 
8.118610751847292

>  <m_score__min__rmsd>  (5) 
8.118610751847292

>  <meeko>  (5) 
{"free_energy": -8.65, "intermolecular_energy": -10.44, "internal_energy": -1.53, "cluster_size": 43, "cluster_id": 1, "rank_in_cluster": 32}

>  <energy>  (5) 
-8.79

>  <cluster_rmsd>  (5) 
0.23

>  <cluster>  (5) 
1

$$$$

     RDKit          3D

 57 60  0  0  0  0  0  0  0  0999 V2000
  143.4080   76.3430  219.2810 C   0  0  0  0  0  0  0  0  0  0  0  0
  142.5140   77.5190  219.0620 C   0  0  0  0  0  0  0  0  0  0  0  0
  141.2210   77.3270  219.7690 C   0  0  0  0  0  0  0  0  0  0  0  0
  140.1860   77.1240  219.0850 O   0  0  0  0  0  0  0  0  0  0  0  0
  141.1880   77.3760  221.2100 N   0  0  0  0  0  0  0  0  0  0  0  0
  141.5240   78.6050  221.8810 C   0  0  0  0  0  0  0  0  0  0  0  0
  141.5440   79.7720  221.1410 C   0  0  0  0  0  0  0  0  0  0  0  0
  141.8570   80.9950  221.7150 C   0  0  0  0  0  0  0  0  0  0  0  0
  142.1590   81.0080  223.0800 C   0  0  0  0  0  0  0  0  0  0  0  0
  142.1410   79.8490  223.8250 C   0  0  0  0  0  0  0  0  0  0  0  0
  141.8220   78.6310  223.2300 C   0  0  0  0  0  0  0  0  0  0  0  0
  140.8190   76.1830  221.9480 C   0  0  0  0  0  0  0  0  0  0  0  0
  141.1920   74.9950  221.0970 C   0  0  0  0  0  0  0  0  0  0  0  0
  140.8380   73.7800  221.9630 C   0  0  0  0  0  0  0  0  0  0  0  0
  139.3750   73.7700  221.9740 N   0  0  0  0  0  0  0  0  0  0  0  0
  138.6740   72.5260  221.9850 C   0  0  0  0  0  0  0  0  0  0  0  0
  137.4090   72.4630  221.9910 O   0  0  0  0  0  0  0  0  0  0  0  0
  139.4260   71.2620  221.9890 C   0  0  0  0  0  0  0  0  0  0  0  0
  139.5950   70.7690  223.3750 C   0  0  0  0  0  0  0  0  0  0  0  0
  139.1250   69.5160  223.7010 C   0  0  0  0  0  0  0  0  0  0  0  0
  139.2400   68.9900  224.9440 N   0  0  0  0  0  0  0  0  0  0  0  0
  139.8530   69.7530  225.8940 C   0  0  0  0  0  0  0  0  0  0  0  0
  139.9980   69.2690  227.1710 C   0  0  0  0  0  0  0  0  0  0  0  0
  140.6050   69.9770  228.1860 C   0  0  0  0  0  0  0  0  0  0  0  0
  141.0890   71.2500  227.8740 C   0  0  0  0  0  0  0  0  0  0  0  0
  140.9600   71.7750  226.5920 C   0  0  0  0  0  0  0  0  0  0  0  0
  140.3390   71.0170  225.6060 C   0  0  0  0  0  0  0  0  0  0  0  0
  140.2180   71.5580  224.3230 C   0  0  0  0  0  0  0  0  0  0  0  0
  138.6030   74.9840  221.9760 C   0  0  0  0  0  0  0  0  0  0  0  0
  139.3750   76.2090  222.3250 C   0  0  0  0  0  0  0  0  0  0  0  0
  143.5355   76.1753  220.3607 H   0  0  0  0  0  0  0  0  0  0  0  0
  142.9585   75.4502  218.8218 H   0  0  0  0  0  0  0  0  0  0  0  0
  144.3885   76.5373  218.8218 H   0  0  0  0  0  0  0  0  0  0  0  0
  143.0060   78.4246  219.4464 H   0  0  0  0  0  0  0  0  0  0  0  0
  142.3190   77.6225  217.9844 H   0  0  0  0  0  0  0  0  0  0  0  0
  141.3053   79.7297  220.0681 H   0  0  0  0  0  0  0  0  0  0  0  0
  141.8673   81.9195  221.1191 H   0  0  0  0  0  0  0  0  0  0  0  0
  142.4154   81.9600  223.5677 H   0  0  0  0  0  0  0  0  0  0  0  0
  142.3805   79.8861  224.8980 H   0  0  0  0  0  0  0  0  0  0  0  0
  141.8075   77.7052  223.8239 H   0  0  0  0  0  0  0  0  0  0  0  0
  141.3612   76.1222  222.9032 H   0  0  0  0  0  0  0  0  0  0  0  0
  140.6127   74.9887  220.1619 H   0  0  0  0  0  0  0  0  0  0  0  0
  142.2519   75.0060  220.8028 H   0  0  0  0  0  0  0  0  0  0  0  0
  141.2324   72.8543  221.5185 H   0  0  0  0  0  0  0  0  0  0  0  0
  141.2694   73.8389  222.9731 H   0  0  0  0  0  0  0  0  0  0  0  0
  138.8772   70.5114  221.4012 H   0  0  0  0  0  0  0  0  0  0  0  0
  140.4184   71.4347  221.5471 H   0  0  0  0  0  0  0  0  0  0  0  0
  138.6355   68.9171  222.9189 H   0  0  0  0  0  0  0  0  0  0  0  0
  139.6097   68.2646  227.3954 H   0  0  0  0  0  0  0  0  0  0  0  0
  140.7041   69.5578  229.1982 H   0  0  0  0  0  0  0  0  0  0  0  0
  141.5807   71.8477  228.6557 H   0  0  0  0  0  0  0  0  0  0  0  0
  141.3453   72.7791  226.3611 H   0  0  0  0  0  0  0  0  0  0  0  0
  140.5993   72.5608  224.0803 H   0  0  0  0  0  0  0  0  0  0  0  0
  138.1771   75.1215  220.9711 H   0  0  0  0  0  0  0  0  0  0  0  0
  137.8371   74.8652  222.7566 H   0  0  0  0  0  0  0  0  0  0  0  0
  138.9060   77.0630  221.8144 H   0  0  0  0  0  0  0  0  0  0  0  0
  139.3488   76.2823  223.4222 H   0  0  0  0  0  0  0  0  0  0  0  0
  1  2  1  0
  2  3  1  0
  3  4  2  0
  3  5  1  0
  5  6  1  0
  6  7  2  0
  7  8  1  0
  8  9  2  0
  9 10  1  0
 10 11  2  0
  5 12  1  0
 12 13  1  0
 13 14  1  0
 14 15  1  0
 15 16  1  0
 16 17  2  0
 16 18  1  0
 18 19  1  0
 19 20  2  0
 20 21  1  0
 21 22  2  0
 22 23  1  0
 23 24  2  0
 24 25  1  0
 25 26  2  0
 26 27  1  0
 27 28  2  0
 15 29  1  0
 29 30  1  0
 11  6  1  0
 30 12  1  0
 28 19  1  0
 27 22  1  0
  1 31  1  0
  1 32  1  0
  1 33  1  0
  2 34  1  0
  2 35  1  0
  7 36  1  0
  8 37  1  0
  9 38  1  0
 10 39  1  0
 11 40  1  0
 12 41  1  0
 13 42  1  0
 13 43  1  0
 14 44  1  0
 14 45  1  0
 18 46  1  0
 18 47  1  0
 20 48  1  0
 23 49  1  0
 24 50  1  0
 25 51  1  0
 26 52  1  0
 28 53  1  0
 29 54  1  0
 29 55  1  0
 30 56  1  0
 30 57  1  0
M  END
>  <smiles>  (6) 
CCC(=O)N(c1ccccc1)C1CCN(C(=O)Cc2cnc3ccccc3c2)CC1

>  <score_type>  (6) 
oracle

>  <origin>  (6) 
autodockgpu

>  <m_score__min__energy>  (6) 
-8.8599999999999994

>  <m_primary>  (6) 
energy

>  <rmsd>  (6) 
8.326794629471145

>  <m_score__min__rmsd>  (6) 
8.326794629471145

>  <meeko>  (6) 
{"free_energy": -8.77, "intermolecular_energy": -10.56, "internal_energy": -1.48, "cluster_size": 43, "cluster_id": 1, "rank_in_cluster": 13}

>  <energy>  (6) 
-8.78

>  <cluster_rmsd>  (6) 
1.65

>  <cluster>  (6) 
1

$$$$

     RDKit          3D

 57 60  0  0  0  0  0  0  0  0999 V2000
  142.1870   79.9600  218.9760 C   0  0  0  0  0  0  0  0  0  0  0  0
  142.1280   78.5010  219.2880 C   0  0  0  0  0  0  0  0  0  0  0  0
  140.9190   78.1910  220.0960 C   0  0  0  0  0  0  0  0  0  0  0  0
  139.8200   78.0490  219.5020 O   0  0  0  0  0  0  0  0  0  0  0  0
  141.0380   78.0620  221.5270 N   0  0  0  0  0  0  0  0  0  0  0  0
  141.4640   79.1970  222.3040 C   0  0  0  0  0  0  0  0  0  0  0  0
  140.5130   80.1220  222.6900 C   0  0  0  0  0  0  0  0  0  0  0  0
  140.8450   81.2400  223.4390 C   0  0  0  0  0  0  0  0  0  0  0  0
  142.1880   81.4050  223.7920 C   0  0  0  0  0  0  0  0  0  0  0  0
  143.1430   80.4870  223.4100 C   0  0  0  0  0  0  0  0  0  0  0  0
  142.7880   79.3700  222.6590 C   0  0  0  0  0  0  0  0  0  0  0  0
  140.7260   76.7890  222.1480 C   0  0  0  0  0  0  0  0  0  0  0  0
  141.1960   75.7050  221.2110 C   0  0  0  0  0  0  0  0  0  0  0  0
  140.8980   74.3990  221.9580 C   0  0  0  0  0  0  0  0  0  0  0  0
  139.4390   74.2990  221.9220 N   0  0  0  0  0  0  0  0  0  0  0  0
  138.8180   73.0180  221.8040 C   0  0  0  0  0  0  0  0  0  0  0  0
  137.5600   72.8780  221.7650 O   0  0  0  0  0  0  0  0  0  0  0  0
  139.6480   71.8070  221.7240 C   0  0  0  0  0  0  0  0  0  0  0  0
  139.7720   71.1780  223.0590 C   0  0  0  0  0  0  0  0  0  0  0  0
  139.3230   69.8880  223.2340 C   0  0  0  0  0  0  0  0  0  0  0  0
  139.3990   69.2390  224.4200 N   0  0  0  0  0  0  0  0  0  0  0  0
  139.9480   69.9150  225.4700 C   0  0  0  0  0  0  0  0  0  0  0  0
  140.0510   69.3060  226.6970 C   0  0  0  0  0  0  0  0  0  0  0  0
  140.5930   69.9200  227.8060 C   0  0  0  0  0  0  0  0  0  0  0  0
  141.0540   71.2290  227.6470 C   0  0  0  0  0  0  0  0  0  0  0  0
  140.9660   71.8800  226.4210 C   0  0  0  0  0  0  0  0  0  0  0  0
  140.4100   71.2130  225.3350 C   0  0  0  0  0  0  0  0  0  0  0  0
  140.3300   71.8800  224.1090 C   0  0  0  0  0  0  0  0  0  0  0  0
  138.5910   75.4590  222.0030 C   0  0  0  0  0  0  0  0  0  0  0  0
  139.2740   76.6940  222.4800 C   0  0  0  0  0  0  0  0  0  0  0  0
  142.2102   80.5348  219.9136 H   0  0  0  0  0  0  0  0  0  0  0  0
  143.0945   80.1737  218.3923 H   0  0  0  0  0  0  0  0  0  0  0  0
  141.2997   80.2463  218.3923 H   0  0  0  0  0  0  0  0  0  0  0  0
  142.0915   77.9308  218.3480 H   0  0  0  0  0  0  0  0  0  0  0  0
  143.0227   78.2235  219.8646 H   0  0  0  0  0  0  0  0  0  0  0  0
  139.4647   79.9671  222.3951 H   0  0  0  0  0  0  0  0  0  0  0  0
  140.0808   81.9700  223.7442 H   0  0  0  0  0  0  0  0  0  0  0  0
  142.4875   82.2821  224.3845 H   0  0  0  0  0  0  0  0  0  0  0  0
  144.1930   80.6383  223.7008 H   0  0  0  0  0  0  0  0  0  0  0  0
  143.5491   78.6371  222.3532 H   0  0  0  0  0  0  0  0  0  0  0  0
  141.2455   76.6781  223.1112 H   0  0  0  0  0  0  0  0  0  0  0  0
  140.6429   75.7449  220.2610 H   0  0  0  0  0  0  0  0  0  0  0  0
  142.2604   75.8067  220.9527 H   0  0  0  0  0  0  0  0  0  0  0  0
  141.3619   73.5418  221.4481 H   0  0  0  0  0  0  0  0  0  0  0  0
  141.2986   74.3950  222.9824 H   0  0  0  0  0  0  0  0  0  0  0  0
  139.1819   71.0933  221.0288 H   0  0  0  0  0  0  0  0  0  0  0  0
  140.6503   72.0840  221.3652 H   0  0  0  0  0  0  0  0  0  0  0  0
  138.8837   69.3622  222.3734 H   0  0  0  0  0  0  0  0  0  0  0  0
  139.6819   68.2749  226.8000 H   0  0  0  0  0  0  0  0  0  0  0  0
  140.6595   69.4017  228.7739 H   0  0  0  0  0  0  0  0  0  0  0  0
  141.4946   71.7545  228.5070 H   0  0  0  0  0  0  0  0  0  0  0  0
  141.3323   72.9114  226.3117 H   0  0  0  0  0  0  0  0  0  0  0  0
  140.6930   72.9112  223.9870 H   0  0  0  0  0  0  0  0  0  0  0  0
  138.1841   75.6573  221.0005 H   0  0  0  0  0  0  0  0  0  0  0  0
  137.8137   75.2259  222.7456 H   0  0  0  0  0  0  0  0  0  0  0  0
  138.7652   77.5591  222.0298 H   0  0  0  0  0  0  0  0  0  0  0  0
  139.2142   76.6697  223.5781 H   0  0  0  0  0  0  0  0  0  0  0  0
  1  2  1  0
  2  3  1  0
  3  4  2  0
  3  5  1  0
  5  6  1  0
  6  7  2  0
  7  8  1  0
  8  9  2  0
  9 10  1  0
 10 11  2  0
  5 12  1  0
 12 13  1  0
 13 14  1  0
 14 15  1  0
 15 16  1  0
 16 17  2  0
 16 18  1  0
 18 19  1  0
 19 20  2  0
 20 21  1  0
 21 22  2  0
 22 23  1  0
 23 24  2  0
 24 25  1  0
 25 26  2  0
 26 27  1  0
 27 28  2  0
 15 29  1  0
 29 30  1  0
 11  6  1  0
 30 12  1  0
 28 19  1  0
 27 22  1  0
  1 31  1  0
  1 32  1  0
  1 33  1  0
  2 34  1  0
  2 35  1  0
  7 36  1  0
  8 37  1  0
  9 38  1  0
 10 39  1  0
 11 40  1  0
 12 41  1  0
 13 42  1  0
 13 43  1  0
 14 44  1  0
 14 45  1  0
 18 46  1  0
 18 47  1  0
 20 48  1  0
 23 49  1  0
 24 50  1  0
 25 51  1  0
 26 52  1  0
 28 53  1  0
 29 54  1  0
 29 55  1  0
 30 56  1  0
 30 57  1  0
M  END
>  <smiles>  (7) 
CCC(=O)N(c1ccccc1)C1CCN(C(=O)Cc2cnc3ccccc3c2)CC1

>  <score_type>  (7) 
oracle

>  <origin>  (7) 
autodockgpu

>  <m_score__min__energy>  (7) 
-8.8599999999999994

>  <m_primary>  (7) 
energy

>  <rmsd>  (7) 
8.14044250661094

>  <m_score__min__rmsd>  (7) 
8.14044250661094

>  <meeko>  (7) 
{"free_energy": -8.36, "intermolecular_energy": -10.15, "internal_energy": -1.56, "cluster_size": 43, "cluster_id": 1, "rank_in_cluster": 42}

>  <energy>  (7) 
-8.78

>  <cluster_rmsd>  (7) 
1.63

>  <cluster>  (7) 
1

$$$$

     RDKit          3D

 57 60  0  0  0  0  0  0  0  0999 V2000
  146.3150   73.3940  221.4840 C   0  0  0  0  0  0  0  0  0  0  0  0
  145.1070   73.5780  220.6260 C   0  0  0  0  0  0  0  0  0  0  0  0
  145.1390   72.6360  219.4760 C   0  0  0  0  0  0  0  0  0  0  0  0
  145.9400   72.8640  218.5340 O   0  0  0  0  0  0  0  0  0  0  0  0
  144.2570   71.4950  219.4710 N   0  0  0  0  0  0  0  0  0  0  0  0
  144.8020   70.1850  219.2230 C   0  0  0  0  0  0  0  0  0  0  0  0
  145.7080   70.0360  218.1920 C   0  0  0  0  0  0  0  0  0  0  0  0
  146.2760   68.8070  217.8910 C   0  0  0  0  0  0  0  0  0  0  0  0
  145.8950   67.7120  218.6720 C   0  0  0  0  0  0  0  0  0  0  0  0
  144.9910   67.8520  219.7030 C   0  0  0  0  0  0  0  0  0  0  0  0
  144.4330   69.0950  219.9890 C   0  0  0  0  0  0  0  0  0  0  0  0
  142.8420   71.6970  219.7150 C   0  0  0  0  0  0  0  0  0  0  0  0
  142.6230   71.5930  221.2030 C   0  0  0  0  0  0  0  0  0  0  0  0
  141.1280   71.8830  221.3900 C   0  0  0  0  0  0  0  0  0  0  0  0
  140.4700   70.6960  220.8460 N   0  0  0  0  0  0  0  0  0  0  0  0
  139.2660   70.2140  221.4460 C   0  0  0  0  0  0  0  0  0  0  0  0
  138.6600   69.1890  221.0140 O   0  0  0  0  0  0  0  0  0  0  0  0
  138.6950   70.9140  222.6060 C   0  0  0  0  0  0  0  0  0  0  0  0
  139.0590   70.2150  223.8590 C   0  0  0  0  0  0  0  0  0  0  0  0
  138.7010   68.8960  224.0180 C   0  0  0  0  0  0  0  0  0  0  0  0
  138.9950   68.1840  225.1310 N   0  0  0  0  0  0  0  0  0  0  0  0
  139.6770   68.8250  226.1240 C   0  0  0  0  0  0  0  0  0  0  0  0
  140.0030   68.1520  227.2750 C   0  0  0  0  0  0  0  0  0  0  0  0
  140.6890   68.7280  228.3220 C   0  0  0  0  0  0  0  0  0  0  0  0
  141.0620   70.0660  228.1800 C   0  0  0  0  0  0  0  0  0  0  0  0
  140.7490   70.7820  227.0290 C   0  0  0  0  0  0  0  0  0  0  0  0
  140.0550   70.1510  226.0030 C   0  0  0  0  0  0  0  0  0  0  0  0
  139.7490   70.8840  224.8520 C   0  0  0  0  0  0  0  0  0  0  0  0
  140.9930   69.9850  219.7090 C   0  0  0  0  0  0  0  0  0  0  0  0
  142.0180   70.7330  218.9290 C   0  0  0  0  0  0  0  0  0  0  0  0
  146.0225   73.4386  222.5435 H   0  0  0  0  0  0  0  0  0  0  0  0
  146.7710   72.4160  221.2703 H   0  0  0  0  0  0  0  0  0  0  0  0
  147.0415   74.1918  221.2703 H   0  0  0  0  0  0  0  0  0  0  0  0
  144.2045   73.3876  221.2253 H   0  0  0  0  0  0  0  0  0  0  0  0
  145.0958   74.6089  220.2423 H   0  0  0  0  0  0  0  0  0  0  0  0
  145.9868   70.9156  217.5932 H   0  0  0  0  0  0  0  0  0  0  0  0
  146.9988   68.6981  217.0690 H   0  0  0  0  0  0  0  0  0  0  0  0
  146.3241   66.7215  218.4601 H   0  0  0  0  0  0  0  0  0  0  0  0
  144.7084   66.9753  220.3042 H   0  0  0  0  0  0  0  0  0  0  0  0
  143.7105   69.2079  220.8108 H   0  0  0  0  0  0  0  0  0  0  0  0
  142.5180   72.6917  219.3751 H   0  0  0  0  0  0  0  0  0  0  0  0
  142.8718   70.5840  221.5635 H   0  0  0  0  0  0  0  0  0  0  0  0
  143.2591   72.2886  221.7700 H   0  0  0  0  0  0  0  0  0  0  0  0
  140.8844   72.0123  222.4549 H   0  0  0  0  0  0  0  0  0  0  0  0
  140.8098   72.8108  220.8920 H   0  0  0  0  0  0  0  0  0  0  0  0
  139.0853   71.9420  222.6376 H   0  0  0  0  0  0  0  0  0  0  0  0
  137.5993   70.9293  222.5105 H   0  0  0  0  0  0  0  0  0  0  0  0
  138.1519   68.3984  223.2051 H   0  0  0  0  0  0  0  0  0  0  0  0
  139.7010   67.0982  227.3663 H   0  0  0  0  0  0  0  0  0  0  0  0
  140.9324   68.1581  229.2309 H   0  0  0  0  0  0  0  0  0  0  0  0
  141.6129   70.5626  228.9923 H   0  0  0  0  0  0  0  0  0  0  0  0
  141.0475   71.8363  226.9318 H   0  0  0  0  0  0  0  0  0  0  0  0
  140.0423   71.9385  224.7427 H   0  0  0  0  0  0  0  0  0  0  0  0
  141.4493   69.0509  220.0684 H   0  0  0  0  0  0  0  0  0  0  0  0
  140.1449   69.8165  219.0291 H   0  0  0  0  0  0  0  0  0  0  0  0
  142.6981   69.9996  218.4712 H   0  0  0  0  0  0  0  0  0  0  0  0
  141.4613   71.3364  218.1969 H   0  0  0  0  0  0  0  0  0  0  0  0
  1  2  1  0
  2  3  1  0
  3  4  2  0
  3  5  1  0
  5  6  1  0
  6  7  2  0
  7  8  1  0
  8  9  2  0
  9 10  1  0
 10 11  2  0
  5 12  1  0
 12 13  1  0
 13 14  1  0
 14 15  1  0
 15 16  1  0
 16 17  2  0
 16 18  1  0
 18 19  1  0
 19 20  2  0
 20 21  1  0
 21 22  2  0
 22 23  1  0
 23 24  2  0
 24 25  1  0
 25 26  2  0
 26 27  1  0
 27 28  2  0
 15 29  1  0
 29 30  1  0
 11  6  1  0
 30 12  1  0
 28 19  1  0
 27 22  1  0
  1 31  1  0
  1 32  1  0
  1 33  1  0
  2 34  1  0
  2 35  1  0
  7 36  1  0
  8 37  1  0
  9 38  1  0
 10 39  1  0
 11 40  1  0
 12 41  1  0
 13 42  1  0
 13 43  1  0
 14 44  1  0
 14 45  1  0
 18 46  1  0
 18 47  1  0
 20 48  1  0
 23 49  1  0
 24 50  1  0
 25 51  1  0
 26 52  1  0
 28 53  1  0
 29 54  1  0
 29 55  1  0
 30 56  1  0
 30 57  1  0
M  END
>  <smiles>  (8) 
CCC(=O)N(c1ccccc1)C1CCN(C(=O)Cc2cnc3ccccc3c2)CC1

>  <score_type>  (8) 
oracle

>  <origin>  (8) 
autodockgpu

>  <m_score__min__energy>  (8) 
-8.8599999999999994

>  <m_primary>  (8) 
energy

>  <rmsd>  (8) 
9.5780225233337

>  <m_score__min__rmsd>  (8) 
9.5780225233337

>  <meeko>  (8) 
{"free_energy": -8.73, "intermolecular_energy": -10.52, "internal_energy": -1.42, "cluster_size": 5, "cluster_id": 2, "rank_in_cluster": 2}

>  <energy>  (8) 
-8.77

>  <cluster_rmsd>  (8) 
0.29

>  <cluster>  (8) 
1

$$$$

     RDKit          3D

 57 60  0  0  0  0  0  0  0  0999 V2000
  146.6940   73.3550  221.9110 C   0  0  0  0  0  0  0  0  0  0  0  0
  145.4060   73.5880  221.1920 C   0  0  0  0  0  0  0  0  0  0  0  0
  145.4080   72.8850  219.8820 C   0  0  0  0  0  0  0  0  0  0  0  0
  146.3130   73.1600  219.0550 O   0  0  0  0  0  0  0  0  0  0  0  0
  144.3810   71.9130  219.5990 N   0  0  0  0  0  0  0  0  0  0  0  0
  144.7520   70.5400  219.3750 C   0  0  0  0  0  0  0  0  0  0  0  0
  145.8040   70.2770  218.5190 C   0  0  0  0  0  0  0  0  0  0  0  0
  146.2210   68.9820  218.2520 C   0  0  0  0  0  0  0  0  0  0  0  0
  145.5330   67.9400  218.8820 C   0  0  0  0  0  0  0  0  0  0  0  0
  144.4830   68.1950  219.7380 C   0  0  0  0  0  0  0  0  0  0  0  0
  144.0810   69.5030  219.9920 C   0  0  0  0  0  0  0  0  0  0  0  0
  142.9980   72.3460  219.5450 C   0  0  0  0  0  0  0  0  0  0  0  0
  143.0000   73.8520  219.4700 C   0  0  0  0  0  0  0  0  0  0  0  0
  141.5190   74.2310  219.3470 C   0  0  0  0  0  0  0  0  0  0  0  0
  140.9710   73.9370  220.6710 N   0  0  0  0  0  0  0  0  0  0  0  0
  139.9430   74.7670  221.2130 C   0  0  0  0  0  0  0  0  0  0  0  0
  139.4380   74.5570  222.3560 O   0  0  0  0  0  0  0  0  0  0  0  0
  139.4390   75.9100  220.4370 C   0  0  0  0  0  0  0  0  0  0  0  0
  140.1070   77.1590  220.8700 C   0  0  0  0  0  0  0  0  0  0  0  0
  140.2280   78.1970  219.9740 C   0  0  0  0  0  0  0  0  0  0  0  0
  140.8230   79.3720  220.2870 N   0  0  0  0  0  0  0  0  0  0  0  0
  141.3160   79.5070  221.5530 C   0  0  0  0  0  0  0  0  0  0  0  0
  141.9290   80.6780  221.9260 C   0  0  0  0  0  0  0  0  0  0  0  0
  142.4510   80.8930  223.1830 C   0  0  0  0  0  0  0  0  0  0  0  0
  142.3380   79.8510  224.1070 C   0  0  0  0  0  0  0  0  0  0  0  0
  141.7240   78.6500  223.7650 C   0  0  0  0  0  0  0  0  0  0  0  0
  141.2150   78.4870  222.4820 C   0  0  0  0  0  0  0  0  0  0  0  0
  140.6000   77.2750  222.1550 C   0  0  0  0  0  0  0  0  0  0  0  0
  141.4320   72.8250  221.4590 C   0  0  0  0  0  0  0  0  0  0  0  0
  142.2220   71.8140  220.7030 C   0  0  0  0  0  0  0  0  0  0  0  0
  146.5189   73.3867  222.9965 H   0  0  0  0  0  0  0  0  0  0  0  0
  147.0960   72.3696  221.6330 H   0  0  0  0  0  0  0  0  0  0  0  0
  147.4158   74.1372  221.6330 H   0  0  0  0  0  0  0  0  0  0  0  0
  144.5751   73.2090  221.8052 H   0  0  0  0  0  0  0  0  0  0  0  0
  145.2857   74.6673  221.0170 H   0  0  0  0  0  0  0  0  0  0  0  0
  146.3246   71.1173  218.0365 H   0  0  0  0  0  0  0  0  0  0  0  0
  147.0610   68.7817  217.5706 H   0  0  0  0  0  0  0  0  0  0  0  0
  145.8348   66.8996  218.6913 H   0  0  0  0  0  0  0  0  0  0  0  0
  143.9591   67.3586  220.2238 H   0  0  0  0  0  0  0  0  0  0  0  0
  143.2420   69.7074  220.6735 H   0  0  0  0  0  0  0  0  0  0  0  0
  142.4910   71.9454  218.6548 H   0  0  0  0  0  0  0  0  0  0  0  0
  143.4384   74.2863  220.3806 H   0  0  0  0  0  0  0  0  0  0  0  0
  143.6000   74.2286  218.6284 H   0  0  0  0  0  0  0  0  0  0  0  0
  141.4066   75.2981  219.1048 H   0  0  0  0  0  0  0  0  0  0  0  0
  141.0055   73.6828  218.5434 H   0  0  0  0  0  0  0  0  0  0  0  0
  139.6417   75.7414  219.3691 H   0  0  0  0  0  0  0  0  0  0  0  0
  138.3561   76.0066  220.6040 H   0  0  0  0  0  0  0  0  0  0  0  0
  139.8236   78.0660  218.9595 H   0  0  0  0  0  0  0  0  0  0  0  0
  142.0073   81.4856  221.1833 H   0  0  0  0  0  0  0  0  0  0  0  0
  142.9359   81.8442  223.4477 H   0  0  0  0  0  0  0  0  0  0  0  0
  142.7412   79.9823  225.1220 H   0  0  0  0  0  0  0  0  0  0  0  0
  141.6423   77.8380  224.5025 H   0  0  0  0  0  0  0  0  0  0  0  0
  140.5132   76.4556  222.8837 H   0  0  0  0  0  0  0  0  0  0  0  0
  142.0635   73.2175  222.2697 H   0  0  0  0  0  0  0  0  0  0  0  0
  140.5325   72.3078  221.8242 H   0  0  0  0  0  0  0  0  0  0  0  0
  142.9316   71.3460  221.4012 H   0  0  0  0  0  0  0  0  0  0  0  0
  141.4898   71.1102  220.2805 H   0  0  0  0  0  0  0  0  0  0  0  0
  1  2  1  0
  2  3  1  0
  3  4  2  0
  3  5  1  0
  5  6  1  0
  6  7  2  0
  7  8  1  0
  8  9  2  0
  9 10  1  0
 10 11  2  0
  5 12  1  0
 12 13  1  0
 13 14  1  0
 14 15  1  0
 15 16  1  0
 16 17  2  0
 16 18  1  0
 18 19  1  0
 19 20  2  0
 20 21  1  0
 21 22  2  0
 22 23  1  0
 23 24  2  0
 24 25  1  0
 25 26  2  0
 26 27  1  0
 27 28  2  0
 15 29  1  0
 29 30  1  0
 11  6  1  0
 30 12  1  0
 28 19  1  0
 27 22  1  0
  1 31  1  0
  1 32  1  0
  1 33  1  0
  2 34  1  0
  2 35  1  0
  7 36  1  0
  8 37  1  0
  9 38  1  0
 10 39  1  0
 11 40  1  0
 12 41  1  0
 13 42  1  0
 13 43  1  0
 14 44  1  0
 14 45  1  0
 18 46  1  0
 18 47  1  0
 20 48  1  0
 23 49  1  0
 24 50  1  0
 25 51  1  0
 26 52  1  0
 28 53  1  0
 29 54  1  0
 29 55  1  0
 30 56  1  0
 30 57  1  0
M  END
>  <smiles>  (9) 
CCC(=O)N(c1ccccc1)C1CCN(C(=O)Cc2cnc3ccccc3c2)CC1

>  <score_type>  (9) 
oracle

>  <origin>  (9) 
autodockgpu

>  <m_score__min__energy>  (9) 
-8.8599999999999994

>  <m_primary>  (9) 
energy

>  <rmsd>  (9) 
5.03045787340838

>  <m_score__min__rmsd>  (9) 
5.03045787340838

>  <meeko>  (9) 
{"free_energy": -8.43, "intermolecular_energy": -10.22, "internal_energy": -1.27, "cluster_size": 1, "cluster_id": 3, "rank_in_cluster": 1}

>  <energy>  (9) 
-8.77

>  <cluster_rmsd>  (9) 
1.68

>  <cluster>  (9) 
1

$$$$

     RDKit          3D

 57 60  0  0  0  0  0  0  0  0999 V2000
  138.1330   81.2920  223.0260 C   0  0  0  0  0  0  0  0  0  0  0  0
  138.2150   80.0080  223.7830 C   0  0  0  0  0  0  0  0  0  0  0  0
  138.1770   78.8510  222.8490 C   0  0  0  0  0  0  0  0  0  0  0  0
  137.0590   78.3850  222.5150 O   0  0  0  0  0  0  0  0  0  0  0  0
  139.4150   78.3010  222.3550 N   0  0  0  0  0  0  0  0  0  0  0  0
  140.6340   79.0490  222.5170 C   0  0  0  0  0  0  0  0  0  0  0  0
  141.0510   79.8570  221.4770 C   0  0  0  0  0  0  0  0  0  0  0  0
  142.2140   80.6080  221.5570 C   0  0  0  0  0  0  0  0  0  0  0  0
  142.9600   80.5180  222.7370 C   0  0  0  0  0  0  0  0  0  0  0  0
  142.5500   79.7150  223.7790 C   0  0  0  0  0  0  0  0  0  0  0  0
  141.3790   78.9690  223.6780 C   0  0  0  0  0  0  0  0  0  0  0  0
  139.3990   77.0040  221.7040 C   0  0  0  0  0  0  0  0  0  0  0  0
  138.8400   76.0120  222.6920 C   0  0  0  0  0  0  0  0  0  0  0  0
  138.7890   74.6890  221.9170 C   0  0  0  0  0  0  0  0  0  0  0  0
  140.1950   74.3090  221.7800 N   0  0  0  0  0  0  0  0  0  0  0  0
  140.5650   72.9300  221.8250 C   0  0  0  0  0  0  0  0  0  0  0  0
  141.7680   72.5490  221.7140 O   0  0  0  0  0  0  0  0  0  0  0  0
  139.5310   71.9000  222.0060 C   0  0  0  0  0  0  0  0  0  0  0  0
  139.6900   71.2370  223.3210 C   0  0  0  0  0  0  0  0  0  0  0  0
  139.2050   69.9600  223.4880 C   0  0  0  0  0  0  0  0  0  0  0  0
  139.3100   69.2820  224.6560 N   0  0  0  0  0  0  0  0  0  0  0  0
  139.9260   69.9160  225.6950 C   0  0  0  0  0  0  0  0  0  0  0  0
  140.0610   69.2750  226.9030 C   0  0  0  0  0  0  0  0  0  0  0  0
  140.6710   69.8460  227.9990 C   0  0  0  0  0  0  0  0  0  0  0  0
  141.1690   71.1420  227.8490 C   0  0  0  0  0  0  0  0  0  0  0  0
  141.0510   71.8230  226.6410 C   0  0  0  0  0  0  0  0  0  0  0  0
  140.4260   71.2000  225.5670 C   0  0  0  0  0  0  0  0  0  0  0  0
  140.3170   71.8960  224.3600 C   0  0  0  0  0  0  0  0  0  0  0  0
  141.2360   75.2850  221.5960 C   0  0  0  0  0  0  0  0  0  0  0  0
  140.7550   76.6380  221.2020 C   0  0  0  0  0  0  0  0  0  0  0  0
  138.0793   82.1322  223.7339 H   0  0  0  0  0  0  0  0  0  0  0  0
  139.0259   81.4022  222.3931 H   0  0  0  0  0  0  0  0  0  0  0  0
  137.2333   81.2877  222.3931 H   0  0  0  0  0  0  0  0  0  0  0  0
  139.1556   79.9828  224.3528 H   0  0  0  0  0  0  0  0  0  0  0  0
  137.3561   79.9421  224.4671 H   0  0  0  0  0  0  0  0  0  0  0  0
  140.4442   79.9060  220.5608 H   0  0  0  0  0  0  0  0  0  0  0  0
  142.5376   81.2500  220.7244 H   0  0  0  0  0  0  0  0  0  0  0  0
  143.8895   81.0980  222.8347 H   0  0  0  0  0  0  0  0  0  0  0  0
  143.1527   79.6630  224.6978 H   0  0  0  0  0  0  0  0  0  0  0  0
  141.0521   78.3264  224.5088 H   0  0  0  0  0  0  0  0  0  0  0  0
  138.7587   77.0153  220.8096 H   0  0  0  0  0  0  0  0  0  0  0  0
  139.4974   75.9240  223.5695 H   0  0  0  0  0  0  0  0  0  0  0  0
  137.8533   76.3120  223.0748 H   0  0  0  0  0  0  0  0  0  0  0  0
  138.2303   73.9267  222.4798 H   0  0  0  0  0  0  0  0  0  0  0  0
  138.2781   74.7839  220.9475 H   0  0  0  0  0  0  0  0  0  0  0  0
  138.5378   72.3700  221.9544 H   0  0  0  0  0  0  0  0  0  0  0  0
  139.6335   71.1467  221.2109 H   0  0  0  0  0  0  0  0  0  0  0  0
  138.7110   69.4689  222.6367 H   0  0  0  0  0  0  0  0  0  0  0  0
  139.6620   68.2545  227.0001 H   0  0  0  0  0  0  0  0  0  0  0  0
  140.7618   69.3038  228.9517 H   0  0  0  0  0  0  0  0  0  0  0  0
  141.6631   71.6331  228.7003 H   0  0  0  0  0  0  0  0  0  0  0  0
  141.4481   72.8435  226.5372 H   0  0  0  0  0  0  0  0  0  0  0  0
  140.7105   72.9166  224.2436 H   0  0  0  0  0  0  0  0  0  0  0  0
  141.7887   75.3796  222.5423 H   0  0  0  0  0  0  0  0  0  0  0  0
  141.8601   74.9222  220.7660 H   0  0  0  0  0  0  0  0  0  0  0  0
  141.4712   77.3787  221.5872 H   0  0  0  0  0  0  0  0  0  0  0  0
  140.6800   76.6263  220.1046 H   0  0  0  0  0  0  0  0  0  0  0  0
  1  2  1  0
  2  3  1  0
  3  4  2  0
  3  5  1  0
  5  6  1  0
  6  7  2  0
  7  8  1  0
  8  9  2  0
  9 10  1  0
 10 11  2  0
  5 12  1  0
 12 13  1  0
 13 14  1  0
 14 15  1  0
 15 16  1  0
 16 17  2  0
 16 18  1  0
 18 19  1  0
 19 20  2  0
 20 21  1  0
 21 22  2  0
 22 23  1  0
 23 24  2  0
 24 25  1  0
 25 26  2  0
 26 27  1  0
 27 28  2  0
 15 29  1  0
 29 30  1  0
 11  6  1  0
 30 12  1  0
 28 19  1  0
 27 22  1  0
  1 31  1  0
  1 32  1  0
  1 33  1  0
  2 34  1  0
  2 35  1  0
  7 36  1  0
  8 37  1  0
  9 38  1  0
 10 39  1  0
 11 40  1  0
 12 41  1  0
 13 42  1  0
 13 43  1  0
 14 44  1  0
 14 45  1  0
 18 46  1  0
 18 47  1  0
 20 48  1  0
 23 49  1  0
 24 50  1  0
 25 51  1  0
 26 52  1  0
 28 53  1  0
 29 54  1  0
 29 55  1  0
 30 56  1  0
 30 57  1  0
M  END
>  <smiles>  (10) 
CCC(=O)N(c1ccccc1)C1CCN(C(=O)Cc2cnc3ccccc3c2)CC1

>  <score_type>  (10) 
oracle

>  <origin>  (10) 
autodockgpu

>  <m_score__min__energy>  (10) 
-8.8599999999999994

>  <m_primary>  (10) 
energy

>  <rmsd>  (10) 
8.14966944546878

>  <m_score__min__rmsd>  (10) 
8.14966944546878

>  <meeko>  (10) 
{"free_energy": -8.77, "intermolecular_energy": -10.56, "internal_energy": -1.51, "cluster_size": 43, "cluster_id": 1, "rank_in_cluster": 8}

>  <energy>  (10) 
-8.77

>  <cluster_rmsd>  (10) 
1.65

>  <cluster>  (10) 
1

$$$$

     RDKit          3D

 57 60  0  0  0  0  0  0  0  0999 V2000
  142.9200   78.0930  217.9660 C   0  0  0  0  0  0  0  0  0  0  0  0
  142.8410   77.1240  219.1000 C   0  0  0  0  0  0  0  0  0  0  0  0
  141.4850   77.1490  219.7090 C   0  0  0  0  0  0  0  0  0  0  0  0
  140.4840   77.0840  218.9520 O   0  0  0  0  0  0  0  0  0  0  0  0
  141.3550   77.2440  221.1420 N   0  0  0  0  0  0  0  0  0  0  0  0
  141.6180   78.5020  221.7920 C   0  0  0  0  0  0  0  0  0  0  0  0
  141.6640   79.6440  221.0160 C   0  0  0  0  0  0  0  0  0  0  0  0
  141.9130   80.8910  221.5670 C   0  0  0  0  0  0  0  0  0  0  0  0
  142.1200   80.9560  222.9490 C   0  0  0  0  0  0  0  0  0  0  0  0
  142.0760   79.8210  223.7300 C   0  0  0  0  0  0  0  0  0  0  0  0
  141.8250   78.5780  223.1560 C   0  0  0  0  0  0  0  0  0  0  0  0
  140.9630   76.0670  221.8940 C   0  0  0  0  0  0  0  0  0  0  0  0
  141.2870   74.8630  221.0460 C   0  0  0  0  0  0  0  0  0  0  0  0
  140.9120   73.6640  221.9260 C   0  0  0  0  0  0  0  0  0  0  0  0
  139.4500   73.6970  221.9590 N   0  0  0  0  0  0  0  0  0  0  0  0
  138.7140   72.4740  221.9900 C   0  0  0  0  0  0  0  0  0  0  0  0
  137.4470   72.4480  222.0160 O   0  0  0  0  0  0  0  0  0  0  0  0
  139.4280   71.1890  221.9910 C   0  0  0  0  0  0  0  0  0  0  0  0
  139.6140   70.7040  223.3780 C   0  0  0  0  0  0  0  0  0  0  0  0
  139.1890   69.4370  223.7060 C   0  0  0  0  0  0  0  0  0  0  0  0
  139.3220   68.9170  224.9500 N   0  0  0  0  0  0  0  0  0  0  0  0
  139.9060   69.7040  225.8990 C   0  0  0  0  0  0  0  0  0  0  0  0
  140.0670   69.2280  227.1770 C   0  0  0  0  0  0  0  0  0  0  0  0
  140.6470   69.9590  228.1910 C   0  0  0  0  0  0  0  0  0  0  0  0
  141.0850   71.2480  227.8770 C   0  0  0  0  0  0  0  0  0  0  0  0
  140.9380   71.7650  226.5940 C   0  0  0  0  0  0  0  0  0  0  0  0
  140.3460   70.9840  225.6090 C   0  0  0  0  0  0  0  0  0  0  0  0
  140.2070   71.5170  224.3250 C   0  0  0  0  0  0  0  0  0  0  0  0
  138.7140   74.9330  221.9650 C   0  0  0  0  0  0  0  0  0  0  0  0
  139.5260   76.1380  222.2930 C   0  0  0  0  0  0  0  0  0  0  0  0
  143.0034   79.1156  218.3627 H   0  0  0  0  0  0  0  0  0  0  0  0
  143.8026   77.8655  217.3501 H   0  0  0  0  0  0  0  0  0  0  0  0
  142.0122   78.0115  217.3501 H   0  0  0  0  0  0  0  0  0  0  0  0
  143.0521   76.1111  218.7267 H   0  0  0  0  0  0  0  0  0  0  0  0
  143.5805   77.4070  219.8636 H   0  0  0  0  0  0  0  0  0  0  0  0
  141.4986   79.5613  219.9317 H   0  0  0  0  0  0  0  0  0  0  0  0
  141.9466   81.7952  220.9415 H   0  0  0  0  0  0  0  0  0  0  0  0
  142.3213   81.9293  223.4204 H   0  0  0  0  0  0  0  0  0  0  0  0
  142.2405   79.8981  224.8149 H   0  0  0  0  0  0  0  0  0  0  0  0
  141.7920   77.6713  223.7780 H   0  0  0  0  0  0  0  0  0  0  0  0
  141.5186   75.9967  222.8408 H   0  0  0  0  0  0  0  0  0  0  0  0
  140.6925   74.8675  220.1205 H   0  0  0  0  0  0  0  0  0  0  0  0
  142.3419   74.8410  220.7350 H   0  0  0  0  0  0  0  0  0  0  0  0
  141.2725   72.7244  221.4820 H   0  0  0  0  0  0  0  0  0  0  0  0
  141.3608   73.7164  222.9289 H   0  0  0  0  0  0  0  0  0  0  0  0
  138.8443   70.4494  221.4234 H   0  0  0  0  0  0  0  0  0  0  0  0
  140.4150   71.3283  221.5258 H   0  0  0  0  0  0  0  0  0  0  0  0
  138.7212   68.8199  222.9247 H   0  0  0  0  0  0  0  0  0  0  0  0
  139.7148   68.2107  227.4030 H   0  0  0  0  0  0  0  0  0  0  0  0
  140.7603   69.5455  229.2040 H   0  0  0  0  0  0  0  0  0  0  0  0
  141.5542   71.8647  228.6578 H   0  0  0  0  0  0  0  0  0  0  0  0
  141.2869   72.7820  226.3615 H   0  0  0  0  0  0  0  0  0  0  0  0
  140.5521   72.5324  224.0803 H   0  0  0  0  0  0  0  0  0  0  0  0
  138.2761   75.0761  220.9661 H   0  0  0  0  0  0  0  0  0  0  0  0
  137.9583   74.8414  222.7590 H   0  0  0  0  0  0  0  0  0  0  0  0
  139.0740   77.0015  221.7831 H   0  0  0  0  0  0  0  0  0  0  0  0
  139.5186   76.2204  223.3899 H   0  0  0  0  0  0  0  0  0  0  0  0
  1  2  1  0
  2  3  1  0
  3  4  2  0
  3  5  1  0
  5  6  1  0
  6  7  2  0
  7  8  1  0
  8  9  2  0
  9 10  1  0
 10 11  2  0
  5 12  1  0
 12 13  1  0
 13 14  1  0
 14 15  1  0
 15 16  1  0
 16 17  2  0
 16 18  1  0
 18 19  1  0
 19 20  2  0
 20 21  1  0
 21 22  2  0
 22 23  1  0
 23 24  2  0
 24 25  1  0
 25 26  2  0
 26 27  1  0
 27 28  2  0
 15 29  1  0
 29 30  1  0
 11  6  1  0
 30 12  1  0
 28 19  1  0
 27 22  1  0
  1 31  1  0
  1 32  1  0
  1 33  1  0
  2 34  1  0
  2 35  1  0
  7 36  1  0
  8 37  1  0
  9 38  1  0
 10 39  1  0
 11 40  1  0
 12 41  1  0
 13 42  1  0
 13 43  1  0
 14 44  1  0
 14 45  1  0
 18 46  1  0
 18 47  1  0
 20 48  1  0
 23 49  1  0
 24 50  1  0
 25 51  1  0
 26 52  1  0
 28 53  1  0
 29 54  1  0
 29 55  1  0
 30 56  1  0
 30 57  1  0
M  END
>  <smiles>  (11) 
CCC(=O)N(c1ccccc1)C1CCN(C(=O)Cc2cnc3ccccc3c2)CC1

>  <score_type>  (11) 
oracle

>  <origin>  (11) 
autodockgpu

>  <m_score__min__energy>  (11) 
-8.8599999999999994

>  <m_primary>  (11) 
energy

>  <rmsd>  (11) 
8.341153394427504

>  <m_score__min__rmsd>  (11) 
8.341153394427504

>  <meeko>  (11) 
{"free_energy": -8.64, "intermolecular_energy": -10.43, "internal_energy": -1.49, "cluster_size": 43, "cluster_id": 1, "rank_in_cluster": 34}

>  <energy>  (11) 
-8.77

>  <cluster_rmsd>  (11) 
1.65

>  <cluster>  (11) 
1

$$$$

     RDKit          3D

 57 60  0  0  0  0  0  0  0  0999 V2000
  146.2100   73.3950  221.2300 C   0  0  0  0  0  0  0  0  0  0  0  0
  145.1430   74.1280  220.4860 C   0  0  0  0  0  0  0  0  0  0  0  0
  143.8850   73.3340  220.4660 C   0  0  0  0  0  0  0  0  0  0  0  0
  143.9270   72.1330  220.8350 O   0  0  0  0  0  0  0  0  0  0  0  0
  142.6610   73.9580  220.0280 N   0  0  0  0  0  0  0  0  0  0  0  0
  142.7040   75.2930  219.4910 C   0  0  0  0  0  0  0  0  0  0  0  0
  143.2670   75.4800  218.2430 C   0  0  0  0  0  0  0  0  0  0  0  0
  143.3450   76.7350  217.6580 C   0  0  0  0  0  0  0  0  0  0  0  0
  142.8320   77.8170  218.3820 C   0  0  0  0  0  0  0  0  0  0  0  0
  142.2690   77.6380  219.6270 C   0  0  0  0  0  0  0  0  0  0  0  0
  142.2000   76.3700  220.1950 C   0  0  0  0  0  0  0  0  0  0  0  0
  141.4160   73.2240  220.1430 C   0  0  0  0  0  0  0  0  0  0  0  0
  141.1520   73.0120  221.6120 C   0  0  0  0  0  0  0  0  0  0  0  0
  139.7970   72.2950  221.6580 C   0  0  0  0  0  0  0  0  0  0  0  0
  140.0910   70.9560  221.1480 N   0  0  0  0  0  0  0  0  0  0  0  0
  139.4000   69.8260  221.6830 C   0  0  0  0  0  0  0  0  0  0  0  0
  139.6210   68.6460  221.2780 O   0  0  0  0  0  0  0  0  0  0  0  0
  138.3960   70.0150  222.7400 C   0  0  0  0  0  0  0  0  0  0  0  0
  138.9280   69.5540  224.0430 C   0  0  0  0  0  0  0  0  0  0  0  0
  138.8190   68.2230  224.3760 C   0  0  0  0  0  0  0  0  0  0  0  0
  139.2790   67.7190  225.5460 N   0  0  0  0  0  0  0  0  0  0  0  0
  139.8720   68.5900  226.4130 C   0  0  0  0  0  0  0  0  0  0  0  0
  140.3580   68.1340  227.6140 C   0  0  0  0  0  0  0  0  0  0  0  0
  140.9690   68.9480  228.5430 C   0  0  0  0  0  0  0  0  0  0  0  0
  141.0890   70.3020  228.2230 C   0  0  0  0  0  0  0  0  0  0  0  0
  140.6090   70.8020  227.0160 C   0  0  0  0  0  0  0  0  0  0  0  0
  140.0000   69.9350  226.1160 C   0  0  0  0  0  0  0  0  0  0  0  0
  139.5240   70.4520  224.9070 C   0  0  0  0  0  0  0  0  0  0  0  0
  141.0620   70.7290  220.1100 C   0  0  0  0  0  0  0  0  0  0  0  0
  141.4680   71.9520  219.3630 C   0  0  0  0  0  0  0  0  0  0  0  0
  146.0461   73.5076  222.3119 H   0  0  0  0  0  0  0  0  0  0  0  0
  146.1765   72.3284  220.9631 H   0  0  0  0  0  0  0  0  0  0  0  0
  147.1936   73.8090  220.9631 H   0  0  0  0  0  0  0  0  0  0  0  0
  144.9547   75.0929  220.9795 H   0  0  0  0  0  0  0  0  0  0  0  0
  145.4780   74.2915  219.4511 H   0  0  0  0  0  0  0  0  0  0  0  0
  143.6639   74.6102  217.6990 H   0  0  0  0  0  0  0  0  0  0  0  0
  143.7929   76.8745  216.6631 H   0  0  0  0  0  0  0  0  0  0  0  0
  142.8789   78.8275  217.9500 H   0  0  0  0  0  0  0  0  0  0  0  0
  141.8711   78.5043  220.1758 H   0  0  0  0  0  0  0  0  0  0  0  0
  141.7512   76.2269  221.1891 H   0  0  0  0  0  0  0  0  0  0  0  0
  140.5790   73.7906  219.7088 H   0  0  0  0  0  0  0  0  0  0  0  0
  141.9379   72.3878  222.0623 H   0  0  0  0  0  0  0  0  0  0  0  0
  141.1456   73.9559  222.1767 H   0  0  0  0  0  0  0  0  0  0  0  0
  139.4146   72.2463  222.6882 H   0  0  0  0  0  0  0  0  0  0  0  0
  139.0229   72.8121  221.0719 H   0  0  0  0  0  0  0  0  0  0  0  0
  138.1394   71.0824  222.8100 H   0  0  0  0  0  0  0  0  0  0  0  0
  137.4999   69.4274  222.4914 H   0  0  0  0  0  0  0  0  0  0  0  0
  138.3377   67.5392  223.6613 H   0  0  0  0  0  0  0  0  0  0  0  0
  140.2541   67.0638  227.8463 H   0  0  0  0  0  0  0  0  0  0  0  0
  141.3461   68.5483  229.4959 H   0  0  0  0  0  0  0  0  0  0  0  0
  141.5714   70.9854  228.9374 H   0  0  0  0  0  0  0  0  0  0  0  0
  140.7103   71.8709  226.7770 H   0  0  0  0  0  0  0  0  0  0  0  0
  139.6193   71.5189  224.6569 H   0  0  0  0  0  0  0  0  0  0  0  0
  141.9612   70.2938  220.5705 H   0  0  0  0  0  0  0  0  0  0  0  0
  140.5856   70.0602  219.3781 H   0  0  0  0  0  0  0  0  0  0  0  0
  142.5015   71.8095  219.0142 H   0  0  0  0  0  0  0  0  0  0  0  0
  140.7387   72.0658  218.5474 H   0  0  0  0  0  0  0  0  0  0  0  0
  1  2  1  0
  2  3  1  0
  3  4  2  0
  3  5  1  0
  5  6  1  0
  6  7  2  0
  7  8  1  0
  8  9  2  0
  9 10  1  0
 10 11  2  0
  5 12  1  0
 12 13  1  0
 13 14  1  0
 14 15  1  0
 15 16  1  0
 16 17  2  0
 16 18  1  0
 18 19  1  0
 19 20  2  0
 20 21  1  0
 21 22  2  0
 22 23  1  0
 23 24  2  0
 24 25  1  0
 25 26  2  0
 26 27  1  0
 27 28  2  0
 15 29  1  0
 29 30  1  0
 11  6  1  0
 30 12  1  0
 28 19  1  0
 27 22  1  0
  1 31  1  0
  1 32  1  0
  1 33  1  0
  2 34  1  0
  2 35  1  0
  7 36  1  0
  8 37  1  0
  9 38  1  0
 10 39  1  0
 11 40  1  0
 12 41  1  0
 13 42  1  0
 13 43  1  0
 14 44  1  0
 14 45  1  0
 18 46  1  0
 18 47  1  0
 20 48  1  0
 23 49  1  0
 24 50  1  0
 25 51  1  0
 26 52  1  0
 28 53  1  0
 29 54  1  0
 29 55  1  0
 30 56  1  0
 30 57  1  0
M  END
>  <smiles>  (12) 
CCC(=O)N(c1ccccc1)C1CCN(C(=O)Cc2cnc3ccccc3c2)CC1

>  <score_type>  (12) 
oracle

>  <origin>  (12) 
autodockgpu

>  <m_score__min__energy>  (12) 
-8.8599999999999994

>  <m_primary>  (12) 
energy

>  <rmsd>  (12) 
9.397853011042308

>  <m_score__min__rmsd>  (12) 
9.397853011042308

>  <meeko>  (12) 
{"free_energy": -8.14, "intermolecular_energy": -9.93, "internal_energy": -1.41, "cluster_size": 1, "cluster_id": 4, "rank_in_cluster": 1}

>  <energy>  (12) 
-8.77

>  <cluster_rmsd>  (12) 
1.65

>  <cluster>  (12) 
1

$$$$

     RDKit          3D

 57 60  0  0  0  0  0  0  0  0999 V2000
  142.5770   78.3870  217.9610 C   0  0  0  0  0  0  0  0  0  0  0  0
  142.5720   77.2970  218.9830 C   0  0  0  0  0  0  0  0  0  0  0  0
  141.2710   77.2660  219.7010 C   0  0  0  0  0  0  0  0  0  0  0  0
  140.2140   77.1750  219.0270 O   0  0  0  0  0  0  0  0  0  0  0  0
  141.2560   77.3390  221.1410 N   0  0  0  0  0  0  0  0  0  0  0  0
  141.5990   78.5790  221.7880 C   0  0  0  0  0  0  0  0  0  0  0  0
  141.7880   78.5750  223.1560 C   0  0  0  0  0  0  0  0  0  0  0  0
  142.1200   79.7280  223.8510 C   0  0  0  0  0  0  0  0  0  0  0  0
  142.2570   80.9080  223.1130 C   0  0  0  0  0  0  0  0  0  0  0  0
  142.0700   80.9200  221.7480 C   0  0  0  0  0  0  0  0  0  0  0  0
  141.7380   79.7510  221.0700 C   0  0  0  0  0  0  0  0  0  0  0  0
  140.8960   76.1580  221.9030 C   0  0  0  0  0  0  0  0  0  0  0  0
  141.2680   74.9560  221.0710 C   0  0  0  0  0  0  0  0  0  0  0  0
  140.9250   73.7550  221.9610 C   0  0  0  0  0  0  0  0  0  0  0  0
  139.4620   73.7410  221.9820 N   0  0  0  0  0  0  0  0  0  0  0  0
  138.7660   72.4940  222.0210 C   0  0  0  0  0  0  0  0  0  0  0  0
  137.5000   72.4270  222.0370 O   0  0  0  0  0  0  0  0  0  0  0  0
  139.5220   71.2330  222.0410 C   0  0  0  0  0  0  0  0  0  0  0  0
  139.6740   70.7480  223.4320 C   0  0  0  0  0  0  0  0  0  0  0  0
  139.2120   69.4920  223.7570 C   0  0  0  0  0  0  0  0  0  0  0  0
  139.3130   68.9720  225.0030 N   0  0  0  0  0  0  0  0  0  0  0  0
  139.9020   69.7470  225.9590 C   0  0  0  0  0  0  0  0  0  0  0  0
  140.0320   69.2700  227.2410 C   0  0  0  0  0  0  0  0  0  0  0  0
  140.6150   69.9890  228.2620 C   0  0  0  0  0  0  0  0  0  0  0  0
  141.0900   71.2650  227.9520 C   0  0  0  0  0  0  0  0  0  0  0  0
  140.9760   71.7830  226.6660 C   0  0  0  0  0  0  0  0  0  0  0  0
  140.3790   71.0140  225.6740 C   0  0  0  0  0  0  0  0  0  0  0  0
  140.2730   71.5480  224.3860 C   0  0  0  0  0  0  0  0  0  0  0  0
  138.6850   74.9520  221.9680 C   0  0  0  0  0  0  0  0  0  0  0  0
  139.4550   76.1860  222.2890 C   0  0  0  0  0  0  0  0  0  0  0  0
  142.5815   79.3638  218.4668 H   0  0  0  0  0  0  0  0  0  0  0  0
  143.4747   78.2957  217.3319 H   0  0  0  0  0  0  0  0  0  0  0  0
  141.6785   78.3039  217.3319 H   0  0  0  0  0  0  0  0  0  0  0  0
  142.7332   76.3306  218.4830 H   0  0  0  0  0  0  0  0  0  0  0  0
  143.3762   77.4854  219.7095 H   0  0  0  0  0  0  0  0  0  0  0  0
  141.6720   77.6314  223.7094 H   0  0  0  0  0  0  0  0  0  0  0  0
  142.2698   79.7150  224.9407 H   0  0  0  0  0  0  0  0  0  0  0  0
  142.5185   81.8424  223.6311 H   0  0  0  0  0  0  0  0  0  0  0  0
  142.1840   81.8610  221.1898 H   0  0  0  0  0  0  0  0  0  0  0  0
  141.5887   79.7600  219.9802 H   0  0  0  0  0  0  0  0  0  0  0  0
  141.4445   76.1162  222.8556 H   0  0  0  0  0  0  0  0  0  0  0  0
  140.6823   74.9306  220.1402 H   0  0  0  0  0  0  0  0  0  0  0  0
  142.3259   74.9659  220.7696 H   0  0  0  0  0  0  0  0  0  0  0  0
  141.3194   72.8229  221.5301 H   0  0  0  0  0  0  0  0  0  0  0  0
  141.3636   73.8325  222.9668 H   0  0  0  0  0  0  0  0  0  0  0  0
  138.9836   70.4775  221.4499 H   0  0  0  0  0  0  0  0  0  0  0  0
  140.5195   71.4065  221.6111 H   0  0  0  0  0  0  0  0  0  0  0  0
  138.7405   68.8849  222.9702 H   0  0  0  0  0  0  0  0  0  0  0  0
  139.6511   68.2624  227.4639 H   0  0  0  0  0  0  0  0  0  0  0  0
  140.7024   69.5755  229.2775 H   0  0  0  0  0  0  0  0  0  0  0  0
  141.5627   71.8713  228.7387 H   0  0  0  0  0  0  0  0  0  0  0  0
  141.3542   72.7902  226.4367 H   0  0  0  0  0  0  0  0  0  0  0  0
  140.6474   72.5537  224.1446 H   0  0  0  0  0  0  0  0  0  0  0  0
  138.2510   75.0697  220.9641 H   0  0  0  0  0  0  0  0  0  0  0  0
  137.9254   74.8444  222.7563 H   0  0  0  0  0  0  0  0  0  0  0  0
  138.9795   77.0288  221.7658 H   0  0  0  0  0  0  0  0  0  0  0  0
  139.4359   76.2795  223.3849 H   0  0  0  0  0  0  0  0  0  0  0  0
  1  2  1  0
  2  3  1  0
  3  4  2  0
  3  5  1  0
  5  6  1  0
  6  7  2  0
  7  8  1  0
  8  9  2  0
  9 10  1  0
 10 11  2  0
  5 12  1  0
 12 13  1  0
 13 14  1  0
 14 15  1  0
 15 16  1  0
 16 17  2  0
 16 18  1  0
 18 19  1  0
 19 20  2  0
 20 21  1  0
 21 22  2  0
 22 23  1  0
 23 24  2  0
 24 25  1  0
 25 26  2  0
 26 27  1  0
 27 28  2  0
 15 29  1  0
 29 30  1  0
 11  6  1  0
 30 12  1  0
 28 19  1  0
 27 22  1  0
  1 31  1  0
  1 32  1  0
  1 33  1  0
  2 34  1  0
  2 35  1  0
  7 36  1  0
  8 37  1  0
  9 38  1  0
 10 39  1  0
 11 40  1  0
 12 41  1  0
 13 42  1  0
 13 43  1  0
 14 44  1  0
 14 45  1  0
 18 46  1  0
 18 47  1  0
 20 48  1  0
 23 49  1  0
 24 50  1  0
 25 51  1  0
 26 52  1  0
 28 53  1  0
 29 54  1  0
 29 55  1  0
 30 56  1  0
 30 57  1  0
M  END
>  <smiles>  (13) 
CCC(=O)N(c1ccccc1)C1CCN(C(=O)Cc2cnc3ccccc3c2)CC1

>  <score_type>  (13) 
oracle

>  <origin>  (13) 
autodockgpu

>  <m_score__min__energy>  (13) 
-8.8599999999999994

>  <m_primary>  (13) 
energy

>  <rmsd>  (13) 
8.345691569525844

>  <m_score__min__rmsd>  (13) 
8.345691569525844

>  <meeko>  (13) 
{"free_energy": -8.74, "intermolecular_energy": -10.53, "internal_energy": -1.49, "cluster_size": 43, "cluster_id": 1, "rank_in_cluster": 20}

>  <energy>  (13) 
-8.77

>  <cluster_rmsd>  (13) 
1.66

>  <cluster>  (13) 
1

$$$$

     RDKit          3D

 57 60  0  0  0  0  0  0  0  0999 V2000
  143.3750   76.3180  219.2930 C   0  0  0  0  0  0  0  0  0  0  0  0
  142.4730   77.4860  219.0640 C   0  0  0  0  0  0  0  0  0  0  0  0
  141.1830   77.2930  219.7770 C   0  0  0  0  0  0  0  0  0  0  0  0
  140.1450   77.0940  219.0970 O   0  0  0  0  0  0  0  0  0  0  0  0
  141.1570   77.3360  221.2180 N   0  0  0  0  0  0  0  0  0  0  0  0
  141.4990   78.5620  221.8920 C   0  0  0  0  0  0  0  0  0  0  0  0
  141.5360   79.7290  221.1530 C   0  0  0  0  0  0  0  0  0  0  0  0
  141.8570   80.9480  221.7300 C   0  0  0  0  0  0  0  0  0  0  0  0
  142.1480   80.9580  223.0980 C   0  0  0  0  0  0  0  0  0  0  0  0
  142.1140   79.7980  223.8410 C   0  0  0  0  0  0  0  0  0  0  0  0
  141.7890   78.5840  223.2430 C   0  0  0  0  0  0  0  0  0  0  0  0
  140.7880   76.1410  221.9530 C   0  0  0  0  0  0  0  0  0  0  0  0
  141.1610   74.9560  221.0990 C   0  0  0  0  0  0  0  0  0  0  0  0
  140.8080   73.7380  221.9620 C   0  0  0  0  0  0  0  0  0  0  0  0
  139.3450   73.7290  221.9730 N   0  0  0  0  0  0  0  0  0  0  0  0
  138.6440   72.4840  221.9820 C   0  0  0  0  0  0  0  0  0  0  0  0
  137.3780   72.4220  221.9880 O   0  0  0  0  0  0  0  0  0  0  0  0
  139.3950   71.2200  221.9820 C   0  0  0  0  0  0  0  0  0  0  0  0
  139.5770   70.7300  223.3670 C   0  0  0  0  0  0  0  0  0  0  0  0
  139.1220   69.4730  223.6970 C   0  0  0  0  0  0  0  0  0  0  0  0
  139.2500   68.9490  224.9390 N   0  0  0  0  0  0  0  0  0  0  0  0
  139.8600   69.7210  225.8850 C   0  0  0  0  0  0  0  0  0  0  0  0
  140.0170   69.2400  227.1620 C   0  0  0  0  0  0  0  0  0  0  0  0
  140.6210   69.9550  228.1730 C   0  0  0  0  0  0  0  0  0  0  0  0
  141.0900   71.2330  227.8570 C   0  0  0  0  0  0  0  0  0  0  0  0
  140.9480   71.7550  226.5750 C   0  0  0  0  0  0  0  0  0  0  0  0
  140.3300   70.9890  225.5940 C   0  0  0  0  0  0  0  0  0  0  0  0
  140.1970   71.5270  224.3100 C   0  0  0  0  0  0  0  0  0  0  0  0
  138.5730   74.9430  221.9790 C   0  0  0  0  0  0  0  0  0  0  0  0
  139.3450   76.1670  222.3300 C   0  0  0  0  0  0  0  0  0  0  0  0
  143.4993   76.1571  220.3741 H   0  0  0  0  0  0  0  0  0  0  0  0
  142.9342   75.4193  218.8368 H   0  0  0  0  0  0  0  0  0  0  0  0
  144.3559   76.5173  218.8368 H   0  0  0  0  0  0  0  0  0  0  0  0
  142.9603   78.3988  219.4373 H   0  0  0  0  0  0  0  0  0  0  0  0
  142.2744   77.5771  217.9859 H   0  0  0  0  0  0  0  0  0  0  0  0
  141.3046   79.6897  220.0783 H   0  0  0  0  0  0  0  0  0  0  0  0
  141.8819   81.8725  221.1344 H   0  0  0  0  0  0  0  0  0  0  0  0
  142.4083   81.9074  223.5888 H   0  0  0  0  0  0  0  0  0  0  0  0
  142.3457   79.8318  224.9158 H   0  0  0  0  0  0  0  0  0  0  0  0
  141.7634   77.6577  223.8357 H   0  0  0  0  0  0  0  0  0  0  0  0
  141.3300   76.0768  222.9081 H   0  0  0  0  0  0  0  0  0  0  0  0
  140.5812   74.9519  220.1642 H   0  0  0  0  0  0  0  0  0  0  0  0
  142.2207   74.9683  220.8044 H   0  0  0  0  0  0  0  0  0  0  0  0
  141.2020   72.8135  221.5147 H   0  0  0  0  0  0  0  0  0  0  0  0
  141.2403   73.7932  222.9720 H   0  0  0  0  0  0  0  0  0  0  0  0
  138.8402   70.4684  221.4012 H   0  0  0  0  0  0  0  0  0  0  0  0
  140.3833   71.3912  221.5305 H   0  0  0  0  0  0  0  0  0  0  0  0
  138.6336   68.8687  222.9184 H   0  0  0  0  0  0  0  0  0  0  0  0
  139.6410   68.2316  227.3893 H   0  0  0  0  0  0  0  0  0  0  0  0
  140.7294   69.5380  229.1851 H   0  0  0  0  0  0  0  0  0  0  0  0
  141.5799   71.8367  228.6352 H   0  0  0  0  0  0  0  0  0  0  0  0
  141.3209   72.7630  226.3406 H   0  0  0  0  0  0  0  0  0  0  0  0
  140.5671   72.5331  224.0635 H   0  0  0  0  0  0  0  0  0  0  0  0
  138.1459   75.0829  220.9750 H   0  0  0  0  0  0  0  0  0  0  0  0
  137.8082   74.8222  222.7603 H   0  0  0  0  0  0  0  0  0  0  0  0
  138.8762   77.0220  221.8209 H   0  0  0  0  0  0  0  0  0  0  0  0
  139.3188   76.2387  223.4274 H   0  0  0  0  0  0  0  0  0  0  0  0
  1  2  1  0
  2  3  1  0
  3  4  2  0
  3  5  1  0
  5  6  1  0
  6  7  2  0
  7  8  1  0
  8  9  2  0
  9 10  1  0
 10 11  2  0
  5 12  1  0
 12 13  1  0
 13 14  1  0
 14 15  1  0
 15 16  1  0
 16 17  2  0
 16 18  1  0
 18 19  1  0
 19 20  2  0
 20 21  1  0
 21 22  2  0
 22 23  1  0
 23 24  2  0
 24 25  1  0
 25 26  2  0
 26 27  1  0
 27 28  2  0
 15 29  1  0
 29 30  1  0
 11  6  1  0
 30 12  1  0
 28 19  1  0
 27 22  1  0
  1 31  1  0
  1 32  1  0
  1 33  1  0
  2 34  1  0
  2 35  1  0
  7 36  1  0
  8 37  1  0
  9 38  1  0
 10 39  1  0
 11 40  1  0
 12 41  1  0
 13 42  1  0
 13 43  1  0
 14 44  1  0
 14 45  1  0
 18 46  1  0
 18 47  1  0
 20 48  1  0
 23 49  1  0
 24 50  1  0
 25 51  1  0
 26 52  1  0
 28 53  1  0
 29 54  1  0
 29 55  1  0
 30 56  1  0
 30 57  1  0
M  END
>  <smiles>  (14) 
CCC(=O)N(c1ccccc1)C1CCN(C(=O)Cc2cnc3ccccc3c2)CC1

>  <score_type>  (14) 
oracle

>  <origin>  (14) 
autodockgpu

>  <m_score__min__energy>  (14) 
-8.8599999999999994

>  <m_primary>  (14) 
energy

>  <rmsd>  (14) 
8.34145791031444

>  <m_score__min__rmsd>  (14) 
8.34145791031444

>  <meeko>  (14) 
{"free_energy": -8.77, "intermolecular_energy": -10.56, "internal_energy": -1.47, "cluster_size": 43, "cluster_id": 1, "rank_in_cluster": 11}

>  <energy>  (14) 
-8.76

>  <cluster_rmsd>  (14) 
0.36

>  <cluster>  (14) 
1

$$$$

     RDKit          3D

 57 60  0  0  0  0  0  0  0  0999 V2000
  146.3030   73.3620  221.4690 C   0  0  0  0  0  0  0  0  0  0  0  0
  145.1410   73.5970  220.5610 C   0  0  0  0  0  0  0  0  0  0  0  0
  145.1560   72.6260  219.4360 C   0  0  0  0  0  0  0  0  0  0  0  0
  145.9450   72.8290  218.4780 O   0  0  0  0  0  0  0  0  0  0  0  0
  144.2750   71.4850  219.4730 N   0  0  0  0  0  0  0  0  0  0  0  0
  144.8140   70.1700  219.2410 C   0  0  0  0  0  0  0  0  0  0  0  0
  145.7330   70.0090  218.2220 C   0  0  0  0  0  0  0  0  0  0  0  0
  146.2970   68.7750  217.9360 C   0  0  0  0  0  0  0  0  0  0  0  0
  145.8980   67.6870  218.7200 C   0  0  0  0  0  0  0  0  0  0  0  0
  144.9820   67.8400  219.7370 C   0  0  0  0  0  0  0  0  0  0  0  0
  144.4280   69.0880  220.0080 C   0  0  0  0  0  0  0  0  0  0  0  0
  142.8650   71.6930  219.7430 C   0  0  0  0  0  0  0  0  0  0  0  0
  142.6670   71.5540  221.2310 C   0  0  0  0  0  0  0  0  0  0  0  0
  141.1770   71.8520  221.4470 C   0  0  0  0  0  0  0  0  0  0  0  0
  140.5010   70.6840  220.8830 N   0  0  0  0  0  0  0  0  0  0  0  0
  139.3020   70.1980  221.4890 C   0  0  0  0  0  0  0  0  0  0  0  0
  138.6810   69.1880  221.0420 O   0  0  0  0  0  0  0  0  0  0  0  0
  138.7540   70.8740  222.6740 C   0  0  0  0  0  0  0  0  0  0  0  0
  139.1300   70.1410  223.9050 C   0  0  0  0  0  0  0  0  0  0  0  0
  138.8410   68.7990  223.9980 C   0  0  0  0  0  0  0  0  0  0  0  0
  139.1510   68.0550  225.0870 N   0  0  0  0  0  0  0  0  0  0  0  0
  139.7770   68.6890  226.1210 C   0  0  0  0  0  0  0  0  0  0  0  0
  140.1150   67.9830  227.2500 C   0  0  0  0  0  0  0  0  0  0  0  0
  140.7480   68.5490  228.3360 C   0  0  0  0  0  0  0  0  0  0  0  0
  141.0500   69.9110  228.2590 C   0  0  0  0  0  0  0  0  0  0  0  0
  140.7230   70.6580  227.1320 C   0  0  0  0  0  0  0  0  0  0  0  0
  140.0840   70.0370  226.0660 C   0  0  0  0  0  0  0  0  0  0  0  0
  139.7630   70.8010  224.9400 C   0  0  0  0  0  0  0  0  0  0  0  0
  141.0020   69.9970  219.7220 C   0  0  0  0  0  0  0  0  0  0  0  0
  142.0210   70.7550  218.9450 C   0  0  0  0  0  0  0  0  0  0  0  0
  145.9702   73.4293  222.5153 H   0  0  0  0  0  0  0  0  0  0  0  0
  146.7193   72.3615  221.2803 H   0  0  0  0  0  0  0  0  0  0  0  0
  147.0754   74.1221  221.2803 H   0  0  0  0  0  0  0  0  0  0  0  0
  144.2070   73.4779  221.1298 H   0  0  0  0  0  0  0  0  0  0  0  0
  145.2085   74.6162  220.1527 H   0  0  0  0  0  0  0  0  0  0  0  0
  146.0251   70.8831  217.6215 H   0  0  0  0  0  0  0  0  0  0  0  0
  147.0297   68.6561  217.1242 H   0  0  0  0  0  0  0  0  0  0  0  0
  146.3232   66.6923  218.5207 H   0  0  0  0  0  0  0  0  0  0  0  0
  144.6858   66.9690  220.3400 H   0  0  0  0  0  0  0  0  0  0  0  0
  143.6952   69.2104  220.8192 H   0  0  0  0  0  0  0  0  0  0  0  0
  142.5445   72.6985  219.4329 H   0  0  0  0  0  0  0  0  0  0  0  0
  142.9122   70.5343  221.5628 H   0  0  0  0  0  0  0  0  0  0  0  0
  143.3175   72.2298  221.8056 H   0  0  0  0  0  0  0  0  0  0  0  0
  140.9498   71.9567  222.5182 H   0  0  0  0  0  0  0  0  0  0  0  0
  140.8597   72.7946  220.9771 H   0  0  0  0  0  0  0  0  0  0  0  0
  139.1537   71.8975  222.7249 H   0  0  0  0  0  0  0  0  0  0  0  0
  137.6572   70.9008  222.5949 H   0  0  0  0  0  0  0  0  0  0  0  0
  138.3367   68.3092  223.1520 H   0  0  0  0  0  0  0  0  0  0  0  0
  139.8681   66.9118  227.2894 H   0  0  0  0  0  0  0  0  0  0  0  0
  141.0043   67.9539  229.2249 H   0  0  0  0  0  0  0  0  0  0  0  0
  141.5552   70.4011  229.1043 H   0  0  0  0  0  0  0  0  0  0  0  0
  140.9678   71.7294  227.0853 H   0  0  0  0  0  0  0  0  0  0  0  0
  140.0024   71.8730  224.8814 H   0  0  0  0  0  0  0  0  0  0  0  0
  141.4562   69.0512  220.0524 H   0  0  0  0  0  0  0  0  0  0  0  0
  140.1427   69.8517  219.0508 H   0  0  0  0  0  0  0  0  0  0  0  0
  142.6879   70.0276  218.4591 H   0  0  0  0  0  0  0  0  0  0  0  0
  141.4589   71.3805  218.2359 H   0  0  0  0  0  0  0  0  0  0  0  0
  1  2  1  0
  2  3  1  0
  3  4  2  0
  3  5  1  0
  5  6  1  0
  6  7  2  0
  7  8  1  0
  8  9  2  0
  9 10  1  0
 10 11  2  0
  5 12  1  0
 12 13  1  0
 13 14  1  0
 14 15  1  0
 15 16  1  0
 16 17  2  0
 16 18  1  0
 18 19  1  0
 19 20  2  0
 20 21  1  0
 21 22  2  0
 22 23  1  0
 23 24  2  0
 24 25  1  0
 25 26  2  0
 26 27  1  0
 27 28  2  0
 15 29  1  0
 29 30  1  0
 11  6  1  0
 30 12  1  0
 28 19  1  0
 27 22  1  0
  1 31  1  0
  1 32  1  0
  1 33  1  0
  2 34  1  0
  2 35  1  0
  7 36  1  0
  8 37  1  0
  9 38  1  0
 10 39  1  0
 11 40  1  0
 12 41  1  0
 13 42  1  0
 13 43  1  0
 14 44  1  0
 14 45  1  0
 18 46  1  0
 18 47  1  0
 20 48  1  0
 23 49  1  0
 24 50  1  0
 25 51  1  0
 26 52  1  0
 28 53  1  0
 29 54  1  0
 29 55  1  0
 30 56  1  0
 30 57  1  0
M  END
>  <smiles>  (15) 
CCC(=O)N(c1ccccc1)C1CCN(C(=O)Cc2cnc3ccccc3c2)CC1

>  <score_type>  (15) 
oracle

>  <origin>  (15) 
autodockgpu

>  <m_score__min__energy>  (15) 
-8.8599999999999994

>  <m_primary>  (15) 
energy

>  <rmsd>  (15) 
9.660481981337766

>  <m_score__min__rmsd>  (15) 
9.660481981337766

>  <meeko>  (15) 
{"free_energy": -8.75, "intermolecular_energy": -10.54, "internal_energy": -1.42, "cluster_size": 5, "cluster_id": 2, "rank_in_cluster": 1}

>  <energy>  (15) 
-8.75

>  <cluster_rmsd>  (15) 
1.66

>  <cluster>  (15) 
1

$$$$

     RDKit          3D

 57 60  0  0  0  0  0  0  0  0999 V2000
  142.5910   78.5690  218.0780 C   0  0  0  0  0  0  0  0  0  0  0  0
  142.5770   77.3980  219.0050 C   0  0  0  0  0  0  0  0  0  0  0  0
  141.2720   77.3110  219.7110 C   0  0  0  0  0  0  0  0  0  0  0  0
  140.2270   77.1740  219.0260 O   0  0  0  0  0  0  0  0  0  0  0  0
  141.2390   77.3840  221.1510 N   0  0  0  0  0  0  0  0  0  0  0  0
  141.5590   78.6280  221.8010 C   0  0  0  0  0  0  0  0  0  0  0  0
  141.8320   78.6080  223.1550 C   0  0  0  0  0  0  0  0  0  0  0  0
  142.1490   79.7640  223.8520 C   0  0  0  0  0  0  0  0  0  0  0  0
  142.1810   80.9630  223.1330 C   0  0  0  0  0  0  0  0  0  0  0  0
  141.9100   80.9900  221.7820 C   0  0  0  0  0  0  0  0  0  0  0  0
  141.5950   79.8180  221.1010 C   0  0  0  0  0  0  0  0  0  0  0  0
  140.8850   76.1980  221.9080 C   0  0  0  0  0  0  0  0  0  0  0  0
  141.2610   75.0010  221.0710 C   0  0  0  0  0  0  0  0  0  0  0  0
  140.9230   73.7950  221.9570 C   0  0  0  0  0  0  0  0  0  0  0  0
  139.4610   73.7740  221.9790 N   0  0  0  0  0  0  0  0  0  0  0  0
  138.7700   72.5250  222.0130 C   0  0  0  0  0  0  0  0  0  0  0  0
  137.5050   72.4520  222.0290 O   0  0  0  0  0  0  0  0  0  0  0  0
  139.5320   71.2670  222.0290 C   0  0  0  0  0  0  0  0  0  0  0  0
  139.6730   70.7690  223.4170 C   0  0  0  0  0  0  0  0  0  0  0  0
  139.1870   69.5200  223.7320 C   0  0  0  0  0  0  0  0  0  0  0  0
  139.2770   68.9900  224.9750 N   0  0  0  0  0  0  0  0  0  0  0  0
  139.8790   69.7460  225.9370 C   0  0  0  0  0  0  0  0  0  0  0  0
  139.9980   69.2580  227.2150 C   0  0  0  0  0  0  0  0  0  0  0  0
  140.5930   69.9590  228.2420 C   0  0  0  0  0  0  0  0  0  0  0  0
  141.0930   71.2280  227.9420 C   0  0  0  0  0  0  0  0  0  0  0  0
  140.9900   71.7570  226.6590 C   0  0  0  0  0  0  0  0  0  0  0  0
  140.3800   71.0060  225.6610 C   0  0  0  0  0  0  0  0  0  0  0  0
  140.2860   71.5510  224.3770 C   0  0  0  0  0  0  0  0  0  0  0  0
  138.6790   74.9820  221.9700 C   0  0  0  0  0  0  0  0  0  0  0  0
  139.4430   76.2180  222.2950 C   0  0  0  0  0  0  0  0  0  0  0  0
  142.6021   79.5001  218.6636 H   0  0  0  0  0  0  0  0  0  0  0  0
  143.4887   78.5239  217.4438 H   0  0  0  0  0  0  0  0  0  0  0  0
  141.6925   78.5454  217.4438 H   0  0  0  0  0  0  0  0  0  0  0  0
  142.7384   76.4762  218.4268 H   0  0  0  0  0  0  0  0  0  0  0  0
  143.3774   77.5227  219.7492 H   0  0  0  0  0  0  0  0  0  0  0  0
  141.7970   77.6499  223.6944 H   0  0  0  0  0  0  0  0  0  0  0  0
  142.3671   79.7389  224.9299 H   0  0  0  0  0  0  0  0  0  0  0  0
  142.4265   81.9000  223.6543 H   0  0  0  0  0  0  0  0  0  0  0  0
  141.9430   81.9454  221.2378 H   0  0  0  0  0  0  0  0  0  0  0  0
  141.3782   79.8391  220.0228 H   0  0  0  0  0  0  0  0  0  0  0  0
  141.4349   76.1547  222.8597 H   0  0  0  0  0  0  0  0  0  0  0  0
  140.6748   74.9770  220.1405 H   0  0  0  0  0  0  0  0  0  0  0  0
  142.3185   75.0161  220.7687 H   0  0  0  0  0  0  0  0  0  0  0  0
  141.3213   72.8662  221.5225 H   0  0  0  0  0  0  0  0  0  0  0  0
  141.3615   73.8713  222.9629 H   0  0  0  0  0  0  0  0  0  0  0  0
  139.0031   70.5147  221.4255 H   0  0  0  0  0  0  0  0  0  0  0  0
  140.5329   71.4496  221.6109 H   0  0  0  0  0  0  0  0  0  0  0  0
  138.7051   68.9274  222.9404 H   0  0  0  0  0  0  0  0  0  0  0  0
  139.5980   68.2562  227.4303 H   0  0  0  0  0  0  0  0  0  0  0  0
  140.6707   69.5368  229.2548 H   0  0  0  0  0  0  0  0  0  0  0  0
  141.5765   71.8195  228.7334 H   0  0  0  0  0  0  0  0  0  0  0  0
  141.3870   72.7586  226.4370 H   0  0  0  0  0  0  0  0  0  0  0  0
  140.6798   72.5511  224.1431 H   0  0  0  0  0  0  0  0  0  0  0  0
  138.2440   75.1015  220.9668 H   0  0  0  0  0  0  0  0  0  0  0  0
  137.9207   74.8681  222.7587 H   0  0  0  0  0  0  0  0  0  0  0  0
  138.9634   77.0604  221.7750 H   0  0  0  0  0  0  0  0  0  0  0  0
  139.4238   76.3076  223.3912 H   0  0  0  0  0  0  0  0  0  0  0  0
  1  2  1  0
  2  3  1  0
  3  4  2  0
  3  5  1  0
  5  6  1  0
  6  7  2  0
  7  8  1  0
  8  9  2  0
  9 10  1  0
 10 11  2  0
  5 12  1  0
 12 13  1  0
 13 14  1  0
 14 15  1  0
 15 16  1  0
 16 17  2  0
 16 18  1  0
 18 19  1  0
 19 20  2  0
 20 21  1  0
 21 22  2  0
 22 23  1  0
 23 24  2  0
 24 25  1  0
 25 26  2  0
 26 27  1  0
 27 28  2  0
 15 29  1  0
 29 30  1  0
 11  6  1  0
 30 12  1  0
 28 19  1  0
 27 22  1  0
  1 31  1  0
  1 32  1  0
  1 33  1  0
  2 34  1  0
  2 35  1  0
  7 36  1  0
  8 37  1  0
  9 38  1  0
 10 39  1  0
 11 40  1  0
 12 41  1  0
 13 42  1  0
 13 43  1  0
 14 44  1  0
 14 45  1  0
 18 46  1  0
 18 47  1  0
 20 48  1  0
 23 49  1  0
 24 50  1  0
 25 51  1  0
 26 52  1  0
 28 53  1  0
 29 54  1  0
 29 55  1  0
 30 56  1  0
 30 57  1  0
M  END
>  <smiles>  (16) 
CCC(=O)N(c1ccccc1)C1CCN(C(=O)Cc2cnc3ccccc3c2)CC1

>  <score_type>  (16) 
oracle

>  <origin>  (16) 
autodockgpu

>  <m_score__min__energy>  (16) 
-8.8599999999999994

>  <m_primary>  (16) 
energy

>  <rmsd>  (16) 
8.346400980030474

>  <m_score__min__rmsd>  (16) 
8.346400980030474

>  <meeko>  (16) 
{"free_energy": -8.73, "intermolecular_energy": -10.52, "internal_energy": -1.5, "cluster_size": 43, "cluster_id": 1, "rank_in_cluster": 23}

>  <energy>  (16) 
-8.74

>  <cluster_rmsd>  (16) 
1.67

>  <cluster>  (16) 
1

$$$$

     RDKit          3D

 57 60  0  0  0  0  0  0  0  0999 V2000
  138.1540   80.6770  224.4100 C   0  0  0  0  0  0  0  0  0  0  0  0
  138.0030   80.3600  222.9590 C   0  0  0  0  0  0  0  0  0  0  0  0
  138.0870   78.8920  222.7370 C   0  0  0  0  0  0  0  0  0  0  0  0
  137.0560   78.1970  222.9220 O   0  0  0  0  0  0  0  0  0  0  0  0
  139.3380   78.3100  222.3180 N   0  0  0  0  0  0  0  0  0  0  0  0
  140.5590   79.0450  222.5160 C   0  0  0  0  0  0  0  0  0  0  0  0
  141.0420   79.8090  221.4710 C   0  0  0  0  0  0  0  0  0  0  0  0
  142.2120   80.5450  221.5850 C   0  0  0  0  0  0  0  0  0  0  0  0
  142.8950   80.4870  222.8040 C   0  0  0  0  0  0  0  0  0  0  0  0
  142.4190   79.7270  223.8510 C   0  0  0  0  0  0  0  0  0  0  0  0
  141.2430   78.9960  223.7160 C   0  0  0  0  0  0  0  0  0  0  0  0
  139.3320   76.9960  221.7040 C   0  0  0  0  0  0  0  0  0  0  0  0
  138.7670   76.0300  222.7150 C   0  0  0  0  0  0  0  0  0  0  0  0
  138.7280   74.6850  221.9770 C   0  0  0  0  0  0  0  0  0  0  0  0
  140.1370   74.3060  221.8640 N   0  0  0  0  0  0  0  0  0  0  0  0
  140.5100   72.9300  221.9520 C   0  0  0  0  0  0  0  0  0  0  0  0
  141.7160   72.5510  221.8640 O   0  0  0  0  0  0  0  0  0  0  0  0
  139.4780   71.9030  222.1530 C   0  0  0  0  0  0  0  0  0  0  0  0
  139.6610   71.2380  223.4630 C   0  0  0  0  0  0  0  0  0  0  0  0
  139.2030   69.9510  223.6300 C   0  0  0  0  0  0  0  0  0  0  0  0
  139.3310   69.2710  224.7950 N   0  0  0  0  0  0  0  0  0  0  0  0
  139.9450   69.9130  225.8310 C   0  0  0  0  0  0  0  0  0  0  0  0
  140.1020   69.2720  227.0350 C   0  0  0  0  0  0  0  0  0  0  0  0
  140.7100   69.8500  228.1280 C   0  0  0  0  0  0  0  0  0  0  0  0
  141.1810   71.1570  227.9780 C   0  0  0  0  0  0  0  0  0  0  0  0
  141.0390   71.8390  226.7740 C   0  0  0  0  0  0  0  0  0  0  0  0
  140.4180   71.2080  225.7040 C   0  0  0  0  0  0  0  0  0  0  0  0
  140.2840   71.9060  224.5000 C   0  0  0  0  0  0  0  0  0  0  0  0
  141.1760   75.2800  221.6620 C   0  0  0  0  0  0  0  0  0  0  0  0
  140.6950   76.6200  221.2250 C   0  0  0  0  0  0  0  0  0  0  0  0
  137.7576   79.8448  225.0103 H   0  0  0  0  0  0  0  0  0  0  0  0
  139.2187   80.8236  224.6444 H   0  0  0  0  0  0  0  0  0  0  0  0
  137.5970   81.5961  224.6444 H   0  0  0  0  0  0  0  0  0  0  0  0
  137.0261   80.7242  222.6083 H   0  0  0  0  0  0  0  0  0  0  0  0
  138.8129   80.8520  222.4004 H   0  0  0  0  0  0  0  0  0  0  0  0
  140.4838   79.8342  220.5235 H   0  0  0  0  0  0  0  0  0  0  0  0
  142.5886   81.1515  220.7481 H   0  0  0  0  0  0  0  0  0  0  0  0
  143.8273   81.0572  222.9294 H   0  0  0  0  0  0  0  0  0  0  0  0
  142.9734   79.6983  224.8007 H   0  0  0  0  0  0  0  0  0  0  0  0
  140.8636   78.3887  224.5510 H   0  0  0  0  0  0  0  0  0  0  0  0
  138.7001   76.9802  220.8038 H   0  0  0  0  0  0  0  0  0  0  0  0
  139.4165   75.9694  223.6007 H   0  0  0  0  0  0  0  0  0  0  0  0
  137.7758   76.3370  223.0800 H   0  0  0  0  0  0  0  0  0  0  0  0
  138.1665   73.9369  222.5558 H   0  0  0  0  0  0  0  0  0  0  0  0
  138.2262   74.7508  221.0003 H   0  0  0  0  0  0  0  0  0  0  0  0
  138.4852   72.3756  222.1218 H   0  0  0  0  0  0  0  0  0  0  0  0
  139.5631   71.1503  221.3554 H   0  0  0  0  0  0  0  0  0  0  0  0
  138.7118   69.4529  222.7811 H   0  0  0  0  0  0  0  0  0  0  0  0
  139.7228   68.2440  227.1320 H   0  0  0  0  0  0  0  0  0  0  0  0
  140.8199   69.3060  229.0778 H   0  0  0  0  0  0  0  0  0  0  0  0
  141.6725   71.6551  228.8267 H   0  0  0  0  0  0  0  0  0  0  0  0
  141.4148   72.8676  226.6705 H   0  0  0  0  0  0  0  0  0  0  0  0
  140.6557   72.9348  224.3840 H   0  0  0  0  0  0  0  0  0  0  0  0
  141.7194   75.4033  222.6104 H   0  0  0  0  0  0  0  0  0  0  0  0
  141.8086   74.8959  220.8482 H   0  0  0  0  0  0  0  0  0  0  0  0
  141.4054   77.3736  221.5958 H   0  0  0  0  0  0  0  0  0  0  0  0
  140.6307   76.5771  220.1277 H   0  0  0  0  0  0  0  0  0  0  0  0
  1  2  1  0
  2  3  1  0
  3  4  2  0
  3  5  1  0
  5  6  1  0
  6  7  2  0
  7  8  1  0
  8  9  2  0
  9 10  1  0
 10 11  2  0
  5 12  1  0
 12 13  1  0
 13 14  1  0
 14 15  1  0
 15 16  1  0
 16 17  2  0
 16 18  1  0
 18 19  1  0
 19 20  2  0
 20 21  1  0
 21 22  2  0
 22 23  1  0
 23 24  2  0
 24 25  1  0
 25 26  2  0
 26 27  1  0
 27 28  2  0
 15 29  1  0
 29 30  1  0
 11  6  1  0
 30 12  1  0
 28 19  1  0
 27 22  1  0
  1 31  1  0
  1 32  1  0
  1 33  1  0
  2 34  1  0
  2 35  1  0
  7 36  1  0
  8 37  1  0
  9 38  1  0
 10 39  1  0
 11 40  1  0
 12 41  1  0
 13 42  1  0
 13 43  1  0
 14 44  1  0
 14 45  1  0
 18 46  1  0
 18 47  1  0
 20 48  1  0
 23 49  1  0
 24 50  1  0
 25 51  1  0
 26 52  1  0
 28 53  1  0
 29 54  1  0
 29 55  1  0
 30 56  1  0
 30 57  1  0
M  END
>  <smiles>  (17) 
CCC(=O)N(c1ccccc1)C1CCN(C(=O)Cc2cnc3ccccc3c2)CC1

>  <score_type>  (17) 
oracle

>  <origin>  (17) 
autodockgpu

>  <m_score__min__energy>  (17) 
-8.8599999999999994

>  <m_primary>  (17) 
energy

>  <rmsd>  (17) 
8.183083549917711

>  <m_score__min__rmsd>  (17) 
8.183083549917711

>  <meeko>  (17) 
{"free_energy": -8.85, "intermolecular_energy": -10.64, "internal_energy": -1.44, "cluster_size": 43, "cluster_id": 1, "rank_in_cluster": 2}

>  <energy>  (17) 
-8.74

>  <cluster_rmsd>  (17) 
1.62

>  <cluster>  (17) 
1

$$$$

     RDKit          3D

 57 60  0  0  0  0  0  0  0  0999 V2000
  143.2660   75.6300  218.3870 C   0  0  0  0  0  0  0  0  0  0  0  0
  143.2020   76.7580  219.3630 C   0  0  0  0  0  0  0  0  0  0  0  0
  141.7940   77.0180  219.7640 C   0  0  0  0  0  0  0  0  0  0  0  0
  140.9180   77.0920  218.8660 O   0  0  0  0  0  0  0  0  0  0  0  0
  141.4740   77.1770  221.1610 N   0  0  0  0  0  0  0  0  0  0  0  0
  141.6010   78.4750  221.7700 C   0  0  0  0  0  0  0  0  0  0  0  0
  141.5750   79.5890  220.9540 C   0  0  0  0  0  0  0  0  0  0  0  0
  141.6920   80.8720  221.4650 C   0  0  0  0  0  0  0  0  0  0  0  0
  141.8430   81.0030  222.8500 C   0  0  0  0  0  0  0  0  0  0  0  0
  141.8700   79.8970  223.6710 C   0  0  0  0  0  0  0  0  0  0  0  0
  141.7500   78.6170  223.1370 C   0  0  0  0  0  0  0  0  0  0  0  0
  141.0320   76.0210  221.9170 C   0  0  0  0  0  0  0  0  0  0  0  0
  141.3320   74.7980  221.0880 C   0  0  0  0  0  0  0  0  0  0  0  0
  140.9050   73.6210  221.9730 C   0  0  0  0  0  0  0  0  0  0  0  0
  139.4440   73.7010  221.9810 N   0  0  0  0  0  0  0  0  0  0  0  0
  138.6680   72.5020  222.0120 C   0  0  0  0  0  0  0  0  0  0  0  0
  137.4020   72.5160  222.0160 O   0  0  0  0  0  0  0  0  0  0  0  0
  139.3420   71.1950  222.0380 C   0  0  0  0  0  0  0  0  0  0  0  0
  139.5280   70.7400  223.4350 C   0  0  0  0  0  0  0  0  0  0  0  0
  139.0840   69.4880  223.7960 C   0  0  0  0  0  0  0  0  0  0  0  0
  139.2150   68.9960  225.0510 N   0  0  0  0  0  0  0  0  0  0  0  0
  139.8190   69.7950  225.9780 C   0  0  0  0  0  0  0  0  0  0  0  0
  139.9800   69.3470  227.2660 C   0  0  0  0  0  0  0  0  0  0  0  0
  140.5780   70.0920  228.2590 C   0  0  0  0  0  0  0  0  0  0  0  0
  141.0360   71.3650  227.9120 C   0  0  0  0  0  0  0  0  0  0  0  0
  140.8900   71.8540  226.6170 C   0  0  0  0  0  0  0  0  0  0  0  0
  140.2780   71.0600  225.6550 C   0  0  0  0  0  0  0  0  0  0  0  0
  140.1410   71.5650  224.3590 C   0  0  0  0  0  0  0  0  0  0  0  0
  138.7470   74.9600  221.9610 C   0  0  0  0  0  0  0  0  0  0  0  0
  139.5920   76.1410  222.2910 C   0  0  0  0  0  0  0  0  0  0  0  0
  143.3201   74.6761  218.9321 H   0  0  0  0  0  0  0  0  0  0  0  0
  142.3658   75.6405  217.7549 H   0  0  0  0  0  0  0  0  0  0  0  0
  144.1592   75.7423  217.7549 H   0  0  0  0  0  0  0  0  0  0  0  0
  143.7909   76.4990  220.2552 H   0  0  0  0  0  0  0  0  0  0  0  0
  143.6107   77.6628  218.8895 H   0  0  0  0  0  0  0  0  0  0  0  0
  141.4582   79.4542  219.8685 H   0  0  0  0  0  0  0  0  0  0  0  0
  141.6671   81.7533  220.8072 H   0  0  0  0  0  0  0  0  0  0  0  0
  141.9418   82.0060  223.2907 H   0  0  0  0  0  0  0  0  0  0  0  0
  141.9873   80.0264  224.7571 H   0  0  0  0  0  0  0  0  0  0  0  0
  141.7734   77.7334  223.7918 H   0  0  0  0  0  0  0  0  0  0  0  0
  141.5694   75.9437  222.8737 H   0  0  0  0  0  0  0  0  0  0  0  0
  140.7537   74.8109  220.1524 H   0  0  0  0  0  0  0  0  0  0  0  0
  142.3910   74.7396  220.7961 H   0  0  0  0  0  0  0  0  0  0  0  0
  141.2426   72.6659  221.5443 H   0  0  0  0  0  0  0  0  0  0  0  0
  141.3388   73.6693  222.9827 H   0  0  0  0  0  0  0  0  0  0  0  0
  138.7293   70.4599  221.4955 H   0  0  0  0  0  0  0  0  0  0  0  0
  140.3275   71.2912  221.5589 H   0  0  0  0  0  0  0  0  0  0  0  0
  138.6020   68.8601  223.0322 H   0  0  0  0  0  0  0  0  0  0  0  0
  139.6125   68.3413  227.5181 H   0  0  0  0  0  0  0  0  0  0  0  0
  140.6899   69.7010  229.2810 H   0  0  0  0  0  0  0  0  0  0  0  0
  141.5204   71.9919  228.6752 H   0  0  0  0  0  0  0  0  0  0  0  0
  141.2554   72.8587  226.3579 H   0  0  0  0  0  0  0  0  0  0  0  0
  140.5026   72.5679  224.0882 H   0  0  0  0  0  0  0  0  0  0  0  0
  138.3314   75.1062  220.9531 H   0  0  0  0  0  0  0  0  0  0  0  0
  137.9743   74.9013  222.7417 H   0  0  0  0  0  0  0  0  0  0  0  0
  139.1763   77.0135  221.7657 H   0  0  0  0  0  0  0  0  0  0  0  0
  139.5696   76.2336  223.3869 H   0  0  0  0  0  0  0  0  0  0  0  0
  1  2  1  0
  2  3  1  0
  3  4  2  0
  3  5  1  0
  5  6  1  0
  6  7  2  0
  7  8  1  0
  8  9  2  0
  9 10  1  0
 10 11  2  0
  5 12  1  0
 12 13  1  0
 13 14  1  0
 14 15  1  0
 15 16  1  0
 16 17  2  0
 16 18  1  0
 18 19  1  0
 19 20  2  0
 20 21  1  0
 21 22  2  0
 22 23  1  0
 23 24  2  0
 24 25  1  0
 25 26  2  0
 26 27  1  0
 27 28  2  0
 15 29  1  0
 29 30  1  0
 11  6  1  0
 30 12  1  0
 28 19  1  0
 27 22  1  0
  1 31  1  0
  1 32  1  0
  1 33  1  0
  2 34  1  0
  2 35  1  0
  7 36  1  0
  8 37  1  0
  9 38  1  0
 10 39  1  0
 11 40  1  0
 12 41  1  0
 13 42  1  0
 13 43  1  0
 14 44  1  0
 14 45  1  0
 18 46  1  0
 18 47  1  0
 20 48  1  0
 23 49  1  0
 24 50  1  0
 25 51  1  0
 26 52  1  0
 28 53  1  0
 29 54  1  0
 29 55  1  0
 30 56  1  0
 30 57  1  0
M  END
>  <smiles>  (18) 
CCC(=O)N(c1ccccc1)C1CCN(C(=O)Cc2cnc3ccccc3c2)CC1

>  <score_type>  (18) 
oracle

>  <origin>  (18) 
autodockgpu

>  <m_score__min__energy>  (18) 
-8.8599999999999994

>  <m_primary>  (18) 
energy

>  <rmsd>  (18) 
8.315054578736572

>  <m_score__min__rmsd>  (18) 
8.315054578736572

>  <meeko>  (18) 
{"free_energy": -8.6, "intermolecular_energy": -10.39, "internal_energy": -1.46, "cluster_size": 43, "cluster_id": 1, "rank_in_cluster": 36}

>  <energy>  (18) 
-8.74

>  <cluster_rmsd>  (18) 
1.65

>  <cluster>  (18) 
1

$$$$

     RDKit          3D

 57 60  0  0  0  0  0  0  0  0999 V2000
  143.2300   76.4390  219.1180 C   0  0  0  0  0  0  0  0  0  0  0  0
  142.3320   77.6300  219.0440 C   0  0  0  0  0  0  0  0  0  0  0  0
  141.0760   77.3800  219.7990 C   0  0  0  0  0  0  0  0  0  0  0  0
  140.0210   77.1570  219.1530 O   0  0  0  0  0  0  0  0  0  0  0  0
  141.1010   77.4000  221.2410 N   0  0  0  0  0  0  0  0  0  0  0  0
  141.4730   78.6120  221.9230 C   0  0  0  0  0  0  0  0  0  0  0  0
  141.4850   79.7920  221.2040 C   0  0  0  0  0  0  0  0  0  0  0  0
  141.8330   81.0000  221.7900 C   0  0  0  0  0  0  0  0  0  0  0  0
  142.1770   80.9840  223.1460 C   0  0  0  0  0  0  0  0  0  0  0  0
  142.1680   79.8110  223.8690 C   0  0  0  0  0  0  0  0  0  0  0  0
  141.8150   78.6090  223.2620 C   0  0  0  0  0  0  0  0  0  0  0  0
  140.7500   76.1950  221.9680 C   0  0  0  0  0  0  0  0  0  0  0  0
  141.1560   75.0200  221.1140 C   0  0  0  0  0  0  0  0  0  0  0  0
  140.8210   73.7920  221.9690 C   0  0  0  0  0  0  0  0  0  0  0  0
  139.3590   73.7510  221.9660 N   0  0  0  0  0  0  0  0  0  0  0  0
  138.6840   72.4920  221.9640 C   0  0  0  0  0  0  0  0  0  0  0  0
  137.4210   72.4030  221.9580 O   0  0  0  0  0  0  0  0  0  0  0  0
  139.4630   71.2450  221.9670 C   0  0  0  0  0  0  0  0  0  0  0  0
  139.5990   70.7260  223.3470 C   0  0  0  0  0  0  0  0  0  0  0  0
  139.0790   69.4880  223.6510 C   0  0  0  0  0  0  0  0  0  0  0  0
  139.1610   68.9410  224.8870 N   0  0  0  0  0  0  0  0  0  0  0  0
  139.7910   69.6680  225.8540 C   0  0  0  0  0  0  0  0  0  0  0  0
  139.9040   69.1620  227.1260 C   0  0  0  0  0  0  0  0  0  0  0  0
  140.5250   69.8330  228.1570 C   0  0  0  0  0  0  0  0  0  0  0  0
  141.0590   71.0910  227.8680 C   0  0  0  0  0  0  0  0  0  0  0  0
  140.9640   71.6380  226.5920 C   0  0  0  0  0  0  0  0  0  0  0  0
  140.3260   70.9170  225.5890 C   0  0  0  0  0  0  0  0  0  0  0  0
  140.2400   71.4790  224.3120 C   0  0  0  0  0  0  0  0  0  0  0  0
  138.5610   74.9490  221.9690 C   0  0  0  0  0  0  0  0  0  0  0  0
  139.3030   76.1880  222.3320 C   0  0  0  0  0  0  0  0  0  0  0  0
  143.4195   76.1876  220.1720 H   0  0  0  0  0  0  0  0  0  0  0  0
  142.7488   75.5854  218.6183 H   0  0  0  0  0  0  0  0  0  0  0  0
  144.1831   76.6668  218.6183 H   0  0  0  0  0  0  0  0  0  0  0  0
  142.8477   78.5001  219.4764 H   0  0  0  0  0  0  0  0  0  0  0  0
  142.0823   77.8236  217.9904 H   0  0  0  0  0  0  0  0  0  0  0  0
  141.2113   79.7728  220.1388 H   0  0  0  0  0  0  0  0  0  0  0  0
  141.8383   81.9350  221.2106 H   0  0  0  0  0  0  0  0  0  0  0  0
  142.4594   81.9236  223.6434 H   0  0  0  0  0  0  0  0  0  0  0  0
  142.4419   79.8245  224.9343 H   0  0  0  0  0  0  0  0  0  0  0  0
  141.8084   77.6723  223.8386 H   0  0  0  0  0  0  0  0  0  0  0  0
  141.2845   76.1402  222.9278 H   0  0  0  0  0  0  0  0  0  0  0  0
  140.5853   75.0068  220.1737 H   0  0  0  0  0  0  0  0  0  0  0  0
  142.2181   75.0556  220.8301 H   0  0  0  0  0  0  0  0  0  0  0  0
  141.2393   72.8779  221.5223 H   0  0  0  0  0  0  0  0  0  0  0  0
  141.2421   73.8531  222.9834 H   0  0  0  0  0  0  0  0  0  0  0  0
  138.9500   70.4954  221.3466 H   0  0  0  0  0  0  0  0  0  0  0  0
  140.4650   71.4487  221.5615 H   0  0  0  0  0  0  0  0  0  0  0  0
  138.5753   68.9188  222.8558 H   0  0  0  0  0  0  0  0  0  0  0  0
  139.4766   68.1697  227.3323 H   0  0  0  0  0  0  0  0  0  0  0  0
  140.5971   69.3968  229.1642 H   0  0  0  0  0  0  0  0  0  0  0  0
  141.5636   71.6594  228.6632 H   0  0  0  0  0  0  0  0  0  0  0  0
  141.3890   72.6300  226.3792 H   0  0  0  0  0  0  0  0  0  0  0  0
  140.6611   72.4700  224.0869 H   0  0  0  0  0  0  0  0  0  0  0  0
  138.1408   75.0837  220.9614 H   0  0  0  0  0  0  0  0  0  0  0  0
  137.7916   74.8088  222.7426 H   0  0  0  0  0  0  0  0  0  0  0  0
  138.8203   77.0348  221.8221 H   0  0  0  0  0  0  0  0  0  0  0  0
  139.2653   76.2544  223.4293 H   0  0  0  0  0  0  0  0  0  0  0  0
  1  2  1  0
  2  3  1  0
  3  4  2  0
  3  5  1  0
  5  6  1  0
  6  7  2  0
  7  8  1  0
  8  9  2  0
  9 10  1  0
 10 11  2  0
  5 12  1  0
 12 13  1  0
 13 14  1  0
 14 15  1  0
 15 16  1  0
 16 17  2  0
 16 18  1  0
 18 19  1  0
 19 20  2  0
 20 21  1  0
 21 22  2  0
 22 23  1  0
 23 24  2  0
 24 25  1  0
 25 26  2  0
 26 27  1  0
 27 28  2  0
 15 29  1  0
 29 30  1  0
 11  6  1  0
 30 12  1  0
 28 19  1  0
 27 22  1  0
  1 31  1  0
  1 32  1  0
  1 33  1  0
  2 34  1  0
  2 35  1  0
  7 36  1  0
  8 37  1  0
  9 38  1  0
 10 39  1  0
 11 40  1  0
 12 41  1  0
 13 42  1  0
 13 43  1  0
 14 44  1  0
 14 45  1  0
 18 46  1  0
 18 47  1  0
 20 48  1  0
 23 49  1  0
 24 50  1  0
 25 51  1  0
 26 52  1  0
 28 53  1  0
 29 54  1  0
 29 55  1  0
 30 56  1  0
 30 57  1  0
M  END
>  <smiles>  (19) 
CCC(=O)N(c1ccccc1)C1CCN(C(=O)Cc2cnc3ccccc3c2)CC1

>  <score_type>  (19) 
oracle

>  <origin>  (19) 
autodockgpu

>  <m_score__min__energy>  (19) 
-8.8599999999999994

>  <m_primary>  (19) 
energy

>  <rmsd>  (19) 
8.38886223020826

>  <m_score__min__rmsd>  (19) 
8.38886223020826

>  <meeko>  (19) 
{"free_energy": -8.74, "intermolecular_energy": -10.53, "internal_energy": -1.47, "cluster_size": 43, "cluster_id": 1, "rank_in_cluster": 17}

>  <energy>  (19) 
-8.74

>  <cluster_rmsd>  (19) 
1.67

>  <cluster>  (19) 
1

$$$$

     RDKit          3D

 57 60  0  0  0  0  0  0  0  0999 V2000
  138.1720   80.6180  224.3330 C   0  0  0  0  0  0  0  0  0  0  0  0
  137.9550   80.2170  222.9100 C   0  0  0  0  0  0  0  0  0  0  0  0
  138.1050   78.7460  222.7560 C   0  0  0  0  0  0  0  0  0  0  0  0
  137.1300   78.0090  223.0490 O   0  0  0  0  0  0  0  0  0  0  0  0
  139.3550   78.2080  222.2780 N   0  0  0  0  0  0  0  0  0  0  0  0
  140.5600   78.9810  222.4330 C   0  0  0  0  0  0  0  0  0  0  0  0
  141.2060   78.9510  223.6540 C   0  0  0  0  0  0  0  0  0  0  0  0
  142.3710   79.6680  223.8810 C   0  0  0  0  0  0  0  0  0  0  0  0
  142.8750   80.4320  222.8230 C   0  0  0  0  0  0  0  0  0  0  0  0
  142.2360   80.4660  221.6020 C   0  0  0  0  0  0  0  0  0  0  0  0
  141.0680   79.7380  221.3950 C   0  0  0  0  0  0  0  0  0  0  0  0
  139.3640   76.9010  221.6500 C   0  0  0  0  0  0  0  0  0  0  0  0
  138.8030   75.9190  222.6480 C   0  0  0  0  0  0  0  0  0  0  0  0
  138.7800   74.5820  221.8960 C   0  0  0  0  0  0  0  0  0  0  0  0
  140.1930   74.2170  221.7860 N   0  0  0  0  0  0  0  0  0  0  0  0
  140.5780   72.8440  221.8610 C   0  0  0  0  0  0  0  0  0  0  0  0
  141.7880   72.4760  221.7750 O   0  0  0  0  0  0  0  0  0  0  0  0
  139.5550   71.8050  222.0450 C   0  0  0  0  0  0  0  0  0  0  0  0
  139.6320   71.2430  223.4140 C   0  0  0  0  0  0  0  0  0  0  0  0
  138.9560   70.0780  223.6970 C   0  0  0  0  0  0  0  0  0  0  0  0
  138.9750   69.4980  224.9210 N   0  0  0  0  0  0  0  0  0  0  0  0
  139.7030   70.1140  225.8960 C   0  0  0  0  0  0  0  0  0  0  0  0
  139.7580   69.5700  227.1560 C   0  0  0  0  0  0  0  0  0  0  0  0
  140.4710   70.1310  228.1930 C   0  0  0  0  0  0  0  0  0  0  0  0
  141.1640   71.3140  227.9250 C   0  0  0  0  0  0  0  0  0  0  0  0
  141.1310   71.8960  226.6620 C   0  0  0  0  0  0  0  0  0  0  0  0
  140.3960   71.2870  225.6510 C   0  0  0  0  0  0  0  0  0  0  0  0
  140.3740   71.8840  224.3870 C   0  0  0  0  0  0  0  0  0  0  0  0
  141.2240   75.2030  221.5990 C   0  0  0  0  0  0  0  0  0  0  0  0
  140.7320   76.5420  221.1740 C   0  0  0  0  0  0  0  0  0  0  0  0
  137.7552   79.8478  224.9986 H   0  0  0  0  0  0  0  0  0  0  0  0
  139.2502   80.7232  224.5240 H   0  0  0  0  0  0  0  0  0  0  0  0
  137.6704   81.5782  224.5240 H   0  0  0  0  0  0  0  0  0  0  0  0
  136.9413   80.5120  222.6011 H   0  0  0  0  0  0  0  0  0  0  0  0
  138.7040   80.7193  222.2802 H   0  0  0  0  0  0  0  0  0  0  0  0
  140.7849   78.3421  224.4676 H   0  0  0  0  0  0  0  0  0  0  0  0
  142.8795   79.6372  224.8559 H   0  0  0  0  0  0  0  0  0  0  0  0
  143.7964   81.0152  222.9678 H   0  0  0  0  0  0  0  0  0  0  0  0
  142.6525   81.0733  220.7849 H   0  0  0  0  0  0  0  0  0  0  0  0
  140.5577   79.7649  220.4209 H   0  0  0  0  0  0  0  0  0  0  0  0
  138.7367   76.8897  220.7465 H   0  0  0  0  0  0  0  0  0  0  0  0
  139.4487   75.8550  223.5362 H   0  0  0  0  0  0  0  0  0  0  0  0
  137.8072   76.2130  223.0112 H   0  0  0  0  0  0  0  0  0  0  0  0
  138.2225   73.8227  222.4641 H   0  0  0  0  0  0  0  0  0  0  0  0
  138.2824   74.6536  220.9176 H   0  0  0  0  0  0  0  0  0  0  0  0
  138.5590   72.2450  221.8890 H   0  0  0  0  0  0  0  0  0  0  0  0
  139.7294   70.9988  221.3173 H   0  0  0  0  0  0  0  0  0  0  0  0
  138.3758   69.5976  222.8954 H   0  0  0  0  0  0  0  0  0  0  0  0
  139.2045   68.6388  227.3470 H   0  0  0  0  0  0  0  0  0  0  0  0
  140.4936   69.6669  229.1900 H   0  0  0  0  0  0  0  0  0  0  0  0
  141.7456   71.7934  228.7262 H   0  0  0  0  0  0  0  0  0  0  0  0
  141.6806   72.8283  226.4651 H   0  0  0  0  0  0  0  0  0  0  0  0
  140.9194   72.8161  224.1781 H   0  0  0  0  0  0  0  0  0  0  0  0
  141.7619   75.3216  222.5512 H   0  0  0  0  0  0  0  0  0  0  0  0
  141.8643   74.8335  220.7844 H   0  0  0  0  0  0  0  0  0  0  0  0
  141.4336   77.2984  221.5556 H   0  0  0  0  0  0  0  0  0  0  0  0
  140.6724   76.5090  220.0761 H   0  0  0  0  0  0  0  0  0  0  0  0
  1  2  1  0
  2  3  1  0
  3  4  2  0
  3  5  1  0
  5  6  1  0
  6  7  2  0
  7  8  1  0
  8  9  2  0
  9 10  1  0
 10 11  2  0
  5 12  1  0
 12 13  1  0
 13 14  1  0
 14 15  1  0
 15 16  1  0
 16 17  2  0
 16 18  1  0
 18 19  1  0
 19 20  2  0
 20 21  1  0
 21 22  2  0
 22 23  1  0
 23 24  2  0
 24 25  1  0
 25 26  2  0
 26 27  1  0
 27 28  2  0
 15 29  1  0
 29 30  1  0
 11  6  1  0
 30 12  1  0
 28 19  1  0
 27 22  1  0
  1 31  1  0
  1 32  1  0
  1 33  1  0
  2 34  1  0
  2 35  1  0
  7 36  1  0
  8 37  1  0
  9 38  1  0
 10 39  1  0
 11 40  1  0
 12 41  1  0
 13 42  1  0
 13 43  1  0
 14 44  1  0
 14 45  1  0
 18 46  1  0
 18 47  1  0
 20 48  1  0
 23 49  1  0
 24 50  1  0
 25 51  1  0
 26 52  1  0
 28 53  1  0
 29 54  1  0
 29 55  1  0
 30 56  1  0
 30 57  1  0
M  END
>  <smiles>  (20) 
CCC(=O)N(c1ccccc1)C1CCN(C(=O)Cc2cnc3ccccc3c2)CC1

>  <score_type>  (20) 
oracle

>  <origin>  (20) 
autodockgpu

>  <m_score__min__energy>  (20) 
-8.8599999999999994

>  <m_primary>  (20) 
energy

>  <rmsd>  (20) 
8.145175563037407

>  <m_score__min__rmsd>  (20) 
8.145175563037407

>  <meeko>  (20) 
{"free_energy": -8.84, "intermolecular_energy": -10.63, "internal_energy": -1.42, "cluster_size": 43, "cluster_id": 1, "rank_in_cluster": 4}

>  <energy>  (20) 
-8.74

>  <cluster_rmsd>  (20) 
1.73

>  <cluster>  (20) 
1

$$$$

     RDKit          3D

 57 60  0  0  0  0  0  0  0  0999 V2000
  140.2000   76.1640  218.1810 C   0  0  0  0  0  0  0  0  0  0  0  0
  140.5450   77.4430  218.8700 C   0  0  0  0  0  0  0  0  0  0  0  0
  141.6900   77.2420  219.7950 C   0  0  0  0  0  0  0  0  0  0  0  0
  142.8210   76.9910  219.3060 O   0  0  0  0  0  0  0  0  0  0  0  0
  141.4770   77.3410  221.2180 N   0  0  0  0  0  0  0  0  0  0  0  0
  141.6900   78.6040  221.8760 C   0  0  0  0  0  0  0  0  0  0  0  0
  141.7620   79.7450  221.1000 C   0  0  0  0  0  0  0  0  0  0  0  0
  141.9660   80.9970  221.6600 C   0  0  0  0  0  0  0  0  0  0  0  0
  142.0990   81.0680  223.0500 C   0  0  0  0  0  0  0  0  0  0  0  0
  142.0280   79.9350  223.8310 C   0  0  0  0  0  0  0  0  0  0  0  0
  141.8220   78.6870  223.2490 C   0  0  0  0  0  0  0  0  0  0  0  0
  141.0540   76.1630  221.9500 C   0  0  0  0  0  0  0  0  0  0  0  0
  141.4010   74.9620  221.1080 C   0  0  0  0  0  0  0  0  0  0  0  0
  140.9910   73.7600  221.9700 C   0  0  0  0  0  0  0  0  0  0  0  0
  139.5290   73.8010  221.9540 N   0  0  0  0  0  0  0  0  0  0  0  0
  138.7860   72.5810  221.9550 C   0  0  0  0  0  0  0  0  0  0  0  0
  137.5190   72.5620  221.9380 O   0  0  0  0  0  0  0  0  0  0  0  0
  139.4930   71.2920  221.9740 C   0  0  0  0  0  0  0  0  0  0  0  0
  139.6430   70.8080  223.3650 C   0  0  0  0  0  0  0  0  0  0  0  0
  139.1670   69.5580  223.6930 C   0  0  0  0  0  0  0  0  0  0  0  0
  139.2640   69.0400  224.9400 N   0  0  0  0  0  0  0  0  0  0  0  0
  139.8650   69.8100  225.8940 C   0  0  0  0  0  0  0  0  0  0  0  0
  139.9910   69.3340  227.1760 C   0  0  0  0  0  0  0  0  0  0  0  0
  140.5850   70.0480  228.1950 C   0  0  0  0  0  0  0  0  0  0  0  0
  141.0740   71.3180  227.8810 C   0  0  0  0  0  0  0  0  0  0  0  0
  140.9640   71.8350  226.5940 C   0  0  0  0  0  0  0  0  0  0  0  0
  140.3560   71.0710  225.6040 C   0  0  0  0  0  0  0  0  0  0  0  0
  140.2530   71.6030  224.3160 C   0  0  0  0  0  0  0  0  0  0  0  0
  138.7990   75.0410  221.9410 C   0  0  0  0  0  0  0  0  0  0  0  0
  139.6050   76.2390  222.3020 C   0  0  0  0  0  0  0  0  0  0  0  0
  139.9906   75.3879  218.9319 H   0  0  0  0  0  0  0  0  0  0  0  0
  139.3104   76.3149  217.5518 H   0  0  0  0  0  0  0  0  0  0  0  0
  141.0447   75.8470  217.5518 H   0  0  0  0  0  0  0  0  0  0  0  0
  140.8156   78.1983  218.1174 H   0  0  0  0  0  0  0  0  0  0  0  0
  139.6737   77.7815  219.4499 H   0  0  0  0  0  0  0  0  0  0  0  0
  141.6546   79.6578  220.0087 H   0  0  0  0  0  0  0  0  0  0  0  0
  142.0211   81.9001  221.0344 H   0  0  0  0  0  0  0  0  0  0  0  0
  142.2631   82.0449  223.5282 H   0  0  0  0  0  0  0  0  0  0  0  0
  142.1349   80.0171  224.9227 H   0  0  0  0  0  0  0  0  0  0  0  0
  141.7653   77.7821  223.8719 H   0  0  0  0  0  0  0  0  0  0  0  0
  141.5768   76.0855  222.9147 H   0  0  0  0  0  0  0  0  0  0  0  0
  140.8381   74.9734  220.1630 H   0  0  0  0  0  0  0  0  0  0  0  0
  142.4656   74.9366  220.8325 H   0  0  0  0  0  0  0  0  0  0  0  0
  141.3614   72.8206  221.5338 H   0  0  0  0  0  0  0  0  0  0  0  0
  141.4065   73.8050  222.9875 H   0  0  0  0  0  0  0  0  0  0  0  0
  138.9190   70.5549  221.3933 H   0  0  0  0  0  0  0  0  0  0  0  0
  140.4915   71.4253  221.5322 H   0  0  0  0  0  0  0  0  0  0  0  0
  138.6875   68.9546  222.9081 H   0  0  0  0  0  0  0  0  0  0  0  0
  139.5978   68.3317  227.4014 H   0  0  0  0  0  0  0  0  0  0  0  0
  140.6701   69.6353  229.2111 H   0  0  0  0  0  0  0  0  0  0  0  0
  141.5549   71.9206  228.6656 H   0  0  0  0  0  0  0  0  0  0  0  0
  141.3538   72.8372  226.3622 H   0  0  0  0  0  0  0  0  0  0  0  0
  140.6381   72.6040  224.0717 H   0  0  0  0  0  0  0  0  0  0  0  0
  138.3960   75.1911  220.9286 H   0  0  0  0  0  0  0  0  0  0  0  0
  138.0161   74.9496  222.7082 H   0  0  0  0  0  0  0  0  0  0  0  0
  139.1742   77.1076  221.7824 H   0  0  0  0  0  0  0  0  0  0  0  0
  139.5620   76.3153  223.3985 H   0  0  0  0  0  0  0  0  0  0  0  0
  1  2  1  0
  2  3  1  0
  3  4  2  0
  3  5  1  0
  5  6  1  0
  6  7  2  0
  7  8  1  0
  8  9  2  0
  9 10  1  0
 10 11  2  0
  5 12  1  0
 12 13  1  0
 13 14  1  0
 14 15  1  0
 15 16  1  0
 16 17  2  0
 16 18  1  0
 18 19  1  0
 19 20  2  0
 20 21  1  0
 21 22  2  0
 22 23  1  0
 23 24  2  0
 24 25  1  0
 25 26  2  0
 26 27  1  0
 27 28  2  0
 15 29  1  0
 29 30  1  0
 11  6  1  0
 30 12  1  0
 28 19  1  0
 27 22  1  0
  1 31  1  0
  1 32  1  0
  1 33  1  0
  2 34  1  0
  2 35  1  0
  7 36  1  0
  8 37  1  0
  9 38  1  0
 10 39  1  0
 11 40  1  0
 12 41  1  0
 13 42  1  0
 13 43  1  0
 14 44  1  0
 14 45  1  0
 18 46  1  0
 18 47  1  0
 20 48  1  0
 23 49  1  0
 24 50  1  0
 25 51  1  0
 26 52  1  0
 28 53  1  0
 29 54  1  0
 29 55  1  0
 30 56  1  0
 30 57  1  0
M  END
>  <smiles>  (21) 
CCC(=O)N(c1ccccc1)C1CCN(C(=O)Cc2cnc3ccccc3c2)CC1

>  <score_type>  (21) 
oracle

>  <origin>  (21) 
autodockgpu

>  <m_score__min__energy>  (21) 
-8.8599999999999994

>  <m_primary>  (21) 
energy

>  <rmsd>  (21) 
8.29739812400561

>  <m_score__min__rmsd>  (21) 
8.29739812400561

>  <meeko>  (21) 
{"free_energy": -8.35, "intermolecular_energy": -10.14, "internal_energy": -1.55, "cluster_size": 43, "cluster_id": 1, "rank_in_cluster": 43}

>  <energy>  (21) 
-8.74

>  <cluster_rmsd>  (21) 
1.71

>  <cluster>  (21) 
1

$$$$

     RDKit          3D

 57 60  0  0  0  0  0  0  0  0999 V2000
  138.1400   80.6190  224.4200 C   0  0  0  0  0  0  0  0  0  0  0  0
  137.9430   80.2990  222.9750 C   0  0  0  0  0  0  0  0  0  0  0  0
  138.0550   78.8340  222.7480 C   0  0  0  0  0  0  0  0  0  0  0  0
  137.0520   78.1120  222.9800 O   0  0  0  0  0  0  0  0  0  0  0  0
  139.3000   78.2850  222.2710 N   0  0  0  0  0  0  0  0  0  0  0  0
  140.5090   79.0540  222.4110 C   0  0  0  0  0  0  0  0  0  0  0  0
  141.1740   79.0150  223.6210 C   0  0  0  0  0  0  0  0  0  0  0  0
  142.3440   79.7280  223.8330 C   0  0  0  0  0  0  0  0  0  0  0  0
  142.8330   80.4980  222.7730 C   0  0  0  0  0  0  0  0  0  0  0  0
  142.1740   80.5420  221.5630 C   0  0  0  0  0  0  0  0  0  0  0  0
  141.0010   79.8180  221.3700 C   0  0  0  0  0  0  0  0  0  0  0  0
  139.3010   76.9700  221.6590 C   0  0  0  0  0  0  0  0  0  0  0  0
  138.7300   76.0040  222.6660 C   0  0  0  0  0  0  0  0  0  0  0  0
  138.6980   74.6590  221.9300 C   0  0  0  0  0  0  0  0  0  0  0  0
  140.1080   74.2820  221.8290 N   0  0  0  0  0  0  0  0  0  0  0  0
  140.4830   72.9070  221.9220 C   0  0  0  0  0  0  0  0  0  0  0  0
  141.6900   72.5290  221.8440 O   0  0  0  0  0  0  0  0  0  0  0  0
  139.4510   71.8780  222.1160 C   0  0  0  0  0  0  0  0  0  0  0  0
  139.6330   71.2060  223.4230 C   0  0  0  0  0  0  0  0  0  0  0  0
  139.2160   69.9020  223.5680 C   0  0  0  0  0  0  0  0  0  0  0  0
  139.3460   69.2150  224.7280 N   0  0  0  0  0  0  0  0  0  0  0  0
  139.9170   69.8670  225.7820 C   0  0  0  0  0  0  0  0  0  0  0  0
  140.0750   69.2180  226.9830 C   0  0  0  0  0  0  0  0  0  0  0  0
  140.6420   69.8050  228.0930 C   0  0  0  0  0  0  0  0  0  0  0  0
  141.0710   71.1290  227.9650 C   0  0  0  0  0  0  0  0  0  0  0  0
  140.9280   71.8190  226.7650 C   0  0  0  0  0  0  0  0  0  0  0  0
  140.3480   71.1770  225.6770 C   0  0  0  0  0  0  0  0  0  0  0  0
  140.2130   71.8840  224.4780 C   0  0  0  0  0  0  0  0  0  0  0  0
  141.1480   75.2570  221.6340 C   0  0  0  0  0  0  0  0  0  0  0  0
  140.6680   76.5950  221.1910 C   0  0  0  0  0  0  0  0  0  0  0  0
  137.6622   79.8429  225.0359 H   0  0  0  0  0  0  0  0  0  0  0  0
  139.2163   80.6541  224.6444 H   0  0  0  0  0  0  0  0  0  0  0  0
  137.6867   81.5958  224.6444 H   0  0  0  0  0  0  0  0  0  0  0  0
  136.9450   80.6390  222.6614 H   0  0  0  0  0  0  0  0  0  0  0  0
  138.7191   80.8112  222.3874 H   0  0  0  0  0  0  0  0  0  0  0  0
  140.7646   78.4023  224.4377 H   0  0  0  0  0  0  0  0  0  0  0  0
  142.8683   79.6894  224.7993 H   0  0  0  0  0  0  0  0  0  0  0  0
  143.7582   81.0778  222.9069 H   0  0  0  0  0  0  0  0  0  0  0  0
  142.5784   81.1542  220.7434 H   0  0  0  0  0  0  0  0  0  0  0  0
  140.4744   79.8534  220.4049 H   0  0  0  0  0  0  0  0  0  0  0  0
  138.6758   76.9529  220.7541 H   0  0  0  0  0  0  0  0  0  0  0  0
  139.3730   75.9450  223.5566 H   0  0  0  0  0  0  0  0  0  0  0  0
  137.7355   76.3100  223.0229 H   0  0  0  0  0  0  0  0  0  0  0  0
  138.1327   73.9110  222.5053 H   0  0  0  0  0  0  0  0  0  0  0  0
  138.2037   74.7227  220.9494 H   0  0  0  0  0  0  0  0  0  0  0  0
  138.4579   72.3502  222.0861 H   0  0  0  0  0  0  0  0  0  0  0  0
  139.5374   71.1297  221.3144 H   0  0  0  0  0  0  0  0  0  0  0  0
  138.7578   69.3966  222.7051 H   0  0  0  0  0  0  0  0  0  0  0  0
  139.7310   68.1762  227.0622 H   0  0  0  0  0  0  0  0  0  0  0  0
  140.7523   69.2552  229.0394 H   0  0  0  0  0  0  0  0  0  0  0  0
  141.5296   71.6344  228.8277 H   0  0  0  0  0  0  0  0  0  0  0  0
  141.2701   72.8609  226.6784 H   0  0  0  0  0  0  0  0  0  0  0  0
  140.5511   72.9261  224.3798 H   0  0  0  0  0  0  0  0  0  0  0  0
  141.6835   75.3827  222.5866 H   0  0  0  0  0  0  0  0  0  0  0  0
  141.7884   74.8725  220.8266 H   0  0  0  0  0  0  0  0  0  0  0  0
  141.3744   77.3505  221.5655 H   0  0  0  0  0  0  0  0  0  0  0  0
  140.6117   76.5496  220.0934 H   0  0  0  0  0  0  0  0  0  0  0  0
  1  2  1  0
  2  3  1  0
  3  4  2  0
  3  5  1  0
  5  6  1  0
  6  7  2  0
  7  8  1  0
  8  9  2  0
  9 10  1  0
 10 11  2  0
  5 12  1  0
 12 13  1  0
 13 14  1  0
 14 15  1  0
 15 16  1  0
 16 17  2  0
 16 18  1  0
 18 19  1  0
 19 20  2  0
 20 21  1  0
 21 22  2  0
 22 23  1  0
 23 24  2  0
 24 25  1  0
 25 26  2  0
 26 27  1  0
 27 28  2  0
 15 29  1  0
 29 30  1  0
 11  6  1  0
 30 12  1  0
 28 19  1  0
 27 22  1  0
  1 31  1  0
  1 32  1  0
  1 33  1  0
  2 34  1  0
  2 35  1  0
  7 36  1  0
  8 37  1  0
  9 38  1  0
 10 39  1  0
 11 40  1  0
 12 41  1  0
 13 42  1  0
 13 43  1  0
 14 44  1  0
 14 45  1  0
 18 46  1  0
 18 47  1  0
 20 48  1  0
 23 49  1  0
 24 50  1  0
 25 51  1  0
 26 52  1  0
 28 53  1  0
 29 54  1  0
 29 55  1  0
 30 56  1  0
 30 57  1  0
M  END
>  <smiles>  (22) 
CCC(=O)N(c1ccccc1)C1CCN(C(=O)Cc2cnc3ccccc3c2)CC1

>  <score_type>  (22) 
oracle

>  <origin>  (22) 
autodockgpu

>  <m_score__min__energy>  (22) 
-8.8599999999999994

>  <m_primary>  (22) 
energy

>  <rmsd>  (22) 
8.183289492718258

>  <m_score__min__rmsd>  (22) 
8.183289492718258

>  <meeko>  (22) 
{"free_energy": -8.86, "intermolecular_energy": -10.65, "internal_energy": -1.41, "cluster_size": 43, "cluster_id": 1, "rank_in_cluster": 1}

>  <energy>  (22) 
-8.73

>  <cluster_rmsd>  (22) 
1.72

>  <cluster>  (22) 
1

$$$$

     RDKit          3D

 57 60  0  0  0  0  0  0  0  0999 V2000
  143.3830   76.3710  219.6640 C   0  0  0  0  0  0  0  0  0  0  0  0
  142.2920   77.0910  218.9410 C   0  0  0  0  0  0  0  0  0  0  0  0
  141.0200   77.0080  219.7060 C   0  0  0  0  0  0  0  0  0  0  0  0
  139.9430   76.8910  219.0700 O   0  0  0  0  0  0  0  0  0  0  0  0
  141.0560   77.0630  221.1470 N   0  0  0  0  0  0  0  0  0  0  0  0
  141.4510   78.2860  221.7960 C   0  0  0  0  0  0  0  0  0  0  0  0
  141.4920   78.3130  223.1770 C   0  0  0  0  0  0  0  0  0  0  0  0
  141.8620   79.4520  223.8740 C   0  0  0  0  0  0  0  0  0  0  0  0
  142.1950   80.5870  223.1270 C   0  0  0  0  0  0  0  0  0  0  0  0
  142.1570   80.5680  221.7490 C   0  0  0  0  0  0  0  0  0  0  0  0
  141.7820   79.4130  221.0680 C   0  0  0  0  0  0  0  0  0  0  0  0
  140.6930   75.8820  221.9060 C   0  0  0  0  0  0  0  0  0  0  0  0
  141.0770   74.6810  221.0790 C   0  0  0  0  0  0  0  0  0  0  0  0
  140.7300   73.4790  221.9670 C   0  0  0  0  0  0  0  0  0  0  0  0
  139.2670   73.4590  221.9740 N   0  0  0  0  0  0  0  0  0  0  0  0
  138.5750   72.2100  222.0080 C   0  0  0  0  0  0  0  0  0  0  0  0
  137.3100   72.1390  222.0120 O   0  0  0  0  0  0  0  0  0  0  0  0
  139.3350   70.9520  222.0370 C   0  0  0  0  0  0  0  0  0  0  0  0
  139.5200   70.4950  223.4340 C   0  0  0  0  0  0  0  0  0  0  0  0
  139.0870   69.2380  223.7890 C   0  0  0  0  0  0  0  0  0  0  0  0
  139.2180   68.7430  225.0420 N   0  0  0  0  0  0  0  0  0  0  0  0
  139.8090   69.5460  225.9740 C   0  0  0  0  0  0  0  0  0  0  0  0
  139.9690   69.0950  227.2620 C   0  0  0  0  0  0  0  0  0  0  0  0
  140.5550   69.8430  228.2600 C   0  0  0  0  0  0  0  0  0  0  0  0
  141.0020   71.1220  227.9190 C   0  0  0  0  0  0  0  0  0  0  0  0
  140.8570   71.6140  226.6250 C   0  0  0  0  0  0  0  0  0  0  0  0
  140.2570   70.8160  225.6570 C   0  0  0  0  0  0  0  0  0  0  0  0
  140.1200   71.3240  224.3620 C   0  0  0  0  0  0  0  0  0  0  0  0
  138.4860   74.6680  221.9520 C   0  0  0  0  0  0  0  0  0  0  0  0
  139.2480   75.9050  222.2790 C   0  0  0  0  0  0  0  0  0  0  0  0
  143.2318   76.4708  220.7490 H   0  0  0  0  0  0  0  0  0  0  0  0
  143.3656   75.3064  219.3877 H   0  0  0  0  0  0  0  0  0  0  0  0
  144.3550   76.8056  219.3877 H   0  0  0  0  0  0  0  0  0  0  0  0
  142.5735   78.1474  218.8195 H   0  0  0  0  0  0  0  0  0  0  0  0
  142.1472   76.6226  217.9563 H   0  0  0  0  0  0  0  0  0  0  0  0
  141.2237   77.4058  223.7382 H   0  0  0  0  0  0  0  0  0  0  0  0
  141.8927   79.4633  224.9735 H   0  0  0  0  0  0  0  0  0  0  0  0
  142.4920   81.5094  223.6475 H   0  0  0  0  0  0  0  0  0  0  0  0
  142.4250   81.4724  221.1832 H   0  0  0  0  0  0  0  0  0  0  0  0
  141.7497   79.3978  219.9686 H   0  0  0  0  0  0  0  0  0  0  0  0
  141.2326   75.8431  222.8637 H   0  0  0  0  0  0  0  0  0  0  0  0
  140.5002   74.6526  220.1428 H   0  0  0  0  0  0  0  0  0  0  0  0
  142.1376   74.6945  220.7876 H   0  0  0  0  0  0  0  0  0  0  0  0
  141.1323   72.5482  221.5408 H   0  0  0  0  0  0  0  0  0  0  0  0
  141.1585   73.5593  222.9769 H   0  0  0  0  0  0  0  0  0  0  0  0
  138.7859   70.1833  221.4735 H   0  0  0  0  0  0  0  0  0  0  0  0
  140.3222   71.1199  221.5818 H   0  0  0  0  0  0  0  0  0  0  0  0
  138.6139   68.6081  223.0212 H   0  0  0  0  0  0  0  0  0  0  0  0
  139.6108   68.0848  227.5092 H   0  0  0  0  0  0  0  0  0  0  0  0
  140.6661   69.4499  229.2813 H   0  0  0  0  0  0  0  0  0  0  0  0
  141.4767   71.7511  228.6864 H   0  0  0  0  0  0  0  0  0  0  0  0
  141.2132   72.6232  226.3708 H   0  0  0  0  0  0  0  0  0  0  0  0
  140.4717   72.3316  224.0956 H   0  0  0  0  0  0  0  0  0  0  0  0
  138.0609   74.7834  220.9440 H   0  0  0  0  0  0  0  0  0  0  0  0
  137.7199   74.5582  222.7337 H   0  0  0  0  0  0  0  0  0  0  0  0
  138.7741   76.7455  221.7508 H   0  0  0  0  0  0  0  0  0  0  0  0
  139.2184   75.9995  223.3745 H   0  0  0  0  0  0  0  0  0  0  0  0
  1  2  1  0
  2  3  1  0
  3  4  2  0
  3  5  1  0
  5  6  1  0
  6  7  2  0
  7  8  1  0
  8  9  2  0
  9 10  1  0
 10 11  2  0
  5 12  1  0
 12 13  1  0
 13 14  1  0
 14 15  1  0
 15 16  1  0
 16 17  2  0
 16 18  1  0
 18 19  1  0
 19 20  2  0
 20 21  1  0
 21 22  2  0
 22 23  1  0
 23 24  2  0
 24 25  1  0
 25 26  2  0
 26 27  1  0
 27 28  2  0
 15 29  1  0
 29 30  1  0
 11  6  1  0
 30 12  1  0
 28 19  1  0
 27 22  1  0
  1 31  1  0
  1 32  1  0
  1 33  1  0
  2 34  1  0
  2 35  1  0
  7 36  1  0
  8 37  1  0
  9 38  1  0
 10 39  1  0
 11 40  1  0
 12 41  1  0
 13 42  1  0
 13 43  1  0
 14 44  1  0
 14 45  1  0
 18 46  1  0
 18 47  1  0
 20 48  1  0
 23 49  1  0
 24 50  1  0
 25 51  1  0
 26 52  1  0
 28 53  1  0
 29 54  1  0
 29 55  1  0
 30 56  1  0
 30 57  1  0
M  END
>  <smiles>  (23) 
CCC(=O)N(c1ccccc1)C1CCN(C(=O)Cc2cnc3ccccc3c2)CC1

>  <score_type>  (23) 
oracle

>  <origin>  (23) 
autodockgpu

>  <m_score__min__energy>  (23) 
-8.8599999999999994

>  <m_primary>  (23) 
energy

>  <rmsd>  (23) 
8.47482243894009

>  <m_score__min__rmsd>  (23) 
8.47482243894009

>  <meeko>  (23) 
{"free_energy": -8.75, "intermolecular_energy": -10.54, "internal_energy": -1.48, "cluster_size": 43, "cluster_id": 1, "rank_in_cluster": 15}

>  <energy>  (23) 
-8.73

>  <cluster_rmsd>  (23) 
1.72

>  <cluster>  (23) 
1

$$$$

     RDKit          3D

 57 60  0  0  0  0  0  0  0  0999 V2000
  142.6230   78.3950  218.0720 C   0  0  0  0  0  0  0  0  0  0  0  0
  142.5740   77.2960  219.0820 C   0  0  0  0  0  0  0  0  0  0  0  0
  141.2600   77.2900  219.7780 C   0  0  0  0  0  0  0  0  0  0  0  0
  140.2130   77.2420  219.0840 O   0  0  0  0  0  0  0  0  0  0  0  0
  141.2220   77.3360  221.2190 N   0  0  0  0  0  0  0  0  0  0  0  0
  141.5540   78.5640  221.8930 C   0  0  0  0  0  0  0  0  0  0  0  0
  141.6150   79.7260  221.1480 C   0  0  0  0  0  0  0  0  0  0  0  0
  141.9280   80.9470  221.7250 C   0  0  0  0  0  0  0  0  0  0  0  0
  142.1840   80.9650  223.1000 C   0  0  0  0  0  0  0  0  0  0  0  0
  142.1240   79.8110  223.8500 C   0  0  0  0  0  0  0  0  0  0  0  0
  141.8080   78.5940  223.2510 C   0  0  0  0  0  0  0  0  0  0  0  0
  140.8530   76.1410  221.9530 C   0  0  0  0  0  0  0  0  0  0  0  0
  141.2280   74.9550  221.1000 C   0  0  0  0  0  0  0  0  0  0  0  0
  140.8740   73.7370  221.9620 C   0  0  0  0  0  0  0  0  0  0  0  0
  139.4110   73.7270  221.9700 N   0  0  0  0  0  0  0  0  0  0  0  0
  138.7110   72.4820  221.9770 C   0  0  0  0  0  0  0  0  0  0  0  0
  137.4460   72.4180  221.9810 O   0  0  0  0  0  0  0  0  0  0  0  0
  139.4630   71.2190  221.9790 C   0  0  0  0  0  0  0  0  0  0  0  0
  139.6260   70.7180  223.3630 C   0  0  0  0  0  0  0  0  0  0  0  0
  139.1700   69.4570  223.6760 C   0  0  0  0  0  0  0  0  0  0  0  0
  139.2800   68.9240  224.9160 N   0  0  0  0  0  0  0  0  0  0  0  0
  139.8720   69.6900  225.8780 C   0  0  0  0  0  0  0  0  0  0  0  0
  140.0110   69.2000  227.1530 C   0  0  0  0  0  0  0  0  0  0  0  0
  140.5960   69.9090  228.1790 C   0  0  0  0  0  0  0  0  0  0  0  0
  141.0650   71.1910  227.8810 C   0  0  0  0  0  0  0  0  0  0  0  0
  140.9420   71.7220  226.6010 C   0  0  0  0  0  0  0  0  0  0  0  0
  140.3420   70.9620  225.6040 C   0  0  0  0  0  0  0  0  0  0  0  0
  140.2270   71.5100  224.3220 C   0  0  0  0  0  0  0  0  0  0  0  0
  138.6380   74.9400  221.9740 C   0  0  0  0  0  0  0  0  0  0  0  0
  139.4080   76.1650  222.3270 C   0  0  0  0  0  0  0  0  0  0  0  0
  142.6663   79.3655  218.5880 H   0  0  0  0  0  0  0  0  0  0  0  0
  143.5167   78.2745  217.4421 H   0  0  0  0  0  0  0  0  0  0  0  0
  141.7222   78.3545  217.4421 H   0  0  0  0  0  0  0  0  0  0  0  0
  142.7200   76.3309  218.5749 H   0  0  0  0  0  0  0  0  0  0  0  0
  143.3700   77.4573  219.8238 H   0  0  0  0  0  0  0  0  0  0  0  0
  141.4098   79.6811  220.0682 H   0  0  0  0  0  0  0  0  0  0  0  0
  141.9733   81.8672  221.1241 H   0  0  0  0  0  0  0  0  0  0  0  0
  142.4375   81.9164  223.5906 H   0  0  0  0  0  0  0  0  0  0  0  0
  142.3272   79.8511  224.9303 H   0  0  0  0  0  0  0  0  0  0  0  0
  141.7614   77.6719  223.8490 H   0  0  0  0  0  0  0  0  0  0  0  0
  141.3940   76.0784  222.9087 H   0  0  0  0  0  0  0  0  0  0  0  0
  140.6500   74.9506  220.1641 H   0  0  0  0  0  0  0  0  0  0  0  0
  142.2884   74.9676  220.8079 H   0  0  0  0  0  0  0  0  0  0  0  0
  141.2696   72.8128  221.5154 H   0  0  0  0  0  0  0  0  0  0  0  0
  141.3041   73.7924  222.9729 H   0  0  0  0  0  0  0  0  0  0  0  0
  138.9174   70.4713  221.3847 H   0  0  0  0  0  0  0  0  0  0  0  0
  140.4577   71.3950  221.5435 H   0  0  0  0  0  0  0  0  0  0  0  0
  138.6962   68.8570  222.8851 H   0  0  0  0  0  0  0  0  0  0  0  0
  139.6356   68.1883  227.3664 H   0  0  0  0  0  0  0  0  0  0  0  0
  140.6898   69.4842  229.1893 H   0  0  0  0  0  0  0  0  0  0  0  0
  141.5395   71.7906  228.6718 H   0  0  0  0  0  0  0  0  0  0  0  0
  141.3157   72.7328  226.3803 H   0  0  0  0  0  0  0  0  0  0  0  0
  140.5962   72.5198  224.0896 H   0  0  0  0  0  0  0  0  0  0  0  0
  138.2133   75.0795  220.9689 H   0  0  0  0  0  0  0  0  0  0  0  0
  137.8714   74.8184  222.7534 H   0  0  0  0  0  0  0  0  0  0  0  0
  138.9393   77.0196  221.8170 H   0  0  0  0  0  0  0  0  0  0  0  0
  139.3793   76.2362  223.4243 H   0  0  0  0  0  0  0  0  0  0  0  0
  1  2  1  0
  2  3  1  0
  3  4  2  0
  3  5  1  0
  5  6  1  0
  6  7  2  0
  7  8  1  0
  8  9  2  0
  9 10  1  0
 10 11  2  0
  5 12  1  0
 12 13  1  0
 13 14  1  0
 14 15  1  0
 15 16  1  0
 16 17  2  0
 16 18  1  0
 18 19  1  0
 19 20  2  0
 20 21  1  0
 21 22  2  0
 22 23  1  0
 23 24  2  0
 24 25  1  0
 25 26  2  0
 26 27  1  0
 27 28  2  0
 15 29  1  0
 29 30  1  0
 11  6  1  0
 30 12  1  0
 28 19  1  0
 27 22  1  0
  1 31  1  0
  1 32  1  0
  1 33  1  0
  2 34  1  0
  2 35  1  0
  7 36  1  0
  8 37  1  0
  9 38  1  0
 10 39  1  0
 11 40  1  0
 12 41  1  0
 13 42  1  0
 13 43  1  0
 14 44  1  0
 14 45  1  0
 18 46  1  0
 18 47  1  0
 20 48  1  0
 23 49  1  0
 24 50  1  0
 25 51  1  0
 26 52  1  0
 28 53  1  0
 29 54  1  0
 29 55  1  0
 30 56  1  0
 30 57  1  0
M  END
>  <smiles>  (24) 
CCC(=O)N(c1ccccc1)C1CCN(C(=O)Cc2cnc3ccccc3c2)CC1

>  <score_type>  (24) 
oracle

>  <origin>  (24) 
autodockgpu

>  <m_score__min__energy>  (24) 
-8.8599999999999994

>  <m_primary>  (24) 
energy

>  <rmsd>  (24) 
8.360726537895248

>  <m_score__min__rmsd>  (24) 
8.360726537895248

>  <meeko>  (24) 
{"free_energy": -8.72, "intermolecular_energy": -10.51, "internal_energy": -1.49, "cluster_size": 43, "cluster_id": 1, "rank_in_cluster": 26}

>  <energy>  (24) 
-8.73

>  <cluster_rmsd>  (24) 
1.7

>  <cluster>  (24) 
1

$$$$

     RDKit          3D

 57 60  0  0  0  0  0  0  0  0999 V2000
  143.3290   76.4120  219.3110 C   0  0  0  0  0  0  0  0  0  0  0  0
  142.3480   77.4820  218.9590 C   0  0  0  0  0  0  0  0  0  0  0  0
  141.0870   77.3030  219.7270 C   0  0  0  0  0  0  0  0  0  0  0  0
  140.0190   77.1130  219.0920 O   0  0  0  0  0  0  0  0  0  0  0  0
  141.1230   77.3510  221.1680 N   0  0  0  0  0  0  0  0  0  0  0  0
  141.5060   78.5740  221.8230 C   0  0  0  0  0  0  0  0  0  0  0  0
  141.7740   78.5360  223.1780 C   0  0  0  0  0  0  0  0  0  0  0  0
  142.1480   79.6720  223.8800 C   0  0  0  0  0  0  0  0  0  0  0  0
  142.2430   80.8700  223.1650 C   0  0  0  0  0  0  0  0  0  0  0  0
  141.9780   80.9160  221.8130 C   0  0  0  0  0  0  0  0  0  0  0  0
  141.6040   79.7640  221.1270 C   0  0  0  0  0  0  0  0  0  0  0  0
  140.7740   76.1610  221.9210 C   0  0  0  0  0  0  0  0  0  0  0  0
  141.1610   74.9690  221.0820 C   0  0  0  0  0  0  0  0  0  0  0  0
  140.8280   73.7580  221.9640 C   0  0  0  0  0  0  0  0  0  0  0  0
  139.3660   73.7280  221.9810 N   0  0  0  0  0  0  0  0  0  0  0  0
  138.6830   72.4740  222.0100 C   0  0  0  0  0  0  0  0  0  0  0  0
  137.4180   72.3930  222.0220 O   0  0  0  0  0  0  0  0  0  0  0  0
  139.4520   71.2210  222.0250 C   0  0  0  0  0  0  0  0  0  0  0  0
  139.6130   70.7320  223.4140 C   0  0  0  0  0  0  0  0  0  0  0  0
  139.1410   69.4810  223.7410 C   0  0  0  0  0  0  0  0  0  0  0  0
  139.2480   68.9590  224.9860 N   0  0  0  0  0  0  0  0  0  0  0  0
  139.8540   69.7260  225.9380 C   0  0  0  0  0  0  0  0  0  0  0  0
  139.9910   69.2470  227.2170 C   0  0  0  0  0  0  0  0  0  0  0  0
  140.5900   69.9580  228.2340 C   0  0  0  0  0  0  0  0  0  0  0  0
  141.0760   71.2310  227.9210 C   0  0  0  0  0  0  0  0  0  0  0  0
  140.9550   71.7510  226.6360 C   0  0  0  0  0  0  0  0  0  0  0  0
  140.3410   70.9890  225.6490 C   0  0  0  0  0  0  0  0  0  0  0  0
  140.2290   71.5250  224.3630 C   0  0  0  0  0  0  0  0  0  0  0  0
  138.5760   74.9310  221.9730 C   0  0  0  0  0  0  0  0  0  0  0  0
  139.3320   76.1710  222.3040 C   0  0  0  0  0  0  0  0  0  0  0  0
  143.4046   76.3295  220.4053 H   0  0  0  0  0  0  0  0  0  0  0  0
  142.9904   75.4523  218.8935 H   0  0  0  0  0  0  0  0  0  0  0  0
  144.3144   76.6662  218.8935 H   0  0  0  0  0  0  0  0  0  0  0  0
  142.7817   78.4642  219.1983 H   0  0  0  0  0  0  0  0  0  0  0  0
  142.1228   77.4197  217.8841 H   0  0  0  0  0  0  0  0  0  0  0  0
  141.6884   77.5793  223.7141 H   0  0  0  0  0  0  0  0  0  0  0  0
  142.3618   79.6322  224.9583 H   0  0  0  0  0  0  0  0  0  0  0  0
  142.5342   81.7915  223.6904 H   0  0  0  0  0  0  0  0  0  0  0  0
  142.0627   81.8702  221.2722 H   0  0  0  0  0  0  0  0  0  0  0  0
  141.3900   79.8002  220.0486 H   0  0  0  0  0  0  0  0  0  0  0  0
  141.3207   76.1184  222.8746 H   0  0  0  0  0  0  0  0  0  0  0  0
  140.5781   74.9435  220.1495 H   0  0  0  0  0  0  0  0  0  0  0  0
  142.2194   74.9921  220.7832 H   0  0  0  0  0  0  0  0  0  0  0  0
  141.2336   72.8330  221.5283 H   0  0  0  0  0  0  0  0  0  0  0  0
  141.2629   73.8340  222.9715 H   0  0  0  0  0  0  0  0  0  0  0  0
  138.9201   70.4619  221.4326 H   0  0  0  0  0  0  0  0  0  0  0  0
  140.4468   71.4071  221.5941 H   0  0  0  0  0  0  0  0  0  0  0  0
  138.6563   68.8797  222.9577 H   0  0  0  0  0  0  0  0  0  0  0  0
  139.6022   68.2429  227.4419 H   0  0  0  0  0  0  0  0  0  0  0  0
  140.6818   69.5421  229.2482 H   0  0  0  0  0  0  0  0  0  0  0  0
  141.5623   71.8317  228.7038 H   0  0  0  0  0  0  0  0  0  0  0  0
  141.3412   72.7545  226.4038 H   0  0  0  0  0  0  0  0  0  0  0  0
  140.6117   72.5270  224.1190 H   0  0  0  0  0  0  0  0  0  0  0  0
  138.1432   75.0507  220.9688 H   0  0  0  0  0  0  0  0  0  0  0  0
  137.8157   74.8101  222.7587 H   0  0  0  0  0  0  0  0  0  0  0  0
  138.8487   77.0121  221.7855 H   0  0  0  0  0  0  0  0  0  0  0  0
  139.3095   76.2570  223.4004 H   0  0  0  0  0  0  0  0  0  0  0  0
  1  2  1  0
  2  3  1  0
  3  4  2  0
  3  5  1  0
  5  6  1  0
  6  7  2  0
  7  8  1  0
  8  9  2  0
  9 10  1  0
 10 11  2  0
  5 12  1  0
 12 13  1  0
 13 14  1  0
 14 15  1  0
 15 16  1  0
 16 17  2  0
 16 18  1  0
 18 19  1  0
 19 20  2  0
 20 21  1  0
 21 22  2  0
 22 23  1  0
 23 24  2  0
 24 25  1  0
 25 26  2  0
 26 27  1  0
 27 28  2  0
 15 29  1  0
 29 30  1  0
 11  6  1  0
 30 12  1  0
 28 19  1  0
 27 22  1  0
  1 31  1  0
  1 32  1  0
  1 33  1  0
  2 34  1  0
  2 35  1  0
  7 36  1  0
  8 37  1  0
  9 38  1  0
 10 39  1  0
 11 40  1  0
 12 41  1  0
 13 42  1  0
 13 43  1  0
 14 44  1  0
 14 45  1  0
 18 46  1  0
 18 47  1  0
 20 48  1  0
 23 49  1  0
 24 50  1  0
 25 51  1  0
 26 52  1  0
 28 53  1  0
 29 54  1  0
 29 55  1  0
 30 56  1  0
 30 57  1  0
M  END
>  <smiles>  (25) 
CCC(=O)N(c1ccccc1)C1CCN(C(=O)Cc2cnc3ccccc3c2)CC1

>  <score_type>  (25) 
oracle

>  <origin>  (25) 
autodockgpu

>  <m_score__min__energy>  (25) 
-8.8599999999999994

>  <m_primary>  (25) 
energy

>  <rmsd>  (25) 
8.355509853516509

>  <m_score__min__rmsd>  (25) 
8.355509853516509

>  <meeko>  (25) 
{"free_energy": -8.78, "intermolecular_energy": -10.57, "internal_energy": -1.48, "cluster_size": 43, "cluster_id": 1, "rank_in_cluster": 7}

>  <energy>  (25) 
-8.72

>  <cluster_rmsd>  (25) 
1.7

>  <cluster>  (25) 
1

$$$$

     RDKit          3D

 57 60  0  0  0  0  0  0  0  0999 V2000
  143.3550   76.4010  219.3050 C   0  0  0  0  0  0  0  0  0  0  0  0
  142.3790   77.4760  218.9560 C   0  0  0  0  0  0  0  0  0  0  0  0
  141.1110   77.2910  219.7090 C   0  0  0  0  0  0  0  0  0  0  0  0
  140.0530   77.0820  219.0620 O   0  0  0  0  0  0  0  0  0  0  0  0
  141.1270   77.3540  221.1490 N   0  0  0  0  0  0  0  0  0  0  0  0
  141.4930   78.5880  221.7960 C   0  0  0  0  0  0  0  0  0  0  0  0
  141.7610   78.5630  223.1510 C   0  0  0  0  0  0  0  0  0  0  0  0
  142.1190   79.7090  223.8450 C   0  0  0  0  0  0  0  0  0  0  0  0
  142.1980   80.9040  223.1210 C   0  0  0  0  0  0  0  0  0  0  0  0
  141.9320   80.9360  221.7700 C   0  0  0  0  0  0  0  0  0  0  0  0
  141.5740   79.7740  221.0920 C   0  0  0  0  0  0  0  0  0  0  0  0
  140.7760   76.1710  221.9110 C   0  0  0  0  0  0  0  0  0  0  0  0
  141.1560   74.9720  221.0790 C   0  0  0  0  0  0  0  0  0  0  0  0
  140.8220   73.7680  221.9690 C   0  0  0  0  0  0  0  0  0  0  0  0
  139.3600   73.7430  221.9900 N   0  0  0  0  0  0  0  0  0  0  0  0
  138.6720   72.4920  222.0290 C   0  0  0  0  0  0  0  0  0  0  0  0
  137.4080   72.4160  222.0460 O   0  0  0  0  0  0  0  0  0  0  0  0
  139.4370   71.2360  222.0500 C   0  0  0  0  0  0  0  0  0  0  0  0
  139.6040   70.7580  223.4410 C   0  0  0  0  0  0  0  0  0  0  0  0
  139.1350   69.5080  223.7790 C   0  0  0  0  0  0  0  0  0  0  0  0
  139.2480   68.9950  225.0270 N   0  0  0  0  0  0  0  0  0  0  0  0
  139.8560   69.7700  225.9710 C   0  0  0  0  0  0  0  0  0  0  0  0
  139.9980   69.2990  227.2540 C   0  0  0  0  0  0  0  0  0  0  0  0
  140.6010   70.0190  228.2630 C   0  0  0  0  0  0  0  0  0  0  0  0
  141.0830   71.2900  227.9390 C   0  0  0  0  0  0  0  0  0  0  0  0
  140.9570   71.8010  226.6510 C   0  0  0  0  0  0  0  0  0  0  0  0
  140.3400   71.0310  225.6720 C   0  0  0  0  0  0  0  0  0  0  0  0
  140.2230   71.5580  224.3820 C   0  0  0  0  0  0  0  0  0  0  0  0
  138.5740   74.9490  221.9770 C   0  0  0  0  0  0  0  0  0  0  0  0
  139.3350   76.1880  222.2980 C   0  0  0  0  0  0  0  0  0  0  0  0
  143.4317   76.3165  220.3991 H   0  0  0  0  0  0  0  0  0  0  0  0
  143.0111   75.4436  218.8865 H   0  0  0  0  0  0  0  0  0  0  0  0
  144.3411   76.6510  218.8865 H   0  0  0  0  0  0  0  0  0  0  0  0
  142.8119   78.4547  219.2105 H   0  0  0  0  0  0  0  0  0  0  0  0
  142.1639   77.4257  217.8784 H   0  0  0  0  0  0  0  0  0  0  0  0
  141.6885   77.6090  223.6937 H   0  0  0  0  0  0  0  0  0  0  0  0
  142.3328   79.6798  224.9236 H   0  0  0  0  0  0  0  0  0  0  0  0
  142.4771   81.8331  223.6395 H   0  0  0  0  0  0  0  0  0  0  0  0
  142.0030   81.8873  221.2223 H   0  0  0  0  0  0  0  0  0  0  0  0
  141.3592   79.7997  220.0135 H   0  0  0  0  0  0  0  0  0  0  0  0
  141.3253   76.1337  222.8633 H   0  0  0  0  0  0  0  0  0  0  0  0
  140.5701   74.9425  220.1485 H   0  0  0  0  0  0  0  0  0  0  0  0
  142.2137   74.9895  220.7773 H   0  0  0  0  0  0  0  0  0  0  0  0
  141.2234   72.8390  221.5379 H   0  0  0  0  0  0  0  0  0  0  0  0
  141.2600   73.8486  222.9748 H   0  0  0  0  0  0  0  0  0  0  0  0
  138.8992   70.4740  221.4668 H   0  0  0  0  0  0  0  0  0  0  0  0
  140.4300   71.4151  221.6121 H   0  0  0  0  0  0  0  0  0  0  0  0
  138.6479   68.9005  223.0021 H   0  0  0  0  0  0  0  0  0  0  0  0
  139.6108   68.2963  227.4878 H   0  0  0  0  0  0  0  0  0  0  0  0
  140.6986   69.6106  229.2797 H   0  0  0  0  0  0  0  0  0  0  0  0
  141.5706   71.8972  228.7159 H   0  0  0  0  0  0  0  0  0  0  0  0
  141.3414   72.8031  226.4102 H   0  0  0  0  0  0  0  0  0  0  0  0
  140.6044   72.5584  224.1294 H   0  0  0  0  0  0  0  0  0  0  0  0
  138.1386   75.0640  220.9734 H   0  0  0  0  0  0  0  0  0  0  0  0
  137.8157   74.8356  222.7657 H   0  0  0  0  0  0  0  0  0  0  0  0
  138.8530   77.0275  221.7757 H   0  0  0  0  0  0  0  0  0  0  0  0
  139.3160   76.2806  223.3939 H   0  0  0  0  0  0  0  0  0  0  0  0
  1  2  1  0
  2  3  1  0
  3  4  2  0
  3  5  1  0
  5  6  1  0
  6  7  2  0
  7  8  1  0
  8  9  2  0
  9 10  1  0
 10 11  2  0
  5 12  1  0
 12 13  1  0
 13 14  1  0
 14 15  1  0
 15 16  1  0
 16 17  2  0
 16 18  1  0
 18 19  1  0
 19 20  2  0
 20 21  1  0
 21 22  2  0
 22 23  1  0
 23 24  2  0
 24 25  1  0
 25 26  2  0
 26 27  1  0
 27 28  2  0
 15 29  1  0
 29 30  1  0
 11  6  1  0
 30 12  1  0
 28 19  1  0
 27 22  1  0
  1 31  1  0
  1 32  1  0
  1 33  1  0
  2 34  1  0
  2 35  1  0
  7 36  1  0
  8 37  1  0
  9 38  1  0
 10 39  1  0
 11 40  1  0
 12 41  1  0
 13 42  1  0
 13 43  1  0
 14 44  1  0
 14 45  1  0
 18 46  1  0
 18 47  1  0
 20 48  1  0
 23 49  1  0
 24 50  1  0
 25 51  1  0
 26 52  1  0
 28 53  1  0
 29 54  1  0
 29 55  1  0
 30 56  1  0
 30 57  1  0
M  END
>  <smiles>  (26) 
CCC(=O)N(c1ccccc1)C1CCN(C(=O)Cc2cnc3ccccc3c2)CC1

>  <score_type>  (26) 
oracle

>  <origin>  (26) 
autodockgpu

>  <m_score__min__energy>  (26) 
-8.8599999999999994

>  <m_primary>  (26) 
energy

>  <rmsd>  (26) 
8.335143893136202

>  <m_score__min__rmsd>  (26) 
8.335143893136202

>  <meeko>  (26) 
{"free_energy": -8.78, "intermolecular_energy": -10.57, "internal_energy": -1.49, "cluster_size": 43, "cluster_id": 1, "rank_in_cluster": 6}

>  <energy>  (26) 
-8.72

>  <cluster_rmsd>  (26) 
1.71

>  <cluster>  (26) 
1

$$$$

     RDKit          3D

 57 60  0  0  0  0  0  0  0  0999 V2000
  142.7900   77.6280  217.6940 C   0  0  0  0  0  0  0  0  0  0  0  0
  142.8210   77.1100  219.0940 C   0  0  0  0  0  0  0  0  0  0  0  0
  141.4810   77.2390  219.7250 C   0  0  0  0  0  0  0  0  0  0  0  0
  140.4680   77.2680  218.9820 O   0  0  0  0  0  0  0  0  0  0  0  0
  141.3800   77.3260  221.1610 N   0  0  0  0  0  0  0  0  0  0  0  0
  141.6630   78.5780  221.8130 C   0  0  0  0  0  0  0  0  0  0  0  0
  141.8150   78.5830  223.1860 C   0  0  0  0  0  0  0  0  0  0  0  0
  142.0880   79.7480  223.8860 C   0  0  0  0  0  0  0  0  0  0  0  0
  142.2050   80.9310  223.1490 C   0  0  0  0  0  0  0  0  0  0  0  0
  142.0560   80.9340  221.7790 C   0  0  0  0  0  0  0  0  0  0  0  0
  141.7820   79.7530  221.0950 C   0  0  0  0  0  0  0  0  0  0  0  0
  140.9970   76.1460  221.9130 C   0  0  0  0  0  0  0  0  0  0  0  0
  141.3470   74.9440  221.0730 C   0  0  0  0  0  0  0  0  0  0  0  0
  140.9800   73.7430  221.9530 C   0  0  0  0  0  0  0  0  0  0  0  0
  139.5170   73.7560  221.9710 N   0  0  0  0  0  0  0  0  0  0  0  0
  138.7970   72.5220  221.9990 C   0  0  0  0  0  0  0  0  0  0  0  0
  137.5310   72.4790  222.0120 O   0  0  0  0  0  0  0  0  0  0  0  0
  139.5300   71.2480  222.0120 C   0  0  0  0  0  0  0  0  0  0  0  0
  139.6660   70.7470  223.3990 C   0  0  0  0  0  0  0  0  0  0  0  0
  139.1760   69.4990  223.7110 C   0  0  0  0  0  0  0  0  0  0  0  0
  139.2600   68.9660  224.9530 N   0  0  0  0  0  0  0  0  0  0  0  0
  139.8620   69.7190  225.9180 C   0  0  0  0  0  0  0  0  0  0  0  0
  139.9760   69.2280  227.1960 C   0  0  0  0  0  0  0  0  0  0  0  0
  140.5700   69.9250  228.2260 C   0  0  0  0  0  0  0  0  0  0  0  0
  141.0740   71.1940  227.9290 C   0  0  0  0  0  0  0  0  0  0  0  0
  140.9770   71.7250  226.6470 C   0  0  0  0  0  0  0  0  0  0  0  0
  140.3670   70.9780  225.6450 C   0  0  0  0  0  0  0  0  0  0  0  0
  140.2790   71.5250  224.3620 C   0  0  0  0  0  0  0  0  0  0  0  0
  138.7630   74.9820  221.9650 C   0  0  0  0  0  0  0  0  0  0  0  0
  139.5550   76.1980  222.2970 C   0  0  0  0  0  0  0  0  0  0  0  0
  142.7243   78.7259  217.7106 H   0  0  0  0  0  0  0  0  0  0  0  0
  143.7080   77.3235  217.1700 H   0  0  0  0  0  0  0  0  0  0  0  0
  141.9149   77.2162  217.1700 H   0  0  0  0  0  0  0  0  0  0  0  0
  143.1152   76.0501  219.0817 H   0  0  0  0  0  0  0  0  0  0  0  0
  143.5468   77.6974  219.6754 H   0  0  0  0  0  0  0  0  0  0  0  0
  141.7168   77.6371  223.7388 H   0  0  0  0  0  0  0  0  0  0  0  0
  142.2080   79.7423  224.9794 H   0  0  0  0  0  0  0  0  0  0  0  0
  142.4196   81.8748  223.6717 H   0  0  0  0  0  0  0  0  0  0  0  0
  142.1544   81.8772  221.2215 H   0  0  0  0  0  0  0  0  0  0  0  0
  141.6622   79.7549  220.0015 H   0  0  0  0  0  0  0  0  0  0  0  0
  141.5436   76.0867  222.8657 H   0  0  0  0  0  0  0  0  0  0  0  0
  140.7623   74.9368  220.1413 H   0  0  0  0  0  0  0  0  0  0  0  0
  142.4054   74.9360  220.7733 H   0  0  0  0  0  0  0  0  0  0  0  0
  141.3580   72.8071  221.5158 H   0  0  0  0  0  0  0  0  0  0  0  0
  141.4179   73.8047  222.9602 H   0  0  0  0  0  0  0  0  0  0  0  0
  138.9816   70.5077  221.4110 H   0  0  0  0  0  0  0  0  0  0  0  0
  140.5330   71.4081  221.5896 H   0  0  0  0  0  0  0  0  0  0  0  0
  138.6952   68.9090  222.9168 H   0  0  0  0  0  0  0  0  0  0  0  0
  139.5724   68.2270  227.4082 H   0  0  0  0  0  0  0  0  0  0  0  0
  140.6441   69.5007  229.2381 H   0  0  0  0  0  0  0  0  0  0  0  0
  141.5559   71.7834  228.7229 H   0  0  0  0  0  0  0  0  0  0  0  0
  141.3786   72.7254  226.4280 H   0  0  0  0  0  0  0  0  0  0  0  0
  140.6775   72.5239  224.1308 H   0  0  0  0  0  0  0  0  0  0  0  0
  138.3334   75.1158  220.9612 H   0  0  0  0  0  0  0  0  0  0  0  0
  137.9999   74.8826  222.7510 H   0  0  0  0  0  0  0  0  0  0  0  0
  139.0964   77.0537  221.7798 H   0  0  0  0  0  0  0  0  0  0  0  0
  139.5356   76.2831  223.3935 H   0  0  0  0  0  0  0  0  0  0  0  0
  1  2  1  0
  2  3  1  0
  3  4  2  0
  3  5  1  0
  5  6  1  0
  6  7  2  0
  7  8  1  0
  8  9  2  0
  9 10  1  0
 10 11  2  0
  5 12  1  0
 12 13  1  0
 13 14  1  0
 14 15  1  0
 15 16  1  0
 16 17  2  0
 16 18  1  0
 18 19  1  0
 19 20  2  0
 20 21  1  0
 21 22  2  0
 22 23  1  0
 23 24  2  0
 24 25  1  0
 25 26  2  0
 26 27  1  0
 27 28  2  0
 15 29  1  0
 29 30  1  0
 11  6  1  0
 30 12  1  0
 28 19  1  0
 27 22  1  0
  1 31  1  0
  1 32  1  0
  1 33  1  0
  2 34  1  0
  2 35  1  0
  7 36  1  0
  8 37  1  0
  9 38  1  0
 10 39  1  0
 11 40  1  0
 12 41  1  0
 13 42  1  0
 13 43  1  0
 14 44  1  0
 14 45  1  0
 18 46  1  0
 18 47  1  0
 20 48  1  0
 23 49  1  0
 24 50  1  0
 25 51  1  0
 26 52  1  0
 28 53  1  0
 29 54  1  0
 29 55  1  0
 30 56  1  0
 30 57  1  0
M  END
>  <smiles>  (27) 
CCC(=O)N(c1ccccc1)C1CCN(C(=O)Cc2cnc3ccccc3c2)CC1

>  <score_type>  (27) 
oracle

>  <origin>  (27) 
autodockgpu

>  <m_score__min__energy>  (27) 
-8.8599999999999994

>  <m_primary>  (27) 
energy

>  <rmsd>  (27) 
8.360690806599576

>  <m_score__min__rmsd>  (27) 
8.360690806599576

>  <meeko>  (27) 
{"free_energy": -8.72, "intermolecular_energy": -10.51, "internal_energy": -1.47, "cluster_size": 43, "cluster_id": 1, "rank_in_cluster": 28}

>  <energy>  (27) 
-8.72

>  <cluster_rmsd>  (27) 
1.69

>  <cluster>  (27) 
1

$$$$

     RDKit          3D

 57 60  0  0  0  0  0  0  0  0999 V2000
  138.0980   81.1960  222.9110 C   0  0  0  0  0  0  0  0  0  0  0  0
  137.9650   79.8440  223.5320 C   0  0  0  0  0  0  0  0  0  0  0  0
  138.0190   78.7860  222.4880 C   0  0  0  0  0  0  0  0  0  0  0  0
  136.9450   78.4250  221.9420 O   0  0  0  0  0  0  0  0  0  0  0  0
  139.2910   78.2090  222.1310 N   0  0  0  0  0  0  0  0  0  0  0  0
  140.4970   78.9590  222.3670 C   0  0  0  0  0  0  0  0  0  0  0  0
  141.1170   78.8340  223.5950 C   0  0  0  0  0  0  0  0  0  0  0  0
  142.2810   79.5240  223.8980 C   0  0  0  0  0  0  0  0  0  0  0  0
  142.8110   80.3610  222.9100 C   0  0  0  0  0  0  0  0  0  0  0  0
  142.1980   80.4900  221.6820 C   0  0  0  0  0  0  0  0  0  0  0  0
  141.0300   79.7880  221.3980 C   0  0  0  0  0  0  0  0  0  0  0  0
  139.3220   76.8840  221.5400 C   0  0  0  0  0  0  0  0  0  0  0  0
  138.7310   75.9290  222.5460 C   0  0  0  0  0  0  0  0  0  0  0  0
  138.7340   74.5720  221.8310 C   0  0  0  0  0  0  0  0  0  0  0  0
  140.1490   74.2070  221.7760 N   0  0  0  0  0  0  0  0  0  0  0  0
  140.5340   72.8370  221.9010 C   0  0  0  0  0  0  0  0  0  0  0  0
  141.7460   72.4700  221.8630 O   0  0  0  0  0  0  0  0  0  0  0  0
  139.5070   71.8020  222.0820 C   0  0  0  0  0  0  0  0  0  0  0  0
  139.5750   71.2430  223.4510 C   0  0  0  0  0  0  0  0  0  0  0  0
  138.8860   70.0850  223.7360 C   0  0  0  0  0  0  0  0  0  0  0  0
  138.8960   69.5080  224.9610 N   0  0  0  0  0  0  0  0  0  0  0  0
  139.6280   70.1200  225.9370 C   0  0  0  0  0  0  0  0  0  0  0  0
  139.6750   69.5780  227.1980 C   0  0  0  0  0  0  0  0  0  0  0  0
  140.3900   70.1340  228.2360 C   0  0  0  0  0  0  0  0  0  0  0  0
  141.0960   71.3090  227.9660 C   0  0  0  0  0  0  0  0  0  0  0  0
  141.0730   71.8880  226.7010 C   0  0  0  0  0  0  0  0  0  0  0  0
  140.3340   71.2840  225.6910 C   0  0  0  0  0  0  0  0  0  0  0  0
  140.3220   71.8780  224.4250 C   0  0  0  0  0  0  0  0  0  0  0  0
  141.1850   75.1900  221.5940 C   0  0  0  0  0  0  0  0  0  0  0  0
  140.7050   76.5160  221.1170 C   0  0  0  0  0  0  0  0  0  0  0  0
  138.1729   81.9570  223.7018 H   0  0  0  0  0  0  0  0  0  0  0  0
  139.0034   81.2254  222.2869 H   0  0  0  0  0  0  0  0  0  0  0  0
  137.2157   81.4013  222.2869 H   0  0  0  0  0  0  0  0  0  0  0  0
  138.7875   79.6907  224.2462 H   0  0  0  0  0  0  0  0  0  0  0  0
  136.9972   79.7836  224.0513 H   0  0  0  0  0  0  0  0  0  0  0  0
  140.6757   78.1696  224.3525 H   0  0  0  0  0  0  0  0  0  0  0  0
  142.7692   79.4174  224.8779 H   0  0  0  0  0  0  0  0  0  0  0  0
  143.7322   80.9255  223.1166 H   0  0  0  0  0  0  0  0  0  0  0  0
  142.6352   81.1528  220.9207 H   0  0  0  0  0  0  0  0  0  0  0  0
  140.5395   79.8913  220.4189 H   0  0  0  0  0  0  0  0  0  0  0  0
  138.7235   76.8454  220.6179 H   0  0  0  0  0  0  0  0  0  0  0  0
  139.3480   75.8910  223.4558 H   0  0  0  0  0  0  0  0  0  0  0  0
  137.7237   76.2306  222.8691 H   0  0  0  0  0  0  0  0  0  0  0  0
  138.1596   73.8275  222.4018 H   0  0  0  0  0  0  0  0  0  0  0  0
  138.2680   74.6158  220.8355 H   0  0  0  0  0  0  0  0  0  0  0  0
  138.5132   72.2450  221.9201 H   0  0  0  0  0  0  0  0  0  0  0  0
  139.6826   70.9937  221.3569 H   0  0  0  0  0  0  0  0  0  0  0  0
  138.3027   69.6085  222.9343 H   0  0  0  0  0  0  0  0  0  0  0  0
  139.1127   68.6521  227.3891 H   0  0  0  0  0  0  0  0  0  0  0  0
  140.4044   69.6727  229.2345 H   0  0  0  0  0  0  0  0  0  0  0  0
  141.6802   71.7847  228.7675 H   0  0  0  0  0  0  0  0  0  0  0  0
  141.6335   72.8135  226.5027 H   0  0  0  0  0  0  0  0  0  0  0  0
  140.8786   72.8033  224.2152 H   0  0  0  0  0  0  0  0  0  0  0  0
  141.6928   75.3358  222.5588 H   0  0  0  0  0  0  0  0  0  0  0  0
  141.8508   74.7994  220.8103 H   0  0  0  0  0  0  0  0  0  0  0  0
  141.3931   77.2842  221.4997 H   0  0  0  0  0  0  0  0  0  0  0  0
  140.6805   76.4535  220.0191 H   0  0  0  0  0  0  0  0  0  0  0  0
  1  2  1  0
  2  3  1  0
  3  4  2  0
  3  5  1  0
  5  6  1  0
  6  7  2  0
  7  8  1  0
  8  9  2  0
  9 10  1  0
 10 11  2  0
  5 12  1  0
 12 13  1  0
 13 14  1  0
 14 15  1  0
 15 16  1  0
 16 17  2  0
 16 18  1  0
 18 19  1  0
 19 20  2  0
 20 21  1  0
 21 22  2  0
 22 23  1  0
 23 24  2  0
 24 25  1  0
 25 26  2  0
 26 27  1  0
 27 28  2  0
 15 29  1  0
 29 30  1  0
 11  6  1  0
 30 12  1  0
 28 19  1  0
 27 22  1  0
  1 31  1  0
  1 32  1  0
  1 33  1  0
  2 34  1  0
  2 35  1  0
  7 36  1  0
  8 37  1  0
  9 38  1  0
 10 39  1  0
 11 40  1  0
 12 41  1  0
 13 42  1  0
 13 43  1  0
 14 44  1  0
 14 45  1  0
 18 46  1  0
 18 47  1  0
 20 48  1  0
 23 49  1  0
 24 50  1  0
 25 51  1  0
 26 52  1  0
 28 53  1  0
 29 54  1  0
 29 55  1  0
 30 56  1  0
 30 57  1  0
M  END
>  <smiles>  (28) 
CCC(=O)N(c1ccccc1)C1CCN(C(=O)Cc2cnc3ccccc3c2)CC1

>  <score_type>  (28) 
oracle

>  <origin>  (28) 
autodockgpu

>  <m_score__min__energy>  (28) 
-8.8599999999999994

>  <m_primary>  (28) 
energy

>  <rmsd>  (28) 
8.14427761514617

>  <m_score__min__rmsd>  (28) 
8.14427761514617

>  <meeko>  (28) 
{"free_energy": -8.64, "intermolecular_energy": -10.43, "internal_energy": -1.53, "cluster_size": 43, "cluster_id": 1, "rank_in_cluster": 33}

>  <energy>  (28) 
-8.72

>  <cluster_rmsd>  (28) 
1.76

>  <cluster>  (28) 
1

$$$$

     RDKit          3D

 57 60  0  0  0  0  0  0  0  0999 V2000
  142.5740   78.5010  217.9990 C   0  0  0  0  0  0  0  0  0  0  0  0
  142.5710   77.3920  218.9990 C   0  0  0  0  0  0  0  0  0  0  0  0
  141.2630   77.3310  219.7030 C   0  0  0  0  0  0  0  0  0  0  0  0
  140.2170   77.2140  219.0160 O   0  0  0  0  0  0  0  0  0  0  0  0
  141.2290   77.4060  221.1420 N   0  0  0  0  0  0  0  0  0  0  0  0
  141.5450   78.6510  221.7910 C   0  0  0  0  0  0  0  0  0  0  0  0
  141.7970   78.6380  223.1490 C   0  0  0  0  0  0  0  0  0  0  0  0
  142.1080   79.7960  223.8450 C   0  0  0  0  0  0  0  0  0  0  0  0
  142.1560   80.9920  223.1200 C   0  0  0  0  0  0  0  0  0  0  0  0
  141.9070   81.0130  221.7650 C   0  0  0  0  0  0  0  0  0  0  0  0
  141.5970   79.8380  221.0850 C   0  0  0  0  0  0  0  0  0  0  0  0
  140.8780   76.2200  221.9010 C   0  0  0  0  0  0  0  0  0  0  0  0
  141.2540   75.0230  221.0640 C   0  0  0  0  0  0  0  0  0  0  0  0
  140.9210   73.8170  221.9520 C   0  0  0  0  0  0  0  0  0  0  0  0
  139.4580   73.7940  221.9760 N   0  0  0  0  0  0  0  0  0  0  0  0
  138.7690   72.5430  222.0130 C   0  0  0  0  0  0  0  0  0  0  0  0
  137.5050   72.4690  222.0320 O   0  0  0  0  0  0  0  0  0  0  0  0
  139.5330   71.2870  222.0280 C   0  0  0  0  0  0  0  0  0  0  0  0
  139.6780   70.7900  223.4150 C   0  0  0  0  0  0  0  0  0  0  0  0
  139.2020   69.5360  223.7290 C   0  0  0  0  0  0  0  0  0  0  0  0
  139.2960   69.0060  224.9720 N   0  0  0  0  0  0  0  0  0  0  0  0
  139.8910   69.7670  225.9350 C   0  0  0  0  0  0  0  0  0  0  0  0
  140.0130   69.2800  227.2130 C   0  0  0  0  0  0  0  0  0  0  0  0
  140.6010   69.9850  228.2410 C   0  0  0  0  0  0  0  0  0  0  0  0
  141.0900   71.2590  227.9420 C   0  0  0  0  0  0  0  0  0  0  0  0
  140.9840   71.7870  226.6590 C   0  0  0  0  0  0  0  0  0  0  0  0
  140.3810   71.0320  225.6600 C   0  0  0  0  0  0  0  0  0  0  0  0
  140.2830   71.5770  224.3760 C   0  0  0  0  0  0  0  0  0  0  0  0
  138.6750   75.0010  221.9680 C   0  0  0  0  0  0  0  0  0  0  0  0
  139.4380   76.2380  222.2910 C   0  0  0  0  0  0  0  0  0  0  0  0
  142.5766   79.4678  218.5237 H   0  0  0  0  0  0  0  0  0  0  0  0
  143.4719   78.4236  217.3683 H   0  0  0  0  0  0  0  0  0  0  0  0
  141.6757   78.4285  217.3683 H   0  0  0  0  0  0  0  0  0  0  0  0
  142.7489   76.4375  218.4819 H   0  0  0  0  0  0  0  0  0  0  0  0
  143.3650   77.5761  219.7377 H   0  0  0  0  0  0  0  0  0  0  0  0
  141.7496   77.6831  223.6930 H   0  0  0  0  0  0  0  0  0  0  0  0
  142.3094   79.7754  224.9262 H   0  0  0  0  0  0  0  0  0  0  0  0
  142.3965   81.9308  223.6404 H   0  0  0  0  0  0  0  0  0  0  0  0
  141.9534   81.9652  221.2162 H   0  0  0  0  0  0  0  0  0  0  0  0
  141.3968   79.8543  220.0035 H   0  0  0  0  0  0  0  0  0  0  0  0
  141.4298   76.1784  222.8517 H   0  0  0  0  0  0  0  0  0  0  0  0
  140.6652   74.9970  220.1352 H   0  0  0  0  0  0  0  0  0  0  0  0
  142.3106   75.0400  220.7587 H   0  0  0  0  0  0  0  0  0  0  0  0
  141.3204   72.8886  221.5178 H   0  0  0  0  0  0  0  0  0  0  0  0
  141.3616   73.8944  222.9569 H   0  0  0  0  0  0  0  0  0  0  0  0
  139.0041   70.5334  221.4260 H   0  0  0  0  0  0  0  0  0  0  0  0
  140.5327   71.4714  221.6078 H   0  0  0  0  0  0  0  0  0  0  0  0
  138.7254   68.9399  222.9368 H   0  0  0  0  0  0  0  0  0  0  0  0
  139.6210   68.2748  227.4275 H   0  0  0  0  0  0  0  0  0  0  0  0
  140.6818   69.5626  229.2535 H   0  0  0  0  0  0  0  0  0  0  0  0
  141.5669   71.8548  228.7342 H   0  0  0  0  0  0  0  0  0  0  0  0
  141.3734   72.7917  226.4377 H   0  0  0  0  0  0  0  0  0  0  0  0
  140.6678   72.5808  224.1430 H   0  0  0  0  0  0  0  0  0  0  0  0
  138.2380   75.1196  220.9655 H   0  0  0  0  0  0  0  0  0  0  0  0
  137.9185   74.8866  222.7583 H   0  0  0  0  0  0  0  0  0  0  0  0
  138.9560   77.0796  221.7720 H   0  0  0  0  0  0  0  0  0  0  0  0
  139.4213   76.3277  223.3872 H   0  0  0  0  0  0  0  0  0  0  0  0
  1  2  1  0
  2  3  1  0
  3  4  2  0
  3  5  1  0
  5  6  1  0
  6  7  2  0
  7  8  1  0
  8  9  2  0
  9 10  1  0
 10 11  2  0
  5 12  1  0
 12 13  1  0
 13 14  1  0
 14 15  1  0
 15 16  1  0
 16 17  2  0
 16 18  1  0
 18 19  1  0
 19 20  2  0
 20 21  1  0
 21 22  2  0
 22 23  1  0
 23 24  2  0
 24 25  1  0
 25 26  2  0
 26 27  1  0
 27 28  2  0
 15 29  1  0
 29 30  1  0
 11  6  1  0
 30 12  1  0
 28 19  1  0
 27 22  1  0
  1 31  1  0
  1 32  1  0
  1 33  1  0
  2 34  1  0
  2 35  1  0
  7 36  1  0
  8 37  1  0
  9 38  1  0
 10 39  1  0
 11 40  1  0
 12 41  1  0
 13 42  1  0
 13 43  1  0
 14 44  1  0
 14 45  1  0
 18 46  1  0
 18 47  1  0
 20 48  1  0
 23 49  1  0
 24 50  1  0
 25 51  1  0
 26 52  1  0
 28 53  1  0
 29 54  1  0
 29 55  1  0
 30 56  1  0
 30 57  1  0
M  END
>  <smiles>  (29) 
CCC(=O)N(c1ccccc1)C1CCN(C(=O)Cc2cnc3ccccc3c2)CC1

>  <score_type>  (29) 
oracle

>  <origin>  (29) 
autodockgpu

>  <m_score__min__energy>  (29) 
-8.8599999999999994

>  <m_primary>  (29) 
energy

>  <rmsd>  (29) 
8.328048606715365

>  <m_score__min__rmsd>  (29) 
8.328048606715365

>  <meeko>  (29) 
{"free_energy": -8.73, "intermolecular_energy": -10.52, "internal_energy": -1.5, "cluster_size": 43, "cluster_id": 1, "rank_in_cluster": 22}

>  <energy>  (29) 
-8.72

>  <cluster_rmsd>  (29) 
1.71

>  <cluster>  (29) 
1

$$$$

     RDKit          3D

 57 60  0  0  0  0  0  0  0  0999 V2000
  137.7990   80.5710  224.3060 C   0  0  0  0  0  0  0  0  0  0  0  0
  138.0110   80.5560  222.8280 C   0  0  0  0  0  0  0  0  0  0  0  0
  137.9820   79.1620  222.3140 C   0  0  0  0  0  0  0  0  0  0  0  0
  136.8690   78.6410  222.0510 O   0  0  0  0  0  0  0  0  0  0  0  0
  139.2230   78.4500  222.1300 N   0  0  0  0  0  0  0  0  0  0  0  0
  140.4620   79.0860  222.4950 C   0  0  0  0  0  0  0  0  0  0  0  0
  141.1260   79.8260  221.5370 C   0  0  0  0  0  0  0  0  0  0  0  0
  142.3240   80.4680  221.8120 C   0  0  0  0  0  0  0  0  0  0  0  0
  142.8440   80.3390  223.1040 C   0  0  0  0  0  0  0  0  0  0  0  0
  142.1870   79.6020  224.0650 C   0  0  0  0  0  0  0  0  0  0  0  0
  140.9850   78.9660  223.7680 C   0  0  0  0  0  0  0  0  0  0  0  0
  139.1900   77.1080  221.5780 C   0  0  0  0  0  0  0  0  0  0  0  0
  138.5740   76.2090  222.6200 C   0  0  0  0  0  0  0  0  0  0  0  0
  138.5100   74.8320  221.9460 C   0  0  0  0  0  0  0  0  0  0  0  0
  139.9080   74.4070  221.8830 N   0  0  0  0  0  0  0  0  0  0  0  0
  140.2370   73.0260  222.0440 C   0  0  0  0  0  0  0  0  0  0  0  0
  141.4320   72.6070  222.0010 O   0  0  0  0  0  0  0  0  0  0  0  0
  139.1700   72.0400  222.2690 C   0  0  0  0  0  0  0  0  0  0  0  0
  139.4460   71.2530  223.4930 C   0  0  0  0  0  0  0  0  0  0  0  0
  139.1340   69.9130  223.5100 C   0  0  0  0  0  0  0  0  0  0  0  0
  139.3540   69.1220  224.5870 N   0  0  0  0  0  0  0  0  0  0  0  0
  139.9100   69.7030  225.6880 C   0  0  0  0  0  0  0  0  0  0  0  0
  140.1560   68.9480  226.8090 C   0  0  0  0  0  0  0  0  0  0  0  0
  140.7150   69.4600  227.9600 C   0  0  0  0  0  0  0  0  0  0  0  0
  141.0390   70.8190  227.9620 C   0  0  0  0  0  0  0  0  0  0  0  0
  140.8040   71.6160  226.8460 C   0  0  0  0  0  0  0  0  0  0  0  0
  140.2380   71.0470  225.7110 C   0  0  0  0  0  0  0  0  0  0  0  0
  140.0090   71.8610  224.5980 C   0  0  0  0  0  0  0  0  0  0  0  0
  140.9810   75.3390  221.6590 C   0  0  0  0  0  0  0  0  0  0  0  0
  140.5500   76.6700  221.1490 C   0  0  0  0  0  0  0  0  0  0  0  0
  138.7709   80.5022  224.8165 H   0  0  0  0  0  0  0  0  0  0  0  0
  137.2983   81.5068  224.5951 H   0  0  0  0  0  0  0  0  0  0  0  0
  137.1716   79.7150  224.5951 H   0  0  0  0  0  0  0  0  0  0  0  0
  137.2143   81.1381  222.3418 H   0  0  0  0  0  0  0  0  0  0  0  0
  138.9930   80.9982  222.6042 H   0  0  0  0  0  0  0  0  0  0  0  0
  140.6933   79.9085  220.5290 H   0  0  0  0  0  0  0  0  0  0  0  0
  142.8457   81.0566  221.0430 H   0  0  0  0  0  0  0  0  0  0  0  0
  143.7931   80.8341  223.3570 H   0  0  0  0  0  0  0  0  0  0  0  0
  142.6155   79.5156  225.0744 H   0  0  0  0  0  0  0  0  0  0  0  0
  140.4600   78.3773  224.5346 H   0  0  0  0  0  0  0  0  0  0  0  0
  138.5776   77.0676  220.6651 H   0  0  0  0  0  0  0  0  0  0  0  0
  139.2019   76.1719  223.5224 H   0  0  0  0  0  0  0  0  0  0  0  0
  137.5849   76.5623  222.9469 H   0  0  0  0  0  0  0  0  0  0  0  0
  137.9138   74.1294  222.5468 H   0  0  0  0  0  0  0  0  0  0  0  0
  138.0314   74.8656  220.9562 H   0  0  0  0  0  0  0  0  0  0  0  0
  138.2099   72.5644  222.3837 H   0  0  0  0  0  0  0  0  0  0  0  0
  139.1265   71.3575  221.4074 H   0  0  0  0  0  0  0  0  0  0  0  0
  138.6868   69.4651  222.6103 H   0  0  0  0  0  0  0  0  0  0  0  0
  139.8934   67.8800  226.7868 H   0  0  0  0  0  0  0  0  0  0  0  0
  140.8983   68.8256  228.8397 H   0  0  0  0  0  0  0  0  0  0  0  0
  141.4875   71.2665  228.8612 H   0  0  0  0  0  0  0  0  0  0  0  0
  141.0633   72.6849  226.8617 H   0  0  0  0  0  0  0  0  0  0  0  0
  140.2641   72.9310  224.6020 H   0  0  0  0  0  0  0  0  0  0  0  0
  141.5079   75.4912  222.6125 H   0  0  0  0  0  0  0  0  0  0  0  0
  141.6190   74.8981  220.8789 H   0  0  0  0  0  0  0  0  0  0  0  0
  141.2747   77.4193  221.5002 H   0  0  0  0  0  0  0  0  0  0  0  0
  140.5077   76.5766  220.0538 H   0  0  0  0  0  0  0  0  0  0  0  0
  1  2  1  0
  2  3  1  0
  3  4  2  0
  3  5  1  0
  5  6  1  0
  6  7  2  0
  7  8  1  0
  8  9  2  0
  9 10  1  0
 10 11  2  0
  5 12  1  0
 12 13  1  0
 13 14  1  0
 14 15  1  0
 15 16  1  0
 16 17  2  0
 16 18  1  0
 18 19  1  0
 19 20  2  0
 20 21  1  0
 21 22  2  0
 22 23  1  0
 23 24  2  0
 24 25  1  0
 25 26  2  0
 26 27  1  0
 27 28  2  0
 15 29  1  0
 29 30  1  0
 11  6  1  0
 30 12  1  0
 28 19  1  0
 27 22  1  0
  1 31  1  0
  1 32  1  0
  1 33  1  0
  2 34  1  0
  2 35  1  0
  7 36  1  0
  8 37  1  0
  9 38  1  0
 10 39  1  0
 11 40  1  0
 12 41  1  0
 13 42  1  0
 13 43  1  0
 14 44  1  0
 14 45  1  0
 18 46  1  0
 18 47  1  0
 20 48  1  0
 23 49  1  0
 24 50  1  0
 25 51  1  0
 26 52  1  0
 28 53  1  0
 29 54  1  0
 29 55  1  0
 30 56  1  0
 30 57  1  0
M  END
>  <smiles>  (30) 
CCC(=O)N(c1ccccc1)C1CCN(C(=O)Cc2cnc3ccccc3c2)CC1

>  <score_type>  (30) 
oracle

>  <origin>  (30) 
autodockgpu

>  <m_score__min__energy>  (30) 
-8.8599999999999994

>  <m_primary>  (30) 
energy

>  <rmsd>  (30) 
8.251897976617933

>  <m_score__min__rmsd>  (30) 
8.251897976617933

>  <meeko>  (30) 
{"free_energy": -8.6, "intermolecular_energy": -10.39, "internal_energy": -1.5, "cluster_size": 43, "cluster_id": 1, "rank_in_cluster": 35}

>  <energy>  (30) 
-8.71

>  <cluster_rmsd>  (30) 
1.7

>  <cluster>  (30) 
1

$$$$

     RDKit          3D

 57 60  0  0  0  0  0  0  0  0999 V2000
  143.3890   76.4270  219.3420 C   0  0  0  0  0  0  0  0  0  0  0  0
  142.4040   77.4790  218.9490 C   0  0  0  0  0  0  0  0  0  0  0  0
  141.1280   77.2980  219.6910 C   0  0  0  0  0  0  0  0  0  0  0  0
  140.0750   77.0950  219.0360 O   0  0  0  0  0  0  0  0  0  0  0  0
  141.1330   77.3580  221.1320 N   0  0  0  0  0  0  0  0  0  0  0  0
  141.4900   78.5900  221.7850 C   0  0  0  0  0  0  0  0  0  0  0  0
  141.8200   78.5510  223.1260 C   0  0  0  0  0  0  0  0  0  0  0  0
  142.1740   79.6950  223.8240 C   0  0  0  0  0  0  0  0  0  0  0  0
  142.1840   80.9040  223.1200 C   0  0  0  0  0  0  0  0  0  0  0  0
  141.8560   80.9510  221.7820 C   0  0  0  0  0  0  0  0  0  0  0  0
  141.5040   79.7900  221.1000 C   0  0  0  0  0  0  0  0  0  0  0  0
  140.7800   76.1710  221.8870 C   0  0  0  0  0  0  0  0  0  0  0  0
  141.1620   74.9760  221.0520 C   0  0  0  0  0  0  0  0  0  0  0  0
  140.8260   73.7680  221.9360 C   0  0  0  0  0  0  0  0  0  0  0  0
  139.3630   73.7430  221.9530 N   0  0  0  0  0  0  0  0  0  0  0  0
  138.6760   72.4910  221.9840 C   0  0  0  0  0  0  0  0  0  0  0  0
  137.4110   72.4150  221.9960 O   0  0  0  0  0  0  0  0  0  0  0  0
  139.4410   71.2360  222.0030 C   0  0  0  0  0  0  0  0  0  0  0  0
  139.6010   70.7510  223.3930 C   0  0  0  0  0  0  0  0  0  0  0  0
  139.1110   69.5090  223.7280 C   0  0  0  0  0  0  0  0  0  0  0  0
  139.2160   68.9910  224.9750 N   0  0  0  0  0  0  0  0  0  0  0  0
  139.8400   69.7530  225.9200 C   0  0  0  0  0  0  0  0  0  0  0  0
  139.9750   69.2770  227.2010 C   0  0  0  0  0  0  0  0  0  0  0  0
  140.5910   69.9840  228.2110 C   0  0  0  0  0  0  0  0  0  0  0  0
  141.0950   71.2470  227.8900 C   0  0  0  0  0  0  0  0  0  0  0  0
  140.9760   71.7630  226.6040 C   0  0  0  0  0  0  0  0  0  0  0  0
  140.3450   71.0070  225.6230 C   0  0  0  0  0  0  0  0  0  0  0  0
  140.2340   71.5390  224.3350 C   0  0  0  0  0  0  0  0  0  0  0  0
  138.5780   74.9490  221.9410 C   0  0  0  0  0  0  0  0  0  0  0  0
  139.3370   76.1870  222.2700 C   0  0  0  0  0  0  0  0  0  0  0  0
  143.4443   76.3679  220.4390 H   0  0  0  0  0  0  0  0  0  0  0  0
  143.0684   75.4553  218.9382 H   0  0  0  0  0  0  0  0  0  0  0  0
  144.3796   76.6831  218.9382 H   0  0  0  0  0  0  0  0  0  0  0  0
  142.8206   78.4703  219.1809 H   0  0  0  0  0  0  0  0  0  0  0  0
  142.2044   77.3956  217.8705 H   0  0  0  0  0  0  0  0  0  0  0  0
  141.8013   77.5862  223.6540 H   0  0  0  0  0  0  0  0  0  0  0  0
  142.4371   79.6539  224.8913 H   0  0  0  0  0  0  0  0  0  0  0  0
  142.4581   81.8322  223.6428 H   0  0  0  0  0  0  0  0  0  0  0  0
  141.8726   81.9133  221.2493 H   0  0  0  0  0  0  0  0  0  0  0  0
  141.2411   79.8271  220.0325 H   0  0  0  0  0  0  0  0  0  0  0  0
  141.3272   76.1288  222.8403 H   0  0  0  0  0  0  0  0  0  0  0  0
  140.5785   74.9502  220.1199 H   0  0  0  0  0  0  0  0  0  0  0  0
  142.2205   74.9949  220.7534 H   0  0  0  0  0  0  0  0  0  0  0  0
  141.2286   72.8409  221.5020 H   0  0  0  0  0  0  0  0  0  0  0  0
  141.2615   73.8441  222.9432 H   0  0  0  0  0  0  0  0  0  0  0  0
  138.9066   70.4766  221.4132 H   0  0  0  0  0  0  0  0  0  0  0  0
  140.4363   71.4178  221.5713 H   0  0  0  0  0  0  0  0  0  0  0  0
  138.6130   68.9119  222.9499 H   0  0  0  0  0  0  0  0  0  0  0  0
  139.5709   68.2805  227.4328 H   0  0  0  0  0  0  0  0  0  0  0  0
  140.6820   69.5715  229.2267 H   0  0  0  0  0  0  0  0  0  0  0  0
  141.5945   71.8434  228.6677 H   0  0  0  0  0  0  0  0  0  0  0  0
  141.3771   72.7591  226.3657 H   0  0  0  0  0  0  0  0  0  0  0  0
  140.6303   72.5340  224.0843 H   0  0  0  0  0  0  0  0  0  0  0  0
  138.1472   75.0678  220.9358 H   0  0  0  0  0  0  0  0  0  0  0  0
  137.8166   74.8327  222.7263 H   0  0  0  0  0  0  0  0  0  0  0  0
  138.8565   77.0287  221.7497 H   0  0  0  0  0  0  0  0  0  0  0  0
  139.3140   76.2758  223.3662 H   0  0  0  0  0  0  0  0  0  0  0  0
  1  2  1  0
  2  3  1  0
  3  4  2  0
  3  5  1  0
  5  6  1  0
  6  7  2  0
  7  8  1  0
  8  9  2  0
  9 10  1  0
 10 11  2  0
  5 12  1  0
 12 13  1  0
 13 14  1  0
 14 15  1  0
 15 16  1  0
 16 17  2  0
 16 18  1  0
 18 19  1  0
 19 20  2  0
 20 21  1  0
 21 22  2  0
 22 23  1  0
 23 24  2  0
 24 25  1  0
 25 26  2  0
 26 27  1  0
 27 28  2  0
 15 29  1  0
 29 30  1  0
 11  6  1  0
 30 12  1  0
 28 19  1  0
 27 22  1  0
  1 31  1  0
  1 32  1  0
  1 33  1  0
  2 34  1  0
  2 35  1  0
  7 36  1  0
  8 37  1  0
  9 38  1  0
 10 39  1  0
 11 40  1  0
 12 41  1  0
 13 42  1  0
 13 43  1  0
 14 44  1  0
 14 45  1  0
 18 46  1  0
 18 47  1  0
 20 48  1  0
 23 49  1  0
 24 50  1  0
 25 51  1  0
 26 52  1  0
 28 53  1  0
 29 54  1  0
 29 55  1  0
 30 56  1  0
 30 57  1  0
M  END
>  <smiles>  (31) 
CCC(=O)N(c1ccccc1)C1CCN(C(=O)Cc2cnc3ccccc3c2)CC1

>  <score_type>  (31) 
oracle

>  <origin>  (31) 
autodockgpu

>  <m_score__min__energy>  (31) 
-8.8599999999999994

>  <m_primary>  (31) 
energy

>  <rmsd>  (31) 
8.334327499594933

>  <m_score__min__rmsd>  (31) 
8.334327499594933

>  <meeko>  (31) 
{"free_energy": -8.74, "intermolecular_energy": -10.53, "internal_energy": -1.5, "cluster_size": 43, "cluster_id": 1, "rank_in_cluster": 18}

>  <energy>  (31) 
-8.71

>  <cluster_rmsd>  (31) 
1.72

>  <cluster>  (31) 
1

$$$$

     RDKit          3D

 57 60  0  0  0  0  0  0  0  0999 V2000
  143.6880   75.9940  219.6560 C   0  0  0  0  0  0  0  0  0  0  0  0
  142.8390   77.1400  219.2100 C   0  0  0  0  0  0  0  0  0  0  0  0
  141.4700   77.0210  219.7750 C   0  0  0  0  0  0  0  0  0  0  0  0
  140.5090   76.8300  218.9860 O   0  0  0  0  0  0  0  0  0  0  0  0
  141.2800   77.1250  221.2010 N   0  0  0  0  0  0  0  0  0  0  0  0
  141.5200   78.3860  221.8530 C   0  0  0  0  0  0  0  0  0  0  0  0
  141.6260   79.5190  221.0710 C   0  0  0  0  0  0  0  0  0  0  0  0
  141.8560   80.7690  221.6240 C   0  0  0  0  0  0  0  0  0  0  0  0
  141.9810   80.8460  223.0150 C   0  0  0  0  0  0  0  0  0  0  0  0
  141.8760   79.7190  223.8030 C   0  0  0  0  0  0  0  0  0  0  0  0
  141.6440   78.4740  223.2260 C   0  0  0  0  0  0  0  0  0  0  0  0
  140.8540   75.9530  221.9420 C   0  0  0  0  0  0  0  0  0  0  0  0
  141.1770   74.7460  221.0990 C   0  0  0  0  0  0  0  0  0  0  0  0
  140.7650   73.5510  221.9690 C   0  0  0  0  0  0  0  0  0  0  0  0
  139.3030   73.6080  221.9720 N   0  0  0  0  0  0  0  0  0  0  0  0
  138.5470   72.3960  221.9860 C   0  0  0  0  0  0  0  0  0  0  0  0
  137.2800   72.3910  221.9860 O   0  0  0  0  0  0  0  0  0  0  0  0
  139.2410   71.1000  222.0000 C   0  0  0  0  0  0  0  0  0  0  0  0
  139.4720   70.6540  223.3930 C   0  0  0  0  0  0  0  0  0  0  0  0
  139.0760   69.3890  223.7650 C   0  0  0  0  0  0  0  0  0  0  0  0
  139.2500   68.9040  225.0170 N   0  0  0  0  0  0  0  0  0  0  0  0
  139.8470   69.7240  225.9300 C   0  0  0  0  0  0  0  0  0  0  0  0
  140.0490   69.2840  227.2150 C   0  0  0  0  0  0  0  0  0  0  0  0
  140.6440   70.0490  228.1940 C   0  0  0  0  0  0  0  0  0  0  0  0
  141.0530   71.3360  227.8360 C   0  0  0  0  0  0  0  0  0  0  0  0
  140.8640   71.8180  226.5440 C   0  0  0  0  0  0  0  0  0  0  0  0
  140.2580   71.0020  225.5960 C   0  0  0  0  0  0  0  0  0  0  0  0
  140.0770   71.5000  224.3020 C   0  0  0  0  0  0  0  0  0  0  0  0
  138.5870   74.8550  221.9650 C   0  0  0  0  0  0  0  0  0  0  0  0
  139.4110   76.0460  222.3120 C   0  0  0  0  0  0  0  0  0  0  0  0
  143.7121   75.9615  220.7553 H   0  0  0  0  0  0  0  0  0  0  0  0
  143.2668   75.0538  219.2705 H   0  0  0  0  0  0  0  0  0  0  0  0
  144.7101   76.1231  219.2705 H   0  0  0  0  0  0  0  0  0  0  0  0
  143.2921   78.0818  219.5531 H   0  0  0  0  0  0  0  0  0  0  0  0
  142.7740   77.1298  218.1120 H   0  0  0  0  0  0  0  0  0  0  0  0
  141.5252   79.4271  219.9795 H   0  0  0  0  0  0  0  0  0  0  0  0
  141.9371   81.6663  220.9929 H   0  0  0  0  0  0  0  0  0  0  0  0
  142.1661   81.8216  223.4883 H   0  0  0  0  0  0  0  0  0  0  0  0
  141.9763   79.8048  224.8950 H   0  0  0  0  0  0  0  0  0  0  0  0
  141.5607   77.5743  223.8533 H   0  0  0  0  0  0  0  0  0  0  0  0
  141.3886   75.8721  222.9000 H   0  0  0  0  0  0  0  0  0  0  0  0
  140.6022   74.7612  220.1612 H   0  0  0  0  0  0  0  0  0  0  0  0
  142.2377   74.7082  220.8102 H   0  0  0  0  0  0  0  0  0  0  0  0
  141.1193   72.6065  221.5304 H   0  0  0  0  0  0  0  0  0  0  0  0
  141.1941   73.5940  222.9809 H   0  0  0  0  0  0  0  0  0  0  0  0
  138.6250   70.3532  221.4776 H   0  0  0  0  0  0  0  0  0  0  0  0
  140.2118   71.2092  221.4944 H   0  0  0  0  0  0  0  0  0  0  0  0
  138.5977   68.7446  223.0127 H   0  0  0  0  0  0  0  0  0  0  0  0
  139.7185   68.2678  227.4762 H   0  0  0  0  0  0  0  0  0  0  0  0
  140.7907   69.6632  229.2136 H   0  0  0  0  0  0  0  0  0  0  0  0
  141.5327   71.9795  228.5882 H   0  0  0  0  0  0  0  0  0  0  0  0
  141.1907   72.8336  226.2761 H   0  0  0  0  0  0  0  0  0  0  0  0
  140.3999   72.5136  224.0222 H   0  0  0  0  0  0  0  0  0  0  0  0
  138.1723   75.0067  220.9575 H   0  0  0  0  0  0  0  0  0  0  0  0
  137.8135   74.7742  222.7429 H   0  0  0  0  0  0  0  0  0  0  0  0
  138.9831   76.9176  221.7950 H   0  0  0  0  0  0  0  0  0  0  0  0
  139.3827   76.1264  223.4087 H   0  0  0  0  0  0  0  0  0  0  0  0
  1  2  1  0
  2  3  1  0
  3  4  2  0
  3  5  1  0
  5  6  1  0
  6  7  2  0
  7  8  1  0
  8  9  2  0
  9 10  1  0
 10 11  2  0
  5 12  1  0
 12 13  1  0
 13 14  1  0
 14 15  1  0
 15 16  1  0
 16 17  2  0
 16 18  1  0
 18 19  1  0
 19 20  2  0
 20 21  1  0
 21 22  2  0
 22 23  1  0
 23 24  2  0
 24 25  1  0
 25 26  2  0
 26 27  1  0
 27 28  2  0
 15 29  1  0
 29 30  1  0
 11  6  1  0
 30 12  1  0
 28 19  1  0
 27 22  1  0
  1 31  1  0
  1 32  1  0
  1 33  1  0
  2 34  1  0
  2 35  1  0
  7 36  1  0
  8 37  1  0
  9 38  1  0
 10 39  1  0
 11 40  1  0
 12 41  1  0
 13 42  1  0
 13 43  1  0
 14 44  1  0
 14 45  1  0
 18 46  1  0
 18 47  1  0
 20 48  1  0
 23 49  1  0
 24 50  1  0
 25 51  1  0
 26 52  1  0
 28 53  1  0
 29 54  1  0
 29 55  1  0
 30 56  1  0
 30 57  1  0
M  END
>  <smiles>  (32) 
CCC(=O)N(c1ccccc1)C1CCN(C(=O)Cc2cnc3ccccc3c2)CC1

>  <score_type>  (32) 
oracle

>  <origin>  (32) 
autodockgpu

>  <m_score__min__energy>  (32) 
-8.8599999999999994

>  <m_primary>  (32) 
energy

>  <rmsd>  (32) 
8.337759906761944

>  <m_score__min__rmsd>  (32) 
8.337759906761944

>  <meeko>  (32) 
{"free_energy": -8.74, "intermolecular_energy": -10.53, "internal_energy": -1.46, "cluster_size": 43, "cluster_id": 1, "rank_in_cluster": 21}

>  <energy>  (32) 
-8.65

>  <cluster_rmsd>  (32) 
0.37

>  <cluster>  (32) 
1

$$$$

     RDKit          3D

 57 60  0  0  0  0  0  0  0  0999 V2000
  143.3350   76.2160  218.9710 C   0  0  0  0  0  0  0  0  0  0  0  0
  142.5520   77.4880  218.9970 C   0  0  0  0  0  0  0  0  0  0  0  0
  141.2640   77.2900  219.7130 C   0  0  0  0  0  0  0  0  0  0  0  0
  140.2310   77.0590  219.0360 O   0  0  0  0  0  0  0  0  0  0  0  0
  141.2360   77.3670  221.1520 N   0  0  0  0  0  0  0  0  0  0  0  0
  141.5620   78.6120  221.7980 C   0  0  0  0  0  0  0  0  0  0  0  0
  141.8250   78.5980  223.1540 C   0  0  0  0  0  0  0  0  0  0  0  0
  142.1470   79.7550  223.8470 C   0  0  0  0  0  0  0  0  0  0  0  0
  142.1930   80.9500  223.1210 C   0  0  0  0  0  0  0  0  0  0  0  0
  141.9320   80.9720  221.7680 C   0  0  0  0  0  0  0  0  0  0  0  0
  141.6120   79.7980  221.0910 C   0  0  0  0  0  0  0  0  0  0  0  0
  140.8800   76.1850  221.9140 C   0  0  0  0  0  0  0  0  0  0  0  0
  141.2520   74.9850  221.0810 C   0  0  0  0  0  0  0  0  0  0  0  0
  140.9130   73.7820  221.9710 C   0  0  0  0  0  0  0  0  0  0  0  0
  139.4500   73.7650  221.9950 N   0  0  0  0  0  0  0  0  0  0  0  0
  138.7560   72.5170  222.0350 C   0  0  0  0  0  0  0  0  0  0  0  0
  137.4920   72.4480  222.0530 O   0  0  0  0  0  0  0  0  0  0  0  0
  139.5150   71.2580  222.0540 C   0  0  0  0  0  0  0  0  0  0  0  0
  139.6590   70.7650  223.4430 C   0  0  0  0  0  0  0  0  0  0  0  0
  139.1780   69.5140  223.7610 C   0  0  0  0  0  0  0  0  0  0  0  0
  139.2700   68.9880  225.0060 N   0  0  0  0  0  0  0  0  0  0  0  0
  139.8690   69.7500  225.9660 C   0  0  0  0  0  0  0  0  0  0  0  0
  139.9890   69.2670  227.2460 C   0  0  0  0  0  0  0  0  0  0  0  0
  140.5800   69.9730  228.2710 C   0  0  0  0  0  0  0  0  0  0  0  0
  141.0740   71.2440  227.9670 C   0  0  0  0  0  0  0  0  0  0  0  0
  140.9700   71.7680  226.6830 C   0  0  0  0  0  0  0  0  0  0  0  0
  140.3630   71.0120  225.6860 C   0  0  0  0  0  0  0  0  0  0  0  0
  140.2670   71.5530  224.4010 C   0  0  0  0  0  0  0  0  0  0  0  0
  138.6710   74.9750  221.9830 C   0  0  0  0  0  0  0  0  0  0  0  0
  139.4390   76.2100  222.3030 C   0  0  0  0  0  0  0  0  0  0  0  0
  143.5366   75.8884  220.0015 H   0  0  0  0  0  0  0  0  0  0  0  0
  142.7576   75.4407  218.4461 H   0  0  0  0  0  0  0  0  0  0  0  0
  144.2873   76.3823  218.4461 H   0  0  0  0  0  0  0  0  0  0  0  0
  143.1376   78.2635  219.5124 H   0  0  0  0  0  0  0  0  0  0  0  0
  142.3411   77.7980  217.9629 H   0  0  0  0  0  0  0  0  0  0  0  0
  141.7777   77.6435  223.6986 H   0  0  0  0  0  0  0  0  0  0  0  0
  142.3582   79.7341  224.9263 H   0  0  0  0  0  0  0  0  0  0  0  0
  142.4417   81.8880  223.6389 H   0  0  0  0  0  0  0  0  0  0  0  0
  141.9768   81.9240  221.2188 H   0  0  0  0  0  0  0  0  0  0  0  0
  141.4025   79.8145  220.0113 H   0  0  0  0  0  0  0  0  0  0  0  0
  141.4307   76.1437  222.8653 H   0  0  0  0  0  0  0  0  0  0  0  0
  140.6644   74.9593  220.1515 H   0  0  0  0  0  0  0  0  0  0  0  0
  142.3092   74.9970  220.7775 H   0  0  0  0  0  0  0  0  0  0  0  0
  141.3084   72.8511  221.5385 H   0  0  0  0  0  0  0  0  0  0  0  0
  141.3535   73.8596  222.9760 H   0  0  0  0  0  0  0  0  0  0  0  0
  138.9828   70.5045  221.4549 H   0  0  0  0  0  0  0  0  0  0  0  0
  140.5152   71.4370  221.6326 H   0  0  0  0  0  0  0  0  0  0  0  0
  138.6991   68.9171  222.9709 H   0  0  0  0  0  0  0  0  0  0  0  0
  139.5927   68.2644  227.4642 H   0  0  0  0  0  0  0  0  0  0  0  0
  140.6595   69.5540  229.2850 H   0  0  0  0  0  0  0  0  0  0  0  0
  141.5536   71.8406  228.7570 H   0  0  0  0  0  0  0  0  0  0  0  0
  141.3638   72.7702  226.4583 H   0  0  0  0  0  0  0  0  0  0  0  0
  140.6555   72.5546  224.1646 H   0  0  0  0  0  0  0  0  0  0  0  0
  138.2350   75.0924  220.9800 H   0  0  0  0  0  0  0  0  0  0  0  0
  137.9133   74.8657  222.7729 H   0  0  0  0  0  0  0  0  0  0  0  0
  138.9609   77.0521  221.7811 H   0  0  0  0  0  0  0  0  0  0  0  0
  139.4218   76.3030  223.3989 H   0  0  0  0  0  0  0  0  0  0  0  0
  1  2  1  0
  2  3  1  0
  3  4  2  0
  3  5  1  0
  5  6  1  0
  6  7  2  0
  7  8  1  0
  8  9  2  0
  9 10  1  0
 10 11  2  0
  5 12  1  0
 12 13  1  0
 13 14  1  0
 14 15  1  0
 15 16  1  0
 16 17  2  0
 16 18  1  0
 18 19  1  0
 19 20  2  0
 20 21  1  0
 21 22  2  0
 22 23  1  0
 23 24  2  0
 24 25  1  0
 25 26  2  0
 26 27  1  0
 27 28  2  0
 15 29  1  0
 29 30  1  0
 11  6  1  0
 30 12  1  0
 28 19  1  0
 27 22  1  0
  1 31  1  0
  1 32  1  0
  1 33  1  0
  2 34  1  0
  2 35  1  0
  7 36  1  0
  8 37  1  0
  9 38  1  0
 10 39  1  0
 11 40  1  0
 12 41  1  0
 13 42  1  0
 13 43  1  0
 14 44  1  0
 14 45  1  0
 18 46  1  0
 18 47  1  0
 20 48  1  0
 23 49  1  0
 24 50  1  0
 25 51  1  0
 26 52  1  0
 28 53  1  0
 29 54  1  0
 29 55  1  0
 30 56  1  0
 30 57  1  0
M  END
>  <smiles>  (33) 
CCC(=O)N(c1ccccc1)C1CCN(C(=O)Cc2cnc3ccccc3c2)CC1

>  <score_type>  (33) 
oracle

>  <origin>  (33) 
autodockgpu

>  <m_score__min__energy>  (33) 
-8.8599999999999994

>  <m_primary>  (33) 
energy

>  <rmsd>  (33) 
8.350822946552606

>  <m_score__min__rmsd>  (33) 
8.350822946552606

>  <meeko>  (33) 
{"free_energy": -8.77, "intermolecular_energy": -10.56, "internal_energy": -1.48, "cluster_size": 43, "cluster_id": 1, "rank_in_cluster": 9}

>  <energy>  (33) 
-8.64

>  <cluster_rmsd>  (33) 
0.37

>  <cluster>  (33) 
1

$$$$

     RDKit          3D

 57 60  0  0  0  0  0  0  0  0999 V2000
  142.5690   78.4040  218.0760 C   0  0  0  0  0  0  0  0  0  0  0  0
  142.5120   77.3020  219.0820 C   0  0  0  0  0  0  0  0  0  0  0  0
  141.2110   77.3210  219.8000 C   0  0  0  0  0  0  0  0  0  0  0  0
  140.1510   77.3070  219.1240 O   0  0  0  0  0  0  0  0  0  0  0  0
  141.1980   77.3530  221.2420 N   0  0  0  0  0  0  0  0  0  0  0  0
  141.5550   78.5710  221.9230 C   0  0  0  0  0  0  0  0  0  0  0  0
  141.6560   79.7310  221.1810 C   0  0  0  0  0  0  0  0  0  0  0  0
  141.9950   80.9430  221.7640 C   0  0  0  0  0  0  0  0  0  0  0  0
  142.2360   80.9510  223.1410 C   0  0  0  0  0  0  0  0  0  0  0  0
  142.1370   79.7970  223.8880 C   0  0  0  0  0  0  0  0  0  0  0  0
  141.7940   78.5910  223.2830 C   0  0  0  0  0  0  0  0  0  0  0  0
  140.8270   76.1550  221.9700 C   0  0  0  0  0  0  0  0  0  0  0  0
  141.2080   74.9730  221.1150 C   0  0  0  0  0  0  0  0  0  0  0  0
  140.8520   73.7510  221.9710 C   0  0  0  0  0  0  0  0  0  0  0  0
  139.3890   73.7380  221.9720 N   0  0  0  0  0  0  0  0  0  0  0  0
  138.6910   72.4920  221.9720 C   0  0  0  0  0  0  0  0  0  0  0  0
  137.4260   72.4260  221.9690 O   0  0  0  0  0  0  0  0  0  0  0  0
  139.4460   71.2300  221.9730 C   0  0  0  0  0  0  0  0  0  0  0  0
  139.6080   70.7290  223.3570 C   0  0  0  0  0  0  0  0  0  0  0  0
  139.1410   69.4730  223.6730 C   0  0  0  0  0  0  0  0  0  0  0  0
  139.2510   68.9400  224.9130 N   0  0  0  0  0  0  0  0  0  0  0  0
  139.8540   69.7000  225.8710 C   0  0  0  0  0  0  0  0  0  0  0  0
  139.9920   69.2090  227.1470 C   0  0  0  0  0  0  0  0  0  0  0  0
  140.5890   69.9140  228.1700 C   0  0  0  0  0  0  0  0  0  0  0  0
  141.0690   71.1910  227.8690 C   0  0  0  0  0  0  0  0  0  0  0  0
  140.9470   71.7220  226.5890 C   0  0  0  0  0  0  0  0  0  0  0  0
  140.3360   70.9680  225.5940 C   0  0  0  0  0  0  0  0  0  0  0  0
  140.2210   71.5150  224.3130 C   0  0  0  0  0  0  0  0  0  0  0  0
  138.6140   74.9500  221.9770 C   0  0  0  0  0  0  0  0  0  0  0  0
  139.3800   76.1750  222.3370 C   0  0  0  0  0  0  0  0  0  0  0  0
  142.6191   79.3724  218.5954 H   0  0  0  0  0  0  0  0  0  0  0  0
  143.4619   78.2793  217.4458 H   0  0  0  0  0  0  0  0  0  0  0  0
  141.6680   78.3721  217.4458 H   0  0  0  0  0  0  0  0  0  0  0  0
  142.6281   76.3363  218.5683 H   0  0  0  0  0  0  0  0  0  0  0  0
  143.3234   77.4430  219.8112 H   0  0  0  0  0  0  0  0  0  0  0  0
  141.4625   79.6929  220.0988 H   0  0  0  0  0  0  0  0  0  0  0  0
  142.0713   81.8629  221.1657 H   0  0  0  0  0  0  0  0  0  0  0  0
  142.5092   81.8942  223.6367 H   0  0  0  0  0  0  0  0  0  0  0  0
  142.3304   79.8291  224.9704 H   0  0  0  0  0  0  0  0  0  0  0  0
  141.7147   77.6694  223.8783 H   0  0  0  0  0  0  0  0  0  0  0  0
  141.3632   76.0903  222.9283 H   0  0  0  0  0  0  0  0  0  0  0  0
  140.6345   74.9709  220.1763 H   0  0  0  0  0  0  0  0  0  0  0  0
  142.2698   74.9885  220.8282 H   0  0  0  0  0  0  0  0  0  0  0  0
  141.2515   72.8292  221.5230 H   0  0  0  0  0  0  0  0  0  0  0  0
  141.2770   73.8037  222.9842 H   0  0  0  0  0  0  0  0  0  0  0  0
  138.9026   70.4816  221.3775 H   0  0  0  0  0  0  0  0  0  0  0  0
  140.4406   71.4078  221.5382 H   0  0  0  0  0  0  0  0  0  0  0  0
  138.6580   68.8771  222.8846 H   0  0  0  0  0  0  0  0  0  0  0  0
  139.6063   68.2018  227.3631 H   0  0  0  0  0  0  0  0  0  0  0  0
  140.6835   69.4893  229.1803 H   0  0  0  0  0  0  0  0  0  0  0  0
  141.5517   71.7868  228.6577 H   0  0  0  0  0  0  0  0  0  0  0  0
  141.3304   72.7287  226.3665 H   0  0  0  0  0  0  0  0  0  0  0  0
  140.5996   72.5207  224.0781 H   0  0  0  0  0  0  0  0  0  0  0  0
  138.1931   75.0921  220.9707 H   0  0  0  0  0  0  0  0  0  0  0  0
  137.8447   74.8245  222.7532 H   0  0  0  0  0  0  0  0  0  0  0  0
  138.9122   77.0301  221.8272 H   0  0  0  0  0  0  0  0  0  0  0  0
  139.3460   76.2428  223.4344 H   0  0  0  0  0  0  0  0  0  0  0  0
  1  2  1  0
  2  3  1  0
  3  4  2  0
  3  5  1  0
  5  6  1  0
  6  7  2  0
  7  8  1  0
  8  9  2  0
  9 10  1  0
 10 11  2  0
  5 12  1  0
 12 13  1  0
 13 14  1  0
 14 15  1  0
 15 16  1  0
 16 17  2  0
 16 18  1  0
 18 19  1  0
 19 20  2  0
 20 21  1  0
 21 22  2  0
 22 23  1  0
 23 24  2  0
 24 25  1  0
 25 26  2  0
 26 27  1  0
 27 28  2  0
 15 29  1  0
 29 30  1  0
 11  6  1  0
 30 12  1  0
 28 19  1  0
 27 22  1  0
  1 31  1  0
  1 32  1  0
  1 33  1  0
  2 34  1  0
  2 35  1  0
  7 36  1  0
  8 37  1  0
  9 38  1  0
 10 39  1  0
 11 40  1  0
 12 41  1  0
 13 42  1  0
 13 43  1  0
 14 44  1  0
 14 45  1  0
 18 46  1  0
 18 47  1  0
 20 48  1  0
 23 49  1  0
 24 50  1  0
 25 51  1  0
 26 52  1  0
 28 53  1  0
 29 54  1  0
 29 55  1  0
 30 56  1  0
 30 57  1  0
M  END
>  <smiles>  (34) 
CCC(=O)N(c1ccccc1)C1CCN(C(=O)Cc2cnc3ccccc3c2)CC1

>  <score_type>  (34) 
oracle

>  <origin>  (34) 
autodockgpu

>  <m_score__min__energy>  (34) 
-8.8599999999999994

>  <m_primary>  (34) 
energy

>  <rmsd>  (34) 
8.357382137726468

>  <m_score__min__rmsd>  (34) 
8.357382137726468

>  <meeko>  (34) 
{"free_energy": -8.72, "intermolecular_energy": -10.51, "internal_energy": -1.49, "cluster_size": 43, "cluster_id": 1, "rank_in_cluster": 27}

>  <energy>  (34) 
-8.64

>  <cluster_rmsd>  (34) 
1.77

>  <cluster>  (34) 
1

$$$$

     RDKit          3D

 57 60  0  0  0  0  0  0  0  0999 V2000
  138.0490   81.3000  223.0100 C   0  0  0  0  0  0  0  0  0  0  0  0
  138.1450   80.0310  223.7910 C   0  0  0  0  0  0  0  0  0  0  0  0
  138.1150   78.8570  222.8790 C   0  0  0  0  0  0  0  0  0  0  0  0
  137.0010   78.3660  222.5680 O   0  0  0  0  0  0  0  0  0  0  0  0
  139.3560   78.3180  222.3790 N   0  0  0  0  0  0  0  0  0  0  0  0
  140.5720   79.0690  222.5540 C   0  0  0  0  0  0  0  0  0  0  0  0
  141.0040   79.8690  221.5130 C   0  0  0  0  0  0  0  0  0  0  0  0
  142.1640   80.6220  221.6050 C   0  0  0  0  0  0  0  0  0  0  0  0
  142.8930   80.5420  222.7960 C   0  0  0  0  0  0  0  0  0  0  0  0
  142.4680   79.7470  223.8390 C   0  0  0  0  0  0  0  0  0  0  0  0
  141.2990   78.9990  223.7260 C   0  0  0  0  0  0  0  0  0  0  0  0
  139.3460   77.0310  221.7110 C   0  0  0  0  0  0  0  0  0  0  0  0
  138.7820   76.0240  222.6810 C   0  0  0  0  0  0  0  0  0  0  0  0
  138.7380   74.7120  221.8880 C   0  0  0  0  0  0  0  0  0  0  0  0
  140.1450   74.3360  221.7560 N   0  0  0  0  0  0  0  0  0  0  0  0
  140.5160   72.9560  221.7840 C   0  0  0  0  0  0  0  0  0  0  0  0
  141.7210   72.5780  221.6770 O   0  0  0  0  0  0  0  0  0  0  0  0
  139.4820   71.9230  221.9440 C   0  0  0  0  0  0  0  0  0  0  0  0
  139.5470   71.3370  223.3030 C   0  0  0  0  0  0  0  0  0  0  0  0
  138.8380   70.1870  223.5690 C   0  0  0  0  0  0  0  0  0  0  0  0
  138.8430   69.5860  224.7820 N   0  0  0  0  0  0  0  0  0  0  0  0
  139.5910   70.1650  225.7660 C   0  0  0  0  0  0  0  0  0  0  0  0
  139.6330   69.5990  227.0160 C   0  0  0  0  0  0  0  0  0  0  0  0
  140.3640   70.1210  228.0610 C   0  0  0  0  0  0  0  0  0  0  0  0
  141.0900   71.2880  227.8100 C   0  0  0  0  0  0  0  0  0  0  0  0
  141.0710   71.8920  226.5570 C   0  0  0  0  0  0  0  0  0  0  0  0
  140.3170   71.3220  225.5380 C   0  0  0  0  0  0  0  0  0  0  0  0
  140.3090   71.9400  224.2840 C   0  0  0  0  0  0  0  0  0  0  0  0
  141.1860   75.3150  221.5920 C   0  0  0  0  0  0  0  0  0  0  0  0
  140.7060   76.6730  221.2130 C   0  0  0  0  0  0  0  0  0  0  0  0
  137.9845   82.1525  223.7021 H   0  0  0  0  0  0  0  0  0  0  0  0
  138.9415   81.4089  222.3763 H   0  0  0  0  0  0  0  0  0  0  0  0
  137.1503   81.2734  222.3763 H   0  0  0  0  0  0  0  0  0  0  0  0
  139.0874   80.0251  224.3584 H   0  0  0  0  0  0  0  0  0  0  0  0
  137.2889   79.9701  224.4790 H   0  0  0  0  0  0  0  0  0  0  0  0
  140.4115   79.9092  220.5870 H   0  0  0  0  0  0  0  0  0  0  0  0
  142.4987   81.2586  220.7727 H   0  0  0  0  0  0  0  0  0  0  0  0
  143.8209   81.1231  222.9022 H   0  0  0  0  0  0  0  0  0  0  0  0
  143.0566   79.7033  224.7672 H   0  0  0  0  0  0  0  0  0  0  0  0
  140.9601   78.3627  224.5568 H   0  0  0  0  0  0  0  0  0  0  0  0
  138.7112   77.0547  220.8129 H   0  0  0  0  0  0  0  0  0  0  0  0
  139.4337   75.9247  223.5616 H   0  0  0  0  0  0  0  0  0  0  0  0
  137.7922   76.3172  223.0609 H   0  0  0  0  0  0  0  0  0  0  0  0
  138.1764   73.9414  222.4364 H   0  0  0  0  0  0  0  0  0  0  0  0
  138.2337   74.8193  220.9163 H   0  0  0  0  0  0  0  0  0  0  0  0
  138.4909   72.3748  221.7906 H   0  0  0  0  0  0  0  0  0  0  0  0
  139.6524   71.1281  221.2030 H   0  0  0  0  0  0  0  0  0  0  0  0
  138.2420   69.7373  222.7612 H   0  0  0  0  0  0  0  0  0  0  0  0
  139.0530   68.6812  227.1926 H   0  0  0  0  0  0  0  0  0  0  0  0
  140.3754   69.6397  229.0500 H   0  0  0  0  0  0  0  0  0  0  0  0
  141.6871   71.7371  228.6173 H   0  0  0  0  0  0  0  0  0  0  0  0
  141.6468   72.8113  226.3746 H   0  0  0  0  0  0  0  0  0  0  0  0
  140.8804   72.8595  224.0888 H   0  0  0  0  0  0  0  0  0  0  0  0
  141.7325   75.3973  222.5431 H   0  0  0  0  0  0  0  0  0  0  0  0
  141.8160   74.9640  220.7614 H   0  0  0  0  0  0  0  0  0  0  0  0
  141.4189   77.4092  221.6128 H   0  0  0  0  0  0  0  0  0  0  0  0
  140.6382   76.6760  220.1151 H   0  0  0  0  0  0  0  0  0  0  0  0
  1  2  1  0
  2  3  1  0
  3  4  2  0
  3  5  1  0
  5  6  1  0
  6  7  2  0
  7  8  1  0
  8  9  2  0
  9 10  1  0
 10 11  2  0
  5 12  1  0
 12 13  1  0
 13 14  1  0
 14 15  1  0
 15 16  1  0
 16 17  2  0
 16 18  1  0
 18 19  1  0
 19 20  2  0
 20 21  1  0
 21 22  2  0
 22 23  1  0
 23 24  2  0
 24 25  1  0
 25 26  2  0
 26 27  1  0
 27 28  2  0
 15 29  1  0
 29 30  1  0
 11  6  1  0
 30 12  1  0
 28 19  1  0
 27 22  1  0
  1 31  1  0
  1 32  1  0
  1 33  1  0
  2 34  1  0
  2 35  1  0
  7 36  1  0
  8 37  1  0
  9 38  1  0
 10 39  1  0
 11 40  1  0
 12 41  1  0
 13 42  1  0
 13 43  1  0
 14 44  1  0
 14 45  1  0
 18 46  1  0
 18 47  1  0
 20 48  1  0
 23 49  1  0
 24 50  1  0
 25 51  1  0
 26 52  1  0
 28 53  1  0
 29 54  1  0
 29 55  1  0
 30 56  1  0
 30 57  1  0
M  END
>  <smiles>  (35) 
CCC(=O)N(c1ccccc1)C1CCN(C(=O)Cc2cnc3ccccc3c2)CC1

>  <score_type>  (35) 
oracle

>  <origin>  (35) 
autodockgpu

>  <m_score__min__energy>  (35) 
-8.8599999999999994

>  <m_primary>  (35) 
energy

>  <rmsd>  (35) 
8.099756502043666

>  <m_score__min__rmsd>  (35) 
8.099756502043666

>  <meeko>  (35) 
{"free_energy": -8.76, "intermolecular_energy": -10.55, "internal_energy": -1.51, "cluster_size": 43, "cluster_id": 1, "rank_in_cluster": 14}

>  <energy>  (35) 
-8.6

>  <cluster_rmsd>  (35) 
0.34

>  <cluster>  (35) 
1

$$$$

     RDKit          3D

 57 60  0  0  0  0  0  0  0  0999 V2000
  146.4010   73.3880  221.5390 C   0  0  0  0  0  0  0  0  0  0  0  0
  145.1110   73.4680  220.7910 C   0  0  0  0  0  0  0  0  0  0  0  0
  145.1470   72.5820  219.5980 C   0  0  0  0  0  0  0  0  0  0  0  0
  145.9580   72.8490  218.6760 O   0  0  0  0  0  0  0  0  0  0  0  0
  144.2580   71.4480  219.5320 N   0  0  0  0  0  0  0  0  0  0  0  0
  144.8010   70.1430  219.2560 C   0  0  0  0  0  0  0  0  0  0  0  0
  145.6950   70.0120  218.2110 C   0  0  0  0  0  0  0  0  0  0  0  0
  146.2600   68.7890  217.8830 C   0  0  0  0  0  0  0  0  0  0  0  0
  145.8890   67.6800  218.6510 C   0  0  0  0  0  0  0  0  0  0  0  0
  144.9970   67.8030  219.6950 C   0  0  0  0  0  0  0  0  0  0  0  0
  144.4420   69.0400  220.0080 C   0  0  0  0  0  0  0  0  0  0  0  0
  142.8380   71.6520  219.7440 C   0  0  0  0  0  0  0  0  0  0  0  0
  142.5810   71.5260  221.2240 C   0  0  0  0  0  0  0  0  0  0  0  0
  141.0830   71.8200  221.3780 C   0  0  0  0  0  0  0  0  0  0  0  0
  140.4340   70.6450  220.7980 N   0  0  0  0  0  0  0  0  0  0  0  0
  139.2140   70.1590  221.3600 C   0  0  0  0  0  0  0  0  0  0  0  0
  138.6140   69.1430  220.8980 O   0  0  0  0  0  0  0  0  0  0  0  0
  138.6170   70.8430  222.5160 C   0  0  0  0  0  0  0  0  0  0  0  0
  139.0040   70.1630  223.7740 C   0  0  0  0  0  0  0  0  0  0  0  0
  138.6630   68.8410  223.9510 C   0  0  0  0  0  0  0  0  0  0  0  0
  138.9780   68.1460  225.0690 N   0  0  0  0  0  0  0  0  0  0  0  0
  139.6640   68.8070  226.0460 C   0  0  0  0  0  0  0  0  0  0  0  0
  140.0110   68.1500  227.2020 C   0  0  0  0  0  0  0  0  0  0  0  0
  140.7030   68.7460  228.2340 C   0  0  0  0  0  0  0  0  0  0  0  0
  141.0580   70.0870  228.0720 C   0  0  0  0  0  0  0  0  0  0  0  0
  140.7240   70.7860  226.9160 C   0  0  0  0  0  0  0  0  0  0  0  0
  140.0250   70.1350  225.9060 C   0  0  0  0  0  0  0  0  0  0  0  0
  139.6970   70.8510  224.7510 C   0  0  0  0  0  0  0  0  0  0  0  0
  140.9830   69.9500  219.6640 C   0  0  0  0  0  0  0  0  0  0  0  0
  142.0300   70.7050  218.9210 C   0  0  0  0  0  0  0  0  0  0  0  0
  146.1993   73.4005  222.6203 H   0  0  0  0  0  0  0  0  0  0  0  0
  146.9214   72.4559  221.2739 H   0  0  0  0  0  0  0  0  0  0  0  0
  147.0326   74.2487  221.2739 H   0  0  0  0  0  0  0  0  0  0  0  0
  144.2893   73.1535  221.4512 H   0  0  0  0  0  0  0  0  0  0  0  0
  144.9546   74.5053  220.4600 H   0  0  0  0  0  0  0  0  0  0  0  0
  145.9659   70.9016  217.6235 H   0  0  0  0  0  0  0  0  0  0  0  0
  146.9728   68.6943  217.0506 H   0  0  0  0  0  0  0  0  0  0  0  0
  146.3161   66.6935  218.4180 H   0  0  0  0  0  0  0  0  0  0  0  0
  144.7219   66.9164  220.2851 H   0  0  0  0  0  0  0  0  0  0  0  0
  143.7293   69.1386  220.8401 H   0  0  0  0  0  0  0  0  0  0  0  0
  142.5263   72.6535  219.4127 H   0  0  0  0  0  0  0  0  0  0  0  0
  142.8163   70.5103  221.5748 H   0  0  0  0  0  0  0  0  0  0  0  0
  143.2055   72.2099  221.8176 H   0  0  0  0  0  0  0  0  0  0  0  0
  140.8131   71.9330  222.4384 H   0  0  0  0  0  0  0  0  0  0  0  0
  140.7814   72.7573  220.8876 H   0  0  0  0  0  0  0  0  0  0  0  0
  138.9702   71.8844  222.5433 H   0  0  0  0  0  0  0  0  0  0  0  0
  137.5216   70.8182  222.4190 H   0  0  0  0  0  0  0  0  0  0  0  0
  138.1111   68.3277  223.1498 H   0  0  0  0  0  0  0  0  0  0  0  0
  139.7216   67.0942  227.3091 H   0  0  0  0  0  0  0  0  0  0  0  0
  140.9645   68.1895  229.1461 H   0  0  0  0  0  0  0  0  0  0  0  0
  141.6115   70.5998  228.8725 H   0  0  0  0  0  0  0  0  0  0  0  0
  141.0100   71.8421  226.8027 H   0  0  0  0  0  0  0  0  0  0  0  0
  139.9763   71.9076  224.6266 H   0  0  0  0  0  0  0  0  0  0  0  0
  141.4268   69.0087  220.0205 H   0  0  0  0  0  0  0  0  0  0  0  0
  140.1515   69.7960  218.9605 H   0  0  0  0  0  0  0  0  0  0  0  0
  142.7180   69.9758  218.4683 H   0  0  0  0  0  0  0  0  0  0  0  0
  141.4949   71.3223  218.1843 H   0  0  0  0  0  0  0  0  0  0  0  0
  1  2  1  0
  2  3  1  0
  3  4  2  0
  3  5  1  0
  5  6  1  0
  6  7  2  0
  7  8  1  0
  8  9  2  0
  9 10  1  0
 10 11  2  0
  5 12  1  0
 12 13  1  0
 13 14  1  0
 14 15  1  0
 15 16  1  0
 16 17  2  0
 16 18  1  0
 18 19  1  0
 19 20  2  0
 20 21  1  0
 21 22  2  0
 22 23  1  0
 23 24  2  0
 24 25  1  0
 25 26  2  0
 26 27  1  0
 27 28  2  0
 15 29  1  0
 29 30  1  0
 11  6  1  0
 30 12  1  0
 28 19  1  0
 27 22  1  0
  1 31  1  0
  1 32  1  0
  1 33  1  0
  2 34  1  0
  2 35  1  0
  7 36  1  0
  8 37  1  0
  9 38  1  0
 10 39  1  0
 11 40  1  0
 12 41  1  0
 13 42  1  0
 13 43  1  0
 14 44  1  0
 14 45  1  0
 18 46  1  0
 18 47  1  0
 20 48  1  0
 23 49  1  0
 24 50  1  0
 25 51  1  0
 26 52  1  0
 28 53  1  0
 29 54  1  0
 29 55  1  0
 30 56  1  0
 30 57  1  0
M  END
>  <smiles>  (36) 
CCC(=O)N(c1ccccc1)C1CCN(C(=O)Cc2cnc3ccccc3c2)CC1

>  <score_type>  (36) 
oracle

>  <origin>  (36) 
autodockgpu

>  <m_score__min__energy>  (36) 
-8.8599999999999994

>  <m_primary>  (36) 
energy

>  <rmsd>  (36) 
9.574686544910087

>  <m_score__min__rmsd>  (36) 
9.574686544910087

>  <meeko>  (36) 
{"free_energy": -8.69, "intermolecular_energy": -10.48, "internal_energy": -1.45, "cluster_size": 5, "cluster_id": 2, "rank_in_cluster": 3}

>  <energy>  (36) 
-8.6

>  <cluster_rmsd>  (36) 
1.79

>  <cluster>  (36) 
1

$$$$

     RDKit          3D

 57 60  0  0  0  0  0  0  0  0999 V2000
  143.3840   76.3230  219.3580 C   0  0  0  0  0  0  0  0  0  0  0  0
  142.4520   77.4500  219.0520 C   0  0  0  0  0  0  0  0  0  0  0  0
  141.1640   77.2690  219.7700 C   0  0  0  0  0  0  0  0  0  0  0  0
  140.1200   77.0800  219.0950 O   0  0  0  0  0  0  0  0  0  0  0  0
  141.1450   77.3120  221.2120 N   0  0  0  0  0  0  0  0  0  0  0  0
  141.4920   78.5370  221.8840 C   0  0  0  0  0  0  0  0  0  0  0  0
  141.5290   79.7030  221.1450 C   0  0  0  0  0  0  0  0  0  0  0  0
  141.8550   80.9220  221.7210 C   0  0  0  0  0  0  0  0  0  0  0  0
  142.1510   80.9310  223.0880 C   0  0  0  0  0  0  0  0  0  0  0  0
  142.1170   79.7720  223.8320 C   0  0  0  0  0  0  0  0  0  0  0  0
  141.7860   78.5580  223.2340 C   0  0  0  0  0  0  0  0  0  0  0  0
  140.7770   76.1180  221.9480 C   0  0  0  0  0  0  0  0  0  0  0  0
  141.1520   74.9310  221.0960 C   0  0  0  0  0  0  0  0  0  0  0  0
  140.8010   73.7140  221.9600 C   0  0  0  0  0  0  0  0  0  0  0  0
  139.3380   73.7020  221.9700 N   0  0  0  0  0  0  0  0  0  0  0  0
  138.6390   72.4560  221.9800 C   0  0  0  0  0  0  0  0  0  0  0  0
  137.3730   72.3920  221.9850 O   0  0  0  0  0  0  0  0  0  0  0  0
  139.3920   71.1940  221.9830 C   0  0  0  0  0  0  0  0  0  0  0  0
  139.5710   70.7040  223.3690 C   0  0  0  0  0  0  0  0  0  0  0  0
  139.1270   69.4430  223.6950 C   0  0  0  0  0  0  0  0  0  0  0  0
  139.2520   68.9190  224.9370 N   0  0  0  0  0  0  0  0  0  0  0  0
  139.8480   69.6950  225.8880 C   0  0  0  0  0  0  0  0  0  0  0  0
  140.0010   69.2140  227.1650 C   0  0  0  0  0  0  0  0  0  0  0  0
  140.5920   69.9340  228.1800 C   0  0  0  0  0  0  0  0  0  0  0  0
  141.0500   71.2170  227.8690 C   0  0  0  0  0  0  0  0  0  0  0  0
  140.9110   71.7390  226.5870 C   0  0  0  0  0  0  0  0  0  0  0  0
  140.3070   70.9680  225.6000 C   0  0  0  0  0  0  0  0  0  0  0  0
  140.1760   71.5060  224.3170 C   0  0  0  0  0  0  0  0  0  0  0  0
  138.5640   74.9150  221.9740 C   0  0  0  0  0  0  0  0  0  0  0  0
  139.3330   76.1410  222.3240 C   0  0  0  0  0  0  0  0  0  0  0  0
  143.4774   76.2101  220.4482 H   0  0  0  0  0  0  0  0  0  0  0  0
  142.9883   75.3922  218.9255 H   0  0  0  0  0  0  0  0  0  0  0  0
  144.3725   76.5370  218.9255 H   0  0  0  0  0  0  0  0  0  0  0  0
  142.9130   78.3972  219.3686 H   0  0  0  0  0  0  0  0  0  0  0  0
  142.2568   77.4666  217.9696 H   0  0  0  0  0  0  0  0  0  0  0  0
  141.2937   79.6640  220.0712 H   0  0  0  0  0  0  0  0  0  0  0  0
  141.8798   81.8465  221.1254 H   0  0  0  0  0  0  0  0  0  0  0  0
  142.4155   81.8799  223.5775 H   0  0  0  0  0  0  0  0  0  0  0  0
  142.3529   79.8054  224.9059 H   0  0  0  0  0  0  0  0  0  0  0  0
  141.7591   77.6317  223.8266 H   0  0  0  0  0  0  0  0  0  0  0  0
  141.3188   76.0575  222.9034 H   0  0  0  0  0  0  0  0  0  0  0  0
  140.5725   74.9246  220.1611 H   0  0  0  0  0  0  0  0  0  0  0  0
  142.2119   74.9444  220.8022 H   0  0  0  0  0  0  0  0  0  0  0  0
  141.1972   72.7897  221.5142 H   0  0  0  0  0  0  0  0  0  0  0  0
  141.2324   73.7714  222.9702 H   0  0  0  0  0  0  0  0  0  0  0  0
  138.8404   70.4412  221.4007 H   0  0  0  0  0  0  0  0  0  0  0  0
  140.3815   71.3674  221.5348 H   0  0  0  0  0  0  0  0  0  0  0  0
  138.6499   68.8345  222.9127 H   0  0  0  0  0  0  0  0  0  0  0  0
  139.6328   68.2019  227.3890 H   0  0  0  0  0  0  0  0  0  0  0  0
  140.6988   69.5167  229.1921 H   0  0  0  0  0  0  0  0  0  0  0  0
  141.5286   71.8246  228.6512 H   0  0  0  0  0  0  0  0  0  0  0  0
  141.2751   72.7511  226.3565 H   0  0  0  0  0  0  0  0  0  0  0  0
  140.5363   72.5166  224.0744 H   0  0  0  0  0  0  0  0  0  0  0  0
  138.1374   75.0529  220.9695 H   0  0  0  0  0  0  0  0  0  0  0  0
  137.7992   74.7937  222.7552 H   0  0  0  0  0  0  0  0  0  0  0  0
  138.8626   76.9943  221.8135 H   0  0  0  0  0  0  0  0  0  0  0  0
  139.3059   76.2138  223.4213 H   0  0  0  0  0  0  0  0  0  0  0  0
  1  2  1  0
  2  3  1  0
  3  4  2  0
  3  5  1  0
  5  6  1  0
  6  7  2  0
  7  8  1  0
  8  9  2  0
  9 10  1  0
 10 11  2  0
  5 12  1  0
 12 13  1  0
 13 14  1  0
 14 15  1  0
 15 16  1  0
 16 17  2  0
 16 18  1  0
 18 19  1  0
 19 20  2  0
 20 21  1  0
 21 22  2  0
 22 23  1  0
 23 24  2  0
 24 25  1  0
 25 26  2  0
 26 27  1  0
 27 28  2  0
 15 29  1  0
 29 30  1  0
 11  6  1  0
 30 12  1  0
 28 19  1  0
 27 22  1  0
  1 31  1  0
  1 32  1  0
  1 33  1  0
  2 34  1  0
  2 35  1  0
  7 36  1  0
  8 37  1  0
  9 38  1  0
 10 39  1  0
 11 40  1  0
 12 41  1  0
 13 42  1  0
 13 43  1  0
 14 44  1  0
 14 45  1  0
 18 46  1  0
 18 47  1  0
 20 48  1  0
 23 49  1  0
 24 50  1  0
 25 51  1  0
 26 52  1  0
 28 53  1  0
 29 54  1  0
 29 55  1  0
 30 56  1  0
 30 57  1  0
M  END
>  <smiles>  (37) 
CCC(=O)N(c1ccccc1)C1CCN(C(=O)Cc2cnc3ccccc3c2)CC1

>  <score_type>  (37) 
oracle

>  <origin>  (37) 
autodockgpu

>  <m_score__min__energy>  (37) 
-8.8599999999999994

>  <m_primary>  (37) 
energy

>  <rmsd>  (37) 
8.355686069047442

>  <m_score__min__rmsd>  (37) 
8.355686069047442

>  <meeko>  (37) 
{"free_energy": -8.77, "intermolecular_energy": -10.56, "internal_energy": -1.47, "cluster_size": 43, "cluster_id": 1, "rank_in_cluster": 12}

>  <energy>  (37) 
-8.54

>  <cluster_rmsd>  (37) 
0.44

>  <cluster>  (37) 
1

$$$$

     RDKit          3D

 57 60  0  0  0  0  0  0  0  0999 V2000
  138.0190   80.5890  224.4690 C   0  0  0  0  0  0  0  0  0  0  0  0
  137.9170   80.3140  223.0050 C   0  0  0  0  0  0  0  0  0  0  0  0
  138.0040   78.8540  222.7430 C   0  0  0  0  0  0  0  0  0  0  0  0
  136.9680   78.1550  222.8810 O   0  0  0  0  0  0  0  0  0  0  0  0
  139.2650   78.2810  222.3400 N   0  0  0  0  0  0  0  0  0  0  0  0
  140.4810   79.0110  222.5840 C   0  0  0  0  0  0  0  0  0  0  0  0
  141.0140   79.7610  221.5530 C   0  0  0  0  0  0  0  0  0  0  0  0
  142.1820   80.4920  221.7100 C   0  0  0  0  0  0  0  0  0  0  0  0
  142.8110   80.4420  222.9580 C   0  0  0  0  0  0  0  0  0  0  0  0
  142.2860   79.6960  223.9910 C   0  0  0  0  0  0  0  0  0  0  0  0
  141.1110   78.9700  223.8130 C   0  0  0  0  0  0  0  0  0  0  0  0
  139.2740   76.9810  221.6950 C   0  0  0  0  0  0  0  0  0  0  0  0
  138.7080   75.9880  222.6780 C   0  0  0  0  0  0  0  0  0  0  0  0
  138.6850   74.6610  221.9090 C   0  0  0  0  0  0  0  0  0  0  0  0
  140.0970   74.2950  221.7990 N   0  0  0  0  0  0  0  0  0  0  0  0
  140.4800   72.9200  221.8570 C   0  0  0  0  0  0  0  0  0  0  0  0
  141.6890   72.5510  221.7710 O   0  0  0  0  0  0  0  0  0  0  0  0
  139.4540   71.8800  222.0250 C   0  0  0  0  0  0  0  0  0  0  0  0
  139.5360   71.2910  223.3810 C   0  0  0  0  0  0  0  0  0  0  0  0
  138.8540   70.1240  223.6450 C   0  0  0  0  0  0  0  0  0  0  0  0
  138.8760   69.5190  224.8560 N   0  0  0  0  0  0  0  0  0  0  0  0
  139.6140   70.1120  225.8400 C   0  0  0  0  0  0  0  0  0  0  0  0
  139.6730   69.5410  227.0880 C   0  0  0  0  0  0  0  0  0  0  0  0
  140.3950   70.0760  228.1330 C   0  0  0  0  0  0  0  0  0  0  0  0
  141.0930   71.2600  227.8840 C   0  0  0  0  0  0  0  0  0  0  0  0
  141.0570   71.8680  226.6330 C   0  0  0  0  0  0  0  0  0  0  0  0
  140.3130   71.2850  225.6150 C   0  0  0  0  0  0  0  0  0  0  0  0
  140.2880   71.9070  224.3630 C   0  0  0  0  0  0  0  0  0  0  0  0
  141.1310   75.2810  221.6280 C   0  0  0  0  0  0  0  0  0  0  0  0
  140.6430   76.6270  221.2190 C   0  0  0  0  0  0  0  0  0  0  0  0
  137.6904   79.7031  225.0322 H   0  0  0  0  0  0  0  0  0  0  0  0
  139.0629   80.8209  224.7267 H   0  0  0  0  0  0  0  0  0  0  0  0
  137.3788   81.4456  224.7267 H   0  0  0  0  0  0  0  0  0  0  0  0
  136.9538   80.6921  222.6318 H   0  0  0  0  0  0  0  0  0  0  0  0
  138.7475   80.8183  222.4894 H   0  0  0  0  0  0  0  0  0  0  0  0
  140.4980   79.7787  220.5817 H   0  0  0  0  0  0  0  0  0  0  0  0
  142.5978   81.0883  220.8845 H   0  0  0  0  0  0  0  0  0  0  0  0
  143.7407   81.0078  223.1179 H   0  0  0  0  0  0  0  0  0  0  0  0
  142.7991   79.6738  224.9638 H   0  0  0  0  0  0  0  0  0  0  0  0
  140.6915   78.3740  224.6369 H   0  0  0  0  0  0  0  0  0  0  0  0
  138.6497   76.9812  220.7893 H   0  0  0  0  0  0  0  0  0  0  0  0
  139.3505   75.9113  223.5675 H   0  0  0  0  0  0  0  0  0  0  0  0
  137.7115   76.2793  223.0416 H   0  0  0  0  0  0  0  0  0  0  0  0
  138.1243   73.8956  222.4655 H   0  0  0  0  0  0  0  0  0  0  0  0
  138.1908   74.7460  220.9300 H   0  0  0  0  0  0  0  0  0  0  0  0
  138.4586   72.3260  221.8828 H   0  0  0  0  0  0  0  0  0  0  0  0
  139.6222   71.0881  221.2803 H   0  0  0  0  0  0  0  0  0  0  0  0
  138.2661   69.6637  222.8372 H   0  0  0  0  0  0  0  0  0  0  0  0
  139.1154   68.6090  227.2623 H   0  0  0  0  0  0  0  0  0  0  0  0
  140.4205   69.5916  229.1203 H   0  0  0  0  0  0  0  0  0  0  0  0
  141.6817   71.7200  228.6914 H   0  0  0  0  0  0  0  0  0  0  0  0
  141.6118   72.8004  226.4520 H   0  0  0  0  0  0  0  0  0  0  0  0
  140.8389   72.8392  224.1696 H   0  0  0  0  0  0  0  0  0  0  0  0
  141.6663   75.3859  222.5832 H   0  0  0  0  0  0  0  0  0  0  0  0
  141.7730   74.9207  220.8107 H   0  0  0  0  0  0  0  0  0  0  0  0
  141.3444   77.3770  221.6134 H   0  0  0  0  0  0  0  0  0  0  0  0
  140.5879   76.6095  220.1205 H   0  0  0  0  0  0  0  0  0  0  0  0
  1  2  1  0
  2  3  1  0
  3  4  2  0
  3  5  1  0
  5  6  1  0
  6  7  2  0
  7  8  1  0
  8  9  2  0
  9 10  1  0
 10 11  2  0
  5 12  1  0
 12 13  1  0
 13 14  1  0
 14 15  1  0
 15 16  1  0
 16 17  2  0
 16 18  1  0
 18 19  1  0
 19 20  2  0
 20 21  1  0
 21 22  2  0
 22 23  1  0
 23 24  2  0
 24 25  1  0
 25 26  2  0
 26 27  1  0
 27 28  2  0
 15 29  1  0
 29 30  1  0
 11  6  1  0
 30 12  1  0
 28 19  1  0
 27 22  1  0
  1 31  1  0
  1 32  1  0
  1 33  1  0
  2 34  1  0
  2 35  1  0
  7 36  1  0
  8 37  1  0
  9 38  1  0
 10 39  1  0
 11 40  1  0
 12 41  1  0
 13 42  1  0
 13 43  1  0
 14 44  1  0
 14 45  1  0
 18 46  1  0
 18 47  1  0
 20 48  1  0
 23 49  1  0
 24 50  1  0
 25 51  1  0
 26 52  1  0
 28 53  1  0
 29 54  1  0
 29 55  1  0
 30 56  1  0
 30 57  1  0
M  END
>  <smiles>  (38) 
CCC(=O)N(c1ccccc1)C1CCN(C(=O)Cc2cnc3ccccc3c2)CC1

>  <score_type>  (38) 
oracle

>  <origin>  (38) 
autodockgpu

>  <m_score__min__energy>  (38) 
-8.8599999999999994

>  <m_primary>  (38) 
energy

>  <rmsd>  (38) 
8.139054870229048

>  <m_score__min__rmsd>  (38) 
8.139054870229048

>  <meeko>  (38) 
{"free_energy": -8.84, "intermolecular_energy": -10.63, "internal_energy": -1.46, "cluster_size": 43, "cluster_id": 1, "rank_in_cluster": 3}

>  <energy>  (38) 
-8.49

>  <cluster_rmsd>  (38) 
0.61

>  <cluster>  (38) 
1

$$$$

     RDKit          3D

 57 60  0  0  0  0  0  0  0  0999 V2000
  142.5640   78.4520  218.0620 C   0  0  0  0  0  0  0  0  0  0  0  0
  142.5410   77.3640  219.0850 C   0  0  0  0  0  0  0  0  0  0  0  0
  141.2310   77.3390  219.7870 C   0  0  0  0  0  0  0  0  0  0  0  0
  140.1810   77.2790  219.0980 O   0  0  0  0  0  0  0  0  0  0  0  0
  141.1990   77.3840  221.2280 N   0  0  0  0  0  0  0  0  0  0  0  0
  141.5330   78.6110  221.9030 C   0  0  0  0  0  0  0  0  0  0  0  0
  141.5820   79.7750  221.1610 C   0  0  0  0  0  0  0  0  0  0  0  0
  141.8970   80.9960  221.7380 C   0  0  0  0  0  0  0  0  0  0  0  0
  142.1680   81.0100  223.1100 C   0  0  0  0  0  0  0  0  0  0  0  0
  142.1210   79.8530  223.8570 C   0  0  0  0  0  0  0  0  0  0  0  0
  141.8030   78.6380  223.2580 C   0  0  0  0  0  0  0  0  0  0  0  0
  140.8320   76.1880  221.9620 C   0  0  0  0  0  0  0  0  0  0  0  0
  141.2090   75.0030  221.1090 C   0  0  0  0  0  0  0  0  0  0  0  0
  140.8580   73.7840  221.9710 C   0  0  0  0  0  0  0  0  0  0  0  0
  139.3950   73.7710  221.9790 N   0  0  0  0  0  0  0  0  0  0  0  0
  138.6970   72.5250  221.9870 C   0  0  0  0  0  0  0  0  0  0  0  0
  137.4320   72.4590  221.9910 O   0  0  0  0  0  0  0  0  0  0  0  0
  139.4520   71.2630  221.9880 C   0  0  0  0  0  0  0  0  0  0  0  0
  139.6200   70.7650  223.3720 C   0  0  0  0  0  0  0  0  0  0  0  0
  139.1700   69.5030  223.6890 C   0  0  0  0  0  0  0  0  0  0  0  0
  139.2860   68.9720  224.9290 N   0  0  0  0  0  0  0  0  0  0  0  0
  139.8770   69.7420  225.8880 C   0  0  0  0  0  0  0  0  0  0  0  0
  140.0220   69.2540  227.1640 C   0  0  0  0  0  0  0  0  0  0  0  0
  140.6070   69.9670  228.1870 C   0  0  0  0  0  0  0  0  0  0  0  0
  141.0700   71.2500  227.8850 C   0  0  0  0  0  0  0  0  0  0  0  0
  140.9410   71.7790  226.6050 C   0  0  0  0  0  0  0  0  0  0  0  0
  140.3420   71.0160  225.6100 C   0  0  0  0  0  0  0  0  0  0  0  0
  140.2210   71.5610  224.3290 C   0  0  0  0  0  0  0  0  0  0  0  0
  138.6190   74.9830  221.9840 C   0  0  0  0  0  0  0  0  0  0  0  0
  139.3870   76.2090  222.3370 C   0  0  0  0  0  0  0  0  0  0  0  0
  142.5846   79.4293  218.5665 H   0  0  0  0  0  0  0  0  0  0  0  0
  143.4601   78.3450  217.4330 H   0  0  0  0  0  0  0  0  0  0  0  0
  141.6642   78.3830  217.4330 H   0  0  0  0  0  0  0  0  0  0  0  0
  142.7043   76.3962  218.5883 H   0  0  0  0  0  0  0  0  0  0  0  0
  143.3365   77.5505  219.8215 H   0  0  0  0  0  0  0  0  0  0  0  0
  141.3653   79.7323  220.0834 H   0  0  0  0  0  0  0  0  0  0  0  0
  141.9324   81.9183  221.1395 H   0  0  0  0  0  0  0  0  0  0  0  0
  142.4230   81.9607  223.6011 H   0  0  0  0  0  0  0  0  0  0  0  0
  142.3365   79.8902  224.9350 H   0  0  0  0  0  0  0  0  0  0  0  0
  141.7671   77.7138  223.8535 H   0  0  0  0  0  0  0  0  0  0  0  0
  141.3733   76.1265  222.9176 H   0  0  0  0  0  0  0  0  0  0  0  0
  140.6306   74.9974  220.1734 H   0  0  0  0  0  0  0  0  0  0  0  0
  142.2693   75.0179  220.8165 H   0  0  0  0  0  0  0  0  0  0  0  0
  141.2555   72.8607  221.5243 H   0  0  0  0  0  0  0  0  0  0  0  0
  141.2882   73.8401  222.9818 H   0  0  0  0  0  0  0  0  0  0  0  0
  138.9061   70.5133  221.3965 H   0  0  0  0  0  0  0  0  0  0  0  0
  140.4448   71.4401  221.5488 H   0  0  0  0  0  0  0  0  0  0  0  0
  138.6957   68.9000  222.9007 H   0  0  0  0  0  0  0  0  0  0  0  0
  139.6516   68.2410  227.3800 H   0  0  0  0  0  0  0  0  0  0  0  0
  140.7053   69.5446  229.1979 H   0  0  0  0  0  0  0  0  0  0  0  0
  141.5450   71.8525  228.6733 H   0  0  0  0  0  0  0  0  0  0  0  0
  141.3095   72.7913  226.3826 H   0  0  0  0  0  0  0  0  0  0  0  0
  140.5854   72.5719  224.0941 H   0  0  0  0  0  0  0  0  0  0  0  0
  138.1934   75.1221  220.9792 H   0  0  0  0  0  0  0  0  0  0  0  0
  137.8529   74.8596  222.7636 H   0  0  0  0  0  0  0  0  0  0  0  0
  138.9163   77.0630  221.8278 H   0  0  0  0  0  0  0  0  0  0  0  0
  139.3590   76.2794  223.4344 H   0  0  0  0  0  0  0  0  0  0  0  0
  1  2  1  0
  2  3  1  0
  3  4  2  0
  3  5  1  0
  5  6  1  0
  6  7  2  0
  7  8  1  0
  8  9  2  0
  9 10  1  0
 10 11  2  0
  5 12  1  0
 12 13  1  0
 13 14  1  0
 14 15  1  0
 15 16  1  0
 16 17  2  0
 16 18  1  0
 18 19  1  0
 19 20  2  0
 20 21  1  0
 21 22  2  0
 22 23  1  0
 23 24  2  0
 24 25  1  0
 25 26  2  0
 26 27  1  0
 27 28  2  0
 15 29  1  0
 29 30  1  0
 11  6  1  0
 30 12  1  0
 28 19  1  0
 27 22  1  0
  1 31  1  0
  1 32  1  0
  1 33  1  0
  2 34  1  0
  2 35  1  0
  7 36  1  0
  8 37  1  0
  9 38  1  0
 10 39  1  0
 11 40  1  0
 12 41  1  0
 13 42  1  0
 13 43  1  0
 14 44  1  0
 14 45  1  0
 18 46  1  0
 18 47  1  0
 20 48  1  0
 23 49  1  0
 24 50  1  0
 25 51  1  0
 26 52  1  0
 28 53  1  0
 29 54  1  0
 29 55  1  0
 30 56  1  0
 30 57  1  0
M  END
>  <smiles>  (39) 
CCC(=O)N(c1ccccc1)C1CCN(C(=O)Cc2cnc3ccccc3c2)CC1

>  <score_type>  (39) 
oracle

>  <origin>  (39) 
autodockgpu

>  <m_score__min__energy>  (39) 
-8.8599999999999994

>  <m_primary>  (39) 
energy

>  <rmsd>  (39) 
8.32937236217607

>  <m_score__min__rmsd>  (39) 
8.32937236217607

>  <meeko>  (39) 
{"free_energy": -8.72, "intermolecular_energy": -10.51, "internal_energy": -1.49, "cluster_size": 43, "cluster_id": 1, "rank_in_cluster": 25}

>  <energy>  (39) 
-8.46

>  <cluster_rmsd>  (39) 
1.72

>  <cluster>  (39) 
1

$$$$

     RDKit          3D

 57 60  0  0  0  0  0  0  0  0999 V2000
  142.5770   78.5180  218.0390 C   0  0  0  0  0  0  0  0  0  0  0  0
  142.5520   77.3940  219.0230 C   0  0  0  0  0  0  0  0  0  0  0  0
  141.2410   77.3460  219.7220 C   0  0  0  0  0  0  0  0  0  0  0  0
  140.1950   77.2450  219.0320 O   0  0  0  0  0  0  0  0  0  0  0  0
  141.2030   77.4150  221.1620 N   0  0  0  0  0  0  0  0  0  0  0  0
  141.5250   78.6560  221.8170 C   0  0  0  0  0  0  0  0  0  0  0  0
  141.7670   78.6370  223.1770 C   0  0  0  0  0  0  0  0  0  0  0  0
  142.0820   79.7910  223.8780 C   0  0  0  0  0  0  0  0  0  0  0  0
  142.1460   80.9880  223.1570 C   0  0  0  0  0  0  0  0  0  0  0  0
  141.9060   81.0150  221.8000 C   0  0  0  0  0  0  0  0  0  0  0  0
  141.5920   79.8450  221.1150 C   0  0  0  0  0  0  0  0  0  0  0  0
  140.8440   76.2290  221.9150 C   0  0  0  0  0  0  0  0  0  0  0  0
  141.2160   75.0330  221.0750 C   0  0  0  0  0  0  0  0  0  0  0  0
  140.8730   73.8250  221.9560 C   0  0  0  0  0  0  0  0  0  0  0  0
  139.4100   73.8100  221.9760 N   0  0  0  0  0  0  0  0  0  0  0  0
  138.7140   72.5630  222.0060 C   0  0  0  0  0  0  0  0  0  0  0  0
  137.4490   72.4960  222.0200 O   0  0  0  0  0  0  0  0  0  0  0  0
  139.4710   71.3030  222.0180 C   0  0  0  0  0  0  0  0  0  0  0  0
  139.6190   70.8050  223.4050 C   0  0  0  0  0  0  0  0  0  0  0  0
  139.1530   69.5480  223.7180 C   0  0  0  0  0  0  0  0  0  0  0  0
  139.2490   69.0180  224.9600 N   0  0  0  0  0  0  0  0  0  0  0  0
  139.8380   69.7820  225.9240 C   0  0  0  0  0  0  0  0  0  0  0  0
  139.9630   69.2940  227.2020 C   0  0  0  0  0  0  0  0  0  0  0  0
  140.5450   70.0030  228.2310 C   0  0  0  0  0  0  0  0  0  0  0  0
  141.0240   71.2810  227.9330 C   0  0  0  0  0  0  0  0  0  0  0  0
  140.9150   71.8100  226.6510 C   0  0  0  0  0  0  0  0  0  0  0  0
  140.3190   71.0510  225.6510 C   0  0  0  0  0  0  0  0  0  0  0  0
  140.2180   71.5960  224.3670 C   0  0  0  0  0  0  0  0  0  0  0  0
  138.6330   75.0210  221.9700 C   0  0  0  0  0  0  0  0  0  0  0  0
  139.4020   76.2530  222.3010 C   0  0  0  0  0  0  0  0  0  0  0  0
  142.5983   79.4767  218.5779 H   0  0  0  0  0  0  0  0  0  0  0  0
  143.4735   78.4324  217.4073 H   0  0  0  0  0  0  0  0  0  0  0  0
  141.6776   78.4724  217.4073 H   0  0  0  0  0  0  0  0  0  0  0  0
  142.7148   76.4442  218.4925 H   0  0  0  0  0  0  0  0  0  0  0  0
  143.3470   77.5530  219.7664 H   0  0  0  0  0  0  0  0  0  0  0  0
  141.7082   77.6811  223.7180 H   0  0  0  0  0  0  0  0  0  0  0  0
  142.2744   79.7662  224.9608 H   0  0  0  0  0  0  0  0  0  0  0  0
  142.3919   81.9231  223.6816 H   0  0  0  0  0  0  0  0  0  0  0  0
  141.9631   81.9684  221.2544 H   0  0  0  0  0  0  0  0  0  0  0  0
  141.4001   79.8660  220.0321 H   0  0  0  0  0  0  0  0  0  0  0  0
  141.3930   76.1813  222.8670 H   0  0  0  0  0  0  0  0  0  0  0  0
  140.6305   75.0142  220.1439 H   0  0  0  0  0  0  0  0  0  0  0  0
  142.2740   75.0451  220.7743 H   0  0  0  0  0  0  0  0  0  0  0  0
  141.2682   72.8964  221.5184 H   0  0  0  0  0  0  0  0  0  0  0  0
  141.3109   73.8953  222.9626 H   0  0  0  0  0  0  0  0  0  0  0  0
  138.9355   70.5523  221.4182 H   0  0  0  0  0  0  0  0  0  0  0  0
  140.4700   71.4819  221.5937 H   0  0  0  0  0  0  0  0  0  0  0  0
  138.6824   68.9485  222.9248 H   0  0  0  0  0  0  0  0  0  0  0  0
  139.5789   68.2855  227.4152 H   0  0  0  0  0  0  0  0  0  0  0  0
  140.6286   69.5806  229.2432 H   0  0  0  0  0  0  0  0  0  0  0  0
  141.4958   71.8797  228.7261 H   0  0  0  0  0  0  0  0  0  0  0  0
  141.2964   72.8181  226.4312 H   0  0  0  0  0  0  0  0  0  0  0  0
  140.5959   72.6026  224.1347 H   0  0  0  0  0  0  0  0  0  0  0  0
  138.2002   75.1460  220.9665 H   0  0  0  0  0  0  0  0  0  0  0  0
  137.8727   74.9074  222.7568 H   0  0  0  0  0  0  0  0  0  0  0  0
  138.9261   77.0995  221.7843 H   0  0  0  0  0  0  0  0  0  0  0  0
  139.3824   76.3379  223.3975 H   0  0  0  0  0  0  0  0  0  0  0  0
  1  2  1  0
  2  3  1  0
  3  4  2  0
  3  5  1  0
  5  6  1  0
  6  7  2  0
  7  8  1  0
  8  9  2  0
  9 10  1  0
 10 11  2  0
  5 12  1  0
 12 13  1  0
 13 14  1  0
 14 15  1  0
 15 16  1  0
 16 17  2  0
 16 18  1  0
 18 19  1  0
 19 20  2  0
 20 21  1  0
 21 22  2  0
 22 23  1  0
 23 24  2  0
 24 25  1  0
 25 26  2  0
 26 27  1  0
 27 28  2  0
 15 29  1  0
 29 30  1  0
 11  6  1  0
 30 12  1  0
 28 19  1  0
 27 22  1  0
  1 31  1  0
  1 32  1  0
  1 33  1  0
  2 34  1  0
  2 35  1  0
  7 36  1  0
  8 37  1  0
  9 38  1  0
 10 39  1  0
 11 40  1  0
 12 41  1  0
 13 42  1  0
 13 43  1  0
 14 44  1  0
 14 45  1  0
 18 46  1  0
 18 47  1  0
 20 48  1  0
 23 49  1  0
 24 50  1  0
 25 51  1  0
 26 52  1  0
 28 53  1  0
 29 54  1  0
 29 55  1  0
 30 56  1  0
 30 57  1  0
M  END
>  <smiles>  (40) 
CCC(=O)N(c1ccccc1)C1CCN(C(=O)Cc2cnc3ccccc3c2)CC1

>  <score_type>  (40) 
oracle

>  <origin>  (40) 
autodockgpu

>  <m_score__min__energy>  (40) 
-8.8599999999999994

>  <m_primary>  (40) 
energy

>  <rmsd>  (40) 
8.312284991275632

>  <m_score__min__rmsd>  (40) 
8.312284991275632

>  <meeko>  (40) 
{"free_energy": -8.71, "intermolecular_energy": -10.5, "internal_energy": -1.5, "cluster_size": 43, "cluster_id": 1, "rank_in_cluster": 31}

>  <energy>  (40) 
-8.42

>  <cluster_rmsd>  (40) 
1.7

>  <cluster>  (40) 
1

$$$$

     RDKit          3D

 57 60  0  0  0  0  0  0  0  0999 V2000
  143.6280   76.0760  219.6840 C   0  0  0  0  0  0  0  0  0  0  0  0
  142.7370   77.1280  219.1090 C   0  0  0  0  0  0  0  0  0  0  0  0
  141.3840   77.0520  219.7190 C   0  0  0  0  0  0  0  0  0  0  0  0
  140.3920   76.8900  218.9630 O   0  0  0  0  0  0  0  0  0  0  0  0
  141.2450   77.1640  221.1500 N   0  0  0  0  0  0  0  0  0  0  0  0
  141.5110   78.4270  221.7880 C   0  0  0  0  0  0  0  0  0  0  0  0
  141.5520   79.5620  221.0020 C   0  0  0  0  0  0  0  0  0  0  0  0
  141.8030   80.8150  221.5420 C   0  0  0  0  0  0  0  0  0  0  0  0
  142.0190   80.8910  222.9220 C   0  0  0  0  0  0  0  0  0  0  0  0
  141.9790   79.7630  223.7120 C   0  0  0  0  0  0  0  0  0  0  0  0
  141.7250   78.5150  223.1500 C   0  0  0  0  0  0  0  0  0  0  0  0
  140.8410   75.9970  221.9110 C   0  0  0  0  0  0  0  0  0  0  0  0
  141.1710   74.7820  221.0820 C   0  0  0  0  0  0  0  0  0  0  0  0
  140.7830   73.5950  221.9730 C   0  0  0  0  0  0  0  0  0  0  0  0
  139.3210   73.6330  221.9890 N   0  0  0  0  0  0  0  0  0  0  0  0
  138.5800   72.4120  222.0270 C   0  0  0  0  0  0  0  0  0  0  0  0
  137.3130   72.3900  222.0390 O   0  0  0  0  0  0  0  0  0  0  0  0
  139.2910   71.1250  222.0520 C   0  0  0  0  0  0  0  0  0  0  0  0
  139.4910   70.6750  223.4480 C   0  0  0  0  0  0  0  0  0  0  0  0
  139.0730   69.4140  223.8110 C   0  0  0  0  0  0  0  0  0  0  0  0
  139.2190   68.9250  225.0650 N   0  0  0  0  0  0  0  0  0  0  0  0
  139.8090   69.7360  225.9900 C   0  0  0  0  0  0  0  0  0  0  0  0
  139.9830   69.2910  227.2770 C   0  0  0  0  0  0  0  0  0  0  0  0
  140.5700   70.0480  228.2680 C   0  0  0  0  0  0  0  0  0  0  0  0
  141.0010   71.3300  227.9200 C   0  0  0  0  0  0  0  0  0  0  0  0
  140.8410   71.8160  226.6260 C   0  0  0  0  0  0  0  0  0  0  0  0
  140.2420   71.0090  225.6650 C   0  0  0  0  0  0  0  0  0  0  0  0
  140.0900   71.5120  224.3700 C   0  0  0  0  0  0  0  0  0  0  0  0
  138.5880   74.8710  221.9720 C   0  0  0  0  0  0  0  0  0  0  0  0
  139.4000   76.0770  222.2940 C   0  0  0  0  0  0  0  0  0  0  0  0
  143.5887   76.1224  220.7823 H   0  0  0  0  0  0  0  0  0  0  0  0
  143.2904   75.0850  219.3466 H   0  0  0  0  0  0  0  0  0  0  0  0
  144.6611   76.2459  219.3466 H   0  0  0  0  0  0  0  0  0  0  0  0
  143.1699   78.1190  219.3100 H   0  0  0  0  0  0  0  0  0  0  0  0
  142.6487   76.9667  218.0245 H   0  0  0  0  0  0  0  0  0  0  0  0
  141.3811   79.4700  219.9193 H   0  0  0  0  0  0  0  0  0  0  0  0
  141.8311   81.7143  220.9092 H   0  0  0  0  0  0  0  0  0  0  0  0
  142.2242   81.8679  223.3842 H   0  0  0  0  0  0  0  0  0  0  0  0
  142.1491   79.8492  224.7953 H   0  0  0  0  0  0  0  0  0  0  0  0
  141.6952   77.6138  223.7800 H   0  0  0  0  0  0  0  0  0  0  0  0
  141.3861   75.9363  222.8645 H   0  0  0  0  0  0  0  0  0  0  0  0
  140.5868   74.7764  220.1500 H   0  0  0  0  0  0  0  0  0  0  0  0
  142.2292   74.7534  220.7829 H   0  0  0  0  0  0  0  0  0  0  0  0
  141.1456   72.6488  221.5449 H   0  0  0  0  0  0  0  0  0  0  0  0
  141.2209   73.6584  222.9801 H   0  0  0  0  0  0  0  0  0  0  0  0
  138.6991   70.3730  221.5097 H   0  0  0  0  0  0  0  0  0  0  0  0
  140.2730   71.2496  221.5723 H   0  0  0  0  0  0  0  0  0  0  0  0
  138.6001   68.7767  223.0493 H   0  0  0  0  0  0  0  0  0  0  0  0
  139.6361   68.2783  227.5303 H   0  0  0  0  0  0  0  0  0  0  0  0
  140.6937   69.6590  229.2895 H   0  0  0  0  0  0  0  0  0  0  0  0
  141.4750   71.9664  228.6818 H   0  0  0  0  0  0  0  0  0  0  0  0
  141.1848   72.8280  226.3660 H   0  0  0  0  0  0  0  0  0  0  0  0
  140.4298   72.5224  224.0986 H   0  0  0  0  0  0  0  0  0  0  0  0
  138.1612   75.0032  220.9668 H   0  0  0  0  0  0  0  0  0  0  0  0
  137.8232   74.7911  222.7586 H   0  0  0  0  0  0  0  0  0  0  0  0
  138.9560   76.9357  221.7691 H   0  0  0  0  0  0  0  0  0  0  0  0
  139.3814   76.1725  223.3897 H   0  0  0  0  0  0  0  0  0  0  0  0
  1  2  1  0
  2  3  1  0
  3  4  2  0
  3  5  1  0
  5  6  1  0
  6  7  2  0
  7  8  1  0
  8  9  2  0
  9 10  1  0
 10 11  2  0
  5 12  1  0
 12 13  1  0
 13 14  1  0
 14 15  1  0
 15 16  1  0
 16 17  2  0
 16 18  1  0
 18 19  1  0
 19 20  2  0
 20 21  1  0
 21 22  2  0
 22 23  1  0
 23 24  2  0
 24 25  1  0
 25 26  2  0
 26 27  1  0
 27 28  2  0
 15 29  1  0
 29 30  1  0
 11  6  1  0
 30 12  1  0
 28 19  1  0
 27 22  1  0
  1 31  1  0
  1 32  1  0
  1 33  1  0
  2 34  1  0
  2 35  1  0
  7 36  1  0
  8 37  1  0
  9 38  1  0
 10 39  1  0
 11 40  1  0
 12 41  1  0
 13 42  1  0
 13 43  1  0
 14 44  1  0
 14 45  1  0
 18 46  1  0
 18 47  1  0
 20 48  1  0
 23 49  1  0
 24 50  1  0
 25 51  1  0
 26 52  1  0
 28 53  1  0
 29 54  1  0
 29 55  1  0
 30 56  1  0
 30 57  1  0
M  END
>  <smiles>  (41) 
CCC(=O)N(c1ccccc1)C1CCN(C(=O)Cc2cnc3ccccc3c2)CC1

>  <score_type>  (41) 
oracle

>  <origin>  (41) 
autodockgpu

>  <m_score__min__energy>  (41) 
-8.8599999999999994

>  <m_primary>  (41) 
energy

>  <rmsd>  (41) 
8.34826352070706

>  <m_score__min__rmsd>  (41) 
8.34826352070706

>  <meeko>  (41) 
{"free_energy": -8.72, "intermolecular_energy": -10.51, "internal_energy": -1.47, "cluster_size": 43, "cluster_id": 1, "rank_in_cluster": 29}

>  <energy>  (41) 
-8.37

>  <cluster_rmsd>  (41) 
1.7

>  <cluster>  (41) 
1

$$$$

     RDKit          3D

 57 60  0  0  0  0  0  0  0  0999 V2000
  142.5780   78.4880  218.1160 C   0  0  0  0  0  0  0  0  0  0  0  0
  142.5140   77.3430  219.0730 C   0  0  0  0  0  0  0  0  0  0  0  0
  141.2020   77.3230  219.7710 C   0  0  0  0  0  0  0  0  0  0  0  0
  140.1540   77.2610  219.0800 O   0  0  0  0  0  0  0  0  0  0  0  0
  141.1660   77.3730  221.2120 N   0  0  0  0  0  0  0  0  0  0  0  0
  141.4920   78.6050  221.8820 C   0  0  0  0  0  0  0  0  0  0  0  0
  141.5280   79.7680  221.1370 C   0  0  0  0  0  0  0  0  0  0  0  0
  141.8340   80.9930  221.7100 C   0  0  0  0  0  0  0  0  0  0  0  0
  142.1100   81.0130  223.0810 C   0  0  0  0  0  0  0  0  0  0  0  0
  142.0760   79.8570  223.8310 C   0  0  0  0  0  0  0  0  0  0  0  0
  141.7670   78.6370  223.2360 C   0  0  0  0  0  0  0  0  0  0  0  0
  140.8040   76.1780  221.9500 C   0  0  0  0  0  0  0  0  0  0  0  0
  141.1880   74.9920  221.1010 C   0  0  0  0  0  0  0  0  0  0  0  0
  140.8410   73.7750  221.9680 C   0  0  0  0  0  0  0  0  0  0  0  0
  139.3790   73.7550  221.9750 N   0  0  0  0  0  0  0  0  0  0  0  0
  138.6870   72.5050  221.9860 C   0  0  0  0  0  0  0  0  0  0  0  0
  137.4220   72.4330  221.9890 O   0  0  0  0  0  0  0  0  0  0  0  0
  139.4470   71.2470  221.9930 C   0  0  0  0  0  0  0  0  0  0  0  0
  139.5910   70.7390  223.3770 C   0  0  0  0  0  0  0  0  0  0  0  0
  139.1040   69.4890  223.6840 C   0  0  0  0  0  0  0  0  0  0  0  0
  139.1950   68.9500  224.9230 N   0  0  0  0  0  0  0  0  0  0  0  0
  139.7990   69.6990  225.8900 C   0  0  0  0  0  0  0  0  0  0  0  0
  139.9200   69.2030  227.1650 C   0  0  0  0  0  0  0  0  0  0  0  0
  140.5170   69.8960  228.1950 C   0  0  0  0  0  0  0  0  0  0  0  0
  141.0170   71.1670  227.9030 C   0  0  0  0  0  0  0  0  0  0  0  0
  140.9130   71.7040  226.6240 C   0  0  0  0  0  0  0  0  0  0  0  0
  140.3010   70.9610  225.6210 C   0  0  0  0  0  0  0  0  0  0  0  0
  140.2060   71.5140  224.3410 C   0  0  0  0  0  0  0  0  0  0  0  0
  138.5980   74.9630  221.9750 C   0  0  0  0  0  0  0  0  0  0  0  0
  139.3600   76.1940  222.3240 C   0  0  0  0  0  0  0  0  0  0  0  0
  142.6308   79.4325  218.6773 H   0  0  0  0  0  0  0  0  0  0  0  0
  143.4719   78.3872  217.4829 H   0  0  0  0  0  0  0  0  0  0  0  0
  141.6784   78.4875  217.4829 H   0  0  0  0  0  0  0  0  0  0  0  0
  142.6447   76.4010  218.5202 H   0  0  0  0  0  0  0  0  0  0  0  0
  143.3135   77.4574  219.8198 H   0  0  0  0  0  0  0  0  0  0  0  0
  141.3080   79.7208  220.0603 H   0  0  0  0  0  0  0  0  0  0  0  0
  141.8587   81.9141  221.1092 H   0  0  0  0  0  0  0  0  0  0  0  0
  142.3583   81.9671  223.5688 H   0  0  0  0  0  0  0  0  0  0  0  0
  142.2948   79.8988  224.9082 H   0  0  0  0  0  0  0  0  0  0  0  0
  141.7421   77.7138  223.8336 H   0  0  0  0  0  0  0  0  0  0  0  0
  141.3444   76.1217  222.9065 H   0  0  0  0  0  0  0  0  0  0  0  0
  140.6109   74.9803  220.1646 H   0  0  0  0  0  0  0  0  0  0  0  0
  142.2484   75.0106  220.8091 H   0  0  0  0  0  0  0  0  0  0  0  0
  141.2431   72.8516  221.5256 H   0  0  0  0  0  0  0  0  0  0  0  0
  141.2697   73.8378  222.9791 H   0  0  0  0  0  0  0  0  0  0  0  0
  138.9159   70.4992  221.3857 H   0  0  0  0  0  0  0  0  0  0  0  0
  140.4474   71.4319  221.5746 H   0  0  0  0  0  0  0  0  0  0  0  0
  138.6201   68.9026  222.8890 H   0  0  0  0  0  0  0  0  0  0  0  0
  139.5194   68.2002  227.3746 H   0  0  0  0  0  0  0  0  0  0  0  0
  140.5965   69.4666  229.2046 H   0  0  0  0  0  0  0  0  0  0  0  0
  141.5012   71.7533  228.6979 H   0  0  0  0  0  0  0  0  0  0  0  0
  141.3110   72.7065  226.4084 H   0  0  0  0  0  0  0  0  0  0  0  0
  140.6007   72.5151  224.1129 H   0  0  0  0  0  0  0  0  0  0  0  0
  138.1725   75.0964  220.9695 H   0  0  0  0  0  0  0  0  0  0  0  0
  137.8321   74.8390  222.7547 H   0  0  0  0  0  0  0  0  0  0  0  0
  138.8857   77.0439  221.8115 H   0  0  0  0  0  0  0  0  0  0  0  0
  139.3310   76.2686  223.4211 H   0  0  0  0  0  0  0  0  0  0  0  0
  1  2  1  0
  2  3  1  0
  3  4  2  0
  3  5  1  0
  5  6  1  0
  6  7  2  0
  7  8  1  0
  8  9  2  0
  9 10  1  0
 10 11  2  0
  5 12  1  0
 12 13  1  0
 13 14  1  0
 14 15  1  0
 15 16  1  0
 16 17  2  0
 16 18  1  0
 18 19  1  0
 19 20  2  0
 20 21  1  0
 21 22  2  0
 22 23  1  0
 23 24  2  0
 24 25  1  0
 25 26  2  0
 26 27  1  0
 27 28  2  0
 15 29  1  0
 29 30  1  0
 11  6  1  0
 30 12  1  0
 28 19  1  0
 27 22  1  0
  1 31  1  0
  1 32  1  0
  1 33  1  0
  2 34  1  0
  2 35  1  0
  7 36  1  0
  8 37  1  0
  9 38  1  0
 10 39  1  0
 11 40  1  0
 12 41  1  0
 13 42  1  0
 13 43  1  0
 14 44  1  0
 14 45  1  0
 18 46  1  0
 18 47  1  0
 20 48  1  0
 23 49  1  0
 24 50  1  0
 25 51  1  0
 26 52  1  0
 28 53  1  0
 29 54  1  0
 29 55  1  0
 30 56  1  0
 30 57  1  0
M  END
>  <smiles>  (42) 
CCC(=O)N(c1ccccc1)C1CCN(C(=O)Cc2cnc3ccccc3c2)CC1

>  <score_type>  (42) 
oracle

>  <origin>  (42) 
autodockgpu

>  <m_score__min__energy>  (42) 
-8.8599999999999994

>  <m_primary>  (42) 
energy

>  <rmsd>  (42) 
8.365741897235171

>  <m_score__min__rmsd>  (42) 
8.365741897235171

>  <meeko>  (42) 
{"free_energy": -8.71, "intermolecular_energy": -10.5, "internal_energy": -1.49, "cluster_size": 43, "cluster_id": 1, "rank_in_cluster": 30}

>  <energy>  (42) 
-8.36

>  <cluster_rmsd>  (42) 
1.74

>  <cluster>  (42) 
1

$$$$

     RDKit          3D

 57 60  0  0  0  0  0  0  0  0999 V2000
  146.2780   73.3300  221.4700 C   0  0  0  0  0  0  0  0  0  0  0  0
  145.2670   73.7510  220.4550 C   0  0  0  0  0  0  0  0  0  0  0  0
  145.1870   72.7520  219.3570 C   0  0  0  0  0  0  0  0  0  0  0  0
  145.9380   72.8930  218.3590 O   0  0  0  0  0  0  0  0  0  0  0  0
  144.2580   71.6540  219.4660 N   0  0  0  0  0  0  0  0  0  0  0  0
  144.7370   70.3060  219.3020 C   0  0  0  0  0  0  0  0  0  0  0  0
  145.8040   70.0880  218.4530 C   0  0  0  0  0  0  0  0  0  0  0  0
  146.3220   68.8190  218.2420 C   0  0  0  0  0  0  0  0  0  0  0  0
  145.7210   67.7560  218.9240 C   0  0  0  0  0  0  0  0  0  0  0  0
  144.6560   67.9660  219.7730 C   0  0  0  0  0  0  0  0  0  0  0  0
  144.1520   69.2480  219.9710 C   0  0  0  0  0  0  0  0  0  0  0  0
  142.8610   71.9380  219.7360 C   0  0  0  0  0  0  0  0  0  0  0  0
  142.6230   71.6730  221.2010 C   0  0  0  0  0  0  0  0  0  0  0  0
  141.1550   72.0570  221.4260 C   0  0  0  0  0  0  0  0  0  0  0  0
  140.4080   71.0010  220.7420 N   0  0  0  0  0  0  0  0  0  0  0  0
  139.1660   70.5480  221.2830 C   0  0  0  0  0  0  0  0  0  0  0  0
  138.4830   69.6340  220.7320 O   0  0  0  0  0  0  0  0  0  0  0  0
  138.6440   71.1460  222.5200 C   0  0  0  0  0  0  0  0  0  0  0  0
  139.0400   70.3320  223.6920 C   0  0  0  0  0  0  0  0  0  0  0  0
  138.7500   68.9860  223.7000 C   0  0  0  0  0  0  0  0  0  0  0  0
  139.0770   68.1710  224.7310 N   0  0  0  0  0  0  0  0  0  0  0  0
  139.7210   68.7330  225.7940 C   0  0  0  0  0  0  0  0  0  0  0  0
  140.0780   67.9530  226.8670 C   0  0  0  0  0  0  0  0  0  0  0  0
  140.7300   68.4440  227.9780 C   0  0  0  0  0  0  0  0  0  0  0  0
  141.0320   69.8080  227.9880 C   0  0  0  0  0  0  0  0  0  0  0  0
  140.6870   70.6300  226.9200 C   0  0  0  0  0  0  0  0  0  0  0  0
  140.0300   70.0820  225.8250 C   0  0  0  0  0  0  0  0  0  0  0  0
  139.6900   70.9200  224.7590 C   0  0  0  0  0  0  0  0  0  0  0  0
  140.8820   70.3930  219.5270 C   0  0  0  0  0  0  0  0  0  0  0  0
  141.9680   71.1450  218.8400 C   0  0  0  0  0  0  0  0  0  0  0  0
  145.8755   73.4976  222.4799 H   0  0  0  0  0  0  0  0  0  0  0  0
  146.5064   72.2620  221.3389 H   0  0  0  0  0  0  0  0  0  0  0  0
  147.1969   73.9202  221.3389 H   0  0  0  0  0  0  0  0  0  0  0  0
  144.2827   73.8377  220.9384 H   0  0  0  0  0  0  0  0  0  0  0  0
  145.5681   74.7212  220.0330 H   0  0  0  0  0  0  0  0  0  0  0  0
  146.2553   70.9440  217.9299 H   0  0  0  0  0  0  0  0  0  0  0  0
  147.1728   68.6548  217.5644 H   0  0  0  0  0  0  0  0  0  0  0  0
  146.1049   66.7352  218.7803 H   0  0  0  0  0  0  0  0  0  0  0  0
  144.2007   67.1135  220.2984 H   0  0  0  0  0  0  0  0  0  0  0  0
  143.3021   69.4162  220.6488 H   0  0  0  0  0  0  0  0  0  0  0  0
  142.6200   72.9893  219.5200 H   0  0  0  0  0  0  0  0  0  0  0  0
  142.7878   70.6111  221.4360 H   0  0  0  0  0  0  0  0  0  0  0  0
  143.3084   72.2421  221.8463 H   0  0  0  0  0  0  0  0  0  0  0  0
  140.9148   72.0744  222.4993 H   0  0  0  0  0  0  0  0  0  0  0  0
  140.9155   73.0612  221.0462 H   0  0  0  0  0  0  0  0  0  0  0  0
  139.0494   72.1626  222.6307 H   0  0  0  0  0  0  0  0  0  0  0  0
  137.5460   71.1819  222.4641 H   0  0  0  0  0  0  0  0  0  0  0  0
  138.2305   68.5542  222.8318 H   0  0  0  0  0  0  0  0  0  0  0  0
  139.8309   66.8815  226.8382 H   0  0  0  0  0  0  0  0  0  0  0  0
  141.0007   67.7901  228.8201 H   0  0  0  0  0  0  0  0  0  0  0  0
  141.5519   70.2397  228.8559 H   0  0  0  0  0  0  0  0  0  0  0  0
  140.9317   71.7022  226.9421 H   0  0  0  0  0  0  0  0  0  0  0  0
  139.9283   71.9938  224.7696 H   0  0  0  0  0  0  0  0  0  0  0  0
  141.2608   69.3894  219.7707 H   0  0  0  0  0  0  0  0  0  0  0  0
  140.0282   70.3755  218.8336 H   0  0  0  0  0  0  0  0  0  0  0  0
  142.5906   70.4204  218.2947 H   0  0  0  0  0  0  0  0  0  0  0  0
  141.4666   71.8748  218.1873 H   0  0  0  0  0  0  0  0  0  0  0  0
  1  2  1  0
  2  3  1  0
  3  4  2  0
  3  5  1  0
  5  6  1  0
  6  7  2  0
  7  8  1  0
  8  9  2  0
  9 10  1  0
 10 11  2  0
  5 12  1  0
 12 13  1  0
 13 14  1  0
 14 15  1  0
 15 16  1  0
 16 17  2  0
 16 18  1  0
 18 19  1  0
 19 20  2  0
 20 21  1  0
 21 22  2  0
 22 23  1  0
 23 24  2  0
 24 25  1  0
 25 26  2  0
 26 27  1  0
 27 28  2  0
 15 29  1  0
 29 30  1  0
 11  6  1  0
 30 12  1  0
 28 19  1  0
 27 22  1  0
  1 31  1  0
  1 32  1  0
  1 33  1  0
  2 34  1  0
  2 35  1  0
  7 36  1  0
  8 37  1  0
  9 38  1  0
 10 39  1  0
 11 40  1  0
 12 41  1  0
 13 42  1  0
 13 43  1  0
 14 44  1  0
 14 45  1  0
 18 46  1  0
 18 47  1  0
 20 48  1  0
 23 49  1  0
 24 50  1  0
 25 51  1  0
 26 52  1  0
 28 53  1  0
 29 54  1  0
 29 55  1  0
 30 56  1  0
 30 57  1  0
M  END
>  <smiles>  (43) 
CCC(=O)N(c1ccccc1)C1CCN(C(=O)Cc2cnc3ccccc3c2)CC1

>  <score_type>  (43) 
oracle

>  <origin>  (43) 
autodockgpu

>  <m_score__min__energy>  (43) 
-8.8599999999999994

>  <m_primary>  (43) 
energy

>  <rmsd>  (43) 
9.501348724316898

>  <m_score__min__rmsd>  (43) 
9.501348724316898

>  <meeko>  (43) 
{"free_energy": -8.58, "intermolecular_energy": -10.37, "internal_energy": -1.43, "cluster_size": 5, "cluster_id": 2, "rank_in_cluster": 4}

>  <energy>  (43) 
-8.35

>  <cluster_rmsd>  (43) 
1.65

>  <cluster>  (43) 
1

$$$$

     RDKit          3D

 57 60  0  0  0  0  0  0  0  0999 V2000
  142.1950   79.3130  218.6320 C   0  0  0  0  0  0  0  0  0  0  0  0
  142.1990   77.9380  219.2160 C   0  0  0  0  0  0  0  0  0  0  0  0
  140.9280   77.6790  219.9420 C   0  0  0  0  0  0  0  0  0  0  0  0
  139.8800   77.4970  219.2720 O   0  0  0  0  0  0  0  0  0  0  0  0
  140.9320   77.6420  221.3830 N   0  0  0  0  0  0  0  0  0  0  0  0
  141.2470   78.8390  222.1180 C   0  0  0  0  0  0  0  0  0  0  0  0
  142.5690   79.0820  222.4400 C   0  0  0  0  0  0  0  0  0  0  0  0
  142.9520   80.2130  223.1450 C   0  0  0  0  0  0  0  0  0  0  0  0
  141.9470   81.1070  223.5270 C   0  0  0  0  0  0  0  0  0  0  0  0
  140.6260   80.8710  223.2100 C   0  0  0  0  0  0  0  0  0  0  0  0
  140.2630   79.7300  222.5000 C   0  0  0  0  0  0  0  0  0  0  0  0
  140.6180   76.3960  222.0570 C   0  0  0  0  0  0  0  0  0  0  0  0
  141.0750   75.2730  221.1610 C   0  0  0  0  0  0  0  0  0  0  0  0
  140.7760   73.9990  221.9620 C   0  0  0  0  0  0  0  0  0  0  0  0
  139.3170   73.9070  221.9410 N   0  0  0  0  0  0  0  0  0  0  0  0
  138.6880   72.6250  221.8800 C   0  0  0  0  0  0  0  0  0  0  0  0
  137.4290   72.4900  221.8550 O   0  0  0  0  0  0  0  0  0  0  0  0
  139.5110   71.4070  221.8410 C   0  0  0  0  0  0  0  0  0  0  0  0
  139.6620   70.8450  223.2030 C   0  0  0  0  0  0  0  0  0  0  0  0
  139.2010   69.5720  223.4550 C   0  0  0  0  0  0  0  0  0  0  0  0
  139.2990   68.9830  224.6710 N   0  0  0  0  0  0  0  0  0  0  0  0
  139.8860   69.7040  225.6700 C   0  0  0  0  0  0  0  0  0  0  0  0
  140.0130   69.1560  226.9230 C   0  0  0  0  0  0  0  0  0  0  0  0
  140.5920   69.8170  227.9850 C   0  0  0  0  0  0  0  0  0  0  0  0
  141.0660   71.1090  227.7480 C   0  0  0  0  0  0  0  0  0  0  0  0
  140.9550   71.6980  226.4930 C   0  0  0  0  0  0  0  0  0  0  0  0
  140.3610   70.9860  225.4570 C   0  0  0  0  0  0  0  0  0  0  0  0
  140.2570   71.5910  224.2010 C   0  0  0  0  0  0  0  0  0  0  0  0
  138.4760   75.0730  221.9820 C   0  0  0  0  0  0  0  0  0  0  0  0
  139.1680   76.3220  222.4040 C   0  0  0  0  0  0  0  0  0  0  0  0
  142.1928   80.0559  219.4432 H   0  0  0  0  0  0  0  0  0  0  0  0
  143.0928   79.4504  218.0114 H   0  0  0  0  0  0  0  0  0  0  0  0
  141.2965   79.4452  218.0114 H   0  0  0  0  0  0  0  0  0  0  0  0
  142.3108   77.2011  218.4070 H   0  0  0  0  0  0  0  0  0  0  0  0
  143.0372   77.8535  219.9233 H   0  0  0  0  0  0  0  0  0  0  0  0
  143.3375   78.3592  222.1288 H   0  0  0  0  0  0  0  0  0  0  0  0
  144.0069   80.3999  223.3944 H   0  0  0  0  0  0  0  0  0  0  0  0
  142.2147   82.0135  224.0897 H   0  0  0  0  0  0  0  0  0  0  0  0
  139.8533   81.5897  223.5205 H   0  0  0  0  0  0  0  0  0  0  0  0
  139.2093   79.5409  222.2472 H   0  0  0  0  0  0  0  0  0  0  0  0
  141.1444   76.3211  223.0199 H   0  0  0  0  0  0  0  0  0  0  0  0
  140.5148   75.2779  220.2144 H   0  0  0  0  0  0  0  0  0  0  0  0
  142.1379   75.3584  220.8910 H   0  0  0  0  0  0  0  0  0  0  0  0
  141.2309   73.1194  221.4831 H   0  0  0  0  0  0  0  0  0  0  0  0
  141.1850   74.0328  222.9826 H   0  0  0  0  0  0  0  0  0  0  0  0
  139.0263   70.6621  221.1927 H   0  0  0  0  0  0  0  0  0  0  0  0
  140.5059   71.6599  221.4459 H   0  0  0  0  0  0  0  0  0  0  0  0
  138.7332   69.0093  222.6337 H   0  0  0  0  0  0  0  0  0  0  0  0
  139.6330   68.1369  227.0875 H   0  0  0  0  0  0  0  0  0  0  0  0
  140.6770   69.3472  228.9760 H   0  0  0  0  0  0  0  0  0  0  0  0
  141.5356   71.6710  228.5687 H   0  0  0  0  0  0  0  0  0  0  0  0
  141.3333   72.7166  226.3218 H   0  0  0  0  0  0  0  0  0  0  0  0
  140.6301   72.6093  224.0172 H   0  0  0  0  0  0  0  0  0  0  0  0
  138.0624   75.2333  220.9754 H   0  0  0  0  0  0  0  0  0  0  0  0
  137.7034   74.8736  222.7392 H   0  0  0  0  0  0  0  0  0  0  0  0
  138.6598   77.1711  221.9236 H   0  0  0  0  0  0  0  0  0  0  0  0
  139.1166   76.3420  223.5026 H   0  0  0  0  0  0  0  0  0  0  0  0
  1  2  1  0
  2  3  1  0
  3  4  2  0
  3  5  1  0
  5  6  1  0
  6  7  2  0
  7  8  1  0
  8  9  2  0
  9 10  1  0
 10 11  2  0
  5 12  1  0
 12 13  1  0
 13 14  1  0
 14 15  1  0
 15 16  1  0
 16 17  2  0
 16 18  1  0
 18 19  1  0
 19 20  2  0
 20 21  1  0
 21 22  2  0
 22 23  1  0
 23 24  2  0
 24 25  1  0
 25 26  2  0
 26 27  1  0
 27 28  2  0
 15 29  1  0
 29 30  1  0
 11  6  1  0
 30 12  1  0
 28 19  1  0
 27 22  1  0
  1 31  1  0
  1 32  1  0
  1 33  1  0
  2 34  1  0
  2 35  1  0
  7 36  1  0
  8 37  1  0
  9 38  1  0
 10 39  1  0
 11 40  1  0
 12 41  1  0
 13 42  1  0
 13 43  1  0
 14 44  1  0
 14 45  1  0
 18 46  1  0
 18 47  1  0
 20 48  1  0
 23 49  1  0
 24 50  1  0
 25 51  1  0
 26 52  1  0
 28 53  1  0
 29 54  1  0
 29 55  1  0
 30 56  1  0
 30 57  1  0
M  END
>  <smiles>  (44) 
CCC(=O)N(c1ccccc1)C1CCN(C(=O)Cc2cnc3ccccc3c2)CC1

>  <score_type>  (44) 
oracle

>  <origin>  (44) 
autodockgpu

>  <m_score__min__energy>  (44) 
-8.8599999999999994

>  <m_primary>  (44) 
energy

>  <rmsd>  (44) 
8.310799349875353

>  <m_score__min__rmsd>  (44) 
8.310799349875353

>  <meeko>  (44) 
{"free_energy": -8.42, "intermolecular_energy": -10.21, "internal_energy": -1.54, "cluster_size": 43, "cluster_id": 1, "rank_in_cluster": 40}

>  <energy>  (44) 
-8.75

>  <cluster_rmsd>  (44) 
0.0

>  <cluster>  (44) 
2

$$$$

     RDKit          3D

 57 60  0  0  0  0  0  0  0  0999 V2000
  141.5570   78.5270  217.8200 C   0  0  0  0  0  0  0  0  0  0  0  0
  140.9560   77.5250  218.7500 C   0  0  0  0  0  0  0  0  0  0  0  0
  141.9260   77.1600  219.8160 C   0  0  0  0  0  0  0  0  0  0  0  0
  143.0560   76.7270  219.4780 O   0  0  0  0  0  0  0  0  0  0  0  0
  141.5470   77.3130  221.2000 N   0  0  0  0  0  0  0  0  0  0  0  0
  141.6360   78.6110  221.8160 C   0  0  0  0  0  0  0  0  0  0  0  0
  141.8080   78.6770  223.1850 C   0  0  0  0  0  0  0  0  0  0  0  0
  141.9020   79.8890  223.8510 C   0  0  0  0  0  0  0  0  0  0  0  0
  141.8140   81.0560  223.0840 C   0  0  0  0  0  0  0  0  0  0  0  0
  141.6420   80.9980  221.7180 C   0  0  0  0  0  0  0  0  0  0  0  0
  141.5510   79.7700  221.0680 C   0  0  0  0  0  0  0  0  0  0  0  0
  141.0880   76.1510  221.9360 C   0  0  0  0  0  0  0  0  0  0  0  0
  141.3860   74.9370  221.0930 C   0  0  0  0  0  0  0  0  0  0  0  0
  140.9390   73.7510  221.9580 C   0  0  0  0  0  0  0  0  0  0  0  0
  139.4800   73.8450  221.9540 N   0  0  0  0  0  0  0  0  0  0  0  0
  138.6930   72.6520  221.9610 C   0  0  0  0  0  0  0  0  0  0  0  0
  137.4260   72.6780  221.9550 O   0  0  0  0  0  0  0  0  0  0  0  0
  139.3540   71.3390  221.9760 C   0  0  0  0  0  0  0  0  0  0  0  0
  139.5240   70.8630  223.3680 C   0  0  0  0  0  0  0  0  0  0  0  0
  138.9820   69.6510  223.7310 C   0  0  0  0  0  0  0  0  0  0  0  0
  139.0920   69.1430  224.9810 N   0  0  0  0  0  0  0  0  0  0  0  0
  139.7740   69.8840  225.9020 C   0  0  0  0  0  0  0  0  0  0  0  0
  139.9170   69.4180  227.1850 C   0  0  0  0  0  0  0  0  0  0  0  0
  140.5900   70.1050  228.1720 C   0  0  0  0  0  0  0  0  0  0  0  0
  141.1470   71.3380  227.8220 C   0  0  0  0  0  0  0  0  0  0  0  0
  141.0220   71.8440  226.5320 C   0  0  0  0  0  0  0  0  0  0  0  0
  140.3320   71.1080  225.5770 C   0  0  0  0  0  0  0  0  0  0  0  0
  140.2170   71.6300  224.2850 C   0  0  0  0  0  0  0  0  0  0  0  0
  138.7940   75.1100  221.9460 C   0  0  0  0  0  0  0  0  0  0  0  0
  139.6460   76.2790  222.2990 C   0  0  0  0  0  0  0  0  0  0  0  0
  142.0368   79.3269  218.4031 H   0  0  0  0  0  0  0  0  0  0  0  0
  142.3087   78.0341  217.1859 H   0  0  0  0  0  0  0  0  0  0  0  0
  140.7683   78.9581  217.1859 H   0  0  0  0  0  0  0  0  0  0  0  0
  140.0545   77.9541  219.2117 H   0  0  0  0  0  0  0  0  0  0  0  0
  140.6951   76.6209  218.1802 H   0  0  0  0  0  0  0  0  0  0  0  0
  141.8721   77.7427  223.7621 H   0  0  0  0  0  0  0  0  0  0  0  0
  142.0405   79.9318  224.9414 H   0  0  0  0  0  0  0  0  0  0  0  0
  141.8832   82.0356  223.5795 H   0  0  0  0  0  0  0  0  0  0  0  0
  141.5761   81.9293  221.1364 H   0  0  0  0  0  0  0  0  0  0  0  0
  141.4138   79.7231  219.9776 H   0  0  0  0  0  0  0  0  0  0  0  0
  141.6153   76.0554  222.8967 H   0  0  0  0  0  0  0  0  0  0  0  0
  140.8177   74.9680  220.1517 H   0  0  0  0  0  0  0  0  0  0  0  0
  142.4474   74.8732  220.8111 H   0  0  0  0  0  0  0  0  0  0  0  0
  141.2713   72.7988  221.5189 H   0  0  0  0  0  0  0  0  0  0  0  0
  141.3639   73.7809  222.9722 H   0  0  0  0  0  0  0  0  0  0  0  0
  138.7390   70.6171  221.4186 H   0  0  0  0  0  0  0  0  0  0  0  0
  140.3447   71.4327  221.5072 H   0  0  0  0  0  0  0  0  0  0  0  0
  138.4360   69.0703  222.9729 H   0  0  0  0  0  0  0  0  0  0  0  0
  139.4710   68.4450  227.4388 H   0  0  0  0  0  0  0  0  0  0  0  0
  140.6846   69.7006  229.1906 H   0  0  0  0  0  0  0  0  0  0  0  0
  141.6938   71.9186  228.5796 H   0  0  0  0  0  0  0  0  0  0  0  0
  141.4648   72.8165  226.2711 H   0  0  0  0  0  0  0  0  0  0  0  0
  140.6556   72.6013  224.0126 H   0  0  0  0  0  0  0  0  0  0  0  0
  138.3877   75.2737  220.9370 H   0  0  0  0  0  0  0  0  0  0  0  0
  138.0147   75.0471  222.7197 H   0  0  0  0  0  0  0  0  0  0  0  0
  139.2426   77.1619  221.7816 H   0  0  0  0  0  0  0  0  0  0  0  0
  139.6146   76.3577  223.3957 H   0  0  0  0  0  0  0  0  0  0  0  0
  1  2  1  0
  2  3  1  0
  3  4  2  0
  3  5  1  0
  5  6  1  0
  6  7  2  0
  7  8  1  0
  8  9  2  0
  9 10  1  0
 10 11  2  0
  5 12  1  0
 12 13  1  0
 13 14  1  0
 14 15  1  0
 15 16  1  0
 16 17  2  0
 16 18  1  0
 18 19  1  0
 19 20  2  0
 20 21  1  0
 21 22  2  0
 22 23  1  0
 23 24  2  0
 24 25  1  0
 25 26  2  0
 26 27  1  0
 27 28  2  0
 15 29  1  0
 29 30  1  0
 11  6  1  0
 30 12  1  0
 28 19  1  0
 27 22  1  0
  1 31  1  0
  1 32  1  0
  1 33  1  0
  2 34  1  0
  2 35  1  0
  7 36  1  0
  8 37  1  0
  9 38  1  0
 10 39  1  0
 11 40  1  0
 12 41  1  0
 13 42  1  0
 13 43  1  0
 14 44  1  0
 14 45  1  0
 18 46  1  0
 18 47  1  0
 20 48  1  0
 23 49  1  0
 24 50  1  0
 25 51  1  0
 26 52  1  0
 28 53  1  0
 29 54  1  0
 29 55  1  0
 30 56  1  0
 30 57  1  0
M  END
>  <smiles>  (45) 
CCC(=O)N(c1ccccc1)C1CCN(C(=O)Cc2cnc3ccccc3c2)CC1

>  <score_type>  (45) 
oracle

>  <origin>  (45) 
autodockgpu

>  <m_score__min__energy>  (45) 
-8.8599999999999994

>  <m_primary>  (45) 
energy

>  <rmsd>  (45) 
8.266169481398613

>  <m_score__min__rmsd>  (45) 
8.266169481398613

>  <meeko>  (45) 
{"free_energy": -8.46, "intermolecular_energy": -10.25, "internal_energy": -1.45, "cluster_size": 43, "cluster_id": 1, "rank_in_cluster": 39}

>  <energy>  (45) 
-8.73

>  <cluster_rmsd>  (45) 
0.11

>  <cluster>  (45) 
2

$$$$

     RDKit          3D

 57 60  0  0  0  0  0  0  0  0999 V2000
  142.6020   78.4730  218.0960 C   0  0  0  0  0  0  0  0  0  0  0  0
  142.5600   77.3430  219.0720 C   0  0  0  0  0  0  0  0  0  0  0  0
  141.2510   77.3120  219.7750 C   0  0  0  0  0  0  0  0  0  0  0  0
  140.2010   77.2440  219.0870 O   0  0  0  0  0  0  0  0  0  0  0  0
  141.2190   77.3610  221.2160 N   0  0  0  0  0  0  0  0  0  0  0  0
  141.5500   78.5910  221.8870 C   0  0  0  0  0  0  0  0  0  0  0  0
  141.5860   79.7550  221.1440 C   0  0  0  0  0  0  0  0  0  0  0  0
  141.8960   80.9780  221.7180 C   0  0  0  0  0  0  0  0  0  0  0  0
  142.1780   80.9950  223.0880 C   0  0  0  0  0  0  0  0  0  0  0  0
  142.1450   79.8380  223.8360 C   0  0  0  0  0  0  0  0  0  0  0  0
  141.8300   78.6200  223.2400 C   0  0  0  0  0  0  0  0  0  0  0  0
  140.8560   76.1650  221.9530 C   0  0  0  0  0  0  0  0  0  0  0  0
  141.2400   74.9800  221.1050 C   0  0  0  0  0  0  0  0  0  0  0  0
  140.8920   73.7620  221.9710 C   0  0  0  0  0  0  0  0  0  0  0  0
  139.4300   73.7420  221.9750 N   0  0  0  0  0  0  0  0  0  0  0  0
  138.7380   72.4930  221.9850 C   0  0  0  0  0  0  0  0  0  0  0  0
  137.4730   72.4210  221.9860 O   0  0  0  0  0  0  0  0  0  0  0  0
  139.4980   71.2340  221.9930 C   0  0  0  0  0  0  0  0  0  0  0  0
  139.6530   70.7350  223.3780 C   0  0  0  0  0  0  0  0  0  0  0  0
  139.2000   69.4730  223.6890 C   0  0  0  0  0  0  0  0  0  0  0  0
  139.3040   68.9410  224.9300 N   0  0  0  0  0  0  0  0  0  0  0  0
  139.8870   69.7090  225.8950 C   0  0  0  0  0  0  0  0  0  0  0  0
  140.0190   69.2200  227.1710 C   0  0  0  0  0  0  0  0  0  0  0  0
  140.5960   69.9320  228.2010 C   0  0  0  0  0  0  0  0  0  0  0  0
  141.0620   71.2150  227.9050 C   0  0  0  0  0  0  0  0  0  0  0  0
  140.9450   71.7460  226.6240 C   0  0  0  0  0  0  0  0  0  0  0  0
  140.3540   70.9830  225.6230 C   0  0  0  0  0  0  0  0  0  0  0  0
  140.2460   71.5300  224.3410 C   0  0  0  0  0  0  0  0  0  0  0  0
  138.6490   74.9510  221.9740 C   0  0  0  0  0  0  0  0  0  0  0  0
  139.4100   76.1810  222.3250 C   0  0  0  0  0  0  0  0  0  0  0  0
  142.6375   79.4275  218.6415 H   0  0  0  0  0  0  0  0  0  0  0  0
  143.4973   78.3784  217.4639 H   0  0  0  0  0  0  0  0  0  0  0  0
  141.7022   78.4452  217.4639 H   0  0  0  0  0  0  0  0  0  0  0  0
  142.7048   76.3944  218.5342 H   0  0  0  0  0  0  0  0  0  0  0  0
  143.3596   77.4836  219.8142 H   0  0  0  0  0  0  0  0  0  0  0  0
  141.3626   79.7101  220.0678 H   0  0  0  0  0  0  0  0  0  0  0  0
  141.9194   81.9002  221.1189 H   0  0  0  0  0  0  0  0  0  0  0  0
  142.4303   81.9478  223.5764 H   0  0  0  0  0  0  0  0  0  0  0  0
  142.3693   79.8772  224.9122 H   0  0  0  0  0  0  0  0  0  0  0  0
  141.8044   77.6959  223.8362 H   0  0  0  0  0  0  0  0  0  0  0  0
  141.3957   76.1084  222.9098 H   0  0  0  0  0  0  0  0  0  0  0  0
  140.6638   74.9688  220.1681 H   0  0  0  0  0  0  0  0  0  0  0  0
  142.3008   74.9985  220.8145 H   0  0  0  0  0  0  0  0  0  0  0  0
  141.2952   72.8390  221.5289 H   0  0  0  0  0  0  0  0  0  0  0  0
  141.3190   73.8240  222.9828 H   0  0  0  0  0  0  0  0  0  0  0  0
  138.9616   70.4828  221.3947 H   0  0  0  0  0  0  0  0  0  0  0  0
  140.4949   71.4156  221.5649 H   0  0  0  0  0  0  0  0  0  0  0  0
  138.7335   68.8708  222.8955 H   0  0  0  0  0  0  0  0  0  0  0  0
  139.6449   68.2074  227.3826 H   0  0  0  0  0  0  0  0  0  0  0  0
  140.6855   69.5080  229.2121 H   0  0  0  0  0  0  0  0  0  0  0  0
  141.5297   71.8163  228.6985 H   0  0  0  0  0  0  0  0  0  0  0  0
  141.3160   72.7583  226.4057 H   0  0  0  0  0  0  0  0  0  0  0  0
  140.6139   72.5407  224.1105 H   0  0  0  0  0  0  0  0  0  0  0  0
  138.2257   75.0850  220.9676 H   0  0  0  0  0  0  0  0  0  0  0  0
  137.8815   74.8268  222.7522 H   0  0  0  0  0  0  0  0  0  0  0  0
  138.9367   77.0313  221.8123 H   0  0  0  0  0  0  0  0  0  0  0  0
  139.3791   76.2549  223.4221 H   0  0  0  0  0  0  0  0  0  0  0  0
  1  2  1  0
  2  3  1  0
  3  4  2  0
  3  5  1  0
  5  6  1  0
  6  7  2  0
  7  8  1  0
  8  9  2  0
  9 10  1  0
 10 11  2  0
  5 12  1  0
 12 13  1  0
 13 14  1  0
 14 15  1  0
 15 16  1  0
 16 17  2  0
 16 18  1  0
 18 19  1  0
 19 20  2  0
 20 21  1  0
 21 22  2  0
 22 23  1  0
 23 24  2  0
 24 25  1  0
 25 26  2  0
 26 27  1  0
 27 28  2  0
 15 29  1  0
 29 30  1  0
 11  6  1  0
 30 12  1  0
 28 19  1  0
 27 22  1  0
  1 31  1  0
  1 32  1  0
  1 33  1  0
  2 34  1  0
  2 35  1  0
  7 36  1  0
  8 37  1  0
  9 38  1  0
 10 39  1  0
 11 40  1  0
 12 41  1  0
 13 42  1  0
 13 43  1  0
 14 44  1  0
 14 45  1  0
 18 46  1  0
 18 47  1  0
 20 48  1  0
 23 49  1  0
 24 50  1  0
 25 51  1  0
 26 52  1  0
 28 53  1  0
 29 54  1  0
 29 55  1  0
 30 56  1  0
 30 57  1  0
M  END
>  <smiles>  (46) 
CCC(=O)N(c1ccccc1)C1CCN(C(=O)Cc2cnc3ccccc3c2)CC1

>  <score_type>  (46) 
oracle

>  <origin>  (46) 
autodockgpu

>  <m_score__min__energy>  (46) 
-8.8599999999999994

>  <m_primary>  (46) 
energy

>  <rmsd>  (46) 
8.354092123333894

>  <m_score__min__rmsd>  (46) 
8.354092123333894

>  <meeko>  (46) 
{"free_energy": -8.73, "intermolecular_energy": -10.52, "internal_energy": -1.49, "cluster_size": 43, "cluster_id": 1, "rank_in_cluster": 24}

>  <energy>  (46) 
-8.69

>  <cluster_rmsd>  (46) 
0.16

>  <cluster>  (46) 
2

$$$$

     RDKit          3D

 57 60  0  0  0  0  0  0  0  0999 V2000
  143.3600   76.3780  219.2910 C   0  0  0  0  0  0  0  0  0  0  0  0
  142.3960   77.4700  218.9640 C   0  0  0  0  0  0  0  0  0  0  0  0
  141.1260   77.2840  219.7150 C   0  0  0  0  0  0  0  0  0  0  0  0
  140.0680   77.0830  219.0670 O   0  0  0  0  0  0  0  0  0  0  0  0
  141.1430   77.3380  221.1560 N   0  0  0  0  0  0  0  0  0  0  0  0
  141.5100   78.5670  221.8110 C   0  0  0  0  0  0  0  0  0  0  0  0
  141.7860   78.5310  223.1640 C   0  0  0  0  0  0  0  0  0  0  0  0
  142.1470   79.6710  223.8660 C   0  0  0  0  0  0  0  0  0  0  0  0
  142.2210   80.8720  223.1520 C   0  0  0  0  0  0  0  0  0  0  0  0
  141.9470   80.9150  221.8020 C   0  0  0  0  0  0  0  0  0  0  0  0
  141.5870   79.7580  221.1160 C   0  0  0  0  0  0  0  0  0  0  0  0
  140.7890   76.1500  221.9090 C   0  0  0  0  0  0  0  0  0  0  0  0
  141.1650   74.9560  221.0690 C   0  0  0  0  0  0  0  0  0  0  0  0
  140.8280   73.7470  221.9510 C   0  0  0  0  0  0  0  0  0  0  0  0
  139.3660   73.7260  221.9740 N   0  0  0  0  0  0  0  0  0  0  0  0
  138.6750   72.4760  222.0040 C   0  0  0  0  0  0  0  0  0  0  0  0
  137.4100   72.4040  222.0210 O   0  0  0  0  0  0  0  0  0  0  0  0
  139.4360   71.2190  222.0150 C   0  0  0  0  0  0  0  0  0  0  0  0
  139.6000   70.7290  223.4030 C   0  0  0  0  0  0  0  0  0  0  0  0
  139.1270   69.4780  223.7310 C   0  0  0  0  0  0  0  0  0  0  0  0
  139.2370   68.9540  224.9750 N   0  0  0  0  0  0  0  0  0  0  0  0
  139.8470   69.7200  225.9250 C   0  0  0  0  0  0  0  0  0  0  0  0
  139.9870   69.2390  227.2040 C   0  0  0  0  0  0  0  0  0  0  0  0
  140.5900   69.9490  228.2200 C   0  0  0  0  0  0  0  0  0  0  0  0
  141.0760   71.2200  227.9060 C   0  0  0  0  0  0  0  0  0  0  0  0
  140.9530   71.7420  226.6220 C   0  0  0  0  0  0  0  0  0  0  0  0
  140.3350   70.9820  225.6360 C   0  0  0  0  0  0  0  0  0  0  0  0
  140.2200   71.5200  224.3510 C   0  0  0  0  0  0  0  0  0  0  0  0
  138.5840   74.9340  221.9690 C   0  0  0  0  0  0  0  0  0  0  0  0
  139.3480   76.1690  222.2980 C   0  0  0  0  0  0  0  0  0  0  0  0
  143.4464   76.2801  220.3832 H   0  0  0  0  0  0  0  0  0  0  0  0
  142.9986   75.4302  218.8654 H   0  0  0  0  0  0  0  0  0  0  0  0
  144.3453   76.6190  218.8654 H   0  0  0  0  0  0  0  0  0  0  0  0
  142.8398   78.4388  219.2371 H   0  0  0  0  0  0  0  0  0  0  0  0
  142.1796   77.4432  217.8858 H   0  0  0  0  0  0  0  0  0  0  0  0
  141.7176   77.5722  223.6989 H   0  0  0  0  0  0  0  0  0  0  0  0
  142.3668   79.6326  224.9431 H   0  0  0  0  0  0  0  0  0  0  0  0
  142.5024   81.7969  223.6767 H   0  0  0  0  0  0  0  0  0  0  0  0
  142.0133   81.8711  221.2621 H   0  0  0  0  0  0  0  0  0  0  0  0
  141.3676   79.7920  220.0386 H   0  0  0  0  0  0  0  0  0  0  0  0
  141.3393   76.1036  222.8603 H   0  0  0  0  0  0  0  0  0  0  0  0
  140.5785   74.9345  220.1386 H   0  0  0  0  0  0  0  0  0  0  0  0
  142.2225   74.9725  220.7668 H   0  0  0  0  0  0  0  0  0  0  0  0
  141.2260   72.8198  221.5130 H   0  0  0  0  0  0  0  0  0  0  0  0
  141.2674   73.8197  222.9568 H   0  0  0  0  0  0  0  0  0  0  0  0
  138.8969   70.4633  221.4248 H   0  0  0  0  0  0  0  0  0  0  0  0
  140.4300   71.3989  221.5795 H   0  0  0  0  0  0  0  0  0  0  0  0
  138.6387   68.8783  222.9487 H   0  0  0  0  0  0  0  0  0  0  0  0
  139.5977   68.2351  227.4291 H   0  0  0  0  0  0  0  0  0  0  0  0
  140.6843   69.5327  229.2338 H   0  0  0  0  0  0  0  0  0  0  0  0
  141.5650   71.8195  228.6880 H   0  0  0  0  0  0  0  0  0  0  0  0
  141.3406   72.7450  226.3899 H   0  0  0  0  0  0  0  0  0  0  0  0
  140.6034   72.5217  224.1071 H   0  0  0  0  0  0  0  0  0  0  0  0
  138.1489   75.0568  220.9662 H   0  0  0  0  0  0  0  0  0  0  0  0
  137.8258   74.8175  222.7573 H   0  0  0  0  0  0  0  0  0  0  0  0
  138.8677   77.0134  221.7819 H   0  0  0  0  0  0  0  0  0  0  0  0
  139.3299   76.2549  223.3945 H   0  0  0  0  0  0  0  0  0  0  0  0
  1  2  1  0
  2  3  1  0
  3  4  2  0
  3  5  1  0
  5  6  1  0
  6  7  2  0
  7  8  1  0
  8  9  2  0
  9 10  1  0
 10 11  2  0
  5 12  1  0
 12 13  1  0
 13 14  1  0
 14 15  1  0
 15 16  1  0
 16 17  2  0
 16 18  1  0
 18 19  1  0
 19 20  2  0
 20 21  1  0
 21 22  2  0
 22 23  1  0
 23 24  2  0
 24 25  1  0
 25 26  2  0
 26 27  1  0
 27 28  2  0
 15 29  1  0
 29 30  1  0
 11  6  1  0
 30 12  1  0
 28 19  1  0
 27 22  1  0
  1 31  1  0
  1 32  1  0
  1 33  1  0
  2 34  1  0
  2 35  1  0
  7 36  1  0
  8 37  1  0
  9 38  1  0
 10 39  1  0
 11 40  1  0
 12 41  1  0
 13 42  1  0
 13 43  1  0
 14 44  1  0
 14 45  1  0
 18 46  1  0
 18 47  1  0
 20 48  1  0
 23 49  1  0
 24 50  1  0
 25 51  1  0
 26 52  1  0
 28 53  1  0
 29 54  1  0
 29 55  1  0
 30 56  1  0
 30 57  1  0
M  END
>  <smiles>  (47) 
CCC(=O)N(c1ccccc1)C1CCN(C(=O)Cc2cnc3ccccc3c2)CC1

>  <score_type>  (47) 
oracle

>  <origin>  (47) 
autodockgpu

>  <m_score__min__energy>  (47) 
-8.8599999999999994

>  <m_primary>  (47) 
energy

>  <rmsd>  (47) 
8.353823123938342

>  <m_score__min__rmsd>  (47) 
8.353823123938342

>  <meeko>  (47) 
{"free_energy": -8.77, "intermolecular_energy": -10.56, "internal_energy": -1.48, "cluster_size": 43, "cluster_id": 1, "rank_in_cluster": 10}

>  <energy>  (47) 
-8.58

>  <cluster_rmsd>  (47) 
0.31

>  <cluster>  (47) 
2

$$$$

     RDKit          3D

 57 60  0  0  0  0  0  0  0  0999 V2000
  138.0350   80.6890  223.9780 C   0  0  0  0  0  0  0  0  0  0  0  0
  138.1920   80.6120  222.4950 C   0  0  0  0  0  0  0  0  0  0  0  0
  138.1370   79.1980  222.0400 C   0  0  0  0  0  0  0  0  0  0  0  0
  137.0250   78.7200  221.6980 O   0  0  0  0  0  0  0  0  0  0  0  0
  139.3490   78.4180  222.0030 N   0  0  0  0  0  0  0  0  0  0  0  0
  140.5770   79.0000  222.4800 C   0  0  0  0  0  0  0  0  0  0  0  0
  141.3420   79.7330  221.5940 C   0  0  0  0  0  0  0  0  0  0  0  0
  142.5360   80.3240  221.9770 C   0  0  0  0  0  0  0  0  0  0  0  0
  142.9460   80.1510  223.3030 C   0  0  0  0  0  0  0  0  0  0  0  0
  142.1880   79.4210  224.1920 C   0  0  0  0  0  0  0  0  0  0  0  0
  140.9910   78.8360  223.7870 C   0  0  0  0  0  0  0  0  0  0  0  0
  139.3000   77.0640  221.4840 C   0  0  0  0  0  0  0  0  0  0  0  0
  138.6580   76.2000  222.5390 C   0  0  0  0  0  0  0  0  0  0  0  0
  138.5780   74.8090  221.8970 C   0  0  0  0  0  0  0  0  0  0  0  0
  139.9700   74.3600  221.8610 N   0  0  0  0  0  0  0  0  0  0  0  0
  140.2740   72.9780  222.0590 C   0  0  0  0  0  0  0  0  0  0  0  0
  141.4620   72.5390  222.0400 O   0  0  0  0  0  0  0  0  0  0  0  0
  139.1880   72.0160  222.2950 C   0  0  0  0  0  0  0  0  0  0  0  0
  139.4580   71.2250  223.5180 C   0  0  0  0  0  0  0  0  0  0  0  0
  139.1230   69.8900  223.5380 C   0  0  0  0  0  0  0  0  0  0  0  0
  139.3360   69.0960  224.6150 N   0  0  0  0  0  0  0  0  0  0  0  0
  139.9090   69.6700  225.7120 C   0  0  0  0  0  0  0  0  0  0  0  0
  140.1480   68.9120  226.8330 C   0  0  0  0  0  0  0  0  0  0  0  0
  140.7230   69.4150  227.9800 C   0  0  0  0  0  0  0  0  0  0  0  0
  141.0700   70.7680  227.9780 C   0  0  0  0  0  0  0  0  0  0  0  0
  140.8420   71.5680  226.8630 C   0  0  0  0  0  0  0  0  0  0  0  0
  140.2590   71.0080  225.7320 C   0  0  0  0  0  0  0  0  0  0  0  0
  140.0380   71.8250  224.6190 C   0  0  0  0  0  0  0  0  0  0  0  0
  141.0610   75.2680  221.6280 C   0  0  0  0  0  0  0  0  0  0  0  0
  140.6580   76.5940  221.0810 C   0  0  0  0  0  0  0  0  0  0  0  0
  138.9212   80.2544  224.4636 H   0  0  0  0  0  0  0  0  0  0  0  0
  137.9296   81.7411  224.2814 H   0  0  0  0  0  0  0  0  0  0  0  0
  137.1386   80.1283  224.2814 H   0  0  0  0  0  0  0  0  0  0  0  0
  137.3808   81.1789  222.0149 H   0  0  0  0  0  0  0  0  0  0  0  0
  139.1673   81.0382  222.2172 H   0  0  0  0  0  0  0  0  0  0  0  0
  140.9946   79.8510  220.5570 H   0  0  0  0  0  0  0  0  0  0  0  0
  143.1384   80.9071  221.2649 H   0  0  0  0  0  0  0  0  0  0  0  0
  143.8890   80.6052  223.6414 H   0  0  0  0  0  0  0  0  0  0  0  0
  142.5310   79.2992  225.2300 H   0  0  0  0  0  0  0  0  0  0  0  0
  140.3854   78.2530  224.4964 H   0  0  0  0  0  0  0  0  0  0  0  0
  138.6965   77.0115  220.5658 H   0  0  0  0  0  0  0  0  0  0  0  0
  139.2753   76.1737  223.4491 H   0  0  0  0  0  0  0  0  0  0  0  0
  137.6714   76.5771  222.8462 H   0  0  0  0  0  0  0  0  0  0  0  0
  137.9632   74.1308  222.5070 H   0  0  0  0  0  0  0  0  0  0  0  0
  138.1111   74.8266  220.9012 H   0  0  0  0  0  0  0  0  0  0  0  0
  138.2406   72.5613  222.4174 H   0  0  0  0  0  0  0  0  0  0  0  0
  139.1218   71.3334  221.4350 H   0  0  0  0  0  0  0  0  0  0  0  0
  138.6628   69.4491  222.6414 H   0  0  0  0  0  0  0  0  0  0  0  0
  139.8658   67.8490  226.8138 H   0  0  0  0  0  0  0  0  0  0  0  0
  140.9010   68.7784  228.8592 H   0  0  0  0  0  0  0  0  0  0  0  0
  141.5317   71.2087  228.8739 H   0  0  0  0  0  0  0  0  0  0  0  0
  141.1200   72.6322  226.8761 H   0  0  0  0  0  0  0  0  0  0  0  0
  140.3118   72.8904  224.6200 H   0  0  0  0  0  0  0  0  0  0  0  0
  141.5792   75.4343  222.5840 H   0  0  0  0  0  0  0  0  0  0  0  0
  141.7008   74.7979  220.8666 H   0  0  0  0  0  0  0  0  0  0  0  0
  141.3910   77.3396  221.4227 H   0  0  0  0  0  0  0  0  0  0  0  0
  140.6269   76.4755  219.9878 H   0  0  0  0  0  0  0  0  0  0  0  0
  1  2  1  0
  2  3  1  0
  3  4  2  0
  3  5  1  0
  5  6  1  0
  6  7  2  0
  7  8  1  0
  8  9  2  0
  9 10  1  0
 10 11  2  0
  5 12  1  0
 12 13  1  0
 13 14  1  0
 14 15  1  0
 15 16  1  0
 16 17  2  0
 16 18  1  0
 18 19  1  0
 19 20  2  0
 20 21  1  0
 21 22  2  0
 22 23  1  0
 23 24  2  0
 24 25  1  0
 25 26  2  0
 26 27  1  0
 27 28  2  0
 15 29  1  0
 29 30  1  0
 11  6  1  0
 30 12  1  0
 28 19  1  0
 27 22  1  0
  1 31  1  0
  1 32  1  0
  1 33  1  0
  2 34  1  0
  2 35  1  0
  7 36  1  0
  8 37  1  0
  9 38  1  0
 10 39  1  0
 11 40  1  0
 12 41  1  0
 13 42  1  0
 13 43  1  0
 14 44  1  0
 14 45  1  0
 18 46  1  0
 18 47  1  0
 20 48  1  0
 23 49  1  0
 24 50  1  0
 25 51  1  0
 26 52  1  0
 28 53  1  0
 29 54  1  0
 29 55  1  0
 30 56  1  0
 30 57  1  0
M  END
>  <smiles>  (48) 
CCC(=O)N(c1ccccc1)C1CCN(C(=O)Cc2cnc3ccccc3c2)CC1

>  <score_type>  (48) 
oracle

>  <origin>  (48) 
autodockgpu

>  <m_score__min__energy>  (48) 
-8.8599999999999994

>  <m_primary>  (48) 
energy

>  <rmsd>  (48) 
8.266096137328423

>  <m_score__min__rmsd>  (48) 
8.266096137328423

>  <meeko>  (48) 
{"free_energy": -8.54, "intermolecular_energy": -10.33, "internal_energy": -1.51, "cluster_size": 43, "cluster_id": 1, "rank_in_cluster": 37}

>  <energy>  (48) 
-8.09

>  <cluster_rmsd>  (48) 
1.61

>  <cluster>  (48) 
2

$$$$

     RDKit          3D

 57 60  0  0  0  0  0  0  0  0999 V2000
  143.5510   76.3490  219.6770 C   0  0  0  0  0  0  0  0  0  0  0  0
  142.5620   77.2780  219.0530 C   0  0  0  0  0  0  0  0  0  0  0  0
  141.2520   77.1860  219.7490 C   0  0  0  0  0  0  0  0  0  0  0  0
  140.2120   77.0540  219.0560 O   0  0  0  0  0  0  0  0  0  0  0  0
  141.2090   77.2480  221.1890 N   0  0  0  0  0  0  0  0  0  0  0  0
  141.5500   78.4810  221.8510 C   0  0  0  0  0  0  0  0  0  0  0  0
  141.6270   79.6330  221.0940 C   0  0  0  0  0  0  0  0  0  0  0  0
  141.9490   80.8580  221.6580 C   0  0  0  0  0  0  0  0  0  0  0  0
  142.2000   80.8880  223.0340 C   0  0  0  0  0  0  0  0  0  0  0  0
  142.1250   79.7420  223.7970 C   0  0  0  0  0  0  0  0  0  0  0  0
  141.7990   78.5230  223.2100 C   0  0  0  0  0  0  0  0  0  0  0  0
  140.8250   76.0650  221.9340 C   0  0  0  0  0  0  0  0  0  0  0  0
  141.1820   74.8670  221.0910 C   0  0  0  0  0  0  0  0  0  0  0  0
  140.8130   73.6610  221.9660 C   0  0  0  0  0  0  0  0  0  0  0  0
  139.3500   73.6710  221.9770 N   0  0  0  0  0  0  0  0  0  0  0  0
  138.6330   72.4360  221.9970 C   0  0  0  0  0  0  0  0  0  0  0  0
  137.3660   72.3900  222.0040 O   0  0  0  0  0  0  0  0  0  0  0  0
  139.3670   71.1630  222.0080 C   0  0  0  0  0  0  0  0  0  0  0  0
  139.5550   70.6900  223.3990 C   0  0  0  0  0  0  0  0  0  0  0  0
  139.1190   69.4290  223.7410 C   0  0  0  0  0  0  0  0  0  0  0  0
  139.2530   68.9200  224.9880 N   0  0  0  0  0  0  0  0  0  0  0  0
  139.8490   69.7100  225.9270 C   0  0  0  0  0  0  0  0  0  0  0  0
  140.0120   69.2440  227.2090 C   0  0  0  0  0  0  0  0  0  0  0  0
  140.6040   69.9790  228.2140 C   0  0  0  0  0  0  0  0  0  0  0  0
  141.0530   71.2610  227.8860 C   0  0  0  0  0  0  0  0  0  0  0  0
  140.9060   71.7670  226.5980 C   0  0  0  0  0  0  0  0  0  0  0  0
  140.3010   70.9830  225.6240 C   0  0  0  0  0  0  0  0  0  0  0  0
  140.1610   71.5050  224.3350 C   0  0  0  0  0  0  0  0  0  0  0  0
  138.5940   74.8950  221.9720 C   0  0  0  0  0  0  0  0  0  0  0  0
  139.3820   76.1120  222.3120 C   0  0  0  0  0  0  0  0  0  0  0  0
  143.4780   76.4176  220.7724 H   0  0  0  0  0  0  0  0  0  0  0  0
  143.3368   75.3180  219.3591 H   0  0  0  0  0  0  0  0  0  0  0  0
  144.5666   76.6272  219.3591 H   0  0  0  0  0  0  0  0  0  0  0  0
  142.9385   78.3091  219.1245 H   0  0  0  0  0  0  0  0  0  0  0  0
  142.4255   76.9970  217.9983 H   0  0  0  0  0  0  0  0  0  0  0  0
  141.4274   79.5775  220.0137 H   0  0  0  0  0  0  0  0  0  0  0  0
  142.0050   81.7711  221.0471 H   0  0  0  0  0  0  0  0  0  0  0  0
  142.4616   81.8419  223.5153 H   0  0  0  0  0  0  0  0  0  0  0  0
  142.3243   79.7916  224.8777 H   0  0  0  0  0  0  0  0  0  0  0  0
  141.7404   77.6079  223.8176 H   0  0  0  0  0  0  0  0  0  0  0  0
  141.3671   76.0034  222.8892 H   0  0  0  0  0  0  0  0  0  0  0  0
  140.6019   74.8619  220.1564 H   0  0  0  0  0  0  0  0  0  0  0  0
  142.2417   74.8625  220.7961 H   0  0  0  0  0  0  0  0  0  0  0  0
  141.1950   72.7274  221.5274 H   0  0  0  0  0  0  0  0  0  0  0  0
  141.2460   73.7201  222.9755 H   0  0  0  0  0  0  0  0  0  0  0  0
  138.7973   70.4107  221.4428 H   0  0  0  0  0  0  0  0  0  0  0  0
  140.3533   71.3147  221.5453 H   0  0  0  0  0  0  0  0  0  0  0  0
  138.6416   68.8092  222.9678 H   0  0  0  0  0  0  0  0  0  0  0  0
  139.6515   68.2321  227.4459 H   0  0  0  0  0  0  0  0  0  0  0  0
  140.7180   69.5737  229.2303 H   0  0  0  0  0  0  0  0  0  0  0  0
  141.5308   71.8808  228.6591 H   0  0  0  0  0  0  0  0  0  0  0  0
  141.2653   72.7776  226.3537 H   0  0  0  0  0  0  0  0  0  0  0  0
  140.5157   72.5143  224.0789 H   0  0  0  0  0  0  0  0  0  0  0  0
  138.1687   75.0314  220.9668 H   0  0  0  0  0  0  0  0  0  0  0  0
  137.8277   74.7912  222.7544 H   0  0  0  0  0  0  0  0  0  0  0  0
  138.9235   76.9686  221.7961 H   0  0  0  0  0  0  0  0  0  0  0  0
  139.3579   76.1928  223.4088 H   0  0  0  0  0  0  0  0  0  0  0  0
  1  2  1  0
  2  3  1  0
  3  4  2  0
  3  5  1  0
  5  6  1  0
  6  7  2  0
  7  8  1  0
  8  9  2  0
  9 10  1  0
 10 11  2  0
  5 12  1  0
 12 13  1  0
 13 14  1  0
 14 15  1  0
 15 16  1  0
 16 17  2  0
 16 18  1  0
 18 19  1  0
 19 20  2  0
 20 21  1  0
 21 22  2  0
 22 23  1  0
 23 24  2  0
 24 25  1  0
 25 26  2  0
 26 27  1  0
 27 28  2  0
 15 29  1  0
 29 30  1  0
 11  6  1  0
 30 12  1  0
 28 19  1  0
 27 22  1  0
  1 31  1  0
  1 32  1  0
  1 33  1  0
  2 34  1  0
  2 35  1  0
  7 36  1  0
  8 37  1  0
  9 38  1  0
 10 39  1  0
 11 40  1  0
 12 41  1  0
 13 42  1  0
 13 43  1  0
 14 44  1  0
 14 45  1  0
 18 46  1  0
 18 47  1  0
 20 48  1  0
 23 49  1  0
 24 50  1  0
 25 51  1  0
 26 52  1  0
 28 53  1  0
 29 54  1  0
 29 55  1  0
 30 56  1  0
 30 57  1  0
M  END
>  <smiles>  (49) 
CCC(=O)N(c1ccccc1)C1CCN(C(=O)Cc2cnc3ccccc3c2)CC1

>  <score_type>  (49) 
oracle

>  <origin>  (49) 
autodockgpu

>  <m_score__min__energy>  (49) 
-8.8599999999999994

>  <m_primary>  (49) 
energy

>  <rmsd>  (49) 
8.354110027980427

>  <m_score__min__rmsd>  (49) 
8.354110027980427

>  <meeko>  (49) 
{"free_energy": -8.74, "intermolecular_energy": -10.53, "internal_energy": -1.48, "cluster_size": 43, "cluster_id": 1, "rank_in_cluster": 16}

>  <energy>  (49) 
-8.43

>  <cluster_rmsd>  (49) 
0.0

>  <cluster>  (49) 
3

$$$$

     RDKit          3D

 57 60  0  0  0  0  0  0  0  0999 V2000
  143.7700   74.1950  217.5740 C   0  0  0  0  0  0  0  0  0  0  0  0
  144.4300   72.9140  217.1790 C   0  0  0  0  0  0  0  0  0  0  0  0
  145.2500   72.3860  218.3010 C   0  0  0  0  0  0  0  0  0  0  0  0
  146.2820   73.0180  218.6410 O   0  0  0  0  0  0  0  0  0  0  0  0
  144.8430   71.1720  218.9650 N   0  0  0  0  0  0  0  0  0  0  0  0
  145.3460   69.9080  218.4930 C   0  0  0  0  0  0  0  0  0  0  0  0
  145.7250   69.8060  217.1680 C   0  0  0  0  0  0  0  0  0  0  0  0
  146.2190   68.6230  216.6390 C   0  0  0  0  0  0  0  0  0  0  0  0
  146.3180   67.5240  217.4990 C   0  0  0  0  0  0  0  0  0  0  0  0
  145.9420   67.6180  218.8210 C   0  0  0  0  0  0  0  0  0  0  0  0
  145.4490   68.8160  219.3320 C   0  0  0  0  0  0  0  0  0  0  0  0
  143.9330   71.2560  220.0910 C   0  0  0  0  0  0  0  0  0  0  0  0
  142.5590   70.8940  219.5880 C   0  0  0  0  0  0  0  0  0  0  0  0
  141.6710   70.9380  220.8380 C   0  0  0  0  0  0  0  0  0  0  0  0
  141.5760   72.3640  221.1510 N   0  0  0  0  0  0  0  0  0  0  0  0
  140.3620   72.8930  221.6870 C   0  0  0  0  0  0  0  0  0  0  0  0
  140.2280   74.1210  221.9710 O   0  0  0  0  0  0  0  0  0  0  0  0
  139.2170   72.0030  221.9230 C   0  0  0  0  0  0  0  0  0  0  0  0
  139.3450   71.3380  223.2400 C   0  0  0  0  0  0  0  0  0  0  0  0
  138.6740   70.1560  223.4600 C   0  0  0  0  0  0  0  0  0  0  0  0
  138.7380   69.4830  224.6340 N   0  0  0  0  0  0  0  0  0  0  0  0
  139.5080   70.0210  225.6240 C   0  0  0  0  0  0  0  0  0  0  0  0
  139.6100   69.3810  226.8350 C   0  0  0  0  0  0  0  0  0  0  0  0
  140.3660   69.8580  227.8830 C   0  0  0  0  0  0  0  0  0  0  0  0
  141.0540   71.0570  227.6790 C   0  0  0  0  0  0  0  0  0  0  0  0
  140.9750   71.7340  226.4660 C   0  0  0  0  0  0  0  0  0  0  0  0
  140.1970   71.2070  225.4420 C   0  0  0  0  0  0  0  0  0  0  0  0
  140.1290   71.8990  224.2290 C   0  0  0  0  0  0  0  0  0  0  0  0
  142.6760   73.2680  220.9400 C   0  0  0  0  0  0  0  0  0  0  0  0
  143.9920   72.6040  220.7300 C   0  0  0  0  0  0  0  0  0  0  0  0
  143.7336   74.2656  218.6711 H   0  0  0  0  0  0  0  0  0  0  0  0
  144.3437   75.0426  217.1708 H   0  0  0  0  0  0  0  0  0  0  0  0
  142.7469   74.2199  217.1708 H   0  0  0  0  0  0  0  0  0  0  0  0
  143.6588   72.1754  216.9148 H   0  0  0  0  0  0  0  0  0  0  0  0
  145.0853   73.1016  216.3156 H   0  0  0  0  0  0  0  0  0  0  0  0
  145.6324   70.6867  216.5154 H   0  0  0  0  0  0  0  0  0  0  0  0
  146.5213   68.5516  215.5838 H   0  0  0  0  0  0  0  0  0  0  0  0
  146.7026   66.5685  217.1130 H   0  0  0  0  0  0  0  0  0  0  0  0
  146.0319   66.7402  219.4778 H   0  0  0  0  0  0  0  0  0  0  0  0
  145.1465   68.8912  220.3869 H   0  0  0  0  0  0  0  0  0  0  0  0
  144.2180   70.5512  220.8860 H   0  0  0  0  0  0  0  0  0  0  0  0
  142.2140   71.6227  218.8397 H   0  0  0  0  0  0  0  0  0  0  0  0
  142.5389   69.9114  219.0939 H   0  0  0  0  0  0  0  0  0  0  0  0
  140.6771   70.5164  220.6272 H   0  0  0  0  0  0  0  0  0  0  0  0
  142.0802   70.3469  221.6706 H   0  0  0  0  0  0  0  0  0  0  0  0
  138.2888   72.5930  221.9032 H   0  0  0  0  0  0  0  0  0  0  0  0
  139.1927   71.2352  221.1357 H   0  0  0  0  0  0  0  0  0  0  0  0
  138.0596   69.7403  222.6477 H   0  0  0  0  0  0  0  0  0  0  0  0
  139.0596   68.4390  226.9752 H   0  0  0  0  0  0  0  0  0  0  0  0
  140.4256   69.3182  228.8396 H   0  0  0  0  0  0  0  0  0  0  0  0
  141.6685   71.4727  228.4912 H   0  0  0  0  0  0  0  0  0  0  0  0
  141.5227   72.6766  226.3190 H   0  0  0  0  0  0  0  0  0  0  0  0
  140.6723   72.8423  224.0704 H   0  0  0  0  0  0  0  0  0  0  0  0
  142.4536   73.8777  220.0518 H   0  0  0  0  0  0  0  0  0  0  0  0
  142.7706   73.8641  221.8596 H   0  0  0  0  0  0  0  0  0  0  0  0
  144.6035   73.2568  220.0898 H   0  0  0  0  0  0  0  0  0  0  0  0
  144.4161   72.4464  221.7327 H   0  0  0  0  0  0  0  0  0  0  0  0
  1  2  1  0
  2  3  1  0
  3  4  2  0
  3  5  1  0
  5  6  1  0
  6  7  2  0
  7  8  1  0
  8  9  2  0
  9 10  1  0
 10 11  2  0
  5 12  1  0
 12 13  1  0
 13 14  1  0
 14 15  1  0
 15 16  1  0
 16 17  2  0
 16 18  1  0
 18 19  1  0
 19 20  2  0
 20 21  1  0
 21 22  2  0
 22 23  1  0
 23 24  2  0
 24 25  1  0
 25 26  2  0
 26 27  1  0
 27 28  2  0
 15 29  1  0
 29 30  1  0
 11  6  1  0
 30 12  1  0
 28 19  1  0
 27 22  1  0
  1 31  1  0
  1 32  1  0
  1 33  1  0
  2 34  1  0
  2 35  1  0
  7 36  1  0
  8 37  1  0
  9 38  1  0
 10 39  1  0
 11 40  1  0
 12 41  1  0
 13 42  1  0
 13 43  1  0
 14 44  1  0
 14 45  1  0
 18 46  1  0
 18 47  1  0
 20 48  1  0
 23 49  1  0
 24 50  1  0
 25 51  1  0
 26 52  1  0
 28 53  1  0
 29 54  1  0
 29 55  1  0
 30 56  1  0
 30 57  1  0
M  END
>  <smiles>  (50) 
CCC(=O)N(c1ccccc1)C1CCN(C(=O)Cc2cnc3ccccc3c2)CC1

>  <score_type>  (50) 
oracle

>  <origin>  (50) 
autodockgpu

>  <m_score__min__energy>  (50) 
-8.8599999999999994

>  <m_primary>  (50) 
energy

>  <rmsd>  (50) 
8.746616757791346

>  <m_score__min__rmsd>  (50) 
8.746616757791346

>  <meeko>  (50) 
{"free_energy": -8.09, "intermolecular_energy": -9.88, "internal_energy": -1.58, "cluster_size": 5, "cluster_id": 2, "rank_in_cluster": 5}

>  <energy>  (50) 
-8.14

>  <cluster_rmsd>  (50) 
0.0

>  <cluster>  (50) 
4

$$$$
