
     RDKit          3D

 60 64  0  0  0  0  0  0  0  0999 V2000
  142.6110   76.8590  218.6140 O   0  0  0  0  0  0  0  0  0  0  0  0
  142.0710   76.4560  219.6820 C   0  0  0  0  0  0  0  0  0  0  0  0
  141.6810   77.4500  220.5680 C   0  0  0  0  0  0  0  0  0  0  0  0
  141.8830   78.7790  220.2730 C   0  0  0  0  0  0  0  0  0  0  0  0
  141.4820   79.7530  221.1790 C   0  0  0  0  0  0  0  0  0  0  0  0
  140.8810   79.3570  222.3760 C   0  0  0  0  0  0  0  0  0  0  0  0
  140.3700   80.5850  223.5280 Cl  0  0  0  0  0  0  0  0  0  0  0  0
  140.6970   78.0040  222.6310 C   0  0  0  0  0  0  0  0  0  0  0  0
  141.0890   77.0310  221.7400 C   0  0  0  0  0  0  0  0  0  0  0  0
  140.8960   75.7310  222.0200 N   0  0  0  0  0  0  0  0  0  0  0  0
  141.2950   74.8120  221.1230 C   0  0  0  0  0  0  0  0  0  0  0  0
  141.0500   73.4080  221.4950 C   0  0  0  0  0  0  0  0  0  0  0  0
  139.8730   73.0600  221.9620 C   0  0  0  0  0  0  0  0  0  0  0  0
  139.7380   71.8310  222.7490 C   0  0  0  0  0  0  0  0  0  0  0  0
  139.0930   70.7080  222.2740 C   0  0  0  0  0  0  0  0  0  0  0  0
  138.9980   69.5740  223.0660 C   0  0  0  0  0  0  0  0  0  0  0  0
  139.5400   69.5270  224.3480 C   0  0  0  0  0  0  0  0  0  0  0  0
  140.1740   70.6750  224.7770 C   0  0  0  0  0  0  0  0  0  0  0  0
  140.7530   70.7090  226.0740 N   0  0  0  0  0  0  0  0  0  0  0  0
  141.0400   69.5980  226.9500 C   0  0  0  0  0  0  0  0  0  0  0  0
  140.5320   70.1260  228.2970 C   0  0  0  0  0  0  0  0  0  0  0  0
  140.6900   71.6070  228.1940 C   0  0  0  0  0  0  0  0  0  0  0  0
  141.1840   71.8950  226.7960 C   0  0  0  0  0  0  0  0  0  0  0  0
  140.2520   71.7610  223.9890 N   0  0  0  0  0  0  0  0  0  0  0  0
  141.8840   75.1400  219.9470 N   0  0  0  0  0  0  0  0  0  0  0  0
  142.3000   74.1260  219.0330 C   0  0  0  0  0  0  0  0  0  0  0  0
  143.5770   73.4300  219.3590 C   0  0  0  0  0  0  0  0  0  0  0  0
  143.3500   72.0190  219.9270 C   0  0  0  0  0  0  0  0  0  0  0  0
  144.6850   71.3540  219.9700 C   0  0  0  0  0  0  0  0  0  0  0  0
  145.7980   72.2640  220.0650 N   0  0  0  0  0  0  0  0  0  0  0  0
  145.5060   73.3720  220.9460 C   0  0  0  0  0  0  0  0  0  0  0  0
  144.3140   74.1700  220.4680 C   0  0  0  0  0  0  0  0  0  0  0  0
  142.3595   79.0686  219.3248 H   0  0  0  0  0  0  0  0  0  0  0  0
  141.6354   80.8194  220.9571 H   0  0  0  0  0  0  0  0  0  0  0  0
  140.2226   77.7003  223.5758 H   0  0  0  0  0  0  0  0  0  0  0  0
  141.8462   72.6574  221.3826 H   0  0  0  0  0  0  0  0  0  0  0  0
  138.9922   73.6882  221.7634 H   0  0  0  0  0  0  0  0  0  0  0  0
  138.6535   70.7122  221.2656 H   0  0  0  0  0  0  0  0  0  0  0  0
  138.4805   68.6873  222.6710 H   0  0  0  0  0  0  0  0  0  0  0  0
  139.4671   68.6296  224.9799 H   0  0  0  0  0  0  0  0  0  0  0  0
  140.4949   68.6934  226.6424 H   0  0  0  0  0  0  0  0  0  0  0  0
  142.0980   69.2972  226.9583 H   0  0  0  0  0  0  0  0  0  0  0  0
  139.4765   69.8560  228.4487 H   0  0  0  0  0  0  0  0  0  0  0  0
  141.0824   69.7022  229.1499 H   0  0  0  0  0  0  0  0  0  0  0  0
  139.7236   72.1040  228.3644 H   0  0  0  0  0  0  0  0  0  0  0  0
  141.3968   71.9828  228.9485 H   0  0  0  0  0  0  0  0  0  0  0  0
  140.7184   72.8036  226.3866 H   0  0  0  0  0  0  0  0  0  0  0  0
  142.2665   72.0816  226.7373 H   0  0  0  0  0  0  0  0  0  0  0  0
  141.5054   73.3666  218.9898 H   0  0  0  0  0  0  0  0  0  0  0  0
  142.4825   74.6451  218.0805 H   0  0  0  0  0  0  0  0  0  0  0  0
  144.1374   73.3921  218.4132 H   0  0  0  0  0  0  0  0  0  0  0  0
  142.9250   72.0819  220.9396 H   0  0  0  0  0  0  0  0  0  0  0  0
  142.6447   71.4502  219.3033 H   0  0  0  0  0  0  0  0  0  0  0  0
  144.7097   70.6871  220.8445 H   0  0  0  0  0  0  0  0  0  0  0  0
  144.7992   70.8150  219.0179 H   0  0  0  0  0  0  0  0  0  0  0  0
  146.6590   71.8150  220.4370 H   0  0  0  0  0  0  0  0  0  0  0  0
  145.2925   72.9807  221.9516 H   0  0  0  0  0  0  0  0  0  0  0  0
  146.3809   74.0386  220.9589 H   0  0  0  0  0  0  0  0  0  0  0  0
  143.6270   74.3323  221.3116 H   0  0  0  0  0  0  0  0  0  0  0  0
  144.6699   75.1330  220.0732 H   0  0  0  0  0  0  0  0  0  0  0  0
  1  2  2  0
  2  3  1  0
  3  4  2  0
  4  5  1  0
  5  6  2  0
  6  7  1  0
  6  8  1  0
  8  9  2  0
  9 10  1  0
 10 11  2  0
 11 12  1  0
 12 13  2  0
 13 14  1  0
 14 15  2  0
 15 16  1  0
 16 17  2  0
 17 18  1  0
 18 19  1  0
 19 20  1  0
 20 21  1  0
 21 22  1  0
 22 23  1  0
 18 24  2  0
 11 25  1  0
 25 26  1  0
 26 27  1  0
 27 28  1  0
 28 29  1  0
 29 30  1  0
 30 31  1  0
 31 32  1  0
 25  2  1  0
 32 27  1  0
  9  3  1  0
 24 14  1  0
 23 19  1  0
  4 33  1  0
  5 34  1  0
  8 35  1  0
 12 36  1  0
 13 37  1  0
 15 38  1  0
 16 39  1  0
 17 40  1  0
 20 41  1  0
 20 42  1  0
 21 43  1  0
 21 44  1  0
 22 45  1  0
 22 46  1  0
 23 47  1  0
 23 48  1  0
 26 49  1  0
 26 50  1  0
 27 51  1  0
 28 52  1  0
 28 53  1  0
 29 54  1  0
 29 55  1  0
 30 56  1  0
 31 57  1  0
 31 58  1  0
 32 59  1  0
 32 60  1  0
M  END
>  <smiles>  (1) 
O=c1c2ccc(Cl)cc2nc(/C=C/c2cccc(N3CCCC3)n2)n1CC1CCNCC1

>  <score_type>  (1) 
oracle

>  <origin>  (1) 
autodockgpu

>  <m_score__min__energy>  (1) 
-9.3200000000000003

>  <m_primary>  (1) 
energy

>  <rmsd>  (1) 
4.911111731376809

>  <m_score__min__rmsd>  (1) 
4.911111731376809

>  <meeko>  (1) 
{"free_energy": -9.21, "intermolecular_energy": -11.0, "internal_energy": -1.39, "cluster_size": 23, "cluster_id": 1, "rank_in_cluster": 7}

>  <energy>  (1) 
-9.32

>  <cluster_rmsd>  (1) 
0.0

>  <cluster>  (1) 
1

$$$$

     RDKit          3D

 60 64  0  0  0  0  0  0  0  0999 V2000
  142.4020   76.9530  218.5460 O   0  0  0  0  0  0  0  0  0  0  0  0
  141.9340   76.5750  219.6570 C   0  0  0  0  0  0  0  0  0  0  0  0
  141.6200   77.5900  220.5490 C   0  0  0  0  0  0  0  0  0  0  0  0
  141.8150   78.9110  220.2160 C   0  0  0  0  0  0  0  0  0  0  0  0
  141.4920   79.9060  221.1300 C   0  0  0  0  0  0  0  0  0  0  0  0
  140.9710   79.5390  222.3730 C   0  0  0  0  0  0  0  0  0  0  0  0
  140.5580   80.7940  223.5350 Cl  0  0  0  0  0  0  0  0  0  0  0  0
  140.7900   78.1930  222.6660 C   0  0  0  0  0  0  0  0  0  0  0  0
  141.1070   77.1990  221.7680 C   0  0  0  0  0  0  0  0  0  0  0  0
  140.9190   75.9080  222.0850 N   0  0  0  0  0  0  0  0  0  0  0  0
  141.2430   74.9680  221.1790 C   0  0  0  0  0  0  0  0  0  0  0  0
  141.0080   73.5730  221.5930 C   0  0  0  0  0  0  0  0  0  0  0  0
  139.8380   73.2350  222.0850 C   0  0  0  0  0  0  0  0  0  0  0  0
  139.6930   71.9650  222.8020 C   0  0  0  0  0  0  0  0  0  0  0  0
  139.0970   70.8560  222.2400 C   0  0  0  0  0  0  0  0  0  0  0  0
  138.9880   69.6800  222.9690 C   0  0  0  0  0  0  0  0  0  0  0  0
  139.4670   69.5800  224.2720 C   0  0  0  0  0  0  0  0  0  0  0  0
  140.0540   70.7160  224.7890 C   0  0  0  0  0  0  0  0  0  0  0  0
  140.5670   70.6950  226.1140 N   0  0  0  0  0  0  0  0  0  0  0  0
  140.6950   69.5650  227.0020 C   0  0  0  0  0  0  0  0  0  0  0  0
  140.1770   70.1460  228.3220 C   0  0  0  0  0  0  0  0  0  0  0  0
  140.4900   71.6020  228.2290 C   0  0  0  0  0  0  0  0  0  0  0  0
  141.0800   71.8340  226.8580 C   0  0  0  0  0  0  0  0  0  0  0  0
  140.1470   71.8420  224.0610 N   0  0  0  0  0  0  0  0  0  0  0  0
  141.7510   75.2670  219.9590 N   0  0  0  0  0  0  0  0  0  0  0  0
  142.0890   74.2320  219.0370 C   0  0  0  0  0  0  0  0  0  0  0  0
  143.4150   73.5810  219.2350 C   0  0  0  0  0  0  0  0  0  0  0  0
  144.3380   74.3930  220.1590 C   0  0  0  0  0  0  0  0  0  0  0  0
  145.5100   73.5230  220.4680 C   0  0  0  0  0  0  0  0  0  0  0  0
  145.7840   72.5210  219.4690 N   0  0  0  0  0  0  0  0  0  0  0  0
  145.5900   73.0350  218.1320 C   0  0  0  0  0  0  0  0  0  0  0  0
  144.1710   73.5090  217.9140 C   0  0  0  0  0  0  0  0  0  0  0  0
  142.2247   79.1778  219.2306 H   0  0  0  0  0  0  0  0  0  0  0  0
  141.6441   80.9661  220.8789 H   0  0  0  0  0  0  0  0  0  0  0  0
  140.3800   77.9125  223.6475 H   0  0  0  0  0  0  0  0  0  0  0  0
  141.8051   72.8219  221.4909 H   0  0  0  0  0  0  0  0  0  0  0  0
  138.9718   73.9014  221.9596 H   0  0  0  0  0  0  0  0  0  0  0  0
  138.7073   70.9033  221.2124 H   0  0  0  0  0  0  0  0  0  0  0  0
  138.5107   68.8043  222.5050 H   0  0  0  0  0  0  0  0  0  0  0  0
  139.3825   68.6507  224.8545 H   0  0  0  0  0  0  0  0  0  0  0  0
  140.0768   68.7193  226.6663 H   0  0  0  0  0  0  0  0  0  0  0  0
  141.7155   69.1589  227.0632 H   0  0  0  0  0  0  0  0  0  0  0  0
  139.0932   69.9855  228.4203 H   0  0  0  0  0  0  0  0  0  0  0  0
  140.6378   69.6713  229.2009 H   0  0  0  0  0  0  0  0  0  0  0  0
  139.5720   72.1954  228.3517 H   0  0  0  0  0  0  0  0  0  0  0  0
  141.1932   71.9061  229.0183 H   0  0  0  0  0  0  0  0  0  0  0  0
  140.7300   72.7837  226.4273 H   0  0  0  0  0  0  0  0  0  0  0  0
  142.1774   71.9101  226.8535 H   0  0  0  0  0  0  0  0  0  0  0  0
  141.3176   73.4514  219.1113 H   0  0  0  0  0  0  0  0  0  0  0  0
  142.1454   74.7212  218.0534 H   0  0  0  0  0  0  0  0  0  0  0  0
  143.1925   72.5931  219.6646 H   0  0  0  0  0  0  0  0  0  0  0  0
  144.6705   75.3104  219.6513 H   0  0  0  0  0  0  0  0  0  0  0  0
  143.8135   74.6910  221.0788 H   0  0  0  0  0  0  0  0  0  0  0  0
  146.3986   74.1639  220.5660 H   0  0  0  0  0  0  0  0  0  0  0  0
  145.2670   72.9847  221.3960 H   0  0  0  0  0  0  0  0  0  0  0  0
  146.7620   72.1680  219.5060 H   0  0  0  0  0  0  0  0  0  0  0  0
  146.2762   73.8797  217.9721 H   0  0  0  0  0  0  0  0  0  0  0  0
  145.7923   72.2214  217.4198 H   0  0  0  0  0  0  0  0  0  0  0  0
  144.1913   74.5086  217.4553 H   0  0  0  0  0  0  0  0  0  0  0  0
  143.6584   72.7944  217.2532 H   0  0  0  0  0  0  0  0  0  0  0  0
  1  2  2  0
  2  3  1  0
  3  4  2  0
  4  5  1  0
  5  6  2  0
  6  7  1  0
  6  8  1  0
  8  9  2  0
  9 10  1  0
 10 11  2  0
 11 12  1  0
 12 13  2  0
 13 14  1  0
 14 15  2  0
 15 16  1  0
 16 17  2  0
 17 18  1  0
 18 19  1  0
 19 20  1  0
 20 21  1  0
 21 22  1  0
 22 23  1  0
 18 24  2  0
 11 25  1  0
 25 26  1  0
 26 27  1  0
 27 28  1  0
 28 29  1  0
 29 30  1  0
 30 31  1  0
 31 32  1  0
 25  2  1  0
 32 27  1  0
  9  3  1  0
 24 14  1  0
 23 19  1  0
  4 33  1  0
  5 34  1  0
  8 35  1  0
 12 36  1  0
 13 37  1  0
 15 38  1  0
 16 39  1  0
 17 40  1  0
 20 41  1  0
 20 42  1  0
 21 43  1  0
 21 44  1  0
 22 45  1  0
 22 46  1  0
 23 47  1  0
 23 48  1  0
 26 49  1  0
 26 50  1  0
 27 51  1  0
 28 52  1  0
 28 53  1  0
 29 54  1  0
 29 55  1  0
 30 56  1  0
 31 57  1  0
 31 58  1  0
 32 59  1  0
 32 60  1  0
M  END
>  <smiles>  (2) 
O=c1c2ccc(Cl)cc2nc(/C=C/c2cccc(N3CCCC3)n2)n1CC1CCNCC1

>  <score_type>  (2) 
oracle

>  <origin>  (2) 
autodockgpu

>  <m_score__min__energy>  (2) 
-9.3200000000000003

>  <m_primary>  (2) 
energy

>  <rmsd>  (2) 
4.501981130933045

>  <m_score__min__rmsd>  (2) 
4.501981130933045

>  <meeko>  (2) 
{"free_energy": -8.81, "intermolecular_energy": -10.6, "internal_energy": -1.36, "cluster_size": 23, "cluster_id": 1, "rank_in_cluster": 17}

>  <energy>  (2) 
-9.32

>  <cluster_rmsd>  (2) 
0.34

>  <cluster>  (2) 
1

$$$$

     RDKit          3D

 60 64  0  0  0  0  0  0  0  0999 V2000
  145.9730   72.9940  219.2090 O   0  0  0  0  0  0  0  0  0  0  0  0
  144.9680   72.3640  219.6440 C   0  0  0  0  0  0  0  0  0  0  0  0
  144.9880   70.9920  219.4410 C   0  0  0  0  0  0  0  0  0  0  0  0
  146.0490   70.3870  218.8060 C   0  0  0  0  0  0  0  0  0  0  0  0
  146.0430   69.0100  218.6170 C   0  0  0  0  0  0  0  0  0  0  0  0
  144.9520   68.2690  219.0790 C   0  0  0  0  0  0  0  0  0  0  0  0
  144.9380   66.5250  218.8440 Cl  0  0  0  0  0  0  0  0  0  0  0  0
  143.9050   68.9230  219.7150 C   0  0  0  0  0  0  0  0  0  0  0  0
  143.9010   70.2850  219.9080 C   0  0  0  0  0  0  0  0  0  0  0  0
  142.8700   70.8840  220.5270 N   0  0  0  0  0  0  0  0  0  0  0  0
  142.9050   72.2180  220.6950 C   0  0  0  0  0  0  0  0  0  0  0  0
  141.7430   72.8060  221.3830 C   0  0  0  0  0  0  0  0  0  0  0  0
  140.8730   73.5090  220.6950 C   0  0  0  0  0  0  0  0  0  0  0  0
  140.2280   74.6710  221.3120 C   0  0  0  0  0  0  0  0  0  0  0  0
  138.8750   74.7190  221.5770 C   0  0  0  0  0  0  0  0  0  0  0  0
  138.3210   75.8480  222.1630 C   0  0  0  0  0  0  0  0  0  0  0  0
  139.0970   76.9550  222.4990 C   0  0  0  0  0  0  0  0  0  0  0  0
  140.4440   76.8570  222.2140 C   0  0  0  0  0  0  0  0  0  0  0  0
  141.3040   77.9440  222.5260 N   0  0  0  0  0  0  0  0  0  0  0  0
  141.8310   78.3200  223.8160 C   0  0  0  0  0  0  0  0  0  0  0  0
  141.6260   79.8390  223.8040 C   0  0  0  0  0  0  0  0  0  0  0  0
  141.6930   80.2080  222.3600 C   0  0  0  0  0  0  0  0  0  0  0  0
  141.8390   78.9170  221.5880 C   0  0  0  0  0  0  0  0  0  0  0  0
  140.9540   75.7510  221.6460 N   0  0  0  0  0  0  0  0  0  0  0  0
  143.9370   72.9850  220.2660 N   0  0  0  0  0  0  0  0  0  0  0  0
  143.9220   74.4000  220.4580 C   0  0  0  0  0  0  0  0  0  0  0  0
  143.1550   75.1920  219.4560 C   0  0  0  0  0  0  0  0  0  0  0  0
  143.6750   74.9890  218.0230 C   0  0  0  0  0  0  0  0  0  0  0  0
  142.6800   75.6270  217.1110 C   0  0  0  0  0  0  0  0  0  0  0  0
  141.9130   76.6850  217.7180 N   0  0  0  0  0  0  0  0  0  0  0  0
  142.7260   77.4980  218.5940 C   0  0  0  0  0  0  0  0  0  0  0  0
  143.3310   76.6830  219.7140 C   0  0  0  0  0  0  0  0  0  0  0  0
  146.8972   70.9902  218.4500 H   0  0  0  0  0  0  0  0  0  0  0  0
  146.8835   68.5116  218.1119 H   0  0  0  0  0  0  0  0  0  0  0  0
  143.0504   68.3323  220.0765 H   0  0  0  0  0  0  0  0  0  0  0  0
  141.6051   72.6575  222.4642 H   0  0  0  0  0  0  0  0  0  0  0  0
  140.6295   73.2268  219.6601 H   0  0  0  0  0  0  0  0  0  0  0  0
  138.2347   73.8613  221.3234 H   0  0  0  0  0  0  0  0  0  0  0  0
  137.2404   75.8695  222.3677 H   0  0  0  0  0  0  0  0  0  0  0  0
  138.6627   77.8527  222.9632 H   0  0  0  0  0  0  0  0  0  0  0  0
  141.2677   77.8457  224.6331 H   0  0  0  0  0  0  0  0  0  0  0  0
  142.8740   78.0112  223.9798 H   0  0  0  0  0  0  0  0  0  0  0  0
  140.6464   80.1035  224.2288 H   0  0  0  0  0  0  0  0  0  0  0  0
  142.3763   80.3694  224.4088 H   0  0  0  0  0  0  0  0  0  0  0  0
  140.7717   80.7279  222.0585 H   0  0  0  0  0  0  0  0  0  0  0  0
  142.5379   80.8843  222.1633 H   0  0  0  0  0  0  0  0  0  0  0  0
  141.2534   78.9392  220.6571 H   0  0  0  0  0  0  0  0  0  0  0  0
  142.8698   78.7051  221.2676 H   0  0  0  0  0  0  0  0  0  0  0  0
  143.4864   74.5997  221.4481 H   0  0  0  0  0  0  0  0  0  0  0  0
  144.9680   74.7227  220.3498 H   0  0  0  0  0  0  0  0  0  0  0  0
  142.1130   74.8529  219.5527 H   0  0  0  0  0  0  0  0  0  0  0  0
  144.6585   75.4675  217.9053 H   0  0  0  0  0  0  0  0  0  0  0  0
  143.7939   73.9199  217.7930 H   0  0  0  0  0  0  0  0  0  0  0  0
  143.2208   76.0444  216.2489 H   0  0  0  0  0  0  0  0  0  0  0  0
  141.9640   74.8417  216.8268 H   0  0  0  0  0  0  0  0  0  0  0  0
  141.4950   77.3340  217.0220 H   0  0  0  0  0  0  0  0  0  0  0  0
  143.5369   77.9533  218.0065 H   0  0  0  0  0  0  0  0  0  0  0  0
  142.0814   78.2690  219.0414 H   0  0  0  0  0  0  0  0  0  0  0  0
  144.4044   76.9119  219.7870 H   0  0  0  0  0  0  0  0  0  0  0  0
  142.8191   76.9406  220.6530 H   0  0  0  0  0  0  0  0  0  0  0  0
  1  2  2  0
  2  3  1  0
  3  4  2  0
  4  5  1  0
  5  6  2  0
  6  7  1  0
  6  8  1  0
  8  9  2  0
  9 10  1  0
 10 11  2  0
 11 12  1  0
 12 13  2  0
 13 14  1  0
 14 15  2  0
 15 16  1  0
 16 17  2  0
 17 18  1  0
 18 19  1  0
 19 20  1  0
 20 21  1  0
 21 22  1  0
 22 23  1  0
 18 24  2  0
 11 25  1  0
 25 26  1  0
 26 27  1  0
 27 28  1  0
 28 29  1  0
 29 30  1  0
 30 31  1  0
 31 32  1  0
 25  2  1  0
 32 27  1  0
  9  3  1  0
 24 14  1  0
 23 19  1  0
  4 33  1  0
  5 34  1  0
  8 35  1  0
 12 36  1  0
 13 37  1  0
 15 38  1  0
 16 39  1  0
 17 40  1  0
 20 41  1  0
 20 42  1  0
 21 43  1  0
 21 44  1  0
 22 45  1  0
 22 46  1  0
 23 47  1  0
 23 48  1  0
 26 49  1  0
 26 50  1  0
 27 51  1  0
 28 52  1  0
 28 53  1  0
 29 54  1  0
 29 55  1  0
 30 56  1  0
 31 57  1  0
 31 58  1  0
 32 59  1  0
 32 60  1  0
M  END
>  <smiles>  (3) 
O=c1c2ccc(Cl)cc2nc(/C=C/c2cccc(N3CCCC3)n2)n1CC1CCNCC1

>  <score_type>  (3) 
oracle

>  <origin>  (3) 
autodockgpu

>  <m_score__min__energy>  (3) 
-9.3200000000000003

>  <m_primary>  (3) 
energy

>  <rmsd>  (3) 
10.030094722297541

>  <m_score__min__rmsd>  (3) 
10.030094722297541

>  <meeko>  (3) 
{"free_energy": -7.61, "intermolecular_energy": -9.4, "internal_energy": -2.02, "cluster_size": 8, "cluster_id": 6, "rank_in_cluster": 3}

>  <energy>  (3) 
-9.24

>  <cluster_rmsd>  (3) 
0.61

>  <cluster>  (3) 
1

$$$$

     RDKit          3D

 60 64  0  0  0  0  0  0  0  0999 V2000
  143.1930   77.1180  219.0400 O   0  0  0  0  0  0  0  0  0  0  0  0
  142.4080   76.4970  219.8100 C   0  0  0  0  0  0  0  0  0  0  0  0
  141.7490   77.2780  220.7480 C   0  0  0  0  0  0  0  0  0  0  0  0
  141.9580   78.6370  220.8090 C   0  0  0  0  0  0  0  0  0  0  0  0
  141.2840   79.3950  221.7600 C   0  0  0  0  0  0  0  0  0  0  0  0
  140.4050   78.7540  222.6360 C   0  0  0  0  0  0  0  0  0  0  0  0
  139.5470   79.7060  223.8410 Cl  0  0  0  0  0  0  0  0  0  0  0  0
  140.2250   77.3800  222.5370 C   0  0  0  0  0  0  0  0  0  0  0  0
  140.8870   76.6200  221.5990 C   0  0  0  0  0  0  0  0  0  0  0  0
  140.6890   75.2930  221.5320 N   0  0  0  0  0  0  0  0  0  0  0  0
  141.3560   74.5880  220.6030 C   0  0  0  0  0  0  0  0  0  0  0  0
  141.0880   73.1390  220.5850 C   0  0  0  0  0  0  0  0  0  0  0  0
  141.3320   72.4250  221.6600 C   0  0  0  0  0  0  0  0  0  0  0  0
  140.2190   71.9640  222.4940 C   0  0  0  0  0  0  0  0  0  0  0  0
  138.9020   72.2570  222.2060 C   0  0  0  0  0  0  0  0  0  0  0  0
  137.8900   71.7920  223.0330 C   0  0  0  0  0  0  0  0  0  0  0  0
  138.1610   71.0280  224.1650 C   0  0  0  0  0  0  0  0  0  0  0  0
  139.4930   70.7630  224.4090 C   0  0  0  0  0  0  0  0  0  0  0  0
  139.8540   69.9890  225.5450 N   0  0  0  0  0  0  0  0  0  0  0  0
  141.0560   70.0800  226.3390 C   0  0  0  0  0  0  0  0  0  0  0  0
  141.4280   68.6030  226.5100 C   0  0  0  0  0  0  0  0  0  0  0  0
  140.1210   67.8860  226.4430 C   0  0  0  0  0  0  0  0  0  0  0  0
  139.0670   68.9280  226.1510 C   0  0  0  0  0  0  0  0  0  0  0  0
  140.4540   71.2250  223.5900 N   0  0  0  0  0  0  0  0  0  0  0  0
  142.2200   75.1580  219.7270 N   0  0  0  0  0  0  0  0  0  0  0  0
  142.9140   74.3630  218.7660 C   0  0  0  0  0  0  0  0  0  0  0  0
  144.1210   73.6410  219.2560 C   0  0  0  0  0  0  0  0  0  0  0  0
  143.8700   72.1360  219.4490 C   0  0  0  0  0  0  0  0  0  0  0  0
  145.2010   71.5060  219.6930 C   0  0  0  0  0  0  0  0  0  0  0  0
  146.1860   72.3990  220.2490 N   0  0  0  0  0  0  0  0  0  0  0  0
  145.6070   73.2850  221.2340 C   0  0  0  0  0  0  0  0  0  0  0  0
  144.5100   74.1410  220.6420 C   0  0  0  0  0  0  0  0  0  0  0  0
  142.6548   79.1211  220.1089 H   0  0  0  0  0  0  0  0  0  0  0  0
  141.4405   80.4821  221.8215 H   0  0  0  0  0  0  0  0  0  0  0  0
  139.5309   76.8830  223.2307 H   0  0  0  0  0  0  0  0  0  0  0  0
  140.6873   72.6598  219.6796 H   0  0  0  0  0  0  0  0  0  0  0  0
  142.3676   72.1741  221.9331 H   0  0  0  0  0  0  0  0  0  0  0  0
  138.6542   72.8598  221.3199 H   0  0  0  0  0  0  0  0  0  0  0  0
  136.8452   72.0334  222.7878 H   0  0  0  0  0  0  0  0  0  0  0  0
  137.3621   70.6582  224.8245 H   0  0  0  0  0  0  0  0  0  0  0  0
  141.8454   70.6336  225.8095 H   0  0  0  0  0  0  0  0  0  0  0  0
  140.9243   70.6201  227.2882 H   0  0  0  0  0  0  0  0  0  0  0  0
  142.0960   68.2728  225.7009 H   0  0  0  0  0  0  0  0  0  0  0  0
  141.9665   68.4103  227.4496 H   0  0  0  0  0  0  0  0  0  0  0  0
  140.1423   67.1336  225.6408 H   0  0  0  0  0  0  0  0  0  0  0  0
  139.9085   67.3629  227.3870 H   0  0  0  0  0  0  0  0  0  0  0  0
  138.3079   68.5446  225.4534 H   0  0  0  0  0  0  0  0  0  0  0  0
  138.4994   69.2467  227.0377 H   0  0  0  0  0  0  0  0  0  0  0  0
  142.2086   73.6128  218.3792 H   0  0  0  0  0  0  0  0  0  0  0  0
  143.2826   75.0717  218.0098 H   0  0  0  0  0  0  0  0  0  0  0  0
  144.8951   73.8196  218.4952 H   0  0  0  0  0  0  0  0  0  0  0  0
  143.2082   71.9698  220.3118 H   0  0  0  0  0  0  0  0  0  0  0  0
  143.3825   71.7000  218.5646 H   0  0  0  0  0  0  0  0  0  0  0  0
  145.0626   70.6676  220.3915 H   0  0  0  0  0  0  0  0  0  0  0  0
  145.5831   71.1863  218.7123 H   0  0  0  0  0  0  0  0  0  0  0  0
  146.9620   71.9000  220.7280 H   0  0  0  0  0  0  0  0  0  0  0  0
  145.1860   72.6819  222.0520 H   0  0  0  0  0  0  0  0  0  0  0  0
  146.4002   73.9519  221.6029 H   0  0  0  0  0  0  0  0  0  0  0  0
  143.6288   74.1032  221.2993 H   0  0  0  0  0  0  0  0  0  0  0  0
  144.8780   75.1738  220.5535 H   0  0  0  0  0  0  0  0  0  0  0  0
  1  2  2  0
  2  3  1  0
  3  4  2  0
  4  5  1  0
  5  6  2  0
  6  7  1  0
  6  8  1  0
  8  9  2  0
  9 10  1  0
 10 11  2  0
 11 12  1  0
 12 13  2  0
 13 14  1  0
 14 15  2  0
 15 16  1  0
 16 17  2  0
 17 18  1  0
 18 19  1  0
 19 20  1  0
 20 21  1  0
 21 22  1  0
 22 23  1  0
 18 24  2  0
 11 25  1  0
 25 26  1  0
 26 27  1  0
 27 28  1  0
 28 29  1  0
 29 30  1  0
 30 31  1  0
 31 32  1  0
 25  2  1  0
 32 27  1  0
  9  3  1  0
 24 14  1  0
 23 19  1  0
  4 33  1  0
  5 34  1  0
  8 35  1  0
 12 36  1  0
 13 37  1  0
 15 38  1  0
 16 39  1  0
 17 40  1  0
 20 41  1  0
 20 42  1  0
 21 43  1  0
 21 44  1  0
 22 45  1  0
 22 46  1  0
 23 47  1  0
 23 48  1  0
 26 49  1  0
 26 50  1  0
 27 51  1  0
 28 52  1  0
 28 53  1  0
 29 54  1  0
 29 55  1  0
 30 56  1  0
 31 57  1  0
 31 58  1  0
 32 59  1  0
 32 60  1  0
M  END
>  <smiles>  (4) 
O=c1c2ccc(Cl)cc2nc(/C=C/c2cccc(N3CCCC3)n2)n1CC1CCNCC1

>  <score_type>  (4) 
oracle

>  <origin>  (4) 
autodockgpu

>  <m_score__min__energy>  (4) 
-9.3200000000000003

>  <m_primary>  (4) 
energy

>  <rmsd>  (4) 
5.0848042315748305

>  <m_score__min__rmsd>  (4) 
5.0848042315748305

>  <meeko>  (4) 
{"free_energy": -8.54, "intermolecular_energy": -10.33, "internal_energy": -1.55, "cluster_size": 23, "cluster_id": 1, "rank_in_cluster": 22}

>  <energy>  (4) 
-9.24

>  <cluster_rmsd>  (4) 
0.32

>  <cluster>  (4) 
1

$$$$

     RDKit          3D

 60 64  0  0  0  0  0  0  0  0999 V2000
  144.4150   75.7210  220.1140 O   0  0  0  0  0  0  0  0  0  0  0  0
  143.4750   74.8780  220.1720 C   0  0  0  0  0  0  0  0  0  0  0  0
  143.8440   73.5570  219.9700 C   0  0  0  0  0  0  0  0  0  0  0  0
  145.1560   73.2170  219.7270 C   0  0  0  0  0  0  0  0  0  0  0  0
  145.4960   71.8850  219.5290 C   0  0  0  0  0  0  0  0  0  0  0  0
  144.4920   70.9150  219.5830 C   0  0  0  0  0  0  0  0  0  0  0  0
  144.9150   69.2260  219.3340 Cl  0  0  0  0  0  0  0  0  0  0  0  0
  143.1820   71.3040  219.8320 C   0  0  0  0  0  0  0  0  0  0  0  0
  142.8340   72.6210  220.0290 C   0  0  0  0  0  0  0  0  0  0  0  0
  141.5560   72.9610  220.2680 N   0  0  0  0  0  0  0  0  0  0  0  0
  141.2580   74.2590  220.4550 C   0  0  0  0  0  0  0  0  0  0  0  0
  139.8390   74.5580  220.7140 C   0  0  0  0  0  0  0  0  0  0  0  0
  139.4430   74.7910  221.9440 C   0  0  0  0  0  0  0  0  0  0  0  0
  138.9920   76.1340  222.3190 C   0  0  0  0  0  0  0  0  0  0  0  0
  137.6600   76.4920  222.3470 C   0  0  0  0  0  0  0  0  0  0  0  0
  137.2940   77.7800  222.7100 C   0  0  0  0  0  0  0  0  0  0  0  0
  138.2400   78.7420  223.0530 C   0  0  0  0  0  0  0  0  0  0  0  0
  139.5580   78.3340  223.0100 C   0  0  0  0  0  0  0  0  0  0  0  0
  140.5850   79.2570  223.3450 N   0  0  0  0  0  0  0  0  0  0  0  0
  140.5440   80.6980  223.2770 C   0  0  0  0  0  0  0  0  0  0  0  0
  141.8990   81.0180  222.6350 C   0  0  0  0  0  0  0  0  0  0  0  0
  142.7800   79.8910  223.0600 C   0  0  0  0  0  0  0  0  0  0  0  0
  141.9130   78.9290  223.8370 C   0  0  0  0  0  0  0  0  0  0  0  0
  139.8850   77.0800  222.6540 N   0  0  0  0  0  0  0  0  0  0  0  0
  142.1920   75.2400  220.4140 N   0  0  0  0  0  0  0  0  0  0  0  0
  141.8230   76.6050  220.6070 C   0  0  0  0  0  0  0  0  0  0  0  0
  142.2550   77.5610  219.5480 C   0  0  0  0  0  0  0  0  0  0  0  0
  141.4720   78.8830  219.5930 C   0  0  0  0  0  0  0  0  0  0  0  0
  142.1650   79.8230  218.6630 C   0  0  0  0  0  0  0  0  0  0  0  0
  142.9060   79.1770  217.6110 N   0  0  0  0  0  0  0  0  0  0  0  0
  142.2040   78.0240  217.0930 C   0  0  0  0  0  0  0  0  0  0  0  0
  141.9550   76.9900  218.1680 C   0  0  0  0  0  0  0  0  0  0  0  0
  145.9311   73.9966  219.6899 H   0  0  0  0  0  0  0  0  0  0  0  0
  146.5397   71.5982  219.3327 H   0  0  0  0  0  0  0  0  0  0  0  0
  142.3971   70.5344  219.8731 H   0  0  0  0  0  0  0  0  0  0  0  0
  139.1175   74.5858  219.8842 H   0  0  0  0  0  0  0  0  0  0  0  0
  139.4497   73.9821  222.6894 H   0  0  0  0  0  0  0  0  0  0  0  0
  136.8874   75.7555  222.0812 H   0  0  0  0  0  0  0  0  0  0  0  0
  136.2274   78.0484  222.7273 H   0  0  0  0  0  0  0  0  0  0  0  0
  137.9547   79.7647  223.3407 H   0  0  0  0  0  0  0  0  0  0  0  0
  139.7107   81.0462  222.6491 H   0  0  0  0  0  0  0  0  0  0  0  0
  140.3845   81.1864  224.2496 H   0  0  0  0  0  0  0  0  0  0  0  0
  141.8128   81.0540  221.5390 H   0  0  0  0  0  0  0  0  0  0  0  0
  142.2906   81.9986  222.9434 H   0  0  0  0  0  0  0  0  0  0  0  0
  143.2057   79.3897  222.1782 H   0  0  0  0  0  0  0  0  0  0  0  0
  143.6164   80.2540  223.6753 H   0  0  0  0  0  0  0  0  0  0  0  0
  142.1755   77.8843  223.6140 H   0  0  0  0  0  0  0  0  0  0  0  0
  142.0172   79.0190  224.9283 H   0  0  0  0  0  0  0  0  0  0  0  0
  140.7258   76.6498  220.6719 H   0  0  0  0  0  0  0  0  0  0  0  0
  142.3449   76.9239  221.5213 H   0  0  0  0  0  0  0  0  0  0  0  0
  143.3273   77.7291  219.7269 H   0  0  0  0  0  0  0  0  0  0  0  0
  140.4347   78.7208  219.2648 H   0  0  0  0  0  0  0  0  0  0  0  0
  141.4391   79.2892  220.6147 H   0  0  0  0  0  0  0  0  0  0  0  0
  141.4067   80.4725  218.2015 H   0  0  0  0  0  0  0  0  0  0  0  0
  142.8961   80.3812  219.2663 H   0  0  0  0  0  0  0  0  0  0  0  0
  143.0830   79.7990  216.7970 H   0  0  0  0  0  0  0  0  0  0  0  0
  141.2373   78.3505  216.6819 H   0  0  0  0  0  0  0  0  0  0  0  0
  142.8293   77.5640  216.3136 H   0  0  0  0  0  0  0  0  0  0  0  0
  140.9016   76.6758  218.1290 H   0  0  0  0  0  0  0  0  0  0  0  0
  142.6179   76.1303  217.9905 H   0  0  0  0  0  0  0  0  0  0  0  0
  1  2  2  0
  2  3  1  0
  3  4  2  0
  4  5  1  0
  5  6  2  0
  6  7  1  0
  6  8  1  0
  8  9  2  0
  9 10  1  0
 10 11  2  0
 11 12  1  0
 12 13  2  0
 13 14  1  0
 14 15  2  0
 15 16  1  0
 16 17  2  0
 17 18  1  0
 18 19  1  0
 19 20  1  0
 20 21  1  0
 21 22  1  0
 22 23  1  0
 18 24  2  0
 11 25  1  0
 25 26  1  0
 26 27  1  0
 27 28  1  0
 28 29  1  0
 29 30  1  0
 30 31  1  0
 31 32  1  0
 25  2  1  0
 32 27  1  0
  9  3  1  0
 24 14  1  0
 23 19  1  0
  4 33  1  0
  5 34  1  0
  8 35  1  0
 12 36  1  0
 13 37  1  0
 15 38  1  0
 16 39  1  0
 17 40  1  0
 20 41  1  0
 20 42  1  0
 21 43  1  0
 21 44  1  0
 22 45  1  0
 22 46  1  0
 23 47  1  0
 23 48  1  0
 26 49  1  0
 26 50  1  0
 27 51  1  0
 28 52  1  0
 28 53  1  0
 29 54  1  0
 29 55  1  0
 30 56  1  0
 31 57  1  0
 31 58  1  0
 32 59  1  0
 32 60  1  0
M  END
>  <smiles>  (5) 
O=c1c2ccc(Cl)cc2nc(/C=C/c2cccc(N3CCCC3)n2)n1CC1CCNCC1

>  <score_type>  (5) 
oracle

>  <origin>  (5) 
autodockgpu

>  <m_score__min__energy>  (5) 
-9.3200000000000003

>  <m_primary>  (5) 
energy

>  <rmsd>  (5) 
7.978235485726915

>  <m_score__min__rmsd>  (5) 
7.978235485726915

>  <meeko>  (5) 
{"free_energy": -7.5, "intermolecular_energy": -9.29, "internal_energy": -2.16, "cluster_size": 8, "cluster_id": 6, "rank_in_cluster": 6}

>  <energy>  (5) 
-9.23

>  <cluster_rmsd>  (5) 
0.41

>  <cluster>  (5) 
1

$$$$

     RDKit          3D

 60 64  0  0  0  0  0  0  0  0999 V2000
  142.8090   76.0770  219.1580 O   0  0  0  0  0  0  0  0  0  0  0  0
  142.0030   75.8200  220.0970 C   0  0  0  0  0  0  0  0  0  0  0  0
  141.6140   76.9080  220.8650 C   0  0  0  0  0  0  0  0  0  0  0  0
  142.0920   78.1700  220.5960 C   0  0  0  0  0  0  0  0  0  0  0  0
  141.6850   79.2420  221.3830 C   0  0  0  0  0  0  0  0  0  0  0  0
  140.7950   79.0090  222.4340 C   0  0  0  0  0  0  0  0  0  0  0  0
  140.2750   80.3600  223.4330 Cl  0  0  0  0  0  0  0  0  0  0  0  0
  140.3380   77.7180  222.6670 C   0  0  0  0  0  0  0  0  0  0  0  0
  140.7340   76.6500  221.8940 C   0  0  0  0  0  0  0  0  0  0  0  0
  140.2730   75.4150  222.1490 N   0  0  0  0  0  0  0  0  0  0  0  0
  140.6850   74.3990  221.3700 C   0  0  0  0  0  0  0  0  0  0  0  0
  140.1370   73.0730  221.7050 C   0  0  0  0  0  0  0  0  0  0  0  0
  140.8230   72.2680  222.4840 C   0  0  0  0  0  0  0  0  0  0  0  0
  140.1490   71.1490  223.1470 C   0  0  0  0  0  0  0  0  0  0  0  0
  139.3840   70.2280  222.4610 C   0  0  0  0  0  0  0  0  0  0  0  0
  138.7690   69.1890  223.1450 C   0  0  0  0  0  0  0  0  0  0  0  0
  138.8980   69.0410  224.5230 C   0  0  0  0  0  0  0  0  0  0  0  0
  139.6730   69.9880  225.1620 C   0  0  0  0  0  0  0  0  0  0  0  0
  139.8530   69.9070  226.5690 N   0  0  0  0  0  0  0  0  0  0  0  0
  140.3280   70.9340  227.4660 C   0  0  0  0  0  0  0  0  0  0  0  0
  141.3140   70.1500  228.3400 C   0  0  0  0  0  0  0  0  0  0  0  0
  140.7810   68.7560  228.3350 C   0  0  0  0  0  0  0  0  0  0  0  0
  139.5880   68.7500  227.4080 C   0  0  0  0  0  0  0  0  0  0  0  0
  140.2580   70.9850  224.4760 N   0  0  0  0  0  0  0  0  0  0  0  0
  141.5470   74.5670  220.3380 N   0  0  0  0  0  0  0  0  0  0  0  0
  141.9640   73.4540  219.5480 C   0  0  0  0  0  0  0  0  0  0  0  0
  143.4250   73.1620  219.5410 C   0  0  0  0  0  0  0  0  0  0  0  0
  143.7250   71.6550  219.5990 C   0  0  0  0  0  0  0  0  0  0  0  0
  145.1850   71.4970  219.3350 C   0  0  0  0  0  0  0  0  0  0  0  0
  145.9770   72.6520  219.6750 N   0  0  0  0  0  0  0  0  0  0  0  0
  145.5200   73.2690  220.9000 C   0  0  0  0  0  0  0  0  0  0  0  0
  144.0830   73.7270  220.7940 C   0  0  0  0  0  0  0  0  0  0  0  0
  142.7923   78.3301  219.7629 H   0  0  0  0  0  0  0  0  0  0  0  0
  142.0579   80.2569  221.1810 H   0  0  0  0  0  0  0  0  0  0  0  0
  139.6368   77.5435  223.4963 H   0  0  0  0  0  0  0  0  0  0  0  0
  139.1610   72.7596  221.3059 H   0  0  0  0  0  0  0  0  0  0  0  0
  141.8995   72.4335  222.6379 H   0  0  0  0  0  0  0  0  0  0  0  0
  139.2616   70.3174  221.3715 H   0  0  0  0  0  0  0  0  0  0  0  0
  138.1632   68.4628  222.5831 H   0  0  0  0  0  0  0  0  0  0  0  0
  138.4120   68.2194  225.0696 H   0  0  0  0  0  0  0  0  0  0  0  0
  140.8332   71.7430  226.9180 H   0  0  0  0  0  0  0  0  0  0  0  0
  139.5302   71.4365  228.0326 H   0  0  0  0  0  0  0  0  0  0  0  0
  142.3263   70.1820  227.9107 H   0  0  0  0  0  0  0  0  0  0  0  0
  141.3983   70.5648  229.3553 H   0  0  0  0  0  0  0  0  0  0  0  0
  141.5486   68.0581  227.9694 H   0  0  0  0  0  0  0  0  0  0  0  0
  140.4957   68.4381  229.3487 H   0  0  0  0  0  0  0  0  0  0  0  0
  139.5483   67.8255  226.8133 H   0  0  0  0  0  0  0  0  0  0  0  0
  138.6203   68.7919  227.9294 H   0  0  0  0  0  0  0  0  0  0  0  0
  141.4452   72.5609  219.9264 H   0  0  0  0  0  0  0  0  0  0  0  0
  141.7121   73.7190  218.5105 H   0  0  0  0  0  0  0  0  0  0  0  0
  143.8059   73.6070  218.6099 H   0  0  0  0  0  0  0  0  0  0  0  0
  143.4744   71.2568  220.5933 H   0  0  0  0  0  0  0  0  0  0  0  0
  143.1274   71.1042  218.8577 H   0  0  0  0  0  0  0  0  0  0  0  0
  145.5511   70.6428  219.9234 H   0  0  0  0  0  0  0  0  0  0  0  0
  145.2949   71.3474  218.2508 H   0  0  0  0  0  0  0  0  0  0  0  0
  146.9820   72.4260  219.8200 H   0  0  0  0  0  0  0  0  0  0  0  0
  145.6019   72.5390  221.7188 H   0  0  0  0  0  0  0  0  0  0  0  0
  146.1474   74.1515  221.0939 H   0  0  0  0  0  0  0  0  0  0  0  0
  143.5285   73.3820  221.6792 H   0  0  0  0  0  0  0  0  0  0  0  0
  144.0668   74.8253  220.7356 H   0  0  0  0  0  0  0  0  0  0  0  0
  1  2  2  0
  2  3  1  0
  3  4  2  0
  4  5  1  0
  5  6  2  0
  6  7  1  0
  6  8  1  0
  8  9  2  0
  9 10  1  0
 10 11  2  0
 11 12  1  0
 12 13  2  0
 13 14  1  0
 14 15  2  0
 15 16  1  0
 16 17  2  0
 17 18  1  0
 18 19  1  0
 19 20  1  0
 20 21  1  0
 21 22  1  0
 22 23  1  0
 18 24  2  0
 11 25  1  0
 25 26  1  0
 26 27  1  0
 27 28  1  0
 28 29  1  0
 29 30  1  0
 30 31  1  0
 31 32  1  0
 25  2  1  0
 32 27  1  0
  9  3  1  0
 24 14  1  0
 23 19  1  0
  4 33  1  0
  5 34  1  0
  8 35  1  0
 12 36  1  0
 13 37  1  0
 15 38  1  0
 16 39  1  0
 17 40  1  0
 20 41  1  0
 20 42  1  0
 21 43  1  0
 21 44  1  0
 22 45  1  0
 22 46  1  0
 23 47  1  0
 23 48  1  0
 26 49  1  0
 26 50  1  0
 27 51  1  0
 28 52  1  0
 28 53  1  0
 29 54  1  0
 29 55  1  0
 30 56  1  0
 31 57  1  0
 31 58  1  0
 32 59  1  0
 32 60  1  0
M  END
>  <smiles>  (6) 
O=c1c2ccc(Cl)cc2nc(/C=C/c2cccc(N3CCCC3)n2)n1CC1CCNCC1

>  <score_type>  (6) 
oracle

>  <origin>  (6) 
autodockgpu

>  <m_score__min__energy>  (6) 
-9.3200000000000003

>  <m_primary>  (6) 
energy

>  <rmsd>  (6) 
5.18600853027032

>  <m_score__min__rmsd>  (6) 
5.18600853027032

>  <meeko>  (6) 
{"free_energy": -8.75, "intermolecular_energy": -10.54, "internal_energy": -1.34, "cluster_size": 23, "cluster_id": 1, "rank_in_cluster": 18}

>  <energy>  (6) 
-9.22

>  <cluster_rmsd>  (6) 
0.63

>  <cluster>  (6) 
1

$$$$

     RDKit          3D

 60 64  0  0  0  0  0  0  0  0999 V2000
  142.6390   76.7140  218.7040 O   0  0  0  0  0  0  0  0  0  0  0  0
  142.0720   76.3040  219.7560 C   0  0  0  0  0  0  0  0  0  0  0  0
  141.6530   77.2940  220.6340 C   0  0  0  0  0  0  0  0  0  0  0  0
  141.8560   78.6250  220.3480 C   0  0  0  0  0  0  0  0  0  0  0  0
  141.4260   79.5940  221.2460 C   0  0  0  0  0  0  0  0  0  0  0  0
  140.7940   79.1910  222.4250 C   0  0  0  0  0  0  0  0  0  0  0  0
  140.2450   80.4130  223.5660 Cl  0  0  0  0  0  0  0  0  0  0  0  0
  140.6100   77.8360  222.6710 C   0  0  0  0  0  0  0  0  0  0  0  0
  141.0320   76.8680  221.7880 C   0  0  0  0  0  0  0  0  0  0  0  0
  140.8380   75.5670  222.0590 N   0  0  0  0  0  0  0  0  0  0  0  0
  141.2660   74.6520  221.1700 C   0  0  0  0  0  0  0  0  0  0  0  0
  141.0180   73.2460  221.5310 C   0  0  0  0  0  0  0  0  0  0  0  0
  139.7850   72.7930  221.5530 C   0  0  0  0  0  0  0  0  0  0  0  0
  139.3830   71.8330  222.5840 C   0  0  0  0  0  0  0  0  0  0  0  0
  138.2710   71.0260  222.4580 C   0  0  0  0  0  0  0  0  0  0  0  0
  137.9400   70.1350  223.4690 C   0  0  0  0  0  0  0  0  0  0  0  0
  138.7050   70.0250  224.6270 C   0  0  0  0  0  0  0  0  0  0  0  0
  139.8060   70.8530  224.7050 C   0  0  0  0  0  0  0  0  0  0  0  0
  140.6380   70.8020  225.8560 N   0  0  0  0  0  0  0  0  0  0  0  0
  141.0440   69.6400  226.6100 C   0  0  0  0  0  0  0  0  0  0  0  0
  140.8470   70.1210  228.0520 C   0  0  0  0  0  0  0  0  0  0  0  0
  141.0510   71.5970  227.9770 C   0  0  0  0  0  0  0  0  0  0  0  0
  141.2630   71.9340  226.5200 C   0  0  0  0  0  0  0  0  0  0  0  0
  140.1040   71.7070  223.7100 N   0  0  0  0  0  0  0  0  0  0  0  0
  141.8850   74.9870  220.0120 N   0  0  0  0  0  0  0  0  0  0  0  0
  142.3310   73.9780  219.1060 C   0  0  0  0  0  0  0  0  0  0  0  0
  143.7190   73.4770  219.3110 C   0  0  0  0  0  0  0  0  0  0  0  0
  143.7550   72.0080  219.7630 C   0  0  0  0  0  0  0  0  0  0  0  0
  145.1800   71.5690  219.6860 C   0  0  0  0  0  0  0  0  0  0  0  0
  146.1360   72.6400  219.8100 N   0  0  0  0  0  0  0  0  0  0  0  0
  145.7240   73.6120  220.7970 C   0  0  0  0  0  0  0  0  0  0  0  0
  144.3930   74.2380  220.4460 C   0  0  0  0  0  0  0  0  0  0  0  0
  142.3559   78.9199  219.4136 H   0  0  0  0  0  0  0  0  0  0  0  0
  141.5807   80.6618  221.0320 H   0  0  0  0  0  0  0  0  0  0  0  0
  140.1111   77.5268  223.6013 H   0  0  0  0  0  0  0  0  0  0  0  0
  141.8579   72.5808  221.7801 H   0  0  0  0  0  0  0  0  0  0  0  0
  139.0579   73.1329  220.8008 H   0  0  0  0  0  0  0  0  0  0  0  0
  137.6460   71.0890  221.5550 H   0  0  0  0  0  0  0  0  0  0  0  0
  137.0501   69.4991  223.3525 H   0  0  0  0  0  0  0  0  0  0  0  0
  138.4472   69.3204  225.4314 H   0  0  0  0  0  0  0  0  0  0  0  0
  140.4052   68.7731  226.3856 H   0  0  0  0  0  0  0  0  0  0  0  0
  142.0661   69.2988  226.3887 H   0  0  0  0  0  0  0  0  0  0  0  0
  139.8329   69.8849  228.4068 H   0  0  0  0  0  0  0  0  0  0  0  0
  141.5387   69.6355  228.7561 H   0  0  0  0  0  0  0  0  0  0  0  0
  140.1644   72.1220  228.3621 H   0  0  0  0  0  0  0  0  0  0  0  0
  141.9141   71.9078  228.5840 H   0  0  0  0  0  0  0  0  0  0  0  0
  140.7674   72.8787  226.2517 H   0  0  0  0  0  0  0  0  0  0  0  0
  142.3183   72.0819  226.2472 H   0  0  0  0  0  0  0  0  0  0  0  0
  141.6479   73.1205  219.1959 H   0  0  0  0  0  0  0  0  0  0  0  0
  142.3330   74.4531  218.1139 H   0  0  0  0  0  0  0  0  0  0  0  0
  144.2206   73.6060  218.3406 H   0  0  0  0  0  0  0  0  0  0  0  0
  143.3868   71.9202  220.7958 H   0  0  0  0  0  0  0  0  0  0  0  0
  143.1137   71.3823  219.1248 H   0  0  0  0  0  0  0  0  0  0  0  0
  145.3630   70.8479  220.4962 H   0  0  0  0  0  0  0  0  0  0  0  0
  145.3225   71.1325  218.6864 H   0  0  0  0  0  0  0  0  0  0  0  0
  147.0790   72.3110  220.1010 H   0  0  0  0  0  0  0  0  0  0  0  0
  145.6365   73.1131  221.7734 H   0  0  0  0  0  0  0  0  0  0  0  0
  146.4802   74.4103  220.8277 H   0  0  0  0  0  0  0  0  0  0  0  0
  143.7404   74.2176  221.3312 H   0  0  0  0  0  0  0  0  0  0  0  0
  144.5659   75.2746  220.1212 H   0  0  0  0  0  0  0  0  0  0  0  0
  1  2  2  0
  2  3  1  0
  3  4  2  0
  4  5  1  0
  5  6  2  0
  6  7  1  0
  6  8  1  0
  8  9  2  0
  9 10  1  0
 10 11  2  0
 11 12  1  0
 12 13  2  0
 13 14  1  0
 14 15  2  0
 15 16  1  0
 16 17  2  0
 17 18  1  0
 18 19  1  0
 19 20  1  0
 20 21  1  0
 21 22  1  0
 22 23  1  0
 18 24  2  0
 11 25  1  0
 25 26  1  0
 26 27  1  0
 27 28  1  0
 28 29  1  0
 29 30  1  0
 30 31  1  0
 31 32  1  0
 25  2  1  0
 32 27  1  0
  9  3  1  0
 24 14  1  0
 23 19  1  0
  4 33  1  0
  5 34  1  0
  8 35  1  0
 12 36  1  0
 13 37  1  0
 15 38  1  0
 16 39  1  0
 17 40  1  0
 20 41  1  0
 20 42  1  0
 21 43  1  0
 21 44  1  0
 22 45  1  0
 22 46  1  0
 23 47  1  0
 23 48  1  0
 26 49  1  0
 26 50  1  0
 27 51  1  0
 28 52  1  0
 28 53  1  0
 29 54  1  0
 29 55  1  0
 30 56  1  0
 31 57  1  0
 31 58  1  0
 32 59  1  0
 32 60  1  0
M  END
>  <smiles>  (7) 
O=c1c2ccc(Cl)cc2nc(/C=C/c2cccc(N3CCCC3)n2)n1CC1CCNCC1

>  <score_type>  (7) 
oracle

>  <origin>  (7) 
autodockgpu

>  <m_score__min__energy>  (7) 
-9.3200000000000003

>  <m_primary>  (7) 
energy

>  <rmsd>  (7) 
5.027443933288174

>  <m_score__min__rmsd>  (7) 
5.027443933288174

>  <meeko>  (7) 
{"free_energy": -9.19, "intermolecular_energy": -10.98, "internal_energy": -1.43, "cluster_size": 23, "cluster_id": 1, "rank_in_cluster": 9}

>  <energy>  (7) 
-9.21

>  <cluster_rmsd>  (7) 
0.61

>  <cluster>  (7) 
1

$$$$

     RDKit          3D

 60 64  0  0  0  0  0  0  0  0999 V2000
  142.4430   76.3200  218.8050 O   0  0  0  0  0  0  0  0  0  0  0  0
  141.8890   76.0360  219.9040 C   0  0  0  0  0  0  0  0  0  0  0  0
  141.5560   77.1190  220.7030 C   0  0  0  0  0  0  0  0  0  0  0  0
  141.8220   78.4070  220.2970 C   0  0  0  0  0  0  0  0  0  0  0  0
  141.4770   79.4730  221.1190 C   0  0  0  0  0  0  0  0  0  0  0  0
  140.8630   79.2100  222.3450 C   0  0  0  0  0  0  0  0  0  0  0  0
  140.4220   80.5550  223.3910 Cl  0  0  0  0  0  0  0  0  0  0  0  0
  140.6130   77.8940  222.7140 C   0  0  0  0  0  0  0  0  0  0  0  0
  140.9510   76.8310  221.9080 C   0  0  0  0  0  0  0  0  0  0  0  0
  140.6940   75.5710  222.2970 N   0  0  0  0  0  0  0  0  0  0  0  0
  141.0400   74.5610  221.4800 C   0  0  0  0  0  0  0  0  0  0  0  0
  140.7260   73.2070  221.9690 C   0  0  0  0  0  0  0  0  0  0  0  0
  139.4790   72.7950  221.9710 C   0  0  0  0  0  0  0  0  0  0  0  0
  139.0700   71.7250  222.8850 C   0  0  0  0  0  0  0  0  0  0  0  0
  137.9970   70.8960  222.6300 C   0  0  0  0  0  0  0  0  0  0  0  0
  137.6580   69.9000  223.5330 C   0  0  0  0  0  0  0  0  0  0  0  0
  138.3750   69.7030  224.7110 C   0  0  0  0  0  0  0  0  0  0  0  0
  139.4380   70.5570  224.9190 C   0  0  0  0  0  0  0  0  0  0  0  0
  140.2210   70.4220  226.0980 N   0  0  0  0  0  0  0  0  0  0  0  0
  140.3760   69.2570  226.9350 C   0  0  0  0  0  0  0  0  0  0  0  0
  140.2480   69.8620  228.3370 C   0  0  0  0  0  0  0  0  0  0  0  0
  140.7380   71.2630  228.1780 C   0  0  0  0  0  0  0  0  0  0  0  0
  141.0420   71.4530  226.7110 C   0  0  0  0  0  0  0  0  0  0  0  0
  139.7460   71.5150  224.0270 N   0  0  0  0  0  0  0  0  0  0  0  0
  141.6370   74.7580  220.2790 N   0  0  0  0  0  0  0  0  0  0  0  0
  141.9960   73.6510  219.4530 C   0  0  0  0  0  0  0  0  0  0  0  0
  143.4090   73.1880  219.5510 C   0  0  0  0  0  0  0  0  0  0  0  0
  144.1560   73.8200  220.7370 C   0  0  0  0  0  0  0  0  0  0  0  0
  145.4530   73.0920  220.8640 C   0  0  0  0  0  0  0  0  0  0  0  0
  145.9190   72.4930  219.6400 N   0  0  0  0  0  0  0  0  0  0  0  0
  145.6710   73.3470  218.5000 C   0  0  0  0  0  0  0  0  0  0  0  0
  144.1970   73.6350  218.3260 C   0  0  0  0  0  0  0  0  0  0  0  0
  142.3055   78.5917  219.3263 H   0  0  0  0  0  0  0  0  0  0  0  0
  141.6844   80.5077  220.8086 H   0  0  0  0  0  0  0  0  0  0  0  0
  140.1292   77.6954  223.6817 H   0  0  0  0  0  0  0  0  0  0  0  0
  141.5290   72.5471  222.3292 H   0  0  0  0  0  0  0  0  0  0  0  0
  138.7452   73.2508  221.2900 H   0  0  0  0  0  0  0  0  0  0  0  0
  137.4096   71.0255  221.7090 H   0  0  0  0  0  0  0  0  0  0  0  0
  136.7998   69.2478  223.3133 H   0  0  0  0  0  0  0  0  0  0  0  0
  138.1097   68.9149  225.4310 H   0  0  0  0  0  0  0  0  0  0  0  0
  139.5844   68.5176  226.7436 H   0  0  0  0  0  0  0  0  0  0  0  0
  141.3158   68.7100  226.7690 H   0  0  0  0  0  0  0  0  0  0  0  0
  139.2005   69.8509  228.6724 H   0  0  0  0  0  0  0  0  0  0  0  0
  140.8174   69.2998  229.0918 H   0  0  0  0  0  0  0  0  0  0  0  0
  139.9631   71.9744  228.4997 H   0  0  0  0  0  0  0  0  0  0  0  0
  141.6320   71.4416  228.7935 H   0  0  0  0  0  0  0  0  0  0  0  0
  140.7471   72.4557  226.3680 H   0  0  0  0  0  0  0  0  0  0  0  0
  142.1112   71.3740  226.4651 H   0  0  0  0  0  0  0  0  0  0  0  0
  141.3463   72.8057  219.7237 H   0  0  0  0  0  0  0  0  0  0  0  0
  141.8728   74.0036  218.4183 H   0  0  0  0  0  0  0  0  0  0  0  0
  143.3500   72.0947  219.6570 H   0  0  0  0  0  0  0  0  0  0  0  0
  144.3378   74.8878  220.5450 H   0  0  0  0  0  0  0  0  0  0  0  0
  143.5665   73.7426  221.6625 H   0  0  0  0  0  0  0  0  0  0  0  0
  146.2156   73.8049  221.2108 H   0  0  0  0  0  0  0  0  0  0  0  0
  145.2837   72.2683  221.5731 H   0  0  0  0  0  0  0  0  0  0  0  0
  146.9420   72.3030  219.6440 H   0  0  0  0  0  0  0  0  0  0  0  0
  146.2052   74.2977  218.6441 H   0  0  0  0  0  0  0  0  0  0  0  0
  146.0271   72.8269  217.5985 H   0  0  0  0  0  0  0  0  0  0  0  0
  144.0556   74.7162  218.1813 H   0  0  0  0  0  0  0  0  0  0  0  0
  143.8308   73.0798  217.4499 H   0  0  0  0  0  0  0  0  0  0  0  0
  1  2  2  0
  2  3  1  0
  3  4  2  0
  4  5  1  0
  5  6  2  0
  6  7  1  0
  6  8  1  0
  8  9  2  0
  9 10  1  0
 10 11  2  0
 11 12  1  0
 12 13  2  0
 13 14  1  0
 14 15  2  0
 15 16  1  0
 16 17  2  0
 17 18  1  0
 18 19  1  0
 19 20  1  0
 20 21  1  0
 21 22  1  0
 22 23  1  0
 18 24  2  0
 11 25  1  0
 25 26  1  0
 26 27  1  0
 27 28  1  0
 28 29  1  0
 29 30  1  0
 30 31  1  0
 31 32  1  0
 25  2  1  0
 32 27  1  0
  9  3  1  0
 24 14  1  0
 23 19  1  0
  4 33  1  0
  5 34  1  0
  8 35  1  0
 12 36  1  0
 13 37  1  0
 15 38  1  0
 16 39  1  0
 17 40  1  0
 20 41  1  0
 20 42  1  0
 21 43  1  0
 21 44  1  0
 22 45  1  0
 22 46  1  0
 23 47  1  0
 23 48  1  0
 26 49  1  0
 26 50  1  0
 27 51  1  0
 28 52  1  0
 28 53  1  0
 29 54  1  0
 29 55  1  0
 30 56  1  0
 31 57  1  0
 31 58  1  0
 32 59  1  0
 32 60  1  0
M  END
>  <smiles>  (8) 
O=c1c2ccc(Cl)cc2nc(/C=C/c2cccc(N3CCCC3)n2)n1CC1CCNCC1

>  <score_type>  (8) 
oracle

>  <origin>  (8) 
autodockgpu

>  <m_score__min__energy>  (8) 
-9.3200000000000003

>  <m_primary>  (8) 
energy

>  <rmsd>  (8) 
4.818665730343456

>  <m_score__min__rmsd>  (8) 
4.818665730343456

>  <meeko>  (8) 
{"free_energy": -8.65, "intermolecular_energy": -10.44, "internal_energy": -1.41, "cluster_size": 23, "cluster_id": 1, "rank_in_cluster": 21}

>  <energy>  (8) 
-9.2

>  <cluster_rmsd>  (8) 
0.58

>  <cluster>  (8) 
1

$$$$

     RDKit          3D

 60 64  0  0  0  0  0  0  0  0999 V2000
  142.6750   76.5220  218.8140 O   0  0  0  0  0  0  0  0  0  0  0  0
  142.0320   76.0500  219.7930 C   0  0  0  0  0  0  0  0  0  0  0  0
  141.5800   76.9810  220.7170 C   0  0  0  0  0  0  0  0  0  0  0  0
  141.8320   78.3230  220.5490 C   0  0  0  0  0  0  0  0  0  0  0  0
  141.3670   79.2340  221.4900 C   0  0  0  0  0  0  0  0  0  0  0  0
  140.6510   78.7600  222.5920 C   0  0  0  0  0  0  0  0  0  0  0  0
  140.0580   79.9060  223.7890 Cl  0  0  0  0  0  0  0  0  0  0  0  0
  140.4210   77.3960  222.7200 C   0  0  0  0  0  0  0  0  0  0  0  0
  140.8760   76.4860  221.7930 C   0  0  0  0  0  0  0  0  0  0  0  0
  140.6350   75.1740  221.9490 N   0  0  0  0  0  0  0  0  0  0  0  0
  141.0980   74.3180  221.0210 C   0  0  0  0  0  0  0  0  0  0  0  0
  140.7950   72.8960  221.2550 C   0  0  0  0  0  0  0  0  0  0  0  0
  141.0000   72.3790  222.4450 C   0  0  0  0  0  0  0  0  0  0  0  0
  140.1260   71.3080  222.9320 C   0  0  0  0  0  0  0  0  0  0  0  0
  139.1780   70.7000  222.1350 C   0  0  0  0  0  0  0  0  0  0  0  0
  138.3790   69.6910  222.6530 C   0  0  0  0  0  0  0  0  0  0  0  0
  138.5020   69.2630  223.9730 C   0  0  0  0  0  0  0  0  0  0  0  0
  139.4640   69.9030  224.7270 C   0  0  0  0  0  0  0  0  0  0  0  0
  139.6520   69.5250  226.0840 N   0  0  0  0  0  0  0  0  0  0  0  0
  139.9570   70.3740  227.2110 C   0  0  0  0  0  0  0  0  0  0  0  0
  141.0520   69.5680  227.9190 C   0  0  0  0  0  0  0  0  0  0  0  0
  140.7460   68.1490  227.5720 C   0  0  0  0  0  0  0  0  0  0  0  0
  139.5710   68.1770  226.6230 C   0  0  0  0  0  0  0  0  0  0  0  0
  140.2250   70.8780  224.2000 N   0  0  0  0  0  0  0  0  0  0  0  0
  141.7980   74.7230  219.9330 N   0  0  0  0  0  0  0  0  0  0  0  0
  142.2790   73.7730  218.9820 C   0  0  0  0  0  0  0  0  0  0  0  0
  143.5930   73.1420  219.2880 C   0  0  0  0  0  0  0  0  0  0  0  0
  143.4580   71.6610  219.6800 C   0  0  0  0  0  0  0  0  0  0  0  0
  144.8390   71.0970  219.7130 C   0  0  0  0  0  0  0  0  0  0  0  0
  145.8700   72.0720  219.9650 N   0  0  0  0  0  0  0  0  0  0  0  0
  145.4560   73.0440  220.9510 C   0  0  0  0  0  0  0  0  0  0  0  0
  144.2230   73.8000  220.5090 C   0  0  0  0  0  0  0  0  0  0  0  0
  142.3989   78.6734  219.6739 H   0  0  0  0  0  0  0  0  0  0  0  0
  141.5595   80.3103  221.3691 H   0  0  0  0  0  0  0  0  0  0  0  0
  139.8567   77.0312  223.5909 H   0  0  0  0  0  0  0  0  0  0  0  0
  140.4002   72.2718  220.4398 H   0  0  0  0  0  0  0  0  0  0  0  0
  141.8240   72.7482  223.0733 H   0  0  0  0  0  0  0  0  0  0  0  0
  139.0556   71.0154  221.0883 H   0  0  0  0  0  0  0  0  0  0  0  0
  137.6283   69.2163  222.0041 H   0  0  0  0  0  0  0  0  0  0  0  0
  137.8708   68.4638  224.3887 H   0  0  0  0  0  0  0  0  0  0  0  0
  140.3296   71.3560  226.8842 H   0  0  0  0  0  0  0  0  0  0  0  0
  139.0886   70.6022  227.8464 H   0  0  0  0  0  0  0  0  0  0  0  0
  142.0476   69.8539  227.5489 H   0  0  0  0  0  0  0  0  0  0  0  0
  141.0670   69.7419  229.0051 H   0  0  0  0  0  0  0  0  0  0  0  0
  141.6150   67.6820  227.0855 H   0  0  0  0  0  0  0  0  0  0  0  0
  140.5124   67.5632  228.4733 H   0  0  0  0  0  0  0  0  0  0  0  0
  139.6791   67.4221  225.8303 H   0  0  0  0  0  0  0  0  0  0  0  0
  138.6077   67.9472  227.1018 H   0  0  0  0  0  0  0  0  0  0  0  0
  141.5316   72.9698  218.9028 H   0  0  0  0  0  0  0  0  0  0  0  0
  142.4349   74.3406  218.0527 H   0  0  0  0  0  0  0  0  0  0  0  0
  144.1917   73.2575  218.3725 H   0  0  0  0  0  0  0  0  0  0  0  0
  142.9889   71.5727  220.6710 H   0  0  0  0  0  0  0  0  0  0  0  0
  142.8266   71.1181  218.9612 H   0  0  0  0  0  0  0  0  0  0  0  0
  144.8821   70.3366  220.5066 H   0  0  0  0  0  0  0  0  0  0  0  0
  145.0346   70.6817  218.7134 H   0  0  0  0  0  0  0  0  0  0  0  0
  146.7500   71.6490  220.3250 H   0  0  0  0  0  0  0  0  0  0  0  0
  145.2354   72.5229  221.8943 H   0  0  0  0  0  0  0  0  0  0  0  0
  146.2733   73.7684  221.0821 H   0  0  0  0  0  0  0  0  0  0  0  0
  143.4920   73.8095  221.3309 H   0  0  0  0  0  0  0  0  0  0  0  0
  144.5154   74.8269  220.2443 H   0  0  0  0  0  0  0  0  0  0  0  0
  1  2  2  0
  2  3  1  0
  3  4  2  0
  4  5  1  0
  5  6  2  0
  6  7  1  0
  6  8  1  0
  8  9  2  0
  9 10  1  0
 10 11  2  0
 11 12  1  0
 12 13  2  0
 13 14  1  0
 14 15  2  0
 15 16  1  0
 16 17  2  0
 17 18  1  0
 18 19  1  0
 19 20  1  0
 20 21  1  0
 21 22  1  0
 22 23  1  0
 18 24  2  0
 11 25  1  0
 25 26  1  0
 26 27  1  0
 27 28  1  0
 28 29  1  0
 29 30  1  0
 30 31  1  0
 31 32  1  0
 25  2  1  0
 32 27  1  0
  9  3  1  0
 24 14  1  0
 23 19  1  0
  4 33  1  0
  5 34  1  0
  8 35  1  0
 12 36  1  0
 13 37  1  0
 15 38  1  0
 16 39  1  0
 17 40  1  0
 20 41  1  0
 20 42  1  0
 21 43  1  0
 21 44  1  0
 22 45  1  0
 22 46  1  0
 23 47  1  0
 23 48  1  0
 26 49  1  0
 26 50  1  0
 27 51  1  0
 28 52  1  0
 28 53  1  0
 29 54  1  0
 29 55  1  0
 30 56  1  0
 31 57  1  0
 31 58  1  0
 32 59  1  0
 32 60  1  0
M  END
>  <smiles>  (9) 
O=c1c2ccc(Cl)cc2nc(/C=C/c2cccc(N3CCCC3)n2)n1CC1CCNCC1

>  <score_type>  (9) 
oracle

>  <origin>  (9) 
autodockgpu

>  <m_score__min__energy>  (9) 
-9.3200000000000003

>  <m_primary>  (9) 
energy

>  <rmsd>  (9) 
5.225443651628887

>  <m_score__min__rmsd>  (9) 
5.225443651628887

>  <meeko>  (9) 
{"free_energy": -8.7, "intermolecular_energy": -10.49, "internal_energy": -1.47, "cluster_size": 23, "cluster_id": 1, "rank_in_cluster": 20}

>  <energy>  (9) 
-9.19

>  <cluster_rmsd>  (9) 
0.54

>  <cluster>  (9) 
1

$$$$

     RDKit          3D

 60 64  0  0  0  0  0  0  0  0999 V2000
  146.2860   72.8800  219.4660 O   0  0  0  0  0  0  0  0  0  0  0  0
  145.1660   72.3150  219.6160 C   0  0  0  0  0  0  0  0  0  0  0  0
  145.1660   70.9370  219.4550 C   0  0  0  0  0  0  0  0  0  0  0  0
  146.3260   70.2600  219.1540 C   0  0  0  0  0  0  0  0  0  0  0  0
  146.2960   68.8790  218.9980 C   0  0  0  0  0  0  0  0  0  0  0  0
  145.0800   68.2080  219.1530 C   0  0  0  0  0  0  0  0  0  0  0  0
  145.0340   66.4600  218.9580 Cl  0  0  0  0  0  0  0  0  0  0  0  0
  143.9350   68.9330  219.4570 C   0  0  0  0  0  0  0  0  0  0  0  0
  143.9540   70.3000  219.6140 C   0  0  0  0  0  0  0  0  0  0  0  0
  142.8270   70.9690  219.9080 N   0  0  0  0  0  0  0  0  0  0  0  0
  142.8880   72.3040  220.0520 C   0  0  0  0  0  0  0  0  0  0  0  0
  141.6160   72.9720  220.3770 C   0  0  0  0  0  0  0  0  0  0  0  0
  141.4340   73.4620  221.5820 C   0  0  0  0  0  0  0  0  0  0  0  0
  140.4810   74.5580  221.7830 C   0  0  0  0  0  0  0  0  0  0  0  0
  139.1150   74.3670  221.7810 C   0  0  0  0  0  0  0  0  0  0  0  0
  138.2630   75.4440  221.9780 C   0  0  0  0  0  0  0  0  0  0  0  0
  138.7460   76.7340  222.1790 C   0  0  0  0  0  0  0  0  0  0  0  0
  140.1190   76.8720  222.1710 C   0  0  0  0  0  0  0  0  0  0  0  0
  140.6920   78.1570  222.3690 N   0  0  0  0  0  0  0  0  0  0  0  0
  141.7320   78.7960  221.5980 C   0  0  0  0  0  0  0  0  0  0  0  0
  142.6270   79.3720  222.7020 C   0  0  0  0  0  0  0  0  0  0  0  0
  141.6930   79.6200  223.8390 C   0  0  0  0  0  0  0  0  0  0  0  0
  140.3380   79.1090  223.4090 C   0  0  0  0  0  0  0  0  0  0  0  0
  140.9230   75.8110  221.9790 N   0  0  0  0  0  0  0  0  0  0  0  0
  144.0400   73.0060  219.9130 N   0  0  0  0  0  0  0  0  0  0  0  0
  144.0510   74.4260  220.0640 C   0  0  0  0  0  0  0  0  0  0  0  0
  143.2050   75.1960  219.1090 C   0  0  0  0  0  0  0  0  0  0  0  0
  143.6990   75.0800  217.6580 C   0  0  0  0  0  0  0  0  0  0  0  0
  142.6390   75.6770  216.7940 C   0  0  0  0  0  0  0  0  0  0  0  0
  141.8160   76.6560  217.4580 N   0  0  0  0  0  0  0  0  0  0  0  0
  142.5930   77.4940  218.3430 C   0  0  0  0  0  0  0  0  0  0  0  0
  143.2830   76.6860  219.4180 C   0  0  0  0  0  0  0  0  0  0  0  0
  147.2721   70.8090  219.0375 H   0  0  0  0  0  0  0  0  0  0  0  0
  147.2143   68.3236  218.7565 H   0  0  0  0  0  0  0  0  0  0  0  0
  142.9819   68.3970  219.5762 H   0  0  0  0  0  0  0  0  0  0  0  0
  140.8254   73.0597  219.6172 H   0  0  0  0  0  0  0  0  0  0  0  0
  141.9936   73.0523  222.4358 H   0  0  0  0  0  0  0  0  0  0  0  0
  138.7009   73.3602  221.6231 H   0  0  0  0  0  0  0  0  0  0  0  0
  137.1762   75.2740  221.9753 H   0  0  0  0  0  0  0  0  0  0  0  0
  138.0742   77.5910  222.3347 H   0  0  0  0  0  0  0  0  0  0  0  0
  142.2769   78.0682  220.9788 H   0  0  0  0  0  0  0  0  0  0  0  0
  141.3620   79.5476  220.8851 H   0  0  0  0  0  0  0  0  0  0  0  0
  143.4067   78.6507  222.9880 H   0  0  0  0  0  0  0  0  0  0  0  0
  143.1545   80.2833  222.3838 H   0  0  0  0  0  0  0  0  0  0  0  0
  142.0347   79.0804  224.7346 H   0  0  0  0  0  0  0  0  0  0  0  0
  141.6504   80.6904  224.0891 H   0  0  0  0  0  0  0  0  0  0  0  0
  139.8140   78.6159  224.2410 H   0  0  0  0  0  0  0  0  0  0  0  0
  139.6514   79.8997  223.0723 H   0  0  0  0  0  0  0  0  0  0  0  0
  143.7042   74.6579  221.0818 H   0  0  0  0  0  0  0  0  0  0  0  0
  145.0858   74.7360  219.8564 H   0  0  0  0  0  0  0  0  0  0  0  0
  142.1922   74.7806  219.2170 H   0  0  0  0  0  0  0  0  0  0  0  0
  144.6433   75.6303  217.5341 H   0  0  0  0  0  0  0  0  0  0  0  0
  143.8854   74.0304  217.3867 H   0  0  0  0  0  0  0  0  0  0  0  0
  143.1266   76.1618  215.9354 H   0  0  0  0  0  0  0  0  0  0  0  0
  141.9727   74.8535  216.4975 H   0  0  0  0  0  0  0  0  0  0  0  0
  141.3350   77.2980  216.7960 H   0  0  0  0  0  0  0  0  0  0  0  0
  143.3543   78.0255  217.7531 H   0  0  0  0  0  0  0  0  0  0  0  0
  141.9081   78.2015  218.8333 H   0  0  0  0  0  0  0  0  0  0  0  0
  144.3393   76.9879  219.4740 H   0  0  0  0  0  0  0  0  0  0  0  0
  142.7797   76.8738  220.3779 H   0  0  0  0  0  0  0  0  0  0  0  0
  1  2  2  0
  2  3  1  0
  3  4  2  0
  4  5  1  0
  5  6  2  0
  6  7  1  0
  6  8  1  0
  8  9  2  0
  9 10  1  0
 10 11  2  0
 11 12  1  0
 12 13  2  0
 13 14  1  0
 14 15  2  0
 15 16  1  0
 16 17  2  0
 17 18  1  0
 18 19  1  0
 19 20  1  0
 20 21  1  0
 21 22  1  0
 22 23  1  0
 18 24  2  0
 11 25  1  0
 25 26  1  0
 26 27  1  0
 27 28  1  0
 28 29  1  0
 29 30  1  0
 30 31  1  0
 31 32  1  0
 25  2  1  0
 32 27  1  0
  9  3  1  0
 24 14  1  0
 23 19  1  0
  4 33  1  0
  5 34  1  0
  8 35  1  0
 12 36  1  0
 13 37  1  0
 15 38  1  0
 16 39  1  0
 17 40  1  0
 20 41  1  0
 20 42  1  0
 21 43  1  0
 21 44  1  0
 22 45  1  0
 22 46  1  0
 23 47  1  0
 23 48  1  0
 26 49  1  0
 26 50  1  0
 27 51  1  0
 28 52  1  0
 28 53  1  0
 29 54  1  0
 29 55  1  0
 30 56  1  0
 31 57  1  0
 31 58  1  0
 32 59  1  0
 32 60  1  0
M  END
>  <smiles>  (10) 
O=c1c2ccc(Cl)cc2nc(/C=C/c2cccc(N3CCCC3)n2)n1CC1CCNCC1

>  <score_type>  (10) 
oracle

>  <origin>  (10) 
autodockgpu

>  <m_score__min__energy>  (10) 
-9.3200000000000003

>  <m_primary>  (10) 
energy

>  <rmsd>  (10) 
10.132901918141537

>  <m_score__min__rmsd>  (10) 
10.132901918141537

>  <meeko>  (10) 
{"free_energy": -7.74, "intermolecular_energy": -9.53, "internal_energy": -1.85, "cluster_size": 8, "cluster_id": 6, "rank_in_cluster": 2}

>  <energy>  (10) 
-9.13

>  <cluster_rmsd>  (10) 
0.78

>  <cluster>  (10) 
1

$$$$

     RDKit          3D

 60 64  0  0  0  0  0  0  0  0999 V2000
  146.0260   73.0040  218.8630 O   0  0  0  0  0  0  0  0  0  0  0  0
  145.0290   72.4340  219.3900 C   0  0  0  0  0  0  0  0  0  0  0  0
  145.0000   71.0520  219.2710 C   0  0  0  0  0  0  0  0  0  0  0  0
  146.0050   70.3760  218.6180 C   0  0  0  0  0  0  0  0  0  0  0  0
  145.9500   68.9910  218.5150 C   0  0  0  0  0  0  0  0  0  0  0  0
  144.8660   68.3150  219.0810 C   0  0  0  0  0  0  0  0  0  0  0  0
  144.7890   66.5610  218.9550 Cl  0  0  0  0  0  0  0  0  0  0  0  0
  143.8750   69.0380  219.7310 C   0  0  0  0  0  0  0  0  0  0  0  0
  143.9210   70.4100  219.8400 C   0  0  0  0  0  0  0  0  0  0  0  0
  142.9440   71.0770  220.4760 N   0  0  0  0  0  0  0  0  0  0  0  0
  143.0260   72.4170  220.5580 C   0  0  0  0  0  0  0  0  0  0  0  0
  141.9220   73.0820  221.2720 C   0  0  0  0  0  0  0  0  0  0  0  0
  140.9160   73.5750  220.5870 C   0  0  0  0  0  0  0  0  0  0  0  0
  140.0690   74.6110  221.1850 C   0  0  0  0  0  0  0  0  0  0  0  0
  138.7390   74.4030  221.4860 C   0  0  0  0  0  0  0  0  0  0  0  0
  137.9870   75.4220  222.0520 C   0  0  0  0  0  0  0  0  0  0  0  0
  138.5370   76.6700  222.3320 C   0  0  0  0  0  0  0  0  0  0  0  0
  139.8700   76.8270  222.0140 C   0  0  0  0  0  0  0  0  0  0  0  0
  140.5070   78.0720  222.2680 N   0  0  0  0  0  0  0  0  0  0  0  0
  141.6310   78.6550  221.5750 C   0  0  0  0  0  0  0  0  0  0  0  0
  142.4860   79.1610  222.7420 C   0  0  0  0  0  0  0  0  0  0  0  0
  141.4980   79.4520  223.8220 C   0  0  0  0  0  0  0  0  0  0  0  0
  140.1450   79.0310  223.2980 C   0  0  0  0  0  0  0  0  0  0  0  0
  140.5760   75.8220  221.4650 N   0  0  0  0  0  0  0  0  0  0  0  0
  144.0540   73.1240  220.0280 N   0  0  0  0  0  0  0  0  0  0  0  0
  144.0890   74.5470  220.1320 C   0  0  0  0  0  0  0  0  0  0  0  0
  143.1740   75.2970  219.2260 C   0  0  0  0  0  0  0  0  0  0  0  0
  143.5190   75.0950  217.7420 C   0  0  0  0  0  0  0  0  0  0  0  0
  142.3940   75.6830  216.9560 C   0  0  0  0  0  0  0  0  0  0  0  0
  141.6680   76.7190  217.6450 N   0  0  0  0  0  0  0  0  0  0  0  0
  142.5520   77.5740  218.4060 C   0  0  0  0  0  0  0  0  0  0  0  0
  143.3230   76.7970  219.4490 C   0  0  0  0  0  0  0  0  0  0  0  0
  146.8484   70.9294  218.1793 H   0  0  0  0  0  0  0  0  0  0  0  0
  146.7462   68.4365  217.9968 H   0  0  0  0  0  0  0  0  0  0  0  0
  143.0253   68.4973  220.1734 H   0  0  0  0  0  0  0  0  0  0  0  0
  141.9403   73.1647  222.3687 H   0  0  0  0  0  0  0  0  0  0  0  0
  140.7099   73.2122  219.5692 H   0  0  0  0  0  0  0  0  0  0  0  0
  138.2743   73.4281  221.2770 H   0  0  0  0  0  0  0  0  0  0  0  0
  136.9278   75.2391  222.2859 H   0  0  0  0  0  0  0  0  0  0  0  0
  137.9445   77.4815  222.7796 H   0  0  0  0  0  0  0  0  0  0  0  0
  142.1694   77.9027  220.9799 H   0  0  0  0  0  0  0  0  0  0  0  0
  141.3539   79.4366  220.8523 H   0  0  0  0  0  0  0  0  0  0  0  0
  143.2007   78.3897  223.0649 H   0  0  0  0  0  0  0  0  0  0  0  0
  143.0867   80.0422  222.4725 H   0  0  0  0  0  0  0  0  0  0  0  0
  141.7479   78.8809  224.7283 H   0  0  0  0  0  0  0  0  0  0  0  0
  141.5048   80.5195  224.0872 H   0  0  0  0  0  0  0  0  0  0  0  0
  139.5391   78.5612  224.0868 H   0  0  0  0  0  0  0  0  0  0  0  0
  139.5311   79.8667  222.9309 H   0  0  0  0  0  0  0  0  0  0  0  0
  143.8292   74.8141  221.1670 H   0  0  0  0  0  0  0  0  0  0  0  0
  145.1057   74.8387  219.8298 H   0  0  0  0  0  0  0  0  0  0  0  0
  142.1658   74.9205  219.4535 H   0  0  0  0  0  0  0  0  0  0  0  0
  144.4607   75.6086  217.4984 H   0  0  0  0  0  0  0  0  0  0  0  0
  143.6500   74.0282  217.5079 H   0  0  0  0  0  0  0  0  0  0  0  0
  142.8066   76.1091  216.0296 H   0  0  0  0  0  0  0  0  0  0  0  0
  141.6794   74.8676  216.7700 H   0  0  0  0  0  0  0  0  0  0  0  0
  141.1420   77.3440  217.0010 H   0  0  0  0  0  0  0  0  0  0  0  0
  143.2653   78.0514  217.7180 H   0  0  0  0  0  0  0  0  0  0  0  0
  141.9387   78.3263  218.9237 H   0  0  0  0  0  0  0  0  0  0  0  0
  144.3875   77.0670  219.3860 H   0  0  0  0  0  0  0  0  0  0  0  0
  142.9227   77.0473  220.4425 H   0  0  0  0  0  0  0  0  0  0  0  0
  1  2  2  0
  2  3  1  0
  3  4  2  0
  4  5  1  0
  5  6  2  0
  6  7  1  0
  6  8  1  0
  8  9  2  0
  9 10  1  0
 10 11  2  0
 11 12  1  0
 12 13  2  0
 13 14  1  0
 14 15  2  0
 15 16  1  0
 16 17  2  0
 17 18  1  0
 18 19  1  0
 19 20  1  0
 20 21  1  0
 21 22  1  0
 22 23  1  0
 18 24  2  0
 11 25  1  0
 25 26  1  0
 26 27  1  0
 27 28  1  0
 28 29  1  0
 29 30  1  0
 30 31  1  0
 31 32  1  0
 25  2  1  0
 32 27  1  0
  9  3  1  0
 24 14  1  0
 23 19  1  0
  4 33  1  0
  5 34  1  0
  8 35  1  0
 12 36  1  0
 13 37  1  0
 15 38  1  0
 16 39  1  0
 17 40  1  0
 20 41  1  0
 20 42  1  0
 21 43  1  0
 21 44  1  0
 22 45  1  0
 22 46  1  0
 23 47  1  0
 23 48  1  0
 26 49  1  0
 26 50  1  0
 27 51  1  0
 28 52  1  0
 28 53  1  0
 29 54  1  0
 29 55  1  0
 30 56  1  0
 31 57  1  0
 31 58  1  0
 32 59  1  0
 32 60  1  0
M  END
>  <smiles>  (11) 
O=c1c2ccc(Cl)cc2nc(/C=C/c2cccc(N3CCCC3)n2)n1CC1CCNCC1

>  <score_type>  (11) 
oracle

>  <origin>  (11) 
autodockgpu

>  <m_score__min__energy>  (11) 
-9.3200000000000003

>  <m_primary>  (11) 
energy

>  <rmsd>  (11) 
9.98430219331988

>  <m_score__min__rmsd>  (11) 
9.98430219331988

>  <meeko>  (11) 
{"free_energy": -7.41, "intermolecular_energy": -9.2, "internal_energy": -2.04, "cluster_size": 8, "cluster_id": 6, "rank_in_cluster": 7}

>  <energy>  (11) 
-9.09

>  <cluster_rmsd>  (11) 
0.64

>  <cluster>  (11) 
1

$$$$

     RDKit          3D

 60 64  0  0  0  0  0  0  0  0999 V2000
  142.7820   76.1720  219.1030 O   0  0  0  0  0  0  0  0  0  0  0  0
  141.9960   75.9260  220.0610 C   0  0  0  0  0  0  0  0  0  0  0  0
  141.6480   77.0180  220.8430 C   0  0  0  0  0  0  0  0  0  0  0  0
  142.1420   78.2720  220.5670 C   0  0  0  0  0  0  0  0  0  0  0  0
  141.7760   79.3480  221.3680 C   0  0  0  0  0  0  0  0  0  0  0  0
  140.9100   79.1270  222.4410 C   0  0  0  0  0  0  0  0  0  0  0  0
  140.4410   80.4840  223.4590 Cl  0  0  0  0  0  0  0  0  0  0  0  0
  140.4350   77.8440  222.6810 C   0  0  0  0  0  0  0  0  0  0  0  0
  140.7910   76.7720  221.8940 C   0  0  0  0  0  0  0  0  0  0  0  0
  140.3120   75.5450  222.1560 N   0  0  0  0  0  0  0  0  0  0  0  0
  140.6850   74.5250  221.3640 C   0  0  0  0  0  0  0  0  0  0  0  0
  140.1210   73.2080  221.7080 C   0  0  0  0  0  0  0  0  0  0  0  0
  140.8690   72.3290  222.3340 C   0  0  0  0  0  0  0  0  0  0  0  0
  140.2420   71.1790  222.9910 C   0  0  0  0  0  0  0  0  0  0  0  0
  139.3240   70.3680  222.3580 C   0  0  0  0  0  0  0  0  0  0  0  0
  138.7640   69.2930  223.0320 C   0  0  0  0  0  0  0  0  0  0  0  0
  139.1020   68.9980  224.3510 C   0  0  0  0  0  0  0  0  0  0  0  0
  140.0240   69.8390  224.9390 C   0  0  0  0  0  0  0  0  0  0  0  0
  140.4220   69.6060  226.2830 N   0  0  0  0  0  0  0  0  0  0  0  0
  141.0310   68.4220  226.8400 C   0  0  0  0  0  0  0  0  0  0  0  0
  140.2360   68.2450  228.1380 C   0  0  0  0  0  0  0  0  0  0  0  0
  139.8220   69.6310  228.5060 C   0  0  0  0  0  0  0  0  0  0  0  0
  140.2950   70.5360  227.3940 C   0  0  0  0  0  0  0  0  0  0  0  0
  140.5520   70.8740  224.2620 N   0  0  0  0  0  0  0  0  0  0  0  0
  141.5230   74.6810  220.3100 N   0  0  0  0  0  0  0  0  0  0  0  0
  141.8980   73.5640  219.5050 C   0  0  0  0  0  0  0  0  0  0  0  0
  143.3230   73.1360  219.5940 C   0  0  0  0  0  0  0  0  0  0  0  0
  144.0590   73.7850  220.7780 C   0  0  0  0  0  0  0  0  0  0  0  0
  145.3750   73.0900  220.8980 C   0  0  0  0  0  0  0  0  0  0  0  0
  145.8500   72.5050  219.6700 N   0  0  0  0  0  0  0  0  0  0  0  0
  145.5750   73.3550  218.5340 C   0  0  0  0  0  0  0  0  0  0  0  0
  144.0930   73.6060  218.3670 C   0  0  0  0  0  0  0  0  0  0  0  0
  142.8233   78.4227  219.7166 H   0  0  0  0  0  0  0  0  0  0  0  0
  142.1622   80.3567  221.1599 H   0  0  0  0  0  0  0  0  0  0  0  0
  139.7521   77.6791  223.5275 H   0  0  0  0  0  0  0  0  0  0  0  0
  139.0820   72.9632  221.4426 H   0  0  0  0  0  0  0  0  0  0  0  0
  141.9613   72.4553  222.3651 H   0  0  0  0  0  0  0  0  0  0  0  0
  139.0353   70.5739  221.3167 H   0  0  0  0  0  0  0  0  0  0  0  0
  138.0336   68.6564  222.5113 H   0  0  0  0  0  0  0  0  0  0  0  0
  138.6608   68.1469  224.8904 H   0  0  0  0  0  0  0  0  0  0  0  0
  140.9077   67.5560  226.1730 H   0  0  0  0  0  0  0  0  0  0  0  0
  142.1174   68.5070  226.9899 H   0  0  0  0  0  0  0  0  0  0  0  0
  139.3560   67.6061  227.9724 H   0  0  0  0  0  0  0  0  0  0  0  0
  140.8243   67.7571  228.9291 H   0  0  0  0  0  0  0  0  0  0  0  0
  138.7275   69.6870  228.6005 H   0  0  0  0  0  0  0  0  0  0  0  0
  140.2569   69.9302  229.4710 H   0  0  0  0  0  0  0  0  0  0  0  0
  139.5563   71.3213  227.1758 H   0  0  0  0  0  0  0  0  0  0  0  0
  141.2229   71.0787  227.6273 H   0  0  0  0  0  0  0  0  0  0  0  0
  141.2721   72.7102  219.8037 H   0  0  0  0  0  0  0  0  0  0  0  0
  141.7536   73.8901  218.4644 H   0  0  0  0  0  0  0  0  0  0  0  0
  143.2927   72.0412  219.6967 H   0  0  0  0  0  0  0  0  0  0  0  0
  144.2126   74.8574  220.5871 H   0  0  0  0  0  0  0  0  0  0  0  0
  143.4758   73.6911  221.7059 H   0  0  0  0  0  0  0  0  0  0  0  0
  146.1209   73.8215  221.2424 H   0  0  0  0  0  0  0  0  0  0  0  0
  145.2304   72.2613  221.6068 H   0  0  0  0  0  0  0  0  0  0  0  0
  146.8770   72.3410  219.6690 H   0  0  0  0  0  0  0  0  0  0  0  0
  146.0854   74.3187  218.6783 H   0  0  0  0  0  0  0  0  0  0  0  0
  145.9400   72.8463  217.6296 H   0  0  0  0  0  0  0  0  0  0  0  0
  143.9235   74.6837  218.2259 H   0  0  0  0  0  0  0  0  0  0  0  0
  143.7369   73.0442  217.4909 H   0  0  0  0  0  0  0  0  0  0  0  0
  1  2  2  0
  2  3  1  0
  3  4  2  0
  4  5  1  0
  5  6  2  0
  6  7  1  0
  6  8  1  0
  8  9  2  0
  9 10  1  0
 10 11  2  0
 11 12  1  0
 12 13  2  0
 13 14  1  0
 14 15  2  0
 15 16  1  0
 16 17  2  0
 17 18  1  0
 18 19  1  0
 19 20  1  0
 20 21  1  0
 21 22  1  0
 22 23  1  0
 18 24  2  0
 11 25  1  0
 25 26  1  0
 26 27  1  0
 27 28  1  0
 28 29  1  0
 29 30  1  0
 30 31  1  0
 31 32  1  0
 25  2  1  0
 32 27  1  0
  9  3  1  0
 24 14  1  0
 23 19  1  0
  4 33  1  0
  5 34  1  0
  8 35  1  0
 12 36  1  0
 13 37  1  0
 15 38  1  0
 16 39  1  0
 17 40  1  0
 20 41  1  0
 20 42  1  0
 21 43  1  0
 21 44  1  0
 22 45  1  0
 22 46  1  0
 23 47  1  0
 23 48  1  0
 26 49  1  0
 26 50  1  0
 27 51  1  0
 28 52  1  0
 28 53  1  0
 29 54  1  0
 29 55  1  0
 30 56  1  0
 31 57  1  0
 31 58  1  0
 32 59  1  0
 32 60  1  0
M  END
>  <smiles>  (12) 
O=c1c2ccc(Cl)cc2nc(/C=C/c2cccc(N3CCCC3)n2)n1CC1CCNCC1

>  <score_type>  (12) 
oracle

>  <origin>  (12) 
autodockgpu

>  <m_score__min__energy>  (12) 
-9.3200000000000003

>  <m_primary>  (12) 
energy

>  <rmsd>  (12) 
4.853560833728371

>  <m_score__min__rmsd>  (12) 
4.853560833728371

>  <meeko>  (12) 
{"free_energy": -8.44, "intermolecular_energy": -10.23, "internal_energy": -1.34, "cluster_size": 23, "cluster_id": 1, "rank_in_cluster": 23}

>  <energy>  (12) 
-9.08

>  <cluster_rmsd>  (12) 
0.7

>  <cluster>  (12) 
1

$$$$

     RDKit          3D

 60 64  0  0  0  0  0  0  0  0999 V2000
  137.2090   78.6520  223.0030 O   0  0  0  0  0  0  0  0  0  0  0  0
  138.2760   77.9920  222.8560 C   0  0  0  0  0  0  0  0  0  0  0  0
  139.4500   78.6940  223.0890 C   0  0  0  0  0  0  0  0  0  0  0  0
  139.4200   80.0200  223.4560 C   0  0  0  0  0  0  0  0  0  0  0  0
  140.6120   80.6970  223.6830 C   0  0  0  0  0  0  0  0  0  0  0  0
  141.8190   80.0110  223.5320 C   0  0  0  0  0  0  0  0  0  0  0  0
  143.3330   80.8610  223.8180 Cl  0  0  0  0  0  0  0  0  0  0  0  0
  141.8000   78.6720  223.1610 C   0  0  0  0  0  0  0  0  0  0  0  0
  140.6260   77.9920  222.9340 C   0  0  0  0  0  0  0  0  0  0  0  0
  140.6450   76.6970  222.5760 N   0  0  0  0  0  0  0  0  0  0  0  0
  139.4750   76.0690  222.3630 C   0  0  0  0  0  0  0  0  0  0  0  0
  139.5720   74.6510  221.9760 C   0  0  0  0  0  0  0  0  0  0  0  0
  140.1110   74.3320  220.8220 C   0  0  0  0  0  0  0  0  0  0  0  0
  141.2550   75.0980  220.3200 C   0  0  0  0  0  0  0  0  0  0  0  0
  142.5340   74.5820  220.2730 C   0  0  0  0  0  0  0  0  0  0  0  0
  143.5780   75.3550  219.7860 C   0  0  0  0  0  0  0  0  0  0  0  0
  143.3770   76.6570  219.3360 C   0  0  0  0  0  0  0  0  0  0  0  0
  142.0810   77.1260  219.4030 C   0  0  0  0  0  0  0  0  0  0  0  0
  141.7930   78.4460  218.9640 N   0  0  0  0  0  0  0  0  0  0  0  0
  142.2340   79.0980  217.7530 C   0  0  0  0  0  0  0  0  0  0  0  0
  142.6500   80.4770  218.2770 C   0  0  0  0  0  0  0  0  0  0  0  0
  141.7830   80.6920  219.4730 C   0  0  0  0  0  0  0  0  0  0  0  0
  140.9770   79.4280  219.6580 C   0  0  0  0  0  0  0  0  0  0  0  0
  141.0880   76.3560  219.8790 N   0  0  0  0  0  0  0  0  0  0  0  0
  138.2750   76.6860  222.4950 N   0  0  0  0  0  0  0  0  0  0  0  0
  137.0610   75.9790  222.2460 C   0  0  0  0  0  0  0  0  0  0  0  0
  136.2880   75.5550  223.4470 C   0  0  0  0  0  0  0  0  0  0  0  0
  135.5910   74.1980  223.2510 C   0  0  0  0  0  0  0  0  0  0  0  0
  135.0740   73.7840  224.5880 C   0  0  0  0  0  0  0  0  0  0  0  0
  134.8170   74.8790  225.4890 N   0  0  0  0  0  0  0  0  0  0  0  0
  134.2370   76.0100  224.8020 C   0  0  0  0  0  0  0  0  0  0  0  0
  135.1470   76.5310  223.7120 C   0  0  0  0  0  0  0  0  0  0  0  0
  138.4578   80.5410  223.5690 H   0  0  0  0  0  0  0  0  0  0  0  0
  140.6050   81.7569  223.9771 H   0  0  0  0  0  0  0  0  0  0  0  0
  142.7549   78.1384  223.0450 H   0  0  0  0  0  0  0  0  0  0  0  0
  139.1960   73.8658  222.6483 H   0  0  0  0  0  0  0  0  0  0  0  0
  139.7060   73.4943  220.2352 H   0  0  0  0  0  0  0  0  0  0  0  0
  142.7259   73.5567  220.6220 H   0  0  0  0  0  0  0  0  0  0  0  0
  144.5912   74.9279  219.7546 H   0  0  0  0  0  0  0  0  0  0  0  0
  144.2015   77.2746  218.9503 H   0  0  0  0  0  0  0  0  0  0  0  0
  143.0844   78.5682  217.2991 H   0  0  0  0  0  0  0  0  0  0  0  0
  141.4714   79.1325  216.9610 H   0  0  0  0  0  0  0  0  0  0  0  0
  143.7130   80.4823  218.5599 H   0  0  0  0  0  0  0  0  0  0  0  0
  142.5297   81.2680  217.5221 H   0  0  0  0  0  0  0  0  0  0  0  0
  142.4032   80.8796  220.3619 H   0  0  0  0  0  0  0  0  0  0  0  0
  141.1261   81.5632  219.3339 H   0  0  0  0  0  0  0  0  0  0  0  0
  140.8675   79.1759  220.7231 H   0  0  0  0  0  0  0  0  0  0  0  0
  139.9474   79.4984  219.2772 H   0  0  0  0  0  0  0  0  0  0  0  0
  136.4118   76.6295  221.6416 H   0  0  0  0  0  0  0  0  0  0  0  0
  137.3610   75.0468  221.7450 H   0  0  0  0  0  0  0  0  0  0  0  0
  137.0226   75.5093  224.2645 H   0  0  0  0  0  0  0  0  0  0  0  0
  134.7597   74.2984  222.5377 H   0  0  0  0  0  0  0  0  0  0  0  0
  136.2890   73.4495  222.8478 H   0  0  0  0  0  0  0  0  0  0  0  0
  134.1338   73.2329  224.4384 H   0  0  0  0  0  0  0  0  0  0  0  0
  135.8594   73.1704  225.0535 H   0  0  0  0  0  0  0  0  0  0  0  0
  134.1550   74.6310  226.2520 H   0  0  0  0  0  0  0  0  0  0  0  0
  133.2820   75.7017  224.3516 H   0  0  0  0  0  0  0  0  0  0  0  0
  134.0858   76.8155  225.5358 H   0  0  0  0  0  0  0  0  0  0  0  0
  134.5643   76.6639  222.7886 H   0  0  0  0  0  0  0  0  0  0  0  0
  135.5730   77.4915  224.0374 H   0  0  0  0  0  0  0  0  0  0  0  0
  1  2  2  0
  2  3  1  0
  3  4  2  0
  4  5  1  0
  5  6  2  0
  6  7  1  0
  6  8  1  0
  8  9  2  0
  9 10  1  0
 10 11  2  0
 11 12  1  0
 12 13  2  0
 13 14  1  0
 14 15  2  0
 15 16  1  0
 16 17  2  0
 17 18  1  0
 18 19  1  0
 19 20  1  0
 20 21  1  0
 21 22  1  0
 22 23  1  0
 18 24  2  0
 11 25  1  0
 25 26  1  0
 26 27  1  0
 27 28  1  0
 28 29  1  0
 29 30  1  0
 30 31  1  0
 31 32  1  0
 25  2  1  0
 32 27  1  0
  9  3  1  0
 24 14  1  0
 23 19  1  0
  4 33  1  0
  5 34  1  0
  8 35  1  0
 12 36  1  0
 13 37  1  0
 15 38  1  0
 16 39  1  0
 17 40  1  0
 20 41  1  0
 20 42  1  0
 21 43  1  0
 21 44  1  0
 22 45  1  0
 22 46  1  0
 23 47  1  0
 23 48  1  0
 26 49  1  0
 26 50  1  0
 27 51  1  0
 28 52  1  0
 28 53  1  0
 29 54  1  0
 29 55  1  0
 30 56  1  0
 31 57  1  0
 31 58  1  0
 32 59  1  0
 32 60  1  0
M  END
>  <smiles>  (13) 
O=c1c2ccc(Cl)cc2nc(/C=C/c2cccc(N3CCCC3)n2)n1CC1CCNCC1

>  <score_type>  (13) 
oracle

>  <origin>  (13) 
autodockgpu

>  <m_score__min__energy>  (13) 
-9.3200000000000003

>  <m_primary>  (13) 
energy

>  <rmsd>  (13) 
5.942092045963368

>  <m_score__min__rmsd>  (13) 
5.942092045963368

>  <meeko>  (13) 
{"free_energy": -7.13, "intermolecular_energy": -8.92, "internal_energy": -2.31, "cluster_size": 1, "cluster_id": 8, "rank_in_cluster": 1}

>  <energy>  (13) 
-8.97

>  <cluster_rmsd>  (13) 
1.07

>  <cluster>  (13) 
1

$$$$

     RDKit          3D

 60 64  0  0  0  0  0  0  0  0999 V2000
  137.4790   78.0540  222.7330 O   0  0  0  0  0  0  0  0  0  0  0  0
  138.7370   78.0000  222.8320 C   0  0  0  0  0  0  0  0  0  0  0  0
  139.3250   76.8430  222.3430 C   0  0  0  0  0  0  0  0  0  0  0  0
  138.5620   75.8390  221.7920 C   0  0  0  0  0  0  0  0  0  0  0  0
  139.1790   74.6900  221.3100 C   0  0  0  0  0  0  0  0  0  0  0  0
  140.5690   74.5830  221.3970 C   0  0  0  0  0  0  0  0  0  0  0  0
  141.3580   73.1330  220.7880 Cl  0  0  0  0  0  0  0  0  0  0  0  0
  141.2990   75.6220  221.9600 C   0  0  0  0  0  0  0  0  0  0  0  0
  140.6980   76.7630  222.4400 C   0  0  0  0  0  0  0  0  0  0  0  0
  141.4360   77.7480  222.9790 N   0  0  0  0  0  0  0  0  0  0  0  0
  140.8090   78.8460  223.4370 C   0  0  0  0  0  0  0  0  0  0  0  0
  141.6800   79.8860  224.0120 C   0  0  0  0  0  0  0  0  0  0  0  0
  142.4760   80.5700  223.2230 C   0  0  0  0  0  0  0  0  0  0  0  0
  142.0950   80.7940  221.8250 C   0  0  0  0  0  0  0  0  0  0  0  0
  141.7590   82.0390  221.3350 C   0  0  0  0  0  0  0  0  0  0  0  0
  141.4060   82.1890  220.0020 C   0  0  0  0  0  0  0  0  0  0  0  0
  141.3790   81.1070  219.1250 C   0  0  0  0  0  0  0  0  0  0  0  0
  141.7240   79.8850  219.6640 C   0  0  0  0  0  0  0  0  0  0  0  0
  141.7200   78.7310  218.8350 N   0  0  0  0  0  0  0  0  0  0  0  0
  140.9260   77.5340  218.9780 C   0  0  0  0  0  0  0  0  0  0  0  0
  141.9670   76.4380  218.7240 C   0  0  0  0  0  0  0  0  0  0  0  0
  142.9620   77.0810  217.8160 C   0  0  0  0  0  0  0  0  0  0  0  0
  142.5320   78.5190  217.6480 C   0  0  0  0  0  0  0  0  0  0  0  0
  142.0610   79.7680  220.9600 N   0  0  0  0  0  0  0  0  0  0  0  0
  139.4640   79.0030  223.3780 N   0  0  0  0  0  0  0  0  0  0  0  0
  138.8460   80.1840  223.8890 C   0  0  0  0  0  0  0  0  0  0  0  0
  138.6720   81.3060  222.9240 C   0  0  0  0  0  0  0  0  0  0  0  0
  137.3790   82.1000  223.1710 C   0  0  0  0  0  0  0  0  0  0  0  0
  137.4550   83.3220  222.3170 C   0  0  0  0  0  0  0  0  0  0  0  0
  138.2920   83.1790  221.1530 N   0  0  0  0  0  0  0  0  0  0  0  0
  138.1460   81.8740  220.5480 C   0  0  0  0  0  0  0  0  0  0  0  0
  138.5200   80.7670  221.5080 C   0  0  0  0  0  0  0  0  0  0  0  0
  137.4687   75.9450  221.7332 H   0  0  0  0  0  0  0  0  0  0  0  0
  138.5824   73.8787  220.8675 H   0  0  0  0  0  0  0  0  0  0  0  0
  142.3932   75.5297  222.0242 H   0  0  0  0  0  0  0  0  0  0  0  0
  141.6635   80.0877  225.0932 H   0  0  0  0  0  0  0  0  0  0  0  0
  143.4240   80.9730  223.6089 H   0  0  0  0  0  0  0  0  0  0  0  0
  141.7710   82.9136  222.0020 H   0  0  0  0  0  0  0  0  0  0  0  0
  141.1404   83.1886  219.6276 H   0  0  0  0  0  0  0  0  0  0  0  0
  141.0996   81.2202  218.0671 H   0  0  0  0  0  0  0  0  0  0  0  0
  140.4987   77.4547  219.9885 H   0  0  0  0  0  0  0  0  0  0  0  0
  140.0584   77.4906  218.3032 H   0  0  0  0  0  0  0  0  0  0  0  0
  142.4426   76.1260  219.6655 H   0  0  0  0  0  0  0  0  0  0  0  0
  141.5248   75.5298  218.2886 H   0  0  0  0  0  0  0  0  0  0  0  0
  143.9666   77.0355  218.2618 H   0  0  0  0  0  0  0  0  0  0  0  0
  143.0029   76.5647  216.8455 H   0  0  0  0  0  0  0  0  0  0  0  0
  143.3987   79.1961  217.6302 H   0  0  0  0  0  0  0  0  0  0  0  0
  142.0004   78.7162  216.7054 H   0  0  0  0  0  0  0  0  0  0  0  0
  137.8498   79.9062  224.2637 H   0  0  0  0  0  0  0  0  0  0  0  0
  139.5308   80.5638  224.6615 H   0  0  0  0  0  0  0  0  0  0  0  0
  139.5598   81.9421  223.0550 H   0  0  0  0  0  0  0  0  0  0  0  0
  136.5038   81.4956  222.8906 H   0  0  0  0  0  0  0  0  0  0  0  0
  137.2754   82.3660  224.2333 H   0  0  0  0  0  0  0  0  0  0  0  0
  136.4377   83.5720  221.9815 H   0  0  0  0  0  0  0  0  0  0  0  0
  137.9065   84.1117  222.9354 H   0  0  0  0  0  0  0  0  0  0  0  0
  138.0730   83.8710  220.4080 H   0  0  0  0  0  0  0  0  0  0  0  0
  137.0988   81.7394  220.2393 H   0  0  0  0  0  0  0  0  0  0  0  0
  138.8224   81.8200  219.6823 H   0  0  0  0  0  0  0  0  0  0  0  0
  137.7324   79.9992  221.4972 H   0  0  0  0  0  0  0  0  0  0  0  0
  139.4807   80.3354  221.1906 H   0  0  0  0  0  0  0  0  0  0  0  0
  1  2  2  0
  2  3  1  0
  3  4  2  0
  4  5  1  0
  5  6  2  0
  6  7  1  0
  6  8  1  0
  8  9  2  0
  9 10  1  0
 10 11  2  0
 11 12  1  0
 12 13  2  0
 13 14  1  0
 14 15  2  0
 15 16  1  0
 16 17  2  0
 17 18  1  0
 18 19  1  0
 19 20  1  0
 20 21  1  0
 21 22  1  0
 22 23  1  0
 18 24  2  0
 11 25  1  0
 25 26  1  0
 26 27  1  0
 27 28  1  0
 28 29  1  0
 29 30  1  0
 30 31  1  0
 31 32  1  0
 25  2  1  0
 32 27  1  0
  9  3  1  0
 24 14  1  0
 23 19  1  0
  4 33  1  0
  5 34  1  0
  8 35  1  0
 12 36  1  0
 13 37  1  0
 15 38  1  0
 16 39  1  0
 17 40  1  0
 20 41  1  0
 20 42  1  0
 21 43  1  0
 21 44  1  0
 22 45  1  0
 22 46  1  0
 23 47  1  0
 23 48  1  0
 26 49  1  0
 26 50  1  0
 27 51  1  0
 28 52  1  0
 28 53  1  0
 29 54  1  0
 29 55  1  0
 30 56  1  0
 31 57  1  0
 31 58  1  0
 32 59  1  0
 32 60  1  0
M  END
>  <smiles>  (14) 
O=c1c2ccc(Cl)cc2nc(/C=C/c2cccc(N3CCCC3)n2)n1CC1CCNCC1

>  <score_type>  (14) 
oracle

>  <origin>  (14) 
autodockgpu

>  <m_score__min__energy>  (14) 
-9.3200000000000003

>  <m_primary>  (14) 
energy

>  <rmsd>  (14) 
7.066354926520066

>  <m_score__min__rmsd>  (14) 
7.066354926520066

>  <meeko>  (14) 
{"free_energy": -6.14, "intermolecular_energy": -7.93, "internal_energy": -3.26, "cluster_size": 6, "cluster_id": 9, "rank_in_cluster": 3}

>  <energy>  (14) 
-8.95

>  <cluster_rmsd>  (14) 
0.83

>  <cluster>  (14) 
1

$$$$

     RDKit          3D

 60 64  0  0  0  0  0  0  0  0999 V2000
  142.8130   76.4990  218.8820 O   0  0  0  0  0  0  0  0  0  0  0  0
  142.1330   76.0250  219.8350 C   0  0  0  0  0  0  0  0  0  0  0  0
  141.6610   76.9530  220.7510 C   0  0  0  0  0  0  0  0  0  0  0  0
  141.9300   78.2940  220.6030 C   0  0  0  0  0  0  0  0  0  0  0  0
  141.4440   79.2010  221.5370 C   0  0  0  0  0  0  0  0  0  0  0  0
  140.6870   78.7250  222.6110 C   0  0  0  0  0  0  0  0  0  0  0  0
  140.0660   79.8670  223.7960 Cl  0  0  0  0  0  0  0  0  0  0  0  0
  140.4390   77.3630  222.7190 C   0  0  0  0  0  0  0  0  0  0  0  0
  140.9160   76.4560  221.8000 C   0  0  0  0  0  0  0  0  0  0  0  0
  140.6570   75.1450  221.9370 N   0  0  0  0  0  0  0  0  0  0  0  0
  141.1420   74.2930  221.0170 C   0  0  0  0  0  0  0  0  0  0  0  0
  140.8180   72.8710  221.2280 C   0  0  0  0  0  0  0  0  0  0  0  0
  139.6110   72.5370  221.6250 C   0  0  0  0  0  0  0  0  0  0  0  0
  139.4400   71.4550  222.5980 C   0  0  0  0  0  0  0  0  0  0  0  0
  138.6880   70.3290  222.3360 C   0  0  0  0  0  0  0  0  0  0  0  0
  138.5630   69.3370  223.2990 C   0  0  0  0  0  0  0  0  0  0  0  0
  139.1820   69.4410  224.5420 C   0  0  0  0  0  0  0  0  0  0  0  0
  139.9220   70.5850  224.7540 C   0  0  0  0  0  0  0  0  0  0  0  0
  140.5850   70.7670  225.9980 N   0  0  0  0  0  0  0  0  0  0  0  0
  140.4970   69.9460  227.1820 C   0  0  0  0  0  0  0  0  0  0  0  0
  140.3580   71.0020  228.2840 C   0  0  0  0  0  0  0  0  0  0  0  0
  141.0680   72.1970  227.7380 C   0  0  0  0  0  0  0  0  0  0  0  0
  141.5050   71.8400  226.3370 C   0  0  0  0  0  0  0  0  0  0  0  0
  140.0270   71.5310  223.8040 N   0  0  0  0  0  0  0  0  0  0  0  0
  141.8820   74.6990  219.9560 N   0  0  0  0  0  0  0  0  0  0  0  0
  142.3840   73.7530  219.0130 C   0  0  0  0  0  0  0  0  0  0  0  0
  143.7120   73.1520  219.3260 C   0  0  0  0  0  0  0  0  0  0  0  0
  143.6150   71.6590  219.6770 C   0  0  0  0  0  0  0  0  0  0  0  0
  145.0120   71.1360  219.7190 C   0  0  0  0  0  0  0  0  0  0  0  0
  146.0090   72.1330  220.0140 N   0  0  0  0  0  0  0  0  0  0  0  0
  145.5490   73.0660  221.0180 C   0  0  0  0  0  0  0  0  0  0  0  0
  144.3020   73.7970  220.5740 C   0  0  0  0  0  0  0  0  0  0  0  0
  142.5271   78.6467  219.7492 H   0  0  0  0  0  0  0  0  0  0  0  0
  141.6518   80.2761  221.4327 H   0  0  0  0  0  0  0  0  0  0  0  0
  139.8416   76.9968  223.5670 H   0  0  0  0  0  0  0  0  0  0  0  0
  141.5796   72.0964  221.0547 H   0  0  0  0  0  0  0  0  0  0  0  0
  138.7326   73.0674  221.2286 H   0  0  0  0  0  0  0  0  0  0  0  0
  138.1869   70.2169  221.3632 H   0  0  0  0  0  0  0  0  0  0  0  0
  137.9592   68.4454  223.0743 H   0  0  0  0  0  0  0  0  0  0  0  0
  139.0864   68.6578  225.3085 H   0  0  0  0  0  0  0  0  0  0  0  0
  139.6184   69.2851  227.1471 H   0  0  0  0  0  0  0  0  0  0  0  0
  141.3522   69.2679  227.3192 H   0  0  0  0  0  0  0  0  0  0  0  0
  139.2989   71.2305  228.4740 H   0  0  0  0  0  0  0  0  0  0  0  0
  140.7758   70.6661  229.2445 H   0  0  0  0  0  0  0  0  0  0  0  0
  140.3899   73.0628  227.7145 H   0  0  0  0  0  0  0  0  0  0  0  0
  141.9309   72.4652  228.3653 H   0  0  0  0  0  0  0  0  0  0  0  0
  141.3922   72.6942  225.6532 H   0  0  0  0  0  0  0  0  0  0  0  0
  142.5650   71.5559  226.2618 H   0  0  0  0  0  0  0  0  0  0  0  0
  141.6540   72.9335  218.9388 H   0  0  0  0  0  0  0  0  0  0  0  0
  142.5289   74.3167  218.0796 H   0  0  0  0  0  0  0  0  0  0  0  0
  144.3222   73.3082  218.4242 H   0  0  0  0  0  0  0  0  0  0  0  0
  143.1327   71.5307  220.6573 H   0  0  0  0  0  0  0  0  0  0  0  0
  143.0119   71.1165  218.9340 H   0  0  0  0  0  0  0  0  0  0  0  0
  145.0649   70.3562  220.4930 H   0  0  0  0  0  0  0  0  0  0  0  0
  145.2361   70.7543  218.7120 H   0  0  0  0  0  0  0  0  0  0  0  0
  146.8950   71.7270  220.3790 H   0  0  0  0  0  0  0  0  0  0  0  0
  145.3278   72.5135  221.9431 H   0  0  0  0  0  0  0  0  0  0  0  0
  146.3420   73.8103  221.1828 H   0  0  0  0  0  0  0  0  0  0  0  0
  143.5575   73.7643  221.3831 H   0  0  0  0  0  0  0  0  0  0  0  0
  144.5682   74.8384  220.3403 H   0  0  0  0  0  0  0  0  0  0  0  0
  1  2  2  0
  2  3  1  0
  3  4  2  0
  4  5  1  0
  5  6  2  0
  6  7  1  0
  6  8  1  0
  8  9  2  0
  9 10  1  0
 10 11  2  0
 11 12  1  0
 12 13  2  0
 13 14  1  0
 14 15  2  0
 15 16  1  0
 16 17  2  0
 17 18  1  0
 18 19  1  0
 19 20  1  0
 20 21  1  0
 21 22  1  0
 22 23  1  0
 18 24  2  0
 11 25  1  0
 25 26  1  0
 26 27  1  0
 27 28  1  0
 28 29  1  0
 29 30  1  0
 30 31  1  0
 31 32  1  0
 25  2  1  0
 32 27  1  0
  9  3  1  0
 24 14  1  0
 23 19  1  0
  4 33  1  0
  5 34  1  0
  8 35  1  0
 12 36  1  0
 13 37  1  0
 15 38  1  0
 16 39  1  0
 17 40  1  0
 20 41  1  0
 20 42  1  0
 21 43  1  0
 21 44  1  0
 22 45  1  0
 22 46  1  0
 23 47  1  0
 23 48  1  0
 26 49  1  0
 26 50  1  0
 27 51  1  0
 28 52  1  0
 28 53  1  0
 29 54  1  0
 29 55  1  0
 30 56  1  0
 31 57  1  0
 31 58  1  0
 32 59  1  0
 32 60  1  0
M  END
>  <smiles>  (15) 
O=c1c2ccc(Cl)cc2nc(/C=C/c2cccc(N3CCCC3)n2)n1CC1CCNCC1

>  <score_type>  (15) 
oracle

>  <origin>  (15) 
autodockgpu

>  <m_score__min__energy>  (15) 
-9.3200000000000003

>  <m_primary>  (15) 
energy

>  <rmsd>  (15) 
5.279061163091531

>  <m_score__min__rmsd>  (15) 
5.279061163091531

>  <meeko>  (15) 
{"free_energy": -9.08, "intermolecular_energy": -10.87, "internal_energy": -1.47, "cluster_size": 23, "cluster_id": 1, "rank_in_cluster": 12}

>  <energy>  (15) 
-8.9

>  <cluster_rmsd>  (15) 
1.05

>  <cluster>  (15) 
1

$$$$

     RDKit          3D

 60 64  0  0  0  0  0  0  0  0999 V2000
  139.3570   77.0610  220.3340 O   0  0  0  0  0  0  0  0  0  0  0  0
  140.3840   77.3420  219.6540 C   0  0  0  0  0  0  0  0  0  0  0  0
  141.4680   76.4950  219.8320 C   0  0  0  0  0  0  0  0  0  0  0  0
  141.3970   75.4280  220.6980 C   0  0  0  0  0  0  0  0  0  0  0  0
  142.5000   74.5960  220.8560 C   0  0  0  0  0  0  0  0  0  0  0  0
  143.6600   74.8660  220.1260 C   0  0  0  0  0  0  0  0  0  0  0  0
  145.0590   73.8170  220.3200 Cl  0  0  0  0  0  0  0  0  0  0  0  0
  143.6850   75.9540  219.2630 C   0  0  0  0  0  0  0  0  0  0  0  0
  142.5990   76.7830  219.0990 C   0  0  0  0  0  0  0  0  0  0  0  0
  142.6590   77.8270  218.2550 N   0  0  0  0  0  0  0  0  0  0  0  0
  141.5770   78.6140  218.1250 C   0  0  0  0  0  0  0  0  0  0  0  0
  141.7120   79.7370  217.1810 C   0  0  0  0  0  0  0  0  0  0  0  0
  142.3270   80.8320  217.5660 C   0  0  0  0  0  0  0  0  0  0  0  0
  141.8940   81.5150  218.7890 C   0  0  0  0  0  0  0  0  0  0  0  0
  141.4440   82.8190  218.7940 C   0  0  0  0  0  0  0  0  0  0  0  0
  141.0480   83.4120  219.9840 C   0  0  0  0  0  0  0  0  0  0  0  0
  141.0910   82.7260  221.1950 C   0  0  0  0  0  0  0  0  0  0  0  0
  141.5480   81.4260  221.1360 C   0  0  0  0  0  0  0  0  0  0  0  0
  141.6230   80.6570  222.3290 N   0  0  0  0  0  0  0  0  0  0  0  0
  142.5550   79.6040  222.6530 C   0  0  0  0  0  0  0  0  0  0  0  0
  141.6290   78.5460  223.2620 C   0  0  0  0  0  0  0  0  0  0  0  0
  140.5060   79.3350  223.8470 C   0  0  0  0  0  0  0  0  0  0  0  0
  140.7580   80.7810  223.4900 C   0  0  0  0  0  0  0  0  0  0  0  0
  141.9260   80.8750  219.9690 N   0  0  0  0  0  0  0  0  0  0  0  0
  140.4250   78.3990  218.8080 N   0  0  0  0  0  0  0  0  0  0  0  0
  139.3070   79.2700  218.6430 C   0  0  0  0  0  0  0  0  0  0  0  0
  138.9100   80.0660  219.8380 C   0  0  0  0  0  0  0  0  0  0  0  0
  137.7890   79.3930  220.6480 C   0  0  0  0  0  0  0  0  0  0  0  0
  137.6680   80.1530  221.9270 C   0  0  0  0  0  0  0  0  0  0  0  0
  138.1130   81.5210  221.8470 N   0  0  0  0  0  0  0  0  0  0  0  0
  137.7300   82.1350  220.5960 C   0  0  0  0  0  0  0  0  0  0  0  0
  138.3170   81.4030  219.4100 C   0  0  0  0  0  0  0  0  0  0  0  0
  140.4728   75.2342  221.2622 H   0  0  0  0  0  0  0  0  0  0  0  0
  142.4597   73.7392  221.5446 H   0  0  0  0  0  0  0  0  0  0  0  0
  144.6026   76.1596  218.6922 H   0  0  0  0  0  0  0  0  0  0  0  0
  141.3017   79.6592  216.1634 H   0  0  0  0  0  0  0  0  0  0  0  0
  143.1623   81.2344  216.9741 H   0  0  0  0  0  0  0  0  0  0  0  0
  141.3991   83.3888  217.8541 H   0  0  0  0  0  0  0  0  0  0  0  0
  140.6904   84.4522  219.9705 H   0  0  0  0  0  0  0  0  0  0  0  0
  140.7794   83.1925  222.1412 H   0  0  0  0  0  0  0  0  0  0  0  0
  143.0600   79.2244  221.7525 H   0  0  0  0  0  0  0  0  0  0  0  0
  143.3713   79.9197  223.3193 H   0  0  0  0  0  0  0  0  0  0  0  0
  141.2601   77.8579  222.4871 H   0  0  0  0  0  0  0  0  0  0  0  0
  142.1385   77.9205  224.0097 H   0  0  0  0  0  0  0  0  0  0  0  0
  139.5474   79.0015  223.4229 H   0  0  0  0  0  0  0  0  0  0  0  0
  140.4543   79.2003  224.9375 H   0  0  0  0  0  0  0  0  0  0  0  0
  139.8215   81.2998  223.2375 H   0  0  0  0  0  0  0  0  0  0  0  0
  141.1952   81.3712  224.3089 H   0  0  0  0  0  0  0  0  0  0  0  0
  139.5483   79.9761  217.8348 H   0  0  0  0  0  0  0  0  0  0  0  0
  138.4512   78.6125  218.4303 H   0  0  0  0  0  0  0  0  0  0  0  0
  139.8269   80.1678  220.4371 H   0  0  0  0  0  0  0  0  0  0  0  0
  136.8413   79.4349  220.0911 H   0  0  0  0  0  0  0  0  0  0  0  0
  138.0188   78.3341  220.8373 H   0  0  0  0  0  0  0  0  0  0  0  0
  136.6106   80.1517  222.2300 H   0  0  0  0  0  0  0  0  0  0  0  0
  138.3215   79.6507  222.6555 H   0  0  0  0  0  0  0  0  0  0  0  0
  137.7170   82.1220  222.5990 H   0  0  0  0  0  0  0  0  0  0  0  0
  136.6331   82.1235  220.5145 H   0  0  0  0  0  0  0  0  0  0  0  0
  138.1155   83.1652  220.5878 H   0  0  0  0  0  0  0  0  0  0  0  0
  137.5247   81.2250  218.6680 H   0  0  0  0  0  0  0  0  0  0  0  0
  139.1171   82.0204  218.9756 H   0  0  0  0  0  0  0  0  0  0  0  0
  1  2  2  0
  2  3  1  0
  3  4  2  0
  4  5  1  0
  5  6  2  0
  6  7  1  0
  6  8  1  0
  8  9  2  0
  9 10  1  0
 10 11  2  0
 11 12  1  0
 12 13  2  0
 13 14  1  0
 14 15  2  0
 15 16  1  0
 16 17  2  0
 17 18  1  0
 18 19  1  0
 19 20  1  0
 20 21  1  0
 21 22  1  0
 22 23  1  0
 18 24  2  0
 11 25  1  0
 25 26  1  0
 26 27  1  0
 27 28  1  0
 28 29  1  0
 29 30  1  0
 30 31  1  0
 31 32  1  0
 25  2  1  0
 32 27  1  0
  9  3  1  0
 24 14  1  0
 23 19  1  0
  4 33  1  0
  5 34  1  0
  8 35  1  0
 12 36  1  0
 13 37  1  0
 15 38  1  0
 16 39  1  0
 17 40  1  0
 20 41  1  0
 20 42  1  0
 21 43  1  0
 21 44  1  0
 22 45  1  0
 22 46  1  0
 23 47  1  0
 23 48  1  0
 26 49  1  0
 26 50  1  0
 27 51  1  0
 28 52  1  0
 28 53  1  0
 29 54  1  0
 29 55  1  0
 30 56  1  0
 31 57  1  0
 31 58  1  0
 32 59  1  0
 32 60  1  0
M  END
>  <smiles>  (16) 
O=c1c2ccc(Cl)cc2nc(/C=C/c2cccc(N3CCCC3)n2)n1CC1CCNCC1

>  <score_type>  (16) 
oracle

>  <origin>  (16) 
autodockgpu

>  <m_score__min__energy>  (16) 
-9.3200000000000003

>  <m_primary>  (16) 
energy

>  <rmsd>  (16) 
6.368664708315163

>  <m_score__min__rmsd>  (16) 
6.368664708315163

>  <meeko>  (16) 
{"free_energy": -5.6, "intermolecular_energy": -7.39, "internal_energy": -3.5, "cluster_size": 1, "cluster_id": 11, "rank_in_cluster": 1}

>  <energy>  (16) 
-8.89

>  <cluster_rmsd>  (16) 
0.7

>  <cluster>  (16) 
1

$$$$

     RDKit          3D

 60 64  0  0  0  0  0  0  0  0999 V2000
  144.4360   75.6750  220.2280 O   0  0  0  0  0  0  0  0  0  0  0  0
  143.4730   74.8570  220.2360 C   0  0  0  0  0  0  0  0  0  0  0  0
  143.8170   73.5270  220.0380 C   0  0  0  0  0  0  0  0  0  0  0  0
  145.1290   73.1560  219.8500 C   0  0  0  0  0  0  0  0  0  0  0  0
  145.4440   71.8170  219.6540 C   0  0  0  0  0  0  0  0  0  0  0  0
  144.4140   70.8730  219.6530 C   0  0  0  0  0  0  0  0  0  0  0  0
  144.8050   69.1760  219.4070 Cl  0  0  0  0  0  0  0  0  0  0  0  0
  143.1040   71.2940  219.8480 C   0  0  0  0  0  0  0  0  0  0  0  0
  142.7810   72.6180  220.0430 C   0  0  0  0  0  0  0  0  0  0  0  0
  141.5040   72.9890  220.2270 N   0  0  0  0  0  0  0  0  0  0  0  0
  141.2310   74.2920  220.4140 C   0  0  0  0  0  0  0  0  0  0  0  0
  139.8100   74.6260  220.6120 C   0  0  0  0  0  0  0  0  0  0  0  0
  139.3550   74.8140  221.8300 C   0  0  0  0  0  0  0  0  0  0  0  0
  138.9170   76.1500  222.2430 C   0  0  0  0  0  0  0  0  0  0  0  0
  137.5870   76.4980  222.3520 C   0  0  0  0  0  0  0  0  0  0  0  0
  137.2340   77.7800  222.7480 C   0  0  0  0  0  0  0  0  0  0  0  0
  138.1930   78.7450  223.0450 C   0  0  0  0  0  0  0  0  0  0  0  0
  139.5080   78.3480  222.9210 C   0  0  0  0  0  0  0  0  0  0  0  0
  140.5470   79.2750  223.2050 N   0  0  0  0  0  0  0  0  0  0  0  0
  140.5820   80.6880  222.9160 C   0  0  0  0  0  0  0  0  0  0  0  0
  142.0000   80.8570  222.3590 C   0  0  0  0  0  0  0  0  0  0  0  0
  142.7870   79.7790  223.0270 C   0  0  0  0  0  0  0  0  0  0  0  0
  141.8110   78.9800  223.8590 C   0  0  0  0  0  0  0  0  0  0  0  0
  139.8230   77.0990  222.5350 N   0  0  0  0  0  0  0  0  0  0  0  0
  142.1910   75.2490  220.4240 N   0  0  0  0  0  0  0  0  0  0  0  0
  141.8480   76.6220  220.6140 C   0  0  0  0  0  0  0  0  0  0  0  0
  142.2890   77.5640  219.5470 C   0  0  0  0  0  0  0  0  0  0  0  0
  141.4840   78.8750  219.5500 C   0  0  0  0  0  0  0  0  0  0  0  0
  142.1820   79.8090  218.6170 C   0  0  0  0  0  0  0  0  0  0  0  0
  142.9570   79.1550  217.5940 N   0  0  0  0  0  0  0  0  0  0  0  0
  142.2850   77.9820  217.0830 C   0  0  0  0  0  0  0  0  0  0  0  0
  142.0290   76.9630  218.1720 C   0  0  0  0  0  0  0  0  0  0  0  0
  145.9243   73.9159  219.8549 H   0  0  0  0  0  0  0  0  0  0  0  0
  146.4878   71.5051  219.5020 H   0  0  0  0  0  0  0  0  0  0  0  0
  142.2987   70.5447  219.8465 H   0  0  0  0  0  0  0  0  0  0  0  0
  139.1358   74.7172  219.7476 H   0  0  0  0  0  0  0  0  0  0  0  0
  139.3030   73.9725  222.5365 H   0  0  0  0  0  0  0  0  0  0  0  0
  136.8052   75.7583  222.1247 H   0  0  0  0  0  0  0  0  0  0  0  0
  136.1685   78.0410  222.8295 H   0  0  0  0  0  0  0  0  0  0  0  0
  137.9183   79.7626  223.3596 H   0  0  0  0  0  0  0  0  0  0  0  0
  139.8226   80.9634  222.1694 H   0  0  0  0  0  0  0  0  0  0  0  0
  140.3648   81.3267  223.7848 H   0  0  0  0  0  0  0  0  0  0  0  0
  142.0082   80.7263  221.2668 H   0  0  0  0  0  0  0  0  0  0  0  0
  142.4112   81.8591  222.5506 H   0  0  0  0  0  0  0  0  0  0  0  0
  143.2603   79.1327  222.2732 H   0  0  0  0  0  0  0  0  0  0  0  0
  143.5860   80.2028  223.6531 H   0  0  0  0  0  0  0  0  0  0  0  0
  142.0396   77.9047  223.8210 H   0  0  0  0  0  0  0  0  0  0  0  0
  141.8274   79.2341  224.9291 H   0  0  0  0  0  0  0  0  0  0  0  0
  140.7524   76.6872  220.6874 H   0  0  0  0  0  0  0  0  0  0  0  0
  142.3822   76.9358  221.5229 H   0  0  0  0  0  0  0  0  0  0  0  0
  143.3544   77.7520  219.7459 H   0  0  0  0  0  0  0  0  0  0  0  0
  140.4567   78.6899  219.2030 H   0  0  0  0  0  0  0  0  0  0  0  0
  141.4230   79.2996  220.5629 H   0  0  0  0  0  0  0  0  0  0  0  0
  141.4235   80.4366  218.1263 H   0  0  0  0  0  0  0  0  0  0  0  0
  142.8901   80.3912  219.2250 H   0  0  0  0  0  0  0  0  0  0  0  0
  143.1420   79.7650  216.7730 H   0  0  0  0  0  0  0  0  0  0  0  0
  141.3224   78.2852  216.6454 H   0  0  0  0  0  0  0  0  0  0  0  0
  142.9343   77.5181  216.3259 H   0  0  0  0  0  0  0  0  0  0  0  0
  140.9820   76.6305  218.1159 H   0  0  0  0  0  0  0  0  0  0  0  0
  142.7096   76.1114  218.0250 H   0  0  0  0  0  0  0  0  0  0  0  0
  1  2  2  0
  2  3  1  0
  3  4  2  0
  4  5  1  0
  5  6  2  0
  6  7  1  0
  6  8  1  0
  8  9  2  0
  9 10  1  0
 10 11  2  0
 11 12  1  0
 12 13  2  0
 13 14  1  0
 14 15  2  0
 15 16  1  0
 16 17  2  0
 17 18  1  0
 18 19  1  0
 19 20  1  0
 20 21  1  0
 21 22  1  0
 22 23  1  0
 18 24  2  0
 11 25  1  0
 25 26  1  0
 26 27  1  0
 27 28  1  0
 28 29  1  0
 29 30  1  0
 30 31  1  0
 31 32  1  0
 25  2  1  0
 32 27  1  0
  9  3  1  0
 24 14  1  0
 23 19  1  0
  4 33  1  0
  5 34  1  0
  8 35  1  0
 12 36  1  0
 13 37  1  0
 15 38  1  0
 16 39  1  0
 17 40  1  0
 20 41  1  0
 20 42  1  0
 21 43  1  0
 21 44  1  0
 22 45  1  0
 22 46  1  0
 23 47  1  0
 23 48  1  0
 26 49  1  0
 26 50  1  0
 27 51  1  0
 28 52  1  0
 28 53  1  0
 29 54  1  0
 29 55  1  0
 30 56  1  0
 31 57  1  0
 31 58  1  0
 32 59  1  0
 32 60  1  0
M  END
>  <smiles>  (17) 
O=c1c2ccc(Cl)cc2nc(/C=C/c2cccc(N3CCCC3)n2)n1CC1CCNCC1

>  <score_type>  (17) 
oracle

>  <origin>  (17) 
autodockgpu

>  <m_score__min__energy>  (17) 
-9.3200000000000003

>  <m_primary>  (17) 
energy

>  <rmsd>  (17) 
7.98128433174803

>  <m_score__min__rmsd>  (17) 
7.98128433174803

>  <meeko>  (17) 
{"free_energy": -7.35, "intermolecular_energy": -9.14, "internal_energy": -2.2, "cluster_size": 8, "cluster_id": 6, "rank_in_cluster": 8}

>  <energy>  (17) 
-8.81

>  <cluster_rmsd>  (17) 
0.73

>  <cluster>  (17) 
1

$$$$

     RDKit          3D

 60 64  0  0  0  0  0  0  0  0999 V2000
  146.0640   73.0120  219.2370 O   0  0  0  0  0  0  0  0  0  0  0  0
  145.0160   72.4480  219.6610 C   0  0  0  0  0  0  0  0  0  0  0  0
  144.9500   71.0780  219.4570 C   0  0  0  0  0  0  0  0  0  0  0  0
  145.9750   70.4060  218.8310 C   0  0  0  0  0  0  0  0  0  0  0  0
  145.8810   69.0320  218.6400 C   0  0  0  0  0  0  0  0  0  0  0  0
  144.7410   68.3630  219.0910 C   0  0  0  0  0  0  0  0  0  0  0  0
  144.6150   66.6250  218.8530 Cl  0  0  0  0  0  0  0  0  0  0  0  0
  143.7310   69.0830  219.7170 C   0  0  0  0  0  0  0  0  0  0  0  0
  143.8140   70.4430  219.9120 C   0  0  0  0  0  0  0  0  0  0  0  0
  142.8180   71.1070  220.5220 N   0  0  0  0  0  0  0  0  0  0  0  0
  142.9380   72.4360  220.6910 C   0  0  0  0  0  0  0  0  0  0  0  0
  141.8100   73.0980  221.3700 C   0  0  0  0  0  0  0  0  0  0  0  0
  140.9460   73.7880  220.6610 C   0  0  0  0  0  0  0  0  0  0  0  0
  140.1370   74.8230  221.3100 C   0  0  0  0  0  0  0  0  0  0  0  0
  138.8320   74.6110  221.7040 C   0  0  0  0  0  0  0  0  0  0  0  0
  138.1160   75.6300  222.3140 C   0  0  0  0  0  0  0  0  0  0  0  0
  138.6780   76.8830  222.5470 C   0  0  0  0  0  0  0  0  0  0  0  0
  139.9850   77.0440  222.1350 C   0  0  0  0  0  0  0  0  0  0  0  0
  140.6300   78.2940  222.3360 N   0  0  0  0  0  0  0  0  0  0  0  0
  141.7780   78.8250  221.6410 C   0  0  0  0  0  0  0  0  0  0  0  0
  142.6110   79.3850  222.8000 C   0  0  0  0  0  0  0  0  0  0  0  0
  141.6000   79.7470  223.8370 C   0  0  0  0  0  0  0  0  0  0  0  0
  140.2550   79.3130  223.3030 C   0  0  0  0  0  0  0  0  0  0  0  0
  140.6560   76.0390  221.5460 N   0  0  0  0  0  0  0  0  0  0  0  0
  144.0220   73.1350  220.2740 N   0  0  0  0  0  0  0  0  0  0  0  0
  144.0960   74.5470  220.4680 C   0  0  0  0  0  0  0  0  0  0  0  0
  143.7910   75.3920  219.2790 C   0  0  0  0  0  0  0  0  0  0  0  0
  142.8940   76.5920  219.6230 C   0  0  0  0  0  0  0  0  0  0  0  0
  142.8760   77.4740  218.4190 C   0  0  0  0  0  0  0  0  0  0  0  0
  143.1370   76.7890  217.1790 N   0  0  0  0  0  0  0  0  0  0  0  0
  142.5000   75.4920  217.1410 C   0  0  0  0  0  0  0  0  0  0  0  0
  142.9860   74.5970  218.2590 C   0  0  0  0  0  0  0  0  0  0  0  0
  146.8639   70.9530  218.4836 H   0  0  0  0  0  0  0  0  0  0  0  0
  146.6918   68.4805  218.1415 H   0  0  0  0  0  0  0  0  0  0  0  0
  142.8359   68.5488  220.0682 H   0  0  0  0  0  0  0  0  0  0  0  0
  141.6927   73.0151  222.4606 H   0  0  0  0  0  0  0  0  0  0  0  0
  140.8303   73.5898  219.5852 H   0  0  0  0  0  0  0  0  0  0  0  0
  138.3589   73.6326  221.5341 H   0  0  0  0  0  0  0  0  0  0  0  0
  137.0766   75.4438  222.6221 H   0  0  0  0  0  0  0  0  0  0  0  0
  138.1142   77.6947  223.0300 H   0  0  0  0  0  0  0  0  0  0  0  0
  142.3212   78.0349  221.1018 H   0  0  0  0  0  0  0  0  0  0  0  0
  141.5287   79.5688  220.8699 H   0  0  0  0  0  0  0  0  0  0  0  0
  143.3073   78.6244  223.1829 H   0  0  0  0  0  0  0  0  0  0  0  0
  143.2299   80.2427  222.4978 H   0  0  0  0  0  0  0  0  0  0  0  0
  141.8201   79.2244  224.7796 H   0  0  0  0  0  0  0  0  0  0  0  0
  141.6139   80.8275  224.0426 H   0  0  0  0  0  0  0  0  0  0  0  0
  139.6241   78.8943  224.1009 H   0  0  0  0  0  0  0  0  0  0  0  0
  139.6610   80.1341  222.8752 H   0  0  0  0  0  0  0  0  0  0  0  0
  143.3827   74.8144  221.2615 H   0  0  0  0  0  0  0  0  0  0  0  0
  145.1475   74.7552  220.7148 H   0  0  0  0  0  0  0  0  0  0  0  0
  144.7686   75.7242  218.8997 H   0  0  0  0  0  0  0  0  0  0  0  0
  141.8753   76.2490  219.8568 H   0  0  0  0  0  0  0  0  0  0  0  0
  143.2753   77.1314  220.5026 H   0  0  0  0  0  0  0  0  0  0  0  0
  141.8838   77.9439  218.3509 H   0  0  0  0  0  0  0  0  0  0  0  0
  143.6869   78.2053  218.5519 H   0  0  0  0  0  0  0  0  0  0  0  0
  142.7890   77.3080  216.3470 H   0  0  0  0  0  0  0  0  0  0  0  0
  141.4126   75.6259  217.2388 H   0  0  0  0  0  0  0  0  0  0  0  0
  142.7538   75.0133  216.1837 H   0  0  0  0  0  0  0  0  0  0  0  0
  142.1184   74.1425  218.7597 H   0  0  0  0  0  0  0  0  0  0  0  0
  143.6330   73.8177  217.8300 H   0  0  0  0  0  0  0  0  0  0  0  0
  1  2  2  0
  2  3  1  0
  3  4  2  0
  4  5  1  0
  5  6  2  0
  6  7  1  0
  6  8  1  0
  8  9  2  0
  9 10  1  0
 10 11  2  0
 11 12  1  0
 12 13  2  0
 13 14  1  0
 14 15  2  0
 15 16  1  0
 16 17  2  0
 17 18  1  0
 18 19  1  0
 19 20  1  0
 20 21  1  0
 21 22  1  0
 22 23  1  0
 18 24  2  0
 11 25  1  0
 25 26  1  0
 26 27  1  0
 27 28  1  0
 28 29  1  0
 29 30  1  0
 30 31  1  0
 31 32  1  0
 25  2  1  0
 32 27  1  0
  9  3  1  0
 24 14  1  0
 23 19  1  0
  4 33  1  0
  5 34  1  0
  8 35  1  0
 12 36  1  0
 13 37  1  0
 15 38  1  0
 16 39  1  0
 17 40  1  0
 20 41  1  0
 20 42  1  0
 21 43  1  0
 21 44  1  0
 22 45  1  0
 22 46  1  0
 23 47  1  0
 23 48  1  0
 26 49  1  0
 26 50  1  0
 27 51  1  0
 28 52  1  0
 28 53  1  0
 29 54  1  0
 29 55  1  0
 30 56  1  0
 31 57  1  0
 31 58  1  0
 32 59  1  0
 32 60  1  0
M  END
>  <smiles>  (18) 
O=c1c2ccc(Cl)cc2nc(/C=C/c2cccc(N3CCCC3)n2)n1CC1CCNCC1

>  <score_type>  (18) 
oracle

>  <origin>  (18) 
autodockgpu

>  <m_score__min__energy>  (18) 
-9.3200000000000003

>  <m_primary>  (18) 
energy

>  <rmsd>  (18) 
9.888986399514215

>  <m_score__min__rmsd>  (18) 
9.888986399514215

>  <meeko>  (18) 
{"free_energy": -7.58, "intermolecular_energy": -9.37, "internal_energy": -1.96, "cluster_size": 8, "cluster_id": 6, "rank_in_cluster": 4}

>  <energy>  (18) 
-8.75

>  <cluster_rmsd>  (18) 
0.97

>  <cluster>  (18) 
1

$$$$

     RDKit          3D

 60 64  0  0  0  0  0  0  0  0999 V2000
  137.4560   77.9590  222.7420 O   0  0  0  0  0  0  0  0  0  0  0  0
  138.7170   77.9690  222.8040 C   0  0  0  0  0  0  0  0  0  0  0  0
  139.3490   76.8340  222.3190 C   0  0  0  0  0  0  0  0  0  0  0  0
  138.6210   75.7830  221.8080 C   0  0  0  0  0  0  0  0  0  0  0  0
  139.2810   74.6580  221.3290 C   0  0  0  0  0  0  0  0  0  0  0  0
  140.6770   74.6210  221.3770 C   0  0  0  0  0  0  0  0  0  0  0  0
  141.5200   73.2000  220.7710 Cl  0  0  0  0  0  0  0  0  0  0  0  0
  141.3700   75.7050  221.9000 C   0  0  0  0  0  0  0  0  0  0  0  0
  140.7260   76.8250  222.3770 C   0  0  0  0  0  0  0  0  0  0  0  0
  141.4280   77.8550  222.8770 N   0  0  0  0  0  0  0  0  0  0  0  0
  140.7610   78.9290  223.3340 C   0  0  0  0  0  0  0  0  0  0  0  0
  141.5950   80.0220  223.8640 C   0  0  0  0  0  0  0  0  0  0  0  0
  142.3390   80.7240  223.0410 C   0  0  0  0  0  0  0  0  0  0  0  0
  141.9190   80.8920  221.6470 C   0  0  0  0  0  0  0  0  0  0  0  0
  141.4950   82.1010  221.1370 C   0  0  0  0  0  0  0  0  0  0  0  0
  141.1100   82.1980  219.8070 C   0  0  0  0  0  0  0  0  0  0  0  0
  141.1360   81.0970  218.9550 C   0  0  0  0  0  0  0  0  0  0  0  0
  141.5670   79.9120  219.5130 C   0  0  0  0  0  0  0  0  0  0  0  0
  141.6220   78.7410  218.7090 N   0  0  0  0  0  0  0  0  0  0  0  0
  140.8770   77.5150  218.8700 C   0  0  0  0  0  0  0  0  0  0  0  0
  141.9660   76.4590  218.6510 C   0  0  0  0  0  0  0  0  0  0  0  0
  142.9440   77.1240  217.7400 C   0  0  0  0  0  0  0  0  0  0  0  0
  142.4560   78.5390  217.5360 C   0  0  0  0  0  0  0  0  0  0  0  0
  141.9350   79.8450  220.8040 N   0  0  0  0  0  0  0  0  0  0  0  0
  139.4090   79.0180  223.3110 N   0  0  0  0  0  0  0  0  0  0  0  0
  138.7470   80.1760  223.8190 C   0  0  0  0  0  0  0  0  0  0  0  0
  138.5600   81.3020  222.8610 C   0  0  0  0  0  0  0  0  0  0  0  0
  137.3330   82.1650  223.1970 C   0  0  0  0  0  0  0  0  0  0  0  0
  137.4090   83.3760  222.3280 C   0  0  0  0  0  0  0  0  0  0  0  0
  138.1470   83.1830  221.1060 N   0  0  0  0  0  0  0  0  0  0  0  0
  137.8870   81.8850  220.5260 C   0  0  0  0  0  0  0  0  0  0  0  0
  138.2740   80.7640  221.4640 C   0  0  0  0  0  0  0  0  0  0  0  0
  137.5226   75.8337  221.7791 H   0  0  0  0  0  0  0  0  0  0  0  0
  138.7135   73.8098  220.9185 H   0  0  0  0  0  0  0  0  0  0  0  0
  142.4688   75.6678  221.9343 H   0  0  0  0  0  0  0  0  0  0  0  0
  141.5943   80.2480  224.9405 H   0  0  0  0  0  0  0  0  0  0  0  0
  143.2731   81.1838  223.3960 H   0  0  0  0  0  0  0  0  0  0  0  0
  141.4618   82.9894  221.7848 H   0  0  0  0  0  0  0  0  0  0  0  0
  140.7756   83.1702  219.4158 H   0  0  0  0  0  0  0  0  0  0  0  0
  140.8311   81.1682  217.9005 H   0  0  0  0  0  0  0  0  0  0  0  0
  140.4419   77.4395  219.8775 H   0  0  0  0  0  0  0  0  0  0  0  0
  140.0195   77.4205  218.1875 H   0  0  0  0  0  0  0  0  0  0  0  0
  142.4432   76.1874  219.6042 H   0  0  0  0  0  0  0  0  0  0  0  0
  141.5674   75.5240  218.2305 H   0  0  0  0  0  0  0  0  0  0  0  0
  143.9443   77.1304  218.1976 H   0  0  0  0  0  0  0  0  0  0  0  0
  143.0180   76.5894  216.7815 H   0  0  0  0  0  0  0  0  0  0  0  0
  143.2936   79.2516  217.5132 H   0  0  0  0  0  0  0  0  0  0  0  0
  141.9281   78.6939  216.5835 H   0  0  0  0  0  0  0  0  0  0  0  0
  137.7518   79.8661  224.1707 H   0  0  0  0  0  0  0  0  0  0  0  0
  139.4052   80.5681  224.6083 H   0  0  0  0  0  0  0  0  0  0  0  0
  139.4868   81.8915  222.9204 H   0  0  0  0  0  0  0  0  0  0  0  0
  136.4084   81.6066  222.9890 H   0  0  0  0  0  0  0  0  0  0  0  0
  137.3238   82.4420  224.2615 H   0  0  0  0  0  0  0  0  0  0  0  0
  136.3839   83.6780  222.0674 H   0  0  0  0  0  0  0  0  0  0  0  0
  137.9473   84.1435  222.9034 H   0  0  0  0  0  0  0  0  0  0  0  0
  137.9090   83.8830  220.3730 H   0  0  0  0  0  0  0  0  0  0  0  0
  136.8137   81.8049  220.2989 H   0  0  0  0  0  0  0  0  0  0  0  0
  138.4922   81.7910  219.6122 H   0  0  0  0  0  0  0  0  0  0  0  0
  137.4490   80.0385  221.5188 H   0  0  0  0  0  0  0  0  0  0  0  0
  139.1840   80.2804  221.0792 H   0  0  0  0  0  0  0  0  0  0  0  0
  1  2  2  0
  2  3  1  0
  3  4  2  0
  4  5  1  0
  5  6  2  0
  6  7  1  0
  6  8  1  0
  8  9  2  0
  9 10  1  0
 10 11  2  0
 11 12  1  0
 12 13  2  0
 13 14  1  0
 14 15  2  0
 15 16  1  0
 16 17  2  0
 17 18  1  0
 18 19  1  0
 19 20  1  0
 20 21  1  0
 21 22  1  0
 22 23  1  0
 18 24  2  0
 11 25  1  0
 25 26  1  0
 26 27  1  0
 27 28  1  0
 28 29  1  0
 29 30  1  0
 30 31  1  0
 31 32  1  0
 25  2  1  0
 32 27  1  0
  9  3  1  0
 24 14  1  0
 23 19  1  0
  4 33  1  0
  5 34  1  0
  8 35  1  0
 12 36  1  0
 13 37  1  0
 15 38  1  0
 16 39  1  0
 17 40  1  0
 20 41  1  0
 20 42  1  0
 21 43  1  0
 21 44  1  0
 22 45  1  0
 22 46  1  0
 23 47  1  0
 23 48  1  0
 26 49  1  0
 26 50  1  0
 27 51  1  0
 28 52  1  0
 28 53  1  0
 29 54  1  0
 29 55  1  0
 30 56  1  0
 31 57  1  0
 31 58  1  0
 32 59  1  0
 32 60  1  0
M  END
>  <smiles>  (19) 
O=c1c2ccc(Cl)cc2nc(/C=C/c2cccc(N3CCCC3)n2)n1CC1CCNCC1

>  <score_type>  (19) 
oracle

>  <origin>  (19) 
autodockgpu

>  <m_score__min__energy>  (19) 
-9.3200000000000003

>  <m_primary>  (19) 
energy

>  <rmsd>  (19) 
7.092831203519368

>  <m_score__min__rmsd>  (19) 
7.092831203519368

>  <meeko>  (19) 
{"free_energy": -6.12, "intermolecular_energy": -7.91, "internal_energy": -3.27, "cluster_size": 6, "cluster_id": 9, "rank_in_cluster": 5}

>  <energy>  (19) 
-8.73

>  <cluster_rmsd>  (19) 
0.61

>  <cluster>  (19) 
1

$$$$

     RDKit          3D

 60 64  0  0  0  0  0  0  0  0999 V2000
  142.9800   75.9760  217.0280 O   0  0  0  0  0  0  0  0  0  0  0  0
  142.5210   76.3390  218.1470 C   0  0  0  0  0  0  0  0  0  0  0  0
  142.3670   77.7070  218.3150 C   0  0  0  0  0  0  0  0  0  0  0  0
  142.7010   78.5850  217.3100 C   0  0  0  0  0  0  0  0  0  0  0  0
  142.5370   79.9510  217.5060 C   0  0  0  0  0  0  0  0  0  0  0  0
  142.0330   80.4020  218.7280 C   0  0  0  0  0  0  0  0  0  0  0  0
  141.8210   82.1300  218.9840 Cl  0  0  0  0  0  0  0  0  0  0  0  0
  141.7090   79.4790  219.7140 C   0  0  0  0  0  0  0  0  0  0  0  0
  141.8670   78.1250  219.5300 C   0  0  0  0  0  0  0  0  0  0  0  0
  141.5440   77.2610  220.5060 N   0  0  0  0  0  0  0  0  0  0  0  0
  141.7150   75.9450  220.2860 C   0  0  0  0  0  0  0  0  0  0  0  0
  141.3370   75.0560  221.3990 C   0  0  0  0  0  0  0  0  0  0  0  0
  140.0970   75.0550  221.8310 C   0  0  0  0  0  0  0  0  0  0  0  0
  139.4760   76.3120  222.2590 C   0  0  0  0  0  0  0  0  0  0  0  0
  138.1100   76.4970  222.2850 C   0  0  0  0  0  0  0  0  0  0  0  0
  137.5810   77.7110  222.7010 C   0  0  0  0  0  0  0  0  0  0  0  0
  138.3960   78.7680  223.0990 C   0  0  0  0  0  0  0  0  0  0  0  0
  139.7540   78.5320  223.0550 C   0  0  0  0  0  0  0  0  0  0  0  0
  140.6540   79.5600  223.4450 N   0  0  0  0  0  0  0  0  0  0  0  0
  140.4250   80.9850  223.4600 C   0  0  0  0  0  0  0  0  0  0  0  0
  141.7230   81.5150  222.8400 C   0  0  0  0  0  0  0  0  0  0  0  0
  142.7460   80.4910  223.2010 C   0  0  0  0  0  0  0  0  0  0  0  0
  142.0160   79.3810  223.9190 C   0  0  0  0  0  0  0  0  0  0  0  0
  140.2410   77.3460  222.6480 N   0  0  0  0  0  0  0  0  0  0  0  0
  142.1990   75.4520  219.1200 N   0  0  0  0  0  0  0  0  0  0  0  0
  142.3740   74.0470  218.9400 C   0  0  0  0  0  0  0  0  0  0  0  0
  143.7430   73.5160  219.1910 C   0  0  0  0  0  0  0  0  0  0  0  0
  143.7260   72.0810  219.7430 C   0  0  0  0  0  0  0  0  0  0  0  0
  145.1350   71.5910  219.7100 C   0  0  0  0  0  0  0  0  0  0  0  0
  146.1270   72.6350  219.7680 N   0  0  0  0  0  0  0  0  0  0  0  0
  145.7410   73.6860  220.6820 C   0  0  0  0  0  0  0  0  0  0  0  0
  144.4340   74.3300  220.2770 C   0  0  0  0  0  0  0  0  0  0  0  0
  143.0962   78.2075  216.3554 H   0  0  0  0  0  0  0  0  0  0  0  0
  142.7998   80.6653  216.7118 H   0  0  0  0  0  0  0  0  0  0  0  0
  141.3130   79.8427  220.6736 H   0  0  0  0  0  0  0  0  0  0  0  0
  142.0870   74.3991  221.8637 H   0  0  0  0  0  0  0  0  0  0  0  0
  139.5268   74.1152  221.8715 H   0  0  0  0  0  0  0  0  0  0  0  0
  137.4390   75.6820  221.9759 H   0  0  0  0  0  0  0  0  0  0  0  0
  136.4889   77.8418  222.7168 H   0  0  0  0  0  0  0  0  0  0  0  0
  137.9817   79.7323  223.4284 H   0  0  0  0  0  0  0  0  0  0  0  0
  139.5498   81.2569  222.8516 H   0  0  0  0  0  0  0  0  0  0  0  0
  140.2086   81.3920  224.4588 H   0  0  0  0  0  0  0  0  0  0  0  0
  141.6265   81.6018  221.7477 H   0  0  0  0  0  0  0  0  0  0  0  0
  141.9849   82.5191  223.2051 H   0  0  0  0  0  0  0  0  0  0  0  0
  143.2290   80.1013  222.2928 H   0  0  0  0  0  0  0  0  0  0  0  0
  143.5312   80.9243  223.8380 H   0  0  0  0  0  0  0  0  0  0  0  0
  142.4113   78.3942  223.6362 H   0  0  0  0  0  0  0  0  0  0  0  0
  142.1137   79.4212  225.0139 H   0  0  0  0  0  0  0  0  0  0  0  0
  141.6840   73.5326  219.6250 H   0  0  0  0  0  0  0  0  0  0  0  0
  142.1775   73.8606  217.8739 H   0  0  0  0  0  0  0  0  0  0  0  0
  144.2555   73.5616  218.2188 H   0  0  0  0  0  0  0  0  0  0  0  0
  143.3475   72.0768  220.7758 H   0  0  0  0  0  0  0  0  0  0  0  0
  143.0686   71.4345  219.1430 H   0  0  0  0  0  0  0  0  0  0  0  0
  145.2876   70.9225  220.5701 H   0  0  0  0  0  0  0  0  0  0  0  0
  145.2692   71.0819  218.7442 H   0  0  0  0  0  0  0  0  0  0  0  0
  147.0560   72.2960  220.0900 H   0  0  0  0  0  0  0  0  0  0  0  0
  145.6303   73.2588  221.6896 H   0  0  0  0  0  0  0  0  0  0  0  0
  146.5233   74.4591  220.6643 H   0  0  0  0  0  0  0  0  0  0  0  0
  143.7750   74.3918  221.1556 H   0  0  0  0  0  0  0  0  0  0  0  0
  144.6437   75.3357  219.8838 H   0  0  0  0  0  0  0  0  0  0  0  0
  1  2  2  0
  2  3  1  0
  3  4  2  0
  4  5  1  0
  5  6  2  0
  6  7  1  0
  6  8  1  0
  8  9  2  0
  9 10  1  0
 10 11  2  0
 11 12  1  0
 12 13  2  0
 13 14  1  0
 14 15  2  0
 15 16  1  0
 16 17  2  0
 17 18  1  0
 18 19  1  0
 19 20  1  0
 20 21  1  0
 21 22  1  0
 22 23  1  0
 18 24  2  0
 11 25  1  0
 25 26  1  0
 26 27  1  0
 27 28  1  0
 28 29  1  0
 29 30  1  0
 30 31  1  0
 31 32  1  0
 25  2  1  0
 32 27  1  0
  9  3  1  0
 24 14  1  0
 23 19  1  0
  4 33  1  0
  5 34  1  0
  8 35  1  0
 12 36  1  0
 13 37  1  0
 15 38  1  0
 16 39  1  0
 17 40  1  0
 20 41  1  0
 20 42  1  0
 21 43  1  0
 21 44  1  0
 22 45  1  0
 22 46  1  0
 23 47  1  0
 23 48  1  0
 26 49  1  0
 26 50  1  0
 27 51  1  0
 28 52  1  0
 28 53  1  0
 29 54  1  0
 29 55  1  0
 30 56  1  0
 31 57  1  0
 31 58  1  0
 32 59  1  0
 32 60  1  0
M  END
>  <smiles>  (20) 
O=c1c2ccc(Cl)cc2nc(/C=C/c2cccc(N3CCCC3)n2)n1CC1CCNCC1

>  <score_type>  (20) 
oracle

>  <origin>  (20) 
autodockgpu

>  <m_score__min__energy>  (20) 
-9.3200000000000003

>  <m_primary>  (20) 
energy

>  <rmsd>  (20) 
5.277482686058798

>  <m_score__min__rmsd>  (20) 
5.277482686058798

>  <meeko>  (20) 
{"free_energy": -7.54, "intermolecular_energy": -9.33, "internal_energy": -2.03, "cluster_size": 3, "cluster_id": 7, "rank_in_cluster": 2}

>  <energy>  (20) 
-8.7

>  <cluster_rmsd>  (20) 
0.97

>  <cluster>  (20) 
1

$$$$

     RDKit          3D

 60 64  0  0  0  0  0  0  0  0999 V2000
  142.6570   76.8780  218.6290 O   0  0  0  0  0  0  0  0  0  0  0  0
  142.0920   76.4620  219.6800 C   0  0  0  0  0  0  0  0  0  0  0  0
  141.6960   77.4450  220.5740 C   0  0  0  0  0  0  0  0  0  0  0  0
  141.9160   78.7770  220.3050 C   0  0  0  0  0  0  0  0  0  0  0  0
  141.5070   79.7400  221.2200 C   0  0  0  0  0  0  0  0  0  0  0  0
  140.8790   79.3300  222.3990 C   0  0  0  0  0  0  0  0  0  0  0  0
  140.3590   80.5440  223.5610 Cl  0  0  0  0  0  0  0  0  0  0  0  0
  140.6780   77.9750  222.6270 C   0  0  0  0  0  0  0  0  0  0  0  0
  141.0780   77.0130  221.7280 C   0  0  0  0  0  0  0  0  0  0  0  0
  140.8670   75.7110  221.9820 N   0  0  0  0  0  0  0  0  0  0  0  0
  141.2730   74.8030  221.0780 C   0  0  0  0  0  0  0  0  0  0  0  0
  141.0070   73.3950  221.4210 C   0  0  0  0  0  0  0  0  0  0  0  0
  139.8570   73.0700  221.9660 C   0  0  0  0  0  0  0  0  0  0  0  0
  139.7400   71.8210  222.7230 C   0  0  0  0  0  0  0  0  0  0  0  0
  139.2250   70.6640  222.1770 C   0  0  0  0  0  0  0  0  0  0  0  0
  139.1400   69.5110  222.9440 C   0  0  0  0  0  0  0  0  0  0  0  0
  139.5630   69.4800  224.2700 C   0  0  0  0  0  0  0  0  0  0  0  0
  140.0700   70.6620  224.7690 C   0  0  0  0  0  0  0  0  0  0  0  0
  140.5230   70.7140  226.1150 N   0  0  0  0  0  0  0  0  0  0  0  0
  140.5280   69.6540  227.0940 C   0  0  0  0  0  0  0  0  0  0  0  0
  139.9980   70.3770  228.3380 C   0  0  0  0  0  0  0  0  0  0  0  0
  140.4220   71.7950  228.1460 C   0  0  0  0  0  0  0  0  0  0  0  0
  141.0870   71.8710  226.7920 C   0  0  0  0  0  0  0  0  0  0  0  0
  140.1420   71.7650  224.0040 N   0  0  0  0  0  0  0  0  0  0  0  0
  141.8880   75.1450  219.9180 N   0  0  0  0  0  0  0  0  0  0  0  0
  142.3110   74.1420  218.9960 C   0  0  0  0  0  0  0  0  0  0  0  0
  143.6440   73.5290  219.2560 C   0  0  0  0  0  0  0  0  0  0  0  0
  143.5400   72.0640  219.7130 C   0  0  0  0  0  0  0  0  0  0  0  0
  144.9260   71.5090  219.6930 C   0  0  0  0  0  0  0  0  0  0  0  0
  145.9620   72.4970  219.8500 N   0  0  0  0  0  0  0  0  0  0  0  0
  145.5950   73.5060  220.8170 C   0  0  0  0  0  0  0  0  0  0  0  0
  144.3350   74.2380  220.4130 C   0  0  0  0  0  0  0  0  0  0  0  0
  142.4129   79.0777  219.3708 H   0  0  0  0  0  0  0  0  0  0  0  0
  141.6751   80.8084  221.0191 H   0  0  0  0  0  0  0  0  0  0  0  0
  140.1825   77.6602  223.5572 H   0  0  0  0  0  0  0  0  0  0  0  0
  141.7648   72.6228  221.2224 H   0  0  0  0  0  0  0  0  0  0  0  0
  138.9859   73.7324  221.8546 H   0  0  0  0  0  0  0  0  0  0  0  0
  138.8812   70.6553  221.1321 H   0  0  0  0  0  0  0  0  0  0  0  0
  138.7273   68.5969  222.4923 H   0  0  0  0  0  0  0  0  0  0  0  0
  139.4970   68.5687  224.8825 H   0  0  0  0  0  0  0  0  0  0  0  0
  139.8635   68.8297  226.7958 H   0  0  0  0  0  0  0  0  0  0  0  0
  141.5116   69.1827  227.2367 H   0  0  0  0  0  0  0  0  0  0  0  0
  138.9021   70.3019  228.3956 H   0  0  0  0  0  0  0  0  0  0  0  0
  140.3841   69.9448  229.2729 H   0  0  0  0  0  0  0  0  0  0  0  0
  139.5460   72.4597  228.1757 H   0  0  0  0  0  0  0  0  0  0  0  0
  141.1105   72.1129  228.9428 H   0  0  0  0  0  0  0  0  0  0  0  0
  140.8283   72.8047  226.2711 H   0  0  0  0  0  0  0  0  0  0  0  0
  142.1861   71.8680  226.8360 H   0  0  0  0  0  0  0  0  0  0  0  0
  141.5625   73.3360  219.0102 H   0  0  0  0  0  0  0  0  0  0  0  0
  142.4067   74.6544  218.0273 H   0  0  0  0  0  0  0  0  0  0  0  0
  144.1917   73.6103  218.3055 H   0  0  0  0  0  0  0  0  0  0  0  0
  143.1258   72.0128  220.7307 H   0  0  0  0  0  0  0  0  0  0  0  0
  142.8742   71.4896  219.0521 H   0  0  0  0  0  0  0  0  0  0  0  0
  145.0174   70.7807  220.5123 H   0  0  0  0  0  0  0  0  0  0  0  0
  145.0699   71.0564  218.7008 H   0  0  0  0  0  0  0  0  0  0  0  0
  146.8630   72.0930  220.1790 H   0  0  0  0  0  0  0  0  0  0  0  0
  145.4292   73.0224  221.7910 H   0  0  0  0  0  0  0  0  0  0  0  0
  146.4132   74.2390  220.8741 H   0  0  0  0  0  0  0  0  0  0  0  0
  143.6497   74.2774  221.2725 H   0  0  0  0  0  0  0  0  0  0  0  0
  144.6059   75.2546  220.0918 H   0  0  0  0  0  0  0  0  0  0  0  0
  1  2  2  0
  2  3  1  0
  3  4  2  0
  4  5  1  0
  5  6  2  0
  6  7  1  0
  6  8  1  0
  8  9  2  0
  9 10  1  0
 10 11  2  0
 11 12  1  0
 12 13  2  0
 13 14  1  0
 14 15  2  0
 15 16  1  0
 16 17  2  0
 17 18  1  0
 18 19  1  0
 19 20  1  0
 20 21  1  0
 21 22  1  0
 22 23  1  0
 18 24  2  0
 11 25  1  0
 25 26  1  0
 26 27  1  0
 27 28  1  0
 28 29  1  0
 29 30  1  0
 30 31  1  0
 31 32  1  0
 25  2  1  0
 32 27  1  0
  9  3  1  0
 24 14  1  0
 23 19  1  0
  4 33  1  0
  5 34  1  0
  8 35  1  0
 12 36  1  0
 13 37  1  0
 15 38  1  0
 16 39  1  0
 17 40  1  0
 20 41  1  0
 20 42  1  0
 21 43  1  0
 21 44  1  0
 22 45  1  0
 22 46  1  0
 23 47  1  0
 23 48  1  0
 26 49  1  0
 26 50  1  0
 27 51  1  0
 28 52  1  0
 28 53  1  0
 29 54  1  0
 29 55  1  0
 30 56  1  0
 31 57  1  0
 31 58  1  0
 32 59  1  0
 32 60  1  0
M  END
>  <smiles>  (21) 
O=c1c2ccc(Cl)cc2nc(/C=C/c2cccc(N3CCCC3)n2)n1CC1CCNCC1

>  <score_type>  (21) 
oracle

>  <origin>  (21) 
autodockgpu

>  <m_score__min__energy>  (21) 
-9.3200000000000003

>  <m_primary>  (21) 
energy

>  <rmsd>  (21) 
4.913163935508484

>  <m_score__min__rmsd>  (21) 
4.913163935508484

>  <meeko>  (21) 
{"free_energy": -9.22, "intermolecular_energy": -11.01, "internal_energy": -1.42, "cluster_size": 23, "cluster_id": 1, "rank_in_cluster": 6}

>  <energy>  (21) 
-8.65

>  <cluster_rmsd>  (21) 
0.74

>  <cluster>  (21) 
1

$$$$

     RDKit          3D

 60 64  0  0  0  0  0  0  0  0999 V2000
  142.7030   76.0400  219.1240 O   0  0  0  0  0  0  0  0  0  0  0  0
  141.9250   75.7420  220.0730 C   0  0  0  0  0  0  0  0  0  0  0  0
  141.5040   76.8060  220.8580 C   0  0  0  0  0  0  0  0  0  0  0  0
  141.9240   78.0900  220.5930 C   0  0  0  0  0  0  0  0  0  0  0  0
  141.4860   79.1360  221.3960 C   0  0  0  0  0  0  0  0  0  0  0  0
  140.6250   78.8570  222.4600 C   0  0  0  0  0  0  0  0  0  0  0  0
  140.0650   80.1770  223.4800 Cl  0  0  0  0  0  0  0  0  0  0  0  0
  140.2270   77.5460  222.6890 C   0  0  0  0  0  0  0  0  0  0  0  0
  140.6540   76.5030  221.9000 C   0  0  0  0  0  0  0  0  0  0  0  0
  140.2490   75.2470  222.1510 N   0  0  0  0  0  0  0  0  0  0  0  0
  140.6900   74.2560  221.3560 C   0  0  0  0  0  0  0  0  0  0  0  0
  140.2030   72.9060  221.6880 C   0  0  0  0  0  0  0  0  0  0  0  0
  140.7110   72.2730  222.7210 C   0  0  0  0  0  0  0  0  0  0  0  0
  140.0370   71.0810  223.2450 C   0  0  0  0  0  0  0  0  0  0  0  0
  139.2790   70.2450  222.4520 C   0  0  0  0  0  0  0  0  0  0  0  0
  138.6650   69.1300  223.0050 C   0  0  0  0  0  0  0  0  0  0  0  0
  138.7880   68.8220  224.3570 C   0  0  0  0  0  0  0  0  0  0  0  0
  139.5560   69.6890  225.1070 C   0  0  0  0  0  0  0  0  0  0  0  0
  139.7300   69.4440  226.4960 N   0  0  0  0  0  0  0  0  0  0  0  0
  140.0010   70.4020  227.5410 C   0  0  0  0  0  0  0  0  0  0  0  0
  141.1000   69.6900  228.3370 C   0  0  0  0  0  0  0  0  0  0  0  0
  140.8290   68.2390  228.1210 C   0  0  0  0  0  0  0  0  0  0  0  0
  139.6680   68.1520  227.1590 C   0  0  0  0  0  0  0  0  0  0  0  0
  140.1400   70.7620  224.5450 N   0  0  0  0  0  0  0  0  0  0  0  0
  141.5260   74.4690  220.3110 N   0  0  0  0  0  0  0  0  0  0  0  0
  141.9760   73.3810  219.5040 C   0  0  0  0  0  0  0  0  0  0  0  0
  143.4420   73.1160  219.5130 C   0  0  0  0  0  0  0  0  0  0  0  0
  143.7690   71.6160  219.6030 C   0  0  0  0  0  0  0  0  0  0  0  0
  145.2340   71.4810  219.3520 C   0  0  0  0  0  0  0  0  0  0  0  0
  146.0020   72.6560  219.6760 N   0  0  0  0  0  0  0  0  0  0  0  0
  145.5240   73.2890  220.8850 C   0  0  0  0  0  0  0  0  0  0  0  0
  144.0790   73.7170  220.7600 C   0  0  0  0  0  0  0  0  0  0  0  0
  142.6027   78.2868  219.7500 H   0  0  0  0  0  0  0  0  0  0  0  0
  141.8121   80.1675  221.1969 H   0  0  0  0  0  0  0  0  0  0  0  0
  139.5483   77.3349  223.5285 H   0  0  0  0  0  0  0  0  0  0  0  0
  139.4210   72.4322  221.0765 H   0  0  0  0  0  0  0  0  0  0  0  0
  141.6374   72.6355  223.1905 H   0  0  0  0  0  0  0  0  0  0  0  0
  139.1610   70.4622  221.3801 H   0  0  0  0  0  0  0  0  0  0  0  0
  138.0655   68.4725  222.3582 H   0  0  0  0  0  0  0  0  0  0  0  0
  138.3022   67.9405  224.8007 H   0  0  0  0  0  0  0  0  0  0  0  0
  140.3595   71.3561  227.1273 H   0  0  0  0  0  0  0  0  0  0  0  0
  139.1186   70.6713  228.1401 H   0  0  0  0  0  0  0  0  0  0  0  0
  142.0955   69.9616  227.9560 H   0  0  0  0  0  0  0  0  0  0  0  0
  141.0935   69.9652  229.4020 H   0  0  0  0  0  0  0  0  0  0  0  0
  141.7146   67.7479  227.6915 H   0  0  0  0  0  0  0  0  0  0  0  0
  140.5945   67.7351  229.0702 H   0  0  0  0  0  0  0  0  0  0  0  0
  139.8028   67.3280  226.4428 H   0  0  0  0  0  0  0  0  0  0  0  0
  138.7026   67.9479  227.6451 H   0  0  0  0  0  0  0  0  0  0  0  0
  141.4685   72.4705  219.8554 H   0  0  0  0  0  0  0  0  0  0  0  0
  141.7350   73.6638  218.4687 H   0  0  0  0  0  0  0  0  0  0  0  0
  143.8221   73.5496  218.5763 H   0  0  0  0  0  0  0  0  0  0  0  0
  143.5188   71.2327  220.6032 H   0  0  0  0  0  0  0  0  0  0  0  0
  143.1869   71.0393  218.8692 H   0  0  0  0  0  0  0  0  0  0  0  0
  145.6117   70.6446  219.9584 H   0  0  0  0  0  0  0  0  0  0  0  0
  145.3543   71.3143  218.2714 H   0  0  0  0  0  0  0  0  0  0  0  0
  147.0100   72.4530  219.8330 H   0  0  0  0  0  0  0  0  0  0  0  0
  145.6140   72.5776  221.7191 H   0  0  0  0  0  0  0  0  0  0  0  0
  146.1328   74.1873  221.0648 H   0  0  0  0  0  0  0  0  0  0  0  0
  143.5244   73.3777  221.6473 H   0  0  0  0  0  0  0  0  0  0  0  0
  144.0419   74.8135  220.6810 H   0  0  0  0  0  0  0  0  0  0  0  0
  1  2  2  0
  2  3  1  0
  3  4  2  0
  4  5  1  0
  5  6  2  0
  6  7  1  0
  6  8  1  0
  8  9  2  0
  9 10  1  0
 10 11  2  0
 11 12  1  0
 12 13  2  0
 13 14  1  0
 14 15  2  0
 15 16  1  0
 16 17  2  0
 17 18  1  0
 18 19  1  0
 19 20  1  0
 20 21  1  0
 21 22  1  0
 22 23  1  0
 18 24  2  0
 11 25  1  0
 25 26  1  0
 26 27  1  0
 27 28  1  0
 28 29  1  0
 29 30  1  0
 30 31  1  0
 31 32  1  0
 25  2  1  0
 32 27  1  0
  9  3  1  0
 24 14  1  0
 23 19  1  0
  4 33  1  0
  5 34  1  0
  8 35  1  0
 12 36  1  0
 13 37  1  0
 15 38  1  0
 16 39  1  0
 17 40  1  0
 20 41  1  0
 20 42  1  0
 21 43  1  0
 21 44  1  0
 22 45  1  0
 22 46  1  0
 23 47  1  0
 23 48  1  0
 26 49  1  0
 26 50  1  0
 27 51  1  0
 28 52  1  0
 28 53  1  0
 29 54  1  0
 29 55  1  0
 30 56  1  0
 31 57  1  0
 31 58  1  0
 32 59  1  0
 32 60  1  0
M  END
>  <smiles>  (22) 
O=c1c2ccc(Cl)cc2nc(/C=C/c2cccc(N3CCCC3)n2)n1CC1CCNCC1

>  <score_type>  (22) 
oracle

>  <origin>  (22) 
autodockgpu

>  <m_score__min__energy>  (22) 
-9.3200000000000003

>  <m_primary>  (22) 
energy

>  <rmsd>  (22) 
5.248787876156982

>  <m_score__min__rmsd>  (22) 
5.248787876156982

>  <meeko>  (22) 
{"free_energy": -8.9, "intermolecular_energy": -10.69, "internal_energy": -1.35, "cluster_size": 23, "cluster_id": 1, "rank_in_cluster": 15}

>  <energy>  (22) 
-8.54

>  <cluster_rmsd>  (22) 
0.92

>  <cluster>  (22) 
1

$$$$

     RDKit          3D

 60 64  0  0  0  0  0  0  0  0999 V2000
  143.0120   76.6880  218.9440 O   0  0  0  0  0  0  0  0  0  0  0  0
  142.2450   76.2090  219.8250 C   0  0  0  0  0  0  0  0  0  0  0  0
  141.7610   77.1180  220.7550 C   0  0  0  0  0  0  0  0  0  0  0  0
  142.1130   78.4470  220.6940 C   0  0  0  0  0  0  0  0  0  0  0  0
  141.6140   79.3360  221.6390 C   0  0  0  0  0  0  0  0  0  0  0  0
  140.7610   78.8540  222.6350 C   0  0  0  0  0  0  0  0  0  0  0  0
  140.1240   79.9720  223.8350 Cl  0  0  0  0  0  0  0  0  0  0  0  0
  140.4330   77.5040  222.6580 C   0  0  0  0  0  0  0  0  0  0  0  0
  140.9220   76.6160  221.7260 C   0  0  0  0  0  0  0  0  0  0  0  0
  140.5840   75.3170  221.7780 N   0  0  0  0  0  0  0  0  0  0  0  0
  141.0830   74.4830  220.8500 C   0  0  0  0  0  0  0  0  0  0  0  0
  140.6680   73.0740  220.9670 C   0  0  0  0  0  0  0  0  0  0  0  0
  141.1530   72.3370  221.9400 C   0  0  0  0  0  0  0  0  0  0  0  0
  140.2400   71.5890  222.8080 C   0  0  0  0  0  0  0  0  0  0  0  0
  138.9270   71.3380  222.4680 C   0  0  0  0  0  0  0  0  0  0  0  0
  138.1090   70.6240  223.3320 C   0  0  0  0  0  0  0  0  0  0  0  0
  138.5760   70.1440  224.5530 C   0  0  0  0  0  0  0  0  0  0  0  0
  139.8950   70.4220  224.8470 C   0  0  0  0  0  0  0  0  0  0  0  0
  140.4470   69.9670  226.0740 N   0  0  0  0  0  0  0  0  0  0  0  0
  140.9760   68.6600  226.3830 C   0  0  0  0  0  0  0  0  0  0  0  0
  140.3580   68.3920  227.7600 C   0  0  0  0  0  0  0  0  0  0  0  0
  140.1770   69.7510  228.3510 C   0  0  0  0  0  0  0  0  0  0  0  0
  140.5960   70.7440  227.2940 C   0  0  0  0  0  0  0  0  0  0  0  0
  140.6660   71.1160  223.9910 N   0  0  0  0  0  0  0  0  0  0  0  0
  141.9140   74.8960  219.8620 N   0  0  0  0  0  0  0  0  0  0  0  0
  142.4280   73.9680  218.9060 C   0  0  0  0  0  0  0  0  0  0  0  0
  143.6890   73.2690  219.2800 C   0  0  0  0  0  0  0  0  0  0  0  0
  143.4650   71.7840  219.6070 C   0  0  0  0  0  0  0  0  0  0  0  0
  144.8170   71.1590  219.7150 C   0  0  0  0  0  0  0  0  0  0  0  0
  145.8670   72.0780  220.0720 N   0  0  0  0  0  0  0  0  0  0  0  0
  145.4250   73.0340  221.0620 C   0  0  0  0  0  0  0  0  0  0  0  0
  144.2590   73.8580  220.5640 C   0  0  0  0  0  0  0  0  0  0  0  0
  142.7863   78.8043  219.9009 H   0  0  0  0  0  0  0  0  0  0  0  0
  141.8862   80.4012  221.6032 H   0  0  0  0  0  0  0  0  0  0  0  0
  139.7612   77.1327  223.4459 H   0  0  0  0  0  0  0  0  0  0  0  0
  139.9581   72.6431  220.2456 H   0  0  0  0  0  0  0  0  0  0  0  0
  142.2395   72.2816  222.1024 H   0  0  0  0  0  0  0  0  0  0  0  0
  138.5278   71.7043  221.5107 H   0  0  0  0  0  0  0  0  0  0  0  0
  137.0646   70.4322  223.0450 H   0  0  0  0  0  0  0  0  0  0  0  0
  137.9320   69.5773  225.2416 H   0  0  0  0  0  0  0  0  0  0  0  0
  140.6514   67.9114  225.6453 H   0  0  0  0  0  0  0  0  0  0  0  0
  142.0747   68.6083  226.3690 H   0  0  0  0  0  0  0  0  0  0  0  0
  139.3906   67.8780  227.6601 H   0  0  0  0  0  0  0  0  0  0  0  0
  140.9874   67.7412  228.3848 H   0  0  0  0  0  0  0  0  0  0  0  0
  139.1228   69.9088  228.6226 H   0  0  0  0  0  0  0  0  0  0  0  0
  140.7788   69.8683  229.2643 H   0  0  0  0  0  0  0  0  0  0  0  0
  139.9374   71.6251  227.2898 H   0  0  0  0  0  0  0  0  0  0  0  0
  141.6082   71.1486  227.4416 H   0  0  0  0  0  0  0  0  0  0  0  0
  141.6577   73.2017  218.7344 H   0  0  0  0  0  0  0  0  0  0  0  0
  142.6761   74.5676  218.0178 H   0  0  0  0  0  0  0  0  0  0  0  0
  144.3552   73.3878  218.4128 H   0  0  0  0  0  0  0  0  0  0  0  0
  142.9237   71.6831  220.5592 H   0  0  0  0  0  0  0  0  0  0  0  0
  142.8639   71.2937  218.8271 H   0  0  0  0  0  0  0  0  0  0  0  0
  144.7725   70.3717  220.4819 H   0  0  0  0  0  0  0  0  0  0  0  0
  145.0649   70.7691  218.7167 H   0  0  0  0  0  0  0  0  0  0  0  0
  146.7010   71.6040  220.4760 H   0  0  0  0  0  0  0  0  0  0  0  0
  145.1169   72.4918  221.9681 H   0  0  0  0  0  0  0  0  0  0  0  0
  146.2605   73.7169  221.2755 H   0  0  0  0  0  0  0  0  0  0  0  0
  143.4733   73.8730  221.3337 H   0  0  0  0  0  0  0  0  0  0  0  0
  144.6120   74.8790  220.3569 H   0  0  0  0  0  0  0  0  0  0  0  0
  1  2  2  0
  2  3  1  0
  3  4  2  0
  4  5  1  0
  5  6  2  0
  6  7  1  0
  6  8  1  0
  8  9  2  0
  9 10  1  0
 10 11  2  0
 11 12  1  0
 12 13  2  0
 13 14  1  0
 14 15  2  0
 15 16  1  0
 16 17  2  0
 17 18  1  0
 18 19  1  0
 19 20  1  0
 20 21  1  0
 21 22  1  0
 22 23  1  0
 18 24  2  0
 11 25  1  0
 25 26  1  0
 26 27  1  0
 27 28  1  0
 28 29  1  0
 29 30  1  0
 30 31  1  0
 31 32  1  0
 25  2  1  0
 32 27  1  0
  9  3  1  0
 24 14  1  0
 23 19  1  0
  4 33  1  0
  5 34  1  0
  8 35  1  0
 12 36  1  0
 13 37  1  0
 15 38  1  0
 16 39  1  0
 17 40  1  0
 20 41  1  0
 20 42  1  0
 21 43  1  0
 21 44  1  0
 22 45  1  0
 22 46  1  0
 23 47  1  0
 23 48  1  0
 26 49  1  0
 26 50  1  0
 27 51  1  0
 28 52  1  0
 28 53  1  0
 29 54  1  0
 29 55  1  0
 30 56  1  0
 31 57  1  0
 31 58  1  0
 32 59  1  0
 32 60  1  0
M  END
>  <smiles>  (23) 
O=c1c2ccc(Cl)cc2nc(/C=C/c2cccc(N3CCCC3)n2)n1CC1CCNCC1

>  <score_type>  (23) 
oracle

>  <origin>  (23) 
autodockgpu

>  <m_score__min__energy>  (23) 
-9.3200000000000003

>  <m_primary>  (23) 
energy

>  <rmsd>  (23) 
5.153450119433006

>  <m_score__min__rmsd>  (23) 
5.153450119433006

>  <meeko>  (23) 
{"free_energy": -8.95, "intermolecular_energy": -10.74, "internal_energy": -1.5, "cluster_size": 23, "cluster_id": 1, "rank_in_cluster": 14}

>  <energy>  (23) 
-8.44

>  <cluster_rmsd>  (23) 
0.98

>  <cluster>  (23) 
1

$$$$

     RDKit          3D

 60 64  0  0  0  0  0  0  0  0999 V2000
  142.9580   76.0690  216.8890 O   0  0  0  0  0  0  0  0  0  0  0  0
  142.5260   76.4050  218.0280 C   0  0  0  0  0  0  0  0  0  0  0  0
  142.3610   77.7680  218.2260 C   0  0  0  0  0  0  0  0  0  0  0  0
  142.6560   78.6690  217.2280 C   0  0  0  0  0  0  0  0  0  0  0  0
  142.4810   80.0290  217.4550 C   0  0  0  0  0  0  0  0  0  0  0  0
  142.0060   80.4510  218.6990 C   0  0  0  0  0  0  0  0  0  0  0  0
  141.7810   82.1710  218.9930 Cl  0  0  0  0  0  0  0  0  0  0  0  0
  141.7210   79.5060  219.6760 C   0  0  0  0  0  0  0  0  0  0  0  0
  141.8900   78.1570  219.4620 C   0  0  0  0  0  0  0  0  0  0  0  0
  141.6040   77.2710  220.4300 N   0  0  0  0  0  0  0  0  0  0  0  0
  141.7850   75.9620  220.1800 C   0  0  0  0  0  0  0  0  0  0  0  0
  141.4490   75.0480  221.2860 C   0  0  0  0  0  0  0  0  0  0  0  0
  140.2130   74.9980  221.7290 C   0  0  0  0  0  0  0  0  0  0  0  0
  139.5570   76.2250  222.1880 C   0  0  0  0  0  0  0  0  0  0  0  0
  138.1850   76.3620  222.2370 C   0  0  0  0  0  0  0  0  0  0  0  0
  137.6210   77.5490  222.6820 C   0  0  0  0  0  0  0  0  0  0  0  0
  138.4050   78.6260  223.0860 C   0  0  0  0  0  0  0  0  0  0  0  0
  139.7700   78.4390  223.0180 C   0  0  0  0  0  0  0  0  0  0  0  0
  140.6390   79.4910  223.4130 N   0  0  0  0  0  0  0  0  0  0  0  0
  140.3610   80.9060  223.4580 C   0  0  0  0  0  0  0  0  0  0  0  0
  141.6290   81.4930  222.8280 C   0  0  0  0  0  0  0  0  0  0  0  0
  142.6930   80.4990  223.1530 C   0  0  0  0  0  0  0  0  0  0  0  0
  142.0140   79.3510  223.8620 C   0  0  0  0  0  0  0  0  0  0  0  0
  140.2900   77.2780  222.5840 N   0  0  0  0  0  0  0  0  0  0  0  0
  142.2430   75.4970  218.9920 N   0  0  0  0  0  0  0  0  0  0  0  0
  142.4290   74.0970  218.7800 C   0  0  0  0  0  0  0  0  0  0  0  0
  143.7850   73.5600  219.0830 C   0  0  0  0  0  0  0  0  0  0  0  0
  143.7380   72.1420  219.6750 C   0  0  0  0  0  0  0  0  0  0  0  0
  145.1430   71.6380  219.6930 C   0  0  0  0  0  0  0  0  0  0  0  0
  146.1430   72.6730  219.7470 N   0  0  0  0  0  0  0  0  0  0  0  0
  145.7450   73.7540  220.6200 C   0  0  0  0  0  0  0  0  0  0  0  0
  144.4570   74.3990  220.1630 C   0  0  0  0  0  0  0  0  0  0  0  0
  143.0284   78.3144  216.2556 H   0  0  0  0  0  0  0  0  0  0  0  0
  142.7128   80.7613  216.6676 H   0  0  0  0  0  0  0  0  0  0  0  0
  141.3479   79.8469  220.6530 H   0  0  0  0  0  0  0  0  0  0  0  0
  142.2261   74.4132  221.7367 H   0  0  0  0  0  0  0  0  0  0  0  0
  139.6735   74.0397  221.7551 H   0  0  0  0  0  0  0  0  0  0  0  0
  137.5379   75.5297  221.9231 H   0  0  0  0  0  0  0  0  0  0  0  0
  136.5254   77.6415  222.7165 H   0  0  0  0  0  0  0  0  0  0  0  0
  137.9626   79.5695  223.4383 H   0  0  0  0  0  0  0  0  0  0  0  0
  139.4671   81.1578  222.8685 H   0  0  0  0  0  0  0  0  0  0  0  0
  140.1470   81.2868  224.4676 H   0  0  0  0  0  0  0  0  0  0  0  0
  141.5116   81.5968  221.7392 H   0  0  0  0  0  0  0  0  0  0  0  0
  141.8616   82.4987  223.2081 H   0  0  0  0  0  0  0  0  0  0  0  0
  143.1738   80.1431  222.2299 H   0  0  0  0  0  0  0  0  0  0  0  0
  143.4734   80.9478  223.7851 H   0  0  0  0  0  0  0  0  0  0  0  0
  142.4386   78.3839  223.5546 H   0  0  0  0  0  0  0  0  0  0  0  0
  142.1285   79.3746  224.9558 H   0  0  0  0  0  0  0  0  0  0  0  0
  141.7069   73.5627  219.4149 H   0  0  0  0  0  0  0  0  0  0  0  0
  142.2853   73.9413  217.7006 H   0  0  0  0  0  0  0  0  0  0  0  0
  144.3234   73.5721  218.1239 H   0  0  0  0  0  0  0  0  0  0  0  0
  143.3326   72.1712  220.6971 H   0  0  0  0  0  0  0  0  0  0  0  0
  143.0895   71.4848  219.0770 H   0  0  0  0  0  0  0  0  0  0  0  0
  145.2665   70.9932  220.5756 H   0  0  0  0  0  0  0  0  0  0  0  0
  145.2970   71.1001  218.7459 H   0  0  0  0  0  0  0  0  0  0  0  0
  147.0600   72.3340  220.1030 H   0  0  0  0  0  0  0  0  0  0  0  0
  145.6036   73.3574  221.6362 H   0  0  0  0  0  0  0  0  0  0  0  0
  146.5359   74.5182  220.6004 H   0  0  0  0  0  0  0  0  0  0  0  0
  143.7764   74.4934  221.0220 H   0  0  0  0  0  0  0  0  0  0  0  0
  144.6877   75.3906  219.7465 H   0  0  0  0  0  0  0  0  0  0  0  0
  1  2  2  0
  2  3  1  0
  3  4  2  0
  4  5  1  0
  5  6  2  0
  6  7  1  0
  6  8  1  0
  8  9  2  0
  9 10  1  0
 10 11  2  0
 11 12  1  0
 12 13  2  0
 13 14  1  0
 14 15  2  0
 15 16  1  0
 16 17  2  0
 17 18  1  0
 18 19  1  0
 19 20  1  0
 20 21  1  0
 21 22  1  0
 22 23  1  0
 18 24  2  0
 11 25  1  0
 25 26  1  0
 26 27  1  0
 27 28  1  0
 28 29  1  0
 29 30  1  0
 30 31  1  0
 31 32  1  0
 25  2  1  0
 32 27  1  0
  9  3  1  0
 24 14  1  0
 23 19  1  0
  4 33  1  0
  5 34  1  0
  8 35  1  0
 12 36  1  0
 13 37  1  0
 15 38  1  0
 16 39  1  0
 17 40  1  0
 20 41  1  0
 20 42  1  0
 21 43  1  0
 21 44  1  0
 22 45  1  0
 22 46  1  0
 23 47  1  0
 23 48  1  0
 26 49  1  0
 26 50  1  0
 27 51  1  0
 28 52  1  0
 28 53  1  0
 29 54  1  0
 29 55  1  0
 30 56  1  0
 31 57  1  0
 31 58  1  0
 32 59  1  0
 32 60  1  0
M  END
>  <smiles>  (24) 
O=c1c2ccc(Cl)cc2nc(/C=C/c2cccc(N3CCCC3)n2)n1CC1CCNCC1

>  <score_type>  (24) 
oracle

>  <origin>  (24) 
autodockgpu

>  <m_score__min__energy>  (24) 
-9.3200000000000003

>  <m_primary>  (24) 
energy

>  <rmsd>  (24) 
5.2661516265263915

>  <m_score__min__rmsd>  (24) 
5.2661516265263915

>  <meeko>  (24) 
{"free_energy": -7.55, "intermolecular_energy": -9.34, "internal_energy": -2.03, "cluster_size": 3, "cluster_id": 7, "rank_in_cluster": 1}

>  <energy>  (24) 
-8.51

>  <cluster_rmsd>  (24) 
0.0

>  <cluster>  (24) 
2

$$$$

     RDKit          3D

 60 64  0  0  0  0  0  0  0  0999 V2000
  137.4910   78.0430  222.7210 O   0  0  0  0  0  0  0  0  0  0  0  0
  138.7490   77.9980  222.8220 C   0  0  0  0  0  0  0  0  0  0  0  0
  139.3480   76.8480  222.3280 C   0  0  0  0  0  0  0  0  0  0  0  0
  138.5930   75.8420  221.7690 C   0  0  0  0  0  0  0  0  0  0  0  0
  139.2200   74.7020  221.2820 C   0  0  0  0  0  0  0  0  0  0  0  0
  140.6100   74.6040  221.3720 C   0  0  0  0  0  0  0  0  0  0  0  0
  141.4120   73.1630  220.7570 Cl  0  0  0  0  0  0  0  0  0  0  0  0
  141.3310   75.6440  221.9440 C   0  0  0  0  0  0  0  0  0  0  0  0
  140.7210   76.7780  222.4290 C   0  0  0  0  0  0  0  0  0  0  0  0
  141.4490   77.7650  222.9760 N   0  0  0  0  0  0  0  0  0  0  0  0
  140.8140   78.8560  223.4390 C   0  0  0  0  0  0  0  0  0  0  0  0
  141.6760   79.8990  224.0230 C   0  0  0  0  0  0  0  0  0  0  0  0
  142.4850   80.5780  223.2430 C   0  0  0  0  0  0  0  0  0  0  0  0
  142.1120   80.8220  221.8470 C   0  0  0  0  0  0  0  0  0  0  0  0
  141.7920   82.0760  221.3700 C   0  0  0  0  0  0  0  0  0  0  0  0
  141.4470   82.2440  220.0360 C   0  0  0  0  0  0  0  0  0  0  0  0
  141.4110   81.1730  219.1480 C   0  0  0  0  0  0  0  0  0  0  0  0
  141.7400   79.9410  219.6740 C   0  0  0  0  0  0  0  0  0  0  0  0
  141.7270   78.7960  218.8320 N   0  0  0  0  0  0  0  0  0  0  0  0
  140.9100   77.6130  218.9510 C   0  0  0  0  0  0  0  0  0  0  0  0
  141.9340   76.5010  218.7000 C   0  0  0  0  0  0  0  0  0  0  0  0
  142.9540   77.1350  217.8130 C   0  0  0  0  0  0  0  0  0  0  0  0
  142.5520   78.5830  217.6540 C   0  0  0  0  0  0  0  0  0  0  0  0
  142.0710   79.8060  220.9700 N   0  0  0  0  0  0  0  0  0  0  0  0
  139.4680   79.0040  223.3770 N   0  0  0  0  0  0  0  0  0  0  0  0
  138.8390   80.1770  223.8930 C   0  0  0  0  0  0  0  0  0  0  0  0
  138.6760   81.3100  222.9400 C   0  0  0  0  0  0  0  0  0  0  0  0
  137.3830   82.1050  223.1850 C   0  0  0  0  0  0  0  0  0  0  0  0
  137.4690   83.3350  222.3450 C   0  0  0  0  0  0  0  0  0  0  0  0
  138.3150   83.2030  221.1860 N   0  0  0  0  0  0  0  0  0  0  0  0
  138.1710   81.9050  220.5660 C   0  0  0  0  0  0  0  0  0  0  0  0
  138.5340   80.7870  221.5160 C   0  0  0  0  0  0  0  0  0  0  0  0
  137.4991   75.9402  221.7082 H   0  0  0  0  0  0  0  0  0  0  0  0
  138.6307   73.8892  220.8325 H   0  0  0  0  0  0  0  0  0  0  0  0
  142.4256   75.5584  222.0116 H   0  0  0  0  0  0  0  0  0  0  0  0
  141.6419   80.1068  225.1027 H   0  0  0  0  0  0  0  0  0  0  0  0
  143.4382   80.9619  223.6355 H   0  0  0  0  0  0  0  0  0  0  0  0
  141.8102   82.9430  222.0467 H   0  0  0  0  0  0  0  0  0  0  0  0
  141.1953   83.2507  219.6709 H   0  0  0  0  0  0  0  0  0  0  0  0
  141.1367   81.3012  218.0905 H   0  0  0  0  0  0  0  0  0  0  0  0
  140.4671   77.5310  219.9545 H   0  0  0  0  0  0  0  0  0  0  0  0
  140.0514   77.5925  218.2637 H   0  0  0  0  0  0  0  0  0  0  0  0
  142.3902   76.1704  219.6448 H   0  0  0  0  0  0  0  0  0  0  0  0
  141.4814   75.6058  218.2485 H   0  0  0  0  0  0  0  0  0  0  0  0
  143.9510   77.0667  218.2727 H   0  0  0  0  0  0  0  0  0  0  0  0
  143.0001   76.6280  216.8379 H   0  0  0  0  0  0  0  0  0  0  0  0
  143.4307   79.2447  217.6559 H   0  0  0  0  0  0  0  0  0  0  0  0
  142.0380   78.8002  216.7061 H   0  0  0  0  0  0  0  0  0  0  0  0
  137.8382   79.8918  224.2494 H   0  0  0  0  0  0  0  0  0  0  0  0
  139.5114   80.5492  224.6800 H   0  0  0  0  0  0  0  0  0  0  0  0
  139.5643   81.9421  223.0859 H   0  0  0  0  0  0  0  0  0  0  0  0
  136.5084   81.5059  222.8912 H   0  0  0  0  0  0  0  0  0  0  0  0
  137.2716   82.3602  224.2492 H   0  0  0  0  0  0  0  0  0  0  0  0
  136.4550   83.5911  222.0041 H   0  0  0  0  0  0  0  0  0  0  0  0
  137.9179   84.1166  222.9756 H   0  0  0  0  0  0  0  0  0  0  0  0
  138.1040   83.9040  220.4470 H   0  0  0  0  0  0  0  0  0  0  0  0
  137.1261   81.7764  220.2472 H   0  0  0  0  0  0  0  0  0  0  0  0
  138.8548   81.8588  219.7056 H   0  0  0  0  0  0  0  0  0  0  0  0
  137.7444   80.0216  221.4903 H   0  0  0  0  0  0  0  0  0  0  0  0
  139.4961   80.3563  221.2016 H   0  0  0  0  0  0  0  0  0  0  0  0
  1  2  2  0
  2  3  1  0
  3  4  2  0
  4  5  1  0
  5  6  2  0
  6  7  1  0
  6  8  1  0
  8  9  2  0
  9 10  1  0
 10 11  2  0
 11 12  1  0
 12 13  2  0
 13 14  1  0
 14 15  2  0
 15 16  1  0
 16 17  2  0
 17 18  1  0
 18 19  1  0
 19 20  1  0
 20 21  1  0
 21 22  1  0
 22 23  1  0
 18 24  2  0
 11 25  1  0
 25 26  1  0
 26 27  1  0
 27 28  1  0
 28 29  1  0
 29 30  1  0
 30 31  1  0
 31 32  1  0
 25  2  1  0
 32 27  1  0
  9  3  1  0
 24 14  1  0
 23 19  1  0
  4 33  1  0
  5 34  1  0
  8 35  1  0
 12 36  1  0
 13 37  1  0
 15 38  1  0
 16 39  1  0
 17 40  1  0
 20 41  1  0
 20 42  1  0
 21 43  1  0
 21 44  1  0
 22 45  1  0
 22 46  1  0
 23 47  1  0
 23 48  1  0
 26 49  1  0
 26 50  1  0
 27 51  1  0
 28 52  1  0
 28 53  1  0
 29 54  1  0
 29 55  1  0
 30 56  1  0
 31 57  1  0
 31 58  1  0
 32 59  1  0
 32 60  1  0
M  END
>  <smiles>  (25) 
O=c1c2ccc(Cl)cc2nc(/C=C/c2cccc(N3CCCC3)n2)n1CC1CCNCC1

>  <score_type>  (25) 
oracle

>  <origin>  (25) 
autodockgpu

>  <m_score__min__energy>  (25) 
-9.3200000000000003

>  <m_primary>  (25) 
energy

>  <rmsd>  (25) 
7.06404616924435

>  <m_score__min__rmsd>  (25) 
7.06404616924435

>  <meeko>  (25) 
{"free_energy": -6.13, "intermolecular_energy": -7.92, "internal_energy": -3.28, "cluster_size": 6, "cluster_id": 9, "rank_in_cluster": 4}

>  <energy>  (25) 
-7.47

>  <cluster_rmsd>  (25) 
1.38

>  <cluster>  (25) 
2

$$$$

     RDKit          3D

 60 64  0  0  0  0  0  0  0  0999 V2000
  142.9190   76.9980  219.2340 O   0  0  0  0  0  0  0  0  0  0  0  0
  142.1300   76.5470  220.1110 C   0  0  0  0  0  0  0  0  0  0  0  0
  141.5460   77.4970  220.9360 C   0  0  0  0  0  0  0  0  0  0  0  0
  141.8280   78.8350  220.7830 C   0  0  0  0  0  0  0  0  0  0  0  0
  141.2290   79.7650  221.6240 C   0  0  0  0  0  0  0  0  0  0  0  0
  140.3490   79.3160  222.6110 C   0  0  0  0  0  0  0  0  0  0  0  0
  139.5860   80.4870  223.6790 Cl  0  0  0  0  0  0  0  0  0  0  0  0
  140.0940   77.9550  222.7280 C   0  0  0  0  0  0  0  0  0  0  0  0
  140.6820   77.0260  221.9000 C   0  0  0  0  0  0  0  0  0  0  0  0
  140.4120   75.7180  222.0420 N   0  0  0  0  0  0  0  0  0  0  0  0
  141.0080   74.8420  221.2130 C   0  0  0  0  0  0  0  0  0  0  0  0
  140.6640   73.4260  221.4240 C   0  0  0  0  0  0  0  0  0  0  0  0
  139.4690   73.1110  221.8720 C   0  0  0  0  0  0  0  0  0  0  0  0
  139.3020   71.9330  222.7270 C   0  0  0  0  0  0  0  0  0  0  0  0
  138.4400   70.9020  222.4140 C   0  0  0  0  0  0  0  0  0  0  0  0
  138.3240   69.8120  223.2630 C   0  0  0  0  0  0  0  0  0  0  0  0
  139.0600   69.7190  224.4420 C   0  0  0  0  0  0  0  0  0  0  0  0
  139.9070   70.7750  224.7090 C   0  0  0  0  0  0  0  0  0  0  0  0
  140.6920   70.7570  225.8930 N   0  0  0  0  0  0  0  0  0  0  0  0
  141.0440   69.6210  226.7110 C   0  0  0  0  0  0  0  0  0  0  0  0
  140.8020   70.1680  228.1220 C   0  0  0  0  0  0  0  0  0  0  0  0
  141.0410   71.6350  227.9930 C   0  0  0  0  0  0  0  0  0  0  0  0
  141.3160   71.9040  226.5320 C   0  0  0  0  0  0  0  0  0  0  0  0
  140.0000   71.8200  223.8680 N   0  0  0  0  0  0  0  0  0  0  0  0
  141.8690   75.2230  220.2380 N   0  0  0  0  0  0  0  0  0  0  0  0
  142.4860   74.2540  219.3910 C   0  0  0  0  0  0  0  0  0  0  0  0
  143.6810   73.5580  219.9470 C   0  0  0  0  0  0  0  0  0  0  0  0
  144.7890   74.5370  220.3670 C   0  0  0  0  0  0  0  0  0  0  0  0
  145.8000   73.7410  221.1230 C   0  0  0  0  0  0  0  0  0  0  0  0
  145.8270   72.3410  220.7830 N   0  0  0  0  0  0  0  0  0  0  0  0
  145.6500   72.1340  219.3640 C   0  0  0  0  0  0  0  0  0  0  0  0
  144.3300   72.6880  218.8770 C   0  0  0  0  0  0  0  0  0  0  0  0
  142.5243   79.1669  219.9987 H   0  0  0  0  0  0  0  0  0  0  0  0
  141.4446   80.8380  221.5140 H   0  0  0  0  0  0  0  0  0  0  0  0
  139.3996   77.6089  223.5077 H   0  0  0  0  0  0  0  0  0  0  0  0
  141.4009   72.6382  221.2085 H   0  0  0  0  0  0  0  0  0  0  0  0
  138.5986   73.7289  221.6062 H   0  0  0  0  0  0  0  0  0  0  0  0
  137.8444   70.9449  221.4902 H   0  0  0  0  0  0  0  0  0  0  0  0
  137.6322   68.9988  222.9984 H   0  0  0  0  0  0  0  0  0  0  0  0
  138.9714   68.8564  225.1188 H   0  0  0  0  0  0  0  0  0  0  0  0
  140.3960   68.7578  226.4989 H   0  0  0  0  0  0  0  0  0  0  0  0
  142.0663   69.2504  226.5448 H   0  0  0  0  0  0  0  0  0  0  0  0
  139.7700   69.9681  228.4460 H   0  0  0  0  0  0  0  0  0  0  0  0
  141.4553   69.6995  228.8728 H   0  0  0  0  0  0  0  0  0  0  0  0
  140.1521   72.1940  228.3205 H   0  0  0  0  0  0  0  0  0  0  0  0
  141.8866   71.9544  228.6198 H   0  0  0  0  0  0  0  0  0  0  0  0
  140.8519   72.8460  226.2044 H   0  0  0  0  0  0  0  0  0  0  0  0
  142.3840   72.0184  226.2946 H   0  0  0  0  0  0  0  0  0  0  0  0
  141.7327   73.4886  219.1528 H   0  0  0  0  0  0  0  0  0  0  0  0
  142.8525   74.8163  218.5195 H   0  0  0  0  0  0  0  0  0  0  0  0
  143.3100   72.9847  220.8094 H   0  0  0  0  0  0  0  0  0  0  0  0
  145.2513   74.9906  219.4779 H   0  0  0  0  0  0  0  0  0  0  0  0
  144.3839   75.3518  220.9851 H   0  0  0  0  0  0  0  0  0  0  0  0
  146.7945   74.1644  220.9189 H   0  0  0  0  0  0  0  0  0  0  0  0
  145.5192   73.8020  222.1848 H   0  0  0  0  0  0  0  0  0  0  0  0
  146.7250   71.8800  221.0350 H   0  0  0  0  0  0  0  0  0  0  0  0
  146.4674   72.6364  218.8260 H   0  0  0  0  0  0  0  0  0  0  0  0
  145.6582   71.0508  219.1724 H   0  0  0  0  0  0  0  0  0  0  0  0
  144.5037   73.2942  217.9757 H   0  0  0  0  0  0  0  0  0  0  0  0
  143.6573   71.8480  218.6494 H   0  0  0  0  0  0  0  0  0  0  0  0
  1  2  2  0
  2  3  1  0
  3  4  2  0
  4  5  1  0
  5  6  2  0
  6  7  1  0
  6  8  1  0
  8  9  2  0
  9 10  1  0
 10 11  2  0
 11 12  1  0
 12 13  2  0
 13 14  1  0
 14 15  2  0
 15 16  1  0
 16 17  2  0
 17 18  1  0
 18 19  1  0
 19 20  1  0
 20 21  1  0
 21 22  1  0
 22 23  1  0
 18 24  2  0
 11 25  1  0
 25 26  1  0
 26 27  1  0
 27 28  1  0
 28 29  1  0
 29 30  1  0
 30 31  1  0
 31 32  1  0
 25  2  1  0
 32 27  1  0
  9  3  1  0
 24 14  1  0
 23 19  1  0
  4 33  1  0
  5 34  1  0
  8 35  1  0
 12 36  1  0
 13 37  1  0
 15 38  1  0
 16 39  1  0
 17 40  1  0
 20 41  1  0
 20 42  1  0
 21 43  1  0
 21 44  1  0
 22 45  1  0
 22 46  1  0
 23 47  1  0
 23 48  1  0
 26 49  1  0
 26 50  1  0
 27 51  1  0
 28 52  1  0
 28 53  1  0
 29 54  1  0
 29 55  1  0
 30 56  1  0
 31 57  1  0
 31 58  1  0
 32 59  1  0
 32 60  1  0
M  END
>  <smiles>  (26) 
O=c1c2ccc(Cl)cc2nc(/C=C/c2cccc(N3CCCC3)n2)n1CC1CCNCC1

>  <score_type>  (26) 
oracle

>  <origin>  (26) 
autodockgpu

>  <m_score__min__energy>  (26) 
-9.3200000000000003

>  <m_primary>  (26) 
energy

>  <rmsd>  (26) 
4.635137268147158

>  <m_score__min__rmsd>  (26) 
4.635137268147158

>  <meeko>  (26) 
{"free_energy": -9.32, "intermolecular_energy": -11.11, "internal_energy": -1.34, "cluster_size": 23, "cluster_id": 1, "rank_in_cluster": 1}

>  <energy>  (26) 
-7.4

>  <cluster_rmsd>  (26) 
1.0

>  <cluster>  (26) 
2

$$$$

     RDKit          3D

 60 64  0  0  0  0  0  0  0  0999 V2000
  137.0410   78.0310  222.7590 O   0  0  0  0  0  0  0  0  0  0  0  0
  138.1590   77.4920  222.5230 C   0  0  0  0  0  0  0  0  0  0  0  0
  139.2710   78.2540  222.8490 C   0  0  0  0  0  0  0  0  0  0  0  0
  139.1320   79.5100  223.3940 C   0  0  0  0  0  0  0  0  0  0  0  0
  140.2640   80.2520  223.7110 C   0  0  0  0  0  0  0  0  0  0  0  0
  141.5240   79.6990  223.4680 C   0  0  0  0  0  0  0  0  0  0  0  0
  142.9620   80.6310  223.8680 Cl  0  0  0  0  0  0  0  0  0  0  0  0
  141.6150   78.4270  222.9170 C   0  0  0  0  0  0  0  0  0  0  0  0
  140.5010   77.6850  222.6000 C   0  0  0  0  0  0  0  0  0  0  0  0
  140.6270   76.4580  222.0680 N   0  0  0  0  0  0  0  0  0  0  0  0
  139.5130   75.7660  221.7710 C   0  0  0  0  0  0  0  0  0  0  0  0
  139.7270   74.4270  221.1940 C   0  0  0  0  0  0  0  0  0  0  0  0
  140.4830   73.5630  221.8310 C   0  0  0  0  0  0  0  0  0  0  0  0
  139.8600   72.5220  222.6540 C   0  0  0  0  0  0  0  0  0  0  0  0
  138.7070   71.8650  222.2770 C   0  0  0  0  0  0  0  0  0  0  0  0
  138.1640   70.8880  223.0990 C   0  0  0  0  0  0  0  0  0  0  0  0
  138.7530   70.5410  224.3130 C   0  0  0  0  0  0  0  0  0  0  0  0
  139.9030   71.2270  224.6430 C   0  0  0  0  0  0  0  0  0  0  0  0
  140.5640   70.9320  225.8660 N   0  0  0  0  0  0  0  0  0  0  0  0
  140.6580   69.6620  226.5440 C   0  0  0  0  0  0  0  0  0  0  0  0
  140.3750   70.0630  227.9960 C   0  0  0  0  0  0  0  0  0  0  0  0
  140.8500   71.4750  228.0860 C   0  0  0  0  0  0  0  0  0  0  0  0
  141.2970   71.8720  226.6990 C   0  0  0  0  0  0  0  0  0  0  0  0
  140.4090   72.1700  223.8280 N   0  0  0  0  0  0  0  0  0  0  0  0
  138.2660   76.2520  221.9860 N   0  0  0  0  0  0  0  0  0  0  0  0
  137.1150   75.4830  221.6430 C   0  0  0  0  0  0  0  0  0  0  0  0
  136.5610   74.6110  222.7180 C   0  0  0  0  0  0  0  0  0  0  0  0
  135.5000   73.6300  222.1920 C   0  0  0  0  0  0  0  0  0  0  0  0
  135.2200   72.6680  223.2980 C   0  0  0  0  0  0  0  0  0  0  0  0
  135.4860   73.1860  224.6160 N   0  0  0  0  0  0  0  0  0  0  0  0
  135.0860   74.5700  224.7350 C   0  0  0  0  0  0  0  0  0  0  0  0
  135.8200   75.4520  223.7500 C   0  0  0  0  0  0  0  0  0  0  0  0
  138.1300   79.9248  223.5779 H   0  0  0  0  0  0  0  0  0  0  0  0
  140.1694   81.2579  224.1460 H   0  0  0  0  0  0  0  0  0  0  0  0
  142.6106   77.9991  222.7280 H   0  0  0  0  0  0  0  0  0  0  0  0
  139.2573   74.1537  220.2376 H   0  0  0  0  0  0  0  0  0  0  0  0
  141.5784   73.6199  221.7476 H   0  0  0  0  0  0  0  0  0  0  0  0
  138.2179   72.1158  221.3242 H   0  0  0  0  0  0  0  0  0  0  0  0
  137.2441   70.3738  222.7839 H   0  0  0  0  0  0  0  0  0  0  0  0
  138.3268   69.7671  224.9683 H   0  0  0  0  0  0  0  0  0  0  0  0
  139.9060   68.9514  226.1704 H   0  0  0  0  0  0  0  0  0  0  0  0
  141.6213   69.1502  226.4018 H   0  0  0  0  0  0  0  0  0  0  0  0
  139.2991   69.9987  228.2157 H   0  0  0  0  0  0  0  0  0  0  0  0
  140.8756   69.4034  228.7201 H   0  0  0  0  0  0  0  0  0  0  0  0
  140.0323   72.1293  228.4225 H   0  0  0  0  0  0  0  0  0  0  0  0
  141.6733   71.5701  228.8093 H   0  0  0  0  0  0  0  0  0  0  0  0
  141.0173   72.9111  226.4708 H   0  0  0  0  0  0  0  0  0  0  0  0
  142.3871   71.8354  226.5563 H   0  0  0  0  0  0  0  0  0  0  0  0
  136.3231   76.1825  221.3370 H   0  0  0  0  0  0  0  0  0  0  0  0
  137.4454   74.7971  220.8490 H   0  0  0  0  0  0  0  0  0  0  0  0
  137.4268   74.0742  223.1330 H   0  0  0  0  0  0  0  0  0  0  0  0
  134.5828   74.1732  221.9207 H   0  0  0  0  0  0  0  0  0  0  0  0
  135.8564   73.1063  221.2927 H   0  0  0  0  0  0  0  0  0  0  0  0
  134.1585   72.3841  223.2472 H   0  0  0  0  0  0  0  0  0  0  0  0
  135.8983   71.8144  223.1522 H   0  0  0  0  0  0  0  0  0  0  0  0
  134.9800   72.6720  225.3650 H   0  0  0  0  0  0  0  0  0  0  0  0
  134.0052   74.6461  224.5449 H   0  0  0  0  0  0  0  0  0  0  0  0
  135.3330   74.9118  225.7510 H   0  0  0  0  0  0  0  0  0  0  0  0
  135.0944   76.0984  223.2346 H   0  0  0  0  0  0  0  0  0  0  0  0
  136.5525   76.0610  224.3000 H   0  0  0  0  0  0  0  0  0  0  0  0
  1  2  2  0
  2  3  1  0
  3  4  2  0
  4  5  1  0
  5  6  2  0
  6  7  1  0
  6  8  1  0
  8  9  2  0
  9 10  1  0
 10 11  2  0
 11 12  1  0
 12 13  2  0
 13 14  1  0
 14 15  2  0
 15 16  1  0
 16 17  2  0
 17 18  1  0
 18 19  1  0
 19 20  1  0
 20 21  1  0
 21 22  1  0
 22 23  1  0
 18 24  2  0
 11 25  1  0
 25 26  1  0
 26 27  1  0
 27 28  1  0
 28 29  1  0
 29 30  1  0
 30 31  1  0
 31 32  1  0
 25  2  1  0
 32 27  1  0
  9  3  1  0
 24 14  1  0
 23 19  1  0
  4 33  1  0
  5 34  1  0
  8 35  1  0
 12 36  1  0
 13 37  1  0
 15 38  1  0
 16 39  1  0
 17 40  1  0
 20 41  1  0
 20 42  1  0
 21 43  1  0
 21 44  1  0
 22 45  1  0
 22 46  1  0
 23 47  1  0
 23 48  1  0
 26 49  1  0
 26 50  1  0
 27 51  1  0
 28 52  1  0
 28 53  1  0
 29 54  1  0
 29 55  1  0
 30 56  1  0
 31 57  1  0
 31 58  1  0
 32 59  1  0
 32 60  1  0
M  END
>  <smiles>  (27) 
O=c1c2ccc(Cl)cc2nc(/C=C/c2cccc(N3CCCC3)n2)n1CC1CCNCC1

>  <score_type>  (27) 
oracle

>  <origin>  (27) 
autodockgpu

>  <m_score__min__energy>  (27) 
-9.3200000000000003

>  <m_primary>  (27) 
energy

>  <rmsd>  (27) 
5.799366327048358

>  <m_score__min__rmsd>  (27) 
5.799366327048358

>  <meeko>  (27) 
{"free_energy": -8.51, "intermolecular_energy": -10.3, "internal_energy": -1.98, "cluster_size": 3, "cluster_id": 2, "rank_in_cluster": 1}

>  <energy>  (27) 
-8.33

>  <cluster_rmsd>  (27) 
0.0

>  <cluster>  (27) 
3

$$$$

     RDKit          3D

 60 64  0  0  0  0  0  0  0  0999 V2000
  142.6850   76.7920  219.4650 O   0  0  0  0  0  0  0  0  0  0  0  0
  141.8530   76.4740  220.3600 C   0  0  0  0  0  0  0  0  0  0  0  0
  141.3930   77.5190  221.1470 C   0  0  0  0  0  0  0  0  0  0  0  0
  141.8320   78.8070  220.9400 C   0  0  0  0  0  0  0  0  0  0  0  0
  141.3540   79.8350  221.7440 C   0  0  0  0  0  0  0  0  0  0  0  0
  140.4330   79.5340  222.7490 C   0  0  0  0  0  0  0  0  0  0  0  0
  139.8210   80.8300  223.7710 Cl  0  0  0  0  0  0  0  0  0  0  0  0
  140.0170   78.2190  222.9220 C   0  0  0  0  0  0  0  0  0  0  0  0
  140.4840   77.1940  222.1310 C   0  0  0  0  0  0  0  0  0  0  0  0
  140.0610   75.9340  222.3260 N   0  0  0  0  0  0  0  0  0  0  0  0
  140.5430   74.9620  221.5330 C   0  0  0  0  0  0  0  0  0  0  0  0
  140.0330   73.6060  221.8020 C   0  0  0  0  0  0  0  0  0  0  0  0
  140.8280   72.7140  222.3460 C   0  0  0  0  0  0  0  0  0  0  0  0
  140.2550   71.5530  223.0320 C   0  0  0  0  0  0  0  0  0  0  0  0
  139.6310   70.5230  222.3600 C   0  0  0  0  0  0  0  0  0  0  0  0
  139.1070   69.4490  223.0650 C   0  0  0  0  0  0  0  0  0  0  0  0
  139.1900   69.3730  224.4530 C   0  0  0  0  0  0  0  0  0  0  0  0
  139.8240   70.4270  225.0780 C   0  0  0  0  0  0  0  0  0  0  0  0
  139.9490   70.4260  226.4930 N   0  0  0  0  0  0  0  0  0  0  0  0
  140.3450   71.5150  227.3530 C   0  0  0  0  0  0  0  0  0  0  0  0
  141.3250   70.8190  228.3050 C   0  0  0  0  0  0  0  0  0  0  0  0
  140.8490   69.4050  228.3510 C   0  0  0  0  0  0  0  0  0  0  0  0
  139.6960   69.3020  227.3800 C   0  0  0  0  0  0  0  0  0  0  0  0
  140.3230   71.4560  224.3700 N   0  0  0  0  0  0  0  0  0  0  0  0
  141.4380   75.1970  220.5420 N   0  0  0  0  0  0  0  0  0  0  0  0
  141.9280   74.1280  219.7340 C   0  0  0  0  0  0  0  0  0  0  0  0
  143.2070   73.5030  220.1740 C   0  0  0  0  0  0  0  0  0  0  0  0
  144.3860   74.4900  220.1440 C   0  0  0  0  0  0  0  0  0  0  0  0
  145.5260   73.8180  220.8340 C   0  0  0  0  0  0  0  0  0  0  0  0
  145.4720   72.3780  220.8030 N   0  0  0  0  0  0  0  0  0  0  0  0
  145.0030   71.8900  219.5260 C   0  0  0  0  0  0  0  0  0  0  0  0
  143.6140   72.3980  219.2070 C   0  0  0  0  0  0  0  0  0  0  0  0
  142.5579   79.0218  220.1419 H   0  0  0  0  0  0  0  0  0  0  0  0
  141.6959   80.8692  221.5909 H   0  0  0  0  0  0  0  0  0  0  0  0
  139.2914   77.9903  223.7165 H   0  0  0  0  0  0  0  0  0  0  0  0
  138.9952   73.3434  221.5492 H   0  0  0  0  0  0  0  0  0  0  0  0
  141.9194   72.8377  222.2870 H   0  0  0  0  0  0  0  0  0  0  0  0
  139.5486   70.5530  221.2635 H   0  0  0  0  0  0  0  0  0  0  0  0
  138.6129   68.6360  222.5129 H   0  0  0  0  0  0  0  0  0  0  0  0
  138.7753   68.5243  225.0168 H   0  0  0  0  0  0  0  0  0  0  0  0
  140.8394   72.3160  226.7838 H   0  0  0  0  0  0  0  0  0  0  0  0
  139.5048   72.0107  227.8612 H   0  0  0  0  0  0  0  0  0  0  0  0
  142.3522   70.8724  227.9150 H   0  0  0  0  0  0  0  0  0  0  0  0
  141.3505   71.2876  229.2999 H   0  0  0  0  0  0  0  0  0  0  0  0
  141.6584   68.7228  228.0518 H   0  0  0  0  0  0  0  0  0  0  0  0
  140.5354   69.1265  229.3679 H   0  0  0  0  0  0  0  0  0  0  0  0
  139.7177   68.3479  226.8329 H   0  0  0  0  0  0  0  0  0  0  0  0
  138.7068   69.3290  227.8604 H   0  0  0  0  0  0  0  0  0  0  0  0
  141.1591   73.3416  219.7158 H   0  0  0  0  0  0  0  0  0  0  0  0
  142.1418   74.5755  218.7522 H   0  0  0  0  0  0  0  0  0  0  0  0
  143.0183   73.1414  221.1956 H   0  0  0  0  0  0  0  0  0  0  0  0
  144.6575   74.7247  219.1042 H   0  0  0  0  0  0  0  0  0  0  0  0
  144.1236   75.4349  220.6423 H   0  0  0  0  0  0  0  0  0  0  0  0
  146.4597   74.1383  220.3486 H   0  0  0  0  0  0  0  0  0  0  0  0
  145.4717   74.1127  221.8924 H   0  0  0  0  0  0  0  0  0  0  0  0
  146.3980   71.9340  220.9620 H   0  0  0  0  0  0  0  0  0  0  0  0
  145.6948   72.2270  218.7400 H   0  0  0  0  0  0  0  0  0  0  0  0
  144.9634   70.7917  219.5729 H   0  0  0  0  0  0  0  0  0  0  0  0
  143.6016   72.7941  218.1809 H   0  0  0  0  0  0  0  0  0  0  0  0
  142.9027   71.5646  219.3042 H   0  0  0  0  0  0  0  0  0  0  0  0
  1  2  2  0
  2  3  1  0
  3  4  2  0
  4  5  1  0
  5  6  2  0
  6  7  1  0
  6  8  1  0
  8  9  2  0
  9 10  1  0
 10 11  2  0
 11 12  1  0
 12 13  2  0
 13 14  1  0
 14 15  2  0
 15 16  1  0
 16 17  2  0
 17 18  1  0
 18 19  1  0
 19 20  1  0
 20 21  1  0
 21 22  1  0
 22 23  1  0
 18 24  2  0
 11 25  1  0
 25 26  1  0
 26 27  1  0
 27 28  1  0
 28 29  1  0
 29 30  1  0
 30 31  1  0
 31 32  1  0
 25  2  1  0
 32 27  1  0
  9  3  1  0
 24 14  1  0
 23 19  1  0
  4 33  1  0
  5 34  1  0
  8 35  1  0
 12 36  1  0
 13 37  1  0
 15 38  1  0
 16 39  1  0
 17 40  1  0
 20 41  1  0
 20 42  1  0
 21 43  1  0
 21 44  1  0
 22 45  1  0
 22 46  1  0
 23 47  1  0
 23 48  1  0
 26 49  1  0
 26 50  1  0
 27 51  1  0
 28 52  1  0
 28 53  1  0
 29 54  1  0
 29 55  1  0
 30 56  1  0
 31 57  1  0
 31 58  1  0
 32 59  1  0
 32 60  1  0
M  END
>  <smiles>  (28) 
O=c1c2ccc(Cl)cc2nc(/C=C/c2cccc(N3CCCC3)n2)n1CC1CCNCC1

>  <score_type>  (28) 
oracle

>  <origin>  (28) 
autodockgpu

>  <m_score__min__energy>  (28) 
-9.3200000000000003

>  <m_primary>  (28) 
energy

>  <rmsd>  (28) 
4.39982760830652

>  <m_score__min__rmsd>  (28) 
4.39982760830652

>  <meeko>  (28) 
{"free_energy": -8.89, "intermolecular_energy": -10.68, "internal_energy": -1.32, "cluster_size": 23, "cluster_id": 1, "rank_in_cluster": 16}

>  <energy>  (28) 
-7.95

>  <cluster_rmsd>  (28) 
0.0

>  <cluster>  (28) 
4

$$$$

     RDKit          3D

 60 64  0  0  0  0  0  0  0  0999 V2000
  137.1360   77.3600  222.5150 O   0  0  0  0  0  0  0  0  0  0  0  0
  138.3250   76.9920  222.2990 C   0  0  0  0  0  0  0  0  0  0  0  0
  139.3080   77.8930  222.6800 C   0  0  0  0  0  0  0  0  0  0  0  0
  138.9780   79.1000  223.2540 C   0  0  0  0  0  0  0  0  0  0  0  0
  139.9840   79.9840  223.6250 C   0  0  0  0  0  0  0  0  0  0  0  0
  141.3150   79.6220  223.4060 C   0  0  0  0  0  0  0  0  0  0  0  0
  142.5950   80.7350  223.8750 Cl  0  0  0  0  0  0  0  0  0  0  0  0
  141.6010   78.3940  222.8250 C   0  0  0  0  0  0  0  0  0  0  0  0
  140.6130   77.5110  222.4540 C   0  0  0  0  0  0  0  0  0  0  0  0
  140.9260   76.3310  221.8930 N   0  0  0  0  0  0  0  0  0  0  0  0
  139.9300   75.4980  221.5440 C   0  0  0  0  0  0  0  0  0  0  0  0
  140.3470   74.2220  220.9380 C   0  0  0  0  0  0  0  0  0  0  0  0
  141.0900   73.3900  221.6320 C   0  0  0  0  0  0  0  0  0  0  0  0
  140.5060   72.1460  222.1400 C   0  0  0  0  0  0  0  0  0  0  0  0
  140.0230   71.1560  221.3090 C   0  0  0  0  0  0  0  0  0  0  0  0
  139.4810   69.9990  221.8500 C   0  0  0  0  0  0  0  0  0  0  0  0
  139.4050   69.7980  223.2250 C   0  0  0  0  0  0  0  0  0  0  0  0
  139.9020   70.8160  224.0120 C   0  0  0  0  0  0  0  0  0  0  0  0
  139.8610   70.6880  225.4270 N   0  0  0  0  0  0  0  0  0  0  0  0
  140.4480   71.5590  226.4170 C   0  0  0  0  0  0  0  0  0  0  0  0
  141.0780   70.5500  227.3840 C   0  0  0  0  0  0  0  0  0  0  0  0
  140.2210   69.3340  227.2550 C   0  0  0  0  0  0  0  0  0  0  0  0
  139.2030   69.6330  226.1790 C   0  0  0  0  0  0  0  0  0  0  0  0
  140.4220   71.9280  223.4630 N   0  0  0  0  0  0  0  0  0  0  0  0
  138.6220   75.7970  221.7340 N   0  0  0  0  0  0  0  0  0  0  0  0
  137.6000   74.8830  221.3350 C   0  0  0  0  0  0  0  0  0  0  0  0
  137.1590   73.8990  222.3630 C   0  0  0  0  0  0  0  0  0  0  0  0
  136.6670   72.5810  221.7430 C   0  0  0  0  0  0  0  0  0  0  0  0
  136.4990   71.6140  222.8680 C   0  0  0  0  0  0  0  0  0  0  0  0
  136.2520   72.2300  224.1470 N   0  0  0  0  0  0  0  0  0  0  0  0
  135.3720   73.3710  224.0280 C   0  0  0  0  0  0  0  0  0  0  0  0
  135.9520   74.4340  223.1220 C   0  0  0  0  0  0  0  0  0  0  0  0
  137.9227   79.3635  223.4182 H   0  0  0  0  0  0  0  0  0  0  0  0
  139.7361   80.9527  224.0835 H   0  0  0  0  0  0  0  0  0  0  0  0
  142.6522   78.1177  222.6556 H   0  0  0  0  0  0  0  0  0  0  0  0
  140.0390   73.9678  219.9131 H   0  0  0  0  0  0  0  0  0  0  0  0
  142.1458   73.6263  221.8308 H   0  0  0  0  0  0  0  0  0  0  0  0
  140.0677   71.2841  220.2174 H   0  0  0  0  0  0  0  0  0  0  0  0
  139.1010   69.2192  221.1736 H   0  0  0  0  0  0  0  0  0  0  0  0
  138.9747   68.8829  223.6579 H   0  0  0  0  0  0  0  0  0  0  0  0
  141.2090   72.2167  225.9718 H   0  0  0  0  0  0  0  0  0  0  0  0
  139.7297   72.2438  226.8915 H   0  0  0  0  0  0  0  0  0  0  0  0
  142.1159   70.3282  227.0947 H   0  0  0  0  0  0  0  0  0  0  0  0
  141.1216   70.9269  228.4165 H   0  0  0  0  0  0  0  0  0  0  0  0
  140.8337   68.4671  226.9669 H   0  0  0  0  0  0  0  0  0  0  0  0
  139.7294   69.0931  228.2091 H   0  0  0  0  0  0  0  0  0  0  0  0
  139.0155   68.7506  225.5496 H   0  0  0  0  0  0  0  0  0  0  0  0
  138.2145   69.9164  226.5695 H   0  0  0  0  0  0  0  0  0  0  0  0
  136.7208   75.4725  221.0359 H   0  0  0  0  0  0  0  0  0  0  0  0
  138.0410   74.2841  220.5246 H   0  0  0  0  0  0  0  0  0  0  0  0
  138.0379   73.7327  223.0033 H   0  0  0  0  0  0  0  0  0  0  0  0
  135.7059   72.7382  221.2315 H   0  0  0  0  0  0  0  0  0  0  0  0
  137.3833   72.2020  220.9992 H   0  0  0  0  0  0  0  0  0  0  0  0
  135.6496   70.9559  222.6327 H   0  0  0  0  0  0  0  0  0  0  0  0
  137.4498   71.0684  222.9593 H   0  0  0  0  0  0  0  0  0  0  0  0
  135.8030   71.5860  224.8280 H   0  0  0  0  0  0  0  0  0  0  0  0
  134.4092   73.0367  223.6142 H   0  0  0  0  0  0  0  0  0  0  0  0
  135.2410   73.8083  225.0288 H   0  0  0  0  0  0  0  0  0  0  0  0
  135.1843   74.7511  222.4009 H   0  0  0  0  0  0  0  0  0  0  0  0
  136.2733   75.2859  223.7392 H   0  0  0  0  0  0  0  0  0  0  0  0
  1  2  2  0
  2  3  1  0
  3  4  2  0
  4  5  1  0
  5  6  2  0
  6  7  1  0
  6  8  1  0
  8  9  2  0
  9 10  1  0
 10 11  2  0
 11 12  1  0
 12 13  2  0
 13 14  1  0
 14 15  2  0
 15 16  1  0
 16 17  2  0
 17 18  1  0
 18 19  1  0
 19 20  1  0
 20 21  1  0
 21 22  1  0
 22 23  1  0
 18 24  2  0
 11 25  1  0
 25 26  1  0
 26 27  1  0
 27 28  1  0
 28 29  1  0
 29 30  1  0
 30 31  1  0
 31 32  1  0
 25  2  1  0
 32 27  1  0
  9  3  1  0
 24 14  1  0
 23 19  1  0
  4 33  1  0
  5 34  1  0
  8 35  1  0
 12 36  1  0
 13 37  1  0
 15 38  1  0
 16 39  1  0
 17 40  1  0
 20 41  1  0
 20 42  1  0
 21 43  1  0
 21 44  1  0
 22 45  1  0
 22 46  1  0
 23 47  1  0
 23 48  1  0
 26 49  1  0
 26 50  1  0
 27 51  1  0
 28 52  1  0
 28 53  1  0
 29 54  1  0
 29 55  1  0
 30 56  1  0
 31 57  1  0
 31 58  1  0
 32 59  1  0
 32 60  1  0
M  END
>  <smiles>  (29) 
O=c1c2ccc(Cl)cc2nc(/C=C/c2cccc(N3CCCC3)n2)n1CC1CCNCC1

>  <score_type>  (29) 
oracle

>  <origin>  (29) 
autodockgpu

>  <m_score__min__energy>  (29) 
-9.3200000000000003

>  <m_primary>  (29) 
energy

>  <rmsd>  (29) 
5.63404882749233

>  <m_score__min__rmsd>  (29) 
5.63404882749233

>  <meeko>  (29) 
{"free_energy": -7.4, "intermolecular_energy": -9.19, "internal_energy": -2.23, "cluster_size": 3, "cluster_id": 2, "rank_in_cluster": 3}

>  <energy>  (29) 
-7.94

>  <cluster_rmsd>  (29) 
0.0

>  <cluster>  (29) 
5

$$$$

     RDKit          3D

 60 64  0  0  0  0  0  0  0  0999 V2000
  136.1020   76.7280  222.9920 O   0  0  0  0  0  0  0  0  0  0  0  0
  135.8270   75.5230  223.2530 C   0  0  0  0  0  0  0  0  0  0  0  0
  134.9540   75.3260  224.3130 C   0  0  0  0  0  0  0  0  0  0  0  0
  134.4390   76.3920  225.0130 C   0  0  0  0  0  0  0  0  0  0  0  0
  133.5660   76.1640  226.0710 C   0  0  0  0  0  0  0  0  0  0  0  0
  133.2320   74.8490  226.3990 C   0  0  0  0  0  0  0  0  0  0  0  0
  132.1280   74.5520  227.7360 Cl  0  0  0  0  0  0  0  0  0  0  0  0
  133.7770   73.8030  225.6640 C   0  0  0  0  0  0  0  0  0  0  0  0
  134.6410   74.0180  224.6150 C   0  0  0  0  0  0  0  0  0  0  0  0
  135.1490   72.9830  223.9260 N   0  0  0  0  0  0  0  0  0  0  0  0
  135.9910   73.2360  222.9090 C   0  0  0  0  0  0  0  0  0  0  0  0
  136.5070   72.0540  222.1970 C   0  0  0  0  0  0  0  0  0  0  0  0
  136.9050   71.0080  222.8850 C   0  0  0  0  0  0  0  0  0  0  0  0
  138.2200   71.0240  223.5320 C   0  0  0  0  0  0  0  0  0  0  0  0
  139.2610   71.8110  223.0850 C   0  0  0  0  0  0  0  0  0  0  0  0
  140.4840   71.7830  223.7390 C   0  0  0  0  0  0  0  0  0  0  0  0
  140.7020   70.9730  224.8500 C   0  0  0  0  0  0  0  0  0  0  0  0
  139.6310   70.2060  225.2570 C   0  0  0  0  0  0  0  0  0  0  0  0
  139.7730   69.3510  226.3840 N   0  0  0  0  0  0  0  0  0  0  0  0
  139.6730   69.6970  227.7820 C   0  0  0  0  0  0  0  0  0  0  0  0
  140.8760   68.9530  228.3720 C   0  0  0  0  0  0  0  0  0  0  0  0
  141.0640   67.7820  227.4670 C   0  0  0  0  0  0  0  0  0  0  0  0
  140.0510   67.9250  226.3550 C   0  0  0  0  0  0  0  0  0  0  0  0
  138.4560   70.2520  224.6060 N   0  0  0  0  0  0  0  0  0  0  0  0
  136.3490   74.4920  222.5470 N   0  0  0  0  0  0  0  0  0  0  0  0
  137.2560   74.7080  221.4660 C   0  0  0  0  0  0  0  0  0  0  0  0
  138.6220   75.1750  221.8350 C   0  0  0  0  0  0  0  0  0  0  0  0
  138.8060   76.6860  221.6170 C   0  0  0  0  0  0  0  0  0  0  0  0
  140.1060   77.0550  222.2520 C   0  0  0  0  0  0  0  0  0  0  0  0
  141.0500   75.9710  222.3420 N   0  0  0  0  0  0  0  0  0  0  0  0
  141.0270   75.1430  221.1580 C   0  0  0  0  0  0  0  0  0  0  0  0
  139.6630   74.5320  220.9280 C   0  0  0  0  0  0  0  0  0  0  0  0
  134.7164   77.4201  224.7372 H   0  0  0  0  0  0  0  0  0  0  0  0
  133.1455   77.0061  226.6402 H   0  0  0  0  0  0  0  0  0  0  0  0
  133.5089   72.7697  225.9295 H   0  0  0  0  0  0  0  0  0  0  0  0
  136.5586   72.0473  221.0982 H   0  0  0  0  0  0  0  0  0  0  0  0
  136.2550   70.1252  222.9750 H   0  0  0  0  0  0  0  0  0  0  0  0
  139.1212   72.4615  222.2090 H   0  0  0  0  0  0  0  0  0  0  0  0
  141.3032   72.4176  223.3700 H   0  0  0  0  0  0  0  0  0  0  0  0
  141.6701   70.9465  225.3716 H   0  0  0  0  0  0  0  0  0  0  0  0
  139.7593   70.7831  227.9336 H   0  0  0  0  0  0  0  0  0  0  0  0
  138.7109   69.4265  228.2416 H   0  0  0  0  0  0  0  0  0  0  0  0
  141.7698   69.5942  228.3707 H   0  0  0  0  0  0  0  0  0  0  0  0
  140.7141   68.6544  229.4182 H   0  0  0  0  0  0  0  0  0  0  0  0
  142.0833   67.7823  227.0535 H   0  0  0  0  0  0  0  0  0  0  0  0
  140.9240   66.8358  228.0103 H   0  0  0  0  0  0  0  0  0  0  0  0
  140.4741   67.6195  225.3867 H   0  0  0  0  0  0  0  0  0  0  0  0
  139.1581   67.2955  226.4836 H   0  0  0  0  0  0  0  0  0  0  0  0
  137.3620   73.7577  220.9222 H   0  0  0  0  0  0  0  0  0  0  0  0
  136.8170   75.5236  220.8727 H   0  0  0  0  0  0  0  0  0  0  0  0
  138.7443   74.9090  222.8953 H   0  0  0  0  0  0  0  0  0  0  0  0
  138.8313   76.9137  220.5411 H   0  0  0  0  0  0  0  0  0  0  0  0
  137.9741   77.2541  222.0588 H   0  0  0  0  0  0  0  0  0  0  0  0
  140.5626   77.8612  221.6590 H   0  0  0  0  0  0  0  0  0  0  0  0
  139.8774   77.3603  223.2837 H   0  0  0  0  0  0  0  0  0  0  0  0
  142.0320   76.2960  222.4510 H   0  0  0  0  0  0  0  0  0  0  0  0
  141.2927   75.7597  220.2867 H   0  0  0  0  0  0  0  0  0  0  0  0
  141.7494   74.3253  221.2979 H   0  0  0  0  0  0  0  0  0  0  0  0
  139.3713   74.6859  219.8786 H   0  0  0  0  0  0  0  0  0  0  0  0
  139.7149   73.4575  221.1575 H   0  0  0  0  0  0  0  0  0  0  0  0
  1  2  2  0
  2  3  1  0
  3  4  2  0
  4  5  1  0
  5  6  2  0
  6  7  1  0
  6  8  1  0
  8  9  2  0
  9 10  1  0
 10 11  2  0
 11 12  1  0
 12 13  2  0
 13 14  1  0
 14 15  2  0
 15 16  1  0
 16 17  2  0
 17 18  1  0
 18 19  1  0
 19 20  1  0
 20 21  1  0
 21 22  1  0
 22 23  1  0
 18 24  2  0
 11 25  1  0
 25 26  1  0
 26 27  1  0
 27 28  1  0
 28 29  1  0
 29 30  1  0
 30 31  1  0
 31 32  1  0
 25  2  1  0
 32 27  1  0
  9  3  1  0
 24 14  1  0
 23 19  1  0
  4 33  1  0
  5 34  1  0
  8 35  1  0
 12 36  1  0
 13 37  1  0
 15 38  1  0
 16 39  1  0
 17 40  1  0
 20 41  1  0
 20 42  1  0
 21 43  1  0
 21 44  1  0
 22 45  1  0
 22 46  1  0
 23 47  1  0
 23 48  1  0
 26 49  1  0
 26 50  1  0
 27 51  1  0
 28 52  1  0
 28 53  1  0
 29 54  1  0
 29 55  1  0
 30 56  1  0
 31 57  1  0
 31 58  1  0
 32 59  1  0
 32 60  1  0
M  END
>  <smiles>  (30) 
O=c1c2ccc(Cl)cc2nc(/C=C/c2cccc(N3CCCC3)n2)n1CC1CCNCC1

>  <score_type>  (30) 
oracle

>  <origin>  (30) 
autodockgpu

>  <m_score__min__energy>  (30) 
-9.3200000000000003

>  <m_primary>  (30) 
energy

>  <rmsd>  (30) 
7.877328069049828

>  <m_score__min__rmsd>  (30) 
7.877328069049828

>  <meeko>  (30) 
{"free_energy": -7.94, "intermolecular_energy": -9.73, "internal_energy": -1.81, "cluster_size": 2, "cluster_id": 5, "rank_in_cluster": 1}

>  <energy>  (30) 
-7.89

>  <cluster_rmsd>  (30) 
0.25

>  <cluster>  (30) 
5

$$$$

     RDKit          3D

 60 64  0  0  0  0  0  0  0  0999 V2000
  136.5710   76.4300  222.5960 O   0  0  0  0  0  0  0  0  0  0  0  0
  137.7470   76.0200  222.3860 C   0  0  0  0  0  0  0  0  0  0  0  0
  138.7560   76.9370  222.6430 C   0  0  0  0  0  0  0  0  0  0  0  0
  138.4620   78.2020  223.0980 C   0  0  0  0  0  0  0  0  0  0  0  0
  139.4930   79.1000  223.3480 C   0  0  0  0  0  0  0  0  0  0  0  0
  140.8120   78.6930  223.1290 C   0  0  0  0  0  0  0  0  0  0  0  0
  142.1220   79.8240  223.4440 Cl  0  0  0  0  0  0  0  0  0  0  0  0
  141.0600   77.4060  222.6700 C   0  0  0  0  0  0  0  0  0  0  0  0
  140.0470   76.5090  222.4200 C   0  0  0  0  0  0  0  0  0  0  0  0
  140.3240   75.2720  221.9760 N   0  0  0  0  0  0  0  0  0  0  0  0
  139.3050   74.4260  221.7430 C   0  0  0  0  0  0  0  0  0  0  0  0
  139.6830   73.0860  221.2610 C   0  0  0  0  0  0  0  0  0  0  0  0
  140.5420   72.3710  221.9510 C   0  0  0  0  0  0  0  0  0  0  0  0
  140.0650   71.2450  222.7580 C   0  0  0  0  0  0  0  0  0  0  0  0
  139.5620   70.0880  222.2010 C   0  0  0  0  0  0  0  0  0  0  0  0
  139.1250   69.0550  223.0180 C   0  0  0  0  0  0  0  0  0  0  0  0
  139.1760   69.1480  224.4060 C   0  0  0  0  0  0  0  0  0  0  0  0
  139.6860   70.3240  224.9140 C   0  0  0  0  0  0  0  0  0  0  0  0
  139.7710   70.4980  226.3220 N   0  0  0  0  0  0  0  0  0  0  0  0
  140.3320   71.6110  227.0500 C   0  0  0  0  0  0  0  0  0  0  0  0
  141.1450   70.8950  228.1340 C   0  0  0  0  0  0  0  0  0  0  0  0
  140.4240   69.6050  228.3420 C   0  0  0  0  0  0  0  0  0  0  0  0
  139.2980   69.5690  227.3360 C   0  0  0  0  0  0  0  0  0  0  0  0
  140.1030   71.3100  224.1000 N   0  0  0  0  0  0  0  0  0  0  0  0
  138.0080   74.7680  221.9380 N   0  0  0  0  0  0  0  0  0  0  0  0
  136.9610   73.8370  221.6650 C   0  0  0  0  0  0  0  0  0  0  0  0
  136.6750   72.8360  222.7310 C   0  0  0  0  0  0  0  0  0  0  0  0
  136.1580   71.5030  222.1640 C   0  0  0  0  0  0  0  0  0  0  0  0
  136.1540   70.5290  223.2950 C   0  0  0  0  0  0  0  0  0  0  0  0
  136.0360   71.1340  224.5970 N   0  0  0  0  0  0  0  0  0  0  0  0
  135.1110   72.2440  224.5880 C   0  0  0  0  0  0  0  0  0  0  0  0
  135.5460   73.3280  223.6280 C   0  0  0  0  0  0  0  0  0  0  0  0
  137.4164   78.5010  223.2630 H   0  0  0  0  0  0  0  0  0  0  0  0
  139.2744   80.1146  223.7123 H   0  0  0  0  0  0  0  0  0  0  0  0
  142.1009   77.0933  222.5007 H   0  0  0  0  0  0  0  0  0  0  0  0
  139.2497   72.6879  220.3316 H   0  0  0  0  0  0  0  0  0  0  0  0
  141.6139   72.6163  221.9231 H   0  0  0  0  0  0  0  0  0  0  0  0
  139.5071   69.9838  221.1073 H   0  0  0  0  0  0  0  0  0  0  0  0
  138.7279   68.1387  222.5568 H   0  0  0  0  0  0  0  0  0  0  0  0
  138.8303   68.3325  225.0582 H   0  0  0  0  0  0  0  0  0  0  0  0
  140.9770   72.2270  226.4062 H   0  0  0  0  0  0  0  0  0  0  0  0
  139.5806   72.3109  227.4445 H   0  0  0  0  0  0  0  0  0  0  0  0
  142.1755   70.7153  227.7937 H   0  0  0  0  0  0  0  0  0  0  0  0
  141.2260   71.4857  229.0584 H   0  0  0  0  0  0  0  0  0  0  0  0
  141.1067   68.7584  228.1771 H   0  0  0  0  0  0  0  0  0  0  0  0
  140.0387   69.5287  229.3695 H   0  0  0  0  0  0  0  0  0  0  0  0
  139.1640   68.5589  226.9217 H   0  0  0  0  0  0  0  0  0  0  0  0
  138.3170   69.8333  227.7576 H   0  0  0  0  0  0  0  0  0  0  0  0
  136.0395   74.4110  221.4879 H   0  0  0  0  0  0  0  0  0  0  0  0
  137.3052   73.2534  220.7984 H   0  0  0  0  0  0  0  0  0  0  0  0
  137.6274   72.6982  223.2639 H   0  0  0  0  0  0  0  0  0  0  0  0
  135.1394   71.6289  221.7684 H   0  0  0  0  0  0  0  0  0  0  0  0
  136.7951   71.1498  221.3397 H   0  0  0  0  0  0  0  0  0  0  0  0
  135.3058   69.8426  223.1557 H   0  0  0  0  0  0  0  0  0  0  0  0
  137.1267   70.0159  223.2727 H   0  0  0  0  0  0  0  0  0  0  0  0
  135.6910   70.4730  225.3220 H   0  0  0  0  0  0  0  0  0  0  0  0
  134.1184   71.8782  224.2863 H   0  0  0  0  0  0  0  0  0  0  0  0
  135.0823   72.6741  225.6000 H   0  0  0  0  0  0  0  0  0  0  0  0
  134.6898   73.6204  223.0024 H   0  0  0  0  0  0  0  0  0  0  0  0
  135.9076   74.1891  224.2093 H   0  0  0  0  0  0  0  0  0  0  0  0
  1  2  2  0
  2  3  1  0
  3  4  2  0
  4  5  1  0
  5  6  2  0
  6  7  1  0
  6  8  1  0
  8  9  2  0
  9 10  1  0
 10 11  2  0
 11 12  1  0
 12 13  2  0
 13 14  1  0
 14 15  2  0
 15 16  1  0
 16 17  2  0
 17 18  1  0
 18 19  1  0
 19 20  1  0
 20 21  1  0
 21 22  1  0
 22 23  1  0
 18 24  2  0
 11 25  1  0
 25 26  1  0
 26 27  1  0
 27 28  1  0
 28 29  1  0
 29 30  1  0
 30 31  1  0
 31 32  1  0
 25  2  1  0
 32 27  1  0
  9  3  1  0
 24 14  1  0
 23 19  1  0
  4 33  1  0
  5 34  1  0
  8 35  1  0
 12 36  1  0
 13 37  1  0
 15 38  1  0
 16 39  1  0
 17 40  1  0
 20 41  1  0
 20 42  1  0
 21 43  1  0
 21 44  1  0
 22 45  1  0
 22 46  1  0
 23 47  1  0
 23 48  1  0
 26 49  1  0
 26 50  1  0
 27 51  1  0
 28 52  1  0
 28 53  1  0
 29 54  1  0
 29 55  1  0
 30 56  1  0
 31 57  1  0
 31 58  1  0
 32 59  1  0
 32 60  1  0
M  END
>  <smiles>  (31) 
O=c1c2ccc(Cl)cc2nc(/C=C/c2cccc(N3CCCC3)n2)n1CC1CCNCC1

>  <score_type>  (31) 
oracle

>  <origin>  (31) 
autodockgpu

>  <m_score__min__energy>  (31) 
-9.3200000000000003

>  <m_primary>  (31) 
energy

>  <rmsd>  (31) 
6.493506384127926

>  <m_score__min__rmsd>  (31) 
6.493506384127926

>  <meeko>  (31) 
{"free_energy": -7.47, "intermolecular_energy": -9.26, "internal_energy": -2.23, "cluster_size": 3, "cluster_id": 2, "rank_in_cluster": 2}

>  <energy>  (31) 
-7.75

>  <cluster_rmsd>  (31) 
0.0

>  <cluster>  (31) 
6

$$$$

     RDKit          3D

 60 64  0  0  0  0  0  0  0  0999 V2000
  138.7350   79.0800  221.4410 O   0  0  0  0  0  0  0  0  0  0  0  0
  138.7900   77.8590  221.7620 C   0  0  0  0  0  0  0  0  0  0  0  0
  137.6530   77.3490  222.3710 C   0  0  0  0  0  0  0  0  0  0  0  0
  136.5540   78.1450  222.5960 C   0  0  0  0  0  0  0  0  0  0  0  0
  135.4280   77.6080  223.2080 C   0  0  0  0  0  0  0  0  0  0  0  0
  135.4400   76.2620  223.5820 C   0  0  0  0  0  0  0  0  0  0  0  0
  134.0180   75.5730  224.3570 Cl  0  0  0  0  0  0  0  0  0  0  0  0
  136.5720   75.4960  223.3350 C   0  0  0  0  0  0  0  0  0  0  0  0
  137.6920   76.0190  222.7290 C   0  0  0  0  0  0  0  0  0  0  0  0
  138.7700   75.2480  222.5060 N   0  0  0  0  0  0  0  0  0  0  0  0
  139.8440   75.7980  221.9120 C   0  0  0  0  0  0  0  0  0  0  0  0
  140.9870   74.8950  221.6960 C   0  0  0  0  0  0  0  0  0  0  0  0
  140.7690   73.6580  221.3120 C   0  0  0  0  0  0  0  0  0  0  0  0
  140.0300   72.7450  222.1880 C   0  0  0  0  0  0  0  0  0  0  0  0
  138.7510   72.3140  221.9070 C   0  0  0  0  0  0  0  0  0  0  0  0
  138.1020   71.4490  222.7760 C   0  0  0  0  0  0  0  0  0  0  0  0
  138.7070   70.9930  223.9440 C   0  0  0  0  0  0  0  0  0  0  0  0
  139.9860   71.4520  224.1800 C   0  0  0  0  0  0  0  0  0  0  0  0
  140.6730   71.0340  225.3510 N   0  0  0  0  0  0  0  0  0  0  0  0
  141.0280   69.6910  225.7430 C   0  0  0  0  0  0  0  0  0  0  0  0
  140.6390   69.6870  227.2260 C   0  0  0  0  0  0  0  0  0  0  0  0
  140.7950   71.1100  227.6490 C   0  0  0  0  0  0  0  0  0  0  0  0
  141.1700   71.8930  226.4130 C   0  0  0  0  0  0  0  0  0  0  0  0
  140.5920   72.2910  223.3210 N   0  0  0  0  0  0  0  0  0  0  0  0
  139.8860   77.0970  221.5280 N   0  0  0  0  0  0  0  0  0  0  0  0
  141.0550   77.6370  220.9120 C   0  0  0  0  0  0  0  0  0  0  0  0
  141.7800   78.6870  221.6810 C   0  0  0  0  0  0  0  0  0  0  0  0
  141.3390   78.7500  223.1530 C   0  0  0  0  0  0  0  0  0  0  0  0
  142.3020   79.6500  223.8520 C   0  0  0  0  0  0  0  0  0  0  0  0
  142.9390   80.6160  222.9940 N   0  0  0  0  0  0  0  0  0  0  0  0
  142.0180   81.1520  222.0180 C   0  0  0  0  0  0  0  0  0  0  0  0
  141.4510   80.0680  221.1290 C   0  0  0  0  0  0  0  0  0  0  0  0
  136.5665   79.2023  222.2927 H   0  0  0  0  0  0  0  0  0  0  0  0
  134.5418   78.2324  223.3949 H   0  0  0  0  0  0  0  0  0  0  0  0
  136.5736   74.4372  223.6333 H   0  0  0  0  0  0  0  0  0  0  0  0
  142.0147   75.2534  221.8549 H   0  0  0  0  0  0  0  0  0  0  0  0
  141.1396   73.3089  220.3369 H   0  0  0  0  0  0  0  0  0  0  0  0
  138.2444   72.6564  220.9926 H   0  0  0  0  0  0  0  0  0  0  0  0
  137.0820   71.1145  222.5357 H   0  0  0  0  0  0  0  0  0  0  0  0
  138.1959   70.3081  224.6367 H   0  0  0  0  0  0  0  0  0  0  0  0
  140.4545   68.9430  225.1760 H   0  0  0  0  0  0  0  0  0  0  0  0
  142.0816   69.4353  225.5570 H   0  0  0  0  0  0  0  0  0  0  0  0
  139.5989   69.3532  227.3557 H   0  0  0  0  0  0  0  0  0  0  0  0
  141.2575   68.9999  227.8221 H   0  0  0  0  0  0  0  0  0  0  0  0
  139.8490   71.4877  228.0642 H   0  0  0  0  0  0  0  0  0  0  0  0
  141.5654   71.2085  228.4280 H   0  0  0  0  0  0  0  0  0  0  0  0
  140.6760   72.8757  226.3968 H   0  0  0  0  0  0  0  0  0  0  0  0
  142.2444   72.1163  226.3376 H   0  0  0  0  0  0  0  0  0  0  0  0
  141.7550   76.8070  220.7357 H   0  0  0  0  0  0  0  0  0  0  0  0
  140.7016   78.1345  219.9968 H   0  0  0  0  0  0  0  0  0  0  0  0
  142.8451   78.4256  221.5964 H   0  0  0  0  0  0  0  0  0  0  0  0
  140.3194   79.1562  223.2260 H   0  0  0  0  0  0  0  0  0  0  0  0
  141.3334   77.7481  223.6071 H   0  0  0  0  0  0  0  0  0  0  0  0
  141.7574   80.1934  224.6382 H   0  0  0  0  0  0  0  0  0  0  0  0
  143.1007   79.0079  224.2516 H   0  0  0  0  0  0  0  0  0  0  0  0
  143.3200   81.4330  223.5140 H   0  0  0  0  0  0  0  0  0  0  0  0
  141.1906   81.6501  222.5446 H   0  0  0  0  0  0  0  0  0  0  0  0
  142.5668   81.8635  221.3835 H   0  0  0  0  0  0  0  0  0  0  0  0
  140.3585   80.1828  221.0728 H   0  0  0  0  0  0  0  0  0  0  0  0
  141.8986   80.1631  220.1287 H   0  0  0  0  0  0  0  0  0  0  0  0
  1  2  2  0
  2  3  1  0
  3  4  2  0
  4  5  1  0
  5  6  2  0
  6  7  1  0
  6  8  1  0
  8  9  2  0
  9 10  1  0
 10 11  2  0
 11 12  1  0
 12 13  2  0
 13 14  1  0
 14 15  2  0
 15 16  1  0
 16 17  2  0
 17 18  1  0
 18 19  1  0
 19 20  1  0
 20 21  1  0
 21 22  1  0
 22 23  1  0
 18 24  2  0
 11 25  1  0
 25 26  1  0
 26 27  1  0
 27 28  1  0
 28 29  1  0
 29 30  1  0
 30 31  1  0
 31 32  1  0
 25  2  1  0
 32 27  1  0
  9  3  1  0
 24 14  1  0
 23 19  1  0
  4 33  1  0
  5 34  1  0
  8 35  1  0
 12 36  1  0
 13 37  1  0
 15 38  1  0
 16 39  1  0
 17 40  1  0
 20 41  1  0
 20 42  1  0
 21 43  1  0
 21 44  1  0
 22 45  1  0
 22 46  1  0
 23 47  1  0
 23 48  1  0
 26 49  1  0
 26 50  1  0
 27 51  1  0
 28 52  1  0
 28 53  1  0
 29 54  1  0
 29 55  1  0
 30 56  1  0
 31 57  1  0
 31 58  1  0
 32 59  1  0
 32 60  1  0
M  END
>  <smiles>  (32) 
O=c1c2ccc(Cl)cc2nc(/C=C/c2cccc(N3CCCC3)n2)n1CC1CCNCC1

>  <score_type>  (32) 
oracle

>  <origin>  (32) 
autodockgpu

>  <m_score__min__energy>  (32) 
-9.3200000000000003

>  <m_primary>  (32) 
energy

>  <rmsd>  (32) 
6.009490795576202

>  <m_score__min__rmsd>  (32) 
6.009490795576202

>  <meeko>  (32) 
{"free_energy": -7.95, "intermolecular_energy": -9.74, "internal_energy": -1.54, "cluster_size": 1, "cluster_id": 4, "rank_in_cluster": 1}

>  <energy>  (32) 
-7.74

>  <cluster_rmsd>  (32) 
0.46

>  <cluster>  (32) 
6

$$$$

     RDKit          3D

 60 64  0  0  0  0  0  0  0  0999 V2000
  142.5290   76.8780  218.6430 O   0  0  0  0  0  0  0  0  0  0  0  0
  141.9990   76.4880  219.7210 C   0  0  0  0  0  0  0  0  0  0  0  0
  141.6250   77.4940  220.6010 C   0  0  0  0  0  0  0  0  0  0  0  0
  141.8300   78.8190  220.2890 C   0  0  0  0  0  0  0  0  0  0  0  0
  141.4450   79.8050  221.1900 C   0  0  0  0  0  0  0  0  0  0  0  0
  140.8550   79.4240  222.3970 C   0  0  0  0  0  0  0  0  0  0  0  0
  140.3630   80.6670  223.5420 Cl  0  0  0  0  0  0  0  0  0  0  0  0
  140.6670   78.0750  222.6680 C   0  0  0  0  0  0  0  0  0  0  0  0
  141.0440   77.0900  221.7840 C   0  0  0  0  0  0  0  0  0  0  0  0
  140.8470   75.7950  222.0790 N   0  0  0  0  0  0  0  0  0  0  0  0
  141.2310   74.8640  221.1880 C   0  0  0  0  0  0  0  0  0  0  0  0
  140.9820   73.4650  221.5770 C   0  0  0  0  0  0  0  0  0  0  0  0
  139.7770   73.1050  221.9530 C   0  0  0  0  0  0  0  0  0  0  0  0
  139.5990   71.8920  222.7560 C   0  0  0  0  0  0  0  0  0  0  0  0
  138.8610   70.8110  222.3200 C   0  0  0  0  0  0  0  0  0  0  0  0
  138.7290   69.6890  223.1260 C   0  0  0  0  0  0  0  0  0  0  0  0
  139.3260   69.6150  224.3820 C   0  0  0  0  0  0  0  0  0  0  0  0
  140.0530   70.7210  224.7710 C   0  0  0  0  0  0  0  0  0  0  0  0
  140.6930   70.7240  226.0400 N   0  0  0  0  0  0  0  0  0  0  0  0
  141.0320   69.5930  226.8690 C   0  0  0  0  0  0  0  0  0  0  0  0
  140.5840   70.0760  228.2530 C   0  0  0  0  0  0  0  0  0  0  0  0
  140.7220   71.5600  228.1860 C   0  0  0  0  0  0  0  0  0  0  0  0
  141.1450   71.8940  226.7750 C   0  0  0  0  0  0  0  0  0  0  0  0
  140.1650   71.7950  223.9710 N   0  0  0  0  0  0  0  0  0  0  0  0
  141.8080   75.1770  220.0020 N   0  0  0  0  0  0  0  0  0  0  0  0
  142.2090   74.1510  219.0940 C   0  0  0  0  0  0  0  0  0  0  0  0
  143.4830   73.4480  219.4150 C   0  0  0  0  0  0  0  0  0  0  0  0
  143.2500   72.0590  220.0310 C   0  0  0  0  0  0  0  0  0  0  0  0
  144.5780   71.3780  220.0680 C   0  0  0  0  0  0  0  0  0  0  0  0
  145.7030   72.2760  220.1120 N   0  0  0  0  0  0  0  0  0  0  0  0
  145.4440   73.4150  220.9630 C   0  0  0  0  0  0  0  0  0  0  0  0
  144.2520   74.2130  220.4850 C   0  0  0  0  0  0  0  0  0  0  0  0
  142.2960   79.0960  219.3319 H   0  0  0  0  0  0  0  0  0  0  0  0
  141.6026   80.8682  220.9560 H   0  0  0  0  0  0  0  0  0  0  0  0
  140.2012   77.7841  223.6211 H   0  0  0  0  0  0  0  0  0  0  0  0
  141.7987   72.7286  221.5525 H   0  0  0  0  0  0  0  0  0  0  0  0
  138.9048   73.7110  221.6667 H   0  0  0  0  0  0  0  0  0  0  0  0
  138.3768   70.8384  221.3327 H   0  0  0  0  0  0  0  0  0  0  0  0
  138.1372   68.8356  222.7632 H   0  0  0  0  0  0  0  0  0  0  0  0
  139.2240   68.7283  225.0250 H   0  0  0  0  0  0  0  0  0  0  0  0
  140.4819   68.6914  226.5616 H   0  0  0  0  0  0  0  0  0  0  0  0
  142.0923   69.3046  226.8186 H   0  0  0  0  0  0  0  0  0  0  0  0
  139.5397   69.7898  228.4468 H   0  0  0  0  0  0  0  0  0  0  0  0
  141.1788   69.6341  229.0660 H   0  0  0  0  0  0  0  0  0  0  0  0
  139.7601   72.0409  228.4171 H   0  0  0  0  0  0  0  0  0  0  0  0
  141.4607   71.9218  228.9163 H   0  0  0  0  0  0  0  0  0  0  0  0
  140.6502   72.8081  226.4150 H   0  0  0  0  0  0  0  0  0  0  0  0
  142.2213   72.0956  226.6702 H   0  0  0  0  0  0  0  0  0  0  0  0
  141.4083   73.3974  219.0646 H   0  0  0  0  0  0  0  0  0  0  0  0
  142.3878   74.6602  218.1355 H   0  0  0  0  0  0  0  0  0  0  0  0
  144.0231   73.3723  218.4597 H   0  0  0  0  0  0  0  0  0  0  0  0
  142.8466   72.1588  221.0495 H   0  0  0  0  0  0  0  0  0  0  0  0
  142.5249   71.4805  219.4398 H   0  0  0  0  0  0  0  0  0  0  0  0
  144.6125   70.7384  220.9623 H   0  0  0  0  0  0  0  0  0  0  0  0
  144.6661   70.8080  219.1313 H   0  0  0  0  0  0  0  0  0  0  0  0
  146.5670   71.8280  220.4800 H   0  0  0  0  0  0  0  0  0  0  0  0
  145.2474   73.0586  221.9849 H   0  0  0  0  0  0  0  0  0  0  0  0
  146.3273   74.0701  220.9360 H   0  0  0  0  0  0  0  0  0  0  0  0
  143.5848   74.4102  221.3371 H   0  0  0  0  0  0  0  0  0  0  0  0
  144.6110   75.1588  220.0530 H   0  0  0  0  0  0  0  0  0  0  0  0
  1  2  2  0
  2  3  1  0
  3  4  2  0
  4  5  1  0
  5  6  2  0
  6  7  1  0
  6  8  1  0
  8  9  2  0
  9 10  1  0
 10 11  2  0
 11 12  1  0
 12 13  2  0
 13 14  1  0
 14 15  2  0
 15 16  1  0
 16 17  2  0
 17 18  1  0
 18 19  1  0
 19 20  1  0
 20 21  1  0
 21 22  1  0
 22 23  1  0
 18 24  2  0
 11 25  1  0
 25 26  1  0
 26 27  1  0
 27 28  1  0
 28 29  1  0
 29 30  1  0
 30 31  1  0
 31 32  1  0
 25  2  1  0
 32 27  1  0
  9  3  1  0
 24 14  1  0
 23 19  1  0
  4 33  1  0
  5 34  1  0
  8 35  1  0
 12 36  1  0
 13 37  1  0
 15 38  1  0
 16 39  1  0
 17 40  1  0
 20 41  1  0
 20 42  1  0
 21 43  1  0
 21 44  1  0
 22 45  1  0
 22 46  1  0
 23 47  1  0
 23 48  1  0
 26 49  1  0
 26 50  1  0
 27 51  1  0
 28 52  1  0
 28 53  1  0
 29 54  1  0
 29 55  1  0
 30 56  1  0
 31 57  1  0
 31 58  1  0
 32 59  1  0
 32 60  1  0
M  END
>  <smiles>  (33) 
O=c1c2ccc(Cl)cc2nc(/C=C/c2cccc(N3CCCC3)n2)n1CC1CCNCC1

>  <score_type>  (33) 
oracle

>  <origin>  (33) 
autodockgpu

>  <m_score__min__energy>  (33) 
-9.3200000000000003

>  <m_primary>  (33) 
energy

>  <rmsd>  (33) 
4.857684104439877

>  <m_score__min__rmsd>  (33) 
4.857684104439877

>  <meeko>  (33) 
{"free_energy": -9.2, "intermolecular_energy": -10.99, "internal_energy": -1.39, "cluster_size": 23, "cluster_id": 1, "rank_in_cluster": 8}

>  <energy>  (33) 
-7.61

>  <cluster_rmsd>  (33) 
0.45

>  <cluster>  (33) 
6

$$$$

     RDKit          3D

 60 64  0  0  0  0  0  0  0  0999 V2000
  142.7160   76.6500  218.8290 O   0  0  0  0  0  0  0  0  0  0  0  0
  142.0500   76.2300  219.8170 C   0  0  0  0  0  0  0  0  0  0  0  0
  141.5940   77.2080  220.6890 C   0  0  0  0  0  0  0  0  0  0  0  0
  141.8650   78.5380  220.4650 C   0  0  0  0  0  0  0  0  0  0  0  0
  141.3960   79.4960  221.3550 C   0  0  0  0  0  0  0  0  0  0  0  0
  140.6540   79.0820  222.4640 C   0  0  0  0  0  0  0  0  0  0  0  0
  140.0550   80.2890  223.5960 Cl  0  0  0  0  0  0  0  0  0  0  0  0
  140.4040   77.7280  222.6500 C   0  0  0  0  0  0  0  0  0  0  0  0
  140.8650   76.7720  221.7740 C   0  0  0  0  0  0  0  0  0  0  0  0
  140.6040   75.4710  221.9860 N   0  0  0  0  0  0  0  0  0  0  0  0
  141.0730   74.5680  221.1060 C   0  0  0  0  0  0  0  0  0  0  0  0
  140.7480   73.1610  221.3990 C   0  0  0  0  0  0  0  0  0  0  0  0
  139.6620   72.8790  222.0830 C   0  0  0  0  0  0  0  0  0  0  0  0
  139.5660   71.6030  222.7980 C   0  0  0  0  0  0  0  0  0  0  0  0
  139.0290   70.4680  222.2280 C   0  0  0  0  0  0  0  0  0  0  0  0
  138.9650   69.2890  222.9550 C   0  0  0  0  0  0  0  0  0  0  0  0
  139.4320   69.2090  224.2650 C   0  0  0  0  0  0  0  0  0  0  0  0
  139.9600   70.3710  224.7890 C   0  0  0  0  0  0  0  0  0  0  0  0
  140.4580   70.3730  226.1200 N   0  0  0  0  0  0  0  0  0  0  0  0
  140.5130   69.2720  227.0510 C   0  0  0  0  0  0  0  0  0  0  0  0
  140.0150   69.9310  228.3420 C   0  0  0  0  0  0  0  0  0  0  0  0
  140.4090   71.3630  228.1980 C   0  0  0  0  0  0  0  0  0  0  0  0
  141.0250   71.5090  226.8270 C   0  0  0  0  0  0  0  0  0  0  0  0
  140.0100   71.5010  224.0620 N   0  0  0  0  0  0  0  0  0  0  0  0
  141.7970   74.9140  220.0140 N   0  0  0  0  0  0  0  0  0  0  0  0
  142.2820   73.9160  219.1160 C   0  0  0  0  0  0  0  0  0  0  0  0
  143.7240   73.5630  219.2410 C   0  0  0  0  0  0  0  0  0  0  0  0
  143.9460   72.0570  219.4550 C   0  0  0  0  0  0  0  0  0  0  0  0
  145.4110   71.8130  219.3130 C   0  0  0  0  0  0  0  0  0  0  0  0
  146.2330   72.9600  219.6040 N   0  0  0  0  0  0  0  0  0  0  0  0
  145.7250   73.7080  220.7320 C   0  0  0  0  0  0  0  0  0  0  0  0
  144.3220   74.2140  220.4820 C   0  0  0  0  0  0  0  0  0  0  0  0
  142.4507   78.8416  219.5848 H   0  0  0  0  0  0  0  0  0  0  0  0
  141.6054   80.5631  221.1893 H   0  0  0  0  0  0  0  0  0  0  0  0
  139.8189   77.4100  223.5255 H   0  0  0  0  0  0  0  0  0  0  0  0
  141.4084   72.3542  221.0484 H   0  0  0  0  0  0  0  0  0  0  0  0
  138.8292   73.5968  222.1188 H   0  0  0  0  0  0  0  0  0  0  0  0
  138.6510   70.4979  221.1954 H   0  0  0  0  0  0  0  0  0  0  0  0
  138.5339   68.3929  222.4847 H   0  0  0  0  0  0  0  0  0  0  0  0
  139.3828   68.2764  224.8462 H   0  0  0  0  0  0  0  0  0  0  0  0
  139.8516   68.4501  226.7395 H   0  0  0  0  0  0  0  0  0  0  0  0
  141.5082   68.8119  227.1399 H   0  0  0  0  0  0  0  0  0  0  0  0
  138.9231   69.8342  228.4333 H   0  0  0  0  0  0  0  0  0  0  0  0
  140.4402   69.4658  229.2435 H   0  0  0  0  0  0  0  0  0  0  0  0
  139.5240   72.0102  228.2866 H   0  0  0  0  0  0  0  0  0  0  0  0
  141.1196   71.6583  228.9840 H   0  0  0  0  0  0  0  0  0  0  0  0
  140.7327   72.4593  226.3564 H   0  0  0  0  0  0  0  0  0  0  0  0
  142.1249   71.5240  226.8336 H   0  0  0  0  0  0  0  0  0  0  0  0
  141.6965   73.0001  219.2843 H   0  0  0  0  0  0  0  0  0  0  0  0
  142.1706   74.3464  218.1098 H   0  0  0  0  0  0  0  0  0  0  0  0
  144.1885   73.9030  218.3036 H   0  0  0  0  0  0  0  0  0  0  0  0
  143.6089   71.7635  220.4601 H   0  0  0  0  0  0  0  0  0  0  0  0
  143.3747   71.4659  218.7241 H   0  0  0  0  0  0  0  0  0  0  0  0
  145.6938   71.0027  220.0011 H   0  0  0  0  0  0  0  0  0  0  0  0
  145.5875   71.5579  218.2576 H   0  0  0  0  0  0  0  0  0  0  0  0
  147.2140   72.7070  219.8410 H   0  0  0  0  0  0  0  0  0  0  0  0
  145.7160   73.0554  221.6175 H   0  0  0  0  0  0  0  0  0  0  0  0
  146.3800   74.5776  220.8895 H   0  0  0  0  0  0  0  0  0  0  0  0
  143.6927   73.9764  221.3524 H   0  0  0  0  0  0  0  0  0  0  0  0
  144.3630   75.3018  220.3239 H   0  0  0  0  0  0  0  0  0  0  0  0
  1  2  2  0
  2  3  1  0
  3  4  2  0
  4  5  1  0
  5  6  2  0
  6  7  1  0
  6  8  1  0
  8  9  2  0
  9 10  1  0
 10 11  2  0
 11 12  1  0
 12 13  2  0
 13 14  1  0
 14 15  2  0
 15 16  1  0
 16 17  2  0
 17 18  1  0
 18 19  1  0
 19 20  1  0
 20 21  1  0
 21 22  1  0
 22 23  1  0
 18 24  2  0
 11 25  1  0
 25 26  1  0
 26 27  1  0
 27 28  1  0
 28 29  1  0
 29 30  1  0
 30 31  1  0
 31 32  1  0
 25  2  1  0
 32 27  1  0
  9  3  1  0
 24 14  1  0
 23 19  1  0
  4 33  1  0
  5 34  1  0
  8 35  1  0
 12 36  1  0
 13 37  1  0
 15 38  1  0
 16 39  1  0
 17 40  1  0
 20 41  1  0
 20 42  1  0
 21 43  1  0
 21 44  1  0
 22 45  1  0
 22 46  1  0
 23 47  1  0
 23 48  1  0
 26 49  1  0
 26 50  1  0
 27 51  1  0
 28 52  1  0
 28 53  1  0
 29 54  1  0
 29 55  1  0
 30 56  1  0
 31 57  1  0
 31 58  1  0
 32 59  1  0
 32 60  1  0
M  END
>  <smiles>  (34) 
O=c1c2ccc(Cl)cc2nc(/C=C/c2cccc(N3CCCC3)n2)n1CC1CCNCC1

>  <score_type>  (34) 
oracle

>  <origin>  (34) 
autodockgpu

>  <m_score__min__energy>  (34) 
-9.3200000000000003

>  <m_primary>  (34) 
energy

>  <rmsd>  (34) 
5.031833041208024

>  <m_score__min__rmsd>  (34) 
5.031833041208024

>  <meeko>  (34) 
{"free_energy": -9.09, "intermolecular_energy": -10.88, "internal_energy": -1.35, "cluster_size": 23, "cluster_id": 1, "rank_in_cluster": 11}

>  <energy>  (34) 
-7.58

>  <cluster_rmsd>  (34) 
0.75

>  <cluster>  (34) 
6

$$$$

     RDKit          3D

 60 64  0  0  0  0  0  0  0  0999 V2000
  142.6910   77.2900  218.8850 O   0  0  0  0  0  0  0  0  0  0  0  0
  142.1010   76.8510  219.9120 C   0  0  0  0  0  0  0  0  0  0  0  0
  141.6330   77.8160  220.7910 C   0  0  0  0  0  0  0  0  0  0  0  0
  141.8150   79.1560  220.5330 C   0  0  0  0  0  0  0  0  0  0  0  0
  141.3360   80.1010  221.4320 C   0  0  0  0  0  0  0  0  0  0  0  0
  140.6760   79.6650  222.5840 C   0  0  0  0  0  0  0  0  0  0  0  0
  140.0660   80.8560  223.7270 Cl  0  0  0  0  0  0  0  0  0  0  0  0
  140.5150   78.3030  222.8020 C   0  0  0  0  0  0  0  0  0  0  0  0
  140.9860   77.3590  221.9190 C   0  0  0  0  0  0  0  0  0  0  0  0
  140.8120   76.0490  222.1620 N   0  0  0  0  0  0  0  0  0  0  0  0
  141.2880   75.1590  221.2740 C   0  0  0  0  0  0  0  0  0  0  0  0
  141.0600   73.7410  221.6040 C   0  0  0  0  0  0  0  0  0  0  0  0
  139.8460   73.3340  221.8960 C   0  0  0  0  0  0  0  0  0  0  0  0
  139.6580   72.0850  222.6390 C   0  0  0  0  0  0  0  0  0  0  0  0
  138.9500   71.0160  222.1320 C   0  0  0  0  0  0  0  0  0  0  0  0
  138.8060   69.8580  222.8830 C   0  0  0  0  0  0  0  0  0  0  0  0
  139.3620   69.7350  224.1530 C   0  0  0  0  0  0  0  0  0  0  0  0
  140.0610   70.8320  224.6150 C   0  0  0  0  0  0  0  0  0  0  0  0
  140.6590   70.7870  225.9030 N   0  0  0  0  0  0  0  0  0  0  0  0
  140.6750   69.6880  226.8390 C   0  0  0  0  0  0  0  0  0  0  0  0
  140.3470   70.3980  228.1570 C   0  0  0  0  0  0  0  0  0  0  0  0
  140.8720   71.7820  227.9690 C   0  0  0  0  0  0  0  0  0  0  0  0
  141.3910   71.8610  226.5530 C   0  0  0  0  0  0  0  0  0  0  0  0
  140.1850   71.9420  223.8660 N   0  0  0  0  0  0  0  0  0  0  0  0
  141.9350   75.5260  220.1400 N   0  0  0  0  0  0  0  0  0  0  0  0
  142.4320   74.5420  219.2340 C   0  0  0  0  0  0  0  0  0  0  0  0
  143.6090   73.7550  219.6970 C   0  0  0  0  0  0  0  0  0  0  0  0
  144.7700   73.7830  218.6880 C   0  0  0  0  0  0  0  0  0  0  0  0
  145.9500   73.1810  219.3750 C   0  0  0  0  0  0  0  0  0  0  0  0
  145.6150   72.2640  220.4340 N   0  0  0  0  0  0  0  0  0  0  0  0
  144.4750   71.4440  220.0890 C   0  0  0  0  0  0  0  0  0  0  0  0
  143.2460   72.2800  219.8140 C   0  0  0  0  0  0  0  0  0  0  0  0
  142.3371   79.4770  219.6196 H   0  0  0  0  0  0  0  0  0  0  0  0
  141.4741   81.1753  221.2400 H   0  0  0  0  0  0  0  0  0  0  0  0
  139.9936   77.9679  223.7108 H   0  0  0  0  0  0  0  0  0  0  0  0
  141.8991   73.0298  221.6057 H   0  0  0  0  0  0  0  0  0  0  0  0
  138.9742   73.9280  221.5842 H   0  0  0  0  0  0  0  0  0  0  0  0
  138.4987   71.0812  221.1310 H   0  0  0  0  0  0  0  0  0  0  0  0
  138.2374   69.0150  222.4635 H   0  0  0  0  0  0  0  0  0  0  0  0
  139.2511   68.8192  224.7522 H   0  0  0  0  0  0  0  0  0  0  0  0
  139.9123   68.9362  226.5879 H   0  0  0  0  0  0  0  0  0  0  0  0
  141.6227   69.1297  226.8562 H   0  0  0  0  0  0  0  0  0  0  0  0
  139.2611   70.4133  228.3319 H   0  0  0  0  0  0  0  0  0  0  0  0
  140.7909   69.8942  229.0283 H   0  0  0  0  0  0  0  0  0  0  0  0
  140.0670   72.5164  228.1192 H   0  0  0  0  0  0  0  0  0  0  0  0
  141.6677   72.0052  228.6949 H   0  0  0  0  0  0  0  0  0  0  0  0
  141.1608   72.8350  226.0966 H   0  0  0  0  0  0  0  0  0  0  0  0
  142.4839   71.7637  226.4750 H   0  0  0  0  0  0  0  0  0  0  0  0
  141.6158   73.8343  219.0267 H   0  0  0  0  0  0  0  0  0  0  0  0
  142.7808   75.1023  218.3540 H   0  0  0  0  0  0  0  0  0  0  0  0
  143.9036   74.2088  220.6548 H   0  0  0  0  0  0  0  0  0  0  0  0
  144.5105   73.1952  217.7952 H   0  0  0  0  0  0  0  0  0  0  0  0
  144.9848   74.8109  218.3605 H   0  0  0  0  0  0  0  0  0  0  0  0
  146.5455   72.6391  218.6256 H   0  0  0  0  0  0  0  0  0  0  0  0
  146.5014   74.0115  219.8400 H   0  0  0  0  0  0  0  0  0  0  0  0
  146.3880   71.6070  220.6620 H   0  0  0  0  0  0  0  0  0  0  0  0
  144.7164   70.8588  219.1894 H   0  0  0  0  0  0  0  0  0  0  0  0
  144.2567   70.7848  220.9422 H   0  0  0  0  0  0  0  0  0  0  0  0
  142.7863   71.9461  218.8721 H   0  0  0  0  0  0  0  0  0  0  0  0
  142.5414   72.1559  220.6496 H   0  0  0  0  0  0  0  0  0  0  0  0
  1  2  2  0
  2  3  1  0
  3  4  2  0
  4  5  1  0
  5  6  2  0
  6  7  1  0
  6  8  1  0
  8  9  2  0
  9 10  1  0
 10 11  2  0
 11 12  1  0
 12 13  2  0
 13 14  1  0
 14 15  2  0
 15 16  1  0
 16 17  2  0
 17 18  1  0
 18 19  1  0
 19 20  1  0
 20 21  1  0
 21 22  1  0
 22 23  1  0
 18 24  2  0
 11 25  1  0
 25 26  1  0
 26 27  1  0
 27 28  1  0
 28 29  1  0
 29 30  1  0
 30 31  1  0
 31 32  1  0
 25  2  1  0
 32 27  1  0
  9  3  1  0
 24 14  1  0
 23 19  1  0
  4 33  1  0
  5 34  1  0
  8 35  1  0
 12 36  1  0
 13 37  1  0
 15 38  1  0
 16 39  1  0
 17 40  1  0
 20 41  1  0
 20 42  1  0
 21 43  1  0
 21 44  1  0
 22 45  1  0
 22 46  1  0
 23 47  1  0
 23 48  1  0
 26 49  1  0
 26 50  1  0
 27 51  1  0
 28 52  1  0
 28 53  1  0
 29 54  1  0
 29 55  1  0
 30 56  1  0
 31 57  1  0
 31 58  1  0
 32 59  1  0
 32 60  1  0
M  END
>  <smiles>  (35) 
O=c1c2ccc(Cl)cc2nc(/C=C/c2cccc(N3CCCC3)n2)n1CC1CCNCC1

>  <score_type>  (35) 
oracle

>  <origin>  (35) 
autodockgpu

>  <m_score__min__energy>  (35) 
-9.3200000000000003

>  <m_primary>  (35) 
energy

>  <rmsd>  (35) 
4.440616612342558

>  <m_score__min__rmsd>  (35) 
4.440616612342558

>  <meeko>  (35) 
{"free_energy": -8.73, "intermolecular_energy": -10.52, "internal_energy": -1.3, "cluster_size": 23, "cluster_id": 1, "rank_in_cluster": 19}

>  <energy>  (35) 
-7.54

>  <cluster_rmsd>  (35) 
1.82

>  <cluster>  (35) 
6

$$$$

     RDKit          3D

 60 64  0  0  0  0  0  0  0  0999 V2000
  146.0540   72.7730  219.1080 O   0  0  0  0  0  0  0  0  0  0  0  0
  145.0340   72.1820  219.5630 C   0  0  0  0  0  0  0  0  0  0  0  0
  145.0170   70.8050  219.3940 C   0  0  0  0  0  0  0  0  0  0  0  0
  146.0570   70.1560  218.7700 C   0  0  0  0  0  0  0  0  0  0  0  0
  146.0120   68.7750  218.6150 C   0  0  0  0  0  0  0  0  0  0  0  0
  144.9050   68.0760  219.1010 C   0  0  0  0  0  0  0  0  0  0  0  0
  144.8420   66.3280  218.9090 Cl  0  0  0  0  0  0  0  0  0  0  0  0
  143.8790   68.7740  219.7250 C   0  0  0  0  0  0  0  0  0  0  0  0
  143.9130   70.1410  219.8840 C   0  0  0  0  0  0  0  0  0  0  0  0
  142.9020   70.7830  220.4920 N   0  0  0  0  0  0  0  0  0  0  0  0
  142.9740   72.1180  220.6260 C   0  0  0  0  0  0  0  0  0  0  0  0
  141.8320   72.7560  221.3050 C   0  0  0  0  0  0  0  0  0  0  0  0
  140.6260   72.2620  221.1410 C   0  0  0  0  0  0  0  0  0  0  0  0
  139.9620   71.5830  222.2570 C   0  0  0  0  0  0  0  0  0  0  0  0
  138.6980   71.0410  222.1530 C   0  0  0  0  0  0  0  0  0  0  0  0
  138.1200   70.4090  223.2450 C   0  0  0  0  0  0  0  0  0  0  0  0
  138.7830   70.3030  224.4650 C   0  0  0  0  0  0  0  0  0  0  0  0
  140.0440   70.8620  224.5180 C   0  0  0  0  0  0  0  0  0  0  0  0
  140.7860   70.7960  225.7270 N   0  0  0  0  0  0  0  0  0  0  0  0
  141.1080   69.6280  226.5120 C   0  0  0  0  0  0  0  0  0  0  0  0
  140.8150   70.1190  227.9340 C   0  0  0  0  0  0  0  0  0  0  0  0
  141.0580   71.5910  227.8720 C   0  0  0  0  0  0  0  0  0  0  0  0
  141.3860   71.9160  226.4330 C   0  0  0  0  0  0  0  0  0  0  0  0
  140.5800   71.4670  223.4440 N   0  0  0  0  0  0  0  0  0  0  0  0
  144.0240   72.8470  220.1740 N   0  0  0  0  0  0  0  0  0  0  0  0
  144.0480   74.2650  220.3300 C   0  0  0  0  0  0  0  0  0  0  0  0
  143.2180   75.0470  219.3720 C   0  0  0  0  0  0  0  0  0  0  0  0
  143.7130   74.9190  217.9220 C   0  0  0  0  0  0  0  0  0  0  0  0
  142.6640   75.5320  217.0540 C   0  0  0  0  0  0  0  0  0  0  0  0
  141.8580   76.5270  217.7130 N   0  0  0  0  0  0  0  0  0  0  0  0
  142.6480   77.3540  218.5970 C   0  0  0  0  0  0  0  0  0  0  0  0
  143.3220   76.5370  219.6760 C   0  0  0  0  0  0  0  0  0  0  0  0
  146.9197   70.7266  218.3956 H   0  0  0  0  0  0  0  0  0  0  0  0
  146.8353   68.2415  218.1175 H   0  0  0  0  0  0  0  0  0  0  0  0
  143.0105   68.2160  220.1048 H   0  0  0  0  0  0  0  0  0  0  0  0
  141.9882   73.6380  221.9434 H   0  0  0  0  0  0  0  0  0  0  0  0
  140.1169   72.3575  220.1706 H   0  0  0  0  0  0  0  0  0  0  0  0
  138.1473   71.1098  221.2033 H   0  0  0  0  0  0  0  0  0  0  0  0
  137.1119   69.9806  223.1442 H   0  0  0  0  0  0  0  0  0  0  0  0
  138.3293   69.8040  225.3339 H   0  0  0  0  0  0  0  0  0  0  0  0
  140.4681   68.7748  226.2425 H   0  0  0  0  0  0  0  0  0  0  0  0
  142.1357   69.2629  226.3685 H   0  0  0  0  0  0  0  0  0  0  0  0
  139.7721   69.9074  228.2124 H   0  0  0  0  0  0  0  0  0  0  0  0
  141.4411   69.6206  228.6887 H   0  0  0  0  0  0  0  0  0  0  0  0
  140.1575   72.1377  228.1885 H   0  0  0  0  0  0  0  0  0  0  0  0
  141.8796   71.8853  228.5416 H   0  0  0  0  0  0  0  0  0  0  0  0
  140.9342   72.8707  226.1257 H   0  0  0  0  0  0  0  0  0  0  0  0
  142.4620   72.0377  226.2395 H   0  0  0  0  0  0  0  0  0  0  0  0
  143.6956   74.4967  221.3459 H   0  0  0  0  0  0  0  0  0  0  0  0
  145.0875   74.5650  220.1313 H   0  0  0  0  0  0  0  0  0  0  0  0
  142.1980   74.6495  219.4801 H   0  0  0  0  0  0  0  0  0  0  0  0
  144.6667   75.4531  217.7986 H   0  0  0  0  0  0  0  0  0  0  0  0
  143.8824   73.8658  217.6536 H   0  0  0  0  0  0  0  0  0  0  0  0
  143.1611   76.0052  216.1944 H   0  0  0  0  0  0  0  0  0  0  0  0
  141.9837   74.7193  216.7596 H   0  0  0  0  0  0  0  0  0  0  0  0
  141.3900   77.1760  217.0480 H   0  0  0  0  0  0  0  0  0  0  0  0
  143.4195   77.8703  218.0069 H   0  0  0  0  0  0  0  0  0  0  0  0
  141.9747   78.0749  219.0839 H   0  0  0  0  0  0  0  0  0  0  0  0
  144.3834   76.8202  219.7326 H   0  0  0  0  0  0  0  0  0  0  0  0
  142.8205   76.7369  220.6344 H   0  0  0  0  0  0  0  0  0  0  0  0
  1  2  2  0
  2  3  1  0
  3  4  2  0
  4  5  1  0
  5  6  2  0
  6  7  1  0
  6  8  1  0
  8  9  2  0
  9 10  1  0
 10 11  2  0
 11 12  1  0
 12 13  2  0
 13 14  1  0
 14 15  2  0
 15 16  1  0
 16 17  2  0
 17 18  1  0
 18 19  1  0
 19 20  1  0
 20 21  1  0
 21 22  1  0
 22 23  1  0
 18 24  2  0
 11 25  1  0
 25 26  1  0
 26 27  1  0
 27 28  1  0
 28 29  1  0
 29 30  1  0
 30 31  1  0
 31 32  1  0
 25  2  1  0
 32 27  1  0
  9  3  1  0
 24 14  1  0
 23 19  1  0
  4 33  1  0
  5 34  1  0
  8 35  1  0
 12 36  1  0
 13 37  1  0
 15 38  1  0
 16 39  1  0
 17 40  1  0
 20 41  1  0
 20 42  1  0
 21 43  1  0
 21 44  1  0
 22 45  1  0
 22 46  1  0
 23 47  1  0
 23 48  1  0
 26 49  1  0
 26 50  1  0
 27 51  1  0
 28 52  1  0
 28 53  1  0
 29 54  1  0
 29 55  1  0
 30 56  1  0
 31 57  1  0
 31 58  1  0
 32 59  1  0
 32 60  1  0
M  END
>  <smiles>  (36) 
O=c1c2ccc(Cl)cc2nc(/C=C/c2cccc(N3CCCC3)n2)n1CC1CCNCC1

>  <score_type>  (36) 
oracle

>  <origin>  (36) 
autodockgpu

>  <m_score__min__energy>  (36) 
-9.3200000000000003

>  <m_primary>  (36) 
energy

>  <rmsd>  (36) 
10.169717987603482

>  <m_score__min__rmsd>  (36) 
10.169717987603482

>  <meeko>  (36) 
{"free_energy": -8.33, "intermolecular_energy": -10.12, "internal_energy": -1.44, "cluster_size": 1, "cluster_id": 3, "rank_in_cluster": 1}

>  <energy>  (36) 
-7.5

>  <cluster_rmsd>  (36) 
1.84

>  <cluster>  (36) 
6

$$$$

     RDKit          3D

 60 64  0  0  0  0  0  0  0  0999 V2000
  142.5700   77.4280  220.0210 O   0  0  0  0  0  0  0  0  0  0  0  0
  141.5980   76.9390  220.6640 C   0  0  0  0  0  0  0  0  0  0  0  0
  140.9240   77.8240  221.4920 C   0  0  0  0  0  0  0  0  0  0  0  0
  141.3120   79.1420  221.5840 C   0  0  0  0  0  0  0  0  0  0  0  0
  140.6170   80.0060  222.4220 C   0  0  0  0  0  0  0  0  0  0  0  0
  139.5350   79.5130  223.1550 C   0  0  0  0  0  0  0  0  0  0  0  0
  138.6500   80.6010  224.2170 Cl  0  0  0  0  0  0  0  0  0  0  0  0
  139.1790   78.1760  223.0290 C   0  0  0  0  0  0  0  0  0  0  0  0
  139.8590   77.3120  222.2020 C   0  0  0  0  0  0  0  0  0  0  0  0
  139.4870   76.0250  222.1050 N   0  0  0  0  0  0  0  0  0  0  0  0
  140.1800   75.2130  221.2860 C   0  0  0  0  0  0  0  0  0  0  0  0
  139.7150   73.8170  221.2270 C   0  0  0  0  0  0  0  0  0  0  0  0
  140.4370   72.8720  221.7860 C   0  0  0  0  0  0  0  0  0  0  0  0
  139.8200   71.9690  222.7620 C   0  0  0  0  0  0  0  0  0  0  0  0
  138.6540   71.2790  222.5060 C   0  0  0  0  0  0  0  0  0  0  0  0
  138.1180   70.4380  223.4700 C   0  0  0  0  0  0  0  0  0  0  0  0
  138.7270   70.2630  224.7100 C   0  0  0  0  0  0  0  0  0  0  0  0
  139.8900   70.9750  224.9170 C   0  0  0  0  0  0  0  0  0  0  0  0
  140.5720   70.8520  226.1580 N   0  0  0  0  0  0  0  0  0  0  0  0
  140.8510   69.6490  226.9050 C   0  0  0  0  0  0  0  0  0  0  0  0
  140.4910   70.0800  228.3320 C   0  0  0  0  0  0  0  0  0  0  0  0
  140.7420   71.5510  228.3450 C   0  0  0  0  0  0  0  0  0  0  0  0
  141.1410   71.9370  226.9410 C   0  0  0  0  0  0  0  0  0  0  0  0
  140.3880   71.7840  223.9650 N   0  0  0  0  0  0  0  0  0  0  0  0
  141.2380   75.6380  220.5520 N   0  0  0  0  0  0  0  0  0  0  0  0
  141.9470   74.7340  219.7060 C   0  0  0  0  0  0  0  0  0  0  0  0
  143.1080   74.0310  220.3210 C   0  0  0  0  0  0  0  0  0  0  0  0
  144.4500   74.7000  219.9790 C   0  0  0  0  0  0  0  0  0  0  0  0
  145.4820   74.0590  220.8460 C   0  0  0  0  0  0  0  0  0  0  0  0
  145.1510   72.7230  221.2730 N   0  0  0  0  0  0  0  0  0  0  0  0
  144.5150   71.9680  220.2160 C   0  0  0  0  0  0  0  0  0  0  0  0
  143.2330   72.6220  219.7540 C   0  0  0  0  0  0  0  0  0  0  0  0
  142.1672   79.5090  220.9975 H   0  0  0  0  0  0  0  0  0  0  0  0
  140.9144   81.0616  222.5067 H   0  0  0  0  0  0  0  0  0  0  0  0
  138.3255   77.7958  223.6095 H   0  0  0  0  0  0  0  0  0  0  0  0
  138.7715   73.5675  220.7195 H   0  0  0  0  0  0  0  0  0  0  0  0
  141.4991   72.7591  221.5228 H   0  0  0  0  0  0  0  0  0  0  0  0
  138.1483   71.3956  221.5361 H   0  0  0  0  0  0  0  0  0  0  0  0
  137.1872   69.8949  223.2492 H   0  0  0  0  0  0  0  0  0  0  0  0
  138.3061   69.5973  225.4779 H   0  0  0  0  0  0  0  0  0  0  0  0
  140.2215   68.8123  226.5678 H   0  0  0  0  0  0  0  0  0  0  0  0
  141.8828   69.2839  226.7952 H   0  0  0  0  0  0  0  0  0  0  0  0
  139.4351   69.8626  228.5504 H   0  0  0  0  0  0  0  0  0  0  0  0
  141.0777   69.5459  229.0939 H   0  0  0  0  0  0  0  0  0  0  0  0
  139.8290   72.0885  228.6407 H   0  0  0  0  0  0  0  0  0  0  0  0
  141.5315   71.8107  229.0656 H   0  0  0  0  0  0  0  0  0  0  0  0
  140.7082   72.9068  226.6545 H   0  0  0  0  0  0  0  0  0  0  0  0
  142.2255   72.0613  226.8056 H   0  0  0  0  0  0  0  0  0  0  0  0
  141.2357   73.9691  219.3612 H   0  0  0  0  0  0  0  0  0  0  0  0
  142.3703   75.3538  218.9019 H   0  0  0  0  0  0  0  0  0  0  0  0
  142.9193   74.0502  221.4045 H   0  0  0  0  0  0  0  0  0  0  0  0
  144.6937   74.5404  218.9183 H   0  0  0  0  0  0  0  0  0  0  0  0
  144.4065   75.7854  220.1521 H   0  0  0  0  0  0  0  0  0  0  0  0
  146.4265   74.0169  220.2837 H   0  0  0  0  0  0  0  0  0  0  0  0
  145.5535   74.6721  221.7565 H   0  0  0  0  0  0  0  0  0  0  0  0
  145.9840   72.1710  221.5640 H   0  0  0  0  0  0  0  0  0  0  0  0
  145.2062   71.8970  219.3632 H   0  0  0  0  0  0  0  0  0  0  0  0
  144.2685   70.9703  220.6083 H   0  0  0  0  0  0  0  0  0  0  0  0
  143.2306   72.6741  218.6552 H   0  0  0  0  0  0  0  0  0  0  0  0
  142.3831   72.0220  220.1113 H   0  0  0  0  0  0  0  0  0  0  0  0
  1  2  2  0
  2  3  1  0
  3  4  2  0
  4  5  1  0
  5  6  2  0
  6  7  1  0
  6  8  1  0
  8  9  2  0
  9 10  1  0
 10 11  2  0
 11 12  1  0
 12 13  2  0
 13 14  1  0
 14 15  2  0
 15 16  1  0
 16 17  2  0
 17 18  1  0
 18 19  1  0
 19 20  1  0
 20 21  1  0
 21 22  1  0
 22 23  1  0
 18 24  2  0
 11 25  1  0
 25 26  1  0
 26 27  1  0
 27 28  1  0
 28 29  1  0
 29 30  1  0
 30 31  1  0
 31 32  1  0
 25  2  1  0
 32 27  1  0
  9  3  1  0
 24 14  1  0
 23 19  1  0
  4 33  1  0
  5 34  1  0
  8 35  1  0
 12 36  1  0
 13 37  1  0
 15 38  1  0
 16 39  1  0
 17 40  1  0
 20 41  1  0
 20 42  1  0
 21 43  1  0
 21 44  1  0
 22 45  1  0
 22 46  1  0
 23 47  1  0
 23 48  1  0
 26 49  1  0
 26 50  1  0
 27 51  1  0
 28 52  1  0
 28 53  1  0
 29 54  1  0
 29 55  1  0
 30 56  1  0
 31 57  1  0
 31 58  1  0
 32 59  1  0
 32 60  1  0
M  END
>  <smiles>  (37) 
O=c1c2ccc(Cl)cc2nc(/C=C/c2cccc(N3CCCC3)n2)n1CC1CCNCC1

>  <score_type>  (37) 
oracle

>  <origin>  (37) 
autodockgpu

>  <m_score__min__energy>  (37) 
-9.3200000000000003

>  <m_primary>  (37) 
energy

>  <rmsd>  (37) 
4.239724125225739

>  <m_score__min__rmsd>  (37) 
4.239724125225739

>  <meeko>  (37) 
{"free_energy": -9.13, "intermolecular_energy": -10.92, "internal_energy": -1.39, "cluster_size": 23, "cluster_id": 1, "rank_in_cluster": 10}

>  <energy>  (37) 
-7.41

>  <cluster_rmsd>  (37) 
0.67

>  <cluster>  (37) 
6

$$$$

     RDKit          3D

 60 64  0  0  0  0  0  0  0  0999 V2000
  137.4870   78.0410  222.7660 O   0  0  0  0  0  0  0  0  0  0  0  0
  138.7470   77.9860  222.8400 C   0  0  0  0  0  0  0  0  0  0  0  0
  139.3280   76.8410  222.3160 C   0  0  0  0  0  0  0  0  0  0  0  0
  138.5560   75.8490  221.7570 C   0  0  0  0  0  0  0  0  0  0  0  0
  139.1650   74.7120  221.2390 C   0  0  0  0  0  0  0  0  0  0  0  0
  140.5560   74.6040  221.2990 C   0  0  0  0  0  0  0  0  0  0  0  0
  141.3350   73.1690  220.6440 Cl  0  0  0  0  0  0  0  0  0  0  0  0
  141.2950   75.6320  221.8710 C   0  0  0  0  0  0  0  0  0  0  0  0
  140.7020   76.7610  222.3870 C   0  0  0  0  0  0  0  0  0  0  0  0
  141.4480   77.7350  222.9340 N   0  0  0  0  0  0  0  0  0  0  0  0
  140.8300   78.8220  223.4270 C   0  0  0  0  0  0  0  0  0  0  0  0
  141.7100   79.8500  224.0090 C   0  0  0  0  0  0  0  0  0  0  0  0
  142.5090   80.5350  223.2240 C   0  0  0  0  0  0  0  0  0  0  0  0
  142.1190   80.7880  221.8340 C   0  0  0  0  0  0  0  0  0  0  0  0
  141.7810   82.0420  221.3710 C   0  0  0  0  0  0  0  0  0  0  0  0
  141.4200   82.2190  220.0430 C   0  0  0  0  0  0  0  0  0  0  0  0
  141.3870   81.1550  219.1450 C   0  0  0  0  0  0  0  0  0  0  0  0
  141.7330   79.9220  219.6570 C   0  0  0  0  0  0  0  0  0  0  0  0
  141.7230   78.7850  218.8040 N   0  0  0  0  0  0  0  0  0  0  0  0
  140.9050   77.6010  218.9100 C   0  0  0  0  0  0  0  0  0  0  0  0
  141.9300   76.4910  218.6520 C   0  0  0  0  0  0  0  0  0  0  0  0
  142.9530   77.1330  217.7750 C   0  0  0  0  0  0  0  0  0  0  0  0
  142.5520   78.5820  217.6280 C   0  0  0  0  0  0  0  0  0  0  0  0
  142.0790   79.7780  220.9480 N   0  0  0  0  0  0  0  0  0  0  0  0
  139.4830   78.9790  223.3950 N   0  0  0  0  0  0  0  0  0  0  0  0
  138.8730   80.1470  223.9430 C   0  0  0  0  0  0  0  0  0  0  0  0
  138.6600   81.2820  223.0020 C   0  0  0  0  0  0  0  0  0  0  0  0
  137.3190   81.9970  223.2340 C   0  0  0  0  0  0  0  0  0  0  0  0
  137.3480   83.2420  222.4110 C   0  0  0  0  0  0  0  0  0  0  0  0
  138.2190   83.1740  221.2650 N   0  0  0  0  0  0  0  0  0  0  0  0
  138.1610   81.8790  220.6270 C   0  0  0  0  0  0  0  0  0  0  0  0
  138.5730   80.7710  221.5690 C   0  0  0  0  0  0  0  0  0  0  0  0
  137.4618   75.9551  221.7202 H   0  0  0  0  0  0  0  0  0  0  0  0
  138.5610   73.9102  220.7891 H   0  0  0  0  0  0  0  0  0  0  0  0
  142.3904   75.5402  221.9127 H   0  0  0  0  0  0  0  0  0  0  0  0
  141.6978   80.0421  225.0920 H   0  0  0  0  0  0  0  0  0  0  0  0
  143.4665   80.9172  223.6077 H   0  0  0  0  0  0  0  0  0  0  0  0
  141.7976   82.9031  222.0552 H   0  0  0  0  0  0  0  0  0  0  0  0
  141.1529   83.2261  219.6902 H   0  0  0  0  0  0  0  0  0  0  0  0
  141.1022   81.2899  218.0911 H   0  0  0  0  0  0  0  0  0  0  0  0
  140.4590   77.5101  219.9114 H   0  0  0  0  0  0  0  0  0  0  0  0
  140.0484   77.5869  218.2201 H   0  0  0  0  0  0  0  0  0  0  0  0
  142.3827   76.1513  219.5952 H   0  0  0  0  0  0  0  0  0  0  0  0
  141.4789   75.6003  218.1903 H   0  0  0  0  0  0  0  0  0  0  0  0
  143.9483   77.0603  218.2377 H   0  0  0  0  0  0  0  0  0  0  0  0
  143.0025   76.6351  216.7954 H   0  0  0  0  0  0  0  0  0  0  0  0
  143.4309   79.2434  217.6392 H   0  0  0  0  0  0  0  0  0  0  0  0
  142.0413   78.8076  216.6802 H   0  0  0  0  0  0  0  0  0  0  0  0
  137.8913   79.8556  224.3447 H   0  0  0  0  0  0  0  0  0  0  0  0
  139.5795   80.5205  224.6989 H   0  0  0  0  0  0  0  0  0  0  0  0
  139.5071   81.9629  223.1719 H   0  0  0  0  0  0  0  0  0  0  0  0
  136.4860   81.3524  222.9169 H   0  0  0  0  0  0  0  0  0  0  0  0
  137.1744   82.2304  224.2992 H   0  0  0  0  0  0  0  0  0  0  0  0
  136.3267   83.4445  222.0562 H   0  0  0  0  0  0  0  0  0  0  0  0
  137.7409   84.0394  223.0589 H   0  0  0  0  0  0  0  0  0  0  0  0
  137.9800   83.8720  220.5310 H   0  0  0  0  0  0  0  0  0  0  0  0
  137.1307   81.6943  220.2889 H   0  0  0  0  0  0  0  0  0  0  0  0
  138.8604   81.8841  219.7780 H   0  0  0  0  0  0  0  0  0  0  0  0
  137.8303   79.9611  221.5196 H   0  0  0  0  0  0  0  0  0  0  0  0
  139.5638   80.4016  221.2661 H   0  0  0  0  0  0  0  0  0  0  0  0
  1  2  2  0
  2  3  1  0
  3  4  2  0
  4  5  1  0
  5  6  2  0
  6  7  1  0
  6  8  1  0
  8  9  2  0
  9 10  1  0
 10 11  2  0
 11 12  1  0
 12 13  2  0
 13 14  1  0
 14 15  2  0
 15 16  1  0
 16 17  2  0
 17 18  1  0
 18 19  1  0
 19 20  1  0
 20 21  1  0
 21 22  1  0
 22 23  1  0
 18 24  2  0
 11 25  1  0
 25 26  1  0
 26 27  1  0
 27 28  1  0
 28 29  1  0
 29 30  1  0
 30 31  1  0
 31 32  1  0
 25  2  1  0
 32 27  1  0
  9  3  1  0
 24 14  1  0
 23 19  1  0
  4 33  1  0
  5 34  1  0
  8 35  1  0
 12 36  1  0
 13 37  1  0
 15 38  1  0
 16 39  1  0
 17 40  1  0
 20 41  1  0
 20 42  1  0
 21 43  1  0
 21 44  1  0
 22 45  1  0
 22 46  1  0
 23 47  1  0
 23 48  1  0
 26 49  1  0
 26 50  1  0
 27 51  1  0
 28 52  1  0
 28 53  1  0
 29 54  1  0
 29 55  1  0
 30 56  1  0
 31 57  1  0
 31 58  1  0
 32 59  1  0
 32 60  1  0
M  END
>  <smiles>  (38) 
O=c1c2ccc(Cl)cc2nc(/C=C/c2cccc(N3CCCC3)n2)n1CC1CCNCC1

>  <score_type>  (38) 
oracle

>  <origin>  (38) 
autodockgpu

>  <m_score__min__energy>  (38) 
-9.3200000000000003

>  <m_primary>  (38) 
energy

>  <rmsd>  (38) 
7.062020233983842

>  <m_score__min__rmsd>  (38) 
7.062020233983842

>  <meeko>  (38) 
{"free_energy": -6.16, "intermolecular_energy": -7.95, "internal_energy": -3.25, "cluster_size": 6, "cluster_id": 9, "rank_in_cluster": 1}

>  <energy>  (38) 
-7.35

>  <cluster_rmsd>  (38) 
1.84

>  <cluster>  (38) 
6

$$$$

     RDKit          3D

 60 64  0  0  0  0  0  0  0  0999 V2000
  144.4120   75.7180  220.1440 O   0  0  0  0  0  0  0  0  0  0  0  0
  143.4870   74.8590  220.1990 C   0  0  0  0  0  0  0  0  0  0  0  0
  143.8790   73.5440  219.9910 C   0  0  0  0  0  0  0  0  0  0  0  0
  145.1960   73.2290  219.7450 C   0  0  0  0  0  0  0  0  0  0  0  0
  145.5600   71.9040  219.5410 C   0  0  0  0  0  0  0  0  0  0  0  0
  144.5730   70.9170  219.5910 C   0  0  0  0  0  0  0  0  0  0  0  0
  145.0250   69.2360  219.3340 Cl  0  0  0  0  0  0  0  0  0  0  0  0
  143.2560   71.2810  219.8430 C   0  0  0  0  0  0  0  0  0  0  0  0
  142.8850   72.5910  220.0470 C   0  0  0  0  0  0  0  0  0  0  0  0
  141.6020   72.9070  220.2880 N   0  0  0  0  0  0  0  0  0  0  0  0
  141.2820   74.1990  220.4810 C   0  0  0  0  0  0  0  0  0  0  0  0
  139.8580   74.4720  220.7430 C   0  0  0  0  0  0  0  0  0  0  0  0
  139.4640   74.7210  221.9710 C   0  0  0  0  0  0  0  0  0  0  0  0
  138.9860   76.0610  222.3220 C   0  0  0  0  0  0  0  0  0  0  0  0
  137.6470   76.3950  222.3350 C   0  0  0  0  0  0  0  0  0  0  0  0
  137.2550   77.6810  222.6760 C   0  0  0  0  0  0  0  0  0  0  0  0
  138.1820   78.6650  223.0120 C   0  0  0  0  0  0  0  0  0  0  0  0
  139.5070   78.2810  222.9850 C   0  0  0  0  0  0  0  0  0  0  0  0
  140.5140   79.2270  223.3140 N   0  0  0  0  0  0  0  0  0  0  0  0
  140.4600   80.6640  223.1930 C   0  0  0  0  0  0  0  0  0  0  0  0
  141.8290   80.9750  222.5770 C   0  0  0  0  0  0  0  0  0  0  0  0
  142.7100   79.8750  223.0650 C   0  0  0  0  0  0  0  0  0  0  0  0
  141.8320   78.9310  223.8530 C   0  0  0  0  0  0  0  0  0  0  0  0
  139.8590   77.0270  222.6500 N   0  0  0  0  0  0  0  0  0  0  0  0
  142.1990   75.1970  220.4440 N   0  0  0  0  0  0  0  0  0  0  0  0
  141.8060   76.5550  220.6430 C   0  0  0  0  0  0  0  0  0  0  0  0
  142.2580   77.5300  219.6120 C   0  0  0  0  0  0  0  0  0  0  0  0
  141.4730   78.8510  219.6650 C   0  0  0  0  0  0  0  0  0  0  0  0
  142.1830   79.8090  218.7670 C   0  0  0  0  0  0  0  0  0  0  0  0
  142.9460   79.1820  217.7180 N   0  0  0  0  0  0  0  0  0  0  0  0
  142.2550   78.0390  217.1650 C   0  0  0  0  0  0  0  0  0  0  0  0
  141.9860   76.9850  218.2150 C   0  0  0  0  0  0  0  0  0  0  0  0
  145.9568   74.0227  219.7101 H   0  0  0  0  0  0  0  0  0  0  0  0
  146.6085   71.6365  219.3433 H   0  0  0  0  0  0  0  0  0  0  0  0
  142.4850   70.4973  219.8807 H   0  0  0  0  0  0  0  0  0  0  0  0
  139.1312   74.4673  219.9173 H   0  0  0  0  0  0  0  0  0  0  0  0
  139.4927   73.9275  222.7322 H   0  0  0  0  0  0  0  0  0  0  0  0
  136.8899   75.6406  222.0747 H   0  0  0  0  0  0  0  0  0  0  0  0
  136.1837   77.9305  222.6812 H   0  0  0  0  0  0  0  0  0  0  0  0
  137.8762   79.6864  223.2825 H   0  0  0  0  0  0  0  0  0  0  0  0
  139.6409   80.9802  222.5304 H   0  0  0  0  0  0  0  0  0  0  0  0
  140.2684   81.1854  224.1424 H   0  0  0  0  0  0  0  0  0  0  0  0
  141.7722   80.9707  221.4785 H   0  0  0  0  0  0  0  0  0  0  0  0
  142.2019   81.9701  222.8611 H   0  0  0  0  0  0  0  0  0  0  0  0
  143.1647   79.3477  222.2134 H   0  0  0  0  0  0  0  0  0  0  0  0
  143.5258   80.2693  223.6887 H   0  0  0  0  0  0  0  0  0  0  0  0
  142.1110   77.8821  223.6744 H   0  0  0  0  0  0  0  0  0  0  0  0
  141.9059   79.0605  224.9428 H   0  0  0  0  0  0  0  0  0  0  0  0
  140.7068   76.5849  220.6736 H   0  0  0  0  0  0  0  0  0  0  0  0
  142.2947   76.8681  221.5774 H   0  0  0  0  0  0  0  0  0  0  0  0
  143.3262   77.6948  219.8164 H   0  0  0  0  0  0  0  0  0  0  0  0
  140.4428   78.6940  219.3129 H   0  0  0  0  0  0  0  0  0  0  0  0
  141.4197   79.2383  220.6932 H   0  0  0  0  0  0  0  0  0  0  0  0
  141.4333   80.4663  218.3023 H   0  0  0  0  0  0  0  0  0  0  0  0
  142.9008   80.3573  219.3948 H   0  0  0  0  0  0  0  0  0  0  0  0
  143.1390   79.8200  216.9190 H   0  0  0  0  0  0  0  0  0  0  0  0
  141.2963   78.3729  216.7415 H   0  0  0  0  0  0  0  0  0  0  0  0
  142.8955   77.5940  216.3893 H   0  0  0  0  0  0  0  0  0  0  0  0
  140.9339   76.6708  218.1491 H   0  0  0  0  0  0  0  0  0  0  0  0
  142.6535   76.1295  218.0345 H   0  0  0  0  0  0  0  0  0  0  0  0
  1  2  2  0
  2  3  1  0
  3  4  2  0
  4  5  1  0
  5  6  2  0
  6  7  1  0
  6  8  1  0
  8  9  2  0
  9 10  1  0
 10 11  2  0
 11 12  1  0
 12 13  2  0
 13 14  1  0
 14 15  2  0
 15 16  1  0
 16 17  2  0
 17 18  1  0
 18 19  1  0
 19 20  1  0
 20 21  1  0
 21 22  1  0
 22 23  1  0
 18 24  2  0
 11 25  1  0
 25 26  1  0
 26 27  1  0
 27 28  1  0
 28 29  1  0
 29 30  1  0
 30 31  1  0
 31 32  1  0
 25  2  1  0
 32 27  1  0
  9  3  1  0
 24 14  1  0
 23 19  1  0
  4 33  1  0
  5 34  1  0
  8 35  1  0
 12 36  1  0
 13 37  1  0
 15 38  1  0
 16 39  1  0
 17 40  1  0
 20 41  1  0
 20 42  1  0
 21 43  1  0
 21 44  1  0
 22 45  1  0
 22 46  1  0
 23 47  1  0
 23 48  1  0
 26 49  1  0
 26 50  1  0
 27 51  1  0
 28 52  1  0
 28 53  1  0
 29 54  1  0
 29 55  1  0
 30 56  1  0
 31 57  1  0
 31 58  1  0
 32 59  1  0
 32 60  1  0
M  END
>  <smiles>  (39) 
O=c1c2ccc(Cl)cc2nc(/C=C/c2cccc(N3CCCC3)n2)n1CC1CCNCC1

>  <score_type>  (39) 
oracle

>  <origin>  (39) 
autodockgpu

>  <m_score__min__energy>  (39) 
-9.3200000000000003

>  <m_primary>  (39) 
energy

>  <rmsd>  (39) 
7.998230844721437

>  <m_score__min__rmsd>  (39) 
7.998230844721437

>  <meeko>  (39) 
{"free_energy": -7.54, "intermolecular_energy": -9.33, "internal_energy": -2.15, "cluster_size": 8, "cluster_id": 6, "rank_in_cluster": 5}

>  <energy>  (39) 
-7.55

>  <cluster_rmsd>  (39) 
0.0

>  <cluster>  (39) 
7

$$$$

     RDKit          3D

 60 64  0  0  0  0  0  0  0  0999 V2000
  142.8580   76.0340  219.4470 O   0  0  0  0  0  0  0  0  0  0  0  0
  141.9770   75.7400  220.3030 C   0  0  0  0  0  0  0  0  0  0  0  0
  141.4610   76.8090  221.0210 C   0  0  0  0  0  0  0  0  0  0  0  0
  141.8990   78.0930  220.7910 C   0  0  0  0  0  0  0  0  0  0  0  0
  141.3640   79.1450  221.5260 C   0  0  0  0  0  0  0  0  0  0  0  0
  140.3870   78.8710  222.4860 C   0  0  0  0  0  0  0  0  0  0  0  0
  139.7040   80.1970  223.4190 Cl  0  0  0  0  0  0  0  0  0  0  0  0
  139.9750   77.5590  222.6830 C   0  0  0  0  0  0  0  0  0  0  0  0
  140.4980   76.5100  221.9610 C   0  0  0  0  0  0  0  0  0  0  0  0
  140.0750   75.2540  222.1780 N   0  0  0  0  0  0  0  0  0  0  0  0
  140.6120   74.2580  221.4520 C   0  0  0  0  0  0  0  0  0  0  0  0
  140.1000   72.9070  221.7420 C   0  0  0  0  0  0  0  0  0  0  0  0
  140.6150   72.2210  222.7370 C   0  0  0  0  0  0  0  0  0  0  0  0
  139.8460   71.1300  223.3410 C   0  0  0  0  0  0  0  0  0  0  0  0
  138.8850   70.4230  222.6480 C   0  0  0  0  0  0  0  0  0  0  0  0
  138.1890   69.3990  223.2740 C   0  0  0  0  0  0  0  0  0  0  0  0
  138.4300   69.0550  224.6010 C   0  0  0  0  0  0  0  0  0  0  0  0
  139.3990   69.7910  225.2500 C   0  0  0  0  0  0  0  0  0  0  0  0
  139.7030   69.5020  226.6080 N   0  0  0  0  0  0  0  0  0  0  0  0
  139.9740   70.4330  227.6770 C   0  0  0  0  0  0  0  0  0  0  0  0
  141.1900   69.7870  228.3500 C   0  0  0  0  0  0  0  0  0  0  0  0
  141.0260   68.3280  228.0820 C   0  0  0  0  0  0  0  0  0  0  0  0
  139.8040   68.1820  227.2070 C   0  0  0  0  0  0  0  0  0  0  0  0
  140.0590   70.7780  224.6190 N   0  0  0  0  0  0  0  0  0  0  0  0
  141.5630   74.4670  220.5080 N   0  0  0  0  0  0  0  0  0  0  0  0
  142.1100   73.3740  219.7720 C   0  0  0  0  0  0  0  0  0  0  0  0
  143.5870   73.3890  219.5700 C   0  0  0  0  0  0  0  0  0  0  0  0
  144.1490   72.0000  219.2270 C   0  0  0  0  0  0  0  0  0  0  0  0
  145.5680   72.2020  218.8110 C   0  0  0  0  0  0  0  0  0  0  0  0
  146.1840   73.3830  219.3610 N   0  0  0  0  0  0  0  0  0  0  0  0
  145.7890   73.6010  220.7340 C   0  0  0  0  0  0  0  0  0  0  0  0
  144.2920   73.7730  220.8650 C   0  0  0  0  0  0  0  0  0  0  0  0
  142.6687   78.2862  220.0293 H   0  0  0  0  0  0  0  0  0  0  0  0
  141.7047   80.1767  221.3542 H   0  0  0  0  0  0  0  0  0  0  0  0
  139.2054   77.3514  223.4410 H   0  0  0  0  0  0  0  0  0  0  0  0
  139.2933   72.4765  221.1305 H   0  0  0  0  0  0  0  0  0  0  0  0
  141.6189   72.4646  223.1149 H   0  0  0  0  0  0  0  0  0  0  0  0
  138.6704   70.6715  221.5981 H   0  0  0  0  0  0  0  0  0  0  0  0
  137.4268   68.8445  222.7068 H   0  0  0  0  0  0  0  0  0  0  0  0
  137.8804   68.2445  225.1021 H   0  0  0  0  0  0  0  0  0  0  0  0
  140.2156   71.4326  227.2867 H   0  0  0  0  0  0  0  0  0  0  0  0
  139.1226   70.5958  228.3542 H   0  0  0  0  0  0  0  0  0  0  0  0
  142.1251   70.1619  227.9083 H   0  0  0  0  0  0  0  0  0  0  0  0
  141.2461   70.0138  229.4249 H   0  0  0  0  0  0  0  0  0  0  0  0
  141.9130   67.9359  227.5629 H   0  0  0  0  0  0  0  0  0  0  0  0
  140.9110   67.7641  229.0194 H   0  0  0  0  0  0  0  0  0  0  0  0
  139.9508   67.4057  226.4416 H   0  0  0  0  0  0  0  0  0  0  0  0
  138.9011   67.8724  227.7537 H   0  0  0  0  0  0  0  0  0  0  0  0
  141.8540   72.4477  220.3071 H   0  0  0  0  0  0  0  0  0  0  0  0
  141.6747   73.4507  218.7647 H   0  0  0  0  0  0  0  0  0  0  0  0
  143.7617   74.1009  218.7498 H   0  0  0  0  0  0  0  0  0  0  0  0
  144.1022   71.3439  220.1086 H   0  0  0  0  0  0  0  0  0  0  0  0
  143.5656   71.5242  218.4250 H   0  0  0  0  0  0  0  0  0  0  0  0
  146.1501   71.3268  219.1352 H   0  0  0  0  0  0  0  0  0  0  0  0
  145.5612   72.3295  217.7184 H   0  0  0  0  0  0  0  0  0  0  0  0
  147.2230   73.3360  219.3610 H   0  0  0  0  0  0  0  0  0  0  0  0
  146.1025   72.7359  221.3367 H   0  0  0  0  0  0  0  0  0  0  0  0
  146.2724   74.5237  221.0874 H   0  0  0  0  0  0  0  0  0  0  0  0
  143.9253   73.1307  221.6792 H   0  0  0  0  0  0  0  0  0  0  0  0
  144.0766   74.8294  221.0834 H   0  0  0  0  0  0  0  0  0  0  0  0
  1  2  2  0
  2  3  1  0
  3  4  2  0
  4  5  1  0
  5  6  2  0
  6  7  1  0
  6  8  1  0
  8  9  2  0
  9 10  1  0
 10 11  2  0
 11 12  1  0
 12 13  2  0
 13 14  1  0
 14 15  2  0
 15 16  1  0
 16 17  2  0
 17 18  1  0
 18 19  1  0
 19 20  1  0
 20 21  1  0
 21 22  1  0
 22 23  1  0
 18 24  2  0
 11 25  1  0
 25 26  1  0
 26 27  1  0
 27 28  1  0
 28 29  1  0
 29 30  1  0
 30 31  1  0
 31 32  1  0
 25  2  1  0
 32 27  1  0
  9  3  1  0
 24 14  1  0
 23 19  1  0
  4 33  1  0
  5 34  1  0
  8 35  1  0
 12 36  1  0
 13 37  1  0
 15 38  1  0
 16 39  1  0
 17 40  1  0
 20 41  1  0
 20 42  1  0
 21 43  1  0
 21 44  1  0
 22 45  1  0
 22 46  1  0
 23 47  1  0
 23 48  1  0
 26 49  1  0
 26 50  1  0
 27 51  1  0
 28 52  1  0
 28 53  1  0
 29 54  1  0
 29 55  1  0
 30 56  1  0
 31 57  1  0
 31 58  1  0
 32 59  1  0
 32 60  1  0
M  END
>  <smiles>  (40) 
O=c1c2ccc(Cl)cc2nc(/C=C/c2cccc(N3CCCC3)n2)n1CC1CCNCC1

>  <score_type>  (40) 
oracle

>  <origin>  (40) 
autodockgpu

>  <m_score__min__energy>  (40) 
-9.3200000000000003

>  <m_primary>  (40) 
energy

>  <rmsd>  (40) 
5.122062682975978

>  <m_score__min__rmsd>  (40) 
5.122062682975978

>  <meeko>  (40) 
{"free_energy": -8.97, "intermolecular_energy": -10.76, "internal_energy": -1.19, "cluster_size": 23, "cluster_id": 1, "rank_in_cluster": 13}

>  <energy>  (40) 
-7.54

>  <cluster_rmsd>  (40) 
0.12

>  <cluster>  (40) 
7

$$$$

     RDKit          3D

 60 64  0  0  0  0  0  0  0  0999 V2000
  142.6590   77.2200  218.8500 O   0  0  0  0  0  0  0  0  0  0  0  0
  142.0780   76.8040  219.8920 C   0  0  0  0  0  0  0  0  0  0  0  0
  141.6160   77.7880  220.7530 C   0  0  0  0  0  0  0  0  0  0  0  0
  141.7930   79.1220  220.4630 C   0  0  0  0  0  0  0  0  0  0  0  0
  141.3200   80.0870  221.3440 C   0  0  0  0  0  0  0  0  0  0  0  0
  140.6710   79.6760  222.5110 C   0  0  0  0  0  0  0  0  0  0  0  0
  140.0680   80.8910  223.6310 Cl  0  0  0  0  0  0  0  0  0  0  0  0
  140.5140   78.3190  222.7620 C   0  0  0  0  0  0  0  0  0  0  0  0
  140.9790   77.3550  221.8960 C   0  0  0  0  0  0  0  0  0  0  0  0
  140.8100   76.0510  222.1710 N   0  0  0  0  0  0  0  0  0  0  0  0
  141.2790   75.1420  221.2990 C   0  0  0  0  0  0  0  0  0  0  0  0
  141.0570   73.7320  221.6630 C   0  0  0  0  0  0  0  0  0  0  0  0
  139.8420   73.3240  221.9510 C   0  0  0  0  0  0  0  0  0  0  0  0
  139.6520   72.0760  222.6940 C   0  0  0  0  0  0  0  0  0  0  0  0
  138.9500   71.0040  222.1840 C   0  0  0  0  0  0  0  0  0  0  0  0
  138.8040   69.8470  222.9360 C   0  0  0  0  0  0  0  0  0  0  0  0
  139.3510   69.7280  224.2110 C   0  0  0  0  0  0  0  0  0  0  0  0
  140.0440   70.8270  224.6750 C   0  0  0  0  0  0  0  0  0  0  0  0
  140.6330   70.7860  225.9680 N   0  0  0  0  0  0  0  0  0  0  0  0
  140.7010   69.6690  226.8800 C   0  0  0  0  0  0  0  0  0  0  0  0
  140.3240   70.3310  228.2100 C   0  0  0  0  0  0  0  0  0  0  0  0
  140.7750   71.7460  228.0570 C   0  0  0  0  0  0  0  0  0  0  0  0
  141.3010   71.8840  226.6470 C   0  0  0  0  0  0  0  0  0  0  0  0
  140.1710   71.9360  223.9260 N   0  0  0  0  0  0  0  0  0  0  0  0
  141.9170   75.4840  220.1520 N   0  0  0  0  0  0  0  0  0  0  0  0
  142.4070   74.4800  219.2640 C   0  0  0  0  0  0  0  0  0  0  0  0
  143.5570   73.6710  219.7570 C   0  0  0  0  0  0  0  0  0  0  0  0
  144.6220   74.5270  220.4610 C   0  0  0  0  0  0  0  0  0  0  0  0
  145.5730   73.5790  221.1140 C   0  0  0  0  0  0  0  0  0  0  0  0
  145.6360   72.2810  220.4910 N   0  0  0  0  0  0  0  0  0  0  0  0
  145.5750   72.3770  219.0510 C   0  0  0  0  0  0  0  0  0  0  0  0
  144.2960   73.0360  218.5850 C   0  0  0  0  0  0  0  0  0  0  0  0
  142.3066   79.4228  219.5379 H   0  0  0  0  0  0  0  0  0  0  0  0
  141.4544   81.1568  221.1262 H   0  0  0  0  0  0  0  0  0  0  0  0
  140.0013   78.0042  223.6829 H   0  0  0  0  0  0  0  0  0  0  0  0
  141.9010   73.0271  221.6934 H   0  0  0  0  0  0  0  0  0  0  0  0
  138.9709   73.9171  221.6355 H   0  0  0  0  0  0  0  0  0  0  0  0
  138.5053   71.0662  221.1798 H   0  0  0  0  0  0  0  0  0  0  0  0
  138.2412   69.0014  222.5138 H   0  0  0  0  0  0  0  0  0  0  0  0
  139.2375   68.8135  224.8116 H   0  0  0  0  0  0  0  0  0  0  0  0
  139.9824   68.8828  226.6055 H   0  0  0  0  0  0  0  0  0  0  0  0
  141.6774   69.1626  226.8940 H   0  0  0  0  0  0  0  0  0  0  0  0
  139.2375   70.2837  228.3749 H   0  0  0  0  0  0  0  0  0  0  0  0
  140.7873   69.8327  229.0743 H   0  0  0  0  0  0  0  0  0  0  0  0
  139.9301   72.4324  228.2153 H   0  0  0  0  0  0  0  0  0  0  0  0
  141.5513   71.9959  228.7952 H   0  0  0  0  0  0  0  0  0  0  0  0
  141.0221   72.8538  226.2092 H   0  0  0  0  0  0  0  0  0  0  0  0
  142.3982   71.8478  226.5768 H   0  0  0  0  0  0  0  0  0  0  0  0
  141.5785   73.7892  219.0483 H   0  0  0  0  0  0  0  0  0  0  0  0
  142.7841   75.0229  218.3847 H   0  0  0  0  0  0  0  0  0  0  0  0
  143.1199   72.9353  220.4481 H   0  0  0  0  0  0  0  0  0  0  0  0
  145.1529   75.1507  219.7268 H   0  0  0  0  0  0  0  0  0  0  0  0
  144.1631   75.1990  221.2011 H   0  0  0  0  0  0  0  0  0  0  0  0
  146.5783   74.0245  221.0850 H   0  0  0  0  0  0  0  0  0  0  0  0
  145.2062   73.4198  222.1387 H   0  0  0  0  0  0  0  0  0  0  0  0
  146.5120   71.7670  220.7130 H   0  0  0  0  0  0  0  0  0  0  0  0
  146.4307   72.9708  218.6973 H   0  0  0  0  0  0  0  0  0  0  0  0
  145.6036   71.3574  218.6391 H   0  0  0  0  0  0  0  0  0  0  0  0
  144.5395   73.8149  217.8474 H   0  0  0  0  0  0  0  0  0  0  0  0
  143.6487   72.2700  218.1330 H   0  0  0  0  0  0  0  0  0  0  0  0
  1  2  2  0
  2  3  1  0
  3  4  2  0
  4  5  1  0
  5  6  2  0
  6  7  1  0
  6  8  1  0
  8  9  2  0
  9 10  1  0
 10 11  2  0
 11 12  1  0
 12 13  2  0
 13 14  1  0
 14 15  2  0
 15 16  1  0
 16 17  2  0
 17 18  1  0
 18 19  1  0
 19 20  1  0
 20 21  1  0
 21 22  1  0
 22 23  1  0
 18 24  2  0
 11 25  1  0
 25 26  1  0
 26 27  1  0
 27 28  1  0
 28 29  1  0
 29 30  1  0
 30 31  1  0
 31 32  1  0
 25  2  1  0
 32 27  1  0
  9  3  1  0
 24 14  1  0
 23 19  1  0
  4 33  1  0
  5 34  1  0
  8 35  1  0
 12 36  1  0
 13 37  1  0
 15 38  1  0
 16 39  1  0
 17 40  1  0
 20 41  1  0
 20 42  1  0
 21 43  1  0
 21 44  1  0
 22 45  1  0
 22 46  1  0
 23 47  1  0
 23 48  1  0
 26 49  1  0
 26 50  1  0
 27 51  1  0
 28 52  1  0
 28 53  1  0
 29 54  1  0
 29 55  1  0
 30 56  1  0
 31 57  1  0
 31 58  1  0
 32 59  1  0
 32 60  1  0
M  END
>  <smiles>  (41) 
O=c1c2ccc(Cl)cc2nc(/C=C/c2cccc(N3CCCC3)n2)n1CC1CCNCC1

>  <score_type>  (41) 
oracle

>  <origin>  (41) 
autodockgpu

>  <m_score__min__energy>  (41) 
-9.3200000000000003

>  <m_primary>  (41) 
energy

>  <rmsd>  (41) 
4.499632883255364

>  <m_score__min__rmsd>  (41) 
4.499632883255364

>  <meeko>  (41) 
{"free_energy": -9.23, "intermolecular_energy": -11.02, "internal_energy": -1.35, "cluster_size": 23, "cluster_id": 1, "rank_in_cluster": 5}

>  <energy>  (41) 
-7.41

>  <cluster_rmsd>  (41) 
0.49

>  <cluster>  (41) 
7

$$$$

     RDKit          3D

 60 64  0  0  0  0  0  0  0  0999 V2000
  142.6150   76.8990  218.6000 O   0  0  0  0  0  0  0  0  0  0  0  0
  142.0760   76.4980  219.6690 C   0  0  0  0  0  0  0  0  0  0  0  0
  141.6700   77.4940  220.5450 C   0  0  0  0  0  0  0  0  0  0  0  0
  141.8560   78.8230  220.2390 C   0  0  0  0  0  0  0  0  0  0  0  0
  141.4410   79.8000  221.1360 C   0  0  0  0  0  0  0  0  0  0  0  0
  140.8390   79.4060  222.3340 C   0  0  0  0  0  0  0  0  0  0  0  0
  140.3090   80.6370  223.4740 Cl  0  0  0  0  0  0  0  0  0  0  0  0
  140.6710   78.0530  222.5990 C   0  0  0  0  0  0  0  0  0  0  0  0
  141.0790   77.0780  221.7180 C   0  0  0  0  0  0  0  0  0  0  0  0
  140.9010   75.7780  222.0080 N   0  0  0  0  0  0  0  0  0  0  0  0
  141.3150   74.8570  221.1210 C   0  0  0  0  0  0  0  0  0  0  0  0
  141.0860   73.4520  221.5030 C   0  0  0  0  0  0  0  0  0  0  0  0
  139.9030   73.0890  221.9440 C   0  0  0  0  0  0  0  0  0  0  0  0
  139.7660   71.8490  222.7140 C   0  0  0  0  0  0  0  0  0  0  0  0
  139.1760   70.7140  222.1990 C   0  0  0  0  0  0  0  0  0  0  0  0
  139.0750   69.5690  222.9760 C   0  0  0  0  0  0  0  0  0  0  0  0
  139.5550   69.5260  224.2830 C   0  0  0  0  0  0  0  0  0  0  0  0
  140.1350   70.6870  224.7510 C   0  0  0  0  0  0  0  0  0  0  0  0
  140.6500   70.7250  226.0750 N   0  0  0  0  0  0  0  0  0  0  0  0
  140.6610   69.6670  227.0570 C   0  0  0  0  0  0  0  0  0  0  0  0
  140.2130   70.4100  228.3200 C   0  0  0  0  0  0  0  0  0  0  0  0
  140.6790   71.8120  228.1050 C   0  0  0  0  0  0  0  0  0  0  0  0
  141.2840   71.8610  226.7220 C   0  0  0  0  0  0  0  0  0  0  0  0
  140.2210   71.7820  223.9760 N   0  0  0  0  0  0  0  0  0  0  0  0
  141.9040   75.1820  219.9440 N   0  0  0  0  0  0  0  0  0  0  0  0
  142.3360   74.1660  219.0400 C   0  0  0  0  0  0  0  0  0  0  0  0
  143.7080   73.6270  219.2620 C   0  0  0  0  0  0  0  0  0  0  0  0
  143.6960   72.1720  219.7590 C   0  0  0  0  0  0  0  0  0  0  0  0
  145.1060   71.6860  219.6980 C   0  0  0  0  0  0  0  0  0  0  0  0
  146.0960   72.7290  219.7900 N   0  0  0  0  0  0  0  0  0  0  0  0
  145.7150   73.7430  220.7460 C   0  0  0  0  0  0  0  0  0  0  0  0
  144.4050   74.4010  220.3740 C   0  0  0  0  0  0  0  0  0  0  0  0
  142.3307   79.1104  219.2892 H   0  0  0  0  0  0  0  0  0  0  0  0
  141.5841   80.8663  220.9067 H   0  0  0  0  0  0  0  0  0  0  0  0
  140.1962   77.7510  223.5442 H   0  0  0  0  0  0  0  0  0  0  0  0
  141.8979   72.7145  221.4196 H   0  0  0  0  0  0  0  0  0  0  0  0
  139.0203   73.7118  221.7367 H   0  0  0  0  0  0  0  0  0  0  0  0
  138.7849   70.7164  221.1709 H   0  0  0  0  0  0  0  0  0  0  0  0
  138.6036   68.6717  222.5488 H   0  0  0  0  0  0  0  0  0  0  0  0
  139.4764   68.6215  224.9041 H   0  0  0  0  0  0  0  0  0  0  0  0
  139.9552   68.8662  226.7914 H   0  0  0  0  0  0  0  0  0  0  0  0
  141.6328   69.1615  227.1576 H   0  0  0  0  0  0  0  0  0  0  0  0
  139.1187   70.3746  228.4260 H   0  0  0  0  0  0  0  0  0  0  0  0
  140.6241   69.9656  229.2384 H   0  0  0  0  0  0  0  0  0  0  0  0
  139.8300   72.5082  228.1723 H   0  0  0  0  0  0  0  0  0  0  0  0
  141.4137   72.1063  228.8689 H   0  0  0  0  0  0  0  0  0  0  0  0
  141.0356   72.8024  226.2101 H   0  0  0  0  0  0  0  0  0  0  0  0
  142.3831   71.8180  226.7168 H   0  0  0  0  0  0  0  0  0  0  0  0
  141.6293   73.3265  219.1162 H   0  0  0  0  0  0  0  0  0  0  0  0
  142.3648   74.6455  218.0504 H   0  0  0  0  0  0  0  0  0  0  0  0
  144.2145   73.7095  218.2890 H   0  0  0  0  0  0  0  0  0  0  0  0
  143.3242   72.1278  220.7933 H   0  0  0  0  0  0  0  0  0  0  0  0
  143.0353   71.5478  219.1395 H   0  0  0  0  0  0  0  0  0  0  0  0
  145.2654   70.9850  220.5306 H   0  0  0  0  0  0  0  0  0  0  0  0
  145.2349   71.2146  218.7125 H   0  0  0  0  0  0  0  0  0  0  0  0
  147.0280   72.3780  220.0920 H   0  0  0  0  0  0  0  0  0  0  0  0
  145.6107   73.2770  221.7369 H   0  0  0  0  0  0  0  0  0  0  0  0
  146.4966   74.5170  220.7536 H   0  0  0  0  0  0  0  0  0  0  0  0
  143.7515   74.4291  221.2584 H   0  0  0  0  0  0  0  0  0  0  0  0
  144.6112   75.4212  220.0181 H   0  0  0  0  0  0  0  0  0  0  0  0
  1  2  2  0
  2  3  1  0
  3  4  2  0
  4  5  1  0
  5  6  2  0
  6  7  1  0
  6  8  1  0
  8  9  2  0
  9 10  1  0
 10 11  2  0
 11 12  1  0
 12 13  2  0
 13 14  1  0
 14 15  2  0
 15 16  1  0
 16 17  2  0
 17 18  1  0
 18 19  1  0
 19 20  1  0
 20 21  1  0
 21 22  1  0
 22 23  1  0
 18 24  2  0
 11 25  1  0
 25 26  1  0
 26 27  1  0
 27 28  1  0
 28 29  1  0
 29 30  1  0
 30 31  1  0
 31 32  1  0
 25  2  1  0
 32 27  1  0
  9  3  1  0
 24 14  1  0
 23 19  1  0
  4 33  1  0
  5 34  1  0
  8 35  1  0
 12 36  1  0
 13 37  1  0
 15 38  1  0
 16 39  1  0
 17 40  1  0
 20 41  1  0
 20 42  1  0
 21 43  1  0
 21 44  1  0
 22 45  1  0
 22 46  1  0
 23 47  1  0
 23 48  1  0
 26 49  1  0
 26 50  1  0
 27 51  1  0
 28 52  1  0
 28 53  1  0
 29 54  1  0
 29 55  1  0
 30 56  1  0
 31 57  1  0
 31 58  1  0
 32 59  1  0
 32 60  1  0
M  END
>  <smiles>  (42) 
O=c1c2ccc(Cl)cc2nc(/C=C/c2cccc(N3CCCC3)n2)n1CC1CCNCC1

>  <score_type>  (42) 
oracle

>  <origin>  (42) 
autodockgpu

>  <m_score__min__energy>  (42) 
-9.3200000000000003

>  <m_primary>  (42) 
energy

>  <rmsd>  (42) 
4.883781246015377

>  <m_score__min__rmsd>  (42) 
4.883781246015377

>  <meeko>  (42) 
{"free_energy": -9.24, "intermolecular_energy": -11.03, "internal_energy": -1.42, "cluster_size": 23, "cluster_id": 1, "rank_in_cluster": 3}

>  <energy>  (42) 
-7.13

>  <cluster_rmsd>  (42) 
0.0

>  <cluster>  (42) 
8

$$$$

     RDKit          3D

 60 64  0  0  0  0  0  0  0  0999 V2000
  142.7370   77.0800  218.9730 O   0  0  0  0  0  0  0  0  0  0  0  0
  142.1060   76.6750  219.9900 C   0  0  0  0  0  0  0  0  0  0  0  0
  141.6110   77.6680  220.8220 C   0  0  0  0  0  0  0  0  0  0  0  0
  141.8090   78.9980  220.5310 C   0  0  0  0  0  0  0  0  0  0  0  0
  141.3020   79.9720  221.3830 C   0  0  0  0  0  0  0  0  0  0  0  0
  140.5970   79.5730  222.5210 C   0  0  0  0  0  0  0  0  0  0  0  0
  139.9500   80.8000  223.6040 Cl  0  0  0  0  0  0  0  0  0  0  0  0
  140.4200   78.2190  222.7730 C   0  0  0  0  0  0  0  0  0  0  0  0
  140.9180   77.2470  221.9370 C   0  0  0  0  0  0  0  0  0  0  0  0
  140.7290   75.9460  222.2120 N   0  0  0  0  0  0  0  0  0  0  0  0
  141.2330   75.0280  221.3690 C   0  0  0  0  0  0  0  0  0  0  0  0
  140.9840   73.6210  221.7330 C   0  0  0  0  0  0  0  0  0  0  0  0
  139.7610   73.1470  221.6780 C   0  0  0  0  0  0  0  0  0  0  0  0
  139.3330   72.1290  222.6410 C   0  0  0  0  0  0  0  0  0  0  0  0
  138.2010   71.3630  222.4620 C   0  0  0  0  0  0  0  0  0  0  0  0
  137.8460   70.4140  223.4100 C   0  0  0  0  0  0  0  0  0  0  0  0
  138.6070   70.2050  224.5570 C   0  0  0  0  0  0  0  0  0  0  0  0
  139.7290   70.9960  224.6900 C   0  0  0  0  0  0  0  0  0  0  0  0
  140.5590   70.8450  225.8340 N   0  0  0  0  0  0  0  0  0  0  0  0
  140.8780   69.6320  226.5480 C   0  0  0  0  0  0  0  0  0  0  0  0
  140.7230   70.0790  228.0050 C   0  0  0  0  0  0  0  0  0  0  0  0
  141.0380   71.5380  227.9770 C   0  0  0  0  0  0  0  0  0  0  0  0
  141.2700   71.9040  226.5300 C   0  0  0  0  0  0  0  0  0  0  0  0
  140.0500   71.9080  223.7560 N   0  0  0  0  0  0  0  0  0  0  0  0
  141.9240   75.3580  220.2510 N   0  0  0  0  0  0  0  0  0  0  0  0
  142.4490   74.3450  219.3940 C   0  0  0  0  0  0  0  0  0  0  0  0
  143.6320   73.5960  219.9060 C   0  0  0  0  0  0  0  0  0  0  0  0
  144.7580   74.5280  220.3830 C   0  0  0  0  0  0  0  0  0  0  0  0
  145.7540   73.6710  221.0900 C   0  0  0  0  0  0  0  0  0  0  0  0
  145.7560   72.2940  220.6670 N   0  0  0  0  0  0  0  0  0  0  0  0
  145.5750   72.1740  219.2380 C   0  0  0  0  0  0  0  0  0  0  0  0
  144.2650   72.7800  218.7860 C   0  0  0  0  0  0  0  0  0  0  0  0
  142.3660   79.2891  219.6282 H   0  0  0  0  0  0  0  0  0  0  0  0
  141.4534   81.0395  221.1648 H   0  0  0  0  0  0  0  0  0  0  0  0
  139.8630   77.9136  223.6711 H   0  0  0  0  0  0  0  0  0  0  0  0
  141.8160   72.9740  222.0480 H   0  0  0  0  0  0  0  0  0  0  0  0
  139.0607   73.5124  220.9124 H   0  0  0  0  0  0  0  0  0  0  0  0
  137.5782   71.5043  221.5663 H   0  0  0  0  0  0  0  0  0  0  0  0
  136.9397   69.8111  223.2512 H   0  0  0  0  0  0  0  0  0  0  0  0
  138.3301   69.4542  225.3117 H   0  0  0  0  0  0  0  0  0  0  0  0
  140.1745   68.8237  226.2996 H   0  0  0  0  0  0  0  0  0  0  0  0
  141.8706   69.2218  226.3101 H   0  0  0  0  0  0  0  0  0  0  0  0
  139.6952   69.9087  228.3579 H   0  0  0  0  0  0  0  0  0  0  0  0
  141.3786   69.5199  228.6888 H   0  0  0  0  0  0  0  0  0  0  0  0
  140.1949   72.1158  228.3838 H   0  0  0  0  0  0  0  0  0  0  0  0
  141.9236   71.7635  228.5892 H   0  0  0  0  0  0  0  0  0  0  0  0
  140.8467   72.8916  226.2945 H   0  0  0  0  0  0  0  0  0  0  0  0
  142.3327   71.9798  226.2561 H   0  0  0  0  0  0  0  0  0  0  0  0
  141.6468   73.6164  219.2053 H   0  0  0  0  0  0  0  0  0  0  0  0
  142.8020   74.8736  218.4962 H   0  0  0  0  0  0  0  0  0  0  0  0
  143.2506   72.9792  220.7331 H   0  0  0  0  0  0  0  0  0  0  0  0
  145.2289   75.0249  219.5220 H   0  0  0  0  0  0  0  0  0  0  0  0
  144.3673   75.3117  221.0487 H   0  0  0  0  0  0  0  0  0  0  0  0
  146.7561   74.0880  220.9112 H   0  0  0  0  0  0  0  0  0  0  0  0
  145.4739   73.6738  222.1537 H   0  0  0  0  0  0  0  0  0  0  0  0
  146.6450   71.8020  220.8900 H   0  0  0  0  0  0  0  0  0  0  0  0
  146.4014   72.6921  218.7295 H   0  0  0  0  0  0  0  0  0  0  0  0
  145.5633   71.1040  218.9830 H   0  0  0  0  0  0  0  0  0  0  0  0
  144.4498   73.4355  217.9222 H   0  0  0  0  0  0  0  0  0  0  0  0
  143.5772   71.9674  218.5094 H   0  0  0  0  0  0  0  0  0  0  0  0
  1  2  2  0
  2  3  1  0
  3  4  2  0
  4  5  1  0
  5  6  2  0
  6  7  1  0
  6  8  1  0
  8  9  2  0
  9 10  1  0
 10 11  2  0
 11 12  1  0
 12 13  2  0
 13 14  1  0
 14 15  2  0
 15 16  1  0
 16 17  2  0
 17 18  1  0
 18 19  1  0
 19 20  1  0
 20 21  1  0
 21 22  1  0
 22 23  1  0
 18 24  2  0
 11 25  1  0
 25 26  1  0
 26 27  1  0
 27 28  1  0
 28 29  1  0
 29 30  1  0
 30 31  1  0
 31 32  1  0
 25  2  1  0
 32 27  1  0
  9  3  1  0
 24 14  1  0
 23 19  1  0
  4 33  1  0
  5 34  1  0
  8 35  1  0
 12 36  1  0
 13 37  1  0
 15 38  1  0
 16 39  1  0
 17 40  1  0
 20 41  1  0
 20 42  1  0
 21 43  1  0
 21 44  1  0
 22 45  1  0
 22 46  1  0
 23 47  1  0
 23 48  1  0
 26 49  1  0
 26 50  1  0
 27 51  1  0
 28 52  1  0
 28 53  1  0
 29 54  1  0
 29 55  1  0
 30 56  1  0
 31 57  1  0
 31 58  1  0
 32 59  1  0
 32 60  1  0
M  END
>  <smiles>  (43) 
O=c1c2ccc(Cl)cc2nc(/C=C/c2cccc(N3CCCC3)n2)n1CC1CCNCC1

>  <score_type>  (43) 
oracle

>  <origin>  (43) 
autodockgpu

>  <m_score__min__energy>  (43) 
-9.3200000000000003

>  <m_primary>  (43) 
energy

>  <rmsd>  (43) 
4.559929535287502

>  <m_score__min__rmsd>  (43) 
4.559929535287502

>  <meeko>  (43) 
{"free_energy": -9.24, "intermolecular_energy": -11.03, "internal_energy": -1.36, "cluster_size": 23, "cluster_id": 1, "rank_in_cluster": 4}

>  <energy>  (43) 
-6.16

>  <cluster_rmsd>  (43) 
0.0

>  <cluster>  (43) 
9

$$$$

     RDKit          3D

 60 64  0  0  0  0  0  0  0  0999 V2000
  135.7920   77.0000  223.0660 O   0  0  0  0  0  0  0  0  0  0  0  0
  135.6360   75.7770  223.3410 C   0  0  0  0  0  0  0  0  0  0  0  0
  134.8030   75.5070  224.4160 C   0  0  0  0  0  0  0  0  0  0  0  0
  134.2010   76.5260  225.1180 C   0  0  0  0  0  0  0  0  0  0  0  0
  133.3710   76.2260  226.1910 C   0  0  0  0  0  0  0  0  0  0  0  0
  133.1670   74.8880  226.5350 C   0  0  0  0  0  0  0  0  0  0  0  0
  132.1170   74.5000  227.8920 Cl  0  0  0  0  0  0  0  0  0  0  0  0
  133.7950   73.8920  225.7980 C   0  0  0  0  0  0  0  0  0  0  0  0
  134.6190   74.1780  224.7330 C   0  0  0  0  0  0  0  0  0  0  0  0
  135.2110   73.1890  224.0430 N   0  0  0  0  0  0  0  0  0  0  0  0
  136.0080   73.5110  223.0090 C   0  0  0  0  0  0  0  0  0  0  0  0
  136.6210   72.3770  222.2970 C   0  0  0  0  0  0  0  0  0  0  0  0
  136.9670   71.3030  222.9690 C   0  0  0  0  0  0  0  0  0  0  0  0
  138.3010   71.2200  223.5690 C   0  0  0  0  0  0  0  0  0  0  0  0
  139.3920   71.8880  223.0530 C   0  0  0  0  0  0  0  0  0  0  0  0
  140.6320   71.7700  223.6650 C   0  0  0  0  0  0  0  0  0  0  0  0
  140.8170   70.9870  224.8010 C   0  0  0  0  0  0  0  0  0  0  0  0
  139.6950   70.3410  225.2780 C   0  0  0  0  0  0  0  0  0  0  0  0
  139.8010   69.5210  226.4340 N   0  0  0  0  0  0  0  0  0  0  0  0
  139.8980   69.9350  227.8130 C   0  0  0  0  0  0  0  0  0  0  0  0
  141.0100   69.0200  228.3350 C   0  0  0  0  0  0  0  0  0  0  0  0
  140.9090   67.7970  227.4850 C   0  0  0  0  0  0  0  0  0  0  0  0
  139.8310   68.0680  226.4610 C   0  0  0  0  0  0  0  0  0  0  0  0
  138.5060   70.4720  224.6650 N   0  0  0  0  0  0  0  0  0  0  0  0
  136.2410   74.7930  222.6320 N   0  0  0  0  0  0  0  0  0  0  0  0
  137.1060   75.0830  221.5350 C   0  0  0  0  0  0  0  0  0  0  0  0
  138.5300   75.3620  221.8740 C   0  0  0  0  0  0  0  0  0  0  0  0
  138.9010   76.8420  221.6900 C   0  0  0  0  0  0  0  0  0  0  0  0
  140.2540   77.0250  222.2940 C   0  0  0  0  0  0  0  0  0  0  0  0
  141.0530   75.8270  222.3270 N   0  0  0  0  0  0  0  0  0  0  0  0
  140.8920   75.0440  221.1230 C   0  0  0  0  0  0  0  0  0  0  0  0
  139.4550   74.6180  220.9200 C   0  0  0  0  0  0  0  0  0  0  0  0
  134.3761   77.5733  224.8309 H   0  0  0  0  0  0  0  0  0  0  0  0
  132.8821   77.0300  226.7608 H   0  0  0  0  0  0  0  0  0  0  0  0
  133.6284   72.8404  226.0744 H   0  0  0  0  0  0  0  0  0  0  0  0
  136.7878   72.4291  221.2110 H   0  0  0  0  0  0  0  0  0  0  0  0
  136.2582   70.4693  223.0809 H   0  0  0  0  0  0  0  0  0  0  0  0
  139.2791   72.5146  222.1560 H   0  0  0  0  0  0  0  0  0  0  0  0
  141.4917   72.3096  223.2410 H   0  0  0  0  0  0  0  0  0  0  0  0
  141.7981   70.8892  225.2887 H   0  0  0  0  0  0  0  0  0  0  0  0
  140.1799   70.9951  227.8944 H   0  0  0  0  0  0  0  0  0  0  0  0
  138.9537   69.8529  228.3711 H   0  0  0  0  0  0  0  0  0  0  0  0
  141.9944   69.4965  228.2172 H   0  0  0  0  0  0  0  0  0  0  0  0
  140.9032   68.7974  229.4069 H   0  0  0  0  0  0  0  0  0  0  0  0
  141.8686   67.6037  226.9832 H   0  0  0  0  0  0  0  0  0  0  0  0
  140.6652   66.9124  228.0917 H   0  0  0  0  0  0  0  0  0  0  0  0
  140.1005   67.6551  225.4777 H   0  0  0  0  0  0  0  0  0  0  0  0
  138.8617   67.6080  226.7039 H   0  0  0  0  0  0  0  0  0  0  0  0
  137.0864   74.2187  220.8549 H   0  0  0  0  0  0  0  0  0  0  0  0
  136.7207   76.0149  221.0956 H   0  0  0  0  0  0  0  0  0  0  0  0
  138.6451   75.0524  222.9232 H   0  0  0  0  0  0  0  0  0  0  0  0
  138.9263   77.0960  220.6200 H   0  0  0  0  0  0  0  0  0  0  0  0
  138.1611   77.4976  222.1724 H   0  0  0  0  0  0  0  0  0  0  0  0
  140.7936   77.7835  221.7079 H   0  0  0  0  0  0  0  0  0  0  0  0
  140.0950   77.3277  223.3395 H   0  0  0  0  0  0  0  0  0  0  0  0
  142.0720   76.0210  222.4140 H   0  0  0  0  0  0  0  0  0  0  0  0
  141.2100   75.6476  220.2602 H   0  0  0  0  0  0  0  0  0  0  0  0
  141.5078   74.1376  221.2188 H   0  0  0  0  0  0  0  0  0  0  0  0
  139.1568   74.8374  219.8842 H   0  0  0  0  0  0  0  0  0  0  0  0
  139.3754   73.5395  221.1213 H   0  0  0  0  0  0  0  0  0  0  0  0
  1  2  2  0
  2  3  1  0
  3  4  2  0
  4  5  1  0
  5  6  2  0
  6  7  1  0
  6  8  1  0
  8  9  2  0
  9 10  1  0
 10 11  2  0
 11 12  1  0
 12 13  2  0
 13 14  1  0
 14 15  2  0
 15 16  1  0
 16 17  2  0
 17 18  1  0
 18 19  1  0
 19 20  1  0
 20 21  1  0
 21 22  1  0
 22 23  1  0
 18 24  2  0
 11 25  1  0
 25 26  1  0
 26 27  1  0
 27 28  1  0
 28 29  1  0
 29 30  1  0
 30 31  1  0
 31 32  1  0
 25  2  1  0
 32 27  1  0
  9  3  1  0
 24 14  1  0
 23 19  1  0
  4 33  1  0
  5 34  1  0
  8 35  1  0
 12 36  1  0
 13 37  1  0
 15 38  1  0
 16 39  1  0
 17 40  1  0
 20 41  1  0
 20 42  1  0
 21 43  1  0
 21 44  1  0
 22 45  1  0
 22 46  1  0
 23 47  1  0
 23 48  1  0
 26 49  1  0
 26 50  1  0
 27 51  1  0
 28 52  1  0
 28 53  1  0
 29 54  1  0
 29 55  1  0
 30 56  1  0
 31 57  1  0
 31 58  1  0
 32 59  1  0
 32 60  1  0
M  END
>  <smiles>  (44) 
O=c1c2ccc(Cl)cc2nc(/C=C/c2cccc(N3CCCC3)n2)n1CC1CCNCC1

>  <score_type>  (44) 
oracle

>  <origin>  (44) 
autodockgpu

>  <m_score__min__energy>  (44) 
-9.3200000000000003

>  <m_primary>  (44) 
energy

>  <rmsd>  (44) 
7.925561868355893

>  <m_score__min__rmsd>  (44) 
7.925561868355893

>  <meeko>  (44) 
{"free_energy": -7.89, "intermolecular_energy": -9.68, "internal_energy": -1.78, "cluster_size": 2, "cluster_id": 5, "rank_in_cluster": 2}

>  <energy>  (44) 
-6.14

>  <cluster_rmsd>  (44) 
0.09

>  <cluster>  (44) 
9

$$$$

     RDKit          3D

 60 64  0  0  0  0  0  0  0  0999 V2000
  137.9160   82.2760  221.9210 O   0  0  0  0  0  0  0  0  0  0  0  0
  137.2920   81.3390  222.4930 C   0  0  0  0  0  0  0  0  0  0  0  0
  136.8290   81.6200  223.7700 C   0  0  0  0  0  0  0  0  0  0  0  0
  137.0510   82.8490  224.3480 C   0  0  0  0  0  0  0  0  0  0  0  0
  136.5760   83.1030  225.6290 C   0  0  0  0  0  0  0  0  0  0  0  0
  135.8800   82.0970  226.3030 C   0  0  0  0  0  0  0  0  0  0  0  0
  135.2750   82.4110  227.9250 Cl  0  0  0  0  0  0  0  0  0  0  0  0
  135.6790   80.8720  225.6800 C   0  0  0  0  0  0  0  0  0  0  0  0
  136.1450   80.6100  224.4120 C   0  0  0  0  0  0  0  0  0  0  0  0
  135.9330   79.4130  223.8400 N   0  0  0  0  0  0  0  0  0  0  0  0
  136.4050   79.1980  222.6000 C   0  0  0  0  0  0  0  0  0  0  0  0
  136.1340   77.8650  222.0340 C   0  0  0  0  0  0  0  0  0  0  0  0
  136.7940   76.8250  222.4880 C   0  0  0  0  0  0  0  0  0  0  0  0
  138.2590   76.8160  222.4370 C   0  0  0  0  0  0  0  0  0  0  0  0
  138.9810   75.7460  221.9520 C   0  0  0  0  0  0  0  0  0  0  0  0
  140.3680   75.7960  221.9290 C   0  0  0  0  0  0  0  0  0  0  0  0
  141.0680   76.9100  222.3850 C   0  0  0  0  0  0  0  0  0  0  0  0
  140.3000   77.9530  222.8600 C   0  0  0  0  0  0  0  0  0  0  0  0
  140.9390   79.1260  223.3450 N   0  0  0  0  0  0  0  0  0  0  0  0
  140.3260   80.3450  223.8140 C   0  0  0  0  0  0  0  0  0  0  0  0
  141.1900   81.4110  223.1310 C   0  0  0  0  0  0  0  0  0  0  0  0
  142.5230   80.7560  222.9730 C   0  0  0  0  0  0  0  0  0  0  0  0
  142.3720   79.3380  223.4710 C   0  0  0  0  0  0  0  0  0  0  0  0
  138.9580   77.8780  222.8710 N   0  0  0  0  0  0  0  0  0  0  0  0
  137.0870   80.1380  221.9000 N   0  0  0  0  0  0  0  0  0  0  0  0
  137.5780   79.8560  220.5900 C   0  0  0  0  0  0  0  0  0  0  0  0
  139.0520   79.6720  220.4650 C   0  0  0  0  0  0  0  0  0  0  0  0
  139.7340   80.8500  219.7510 C   0  0  0  0  0  0  0  0  0  0  0  0
  141.2050   80.6580  219.9160 C   0  0  0  0  0  0  0  0  0  0  0  0
  141.6050   79.2880  220.1150 N   0  0  0  0  0  0  0  0  0  0  0  0
  140.8400   78.3840  219.2870 C   0  0  0  0  0  0  0  0  0  0  0  0
  139.3600   78.4660  219.5850 C   0  0  0  0  0  0  0  0  0  0  0  0
  137.6018   83.6266  223.7986 H   0  0  0  0  0  0  0  0  0  0  0  0
  136.7454   84.0804  226.1044 H   0  0  0  0  0  0  0  0  0  0  0  0
  135.1293   80.0855  226.2178 H   0  0  0  0  0  0  0  0  0  0  0  0
  135.3850   77.7423  221.2378 H   0  0  0  0  0  0  0  0  0  0  0  0
  136.2503   75.9644  222.9047 H   0  0  0  0  0  0  0  0  0  0  0  0
  138.4573   74.8519  221.5829 H   0  0  0  0  0  0  0  0  0  0  0  0
  140.9288   74.9331  221.5404 H   0  0  0  0  0  0  0  0  0  0  0  0
  142.1669   76.9557  222.3675 H   0  0  0  0  0  0  0  0  0  0  0  0
  139.2759   80.4146  223.4938 H   0  0  0  0  0  0  0  0  0  0  0  0
  140.2910   80.4339  224.9098 H   0  0  0  0  0  0  0  0  0  0  0  0
  140.7709   81.6840  222.1513 H   0  0  0  0  0  0  0  0  0  0  0  0
  141.2450   82.3440  223.7111 H   0  0  0  0  0  0  0  0  0  0  0  0
  142.8223   80.7561  221.9145 H   0  0  0  0  0  0  0  0  0  0  0  0
  143.2976   81.2938  223.5395 H   0  0  0  0  0  0  0  0  0  0  0  0
  142.9373   78.6319  222.8450 H   0  0  0  0  0  0  0  0  0  0  0  0
  142.7562   79.1818  224.4898 H   0  0  0  0  0  0  0  0  0  0  0  0
  137.0937   78.9317  220.2418 H   0  0  0  0  0  0  0  0  0  0  0  0
  137.3404   80.7460  219.9887 H   0  0  0  0  0  0  0  0  0  0  0  0
  139.4211   79.5658  221.4958 H   0  0  0  0  0  0  0  0  0  0  0  0
  139.4692   80.8509  218.6834 H   0  0  0  0  0  0  0  0  0  0  0  0
  139.4103   81.8114  220.1763 H   0  0  0  0  0  0  0  0  0  0  0  0
  141.7053   81.0352  219.0119 H   0  0  0  0  0  0  0  0  0  0  0  0
  141.4945   81.2061  220.8247 H   0  0  0  0  0  0  0  0  0  0  0  0
  142.6050   79.1190  219.8840 H   0  0  0  0  0  0  0  0  0  0  0  0
  141.0054   78.6425  218.2307 H   0  0  0  0  0  0  0  0  0  0  0  0
  141.1754   77.3583  219.5002 H   0  0  0  0  0  0  0  0  0  0  0  0
  138.8061   78.5586  218.6392 H   0  0  0  0  0  0  0  0  0  0  0  0
  139.0562   77.5531  220.1183 H   0  0  0  0  0  0  0  0  0  0  0  0
  1  2  2  0
  2  3  1  0
  3  4  2  0
  4  5  1  0
  5  6  2  0
  6  7  1  0
  6  8  1  0
  8  9  2  0
  9 10  1  0
 10 11  2  0
 11 12  1  0
 12 13  2  0
 13 14  1  0
 14 15  2  0
 15 16  1  0
 16 17  2  0
 17 18  1  0
 18 19  1  0
 19 20  1  0
 20 21  1  0
 21 22  1  0
 22 23  1  0
 18 24  2  0
 11 25  1  0
 25 26  1  0
 26 27  1  0
 27 28  1  0
 28 29  1  0
 29 30  1  0
 30 31  1  0
 31 32  1  0
 25  2  1  0
 32 27  1  0
  9  3  1  0
 24 14  1  0
 23 19  1  0
  4 33  1  0
  5 34  1  0
  8 35  1  0
 12 36  1  0
 13 37  1  0
 15 38  1  0
 16 39  1  0
 17 40  1  0
 20 41  1  0
 20 42  1  0
 21 43  1  0
 21 44  1  0
 22 45  1  0
 22 46  1  0
 23 47  1  0
 23 48  1  0
 26 49  1  0
 26 50  1  0
 27 51  1  0
 28 52  1  0
 28 53  1  0
 29 54  1  0
 29 55  1  0
 30 56  1  0
 31 57  1  0
 31 58  1  0
 32 59  1  0
 32 60  1  0
M  END
>  <smiles>  (45) 
O=c1c2ccc(Cl)cc2nc(/C=C/c2cccc(N3CCCC3)n2)n1CC1CCNCC1

>  <score_type>  (45) 
oracle

>  <origin>  (45) 
autodockgpu

>  <m_score__min__energy>  (45) 
-9.3200000000000003

>  <m_primary>  (45) 
energy

>  <rmsd>  (45) 
5.213606222038691

>  <m_score__min__rmsd>  (45) 
5.213606222038691

>  <meeko>  (45) 
{"free_energy": -5.6, "intermolecular_energy": -7.39, "internal_energy": -3.51, "cluster_size": 1, "cluster_id": 10, "rank_in_cluster": 1}

>  <energy>  (45) 
-6.14

>  <cluster_rmsd>  (45) 
0.08

>  <cluster>  (45) 
9

$$$$

     RDKit          3D

 60 64  0  0  0  0  0  0  0  0999 V2000
  142.7770   77.2450  219.0080 O   0  0  0  0  0  0  0  0  0  0  0  0
  142.1280   76.7950  219.9940 C   0  0  0  0  0  0  0  0  0  0  0  0
  141.6130   77.7510  220.8570 C   0  0  0  0  0  0  0  0  0  0  0  0
  141.8140   79.0930  220.6270 C   0  0  0  0  0  0  0  0  0  0  0  0
  141.2870   80.0290  221.5100 C   0  0  0  0  0  0  0  0  0  0  0  0
  140.5610   79.5810  222.6160 C   0  0  0  0  0  0  0  0  0  0  0  0
  139.8900   80.7590  223.7370 Cl  0  0  0  0  0  0  0  0  0  0  0  0
  140.3840   78.2160  222.8070 C   0  0  0  0  0  0  0  0  0  0  0  0
  140.9010   77.2820  221.9400 C   0  0  0  0  0  0  0  0  0  0  0  0
  140.7100   75.9700  222.1560 N   0  0  0  0  0  0  0  0  0  0  0  0
  141.2330   75.0890  221.2850 C   0  0  0  0  0  0  0  0  0  0  0  0
  140.9820   73.6690  221.5840 C   0  0  0  0  0  0  0  0  0  0  0  0
  139.7960   73.2980  222.0080 C   0  0  0  0  0  0  0  0  0  0  0  0
  139.6490   72.0400  222.7460 C   0  0  0  0  0  0  0  0  0  0  0  0
  138.9870   70.9460  222.2280 C   0  0  0  0  0  0  0  0  0  0  0  0
  138.8810   69.7820  222.9750 C   0  0  0  0  0  0  0  0  0  0  0  0
  139.4270   69.6770  224.2520 C   0  0  0  0  0  0  0  0  0  0  0  0
  140.0780   70.7990  224.7230 C   0  0  0  0  0  0  0  0  0  0  0  0
  140.6630   70.7730  226.0180 N   0  0  0  0  0  0  0  0  0  0  0  0
  140.9410   69.6250  226.8470 C   0  0  0  0  0  0  0  0  0  0  0  0
  140.4450   70.1030  228.2160 C   0  0  0  0  0  0  0  0  0  0  0  0
  140.6190   71.5840  228.1730 C   0  0  0  0  0  0  0  0  0  0  0  0
  141.1100   71.9240  226.7850 C   0  0  0  0  0  0  0  0  0  0  0  0
  140.1670   71.9140  223.9780 N   0  0  0  0  0  0  0  0  0  0  0  0
  141.9450   75.4680  220.1960 N   0  0  0  0  0  0  0  0  0  0  0  0
  142.4900   74.4940  219.3060 C   0  0  0  0  0  0  0  0  0  0  0  0
  143.6210   73.6800  219.8340 C   0  0  0  0  0  0  0  0  0  0  0  0
  144.7270   74.5440  220.4610 C   0  0  0  0  0  0  0  0  0  0  0  0
  145.6570   73.6110  221.1610 C   0  0  0  0  0  0  0  0  0  0  0  0
  145.6650   72.2720  220.6280 N   0  0  0  0  0  0  0  0  0  0  0  0
  145.5800   72.2720  219.1850 C   0  0  0  0  0  0  0  0  0  0  0  0
  144.3160   72.9410  218.6970 C   0  0  0  0  0  0  0  0  0  0  0  0
  142.3886   79.4234  219.7491 H   0  0  0  0  0  0  0  0  0  0  0  0
  141.4394   81.1051  221.3402 H   0  0  0  0  0  0  0  0  0  0  0  0
  139.8114   77.8711  223.6806 H   0  0  0  0  0  0  0  0  0  0  0  0
  141.7817   72.9251  221.4532 H   0  0  0  0  0  0  0  0  0  0  0  0
  138.9165   73.9284  221.8103 H   0  0  0  0  0  0  0  0  0  0  0  0
  138.5433   70.9968  221.2227 H   0  0  0  0  0  0  0  0  0  0  0  0
  138.3512   68.9182  222.5471 H   0  0  0  0  0  0  0  0  0  0  0  0
  139.3444   68.7564  224.8484 H   0  0  0  0  0  0  0  0  0  0  0  0
  140.3845   68.7397  226.5056 H   0  0  0  0  0  0  0  0  0  0  0  0
  141.9957   69.3128  226.8382 H   0  0  0  0  0  0  0  0  0  0  0  0
  139.3872   69.8387  228.3615 H   0  0  0  0  0  0  0  0  0  0  0  0
  140.9944   69.6387  229.0482 H   0  0  0  0  0  0  0  0  0  0  0  0
  139.6590   72.0842  228.3685 H   0  0  0  0  0  0  0  0  0  0  0  0
  141.3335   71.9206  228.9387 H   0  0  0  0  0  0  0  0  0  0  0  0
  140.6522   72.8534  226.4152 H   0  0  0  0  0  0  0  0  0  0  0  0
  142.1941   72.1018  226.7284 H   0  0  0  0  0  0  0  0  0  0  0  0
  141.6804   73.8032  219.0280 H   0  0  0  0  0  0  0  0  0  0  0  0
  142.9068   75.0656  218.4636 H   0  0  0  0  0  0  0  0  0  0  0  0
  143.1720   73.0082  220.5804 H   0  0  0  0  0  0  0  0  0  0  0  0
  145.2649   75.0980  219.6776 H   0  0  0  0  0  0  0  0  0  0  0  0
  144.3044   75.2796  221.1612 H   0  0  0  0  0  0  0  0  0  0  0  0
  146.6759   74.0184  221.0847 H   0  0  0  0  0  0  0  0  0  0  0  0
  145.3042   73.5347  222.2001 H   0  0  0  0  0  0  0  0  0  0  0  0
  146.5270   71.7430  220.8700 H   0  0  0  0  0  0  0  0  0  0  0  0
  146.4481   72.8107  218.7773 H   0  0  0  0  0  0  0  0  0  0  0  0
  145.5671   71.2265  218.8434 H   0  0  0  0  0  0  0  0  0  0  0  0
  144.5711   73.6586  217.9033 H   0  0  0  0  0  0  0  0  0  0  0  0
  143.6350   72.1685  218.3105 H   0  0  0  0  0  0  0  0  0  0  0  0
  1  2  2  0
  2  3  1  0
  3  4  2  0
  4  5  1  0
  5  6  2  0
  6  7  1  0
  6  8  1  0
  8  9  2  0
  9 10  1  0
 10 11  2  0
 11 12  1  0
 12 13  2  0
 13 14  1  0
 14 15  2  0
 15 16  1  0
 16 17  2  0
 17 18  1  0
 18 19  1  0
 19 20  1  0
 20 21  1  0
 21 22  1  0
 22 23  1  0
 18 24  2  0
 11 25  1  0
 25 26  1  0
 26 27  1  0
 27 28  1  0
 28 29  1  0
 29 30  1  0
 30 31  1  0
 31 32  1  0
 25  2  1  0
 32 27  1  0
  9  3  1  0
 24 14  1  0
 23 19  1  0
  4 33  1  0
  5 34  1  0
  8 35  1  0
 12 36  1  0
 13 37  1  0
 15 38  1  0
 16 39  1  0
 17 40  1  0
 20 41  1  0
 20 42  1  0
 21 43  1  0
 21 44  1  0
 22 45  1  0
 22 46  1  0
 23 47  1  0
 23 48  1  0
 26 49  1  0
 26 50  1  0
 27 51  1  0
 28 52  1  0
 28 53  1  0
 29 54  1  0
 29 55  1  0
 30 56  1  0
 31 57  1  0
 31 58  1  0
 32 59  1  0
 32 60  1  0
M  END
>  <smiles>  (46) 
O=c1c2ccc(Cl)cc2nc(/C=C/c2cccc(N3CCCC3)n2)n1CC1CCNCC1

>  <score_type>  (46) 
oracle

>  <origin>  (46) 
autodockgpu

>  <m_score__min__energy>  (46) 
-9.3200000000000003

>  <m_primary>  (46) 
energy

>  <rmsd>  (46) 
4.546314930750876

>  <m_score__min__rmsd>  (46) 
4.546314930750876

>  <meeko>  (46) 
{"free_energy": -9.32, "intermolecular_energy": -11.11, "internal_energy": -1.34, "cluster_size": 23, "cluster_id": 1, "rank_in_cluster": 2}

>  <energy>  (46) 
-6.13

>  <cluster_rmsd>  (46) 
0.07

>  <cluster>  (46) 
9

$$$$

     RDKit          3D

 60 64  0  0  0  0  0  0  0  0999 V2000
  137.4990   78.1070  222.7260 O   0  0  0  0  0  0  0  0  0  0  0  0
  138.7550   78.0380  222.8380 C   0  0  0  0  0  0  0  0  0  0  0  0
  139.3370   76.8810  222.3410 C   0  0  0  0  0  0  0  0  0  0  0  0
  138.5690   75.8930  221.7680 C   0  0  0  0  0  0  0  0  0  0  0  0
  139.1780   74.7440  221.2780 C   0  0  0  0  0  0  0  0  0  0  0  0
  140.5660   74.6200  221.3790 C   0  0  0  0  0  0  0  0  0  0  0  0
  141.3460   73.1690  220.7610 Cl  0  0  0  0  0  0  0  0  0  0  0  0
  141.3010   75.6430  221.9650 C   0  0  0  0  0  0  0  0  0  0  0  0
  140.7070   76.7840  222.4530 C   0  0  0  0  0  0  0  0  0  0  0  0
  141.4490   77.7540  223.0130 N   0  0  0  0  0  0  0  0  0  0  0  0
  140.8300   78.8530  223.4780 C   0  0  0  0  0  0  0  0  0  0  0  0
  141.7060   79.8750  224.0770 C   0  0  0  0  0  0  0  0  0  0  0  0
  142.4890   80.5890  223.3010 C   0  0  0  0  0  0  0  0  0  0  0  0
  142.1060   80.8270  221.9070 C   0  0  0  0  0  0  0  0  0  0  0  0
  141.7750   82.0780  221.4290 C   0  0  0  0  0  0  0  0  0  0  0  0
  141.4210   82.2410  220.0970 C   0  0  0  0  0  0  0  0  0  0  0  0
  141.3880   81.1680  219.2110 C   0  0  0  0  0  0  0  0  0  0  0  0
  141.7280   79.9390  219.7380 C   0  0  0  0  0  0  0  0  0  0  0  0
  141.7180   78.7930  218.8980 N   0  0  0  0  0  0  0  0  0  0  0  0
  140.9360   77.5890  219.0450 C   0  0  0  0  0  0  0  0  0  0  0  0
  141.9800   76.5030  218.7620 C   0  0  0  0  0  0  0  0  0  0  0  0
  142.9530   77.1620  217.8420 C   0  0  0  0  0  0  0  0  0  0  0  0
  142.5090   78.5980  217.6940 C   0  0  0  0  0  0  0  0  0  0  0  0
  142.0670   79.8090  221.0320 N   0  0  0  0  0  0  0  0  0  0  0  0
  139.4870   79.0260  223.4060 N   0  0  0  0  0  0  0  0  0  0  0  0
  138.8760   80.2070  223.9250 C   0  0  0  0  0  0  0  0  0  0  0  0
  138.6940   81.3310  222.9640 C   0  0  0  0  0  0  0  0  0  0  0  0
  137.3950   82.1150  223.2140 C   0  0  0  0  0  0  0  0  0  0  0  0
  137.4610   83.3390  222.3640 C   0  0  0  0  0  0  0  0  0  0  0  0
  138.2990   83.2060  221.1990 N   0  0  0  0  0  0  0  0  0  0  0  0
  138.1620   81.9020  220.5900 C   0  0  0  0  0  0  0  0  0  0  0  0
  138.5450   80.7950  221.5460 C   0  0  0  0  0  0  0  0  0  0  0  0
  137.4777   76.0124  221.6982 H   0  0  0  0  0  0  0  0  0  0  0  0
  138.5773   73.9454  220.8183 H   0  0  0  0  0  0  0  0  0  0  0  0
  142.3932   75.5373  222.0413 H   0  0  0  0  0  0  0  0  0  0  0  0
  141.7043   80.0387  225.1648 H   0  0  0  0  0  0  0  0  0  0  0  0
  143.4273   81.0060  223.6956 H   0  0  0  0  0  0  0  0  0  0  0  0
  141.7916   82.9466  222.1038 H   0  0  0  0  0  0  0  0  0  0  0  0
  141.1595   83.2451  219.7317 H   0  0  0  0  0  0  0  0  0  0  0  0
  141.1078   81.2923  218.1546 H   0  0  0  0  0  0  0  0  0  0  0  0
  140.5282   77.4976  220.0625 H   0  0  0  0  0  0  0  0  0  0  0  0
  140.0564   77.5450  218.3860 H   0  0  0  0  0  0  0  0  0  0  0  0
  142.4752   76.1860  219.6917 H   0  0  0  0  0  0  0  0  0  0  0  0
  141.5366   75.5953  218.3267 H   0  0  0  0  0  0  0  0  0  0  0  0
  143.9658   77.1208  218.2692 H   0  0  0  0  0  0  0  0  0  0  0  0
  142.9801   76.6545  216.8665 H   0  0  0  0  0  0  0  0  0  0  0  0
  143.3700   79.2821  217.6658 H   0  0  0  0  0  0  0  0  0  0  0  0
  141.9585   78.7993  216.7632 H   0  0  0  0  0  0  0  0  0  0  0  0
  137.8832   79.9300  224.3092 H   0  0  0  0  0  0  0  0  0  0  0  0
  139.5693   80.5844  224.6911 H   0  0  0  0  0  0  0  0  0  0  0  0
  139.5772   81.9731  223.0968 H   0  0  0  0  0  0  0  0  0  0  0  0
  136.5241   81.5048  222.9325 H   0  0  0  0  0  0  0  0  0  0  0  0
  137.2904   82.3775  224.2771 H   0  0  0  0  0  0  0  0  0  0  0  0
  136.4416   83.5818  222.0295 H   0  0  0  0  0  0  0  0  0  0  0  0
  137.9065   84.1305  222.9845 H   0  0  0  0  0  0  0  0  0  0  0  0
  138.0740   83.8990  220.4560 H   0  0  0  0  0  0  0  0  0  0  0  0
  137.1155   81.7607  220.2819 H   0  0  0  0  0  0  0  0  0  0  0  0
  138.8379   81.8557  219.7234 H   0  0  0  0  0  0  0  0  0  0  0  0
  137.7632   80.0213  221.5334 H   0  0  0  0  0  0  0  0  0  0  0  0
  139.5086   80.3715  221.2265 H   0  0  0  0  0  0  0  0  0  0  0  0
  1  2  2  0
  2  3  1  0
  3  4  2  0
  4  5  1  0
  5  6  2  0
  6  7  1  0
  6  8  1  0
  8  9  2  0
  9 10  1  0
 10 11  2  0
 11 12  1  0
 12 13  2  0
 13 14  1  0
 14 15  2  0
 15 16  1  0
 16 17  2  0
 17 18  1  0
 18 19  1  0
 19 20  1  0
 20 21  1  0
 21 22  1  0
 22 23  1  0
 18 24  2  0
 11 25  1  0
 25 26  1  0
 26 27  1  0
 27 28  1  0
 28 29  1  0
 29 30  1  0
 30 31  1  0
 31 32  1  0
 25  2  1  0
 32 27  1  0
  9  3  1  0
 24 14  1  0
 23 19  1  0
  4 33  1  0
  5 34  1  0
  8 35  1  0
 12 36  1  0
 13 37  1  0
 15 38  1  0
 16 39  1  0
 17 40  1  0
 20 41  1  0
 20 42  1  0
 21 43  1  0
 21 44  1  0
 22 45  1  0
 22 46  1  0
 23 47  1  0
 23 48  1  0
 26 49  1  0
 26 50  1  0
 27 51  1  0
 28 52  1  0
 28 53  1  0
 29 54  1  0
 29 55  1  0
 30 56  1  0
 31 57  1  0
 31 58  1  0
 32 59  1  0
 32 60  1  0
M  END
>  <smiles>  (47) 
O=c1c2ccc(Cl)cc2nc(/C=C/c2cccc(N3CCCC3)n2)n1CC1CCNCC1

>  <score_type>  (47) 
oracle

>  <origin>  (47) 
autodockgpu

>  <m_score__min__energy>  (47) 
-9.3200000000000003

>  <m_primary>  (47) 
energy

>  <rmsd>  (47) 
7.060269158516174

>  <m_score__min__rmsd>  (47) 
7.060269158516174

>  <meeko>  (47) 
{"free_energy": -6.14, "intermolecular_energy": -7.93, "internal_energy": -3.26, "cluster_size": 6, "cluster_id": 9, "rank_in_cluster": 2}

>  <energy>  (47) 
-6.12

>  <cluster_rmsd>  (47) 
0.2

>  <cluster>  (47) 
9

$$$$

     RDKit          3D

 60 64  0  0  0  0  0  0  0  0999 V2000
  137.4900   78.0490  222.7170 O   0  0  0  0  0  0  0  0  0  0  0  0
  138.7470   77.9840  222.8250 C   0  0  0  0  0  0  0  0  0  0  0  0
  139.3320   76.8340  222.3160 C   0  0  0  0  0  0  0  0  0  0  0  0
  138.5670   75.8480  221.7360 C   0  0  0  0  0  0  0  0  0  0  0  0
  139.1810   74.7070  221.2340 C   0  0  0  0  0  0  0  0  0  0  0  0
  140.5690   74.5870  221.3320 C   0  0  0  0  0  0  0  0  0  0  0  0
  141.3540   73.1460  220.6980 Cl  0  0  0  0  0  0  0  0  0  0  0  0
  141.3010   75.6080  221.9250 C   0  0  0  0  0  0  0  0  0  0  0  0
  140.7030   76.7430  222.4240 C   0  0  0  0  0  0  0  0  0  0  0  0
  141.4430   77.7100  222.9920 N   0  0  0  0  0  0  0  0  0  0  0  0
  140.8200   78.8020  223.4680 C   0  0  0  0  0  0  0  0  0  0  0  0
  141.6920   79.8230  224.0740 C   0  0  0  0  0  0  0  0  0  0  0  0
  142.4910   80.5280  223.3060 C   0  0  0  0  0  0  0  0  0  0  0  0
  142.1090   80.7990  221.9170 C   0  0  0  0  0  0  0  0  0  0  0  0
  141.7810   82.0600  221.4670 C   0  0  0  0  0  0  0  0  0  0  0  0
  141.4270   82.2540  220.1390 C   0  0  0  0  0  0  0  0  0  0  0  0
  141.3910   81.2010  219.2290 C   0  0  0  0  0  0  0  0  0  0  0  0
  141.7270   79.9600  219.7290 C   0  0  0  0  0  0  0  0  0  0  0  0
  141.7140   78.8320  218.8640 N   0  0  0  0  0  0  0  0  0  0  0  0
  140.8180   77.7010  218.8900 C   0  0  0  0  0  0  0  0  0  0  0  0
  141.7890   76.5310  218.7000 C   0  0  0  0  0  0  0  0  0  0  0  0
  142.9160   77.1140  217.9130 C   0  0  0  0  0  0  0  0  0  0  0  0
  142.6190   78.5860  217.7540 C   0  0  0  0  0  0  0  0  0  0  0  0
  142.0660   79.8000  221.0200 N   0  0  0  0  0  0  0  0  0  0  0  0
  139.4760   78.9700  223.4000 N   0  0  0  0  0  0  0  0  0  0  0  0
  138.8610   80.1440  223.9320 C   0  0  0  0  0  0  0  0  0  0  0  0
  138.6710   81.2750  222.9820 C   0  0  0  0  0  0  0  0  0  0  0  0
  137.3520   82.0290  223.2200 C   0  0  0  0  0  0  0  0  0  0  0  0
  137.4070   83.2650  222.3850 C   0  0  0  0  0  0  0  0  0  0  0  0
  138.2650   83.1630  221.2320 N   0  0  0  0  0  0  0  0  0  0  0  0
  138.1650   81.8640  220.6060 C   0  0  0  0  0  0  0  0  0  0  0  0
  138.5550   80.7530  221.5550 C   0  0  0  0  0  0  0  0  0  0  0  0
  137.4750   75.9625  221.6701 H   0  0  0  0  0  0  0  0  0  0  0  0
  138.5831   73.9107  220.7667 H   0  0  0  0  0  0  0  0  0  0  0  0
  142.3938   75.5062  221.9982 H   0  0  0  0  0  0  0  0  0  0  0  0
  141.6742   79.9935  225.1606 H   0  0  0  0  0  0  0  0  0  0  0  0
  143.4418   80.9130  223.7031 H   0  0  0  0  0  0  0  0  0  0  0  0
  141.7998   82.9133  222.1610 H   0  0  0  0  0  0  0  0  0  0  0  0
  141.1680   83.2667  219.7964 H   0  0  0  0  0  0  0  0  0  0  0  0
  141.1117   81.3495  218.1755 H   0  0  0  0  0  0  0  0  0  0  0  0
  140.2888   77.6307  219.8518 H   0  0  0  0  0  0  0  0  0  0  0  0
  140.0199   77.7461  218.1344 H   0  0  0  0  0  0  0  0  0  0  0  0
  142.1441   76.1571  219.6716 H   0  0  0  0  0  0  0  0  0  0  0  0
  141.3214   75.6734  218.1942 H   0  0  0  0  0  0  0  0  0  0  0  0
  143.8655   76.9748  218.4506 H   0  0  0  0  0  0  0  0  0  0  0  0
  143.0109   76.6217  216.9339 H   0  0  0  0  0  0  0  0  0  0  0  0
  143.5338   79.1904  217.8424 H   0  0  0  0  0  0  0  0  0  0  0  0
  142.1996   78.8508  216.7722 H   0  0  0  0  0  0  0  0  0  0  0  0
  137.8707   79.8590  224.3168 H   0  0  0  0  0  0  0  0  0  0  0  0
  139.5548   80.5177  224.6995 H   0  0  0  0  0  0  0  0  0  0  0  0
  139.5386   81.9333  223.1367 H   0  0  0  0  0  0  0  0  0  0  0  0
  136.4986   81.4046  222.9170 H   0  0  0  0  0  0  0  0  0  0  0  0
  137.2244   82.2762  224.2842 H   0  0  0  0  0  0  0  0  0  0  0  0
  136.3883   83.4918  222.0375 H   0  0  0  0  0  0  0  0  0  0  0  0
  137.8273   84.0573  223.0218 H   0  0  0  0  0  0  0  0  0  0  0  0
  138.0380   83.8600  220.4940 H   0  0  0  0  0  0  0  0  0  0  0  0
  137.1268   81.7051  220.2789 H   0  0  0  0  0  0  0  0  0  0  0  0
  138.8562   81.8420  219.7506 H   0  0  0  0  0  0  0  0  0  0  0  0
  137.7890   79.9642  221.5208 H   0  0  0  0  0  0  0  0  0  0  0  0
  139.5317   80.3524  221.2459 H   0  0  0  0  0  0  0  0  0  0  0  0
  1  2  2  0
  2  3  1  0
  3  4  2  0
  4  5  1  0
  5  6  2  0
  6  7  1  0
  6  8  1  0
  8  9  2  0
  9 10  1  0
 10 11  2  0
 11 12  1  0
 12 13  2  0
 13 14  1  0
 14 15  2  0
 15 16  1  0
 16 17  2  0
 17 18  1  0
 18 19  1  0
 19 20  1  0
 20 21  1  0
 21 22  1  0
 22 23  1  0
 18 24  2  0
 11 25  1  0
 25 26  1  0
 26 27  1  0
 27 28  1  0
 28 29  1  0
 29 30  1  0
 30 31  1  0
 31 32  1  0
 25  2  1  0
 32 27  1  0
  9  3  1  0
 24 14  1  0
 23 19  1  0
  4 33  1  0
  5 34  1  0
  8 35  1  0
 12 36  1  0
 13 37  1  0
 15 38  1  0
 16 39  1  0
 17 40  1  0
 20 41  1  0
 20 42  1  0
 21 43  1  0
 21 44  1  0
 22 45  1  0
 22 46  1  0
 23 47  1  0
 23 48  1  0
 26 49  1  0
 26 50  1  0
 27 51  1  0
 28 52  1  0
 28 53  1  0
 29 54  1  0
 29 55  1  0
 30 56  1  0
 31 57  1  0
 31 58  1  0
 32 59  1  0
 32 60  1  0
M  END
>  <smiles>  (48) 
O=c1c2ccc(Cl)cc2nc(/C=C/c2cccc(N3CCCC3)n2)n1CC1CCNCC1

>  <score_type>  (48) 
oracle

>  <origin>  (48) 
autodockgpu

>  <m_score__min__energy>  (48) 
-9.3200000000000003

>  <m_primary>  (48) 
energy

>  <rmsd>  (48) 
7.061183733847224

>  <m_score__min__rmsd>  (48) 
7.061183733847224

>  <meeko>  (48) 
{"free_energy": -6.12, "intermolecular_energy": -7.91, "internal_energy": -3.28, "cluster_size": 6, "cluster_id": 9, "rank_in_cluster": 6}

>  <energy>  (48) 
-6.12

>  <cluster_rmsd>  (48) 
0.08

>  <cluster>  (48) 
9

$$$$

     RDKit          3D

 60 64  0  0  0  0  0  0  0  0999 V2000
  146.2580   73.0190  219.5320 O   0  0  0  0  0  0  0  0  0  0  0  0
  145.1420   72.4440  219.6730 C   0  0  0  0  0  0  0  0  0  0  0  0
  145.1640   71.0610  219.5650 C   0  0  0  0  0  0  0  0  0  0  0  0
  146.3400   70.3890  219.3210 C   0  0  0  0  0  0  0  0  0  0  0  0
  146.3330   69.0030  219.2180 C   0  0  0  0  0  0  0  0  0  0  0  0
  145.1220   68.3220  219.3650 C   0  0  0  0  0  0  0  0  0  0  0  0
  145.1040   66.5670  219.2360 Cl  0  0  0  0  0  0  0  0  0  0  0  0
  143.9600   69.0420  219.6110 C   0  0  0  0  0  0  0  0  0  0  0  0
  143.9570   70.4140  219.7150 C   0  0  0  0  0  0  0  0  0  0  0  0
  142.8130   71.0780  219.9540 N   0  0  0  0  0  0  0  0  0  0  0  0
  142.8540   72.4180  220.0480 C   0  0  0  0  0  0  0  0  0  0  0  0
  141.5640   73.0800  220.3130 C   0  0  0  0  0  0  0  0  0  0  0  0
  141.2340   73.3790  221.5480 C   0  0  0  0  0  0  0  0  0  0  0  0
  140.4940   74.6140  221.8230 C   0  0  0  0  0  0  0  0  0  0  0  0
  139.1160   74.6650  221.8580 C   0  0  0  0  0  0  0  0  0  0  0  0
  138.4720   75.8640  222.1230 C   0  0  0  0  0  0  0  0  0  0  0  0
  139.1800   77.0400  222.3590 C   0  0  0  0  0  0  0  0  0  0  0  0
  140.5540   76.9360  222.3130 C   0  0  0  0  0  0  0  0  0  0  0  0
  141.3490   78.0920  222.5430 N   0  0  0  0  0  0  0  0  0  0  0  0
  141.8120   78.6180  223.8040 C   0  0  0  0  0  0  0  0  0  0  0  0
  141.5340   80.1160  223.6370 C   0  0  0  0  0  0  0  0  0  0  0  0
  141.6340   80.3450  222.1660 C   0  0  0  0  0  0  0  0  0  0  0  0
  141.8700   78.9960  221.5300 C   0  0  0  0  0  0  0  0  0  0  0  0
  141.1540   75.7610  222.0540 N   0  0  0  0  0  0  0  0  0  0  0  0
  143.9990   73.1300  219.9130 N   0  0  0  0  0  0  0  0  0  0  0  0
  143.9870   74.5540  220.0100 C   0  0  0  0  0  0  0  0  0  0  0  0
  143.1480   75.2750  219.0130 C   0  0  0  0  0  0  0  0  0  0  0  0
  143.7460   75.2310  217.5970 C   0  0  0  0  0  0  0  0  0  0  0  0
  142.7010   75.7610  216.6720 C   0  0  0  0  0  0  0  0  0  0  0  0
  141.7590   76.6560  217.2940 N   0  0  0  0  0  0  0  0  0  0  0  0
  142.4040   77.5340  218.2440 C   0  0  0  0  0  0  0  0  0  0  0  0
  143.0840   76.7600  219.3500 C   0  0  0  0  0  0  0  0  0  0  0  0
  147.2815   70.9465  219.2080 H   0  0  0  0  0  0  0  0  0  0  0  0
  147.2649   68.4517  219.0241 H   0  0  0  0  0  0  0  0  0  0  0  0
  143.0112   68.4976  219.7264 H   0  0  0  0  0  0  0  0  0  0  0  0
  140.8836   73.3215  219.4831 H   0  0  0  0  0  0  0  0  0  0  0  0
  141.5115   72.7059  222.3725 H   0  0  0  0  0  0  0  0  0  0  0  0
  138.5275   73.7537  221.6755 H   0  0  0  0  0  0  0  0  0  0  0  0
  137.3725   75.8870  222.1475 H   0  0  0  0  0  0  0  0  0  0  0  0
  138.6737   77.9937  222.5693 H   0  0  0  0  0  0  0  0  0  0  0  0
  141.2446   78.1964  224.6468 H   0  0  0  0  0  0  0  0  0  0  0  0
  142.8626   78.3811  224.0278 H   0  0  0  0  0  0  0  0  0  0  0  0
  140.5284   80.3694  224.0038 H   0  0  0  0  0  0  0  0  0  0  0  0
  142.2352   80.7411  224.2094 H   0  0  0  0  0  0  0  0  0  0  0  0
  140.6996   80.7843  221.7867 H   0  0  0  0  0  0  0  0  0  0  0  0
  142.4518   81.0416  221.9295 H   0  0  0  0  0  0  0  0  0  0  0  0
  141.3178   78.8976  220.5837 H   0  0  0  0  0  0  0  0  0  0  0  0
  142.9205   78.8076  221.2638 H   0  0  0  0  0  0  0  0  0  0  0  0
  143.6189   74.8188  221.0122 H   0  0  0  0  0  0  0  0  0  0  0  0
  145.0208   74.8710  219.8082 H   0  0  0  0  0  0  0  0  0  0  0  0
  142.1673   74.7777  219.0456 H   0  0  0  0  0  0  0  0  0  0  0  0
  144.6489   75.8574  217.5474 H   0  0  0  0  0  0  0  0  0  0  0  0
  144.0344   74.2058  217.3215 H   0  0  0  0  0  0  0  0  0  0  0  0
  143.2043   76.3021  215.8572 H   0  0  0  0  0  0  0  0  0  0  0  0
  142.1250   74.8938  216.3167 H   0  0  0  0  0  0  0  0  0  0  0  0
  141.2730   77.2720  216.6110 H   0  0  0  0  0  0  0  0  0  0  0  0
  143.1572   78.1379  217.7166 H   0  0  0  0  0  0  0  0  0  0  0  0
  141.6325   78.1734  218.6978 H   0  0  0  0  0  0  0  0  0  0  0  0
  144.1063   77.1438  219.4826 H   0  0  0  0  0  0  0  0  0  0  0  0
  142.5038   76.8861  220.2760 H   0  0  0  0  0  0  0  0  0  0  0  0
  1  2  2  0
  2  3  1  0
  3  4  2  0
  4  5  1  0
  5  6  2  0
  6  7  1  0
  6  8  1  0
  8  9  2  0
  9 10  1  0
 10 11  2  0
 11 12  1  0
 12 13  2  0
 13 14  1  0
 14 15  2  0
 15 16  1  0
 16 17  2  0
 17 18  1  0
 18 19  1  0
 19 20  1  0
 20 21  1  0
 21 22  1  0
 22 23  1  0
 18 24  2  0
 11 25  1  0
 25 26  1  0
 26 27  1  0
 27 28  1  0
 28 29  1  0
 29 30  1  0
 30 31  1  0
 31 32  1  0
 25  2  1  0
 32 27  1  0
  9  3  1  0
 24 14  1  0
 23 19  1  0
  4 33  1  0
  5 34  1  0
  8 35  1  0
 12 36  1  0
 13 37  1  0
 15 38  1  0
 16 39  1  0
 17 40  1  0
 20 41  1  0
 20 42  1  0
 21 43  1  0
 21 44  1  0
 22 45  1  0
 22 46  1  0
 23 47  1  0
 23 48  1  0
 26 49  1  0
 26 50  1  0
 27 51  1  0
 28 52  1  0
 28 53  1  0
 29 54  1  0
 29 55  1  0
 30 56  1  0
 31 57  1  0
 31 58  1  0
 32 59  1  0
 32 60  1  0
M  END
>  <smiles>  (49) 
O=c1c2ccc(Cl)cc2nc(/C=C/c2cccc(N3CCCC3)n2)n1CC1CCNCC1

>  <score_type>  (49) 
oracle

>  <origin>  (49) 
autodockgpu

>  <m_score__min__energy>  (49) 
-9.3200000000000003

>  <m_primary>  (49) 
energy

>  <rmsd>  (49) 
10.045340168560813

>  <m_score__min__rmsd>  (49) 
10.045340168560813

>  <meeko>  (49) 
{"free_energy": -7.75, "intermolecular_energy": -9.54, "internal_energy": -1.88, "cluster_size": 8, "cluster_id": 6, "rank_in_cluster": 1}

>  <energy>  (49) 
-5.6

>  <cluster_rmsd>  (49) 
0.0

>  <cluster>  (49) 
10

$$$$

     RDKit          3D

 60 64  0  0  0  0  0  0  0  0999 V2000
  142.8430   76.2820  216.8090 O   0  0  0  0  0  0  0  0  0  0  0  0
  142.4050   76.6130  217.9460 C   0  0  0  0  0  0  0  0  0  0  0  0
  142.2740   77.9770  218.1640 C   0  0  0  0  0  0  0  0  0  0  0  0
  142.6080   78.8840  217.1840 C   0  0  0  0  0  0  0  0  0  0  0  0
  142.4680   80.2450  217.4300 C   0  0  0  0  0  0  0  0  0  0  0  0
  141.9870   80.6610  218.6740 C   0  0  0  0  0  0  0  0  0  0  0  0
  141.8060   82.3820  218.9920 Cl  0  0  0  0  0  0  0  0  0  0  0  0
  141.6620   79.7090  219.6320 C   0  0  0  0  0  0  0  0  0  0  0  0
  141.7970   78.3590  219.3990 C   0  0  0  0  0  0  0  0  0  0  0  0
  141.4730   77.4670  220.3490 N   0  0  0  0  0  0  0  0  0  0  0  0
  141.6210   76.1580  220.0810 C   0  0  0  0  0  0  0  0  0  0  0  0
  141.2440   75.2360  221.1680 C   0  0  0  0  0  0  0  0  0  0  0  0
  140.0020   75.2160  221.5950 C   0  0  0  0  0  0  0  0  0  0  0  0
  139.3930   76.4440  222.1130 C   0  0  0  0  0  0  0  0  0  0  0  0
  138.0280   76.6110  222.2190 C   0  0  0  0  0  0  0  0  0  0  0  0
  137.5100   77.7970  222.7180 C   0  0  0  0  0  0  0  0  0  0  0  0
  138.3340   78.8440  223.1230 C   0  0  0  0  0  0  0  0  0  0  0  0
  139.6910   78.6270  222.9980 C   0  0  0  0  0  0  0  0  0  0  0  0
  140.5990   79.6470  223.3890 N   0  0  0  0  0  0  0  0  0  0  0  0
  140.4020   81.0760  223.3550 C   0  0  0  0  0  0  0  0  0  0  0  0
  141.7310   81.5600  222.7650 C   0  0  0  0  0  0  0  0  0  0  0  0
  142.7190   80.5250  223.1890 C   0  0  0  0  0  0  0  0  0  0  0  0
  141.9410   79.4520  223.9140 C   0  0  0  0  0  0  0  0  0  0  0  0
  140.1670   77.4680  222.5110 N   0  0  0  0  0  0  0  0  0  0  0  0
  142.0820   75.6980  218.8920 N   0  0  0  0  0  0  0  0  0  0  0  0
  142.2320   74.2980  218.6610 C   0  0  0  0  0  0  0  0  0  0  0  0
  143.4000   73.6430  219.3160 C   0  0  0  0  0  0  0  0  0  0  0  0
  142.9830   72.6890  220.4470 C   0  0  0  0  0  0  0  0  0  0  0  0
  144.2050   71.9260  220.8370 C   0  0  0  0  0  0  0  0  0  0  0  0
  145.4430   72.6080  220.5580 N   0  0  0  0  0  0  0  0  0  0  0  0
  145.3470   74.0240  220.8360 C   0  0  0  0  0  0  0  0  0  0  0  0
  144.2720   74.6860  220.0040 C   0  0  0  0  0  0  0  0  0  0  0  0
  142.9837   78.5337  216.2113 H   0  0  0  0  0  0  0  0  0  0  0  0
  142.7317   80.9825  216.6577 H   0  0  0  0  0  0  0  0  0  0  0  0
  141.2843   80.0450  220.6090 H   0  0  0  0  0  0  0  0  0  0  0  0
  141.9961   74.5708  221.6174 H   0  0  0  0  0  0  0  0  0  0  0  0
  139.4219   74.2819  221.5639 H   0  0  0  0  0  0  0  0  0  0  0  0
  137.3496   75.8030  221.9075 H   0  0  0  0  0  0  0  0  0  0  0  0
  136.4190   77.9136  222.7959 H   0  0  0  0  0  0  0  0  0  0  0  0
  137.9279   79.7867  223.5185 H   0  0  0  0  0  0  0  0  0  0  0  0
  139.5540   81.3484  222.7095 H   0  0  0  0  0  0  0  0  0  0  0  0
  140.1616   81.5166  224.3338 H   0  0  0  0  0  0  0  0  0  0  0  0
  141.6728   81.6175  221.6680 H   0  0  0  0  0  0  0  0  0  0  0  0
  142.0028   82.5683  223.1107 H   0  0  0  0  0  0  0  0  0  0  0  0
  143.2225   80.0987  222.3088 H   0  0  0  0  0  0  0  0  0  0  0  0
  143.4926   80.9598  223.8390 H   0  0  0  0  0  0  0  0  0  0  0  0
  142.3230   78.4490  223.6729 H   0  0  0  0  0  0  0  0  0  0  0  0
  142.0037   79.5217  225.0100 H   0  0  0  0  0  0  0  0  0  0  0  0
  141.3211   73.7989  219.0230 H   0  0  0  0  0  0  0  0  0  0  0  0
  142.4060   74.1956  217.5797 H   0  0  0  0  0  0  0  0  0  0  0  0
  143.9190   73.1015  218.5114 H   0  0  0  0  0  0  0  0  0  0  0  0
  142.6038   73.2622  221.3059 H   0  0  0  0  0  0  0  0  0  0  0  0
  142.1817   72.0112  220.1176 H   0  0  0  0  0  0  0  0  0  0  0  0
  144.1570   71.7273  221.9178 H   0  0  0  0  0  0  0  0  0  0  0  0
  144.2086   71.0064  220.2335 H   0  0  0  0  0  0  0  0  0  0  0  0
  146.2390   72.2540  221.1260 H   0  0  0  0  0  0  0  0  0  0  0  0
  145.1095   74.1628  221.9010 H   0  0  0  0  0  0  0  0  0  0  0  0
  146.3112   74.4891  220.5831 H   0  0  0  0  0  0  0  0  0  0  0  0
  143.6425   75.3080  220.6573 H   0  0  0  0  0  0  0  0  0  0  0  0
  144.7544   75.3055  219.2336 H   0  0  0  0  0  0  0  0  0  0  0  0
  1  2  2  0
  2  3  1  0
  3  4  2  0
  4  5  1  0
  5  6  2  0
  6  7  1  0
  6  8  1  0
  8  9  2  0
  9 10  1  0
 10 11  2  0
 11 12  1  0
 12 13  2  0
 13 14  1  0
 14 15  2  0
 15 16  1  0
 16 17  2  0
 17 18  1  0
 18 19  1  0
 19 20  1  0
 20 21  1  0
 21 22  1  0
 22 23  1  0
 18 24  2  0
 11 25  1  0
 25 26  1  0
 26 27  1  0
 27 28  1  0
 28 29  1  0
 29 30  1  0
 30 31  1  0
 31 32  1  0
 25  2  1  0
 32 27  1  0
  9  3  1  0
 24 14  1  0
 23 19  1  0
  4 33  1  0
  5 34  1  0
  8 35  1  0
 12 36  1  0
 13 37  1  0
 15 38  1  0
 16 39  1  0
 17 40  1  0
 20 41  1  0
 20 42  1  0
 21 43  1  0
 21 44  1  0
 22 45  1  0
 22 46  1  0
 23 47  1  0
 23 48  1  0
 26 49  1  0
 26 50  1  0
 27 51  1  0
 28 52  1  0
 28 53  1  0
 29 54  1  0
 29 55  1  0
 30 56  1  0
 31 57  1  0
 31 58  1  0
 32 59  1  0
 32 60  1  0
M  END
>  <smiles>  (50) 
O=c1c2ccc(Cl)cc2nc(/C=C/c2cccc(N3CCCC3)n2)n1CC1CCNCC1

>  <score_type>  (50) 
oracle

>  <origin>  (50) 
autodockgpu

>  <m_score__min__energy>  (50) 
-9.3200000000000003

>  <m_primary>  (50) 
energy

>  <rmsd>  (50) 
5.010738032384015

>  <m_score__min__rmsd>  (50) 
5.010738032384015

>  <meeko>  (50) 
{"free_energy": -7.41, "intermolecular_energy": -9.2, "internal_energy": -2.01, "cluster_size": 3, "cluster_id": 7, "rank_in_cluster": 3}

>  <energy>  (50) 
-5.6

>  <cluster_rmsd>  (50) 
0.0

>  <cluster>  (50) 
11

$$$$
