
     RDKit          3D

 53 56  0  0  0  0  0  0  0  0999 V2000
  140.4720   71.7350  221.1040 O   0  0  0  0  0  0  0  0  0  0  0  0
  140.1270   72.2780  222.1710 C   0  0  0  0  0  0  0  0  0  0  0  0
  139.8070   73.6550  222.3130 N   0  0  0  0  0  0  0  0  0  0  0  0
  139.8690   74.5610  221.1460 C   0  0  0  0  0  0  0  0  0  0  0  0
  140.5100   75.8300  221.5180 C   0  0  0  0  0  0  0  0  0  0  0  0
  140.1890   76.2730  222.6930 O   0  0  0  0  0  0  0  0  0  0  0  0
  141.4000   76.6220  220.8030 N   0  0  0  0  0  0  0  0  0  0  0  0
  141.5510   78.0120  221.4050 C   0  0  0  0  0  0  0  0  0  0  0  0
  141.5650   78.9800  220.2430 C   0  0  0  0  0  0  0  0  0  0  0  0
  140.8140   78.4760  219.0310 C   0  0  0  0  0  0  0  0  0  0  0  0
  141.3490   77.1650  218.4920 C   0  0  0  0  0  0  0  0  0  0  0  0
  142.1310   76.4450  219.6340 C   0  0  2  0  0  0  0  0  0  0  0  0
  142.7090   75.2380  219.1000 C   0  0  0  0  0  0  0  0  0  0  0  0
  143.6930   74.4650  219.8290 C   0  0  0  0  0  0  0  0  0  0  0  0
  143.4440   73.0800  219.9460 C   0  0  0  0  0  0  0  0  0  0  0  0
  144.2930   72.2580  220.6550 C   0  0  0  0  0  0  0  0  0  0  0  0
  145.4000   72.7340  221.2700 N   0  0  0  0  0  0  0  0  0  0  0  0
  145.6740   74.0660  221.1800 C   0  0  0  0  0  0  0  0  0  0  0  0
  144.8210   74.9010  220.4660 C   0  0  0  0  0  0  0  0  0  0  0  0
  140.0450   71.4290  223.3790 C   0  0  0  0  0  0  0  0  0  0  0  0
  139.5390   70.1530  223.3300 C   0  0  0  0  0  0  0  0  0  0  0  0
  139.4450   69.3280  224.4380 C   0  0  0  0  0  0  0  0  0  0  0  0
  139.8850   69.8220  225.6510 C   0  0  0  0  0  0  0  0  0  0  0  0
  139.8090   69.0380  226.7630 C   0  0  0  0  0  0  0  0  0  0  0  0
  140.2590   69.5590  227.9710 C   0  0  0  0  0  0  0  0  0  0  0  0
  140.1920   68.7970  229.0940 F   0  0  0  0  0  0  0  0  0  0  0  0
  140.7620   70.8420  227.9920 C   0  0  0  0  0  0  0  0  0  0  0  0
  140.8410   71.6380  226.8720 C   0  0  0  0  0  0  0  0  0  0  0  0
  140.3890   71.0990  225.6850 C   0  0  0  0  0  0  0  0  0  0  0  0
  140.4640   71.8730  224.5820 N   0  0  0  0  0  0  0  0  0  0  0  0
  139.5180   74.0940  223.2140 H   0  0  0  0  0  0  0  0  0  0  0  0
  140.4512   74.0816  220.3452 H   0  0  0  0  0  0  0  0  0  0  0  0
  138.8459   74.7659  220.7978 H   0  0  0  0  0  0  0  0  0  0  0  0
  140.7051   78.2314  222.0731 H   0  0  0  0  0  0  0  0  0  0  0  0
  142.4718   78.0909  222.0015 H   0  0  0  0  0  0  0  0  0  0  0  0
  141.1049   79.9240  220.5703 H   0  0  0  0  0  0  0  0  0  0  0  0
  142.6151   79.1108  219.9425 H   0  0  0  0  0  0  0  0  0  0  0  0
  139.7592   78.3339  219.3090 H   0  0  0  0  0  0  0  0  0  0  0  0
  140.9380   79.2274  218.2373 H   0  0  0  0  0  0  0  0  0  0  0  0
  140.5136   76.5323  218.1577 H   0  0  0  0  0  0  0  0  0  0  0  0
  142.0157   77.3519  217.6372 H   0  0  0  0  0  0  0  0  0  0  0  0
  143.0838   76.8238  220.0322 H   0  0  0  0  0  0  0  0  0  0  0  0
  141.8684   74.5565  218.9025 H   0  0  0  0  0  0  0  0  0  0  0  0
  143.2999   75.6218  218.2554 H   0  0  0  0  0  0  0  0  0  0  0  0
  142.5553   72.6489  219.4619 H   0  0  0  0  0  0  0  0  0  0  0  0
  144.0641   71.1842  220.7228 H   0  0  0  0  0  0  0  0  0  0  0  0
  146.5674   74.4796  221.6707 H   0  0  0  0  0  0  0  0  0  0  0  0
  145.0679   75.9715  220.4109 H   0  0  0  0  0  0  0  0  0  0  0  0
  139.1906   69.7667  222.3608 H   0  0  0  0  0  0  0  0  0  0  0  0
  139.0331   68.3114  224.3552 H   0  0  0  0  0  0  0  0  0  0  0  0
  139.4016   68.0178  226.7063 H   0  0  0  0  0  0  0  0  0  0  0  0
  141.1174   71.2494  228.9500 H   0  0  0  0  0  0  0  0  0  0  0  0
  141.2468   72.6593  226.9210 H   0  0  0  0  0  0  0  0  0  0  0  0
  1  2  2  0
  2  3  1  0
  3  4  1  0
  4  5  1  0
  5  6  2  0
  5  7  1  0
  7  8  1  0
  8  9  1  0
  9 10  1  0
 10 11  1  0
 11 12  1  0
 12 13  1  0
 13 14  1  0
 14 15  2  0
 15 16  1  0
 16 17  2  0
 17 18  1  0
 18 19  2  0
  2 20  1  0
 20 21  2  0
 21 22  1  0
 22 23  2  0
 23 24  1  0
 24 25  2  0
 25 26  1  0
 25 27  1  0
 27 28  2  0
 28 29  1  0
 29 30  2  0
 12  7  1  0
 19 14  1  0
 30 20  1  0
 29 23  1  0
  3 31  1  0
  4 32  1  0
  4 33  1  0
  8 34  1  0
  8 35  1  0
  9 36  1  0
  9 37  1  0
 10 38  1  0
 10 39  1  0
 11 40  1  0
 11 41  1  0
 12 42  1  1
 13 43  1  0
 13 44  1  0
 15 45  1  0
 16 46  1  0
 18 47  1  0
 19 48  1  0
 21 49  1  0
 22 50  1  0
 24 51  1  0
 27 52  1  0
 28 53  1  0
M  END
>  <smiles>  (1) 
O=C(NCC(=O)N1CCCCC1Cc1ccncc1)c1ccc2cc(F)ccc2n1

>  <score_type>  (1) 
oracle

>  <origin>  (1) 
autodockgpu

>  <m_score__min__energy>  (1) 
-8.9800000000000004

>  <m_primary>  (1) 
energy

>  <rmsd>  (1) 
2.488735334243096

>  <m_score__min__rmsd>  (1) 
2.488735334243096

>  <meeko>  (1) 
{"free_energy": -8.12, "intermolecular_energy": -9.91, "internal_energy": -2.16, "cluster_size": 13, "cluster_id": 1, "rank_in_cluster": 12}

>  <energy>  (1) 
-8.98

>  <cluster_rmsd>  (1) 
0.0

>  <cluster>  (1) 
1

$$$$

     RDKit          3D

 53 56  0  0  0  0  0  0  0  0999 V2000
  138.7110   70.9670  221.3080 O   0  0  0  0  0  0  0  0  0  0  0  0
  139.1140   71.5350  222.3410 C   0  0  0  0  0  0  0  0  0  0  0  0
  139.3640   72.9290  222.4550 N   0  0  0  0  0  0  0  0  0  0  0  0
  139.1490   73.8240  221.2980 C   0  0  0  0  0  0  0  0  0  0  0  0
  140.0500   74.9830  221.3740 C   0  0  0  0  0  0  0  0  0  0  0  0
  140.9090   74.9370  222.3440 O   0  0  0  0  0  0  0  0  0  0  0  0
  140.1160   76.1130  220.5700 N   0  0  0  0  0  0  0  0  0  0  0  0
  140.0150   75.7760  219.0890 C   0  0  0  0  0  0  0  0  0  0  0  0
  141.0380   76.6400  218.3850 C   0  0  0  0  0  0  0  0  0  0  0  0
  142.2120   77.0180  219.2610 C   0  0  0  0  0  0  0  0  0  0  0  0
  141.8110   77.7750  220.5110 C   0  0  0  0  0  0  0  0  0  0  0  0
  140.3110   77.4680  220.8150 C   0  0  2  0  0  0  0  0  0  0  0  0
  139.9070   78.2510  221.9550 C   0  0  0  0  0  0  0  0  0  0  0  0
  140.7810   79.2260  222.5710 C   0  0  0  0  0  0  0  0  0  0  0  0
  140.6400   80.5620  222.1340 C   0  0  0  0  0  0  0  0  0  0  0  0
  141.4510   81.5640  222.6220 C   0  0  0  0  0  0  0  0  0  0  0  0
  142.4160   81.3190  223.5390 N   0  0  0  0  0  0  0  0  0  0  0  0
  142.5830   80.0420  223.9840 C   0  0  0  0  0  0  0  0  0  0  0  0
  141.7680   79.0260  223.4950 C   0  0  0  0  0  0  0  0  0  0  0  0
  139.3510   70.6980  223.5370 C   0  0  0  0  0  0  0  0  0  0  0  0
  138.9750   69.3780  223.5790 C   0  0  0  0  0  0  0  0  0  0  0  0
  139.1800   68.5620  224.6790 C   0  0  0  0  0  0  0  0  0  0  0  0
  139.7920   69.1140  225.7870 C   0  0  0  0  0  0  0  0  0  0  0  0
  140.0100   68.3410  226.8890 C   0  0  0  0  0  0  0  0  0  0  0  0
  140.6290   68.9200  227.9910 C   0  0  0  0  0  0  0  0  0  0  0  0
  140.8560   68.1700  229.1010 F   0  0  0  0  0  0  0  0  0  0  0  0
  140.9950   70.2470  227.9220 C   0  0  0  0  0  0  0  0  0  0  0  0
  140.7780   71.0320  226.8130 C   0  0  0  0  0  0  0  0  0  0  0  0
  140.1630   70.4350  225.7320 C   0  0  0  0  0  0  0  0  0  0  0  0
  139.9460   71.1970  224.6400 N   0  0  0  0  0  0  0  0  0  0  0  0
  139.7010   73.3890  223.3290 H   0  0  0  0  0  0  0  0  0  0  0  0
  139.3484   73.2699  220.3689 H   0  0  0  0  0  0  0  0  0  0  0  0
  138.1080   74.1792  221.3095 H   0  0  0  0  0  0  0  0  0  0  0  0
  140.2381   74.7115  218.9248 H   0  0  0  0  0  0  0  0  0  0  0  0
  139.0015   75.9639  218.7049 H   0  0  0  0  0  0  0  0  0  0  0  0
  141.4178   76.0890  217.5120 H   0  0  0  0  0  0  0  0  0  0  0  0
  140.5321   77.5743  218.1000 H   0  0  0  0  0  0  0  0  0  0  0  0
  142.7325   76.0972  219.5629 H   0  0  0  0  0  0  0  0  0  0  0  0
  142.8566   77.6853  218.6700 H   0  0  0  0  0  0  0  0  0  0  0  0
  142.4350   77.4515  221.3571 H   0  0  0  0  0  0  0  0  0  0  0  0
  141.9518   78.8554  220.3593 H   0  0  0  0  0  0  0  0  0  0  0  0
  139.4895   77.8241  220.1760 H   0  0  0  0  0  0  0  0  0  0  0  0
  139.0050   78.7996  221.6461 H   0  0  0  0  0  0  0  0  0  0  0  0
  139.8287   77.4857  222.7413 H   0  0  0  0  0  0  0  0  0  0  0  0
  139.8680   80.8074  221.3898 H   0  0  0  0  0  0  0  0  0  0  0  0
  141.3100   82.5917  222.2559 H   0  0  0  0  0  0  0  0  0  0  0  0
  143.3605   79.8149  224.7282 H   0  0  0  0  0  0  0  0  0  0  0  0
  141.9268   78.0052  223.8730 H   0  0  0  0  0  0  0  0  0  0  0  0
  138.4858   68.9465  222.6933 H   0  0  0  0  0  0  0  0  0  0  0  0
  138.8654   67.5080  224.6704 H   0  0  0  0  0  0  0  0  0  0  0  0
  139.7034   67.2847  226.9056 H   0  0  0  0  0  0  0  0  0  0  0  0
  141.4845   70.7007  228.7963 H   0  0  0  0  0  0  0  0  0  0  0  0
  141.0815   72.0890  226.7894 H   0  0  0  0  0  0  0  0  0  0  0  0
  1  2  2  0
  2  3  1  0
  3  4  1  0
  4  5  1  0
  5  6  2  0
  5  7  1  0
  7  8  1  0
  8  9  1  0
  9 10  1  0
 10 11  1  0
 11 12  1  0
 12 13  1  0
 13 14  1  0
 14 15  2  0
 15 16  1  0
 16 17  2  0
 17 18  1  0
 18 19  2  0
  2 20  1  0
 20 21  2  0
 21 22  1  0
 22 23  2  0
 23 24  1  0
 24 25  2  0
 25 26  1  0
 25 27  1  0
 27 28  2  0
 28 29  1  0
 29 30  2  0
 12  7  1  0
 19 14  1  0
 30 20  1  0
 29 23  1  0
  3 31  1  0
  4 32  1  0
  4 33  1  0
  8 34  1  0
  8 35  1  0
  9 36  1  0
  9 37  1  0
 10 38  1  0
 10 39  1  0
 11 40  1  0
 11 41  1  0
 12 42  1  6
 13 43  1  0
 13 44  1  0
 15 45  1  0
 16 46  1  0
 18 47  1  0
 19 48  1  0
 21 49  1  0
 22 50  1  0
 24 51  1  0
 27 52  1  0
 28 53  1  0
M  END
>  <smiles>  (2) 
O=C(NCC(=O)N1CCCCC1Cc1ccncc1)c1ccc2cc(F)ccc2n1

>  <score_type>  (2) 
oracle

>  <origin>  (2) 
autodockgpu

>  <m_score__min__energy>  (2) 
-8.9800000000000004

>  <m_primary>  (2) 
energy

>  <rmsd>  (2) 
1.5642431114582296

>  <m_score__min__rmsd>  (2) 
1.5642431114582296

>  <meeko>  (2) 
{"free_energy": -8.34, "intermolecular_energy": -10.13, "internal_energy": -2.06, "cluster_size": 27, "cluster_id": 2, "rank_in_cluster": 14}

>  <energy>  (2) 
-8.84

>  <cluster_rmsd>  (2) 
0.63

>  <cluster>  (2) 
1

$$$$

     RDKit          3D

 53 56  0  0  0  0  0  0  0  0999 V2000
  140.9360   71.1900  221.3950 O   0  0  0  0  0  0  0  0  0  0  0  0
  140.4140   71.7660  222.3690 C   0  0  0  0  0  0  0  0  0  0  0  0
  139.9970   73.1240  222.3800 N   0  0  0  0  0  0  0  0  0  0  0  0
  140.1690   73.9680  221.1780 C   0  0  0  0  0  0  0  0  0  0  0  0
  139.5890   75.3000  221.4010 C   0  0  0  0  0  0  0  0  0  0  0  0
  138.6980   75.3500  222.3410 O   0  0  0  0  0  0  0  0  0  0  0  0
  139.8500   76.5040  220.7590 N   0  0  0  0  0  0  0  0  0  0  0  0
  139.6890   76.4000  219.2480 C   0  0  0  0  0  0  0  0  0  0  0  0
  140.8470   77.1640  218.6430 C   0  0  0  0  0  0  0  0  0  0  0  0
  142.0700   77.2070  219.5330 C   0  0  0  0  0  0  0  0  0  0  0  0
  141.8090   77.8390  220.8850 C   0  0  0  0  0  0  0  0  0  0  0  0
  140.2800   77.7560  221.1830 C   0  0  2  0  0  0  0  0  0  0  0  0
  140.0200   78.4290  222.4300 C   0  0  0  0  0  0  0  0  0  0  0  0
  140.8980   79.4560  222.9500 C   0  0  0  0  0  0  0  0  0  0  0  0
  140.6920   80.7660  222.4650 C   0  0  0  0  0  0  0  0  0  0  0  0
  141.4980   81.8110  222.8600 C   0  0  0  0  0  0  0  0  0  0  0  0
  142.5210   81.6350  223.7280 N   0  0  0  0  0  0  0  0  0  0  0  0
  142.7520   80.3850  224.2180 C   0  0  0  0  0  0  0  0  0  0  0  0
  141.9420   79.3260  223.8220 C   0  0  0  0  0  0  0  0  0  0  0  0
  140.2130   70.9800  223.6050 C   0  0  0  0  0  0  0  0  0  0  0  0
  139.5610   69.7710  223.5940 C   0  0  0  0  0  0  0  0  0  0  0  0
  139.3530   69.0070  224.7290 C   0  0  0  0  0  0  0  0  0  0  0  0
  139.8300   69.4920  225.9310 C   0  0  0  0  0  0  0  0  0  0  0  0
  139.6450   68.7660  227.0700 C   0  0  0  0  0  0  0  0  0  0  0  0
  140.1340   69.2760  228.2670 C   0  0  0  0  0  0  0  0  0  0  0  0
  139.9610   68.5720  229.4150 F   0  0  0  0  0  0  0  0  0  0  0  0
  140.7850   70.4920  228.2500 C   0  0  0  0  0  0  0  0  0  0  0  0
  140.9750   71.2290  227.1030 C   0  0  0  0  0  0  0  0  0  0  0  0
  140.4810   70.7010  225.9290 C   0  0  0  0  0  0  0  0  0  0  0  0
  140.6630   71.4170  224.8000 N   0  0  0  0  0  0  0  0  0  0  0  0
  139.5600   73.5910  223.2040 H   0  0  0  0  0  0  0  0  0  0  0  0
  141.2418   74.0718  220.9583 H   0  0  0  0  0  0  0  0  0  0  0  0
  139.6544   73.4917  220.3305 H   0  0  0  0  0  0  0  0  0  0  0  0
  139.7220   75.3465  218.9332 H   0  0  0  0  0  0  0  0  0  0  0  0
  138.7234   76.8123  218.9198 H   0  0  0  0  0  0  0  0  0  0  0  0
  141.1238   76.6829  217.6933 H   0  0  0  0  0  0  0  0  0  0  0  0
  140.5121   78.2022  218.5015 H   0  0  0  0  0  0  0  0  0  0  0  0
  142.4219   76.1770  219.6918 H   0  0  0  0  0  0  0  0  0  0  0  0
  142.8205   77.8292  219.0234 H   0  0  0  0  0  0  0  0  0  0  0  0
  142.3685   77.2975  221.6620 H   0  0  0  0  0  0  0  0  0  0  0  0
  142.1356   78.8894  220.8795 H   0  0  0  0  0  0  0  0  0  0  0  0
  139.5332   78.3353  220.6202 H   0  0  0  0  0  0  0  0  0  0  0  0
  139.0294   78.8958  222.3261 H   0  0  0  0  0  0  0  0  0  0  0  0
  140.1582   77.6184  223.1606 H   0  0  0  0  0  0  0  0  0  0  0  0
  139.8714   80.9559  221.7575 H   0  0  0  0  0  0  0  0  0  0  0  0
  141.3045   82.8167  222.4585 H   0  0  0  0  0  0  0  0  0  0  0  0
  143.5771   80.2137  224.9251 H   0  0  0  0  0  0  0  0  0  0  0  0
  142.1536   78.3281  224.2337 H   0  0  0  0  0  0  0  0  0  0  0  0
  139.1847   69.3903  222.6330 H   0  0  0  0  0  0  0  0  0  0  0  0
  138.8244   68.0438  224.6755 H   0  0  0  0  0  0  0  0  0  0  0  0
  139.1210   67.7992  227.0424 H   0  0  0  0  0  0  0  0  0  0  0  0
  141.1711   70.8922  229.1991 H   0  0  0  0  0  0  0  0  0  0  0  0
  141.4979   72.1966  227.1222 H   0  0  0  0  0  0  0  0  0  0  0  0
  1  2  2  0
  2  3  1  0
  3  4  1  0
  4  5  1  0
  5  6  2  0
  5  7  1  0
  7  8  1  0
  8  9  1  0
  9 10  1  0
 10 11  1  0
 11 12  1  0
 12 13  1  0
 13 14  1  0
 14 15  2  0
 15 16  1  0
 16 17  2  0
 17 18  1  0
 18 19  2  0
  2 20  1  0
 20 21  2  0
 21 22  1  0
 22 23  2  0
 23 24  1  0
 24 25  2  0
 25 26  1  0
 25 27  1  0
 27 28  2  0
 28 29  1  0
 29 30  2  0
 12  7  1  0
 19 14  1  0
 30 20  1  0
 29 23  1  0
  3 31  1  0
  4 32  1  0
  4 33  1  0
  8 34  1  0
  8 35  1  0
  9 36  1  0
  9 37  1  0
 10 38  1  0
 10 39  1  0
 11 40  1  0
 11 41  1  0
 12 42  1  6
 13 43  1  0
 13 44  1  0
 15 45  1  0
 16 46  1  0
 18 47  1  0
 19 48  1  0
 21 49  1  0
 22 50  1  0
 24 51  1  0
 27 52  1  0
 28 53  1  0
M  END
>  <smiles>  (3) 
O=C(NCC(=O)N1CCCCC1Cc1ccncc1)c1ccc2cc(F)ccc2n1

>  <score_type>  (3) 
oracle

>  <origin>  (3) 
autodockgpu

>  <m_score__min__energy>  (3) 
-8.9800000000000004

>  <m_primary>  (3) 
energy

>  <rmsd>  (3) 
1.9909582957296275

>  <m_score__min__rmsd>  (3) 
1.9909582957296275

>  <meeko>  (3) 
{"free_energy": -8.24, "intermolecular_energy": -10.03, "internal_energy": -1.88, "cluster_size": 27, "cluster_id": 2, "rank_in_cluster": 21}

>  <energy>  (3) 
-8.75

>  <cluster_rmsd>  (3) 
0.79

>  <cluster>  (3) 
1

$$$$

     RDKit          3D

 53 56  0  0  0  0  0  0  0  0999 V2000
  137.3070   75.9090  222.4040 O   0  0  0  0  0  0  0  0  0  0  0  0
  138.5400   76.0620  222.3130 C   0  0  0  0  0  0  0  0  0  0  0  0
  139.4520   75.0600  221.8880 N   0  0  0  0  0  0  0  0  0  0  0  0
  138.9640   73.7160  221.5140 C   0  0  0  0  0  0  0  0  0  0  0  0
  139.9980   72.7040  221.7760 C   0  0  0  0  0  0  0  0  0  0  0  0
  141.2060   73.0820  221.4950 O   0  0  0  0  0  0  0  0  0  0  0  0
  139.8750   71.4140  222.2750 N   0  0  0  0  0  0  0  0  0  0  0  0
  139.5680   70.3980  221.1830 C   0  0  0  0  0  0  0  0  0  0  0  0
  138.5160   69.4690  221.7490 C   0  0  0  0  0  0  0  0  0  0  0  0
  137.6480   70.1160  222.8050 C   0  0  0  0  0  0  0  0  0  0  0  0
  138.4310   70.6370  223.9930 C   0  0  0  0  0  0  0  0  0  0  0  0
  139.9110   70.8590  223.5500 C   0  0  2  0  0  0  0  0  0  0  0  0
  140.6740   71.2760  224.6990 C   0  0  0  0  0  0  0  0  0  0  0  0
  140.6990   70.5110  225.9280 C   0  0  0  0  0  0  0  0  0  0  0  0
  140.8710   71.2450  227.1220 C   0  0  0  0  0  0  0  0  0  0  0  0
  140.9540   70.6140  228.3440 C   0  0  0  0  0  0  0  0  0  0  0  0
  140.8730   69.2680  228.4600 N   0  0  0  0  0  0  0  0  0  0  0  0
  140.7080   68.5260  227.3290 C   0  0  0  0  0  0  0  0  0  0  0  0
  140.6250   69.1570  226.0920 C   0  0  0  0  0  0  0  0  0  0  0  0
  139.0960   77.3840  222.6730 C   0  0  0  0  0  0  0  0  0  0  0  0
  138.2850   78.4630  222.9270 C   0  0  0  0  0  0  0  0  0  0  0  0
  138.7680   79.7160  223.2670 C   0  0  0  0  0  0  0  0  0  0  0  0
  140.1370   79.8800  223.3520 C   0  0  0  0  0  0  0  0  0  0  0  0
  140.6490   81.0980  223.6850 C   0  0  0  0  0  0  0  0  0  0  0  0
  142.0300   81.2370  223.7640 C   0  0  0  0  0  0  0  0  0  0  0  0
  142.5630   82.4430  224.0930 F   0  0  0  0  0  0  0  0  0  0  0  0
  142.8200   80.1380  223.5040 C   0  0  0  0  0  0  0  0  0  0  0  0
  142.3090   78.9050  223.1680 C   0  0  0  0  0  0  0  0  0  0  0  0
  140.9360   78.7930  223.0960 C   0  0  0  0  0  0  0  0  0  0  0  0
  140.4270   77.5870  222.7680 N   0  0  0  0  0  0  0  0  0  0  0  0
  140.4830   75.2050  221.8160 H   0  0  0  0  0  0  0  0  0  0  0  0
  138.0668   73.4788  222.1046 H   0  0  0  0  0  0  0  0  0  0  0  0
  138.7226   73.7099  220.4408 H   0  0  0  0  0  0  0  0  0  0  0  0
  139.1839   70.9069  220.2867 H   0  0  0  0  0  0  0  0  0  0  0  0
  140.4715   69.8449  220.8868 H   0  0  0  0  0  0  0  0  0  0  0  0
  137.8697   69.1313  220.9254 H   0  0  0  0  0  0  0  0  0  0  0  0
  139.0458   68.6343  222.2312 H   0  0  0  0  0  0  0  0  0  0  0  0
  137.1100   70.9584  222.3457 H   0  0  0  0  0  0  0  0  0  0  0  0
  136.9643   69.3411  223.1820 H   0  0  0  0  0  0  0  0  0  0  0  0
  137.9986   71.5893  224.3339 H   0  0  0  0  0  0  0  0  0  0  0  0
  138.3891   69.9126  224.8198 H   0  0  0  0  0  0  0  0  0  0  0  0
  140.5872   70.0283  223.2996 H   0  0  0  0  0  0  0  0  0  0  0  0
  141.7187   71.3509  224.3629 H   0  0  0  0  0  0  0  0  0  0  0  0
  140.1419   72.1878  225.0081 H   0  0  0  0  0  0  0  0  0  0  0  0
  140.9401   72.3419  227.0756 H   0  0  0  0  0  0  0  0  0  0  0  0
  141.0899   71.2214  229.2510 H   0  0  0  0  0  0  0  0  0  0  0  0
  140.6405   67.4300  227.3940 H   0  0  0  0  0  0  0  0  0  0  0  0
  140.4925   68.5313  225.1970 H   0  0  0  0  0  0  0  0  0  0  0  0
  137.1959   78.3251  222.8568 H   0  0  0  0  0  0  0  0  0  0  0  0
  138.0830   80.5540  223.4631 H   0  0  0  0  0  0  0  0  0  0  0  0
  139.9850   81.9515  223.8866 H   0  0  0  0  0  0  0  0  0  0  0  0
  143.9122   80.2519  223.5681 H   0  0  0  0  0  0  0  0  0  0  0  0
  142.9665   78.0466  222.9658 H   0  0  0  0  0  0  0  0  0  0  0  0
  1  2  2  0
  2  3  1  0
  3  4  1  0
  4  5  1  0
  5  6  2  0
  5  7  1  0
  7  8  1  0
  8  9  1  0
  9 10  1  0
 10 11  1  0
 11 12  1  0
 12 13  1  0
 13 14  1  0
 14 15  2  0
 15 16  1  0
 16 17  2  0
 17 18  1  0
 18 19  2  0
  2 20  1  0
 20 21  2  0
 21 22  1  0
 22 23  2  0
 23 24  1  0
 24 25  2  0
 25 26  1  0
 25 27  1  0
 27 28  2  0
 28 29  1  0
 29 30  2  0
 12  7  1  0
 19 14  1  0
 30 20  1  0
 29 23  1  0
  3 31  1  0
  4 32  1  0
  4 33  1  0
  8 34  1  0
  8 35  1  0
  9 36  1  0
  9 37  1  0
 10 38  1  0
 10 39  1  0
 11 40  1  0
 11 41  1  0
 12 42  1  6
 13 43  1  0
 13 44  1  0
 15 45  1  0
 16 46  1  0
 18 47  1  0
 19 48  1  0
 21 49  1  0
 22 50  1  0
 24 51  1  0
 27 52  1  0
 28 53  1  0
M  END
>  <smiles>  (4) 
O=C(NCC(=O)N1CCCCC1Cc1ccncc1)c1ccc2cc(F)ccc2n1

>  <score_type>  (4) 
oracle

>  <origin>  (4) 
autodockgpu

>  <m_score__min__energy>  (4) 
-8.9800000000000004

>  <m_primary>  (4) 
energy

>  <rmsd>  (4) 
8.381979281020874

>  <m_score__min__rmsd>  (4) 
8.381979281020874

>  <meeko>  (4) 
{"free_energy": -7.89, "intermolecular_energy": -9.68, "internal_energy": -1.97, "cluster_size": 8, "cluster_id": 3, "rank_in_cluster": 7}

>  <energy>  (4) 
-8.74

>  <cluster_rmsd>  (4) 
0.79

>  <cluster>  (4) 
1

$$$$

     RDKit          3D

 53 56  0  0  0  0  0  0  0  0999 V2000
  141.0830   71.9130  221.3350 O   0  0  0  0  0  0  0  0  0  0  0  0
  140.3780   72.3400  222.2700 C   0  0  0  0  0  0  0  0  0  0  0  0
  139.7200   73.5980  222.2790 N   0  0  0  0  0  0  0  0  0  0  0  0
  139.8430   74.5150  221.1260 C   0  0  0  0  0  0  0  0  0  0  0  0
  139.5730   75.8990  221.5410 C   0  0  0  0  0  0  0  0  0  0  0  0
  139.2480   76.0350  222.7890 O   0  0  0  0  0  0  0  0  0  0  0  0
  139.6120   77.0740  220.8020 N   0  0  0  0  0  0  0  0  0  0  0  0
  138.2470   77.4540  220.2460 C   0  0  0  0  0  0  0  0  0  0  0  0
  138.4800   77.9230  218.8270 C   0  0  0  0  0  0  0  0  0  0  0  0
  139.7010   77.3060  218.1820 C   0  0  0  0  0  0  0  0  0  0  0  0
  140.9860   77.5860  218.9340 C   0  0  0  0  0  0  0  0  0  0  0  0
  140.6270   77.9400  220.4110 C   0  0  2  0  0  0  0  0  0  0  0  0
  141.8410   78.2870  221.1050 C   0  0  0  0  0  0  0  0  0  0  0  0
  141.8730   79.2850  222.1540 C   0  0  0  0  0  0  0  0  0  0  0  0
  140.6350   79.8640  222.5090 C   0  0  0  0  0  0  0  0  0  0  0  0
  140.5560   80.8540  223.4630 C   0  0  0  0  0  0  0  0  0  0  0  0
  141.6530   81.3170  224.1050 N   0  0  0  0  0  0  0  0  0  0  0  0
  142.8660   80.7830  223.7900 C   0  0  0  0  0  0  0  0  0  0  0  0
  142.9530   79.7830  222.8260 C   0  0  0  0  0  0  0  0  0  0  0  0
  140.2130   71.4730  223.4560 C   0  0  0  0  0  0  0  0  0  0  0  0
  139.5820   70.2550  223.3780 C   0  0  0  0  0  0  0  0  0  0  0  0
  139.4090   69.4160  224.4660 C   0  0  0  0  0  0  0  0  0  0  0  0
  139.8970   69.8330  225.6880 C   0  0  0  0  0  0  0  0  0  0  0  0
  139.7450   69.0330  226.7820 C   0  0  0  0  0  0  0  0  0  0  0  0
  140.2450   69.4760  228.0010 C   0  0  0  0  0  0  0  0  0  0  0  0
  140.1040   68.6960  229.1040 F   0  0  0  0  0  0  0  0  0  0  0  0
  140.8730   70.7020  228.0510 C   0  0  0  0  0  0  0  0  0  0  0  0
  141.0300   71.5140  226.9510 C   0  0  0  0  0  0  0  0  0  0  0  0
  140.5250   71.0530  225.7530 C   0  0  0  0  0  0  0  0  0  0  0  0
  140.6750   71.8420  224.6690 N   0  0  0  0  0  0  0  0  0  0  0  0
  139.1310   73.9400  223.0710 H   0  0  0  0  0  0  0  0  0  0  0  0
  140.8630   74.4510  220.7192 H   0  0  0  0  0  0  0  0  0  0  0  0
  139.1110   74.2234  220.3585 H   0  0  0  0  0  0  0  0  0  0  0  0
  137.5769   76.5817  220.2533 H   0  0  0  0  0  0  0  0  0  0  0  0
  137.7734   78.2395  220.8532 H   0  0  0  0  0  0  0  0  0  0  0  0
  137.5978   77.6614  218.2243 H   0  0  0  0  0  0  0  0  0  0  0  0
  138.6490   79.0092  218.8682 H   0  0  0  0  0  0  0  0  0  0  0  0
  139.5563   76.2167  218.1328 H   0  0  0  0  0  0  0  0  0  0  0  0
  139.8040   77.7577  217.1843 H   0  0  0  0  0  0  0  0  0  0  0  0
  141.6307   76.6950  218.9120 H   0  0  0  0  0  0  0  0  0  0  0  0
  141.5228   78.4237  218.4650 H   0  0  0  0  0  0  0  0  0  0  0  0
  140.1053   78.8672  220.6904 H   0  0  0  0  0  0  0  0  0  0  0  0
  142.2132   77.3555  221.5564 H   0  0  0  0  0  0  0  0  0  0  0  0
  142.4275   78.7718  220.3106 H   0  0  0  0  0  0  0  0  0  0  0  0
  139.7158   79.5175  222.0139 H   0  0  0  0  0  0  0  0  0  0  0  0
  139.5726   81.2805  223.7101 H   0  0  0  0  0  0  0  0  0  0  0  0
  143.7744   81.1413  224.2963 H   0  0  0  0  0  0  0  0  0  0  0  0
  143.9458   79.3711  222.5924 H   0  0  0  0  0  0  0  0  0  0  0  0
  139.1944   69.9297  222.4013 H   0  0  0  0  0  0  0  0  0  0  0  0
  138.8986   68.4474  224.3597 H   0  0  0  0  0  0  0  0  0  0  0  0
  139.2385   68.0598  226.7016 H   0  0  0  0  0  0  0  0  0  0  0  0
  141.2680   71.0483  229.0174 H   0  0  0  0  0  0  0  0  0  0  0  0
  141.5360   72.4880  227.0239 H   0  0  0  0  0  0  0  0  0  0  0  0
  1  2  2  0
  2  3  1  0
  3  4  1  0
  4  5  1  0
  5  6  2  0
  5  7  1  0
  7  8  1  0
  8  9  1  0
  9 10  1  0
 10 11  1  0
 11 12  1  0
 12 13  1  0
 13 14  1  0
 14 15  2  0
 15 16  1  0
 16 17  2  0
 17 18  1  0
 18 19  2  0
  2 20  1  0
 20 21  2  0
 21 22  1  0
 22 23  2  0
 23 24  1  0
 24 25  2  0
 25 26  1  0
 25 27  1  0
 27 28  2  0
 28 29  1  0
 29 30  2  0
 12  7  1  0
 19 14  1  0
 30 20  1  0
 29 23  1  0
  3 31  1  0
  4 32  1  0
  4 33  1  0
  8 34  1  0
  8 35  1  0
  9 36  1  0
  9 37  1  0
 10 38  1  0
 10 39  1  0
 11 40  1  0
 11 41  1  0
 12 42  1  6
 13 43  1  0
 13 44  1  0
 15 45  1  0
 16 46  1  0
 18 47  1  0
 19 48  1  0
 21 49  1  0
 22 50  1  0
 24 51  1  0
 27 52  1  0
 28 53  1  0
M  END
>  <smiles>  (5) 
O=C(NCC(=O)N1CCCCC1Cc1ccncc1)c1ccc2cc(F)ccc2n1

>  <score_type>  (5) 
oracle

>  <origin>  (5) 
autodockgpu

>  <m_score__min__energy>  (5) 
-8.9800000000000004

>  <m_primary>  (5) 
energy

>  <rmsd>  (5) 
2.0802643347100065

>  <m_score__min__rmsd>  (5) 
2.0802643347100065

>  <meeko>  (5) 
{"free_energy": -8.21, "intermolecular_energy": -10.0, "internal_energy": -1.93, "cluster_size": 27, "cluster_id": 2, "rank_in_cluster": 22}

>  <energy>  (5) 
-8.65

>  <cluster_rmsd>  (5) 
0.81

>  <cluster>  (5) 
1

$$$$

     RDKit          3D

 53 56  0  0  0  0  0  0  0  0999 V2000
  141.3060   71.9320  221.5280 O   0  0  0  0  0  0  0  0  0  0  0  0
  140.4280   72.2890  222.3370 C   0  0  0  0  0  0  0  0  0  0  0  0
  139.6200   73.4480  222.1970 N   0  0  0  0  0  0  0  0  0  0  0  0
  139.7850   74.3380  221.0280 C   0  0  0  0  0  0  0  0  0  0  0  0
  139.8800   75.7400  221.4610 C   0  0  0  0  0  0  0  0  0  0  0  0
  138.7810   76.2320  221.9400 O   0  0  0  0  0  0  0  0  0  0  0  0
  140.9630   76.6090  221.4320 N   0  0  0  0  0  0  0  0  0  0  0  0
  141.0820   77.4290  222.7090 C   0  0  0  0  0  0  0  0  0  0  0  0
  141.4260   78.8380  222.2810 C   0  0  0  0  0  0  0  0  0  0  0  0
  140.9240   79.1850  220.8960 C   0  0  0  0  0  0  0  0  0  0  0  0
  141.4650   78.2730  219.8140 C   0  0  0  0  0  0  0  0  0  0  0  0
  141.9190   76.9350  220.4760 C   0  0  2  0  0  0  0  0  0  0  0  0
  142.5080   76.1000  219.4610 C   0  0  0  0  0  0  0  0  0  0  0  0
  143.2100   74.8750  219.7800 C   0  0  0  0  0  0  0  0  0  0  0  0
  144.4530   75.0150  220.4380 C   0  0  0  0  0  0  0  0  0  0  0  0
  145.2240   73.9170  220.7490 C   0  0  0  0  0  0  0  0  0  0  0  0
  144.8330   72.6580  220.4440 N   0  0  0  0  0  0  0  0  0  0  0  0
  143.6410   72.4830  219.8090 C   0  0  0  0  0  0  0  0  0  0  0  0
  142.8570   73.5870  219.4900 C   0  0  0  0  0  0  0  0  0  0  0  0
  140.2100   71.4440  223.5310 C   0  0  0  0  0  0  0  0  0  0  0  0
  139.5240   70.2560  223.4580 C   0  0  0  0  0  0  0  0  0  0  0  0
  139.2990   69.4380  224.5520 C   0  0  0  0  0  0  0  0  0  0  0  0
  139.7940   69.8450  225.7760 C   0  0  0  0  0  0  0  0  0  0  0  0
  139.5930   69.0650  226.8760 C   0  0  0  0  0  0  0  0  0  0  0  0
  140.1010   69.4970  228.0950 C   0  0  0  0  0  0  0  0  0  0  0  0
  139.9120   68.7370  229.2050 F   0  0  0  0  0  0  0  0  0  0  0  0
  140.7860   70.6930  228.1400 C   0  0  0  0  0  0  0  0  0  0  0  0
  140.9920   71.4850  227.0330 C   0  0  0  0  0  0  0  0  0  0  0  0
  140.4780   71.0340  225.8340 C   0  0  0  0  0  0  0  0  0  0  0  0
  140.6770   71.8040  224.7440 N   0  0  0  0  0  0  0  0  0  0  0  0
  138.8870   73.7320  222.8840 H   0  0  0  0  0  0  0  0  0  0  0  0
  140.7033   74.0620  220.4890 H   0  0  0  0  0  0  0  0  0  0  0  0
  138.9118   74.2265  220.3684 H   0  0  0  0  0  0  0  0  0  0  0  0
  140.1284   77.4200  223.2572 H   0  0  0  0  0  0  0  0  0  0  0  0
  141.8517   77.0162  223.3778 H   0  0  0  0  0  0  0  0  0  0  0  0
  140.9785   79.5399  223.0001 H   0  0  0  0  0  0  0  0  0  0  0  0
  142.5233   78.9111  222.2564 H   0  0  0  0  0  0  0  0  0  0  0  0
  139.8263   79.1141  220.8951 H   0  0  0  0  0  0  0  0  0  0  0  0
  141.2751   80.2024  220.6687 H   0  0  0  0  0  0  0  0  0  0  0  0
  140.6791   78.0716  219.0712 H   0  0  0  0  0  0  0  0  0  0  0  0
  142.3167   78.7516  219.3086 H   0  0  0  0  0  0  0  0  0  0  0  0
  142.7867   76.8689  221.1489 H   0  0  0  0  0  0  0  0  0  0  0  0
  141.6889   75.8166  218.7837 H   0  0  0  0  0  0  0  0  0  0  0  0
  143.3214   76.7377  219.0846 H   0  0  0  0  0  0  0  0  0  0  0  0
  144.8113   76.0197  220.7067 H   0  0  0  0  0  0  0  0  0  0  0  0
  146.1861   74.0680  221.2604 H   0  0  0  0  0  0  0  0  0  0  0  0
  143.2988   71.4705  219.5488 H   0  0  0  0  0  0  0  0  0  0  0  0
  141.9001   73.4137  218.9760 H   0  0  0  0  0  0  0  0  0  0  0  0
  139.1334   69.9384  222.4800 H   0  0  0  0  0  0  0  0  0  0  0  0
  138.7437   68.4939  224.4500 H   0  0  0  0  0  0  0  0  0  0  0  0
  139.0417   68.1161  226.8003 H   0  0  0  0  0  0  0  0  0  0  0  0
  141.1871   71.0304  229.1071 H   0  0  0  0  0  0  0  0  0  0  0  0
  141.5419   72.4352  227.1010 H   0  0  0  0  0  0  0  0  0  0  0  0
  1  2  2  0
  2  3  1  0
  3  4  1  0
  4  5  1  0
  5  6  2  0
  5  7  1  0
  7  8  1  0
  8  9  1  0
  9 10  1  0
 10 11  1  0
 11 12  1  0
 12 13  1  0
 13 14  1  0
 14 15  2  0
 15 16  1  0
 16 17  2  0
 17 18  1  0
 18 19  2  0
  2 20  1  0
 20 21  2  0
 21 22  1  0
 22 23  2  0
 23 24  1  0
 24 25  2  0
 25 26  1  0
 25 27  1  0
 27 28  2  0
 28 29  1  0
 29 30  2  0
 12  7  1  0
 19 14  1  0
 30 20  1  0
 29 23  1  0
  3 31  1  0
  4 32  1  0
  4 33  1  0
  8 34  1  0
  8 35  1  0
  9 36  1  0
  9 37  1  0
 10 38  1  0
 10 39  1  0
 11 40  1  0
 11 41  1  0
 12 42  1  1
 13 43  1  0
 13 44  1  0
 15 45  1  0
 16 46  1  0
 18 47  1  0
 19 48  1  0
 21 49  1  0
 22 50  1  0
 24 51  1  0
 27 52  1  0
 28 53  1  0
M  END
>  <smiles>  (6) 
O=C(NCC(=O)N1CCCCC1Cc1ccncc1)c1ccc2cc(F)ccc2n1

>  <score_type>  (6) 
oracle

>  <origin>  (6) 
autodockgpu

>  <m_score__min__energy>  (6) 
-8.9800000000000004

>  <m_primary>  (6) 
energy

>  <rmsd>  (6) 
2.755780292944319

>  <m_score__min__rmsd>  (6) 
2.755780292944319

>  <meeko>  (6) 
{"free_energy": -8.43, "intermolecular_energy": -10.22, "internal_energy": -1.8, "cluster_size": 13, "cluster_id": 1, "rank_in_cluster": 10}

>  <energy>  (6) 
-8.58

>  <cluster_rmsd>  (6) 
0.82

>  <cluster>  (6) 
1

$$$$

     RDKit          3D

 53 56  0  0  0  0  0  0  0  0999 V2000
  139.6230   71.2530  220.9880 O   0  0  0  0  0  0  0  0  0  0  0  0
  139.6280   71.8690  222.0710 C   0  0  0  0  0  0  0  0  0  0  0  0
  139.5420   73.2810  222.2000 N   0  0  0  0  0  0  0  0  0  0  0  0
  139.4380   74.1360  220.9980 C   0  0  0  0  0  0  0  0  0  0  0  0
  140.0630   75.4440  221.2450 C   0  0  0  0  0  0  0  0  0  0  0  0
  140.2280   75.7360  222.4980 O   0  0  0  0  0  0  0  0  0  0  0  0
  140.4990   76.4070  220.3440 N   0  0  0  0  0  0  0  0  0  0  0  0
  139.8500   76.2540  218.9750 C   0  0  0  0  0  0  0  0  0  0  0  0
  140.9460   76.4770  217.9570 C   0  0  0  0  0  0  0  0  0  0  0  0
  142.3250   76.1260  218.4710 C   0  0  0  0  0  0  0  0  0  0  0  0
  142.7280   76.9120  219.7010 C   0  0  0  0  0  0  0  0  0  0  0  0
  141.4340   77.4340  220.4000 C   0  0  2  0  0  0  0  0  0  0  0  0
  141.8190   78.2500  221.5230 C   0  0  0  0  0  0  0  0  0  0  0  0
  140.8520   78.9800  222.3150 C   0  0  0  0  0  0  0  0  0  0  0  0
  141.3370   80.1010  223.0230 C   0  0  0  0  0  0  0  0  0  0  0  0
  140.5120   80.8420  223.8420 C   0  0  0  0  0  0  0  0  0  0  0  0
  139.2050   80.5340  224.0060 N   0  0  0  0  0  0  0  0  0  0  0  0
  138.7000   79.4580  223.3390 C   0  0  0  0  0  0  0  0  0  0  0  0
  139.5280   78.7060  222.5120 C   0  0  0  0  0  0  0  0  0  0  0  0
  139.7300   71.0750  223.3140 C   0  0  0  0  0  0  0  0  0  0  0  0
  139.2790   69.7790  223.3800 C   0  0  0  0  0  0  0  0  0  0  0  0
  139.3570   69.0030  224.5240 C   0  0  0  0  0  0  0  0  0  0  0  0
  139.9180   69.5690  225.6520 C   0  0  0  0  0  0  0  0  0  0  0  0
  140.0120   68.8360  226.7970 C   0  0  0  0  0  0  0  0  0  0  0  0
  140.5810   69.4290  227.9190 C   0  0  0  0  0  0  0  0  0  0  0  0
  140.6850   68.7180  229.0710 F   0  0  0  0  0  0  0  0  0  0  0  0
  141.0250   70.7310  227.8240 C   0  0  0  0  0  0  0  0  0  0  0  0
  140.9320   71.4760  226.6710 C   0  0  0  0  0  0  0  0  0  0  0  0
  140.3650   70.8660  225.5720 C   0  0  0  0  0  0  0  0  0  0  0  0
  140.2710   71.5900  224.4370 N   0  0  0  0  0  0  0  0  0  0  0  0
  139.5450   73.7820  223.1150 H   0  0  0  0  0  0  0  0  0  0  0  0
  139.9482   73.6433  220.1572 H   0  0  0  0  0  0  0  0  0  0  0  0
  138.3752   74.2874  220.7581 H   0  0  0  0  0  0  0  0  0  0  0  0
  139.4277   75.2443  218.8647 H   0  0  0  0  0  0  0  0  0  0  0  0
  139.0278   76.9722  218.8404 H   0  0  0  0  0  0  0  0  0  0  0  0
  140.7341   75.8550  217.0748 H   0  0  0  0  0  0  0  0  0  0  0  0
  140.9527   77.5506  217.7174 H   0  0  0  0  0  0  0  0  0  0  0  0
  142.3414   75.0549  218.7211 H   0  0  0  0  0  0  0  0  0  0  0  0
  143.0414   76.3790  217.6756 H   0  0  0  0  0  0  0  0  0  0  0  0
  143.2859   76.2617  220.3908 H   0  0  0  0  0  0  0  0  0  0  0  0
  143.3696   77.7583  219.4144 H   0  0  0  0  0  0  0  0  0  0  0  0
  140.7885   78.2062  219.9561 H   0  0  0  0  0  0  0  0  0  0  0  0
  142.3457   77.5825  222.2209 H   0  0  0  0  0  0  0  0  0  0  0  0
  142.3744   79.0639  221.0339 H   0  0  0  0  0  0  0  0  0  0  0  0
  142.3936   80.3887  222.9191 H   0  0  0  0  0  0  0  0  0  0  0  0
  140.9282   81.7082  224.3772 H   0  0  0  0  0  0  0  0  0  0  0  0
  137.6407   79.1850  223.4543 H   0  0  0  0  0  0  0  0  0  0  0  0
  139.0926   77.8427  221.9874 H   0  0  0  0  0  0  0  0  0  0  0  0
  138.8331   69.3351  222.4777 H   0  0  0  0  0  0  0  0  0  0  0  0
  138.9839   67.9683  224.5342 H   0  0  0  0  0  0  0  0  0  0  0  0
  139.6463   67.7992  226.8330 H   0  0  0  0  0  0  0  0  0  0  0  0
  141.4753   71.1966  228.7131 H   0  0  0  0  0  0  0  0  0  0  0  0
  141.2944   72.5137  226.6278 H   0  0  0  0  0  0  0  0  0  0  0  0
  1  2  2  0
  2  3  1  0
  3  4  1  0
  4  5  1  0
  5  6  2  0
  5  7  1  0
  7  8  1  0
  8  9  1  0
  9 10  1  0
 10 11  1  0
 11 12  1  0
 12 13  1  0
 13 14  1  0
 14 15  2  0
 15 16  1  0
 16 17  2  0
 17 18  1  0
 18 19  2  0
  2 20  1  0
 20 21  2  0
 21 22  1  0
 22 23  2  0
 23 24  1  0
 24 25  2  0
 25 26  1  0
 25 27  1  0
 27 28  2  0
 28 29  1  0
 29 30  2  0
 12  7  1  0
 19 14  1  0
 30 20  1  0
 29 23  1  0
  3 31  1  0
  4 32  1  0
  4 33  1  0
  8 34  1  0
  8 35  1  0
  9 36  1  0
  9 37  1  0
 10 38  1  0
 10 39  1  0
 11 40  1  0
 11 41  1  0
 12 42  1  6
 13 43  1  0
 13 44  1  0
 15 45  1  0
 16 46  1  0
 18 47  1  0
 19 48  1  0
 21 49  1  0
 22 50  1  0
 24 51  1  0
 27 52  1  0
 28 53  1  0
M  END
>  <smiles>  (7) 
O=C(NCC(=O)N1CCCCC1Cc1ccncc1)c1ccc2cc(F)ccc2n1

>  <score_type>  (7) 
oracle

>  <origin>  (7) 
autodockgpu

>  <m_score__min__energy>  (7) 
-8.9800000000000004

>  <m_primary>  (7) 
energy

>  <rmsd>  (7) 
1.529904932997819

>  <m_score__min__rmsd>  (7) 
1.529904932997819

>  <meeko>  (7) 
{"free_energy": -7.84, "intermolecular_energy": -9.63, "internal_energy": -2.1, "cluster_size": 27, "cluster_id": 2, "rank_in_cluster": 25}

>  <energy>  (7) 
-8.58

>  <cluster_rmsd>  (7) 
1.08

>  <cluster>  (7) 
1

$$$$

     RDKit          3D

 53 56  0  0  0  0  0  0  0  0999 V2000
  138.7560   70.9710  221.2730 O   0  0  0  0  0  0  0  0  0  0  0  0
  139.1430   71.5500  222.3060 C   0  0  0  0  0  0  0  0  0  0  0  0
  139.3780   72.9470  222.4130 N   0  0  0  0  0  0  0  0  0  0  0  0
  139.1680   73.8310  221.2470 C   0  0  0  0  0  0  0  0  0  0  0  0
  140.2080   74.8690  221.1980 C   0  0  0  0  0  0  0  0  0  0  0  0
  140.7890   75.1040  222.3330 O   0  0  0  0  0  0  0  0  0  0  0  0
  140.6560   75.6310  220.1270 N   0  0  0  0  0  0  0  0  0  0  0  0
  140.8530   74.7980  218.8670 C   0  0  0  0  0  0  0  0  0  0  0  0
  142.1460   75.2710  218.2410 C   0  0  0  0  0  0  0  0  0  0  0  0
  143.1260   75.8420  219.2430 C   0  0  0  0  0  0  0  0  0  0  0  0
  142.5770   77.0220  220.0180 C   0  0  0  0  0  0  0  0  0  0  0  0
  141.0180   76.9630  219.9690 C   0  0  2  0  0  0  0  0  0  0  0  0
  140.4960   78.1300  220.6340 C   0  0  0  0  0  0  0  0  0  0  0  0
  141.2340   78.8230  221.6700 C   0  0  0  0  0  0  0  0  0  0  0  0
  141.1870   78.2560  222.9620 C   0  0  0  0  0  0  0  0  0  0  0  0
  141.8160   78.8570  224.0300 C   0  0  0  0  0  0  0  0  0  0  0  0
  142.5080   80.0120  223.8940 N   0  0  0  0  0  0  0  0  0  0  0  0
  142.5760   80.5900  222.6620 C   0  0  0  0  0  0  0  0  0  0  0  0
  141.9420   79.9880  221.5800 C   0  0  0  0  0  0  0  0  0  0  0  0
  139.3730   70.7240  223.5110 C   0  0  0  0  0  0  0  0  0  0  0  0
  138.9950   69.4050  223.5650 C   0  0  0  0  0  0  0  0  0  0  0  0
  139.1930   68.6000  224.6740 C   0  0  0  0  0  0  0  0  0  0  0  0
  139.8030   69.1610  225.7790 C   0  0  0  0  0  0  0  0  0  0  0  0
  140.0160   68.3990  226.8890 C   0  0  0  0  0  0  0  0  0  0  0  0
  140.6320   68.9870  227.9870 C   0  0  0  0  0  0  0  0  0  0  0  0
  140.8540   68.2470  229.1050 F   0  0  0  0  0  0  0  0  0  0  0  0
  141.0020   70.3120  227.9070 C   0  0  0  0  0  0  0  0  0  0  0  0
  140.7890   71.0870  226.7890 C   0  0  0  0  0  0  0  0  0  0  0  0
  140.1770   70.4810  225.7120 C   0  0  0  0  0  0  0  0  0  0  0  0
  139.9660   71.2330  224.6120 N   0  0  0  0  0  0  0  0  0  0  0  0
  139.7010   73.4160  223.2870 H   0  0  0  0  0  0  0  0  0  0  0  0
  139.2100   73.2318  220.3255 H   0  0  0  0  0  0  0  0  0  0  0  0
  138.1844   74.3149  221.3382 H   0  0  0  0  0  0  0  0  0  0  0  0
  140.9225   73.7306  219.1235 H   0  0  0  0  0  0  0  0  0  0  0  0
  140.0072   74.9168  218.1738 H   0  0  0  0  0  0  0  0  0  0  0  0
  142.6215   74.4173  217.7360 H   0  0  0  0  0  0  0  0  0  0  0  0
  141.8905   76.0794  217.5402 H   0  0  0  0  0  0  0  0  0  0  0  0
  143.3946   75.0502  219.9578 H   0  0  0  0  0  0  0  0  0  0  0  0
  143.9962   76.2035  218.6755 H   0  0  0  0  0  0  0  0  0  0  0  0
  142.9178   76.9711  221.0626 H   0  0  0  0  0  0  0  0  0  0  0  0
  142.9332   77.9635  219.5745 H   0  0  0  0  0  0  0  0  0  0  0  0
  140.4454   77.1322  219.0452 H   0  0  0  0  0  0  0  0  0  0  0  0
  140.3036   78.8723  219.8454 H   0  0  0  0  0  0  0  0  0  0  0  0
  139.6485   77.7123  221.1973 H   0  0  0  0  0  0  0  0  0  0  0  0
  140.6375   77.3161  223.1189 H   0  0  0  0  0  0  0  0  0  0  0  0
  141.7540   78.3847  225.0215 H   0  0  0  0  0  0  0  0  0  0  0  0
  143.1306   81.5298  222.5234 H   0  0  0  0  0  0  0  0  0  0  0  0
  142.0147   80.4771  220.5974 H   0  0  0  0  0  0  0  0  0  0  0  0
  138.5097   68.9651  222.6813 H   0  0  0  0  0  0  0  0  0  0  0  0
  138.8746   67.5471  224.6750 H   0  0  0  0  0  0  0  0  0  0  0  0
  139.7075   67.3435  226.9149 H   0  0  0  0  0  0  0  0  0  0  0  0
  141.4910   70.7726  228.7781 H   0  0  0  0  0  0  0  0  0  0  0  0
  141.0937   72.1434  226.7564 H   0  0  0  0  0  0  0  0  0  0  0  0
  1  2  2  0
  2  3  1  0
  3  4  1  0
  4  5  1  0
  5  6  2  0
  5  7  1  0
  7  8  1  0
  8  9  1  0
  9 10  1  0
 10 11  1  0
 11 12  1  0
 12 13  1  0
 13 14  1  0
 14 15  2  0
 15 16  1  0
 16 17  2  0
 17 18  1  0
 18 19  2  0
  2 20  1  0
 20 21  2  0
 21 22  1  0
 22 23  2  0
 23 24  1  0
 24 25  2  0
 25 26  1  0
 25 27  1  0
 27 28  2  0
 28 29  1  0
 29 30  2  0
 12  7  1  0
 19 14  1  0
 30 20  1  0
 29 23  1  0
  3 31  1  0
  4 32  1  0
  4 33  1  0
  8 34  1  0
  8 35  1  0
  9 36  1  0
  9 37  1  0
 10 38  1  0
 10 39  1  0
 11 40  1  0
 11 41  1  0
 12 42  1  6
 13 43  1  0
 13 44  1  0
 15 45  1  0
 16 46  1  0
 18 47  1  0
 19 48  1  0
 21 49  1  0
 22 50  1  0
 24 51  1  0
 27 52  1  0
 28 53  1  0
M  END
>  <smiles>  (8) 
O=C(NCC(=O)N1CCCCC1Cc1ccncc1)c1ccc2cc(F)ccc2n1

>  <score_type>  (8) 
oracle

>  <origin>  (8) 
autodockgpu

>  <m_score__min__energy>  (8) 
-8.9800000000000004

>  <m_primary>  (8) 
energy

>  <rmsd>  (8) 
1.3965935823362647

>  <m_score__min__rmsd>  (8) 
1.3965935823362647

>  <meeko>  (8) 
{"free_energy": -8.4, "intermolecular_energy": -10.19, "internal_energy": -2.17, "cluster_size": 27, "cluster_id": 2, "rank_in_cluster": 9}

>  <energy>  (8) 
-8.54

>  <cluster_rmsd>  (8) 
1.03

>  <cluster>  (8) 
1

$$$$

     RDKit          3D

 53 56  0  0  0  0  0  0  0  0999 V2000
  137.1910   71.0310  222.7960 O   0  0  0  0  0  0  0  0  0  0  0  0
  138.3630   71.2210  223.1750 C   0  0  0  0  0  0  0  0  0  0  0  0
  139.2320   72.2150  222.6520 N   0  0  0  0  0  0  0  0  0  0  0  0
  138.7720   73.1210  221.5790 C   0  0  0  0  0  0  0  0  0  0  0  0
  139.4130   74.4380  221.7100 C   0  0  0  0  0  0  0  0  0  0  0  0
  140.5850   74.4150  222.2640 O   0  0  0  0  0  0  0  0  0  0  0  0
  138.9530   75.6930  221.3350 N   0  0  0  0  0  0  0  0  0  0  0  0
  139.9920   76.4780  220.5450 C   0  0  0  0  0  0  0  0  0  0  0  0
  139.9410   77.8970  221.0670 C   0  0  0  0  0  0  0  0  0  0  0  0
  139.4710   77.9950  222.5010 C   0  0  0  0  0  0  0  0  0  0  0  0
  138.0890   77.4150  222.7240 C   0  0  0  0  0  0  0  0  0  0  0  0
  137.7850   76.4080  221.5700 C   0  0  2  0  0  0  0  0  0  0  0  0
  136.4400   75.9190  221.7350 C   0  0  0  0  0  0  0  0  0  0  0  0
  135.9660   75.3690  222.9880 C   0  0  0  0  0  0  0  0  0  0  0  0
  135.9170   73.9600  223.0780 C   0  0  0  0  0  0  0  0  0  0  0  0
  135.4430   73.3310  224.2080 C   0  0  0  0  0  0  0  0  0  0  0  0
  135.0020   74.0280  225.2810 N   0  0  0  0  0  0  0  0  0  0  0  0
  135.0330   75.3890  225.2320 C   0  0  0  0  0  0  0  0  0  0  0  0
  135.5110   76.0300  224.0940 C   0  0  0  0  0  0  0  0  0  0  0  0
  138.8880   70.3490  224.2470 C   0  0  0  0  0  0  0  0  0  0  0  0
  138.7290   68.9850  224.2100 C   0  0  0  0  0  0  0  0  0  0  0  0
  139.2060   68.1360  225.1940 C   0  0  0  0  0  0  0  0  0  0  0  0
  139.8750   68.6970  226.2640 C   0  0  0  0  0  0  0  0  0  0  0  0
  140.3600   67.8920  227.2520 C   0  0  0  0  0  0  0  0  0  0  0  0
  141.0290   68.4820  228.3180 C   0  0  0  0  0  0  0  0  0  0  0  0
  141.5200   67.7000  229.3140 F   0  0  0  0  0  0  0  0  0  0  0  0
  141.1750   69.8530  228.3290 C   0  0  0  0  0  0  0  0  0  0  0  0
  140.6880   70.6710  227.3350 C   0  0  0  0  0  0  0  0  0  0  0  0
  140.0270   70.0620  226.2880 C   0  0  0  0  0  0  0  0  0  0  0  0
  139.5480   70.8560  225.3090 N   0  0  0  0  0  0  0  0  0  0  0  0
  140.2120   72.3620  222.9820 H   0  0  0  0  0  0  0  0  0  0  0  0
  139.0317   72.6871  220.6021 H   0  0  0  0  0  0  0  0  0  0  0  0
  137.6820   73.2451  221.6598 H   0  0  0  0  0  0  0  0  0  0  0  0
  140.9931   76.0502  220.7026 H   0  0  0  0  0  0  0  0  0  0  0  0
  139.7838   76.4419  219.4655 H   0  0  0  0  0  0  0  0  0  0  0  0
  140.9505   78.3289  221.0011 H   0  0  0  0  0  0  0  0  0  0  0  0
  139.2128   78.4432  220.4495 H   0  0  0  0  0  0  0  0  0  0  0  0
  140.1838   77.4521  223.1391 H   0  0  0  0  0  0  0  0  0  0  0  0
  139.4179   79.0646  222.7522 H   0  0  0  0  0  0  0  0  0  0  0  0
  138.0572   76.8922  223.6913 H   0  0  0  0  0  0  0  0  0  0  0  0
  137.3384   78.2191  222.7315 H   0  0  0  0  0  0  0  0  0  0  0  0
  137.6303   76.7262  220.5285 H   0  0  0  0  0  0  0  0  0  0  0  0
  135.7756   76.7636  221.4999 H   0  0  0  0  0  0  0  0  0  0  0  0
  136.4372   75.0340  221.0817 H   0  0  0  0  0  0  0  0  0  0  0  0
  136.2643   73.3532  222.2288 H   0  0  0  0  0  0  0  0  0  0  0  0
  135.4223   72.2316  224.2392 H   0  0  0  0  0  0  0  0  0  0  0  0
  134.6808   75.9797  226.0905 H   0  0  0  0  0  0  0  0  0  0  0  0
  135.5235   77.1299  224.0837 H   0  0  0  0  0  0  0  0  0  0  0  0
  138.1954   68.5448  223.3547 H   0  0  0  0  0  0  0  0  0  0  0  0
  139.0568   67.0483  225.1257 H   0  0  0  0  0  0  0  0  0  0  0  0
  140.2250   66.8013  227.2065 H   0  0  0  0  0  0  0  0  0  0  0  0
  141.7067   70.3157  229.1735 H   0  0  0  0  0  0  0  0  0  0  0  0
  140.8199   71.7624  227.3736 H   0  0  0  0  0  0  0  0  0  0  0  0
  1  2  2  0
  2  3  1  0
  3  4  1  0
  4  5  1  0
  5  6  2  0
  5  7  1  0
  7  8  1  0
  8  9  1  0
  9 10  1  0
 10 11  1  0
 11 12  1  0
 12 13  1  0
 13 14  1  0
 14 15  2  0
 15 16  1  0
 16 17  2  0
 17 18  1  0
 18 19  2  0
  2 20  1  0
 20 21  2  0
 21 22  1  0
 22 23  2  0
 23 24  1  0
 24 25  2  0
 25 26  1  0
 25 27  1  0
 27 28  2  0
 28 29  1  0
 29 30  2  0
 12  7  1  0
 19 14  1  0
 30 20  1  0
 29 23  1  0
  3 31  1  0
  4 32  1  0
  4 33  1  0
  8 34  1  0
  8 35  1  0
  9 36  1  0
  9 37  1  0
 10 38  1  0
 10 39  1  0
 11 40  1  0
 11 41  1  0
 12 42  1  6
 13 43  1  0
 13 44  1  0
 15 45  1  0
 16 46  1  0
 18 47  1  0
 19 48  1  0
 21 49  1  0
 22 50  1  0
 24 51  1  0
 27 52  1  0
 28 53  1  0
M  END
>  <smiles>  (9) 
O=C(NCC(=O)N1CCCCC1Cc1ccncc1)c1ccc2cc(F)ccc2n1

>  <score_type>  (9) 
oracle

>  <origin>  (9) 
autodockgpu

>  <m_score__min__energy>  (9) 
-8.9800000000000004

>  <m_primary>  (9) 
energy

>  <rmsd>  (9) 
2.7370449462694535

>  <m_score__min__rmsd>  (9) 
2.7370449462694535

>  <meeko>  (9) 
{"free_energy": -7.17, "intermolecular_energy": -8.96, "internal_energy": -2.32, "cluster_size": 2, "cluster_id": 4, "rank_in_cluster": 2}

>  <energy>  (9) 
-8.53

>  <cluster_rmsd>  (9) 
1.03

>  <cluster>  (9) 
1

$$$$

     RDKit          3D

 53 56  0  0  0  0  0  0  0  0999 V2000
  141.3230   72.5180  221.8550 O   0  0  0  0  0  0  0  0  0  0  0  0
  140.2810   72.5380  222.5380 C   0  0  0  0  0  0  0  0  0  0  0  0
  139.1840   73.4140  222.3180 N   0  0  0  0  0  0  0  0  0  0  0  0
  139.2220   74.3960  221.2140 C   0  0  0  0  0  0  0  0  0  0  0  0
  139.9980   75.5800  221.6090 C   0  0  0  0  0  0  0  0  0  0  0  0
  139.6050   76.1410  222.7100 O   0  0  0  0  0  0  0  0  0  0  0  0
  141.0810   76.1840  220.9840 N   0  0  0  0  0  0  0  0  0  0  0  0
  141.3860   77.5620  221.5560 C   0  0  0  0  0  0  0  0  0  0  0  0
  141.6910   78.4560  220.3750 C   0  0  0  0  0  0  0  0  0  0  0  0
  141.0120   78.0170  219.0960 C   0  0  0  0  0  0  0  0  0  0  0  0
  141.3850   76.6120  218.6680 C   0  0  0  0  0  0  0  0  0  0  0  0
  141.9040   75.8360  219.9180 C   0  0  2  0  0  0  0  0  0  0  0  0
  142.3360   74.5280  219.4960 C   0  0  0  0  0  0  0  0  0  0  0  0
  143.7090   74.0880  219.6280 C   0  0  0  0  0  0  0  0  0  0  0  0
  144.2890   73.4860  218.4900 C   0  0  0  0  0  0  0  0  0  0  0  0
  145.5740   72.9920  218.5180 C   0  0  0  0  0  0  0  0  0  0  0  0
  146.3410   73.0600  219.6310 N   0  0  0  0  0  0  0  0  0  0  0  0
  145.8160   73.6340  220.7500 C   0  0  0  0  0  0  0  0  0  0  0  0
  144.5180   74.1340  220.7280 C   0  0  0  0  0  0  0  0  0  0  0  0
  140.1770   71.5810  223.6600 C   0  0  0  0  0  0  0  0  0  0  0  0
  139.5870   70.3500  223.5060 C   0  0  0  0  0  0  0  0  0  0  0  0
  139.4710   69.4270  224.5320 C   0  0  0  0  0  0  0  0  0  0  0  0
  139.9760   69.7710  225.7710 C   0  0  0  0  0  0  0  0  0  0  0  0
  139.8810   68.8870  226.8050 C   0  0  0  0  0  0  0  0  0  0  0  0
  140.3970   69.2570  228.0410 C   0  0  0  0  0  0  0  0  0  0  0  0
  140.3120   68.3940  229.0870 F   0  0  0  0  0  0  0  0  0  0  0  0
  140.9830   70.4980  228.1680 C   0  0  0  0  0  0  0  0  0  0  0  0
  141.0830   71.3940  227.1280 C   0  0  0  0  0  0  0  0  0  0  0  0
  140.5630   71.0040  225.9110 C   0  0  0  0  0  0  0  0  0  0  0  0
  140.6580   71.8770  224.8860 N   0  0  0  0  0  0  0  0  0  0  0  0
  138.3180   73.4170  222.9000 H   0  0  0  0  0  0  0  0  0  0  0  0
  139.6902   73.9330  220.3328 H   0  0  0  0  0  0  0  0  0  0  0  0
  138.1937   74.7060  220.9762 H   0  0  0  0  0  0  0  0  0  0  0  0
  140.5159   77.9456  222.1089 H   0  0  0  0  0  0  0  0  0  0  0  0
  142.2327   77.5245  222.2572 H   0  0  0  0  0  0  0  0  0  0  0  0
  141.3564   79.4761  220.6147 H   0  0  0  0  0  0  0  0  0  0  0  0
  142.7758   78.4036  220.2005 H   0  0  0  0  0  0  0  0  0  0  0  0
  139.9232   78.0578  219.2475 H   0  0  0  0  0  0  0  0  0  0  0  0
  141.3470   78.6985  218.3002 H   0  0  0  0  0  0  0  0  0  0  0  0
  140.5016   76.1028  218.2554 H   0  0  0  0  0  0  0  0  0  0  0  0
  142.1668   76.6481  217.8950 H   0  0  0  0  0  0  0  0  0  0  0  0
  142.8538   76.0798  220.4165 H   0  0  0  0  0  0  0  0  0  0  0  0
  141.7272   73.8068  220.0610 H   0  0  0  0  0  0  0  0  0  0  0  0
  142.2204   74.5908  218.4039 H   0  0  0  0  0  0  0  0  0  0  0  0
  143.7025   73.4101  217.5625 H   0  0  0  0  0  0  0  0  0  0  0  0
  145.9887   72.5292  217.6104 H   0  0  0  0  0  0  0  0  0  0  0  0
  146.4173   73.7018  221.6686 H   0  0  0  0  0  0  0  0  0  0  0  0
  144.1214   74.5914  221.6464 H   0  0  0  0  0  0  0  0  0  0  0  0
  139.1861   70.0837  222.5169 H   0  0  0  0  0  0  0  0  0  0  0  0
  138.9919   68.4509  224.3656 H   0  0  0  0  0  0  0  0  0  0  0  0
  139.4071   67.9044  226.6640 H   0  0  0  0  0  0  0  0  0  0  0  0
  141.3906   70.7864  229.1482 H   0  0  0  0  0  0  0  0  0  0  0  0
  141.5567   72.3778  227.2613 H   0  0  0  0  0  0  0  0  0  0  0  0
  1  2  2  0
  2  3  1  0
  3  4  1  0
  4  5  1  0
  5  6  2  0
  5  7  1  0
  7  8  1  0
  8  9  1  0
  9 10  1  0
 10 11  1  0
 11 12  1  0
 12 13  1  0
 13 14  1  0
 14 15  2  0
 15 16  1  0
 16 17  2  0
 17 18  1  0
 18 19  2  0
  2 20  1  0
 20 21  2  0
 21 22  1  0
 22 23  2  0
 23 24  1  0
 24 25  2  0
 25 26  1  0
 25 27  1  0
 27 28  2  0
 28 29  1  0
 29 30  2  0
 12  7  1  0
 19 14  1  0
 30 20  1  0
 29 23  1  0
  3 31  1  0
  4 32  1  0
  4 33  1  0
  8 34  1  0
  8 35  1  0
  9 36  1  0
  9 37  1  0
 10 38  1  0
 10 39  1  0
 11 40  1  0
 11 41  1  0
 12 42  1  1
 13 43  1  0
 13 44  1  0
 15 45  1  0
 16 46  1  0
 18 47  1  0
 19 48  1  0
 21 49  1  0
 22 50  1  0
 24 51  1  0
 27 52  1  0
 28 53  1  0
M  END
>  <smiles>  (10) 
O=C(NCC(=O)N1CCCCC1Cc1ccncc1)c1ccc2cc(F)ccc2n1

>  <score_type>  (10) 
oracle

>  <origin>  (10) 
autodockgpu

>  <m_score__min__energy>  (10) 
-8.9800000000000004

>  <m_primary>  (10) 
energy

>  <rmsd>  (10) 
2.4667874788145094

>  <m_score__min__rmsd>  (10) 
2.4667874788145094

>  <meeko>  (10) 
{"free_energy": -8.84, "intermolecular_energy": -10.63, "internal_energy": -1.59, "cluster_size": 13, "cluster_id": 1, "rank_in_cluster": 2}

>  <energy>  (10) 
-8.43

>  <cluster_rmsd>  (10) 
0.85

>  <cluster>  (10) 
1

$$$$

     RDKit          3D

 53 56  0  0  0  0  0  0  0  0999 V2000
  140.9970   72.3600  221.6290 O   0  0  0  0  0  0  0  0  0  0  0  0
  140.0130   72.3920  222.3930 C   0  0  0  0  0  0  0  0  0  0  0  0
  138.8850   73.2400  222.2280 N   0  0  0  0  0  0  0  0  0  0  0  0
  138.8150   74.1760  221.0860 C   0  0  0  0  0  0  0  0  0  0  0  0
  139.9630   75.0940  221.1070 C   0  0  0  0  0  0  0  0  0  0  0  0
  140.4750   75.2940  222.2810 O   0  0  0  0  0  0  0  0  0  0  0  0
  140.5760   75.7770  220.0640 N   0  0  0  0  0  0  0  0  0  0  0  0
  140.7760   74.8990  218.8360 C   0  0  0  0  0  0  0  0  0  0  0  0
  142.1600   75.2120  218.3100 C   0  0  0  0  0  0  0  0  0  0  0  0
  143.1150   75.6940  219.3790 C   0  0  0  0  0  0  0  0  0  0  0  0
  142.6420   76.9460  220.0890 C   0  0  0  0  0  0  0  0  0  0  0  0
  141.0960   77.0580  219.9160 C   0  0  2  0  0  0  0  0  0  0  0  0
  140.6560   78.2900  220.5200 C   0  0  0  0  0  0  0  0  0  0  0  0
  141.3690   78.9090  221.6180 C   0  0  0  0  0  0  0  0  0  0  0  0
  141.1930   78.3240  222.8910 C   0  0  0  0  0  0  0  0  0  0  0  0
  141.7890   78.8580  224.0130 C   0  0  0  0  0  0  0  0  0  0  0  0
  142.5700   79.9610  223.9500 N   0  0  0  0  0  0  0  0  0  0  0  0
  142.7640   80.5540  222.7380 C   0  0  0  0  0  0  0  0  0  0  0  0
  142.1630   80.0210  221.6030 C   0  0  0  0  0  0  0  0  0  0  0  0
  140.0180   71.4800  223.5570 C   0  0  0  0  0  0  0  0  0  0  0  0
  139.5090   70.2070  223.4780 C   0  0  0  0  0  0  0  0  0  0  0  0
  139.4960   69.3240  224.5440 C   0  0  0  0  0  0  0  0  0  0  0  0
  140.0240   69.7540  225.7460 C   0  0  0  0  0  0  0  0  0  0  0  0
  140.0290   68.9130  226.8180 C   0  0  0  0  0  0  0  0  0  0  0  0
  140.5660   69.3700  228.0160 C   0  0  0  0  0  0  0  0  0  0  0  0
  140.5800   68.5500  229.0990 F   0  0  0  0  0  0  0  0  0  0  0  0
  141.0700   70.6520  228.0680 C   0  0  0  0  0  0  0  0  0  0  0  0
  141.0670   71.5070  226.9880 C   0  0  0  0  0  0  0  0  0  0  0  0
  140.5290   71.0300  225.8110 C   0  0  0  0  0  0  0  0  0  0  0  0
  140.5240   71.8610  224.7480 N   0  0  0  0  0  0  0  0  0  0  0  0
  138.0680   73.2530  222.8770 H   0  0  0  0  0  0  0  0  0  0  0  0
  138.8253   73.6037  220.1467 H   0  0  0  0  0  0  0  0  0  0  0  0
  137.8871   74.7621  221.1603 H   0  0  0  0  0  0  0  0  0  0  0  0
  140.7048   73.8365  219.1119 H   0  0  0  0  0  0  0  0  0  0  0  0
  140.0058   75.0946  218.0753 H   0  0  0  0  0  0  0  0  0  0  0  0
  142.5754   74.2996  217.8573 H   0  0  0  0  0  0  0  0  0  0  0  0
  142.0526   76.0274  217.5795 H   0  0  0  0  0  0  0  0  0  0  0  0
  143.2354   74.8946  220.1250 H   0  0  0  0  0  0  0  0  0  0  0  0
  144.0628   75.9428  218.8792 H   0  0  0  0  0  0  0  0  0  0  0  0
  142.8923   76.8833  221.1583 H   0  0  0  0  0  0  0  0  0  0  0  0
  143.1346   77.8314  219.6607 H   0  0  0  0  0  0  0  0  0  0  0  0
  140.6209   77.2684  218.9464 H   0  0  0  0  0  0  0  0  0  0  0  0
  140.6298   79.0358  219.7118 H   0  0  0  0  0  0  0  0  0  0  0  0
  139.7149   77.9855  221.0012 H   0  0  0  0  0  0  0  0  0  0  0  0
  140.5678   77.4243  222.9891 H   0  0  0  0  0  0  0  0  0  0  0  0
  141.6252   78.3739  224.9871 H   0  0  0  0  0  0  0  0  0  0  0  0
  143.3944   81.4519  222.6581 H   0  0  0  0  0  0  0  0  0  0  0  0
  142.3364   80.5224  220.6394 H   0  0  0  0  0  0  0  0  0  0  0  0
  139.0899   69.8716  222.5179 H   0  0  0  0  0  0  0  0  0  0  0  0
  139.0784   68.3119  224.4374 H   0  0  0  0  0  0  0  0  0  0  0  0
  139.6177   67.8960  226.7373 H   0  0  0  0  0  0  0  0  0  0  0  0
  141.4950   71.0094  229.0175 H   0  0  0  0  0  0  0  0  0  0  0  0
  141.4758   72.5256  227.0611 H   0  0  0  0  0  0  0  0  0  0  0  0
  1  2  2  0
  2  3  1  0
  3  4  1  0
  4  5  1  0
  5  6  2  0
  5  7  1  0
  7  8  1  0
  8  9  1  0
  9 10  1  0
 10 11  1  0
 11 12  1  0
 12 13  1  0
 13 14  1  0
 14 15  2  0
 15 16  1  0
 16 17  2  0
 17 18  1  0
 18 19  2  0
  2 20  1  0
 20 21  2  0
 21 22  1  0
 22 23  2  0
 23 24  1  0
 24 25  2  0
 25 26  1  0
 25 27  1  0
 27 28  2  0
 28 29  1  0
 29 30  2  0
 12  7  1  0
 19 14  1  0
 30 20  1  0
 29 23  1  0
  3 31  1  0
  4 32  1  0
  4 33  1  0
  8 34  1  0
  8 35  1  0
  9 36  1  0
  9 37  1  0
 10 38  1  0
 10 39  1  0
 11 40  1  0
 11 41  1  0
 12 42  1  6
 13 43  1  0
 13 44  1  0
 15 45  1  0
 16 46  1  0
 18 47  1  0
 19 48  1  0
 21 49  1  0
 22 50  1  0
 24 51  1  0
 27 52  1  0
 28 53  1  0
M  END
>  <smiles>  (11) 
O=C(NCC(=O)N1CCCCC1Cc1ccncc1)c1ccc2cc(F)ccc2n1

>  <score_type>  (11) 
oracle

>  <origin>  (11) 
autodockgpu

>  <m_score__min__energy>  (11) 
-8.9800000000000004

>  <m_primary>  (11) 
energy

>  <rmsd>  (11) 
1.5243959977854364

>  <m_score__min__rmsd>  (11) 
1.5243959977854364

>  <meeko>  (11) 
{"free_energy": -8.76, "intermolecular_energy": -10.55, "internal_energy": -1.54, "cluster_size": 27, "cluster_id": 2, "rank_in_cluster": 1}

>  <energy>  (11) 
-8.43

>  <cluster_rmsd>  (11) 
1.05

>  <cluster>  (11) 
1

$$$$

     RDKit          3D

 53 56  0  0  0  0  0  0  0  0999 V2000
  137.2460   76.0210  222.2230 O   0  0  0  0  0  0  0  0  0  0  0  0
  138.4840   76.1130  222.3200 C   0  0  0  0  0  0  0  0  0  0  0  0
  139.3960   75.0480  222.0900 N   0  0  0  0  0  0  0  0  0  0  0  0
  138.9000   73.7100  221.7060 C   0  0  0  0  0  0  0  0  0  0  0  0
  139.7920   72.6640  222.2290 C   0  0  0  0  0  0  0  0  0  0  0  0
  141.0360   73.0150  222.3290 O   0  0  0  0  0  0  0  0  0  0  0  0
  139.5020   71.3660  222.6280 N   0  0  0  0  0  0  0  0  0  0  0  0
  139.3420   70.4190  221.4470 C   0  0  0  0  0  0  0  0  0  0  0  0
  138.1500   69.5420  221.7630 C   0  0  0  0  0  0  0  0  0  0  0  0
  137.1430   70.2020  222.6780 C   0  0  0  0  0  0  0  0  0  0  0  0
  137.7240   70.6190  224.0130 C   0  0  0  0  0  0  0  0  0  0  0  0
  139.2710   70.7580  223.8570 C   0  0  2  0  0  0  0  0  0  0  0  0
  139.8330   71.0730  225.1450 C   0  0  0  0  0  0  0  0  0  0  0  0
  140.1470   70.0520  226.1220 C   0  0  0  0  0  0  0  0  0  0  0  0
  140.6900   70.4980  227.3470 C   0  0  0  0  0  0  0  0  0  0  0  0
  141.0650   69.6090  228.3300 C   0  0  0  0  0  0  0  0  0  0  0  0
  140.9320   68.2720  228.1720 N   0  0  0  0  0  0  0  0  0  0  0  0
  140.4130   67.8020  227.0030 C   0  0  0  0  0  0  0  0  0  0  0  0
  140.0330   68.6950  226.0070 C   0  0  0  0  0  0  0  0  0  0  0  0
  139.0480   77.4250  222.7020 C   0  0  0  0  0  0  0  0  0  0  0  0
  138.2430   78.4990  222.9950 C   0  0  0  0  0  0  0  0  0  0  0  0
  138.7330   79.7420  223.3570 C   0  0  0  0  0  0  0  0  0  0  0  0
  140.1030   79.9030  223.4230 C   0  0  0  0  0  0  0  0  0  0  0  0
  140.6220   81.1130  223.7770 C   0  0  0  0  0  0  0  0  0  0  0  0
  142.0050   81.2480  223.8370 C   0  0  0  0  0  0  0  0  0  0  0  0
  142.5450   82.4450  224.1850 F   0  0  0  0  0  0  0  0  0  0  0  0
  142.7890   80.1550  223.5380 C   0  0  0  0  0  0  0  0  0  0  0  0
  142.2710   78.9300  223.1810 C   0  0  0  0  0  0  0  0  0  0  0  0
  140.8970   78.8210  223.1290 C   0  0  0  0  0  0  0  0  0  0  0  0
  140.3810   77.6240  222.7800 N   0  0  0  0  0  0  0  0  0  0  0  0
  140.4320   75.1420  222.1750 H   0  0  0  0  0  0  0  0  0  0  0  0
  137.8906   73.5653  222.1185 H   0  0  0  0  0  0  0  0  0  0  0  0
  138.8729   73.6405  220.6085 H   0  0  0  0  0  0  0  0  0  0  0  0
  139.1612   70.9890  220.5238 H   0  0  0  0  0  0  0  0  0  0  0  0
  140.2500   69.8179  221.2912 H   0  0  0  0  0  0  0  0  0  0  0  0
  137.6470   69.2845  220.8193 H   0  0  0  0  0  0  0  0  0  0  0  0
  138.5312   68.6535  222.2877 H   0  0  0  0  0  0  0  0  0  0  0  0
  136.7491   71.0972  222.1746 H   0  0  0  0  0  0  0  0  0  0  0  0
  136.3573   69.4602  222.8840 H   0  0  0  0  0  0  0  0  0  0  0  0
  137.2937   71.5836  224.3201 H   0  0  0  0  0  0  0  0  0  0  0  0
  137.4882   69.8656  224.7790 H   0  0  0  0  0  0  0  0  0  0  0  0
  139.9324   69.8953  223.6889 H   0  0  0  0  0  0  0  0  0  0  0  0
  140.7739   71.6072  224.9466 H   0  0  0  0  0  0  0  0  0  0  0  0
  139.0031   71.6065  225.6315 H   0  0  0  0  0  0  0  0  0  0  0  0
  140.8160   71.5770  227.5196 H   0  0  0  0  0  0  0  0  0  0  0  0
  141.4844   69.9971  229.2699 H   0  0  0  0  0  0  0  0  0  0  0  0
  140.2949   66.7194  226.8476 H   0  0  0  0  0  0  0  0  0  0  0  0
  139.6173   68.2862  225.0742 H   0  0  0  0  0  0  0  0  0  0  0  0
  137.1527   78.3642  222.9390 H   0  0  0  0  0  0  0  0  0  0  0  0
  138.0524   80.5755  223.5850 H   0  0  0  0  0  0  0  0  0  0  0  0
  139.9627   81.9622  224.0096 H   0  0  0  0  0  0  0  0  0  0  0  0
  143.8823   80.2664  223.5869 H   0  0  0  0  0  0  0  0  0  0  0  0
  142.9241   78.0762  222.9476 H   0  0  0  0  0  0  0  0  0  0  0  0
  1  2  2  0
  2  3  1  0
  3  4  1  0
  4  5  1  0
  5  6  2  0
  5  7  1  0
  7  8  1  0
  8  9  1  0
  9 10  1  0
 10 11  1  0
 11 12  1  0
 12 13  1  0
 13 14  1  0
 14 15  2  0
 15 16  1  0
 16 17  2  0
 17 18  1  0
 18 19  2  0
  2 20  1  0
 20 21  2  0
 21 22  1  0
 22 23  2  0
 23 24  1  0
 24 25  2  0
 25 26  1  0
 25 27  1  0
 27 28  2  0
 28 29  1  0
 29 30  2  0
 12  7  1  0
 19 14  1  0
 30 20  1  0
 29 23  1  0
  3 31  1  0
  4 32  1  0
  4 33  1  0
  8 34  1  0
  8 35  1  0
  9 36  1  0
  9 37  1  0
 10 38  1  0
 10 39  1  0
 11 40  1  0
 11 41  1  0
 12 42  1  6
 13 43  1  0
 13 44  1  0
 15 45  1  0
 16 46  1  0
 18 47  1  0
 19 48  1  0
 21 49  1  0
 22 50  1  0
 24 51  1  0
 27 52  1  0
 28 53  1  0
M  END
>  <smiles>  (12) 
O=C(NCC(=O)N1CCCCC1Cc1ccncc1)c1ccc2cc(F)ccc2n1

>  <score_type>  (12) 
oracle

>  <origin>  (12) 
autodockgpu

>  <m_score__min__energy>  (12) 
-8.9800000000000004

>  <m_primary>  (12) 
energy

>  <rmsd>  (12) 
8.468654336785683

>  <m_score__min__rmsd>  (12) 
8.468654336785683

>  <meeko>  (12) 
{"free_energy": -8.08, "intermolecular_energy": -9.87, "internal_energy": -2.03, "cluster_size": 8, "cluster_id": 3, "rank_in_cluster": 4}

>  <energy>  (12) 
-8.12

>  <cluster_rmsd>  (12) 
0.96

>  <cluster>  (12) 
1

$$$$

     RDKit          3D

 53 56  0  0  0  0  0  0  0  0999 V2000
  140.2960   70.8070  221.7350 O   0  0  0  0  0  0  0  0  0  0  0  0
  140.0960   71.6060  222.6710 C   0  0  0  0  0  0  0  0  0  0  0  0
  139.7360   72.9700  222.5090 N   0  0  0  0  0  0  0  0  0  0  0  0
  139.5710   73.5440  221.1570 C   0  0  0  0  0  0  0  0  0  0  0  0
  139.8670   74.9840  221.1730 C   0  0  0  0  0  0  0  0  0  0  0  0
  139.6950   75.5580  222.3220 O   0  0  0  0  0  0  0  0  0  0  0  0
  140.2990   75.8160  220.1470 N   0  0  0  0  0  0  0  0  0  0  0  0
  140.4510   75.0740  218.8260 C   0  0  0  0  0  0  0  0  0  0  0  0
  141.7360   75.5750  218.2020 C   0  0  0  0  0  0  0  0  0  0  0  0
  142.7480   76.0590  219.2170 C   0  0  0  0  0  0  0  0  0  0  0  0
  142.2360   77.1880  220.0880 C   0  0  0  0  0  0  0  0  0  0  0  0
  140.6760   77.1520  220.0760 C   0  0  2  0  0  0  0  0  0  0  0  0
  140.1880   78.2740  220.8370 C   0  0  0  0  0  0  0  0  0  0  0  0
  141.0140   78.9720  221.8000 C   0  0  0  0  0  0  0  0  0  0  0  0
  141.0570   78.4290  223.1030 C   0  0  0  0  0  0  0  0  0  0  0  0
  141.7760   79.0370  224.1080 C   0  0  0  0  0  0  0  0  0  0  0  0
  142.4740   80.1770  223.8980 N   0  0  0  0  0  0  0  0  0  0  0  0
  142.4560   80.7320  222.6540 C   0  0  0  0  0  0  0  0  0  0  0  0
  141.7310   80.1230  221.6350 C   0  0  0  0  0  0  0  0  0  0  0  0
  140.2450   71.0970  224.0510 C   0  0  0  0  0  0  0  0  0  0  0  0
  140.7230   71.8910  225.0650 C   0  0  0  0  0  0  0  0  0  0  0  0
  140.8750   71.4520  226.3690 C   0  0  0  0  0  0  0  0  0  0  0  0
  140.5280   70.1470  226.6560 C   0  0  0  0  0  0  0  0  0  0  0  0
  140.6650   69.6790  227.9290 C   0  0  0  0  0  0  0  0  0  0  0  0
  140.3080   68.3610  228.1920 C   0  0  0  0  0  0  0  0  0  0  0  0
  140.4360   67.8730  229.4530 F   0  0  0  0  0  0  0  0  0  0  0  0
  139.8310   67.5860  227.1570 C   0  0  0  0  0  0  0  0  0  0  0  0
  139.6910   68.0530  225.8690 C   0  0  0  0  0  0  0  0  0  0  0  0
  140.0520   69.3630  225.6330 C   0  0  0  0  0  0  0  0  0  0  0  0
  139.9170   69.8290  224.3740 N   0  0  0  0  0  0  0  0  0  0  0  0
  139.5710   73.6260  223.3040 H   0  0  0  0  0  0  0  0  0  0  0  0
  140.2593   73.0400  220.4626 H   0  0  0  0  0  0  0  0  0  0  0  0
  138.5308   73.3967  220.8309 H   0  0  0  0  0  0  0  0  0  0  0  0
  140.5110   73.9900  219.0029 H   0  0  0  0  0  0  0  0  0  0  0  0
  139.5897   75.2533  218.1656 H   0  0  0  0  0  0  0  0  0  0  0  0
  142.1864   74.7542  217.6246 H   0  0  0  0  0  0  0  0  0  0  0  0
  141.4752   76.4352  217.5679 H   0  0  0  0  0  0  0  0  0  0  0  0
  143.0214   75.2144  219.8665 H   0  0  0  0  0  0  0  0  0  0  0  0
  143.6098   76.4483  218.6551 H   0  0  0  0  0  0  0  0  0  0  0  0
  142.6025   77.0587  221.1170 H   0  0  0  0  0  0  0  0  0  0  0  0
  142.5943   78.1541  219.7031 H   0  0  0  0  0  0  0  0  0  0  0  0
  140.0824   77.3947  219.1823 H   0  0  0  0  0  0  0  0  0  0  0  0
  139.8699   79.0281  220.1020 H   0  0  0  0  0  0  0  0  0  0  0  0
  139.4339   77.8010  221.4833 H   0  0  0  0  0  0  0  0  0  0  0  0
  140.5054   77.5022  223.3194 H   0  0  0  0  0  0  0  0  0  0  0  0
  141.7830   78.5830  225.1099 H   0  0  0  0  0  0  0  0  0  0  0  0
  143.0134   81.6594  222.4559 H   0  0  0  0  0  0  0  0  0  0  0  0
  141.7353   80.5944  220.6411 H   0  0  0  0  0  0  0  0  0  0  0  0
  140.9992   72.9292  224.8286 H   0  0  0  0  0  0  0  0  0  0  0  0
  141.2601   72.1219  227.1519 H   0  0  0  0  0  0  0  0  0  0  0  0
  141.0489   70.3287  228.7293 H   0  0  0  0  0  0  0  0  0  0  0  0
  139.5485   66.5444  227.3699 H   0  0  0  0  0  0  0  0  0  0  0  0
  139.3079   67.4092  225.0635 H   0  0  0  0  0  0  0  0  0  0  0  0
  1  2  2  0
  2  3  1  0
  3  4  1  0
  4  5  1  0
  5  6  2  0
  5  7  1  0
  7  8  1  0
  8  9  1  0
  9 10  1  0
 10 11  1  0
 11 12  1  0
 12 13  1  0
 13 14  1  0
 14 15  2  0
 15 16  1  0
 16 17  2  0
 17 18  1  0
 18 19  2  0
  2 20  1  0
 20 21  2  0
 21 22  1  0
 22 23  2  0
 23 24  1  0
 24 25  2  0
 25 26  1  0
 25 27  1  0
 27 28  2  0
 28 29  1  0
 29 30  2  0
 12  7  1  0
 19 14  1  0
 30 20  1  0
 29 23  1  0
  3 31  1  0
  4 32  1  0
  4 33  1  0
  8 34  1  0
  8 35  1  0
  9 36  1  0
  9 37  1  0
 10 38  1  0
 10 39  1  0
 11 40  1  0
 11 41  1  0
 12 42  1  6
 13 43  1  0
 13 44  1  0
 15 45  1  0
 16 46  1  0
 18 47  1  0
 19 48  1  0
 21 49  1  0
 22 50  1  0
 24 51  1  0
 27 52  1  0
 28 53  1  0
M  END
>  <smiles>  (13) 
O=C(NCC(=O)N1CCCCC1Cc1ccncc1)c1ccc2cc(F)ccc2n1

>  <score_type>  (13) 
oracle

>  <origin>  (13) 
autodockgpu

>  <m_score__min__energy>  (13) 
-8.9800000000000004

>  <m_primary>  (13) 
energy

>  <rmsd>  (13) 
2.6734309495728144

>  <m_score__min__rmsd>  (13) 
2.6734309495728144

>  <meeko>  (13) 
{"free_energy": -8.56, "intermolecular_energy": -10.35, "internal_energy": -1.93, "cluster_size": 27, "cluster_id": 2, "rank_in_cluster": 2}

>  <energy>  (13) 
-7.88

>  <cluster_rmsd>  (13) 
1.04

>  <cluster>  (13) 
1

$$$$

     RDKit          3D

 53 56  0  0  0  0  0  0  0  0999 V2000
  140.8860   73.3860  222.3040 O   0  0  0  0  0  0  0  0  0  0  0  0
  139.9390   72.5770  222.3360 C   0  0  0  0  0  0  0  0  0  0  0  0
  138.9180   72.4850  221.3520 N   0  0  0  0  0  0  0  0  0  0  0  0
  138.9250   73.3880  220.1810 C   0  0  0  0  0  0  0  0  0  0  0  0
  138.3070   74.6760  220.5260 C   0  0  0  0  0  0  0  0  0  0  0  0
  137.7510   75.2920  219.5300 O   0  0  0  0  0  0  0  0  0  0  0  0
  138.2320   75.3290  221.7500 N   0  0  0  0  0  0  0  0  0  0  0  0
  136.9880   74.9410  222.5370 C   0  0  0  0  0  0  0  0  0  0  0  0
  136.4480   76.2200  223.1380 C   0  0  0  0  0  0  0  0  0  0  0  0
  136.7980   77.4550  222.3370 C   0  0  0  0  0  0  0  0  0  0  0  0
  138.2890   77.6640  222.1730 C   0  0  0  0  0  0  0  0  0  0  0  0
  139.0060   76.2940  222.3830 C   0  0  2  0  0  0  0  0  0  0  0  0
  140.4290   76.5080  222.3090 C   0  0  0  0  0  0  0  0  0  0  0  0
  141.0220   77.8190  222.4640 C   0  0  0  0  0  0  0  0  0  0  0  0
  141.2430   78.5550  221.2790 C   0  0  0  0  0  0  0  0  0  0  0  0
  141.8420   79.7950  221.3070 C   0  0  0  0  0  0  0  0  0  0  0  0
  142.2450   80.3680  222.4660 N   0  0  0  0  0  0  0  0  0  0  0  0
  142.0490   79.6890  223.6310 C   0  0  0  0  0  0  0  0  0  0  0  0
  141.4460   78.4350  223.6080 C   0  0  0  0  0  0  0  0  0  0  0  0
  139.8710   71.6440  223.4810 C   0  0  0  0  0  0  0  0  0  0  0  0
  139.1820   70.4580  223.4050 C   0  0  0  0  0  0  0  0  0  0  0  0
  139.0950   69.5590  224.4540 C   0  0  0  0  0  0  0  0  0  0  0  0
  139.7370   69.8790  225.6340 C   0  0  0  0  0  0  0  0  0  0  0  0
  139.6750   69.0180  226.6890 C   0  0  0  0  0  0  0  0  0  0  0  0
  140.3300   69.3630  227.8650 C   0  0  0  0  0  0  0  0  0  0  0  0
  140.2810   68.5210  228.9300 F   0  0  0  0  0  0  0  0  0  0  0  0
  141.0140   70.5590  227.9140 C   0  0  0  0  0  0  0  0  0  0  0  0
  141.0810   71.4320  226.8520 C   0  0  0  0  0  0  0  0  0  0  0  0
  140.4230   71.0680  225.6960 C   0  0  0  0  0  0  0  0  0  0  0  0
  140.4840   71.9180  224.6510 N   0  0  0  0  0  0  0  0  0  0  0  0
  138.1320   71.8000  221.3930 H   0  0  0  0  0  0  0  0  0  0  0  0
  139.9634   73.5581  219.8603 H   0  0  0  0  0  0  0  0  0  0  0  0
  138.3504   72.9223  219.3668 H   0  0  0  0  0  0  0  0  0  0  0  0
  136.2403   74.4892  221.8686 H   0  0  0  0  0  0  0  0  0  0  0  0
  137.2234   74.2017  223.3168 H   0  0  0  0  0  0  0  0  0  0  0  0
  135.3524   76.1419  223.1974 H   0  0  0  0  0  0  0  0  0  0  0  0
  136.9112   76.3338  224.1292 H   0  0  0  0  0  0  0  0  0  0  0  0
  136.3472   77.3618  221.3380 H   0  0  0  0  0  0  0  0  0  0  0  0
  136.4079   78.3219  222.8905 H   0  0  0  0  0  0  0  0  0  0  0  0
  138.5018   78.0433  221.1626 H   0  0  0  0  0  0  0  0  0  0  0  0
  138.6507   78.3961  222.9101 H   0  0  0  0  0  0  0  0  0  0  0  0
  139.0500   75.7888  223.3591 H   0  0  0  0  0  0  0  0  0  0  0  0
  140.8753   75.8752  223.0903 H   0  0  0  0  0  0  0  0  0  0  0  0
  140.6384   76.2864  221.2521 H   0  0  0  0  0  0  0  0  0  0  0  0
  140.9304   78.1293  220.3141 H   0  0  0  0  0  0  0  0  0  0  0  0
  141.9974   80.3350  220.3614 H   0  0  0  0  0  0  0  0  0  0  0  0
  142.3665   80.1308  224.5870 H   0  0  0  0  0  0  0  0  0  0  0  0
  141.3026   77.9102  224.5641 H   0  0  0  0  0  0  0  0  0  0  0  0
  138.6732   70.2099  222.4619 H   0  0  0  0  0  0  0  0  0  0  0  0
  138.5323   68.6195  224.3509 H   0  0  0  0  0  0  0  0  0  0  0  0
  139.1193   68.0719  226.6112 H   0  0  0  0  0  0  0  0  0  0  0  0
  141.5311   70.8285  228.8467 H   0  0  0  0  0  0  0  0  0  0  0  0
  141.6356   72.3794  226.9223 H   0  0  0  0  0  0  0  0  0  0  0  0
  1  2  2  0
  2  3  1  0
  3  4  1  0
  4  5  1  0
  5  6  2  0
  5  7  1  0
  7  8  1  0
  8  9  1  0
  9 10  1  0
 10 11  1  0
 11 12  1  0
 12 13  1  0
 13 14  1  0
 14 15  2  0
 15 16  1  0
 16 17  2  0
 17 18  1  0
 18 19  2  0
  2 20  1  0
 20 21  2  0
 21 22  1  0
 22 23  2  0
 23 24  1  0
 24 25  2  0
 25 26  1  0
 25 27  1  0
 27 28  2  0
 28 29  1  0
 29 30  2  0
 12  7  1  0
 19 14  1  0
 30 20  1  0
 29 23  1  0
  3 31  1  0
  4 32  1  0
  4 33  1  0
  8 34  1  0
  8 35  1  0
  9 36  1  0
  9 37  1  0
 10 38  1  0
 10 39  1  0
 11 40  1  0
 11 41  1  0
 12 42  1  1
 13 43  1  0
 13 44  1  0
 15 45  1  0
 16 46  1  0
 18 47  1  0
 19 48  1  0
 21 49  1  0
 22 50  1  0
 24 51  1  0
 27 52  1  0
 28 53  1  0
M  END
>  <smiles>  (14) 
O=C(NCC(=O)N1CCCCC1Cc1ccncc1)c1ccc2cc(F)ccc2n1

>  <score_type>  (14) 
oracle

>  <origin>  (14) 
autodockgpu

>  <m_score__min__energy>  (14) 
-8.9800000000000004

>  <m_primary>  (14) 
energy

>  <rmsd>  (14) 
3.1839364361488514

>  <m_score__min__rmsd>  (14) 
3.1839364361488514

>  <meeko>  (14) 
{"free_energy": -7.92, "intermolecular_energy": -9.71, "internal_energy": -1.63, "cluster_size": 27, "cluster_id": 2, "rank_in_cluster": 24}

>  <energy>  (14) 
-8.76

>  <cluster_rmsd>  (14) 
0.0

>  <cluster>  (14) 
2

$$$$

     RDKit          3D

 53 56  0  0  0  0  0  0  0  0999 V2000
  138.3590   76.0710  220.4580 O   0  0  0  0  0  0  0  0  0  0  0  0
  138.9050   76.0160  221.5760 C   0  0  0  0  0  0  0  0  0  0  0  0
  139.0980   74.8250  222.3260 N   0  0  0  0  0  0  0  0  0  0  0  0
  138.6380   73.5240  221.7940 C   0  0  0  0  0  0  0  0  0  0  0  0
  139.2760   72.4190  222.5240 C   0  0  0  0  0  0  0  0  0  0  0  0
  140.4020   72.7240  223.0890 O   0  0  0  0  0  0  0  0  0  0  0  0
  138.8560   71.1060  222.6960 N   0  0  0  0  0  0  0  0  0  0  0  0
  137.9140   70.6510  221.5900 C   0  0  0  0  0  0  0  0  0  0  0  0
  136.8120   69.8650  222.2660 C   0  0  0  0  0  0  0  0  0  0  0  0
  136.5670   70.2830  223.6990 C   0  0  0  0  0  0  0  0  0  0  0  0
  137.7880   70.1430  224.5850 C   0  0  0  0  0  0  0  0  0  0  0  0
  139.0580   70.1440  223.6790 C   0  0  2  0  0  0  0  0  0  0  0  0
  140.2140   69.9280  224.5120 C   0  0  0  0  0  0  0  0  0  0  0  0
  140.3080   70.4630  225.8540 C   0  0  0  0  0  0  0  0  0  0  0  0
  141.0060   71.6830  225.9970 C   0  0  0  0  0  0  0  0  0  0  0  0
  141.1940   72.2590  227.2340 C   0  0  0  0  0  0  0  0  0  0  0  0
  140.7210   71.6890  228.3670 N   0  0  0  0  0  0  0  0  0  0  0  0
  140.0430   70.5120  228.2700 C   0  0  0  0  0  0  0  0  0  0  0  0
  139.8510   69.9240  227.0230 C   0  0  0  0  0  0  0  0  0  0  0  0
  139.3880   77.2820  222.1680 C   0  0  0  0  0  0  0  0  0  0  0  0
  138.5260   78.1920  222.7290 C   0  0  0  0  0  0  0  0  0  0  0  0
  138.9400   79.3870  223.2920 C   0  0  0  0  0  0  0  0  0  0  0  0
  140.2920   79.6710  223.2850 C   0  0  0  0  0  0  0  0  0  0  0  0
  140.7370   80.8370  223.8310 C   0  0  0  0  0  0  0  0  0  0  0  0
  142.1020   81.0990  223.8110 C   0  0  0  0  0  0  0  0  0  0  0  0
  142.5690   82.2570  224.3490 F   0  0  0  0  0  0  0  0  0  0  0  0
  142.9450   80.1690  223.2420 C   0  0  0  0  0  0  0  0  0  0  0  0
  142.5020   78.9890  222.6890 C   0  0  0  0  0  0  0  0  0  0  0  0
  141.1430   78.7520  222.7210 C   0  0  0  0  0  0  0  0  0  0  0  0
  140.7000   77.5980  222.1810 N   0  0  0  0  0  0  0  0  0  0  0  0
  139.5590   74.7960  223.2610 H   0  0  0  0  0  0  0  0  0  0  0  0
  137.5463   73.4512  221.9076 H   0  0  0  0  0  0  0  0  0  0  0  0
  138.9121   73.4555  220.7309 H   0  0  0  0  0  0  0  0  0  0  0  0
  137.4938   71.5219  221.0656 H   0  0  0  0  0  0  0  0  0  0  0  0
  138.4409   70.0388  220.8433 H   0  0  0  0  0  0  0  0  0  0  0  0
  135.8817   70.0091  221.6970 H   0  0  0  0  0  0  0  0  0  0  0  0
  137.1294   68.8120  222.2850 H   0  0  0  0  0  0  0  0  0  0  0  0
  136.2507   71.3365  223.7055 H   0  0  0  0  0  0  0  0  0  0  0  0
  135.7939   69.6137  224.1043 H   0  0  0  0  0  0  0  0  0  0  0  0
  137.8340   70.9863  225.2898 H   0  0  0  0  0  0  0  0  0  0  0  0
  137.7334   69.2053  225.1575 H   0  0  0  0  0  0  0  0  0  0  0  0
  139.2974   69.3195  222.9913 H   0  0  0  0  0  0  0  0  0  0  0  0
  140.3241   68.8377  224.6077 H   0  0  0  0  0  0  0  0  0  0  0  0
  140.9886   70.5016  223.9820 H   0  0  0  0  0  0  0  0  0  0  0  0
  141.4072   72.1827  225.1029 H   0  0  0  0  0  0  0  0  0  0  0  0
  141.7441   73.2091  227.3031 H   0  0  0  0  0  0  0  0  0  0  0  0
  139.6480   70.0271  229.1749 H   0  0  0  0  0  0  0  0  0  0  0  0
  139.3008   68.9726  226.9763 H   0  0  0  0  0  0  0  0  0  0  0  0
  137.4509   77.9593  222.7311 H   0  0  0  0  0  0  0  0  0  0  0  0
  138.2153   80.0884  223.7311 H   0  0  0  0  0  0  0  0  0  0  0  0
  140.0326   81.5544  224.2773 H   0  0  0  0  0  0  0  0  0  0  0  0
  144.0245   80.3800  223.2292 H   0  0  0  0  0  0  0  0  0  0  0  0
  143.2005   78.2667  222.2413 H   0  0  0  0  0  0  0  0  0  0  0  0
  1  2  2  0
  2  3  1  0
  3  4  1  0
  4  5  1  0
  5  6  2  0
  5  7  1  0
  7  8  1  0
  8  9  1  0
  9 10  1  0
 10 11  1  0
 11 12  1  0
 12 13  1  0
 13 14  1  0
 14 15  2  0
 15 16  1  0
 16 17  2  0
 17 18  1  0
 18 19  2  0
  2 20  1  0
 20 21  2  0
 21 22  1  0
 22 23  2  0
 23 24  1  0
 24 25  2  0
 25 26  1  0
 25 27  1  0
 27 28  2  0
 28 29  1  0
 29 30  2  0
 12  7  1  0
 19 14  1  0
 30 20  1  0
 29 23  1  0
  3 31  1  0
  4 32  1  0
  4 33  1  0
  8 34  1  0
  8 35  1  0
  9 36  1  0
  9 37  1  0
 10 38  1  0
 10 39  1  0
 11 40  1  0
 11 41  1  0
 12 42  1  6
 13 43  1  0
 13 44  1  0
 15 45  1  0
 16 46  1  0
 18 47  1  0
 19 48  1  0
 21 49  1  0
 22 50  1  0
 24 51  1  0
 27 52  1  0
 28 53  1  0
M  END
>  <smiles>  (15) 
O=C(NCC(=O)N1CCCCC1Cc1ccncc1)c1ccc2cc(F)ccc2n1

>  <score_type>  (15) 
oracle

>  <origin>  (15) 
autodockgpu

>  <m_score__min__energy>  (15) 
-8.9800000000000004

>  <m_primary>  (15) 
energy

>  <rmsd>  (15) 
8.523663650370244

>  <m_score__min__rmsd>  (15) 
8.523663650370244

>  <meeko>  (15) 
{"free_energy": -8.48, "intermolecular_energy": -10.27, "internal_energy": -1.86, "cluster_size": 8, "cluster_id": 3, "rank_in_cluster": 1}

>  <energy>  (15) 
-8.56

>  <cluster_rmsd>  (15) 
0.89

>  <cluster>  (15) 
2

$$$$

     RDKit          3D

 53 56  0  0  0  0  0  0  0  0999 V2000
  137.0110   76.4030  221.4980 O   0  0  0  0  0  0  0  0  0  0  0  0
  138.1120   76.3160  222.0740 C   0  0  0  0  0  0  0  0  0  0  0  0
  138.7860   75.0980  222.3570 N   0  0  0  0  0  0  0  0  0  0  0  0
  138.1870   73.8050  221.9640 C   0  0  0  0  0  0  0  0  0  0  0  0
  139.0720   72.6950  222.3450 C   0  0  0  0  0  0  0  0  0  0  0  0
  140.3220   73.0160  222.4620 O   0  0  0  0  0  0  0  0  0  0  0  0
  138.7710   71.3620  222.5950 N   0  0  0  0  0  0  0  0  0  0  0  0
  137.7810   70.7930  221.5880 C   0  0  0  0  0  0  0  0  0  0  0  0
  136.8020   69.9540  222.3790 C   0  0  0  0  0  0  0  0  0  0  0  0
  136.6410   70.4100  223.8130 C   0  0  0  0  0  0  0  0  0  0  0  0
  137.9370   70.3970  224.5980 C   0  0  0  0  0  0  0  0  0  0  0  0
  139.1260   70.4570  223.5890 C   0  0  2  0  0  0  0  0  0  0  0  0
  140.3580   70.3620  224.3300 C   0  0  0  0  0  0  0  0  0  0  0  0
  140.4330   70.6590  225.7450 C   0  0  0  0  0  0  0  0  0  0  0  0
  141.0340   71.8870  226.0990 C   0  0  0  0  0  0  0  0  0  0  0  0
  141.1970   72.2510  227.4180 C   0  0  0  0  0  0  0  0  0  0  0  0
  140.7900   71.4540  228.4340 N   0  0  0  0  0  0  0  0  0  0  0  0
  140.2060   70.2610  228.1320 C   0  0  0  0  0  0  0  0  0  0  0  0
  140.0400   69.8880  226.8030 C   0  0  0  0  0  0  0  0  0  0  0  0
  138.7680   77.5730  222.4950 C   0  0  0  0  0  0  0  0  0  0  0  0
  138.0480   78.7190  222.7280 C   0  0  0  0  0  0  0  0  0  0  0  0
  138.6250   79.9140  223.1240 C   0  0  0  0  0  0  0  0  0  0  0  0
  139.9960   79.9460  223.2890 C   0  0  0  0  0  0  0  0  0  0  0  0
  140.5990   81.1050  223.6780 C   0  0  0  0  0  0  0  0  0  0  0  0
  141.9800   81.1110  223.8380 C   0  0  0  0  0  0  0  0  0  0  0  0
  142.6040   82.2550  224.2240 F   0  0  0  0  0  0  0  0  0  0  0  0
  142.6780   79.9470  223.5970 C   0  0  0  0  0  0  0  0  0  0  0  0
  142.0750   78.7740  223.2040 C   0  0  0  0  0  0  0  0  0  0  0  0
  140.7040   78.7930  223.0530 C   0  0  0  0  0  0  0  0  0  0  0  0
  140.1040   77.6480  222.6690 N   0  0  0  0  0  0  0  0  0  0  0  0
  139.7090   75.0430  222.8400 H   0  0  0  0  0  0  0  0  0  0  0  0
  137.2174   73.6858  222.4697 H   0  0  0  0  0  0  0  0  0  0  0  0
  138.0475   73.7926  220.8730 H   0  0  0  0  0  0  0  0  0  0  0  0
  137.2530   71.6080  221.0714 H   0  0  0  0  0  0  0  0  0  0  0  0
  138.2926   70.1924  220.8215 H   0  0  0  0  0  0  0  0  0  0  0  0
  135.8206   70.0046  221.8848 H   0  0  0  0  0  0  0  0  0  0  0  0
  137.2011   68.9293  222.4070 H   0  0  0  0  0  0  0  0  0  0  0  0
  136.2454   71.4364  223.8101 H   0  0  0  0  0  0  0  0  0  0  0  0
  135.9570   69.7020  224.3039 H   0  0  0  0  0  0  0  0  0  0  0  0
  137.9741   71.2687  225.2679 H   0  0  0  0  0  0  0  0  0  0  0  0
  138.0021   69.4813  225.2041 H   0  0  0  0  0  0  0  0  0  0  0  0
  139.3725   69.6264  222.9113 H   0  0  0  0  0  0  0  0  0  0  0  0
  140.7057   69.3247  224.2154 H   0  0  0  0  0  0  0  0  0  0  0  0
  140.9507   71.1794  223.8934 H   0  0  0  0  0  0  0  0  0  0  0  0
  141.3789   72.5666  225.3058 H   0  0  0  0  0  0  0  0  0  0  0  0
  141.6709   73.2157  227.6519 H   0  0  0  0  0  0  0  0  0  0  0  0
  139.8664   69.5940  228.9381 H   0  0  0  0  0  0  0  0  0  0  0  0
  139.5659   68.9183  226.5911 H   0  0  0  0  0  0  0  0  0  0  0  0
  136.9568   78.6860  222.5931 H   0  0  0  0  0  0  0  0  0  0  0  0
  138.0110   80.8093  223.3015 H   0  0  0  0  0  0  0  0  0  0  0  0
  140.0070   82.0139  223.8609 H   0  0  0  0  0  0  0  0  0  0  0  0
  143.7705   79.9562  223.7251 H   0  0  0  0  0  0  0  0  0  0  0  0
  142.6605   77.8615  223.0185 H   0  0  0  0  0  0  0  0  0  0  0  0
  1  2  2  0
  2  3  1  0
  3  4  1  0
  4  5  1  0
  5  6  2  0
  5  7  1  0
  7  8  1  0
  8  9  1  0
  9 10  1  0
 10 11  1  0
 11 12  1  0
 12 13  1  0
 13 14  1  0
 14 15  2  0
 15 16  1  0
 16 17  2  0
 17 18  1  0
 18 19  2  0
  2 20  1  0
 20 21  2  0
 21 22  1  0
 22 23  2  0
 23 24  1  0
 24 25  2  0
 25 26  1  0
 25 27  1  0
 27 28  2  0
 28 29  1  0
 29 30  2  0
 12  7  1  0
 19 14  1  0
 30 20  1  0
 29 23  1  0
  3 31  1  0
  4 32  1  0
  4 33  1  0
  8 34  1  0
  8 35  1  0
  9 36  1  0
  9 37  1  0
 10 38  1  0
 10 39  1  0
 11 40  1  0
 11 41  1  0
 12 42  1  6
 13 43  1  0
 13 44  1  0
 15 45  1  0
 16 46  1  0
 18 47  1  0
 19 48  1  0
 21 49  1  0
 22 50  1  0
 24 51  1  0
 27 52  1  0
 28 53  1  0
M  END
>  <smiles>  (16) 
O=C(NCC(=O)N1CCCCC1Cc1ccncc1)c1ccc2cc(F)ccc2n1

>  <score_type>  (16) 
oracle

>  <origin>  (16) 
autodockgpu

>  <m_score__min__energy>  (16) 
-8.9800000000000004

>  <m_primary>  (16) 
energy

>  <rmsd>  (16) 
8.534599562963916

>  <m_score__min__rmsd>  (16) 
8.534599562963916

>  <meeko>  (16) 
{"free_energy": -8.17, "intermolecular_energy": -9.96, "internal_energy": -2.03, "cluster_size": 8, "cluster_id": 3, "rank_in_cluster": 3}

>  <energy>  (16) 
-8.47

>  <cluster_rmsd>  (16) 
0.66

>  <cluster>  (16) 
2

$$$$

     RDKit          3D

 53 56  0  0  0  0  0  0  0  0999 V2000
  137.9670   70.8490  221.9130 O   0  0  0  0  0  0  0  0  0  0  0  0
  138.7330   71.3250  222.7720 C   0  0  0  0  0  0  0  0  0  0  0  0
  139.2690   72.6410  222.7410 N   0  0  0  0  0  0  0  0  0  0  0  0
  138.9290   73.5600  221.6340 C   0  0  0  0  0  0  0  0  0  0  0  0
  139.9540   74.6060  221.5050 C   0  0  0  0  0  0  0  0  0  0  0  0
  141.0780   74.3360  222.0910 O   0  0  0  0  0  0  0  0  0  0  0  0
  139.8970   75.8330  220.8560 N   0  0  0  0  0  0  0  0  0  0  0  0
  139.4830   75.6970  219.3970 C   0  0  0  0  0  0  0  0  0  0  0  0
  140.3720   76.6350  218.6120 C   0  0  0  0  0  0  0  0  0  0  0  0
  141.7140   76.8810  219.2670 C   0  0  0  0  0  0  0  0  0  0  0  0
  141.6060   77.4690  220.6590 C   0  0  0  0  0  0  0  0  0  0  0  0
  140.1900   77.1400  221.2260 C   0  0  2  0  0  0  0  0  0  0  0  0
  140.0570   77.7690  222.5150 C   0  0  0  0  0  0  0  0  0  0  0  0
  140.8400   78.9270  222.8940 C   0  0  0  0  0  0  0  0  0  0  0  0
  140.3590   80.1810  222.4580 C   0  0  0  0  0  0  0  0  0  0  0  0
  141.0480   81.3440  222.7250 C   0  0  0  0  0  0  0  0  0  0  0  0
  142.2130   81.3420  223.4140 N   0  0  0  0  0  0  0  0  0  0  0  0
  142.7090   80.1500  223.8510 C   0  0  0  0  0  0  0  0  0  0  0  0
  142.0180   78.9730  223.5840 C   0  0  0  0  0  0  0  0  0  0  0  0
  139.1150   70.4590  223.9070 C   0  0  0  0  0  0  0  0  0  0  0  0
  138.8470   69.1120  223.9090 C   0  0  0  0  0  0  0  0  0  0  0  0
  139.1880   68.2680  224.9530 C   0  0  0  0  0  0  0  0  0  0  0  0
  139.8310   68.8180  226.0440 C   0  0  0  0  0  0  0  0  0  0  0  0
  140.1830   68.0190  227.0910 C   0  0  0  0  0  0  0  0  0  0  0  0
  140.8300   68.5960  228.1770 C   0  0  0  0  0  0  0  0  0  0  0  0
  141.1890   67.8190  229.2320 F   0  0  0  0  0  0  0  0  0  0  0  0
  141.0870   69.9500  228.1500 C   0  0  0  0  0  0  0  0  0  0  0  0
  140.7340   70.7630  227.0960 C   0  0  0  0  0  0  0  0  0  0  0  0
  140.0940   70.1660  226.0300 C   0  0  0  0  0  0  0  0  0  0  0  0
  139.7450   70.9550  224.9930 N   0  0  0  0  0  0  0  0  0  0  0  0
  139.9090   73.0240  223.4700 H   0  0  0  0  0  0  0  0  0  0  0  0
  138.8716   72.9906  220.6946 H   0  0  0  0  0  0  0  0  0  0  0  0
  137.9596   74.0339  221.8478 H   0  0  0  0  0  0  0  0  0  0  0  0
  139.6271   74.6613  219.0556 H   0  0  0  0  0  0  0  0  0  0  0  0
  138.4204   75.9457  219.2591 H   0  0  0  0  0  0  0  0  0  0  0  0
  140.5445   76.2002  217.6164 H   0  0  0  0  0  0  0  0  0  0  0  0
  139.8544   77.6041  218.5588 H   0  0  0  0  0  0  0  0  0  0  0  0
  142.2500   75.9228  219.3340 H   0  0  0  0  0  0  0  0  0  0  0  0
  142.2488   77.6144  218.6456 H   0  0  0  0  0  0  0  0  0  0  0  0
  142.3773   77.0294  221.3085 H   0  0  0  0  0  0  0  0  0  0  0  0
  141.7533   78.5584  220.6208 H   0  0  0  0  0  0  0  0  0  0  0  0
  139.2694   77.5864  220.8219 H   0  0  0  0  0  0  0  0  0  0  0  0
  139.0025   78.0698  222.6022 H   0  0  0  0  0  0  0  0  0  0  0  0
  140.4532   76.9950  223.1888 H   0  0  0  0  0  0  0  0  0  0  0  0
  139.4158   80.2304  221.8941 H   0  0  0  0  0  0  0  0  0  0  0  0
  140.6397   82.3011  222.3681 H   0  0  0  0  0  0  0  0  0  0  0  0
  143.6537   80.1191  224.4136 H   0  0  0  0  0  0  0  0  0  0  0  0
  142.4437   78.0265  223.9487 H   0  0  0  0  0  0  0  0  0  0  0  0
  138.3349   68.6810  223.0361 H   0  0  0  0  0  0  0  0  0  0  0  0
  138.9540   67.1939  224.9141 H   0  0  0  0  0  0  0  0  0  0  0  0
  139.9599   66.9420  227.0765 H   0  0  0  0  0  0  0  0  0  0  0  0
  141.5988   70.4030  229.0119 H   0  0  0  0  0  0  0  0  0  0  0  0
  140.9528   71.8410  227.1039 H   0  0  0  0  0  0  0  0  0  0  0  0
  1  2  2  0
  2  3  1  0
  3  4  1  0
  4  5  1  0
  5  6  2  0
  5  7  1  0
  7  8  1  0
  8  9  1  0
  9 10  1  0
 10 11  1  0
 11 12  1  0
 12 13  1  0
 13 14  1  0
 14 15  2  0
 15 16  1  0
 16 17  2  0
 17 18  1  0
 18 19  2  0
  2 20  1  0
 20 21  2  0
 21 22  1  0
 22 23  2  0
 23 24  1  0
 24 25  2  0
 25 26  1  0
 25 27  1  0
 27 28  2  0
 28 29  1  0
 29 30  2  0
 12  7  1  0
 19 14  1  0
 30 20  1  0
 29 23  1  0
  3 31  1  0
  4 32  1  0
  4 33  1  0
  8 34  1  0
  8 35  1  0
  9 36  1  0
  9 37  1  0
 10 38  1  0
 10 39  1  0
 11 40  1  0
 11 41  1  0
 12 42  1  6
 13 43  1  0
 13 44  1  0
 15 45  1  0
 16 46  1  0
 18 47  1  0
 19 48  1  0
 21 49  1  0
 22 50  1  0
 24 51  1  0
 27 52  1  0
 28 53  1  0
M  END
>  <smiles>  (17) 
O=C(NCC(=O)N1CCCCC1Cc1ccncc1)c1ccc2cc(F)ccc2n1

>  <score_type>  (17) 
oracle

>  <origin>  (17) 
autodockgpu

>  <m_score__min__energy>  (17) 
-8.9800000000000004

>  <m_primary>  (17) 
energy

>  <rmsd>  (17) 
1.7172543764769572

>  <m_score__min__rmsd>  (17) 
1.7172543764769572

>  <meeko>  (17) 
{"free_energy": -8.44, "intermolecular_energy": -10.23, "internal_energy": -2.01, "cluster_size": 27, "cluster_id": 2, "rank_in_cluster": 7}

>  <energy>  (17) 
-8.46

>  <cluster_rmsd>  (17) 
0.69

>  <cluster>  (17) 
2

$$$$

     RDKit          3D

 53 56  0  0  0  0  0  0  0  0999 V2000
  138.6860   71.1150  221.2580 O   0  0  0  0  0  0  0  0  0  0  0  0
  139.1150   71.6990  222.2710 C   0  0  0  0  0  0  0  0  0  0  0  0
  139.3950   73.0900  222.3480 N   0  0  0  0  0  0  0  0  0  0  0  0
  139.1820   73.9610  221.1730 C   0  0  0  0  0  0  0  0  0  0  0  0
  140.3000   74.9040  221.0260 C   0  0  0  0  0  0  0  0  0  0  0  0
  141.0610   75.0050  222.0700 O   0  0  0  0  0  0  0  0  0  0  0  0
  140.6580   75.6990  219.9450 N   0  0  0  0  0  0  0  0  0  0  0  0
  140.8110   74.8950  218.6610 C   0  0  0  0  0  0  0  0  0  0  0  0
  142.0490   75.4240  217.9710 C   0  0  0  0  0  0  0  0  0  0  0  0
  143.0640   76.0140  218.9260 C   0  0  0  0  0  0  0  0  0  0  0  0
  142.5190   77.1610  219.7520 C   0  0  0  0  0  0  0  0  0  0  0  0
  140.9630   77.0460  219.7900 C   0  0  2  0  0  0  0  0  0  0  0  0
  140.4400   78.1820  220.5060 C   0  0  0  0  0  0  0  0  0  0  0  0
  141.1750   78.8300  221.5710 C   0  0  0  0  0  0  0  0  0  0  0  0
  141.1230   78.2090  222.8390 C   0  0  0  0  0  0  0  0  0  0  0  0
  141.7510   78.7630  223.9330 C   0  0  0  0  0  0  0  0  0  0  0  0
  142.4450   79.9220  223.8480 N   0  0  0  0  0  0  0  0  0  0  0  0
  142.5170   80.5510  222.6410 C   0  0  0  0  0  0  0  0  0  0  0  0
  141.8850   79.9970  221.5330 C   0  0  0  0  0  0  0  0  0  0  0  0
  139.3510   70.8870  223.4840 C   0  0  0  0  0  0  0  0  0  0  0  0
  138.9680   69.5700  223.5550 C   0  0  0  0  0  0  0  0  0  0  0  0
  139.1710   68.7770  224.6720 C   0  0  0  0  0  0  0  0  0  0  0  0
  139.7920   69.3480  225.7660 C   0  0  0  0  0  0  0  0  0  0  0  0
  140.0100   68.5980  226.8830 C   0  0  0  0  0  0  0  0  0  0  0  0
  140.6360   69.1960  227.9700 C   0  0  0  0  0  0  0  0  0  0  0  0
  140.8630   68.4680  229.0950 F   0  0  0  0  0  0  0  0  0  0  0  0
  141.0110   70.5190  227.8710 C   0  0  0  0  0  0  0  0  0  0  0  0
  140.7930   71.2810  226.7460 C   0  0  0  0  0  0  0  0  0  0  0  0
  140.1700   70.6650  225.6810 C   0  0  0  0  0  0  0  0  0  0  0  0
  139.9540   71.4050  224.5740 N   0  0  0  0  0  0  0  0  0  0  0  0
  139.7530   73.5630  223.2060 H   0  0  0  0  0  0  0  0  0  0  0  0
  139.1110   73.3389  220.2686 H   0  0  0  0  0  0  0  0  0  0  0  0
  138.2511   74.5298  221.3140 H   0  0  0  0  0  0  0  0  0  0  0  0
  140.9320   73.8266  218.8932 H   0  0  0  0  0  0  0  0  0  0  0  0
  139.9231   74.9953  218.0194 H   0  0  0  0  0  0  0  0  0  0  0  0
  142.5244   74.5960  217.4248 H   0  0  0  0  0  0  0  0  0  0  0  0
  141.7258   76.2335  217.3000 H   0  0  0  0  0  0  0  0  0  0  0  0
  143.4007   75.2211  219.6101 H   0  0  0  0  0  0  0  0  0  0  0  0
  143.8871   76.4157  218.3168 H   0  0  0  0  0  0  0  0  0  0  0  0
  142.9205   77.1058  220.7746 H   0  0  0  0  0  0  0  0  0  0  0  0
  142.8159   78.1218  219.3062 H   0  0  0  0  0  0  0  0  0  0  0  0
  140.3333   77.2089  218.9029 H   0  0  0  0  0  0  0  0  0  0  0  0
  140.2470   78.9580  219.7506 H   0  0  0  0  0  0  0  0  0  0  0  0
  139.5938   77.7379  221.0508 H   0  0  0  0  0  0  0  0  0  0  0  0
  140.5704   77.2650  222.9550 H   0  0  0  0  0  0  0  0  0  0  0  0
  141.6866   78.2487  224.9033 H   0  0  0  0  0  0  0  0  0  0  0  0
  143.0737   81.4947  222.5435 H   0  0  0  0  0  0  0  0  0  0  0  0
  141.9608   80.5278  220.5725 H   0  0  0  0  0  0  0  0  0  0  0  0
  138.4747   69.1221  222.6797 H   0  0  0  0  0  0  0  0  0  0  0  0
  138.8480   67.7256  224.6877 H   0  0  0  0  0  0  0  0  0  0  0  0
  139.6977   67.5440  226.9231 H   0  0  0  0  0  0  0  0  0  0  0  0
  141.5084   70.9881  228.7327 H   0  0  0  0  0  0  0  0  0  0  0  0
  141.1022   72.3356  226.6983 H   0  0  0  0  0  0  0  0  0  0  0  0
  1  2  2  0
  2  3  1  0
  3  4  1  0
  4  5  1  0
  5  6  2  0
  5  7  1  0
  7  8  1  0
  8  9  1  0
  9 10  1  0
 10 11  1  0
 11 12  1  0
 12 13  1  0
 13 14  1  0
 14 15  2  0
 15 16  1  0
 16 17  2  0
 17 18  1  0
 18 19  2  0
  2 20  1  0
 20 21  2  0
 21 22  1  0
 22 23  2  0
 23 24  1  0
 24 25  2  0
 25 26  1  0
 25 27  1  0
 27 28  2  0
 28 29  1  0
 29 30  2  0
 12  7  1  0
 19 14  1  0
 30 20  1  0
 29 23  1  0
  3 31  1  0
  4 32  1  0
  4 33  1  0
  8 34  1  0
  8 35  1  0
  9 36  1  0
  9 37  1  0
 10 38  1  0
 10 39  1  0
 11 40  1  0
 11 41  1  0
 12 42  1  6
 13 43  1  0
 13 44  1  0
 15 45  1  0
 16 46  1  0
 18 47  1  0
 19 48  1  0
 21 49  1  0
 22 50  1  0
 24 51  1  0
 27 52  1  0
 28 53  1  0
M  END
>  <smiles>  (18) 
O=C(NCC(=O)N1CCCCC1Cc1ccncc1)c1ccc2cc(F)ccc2n1

>  <score_type>  (18) 
oracle

>  <origin>  (18) 
autodockgpu

>  <m_score__min__energy>  (18) 
-8.9800000000000004

>  <m_primary>  (18) 
energy

>  <rmsd>  (18) 
1.3632622716773188

>  <m_score__min__rmsd>  (18) 
1.3632622716773188

>  <meeko>  (18) 
{"free_energy": -8.3, "intermolecular_energy": -10.09, "internal_energy": -2.15, "cluster_size": 27, "cluster_id": 2, "rank_in_cluster": 18}

>  <energy>  (18) 
-8.45

>  <cluster_rmsd>  (18) 
0.69

>  <cluster>  (18) 
2

$$$$

     RDKit          3D

 53 56  0  0  0  0  0  0  0  0999 V2000
  137.9180   70.8900  221.9370 O   0  0  0  0  0  0  0  0  0  0  0  0
  138.7020   71.3600  222.7820 C   0  0  0  0  0  0  0  0  0  0  0  0
  139.2510   72.6700  222.7390 N   0  0  0  0  0  0  0  0  0  0  0  0
  138.9040   73.5890  221.6350 C   0  0  0  0  0  0  0  0  0  0  0  0
  139.9420   74.6190  221.4810 C   0  0  0  0  0  0  0  0  0  0  0  0
  141.0740   74.3320  222.0430 O   0  0  0  0  0  0  0  0  0  0  0  0
  139.8900   75.8450  220.8300 N   0  0  0  0  0  0  0  0  0  0  0  0
  139.4840   75.7080  219.3690 C   0  0  0  0  0  0  0  0  0  0  0  0
  140.3800   76.6450  218.5880 C   0  0  0  0  0  0  0  0  0  0  0  0
  141.7180   76.8890  219.2510 C   0  0  0  0  0  0  0  0  0  0  0  0
  141.6030   77.4790  220.6420 C   0  0  0  0  0  0  0  0  0  0  0  0
  140.1830   77.1520  221.2010 C   0  0  2  0  0  0  0  0  0  0  0  0
  140.0430   77.7830  222.4890 C   0  0  0  0  0  0  0  0  0  0  0  0
  140.8200   78.9440  222.8680 C   0  0  0  0  0  0  0  0  0  0  0  0
  140.3580   80.1920  222.3950 C   0  0  0  0  0  0  0  0  0  0  0  0
  141.0440   81.3570  222.6600 C   0  0  0  0  0  0  0  0  0  0  0  0
  142.1880   81.3630  223.3830 N   0  0  0  0  0  0  0  0  0  0  0  0
  142.6660   80.1780  223.8560 C   0  0  0  0  0  0  0  0  0  0  0  0
  141.9780   78.9990  223.5910 C   0  0  0  0  0  0  0  0  0  0  0  0
  139.0920   70.4930  223.9150 C   0  0  0  0  0  0  0  0  0  0  0  0
  138.8340   69.1440  223.9130 C   0  0  0  0  0  0  0  0  0  0  0  0
  139.1830   68.3000  224.9540 C   0  0  0  0  0  0  0  0  0  0  0  0
  139.8230   68.8520  226.0460 C   0  0  0  0  0  0  0  0  0  0  0  0
  140.1830   68.0520  227.0900 C   0  0  0  0  0  0  0  0  0  0  0  0
  140.8270   68.6320  228.1770 C   0  0  0  0  0  0  0  0  0  0  0  0
  141.1930   67.8540  229.2290 F   0  0  0  0  0  0  0  0  0  0  0  0
  141.0730   69.9880  228.1530 C   0  0  0  0  0  0  0  0  0  0  0  0
  140.7130   70.8000  227.1020 C   0  0  0  0  0  0  0  0  0  0  0  0
  140.0760   70.2020  226.0350 C   0  0  0  0  0  0  0  0  0  0  0  0
  139.7200   70.9920  225.0010 N   0  0  0  0  0  0  0  0  0  0  0  0
  139.9060   73.0490  223.4570 H   0  0  0  0  0  0  0  0  0  0  0  0
  138.8197   73.0164  220.6995 H   0  0  0  0  0  0  0  0  0  0  0  0
  137.9464   74.0787  221.8656 H   0  0  0  0  0  0  0  0  0  0  0  0
  139.6286   74.6718  219.0293 H   0  0  0  0  0  0  0  0  0  0  0  0
  138.4225   75.9577  219.2245 H   0  0  0  0  0  0  0  0  0  0  0  0
  140.5579   76.2094  217.5937 H   0  0  0  0  0  0  0  0  0  0  0  0
  139.8643   77.6149  218.5308 H   0  0  0  0  0  0  0  0  0  0  0  0
  142.2516   75.9297  219.3224 H   0  0  0  0  0  0  0  0  0  0  0  0
  142.2579   77.6208  218.6321 H   0  0  0  0  0  0  0  0  0  0  0  0
  142.3700   77.0393  221.2965 H   0  0  0  0  0  0  0  0  0  0  0  0
  141.7520   78.5682  220.6036 H   0  0  0  0  0  0  0  0  0  0  0  0
  139.2651   77.5988  220.7913 H   0  0  0  0  0  0  0  0  0  0  0  0
  138.9871   78.0799  222.5721 H   0  0  0  0  0  0  0  0  0  0  0  0
  140.4395   77.0117  223.1657 H   0  0  0  0  0  0  0  0  0  0  0  0
  139.4318   80.2347  221.8031 H   0  0  0  0  0  0  0  0  0  0  0  0
  140.6509   82.3088  222.2732 H   0  0  0  0  0  0  0  0  0  0  0  0
  143.5940   80.1540  224.4461 H   0  0  0  0  0  0  0  0  0  0  0  0
  142.3890   78.0580  223.9855 H   0  0  0  0  0  0  0  0  0  0  0  0
  138.3239   68.7117  223.0395 H   0  0  0  0  0  0  0  0  0  0  0  0
  138.9576   67.2242  224.9123 H   0  0  0  0  0  0  0  0  0  0  0  0
  139.9689   66.9732  227.0725 H   0  0  0  0  0  0  0  0  0  0  0  0
  141.5817   70.4430  229.0157 H   0  0  0  0  0  0  0  0  0  0  0  0
  140.9242   71.8795  227.1125 H   0  0  0  0  0  0  0  0  0  0  0  0
  1  2  2  0
  2  3  1  0
  3  4  1  0
  4  5  1  0
  5  6  2  0
  5  7  1  0
  7  8  1  0
  8  9  1  0
  9 10  1  0
 10 11  1  0
 11 12  1  0
 12 13  1  0
 13 14  1  0
 14 15  2  0
 15 16  1  0
 16 17  2  0
 17 18  1  0
 18 19  2  0
  2 20  1  0
 20 21  2  0
 21 22  1  0
 22 23  2  0
 23 24  1  0
 24 25  2  0
 25 26  1  0
 25 27  1  0
 27 28  2  0
 28 29  1  0
 29 30  2  0
 12  7  1  0
 19 14  1  0
 30 20  1  0
 29 23  1  0
  3 31  1  0
  4 32  1  0
  4 33  1  0
  8 34  1  0
  8 35  1  0
  9 36  1  0
  9 37  1  0
 10 38  1  0
 10 39  1  0
 11 40  1  0
 11 41  1  0
 12 42  1  6
 13 43  1  0
 13 44  1  0
 15 45  1  0
 16 46  1  0
 18 47  1  0
 19 48  1  0
 21 49  1  0
 22 50  1  0
 24 51  1  0
 27 52  1  0
 28 53  1  0
M  END
>  <smiles>  (19) 
O=C(NCC(=O)N1CCCCC1Cc1ccncc1)c1ccc2cc(F)ccc2n1

>  <score_type>  (19) 
oracle

>  <origin>  (19) 
autodockgpu

>  <m_score__min__energy>  (19) 
-8.9800000000000004

>  <m_primary>  (19) 
energy

>  <rmsd>  (19) 
1.708339383695641

>  <m_score__min__rmsd>  (19) 
1.708339383695641

>  <meeko>  (19) 
{"free_energy": -8.45, "intermolecular_energy": -10.24, "internal_energy": -1.99, "cluster_size": 27, "cluster_id": 2, "rank_in_cluster": 6}

>  <energy>  (19) 
-8.45

>  <cluster_rmsd>  (19) 
1.34

>  <cluster>  (19) 
2

$$$$

     RDKit          3D

 53 56  0  0  0  0  0  0  0  0999 V2000
  140.9760   74.5900  219.1720 O   0  0  0  0  0  0  0  0  0  0  0  0
  140.7870   74.9740  220.3420 C   0  0  0  0  0  0  0  0  0  0  0  0
  140.2840   74.1590  221.3910 N   0  0  0  0  0  0  0  0  0  0  0  0
  139.9400   72.7440  221.1390 C   0  0  0  0  0  0  0  0  0  0  0  0
  139.8370   72.0080  222.4080 C   0  0  0  0  0  0  0  0  0  0  0  0
  140.3850   72.6010  223.4220 O   0  0  0  0  0  0  0  0  0  0  0  0
  139.2450   70.7810  222.6800 N   0  0  0  0  0  0  0  0  0  0  0  0
  138.3500   70.3050  221.5440 C   0  0  0  0  0  0  0  0  0  0  0  0
  137.1070   69.7360  222.1910 C   0  0  0  0  0  0  0  0  0  0  0  0
  136.7960   70.3480  223.5390 C   0  0  0  0  0  0  0  0  0  0  0  0
  137.9120   70.1790  224.5500 C   0  0  0  0  0  0  0  0  0  0  0  0
  139.2440   69.9270  223.7770 C   0  0  2  0  0  0  0  0  0  0  0  0
  140.2900   69.6840  224.7380 C   0  0  0  0  0  0  0  0  0  0  0  0
  140.3410   70.3670  226.0130 C   0  0  0  0  0  0  0  0  0  0  0  0
  141.1240   71.5410  226.0680 C   0  0  0  0  0  0  0  0  0  0  0  0
  141.2780   72.2450  227.2420 C   0  0  0  0  0  0  0  0  0  0  0  0
  140.6880   71.8510  228.3940 N   0  0  0  0  0  0  0  0  0  0  0  0
  139.9240   70.7220  228.3810 C   0  0  0  0  0  0  0  0  0  0  0  0
  139.7660   70.0060  227.1990 C   0  0  0  0  0  0  0  0  0  0  0  0
  141.1090   76.3810  220.6640 C   0  0  0  0  0  0  0  0  0  0  0  0
  141.5010   77.2710  219.6950 C   0  0  0  0  0  0  0  0  0  0  0  0
  141.8110   78.5950  219.9570 C   0  0  0  0  0  0  0  0  0  0  0  0
  141.7200   79.0340  221.2630 C   0  0  0  0  0  0  0  0  0  0  0  0
  142.0170   80.3310  221.5590 C   0  0  0  0  0  0  0  0  0  0  0  0
  141.9170   80.7480  222.8810 C   0  0  0  0  0  0  0  0  0  0  0  0
  142.2090   82.0360  223.2000 F   0  0  0  0  0  0  0  0  0  0  0  0
  141.5220   79.8340  223.8340 C   0  0  0  0  0  0  0  0  0  0  0  0
  141.2210   78.5230  223.5410 C   0  0  0  0  0  0  0  0  0  0  0  0
  141.3270   78.1330  222.2220 C   0  0  0  0  0  0  0  0  0  0  0  0
  141.0330   76.8500  221.9270 N   0  0  0  0  0  0  0  0  0  0  0  0
  140.1330   74.4960  222.3670 H   0  0  0  0  0  0  0  0  0  0  0  0
  138.9761   72.6937  220.6115 H   0  0  0  0  0  0  0  0  0  0  0  0
  140.7309   72.2882  220.5252 H   0  0  0  0  0  0  0  0  0  0  0  0
  138.0861   71.1480  220.8885 H   0  0  0  0  0  0  0  0  0  0  0  0
  138.8581   69.5515  220.9243 H   0  0  0  0  0  0  0  0  0  0  0  0
  136.2527   69.9150  221.5216 H   0  0  0  0  0  0  0  0  0  0  0  0
  137.2892   68.6638  222.3560 H   0  0  0  0  0  0  0  0  0  0  0  0
  136.6123   71.4235  223.3993 H   0  0  0  0  0  0  0  0  0  0  0  0
  135.9152   69.8234  223.9377 H   0  0  0  0  0  0  0  0  0  0  0  0
  138.0027   71.0906  225.1588 H   0  0  0  0  0  0  0  0  0  0  0  0
  137.6944   69.3296  225.2142 H   0  0  0  0  0  0  0  0  0  0  0  0
  139.4370   69.0044  223.2100 H   0  0  0  0  0  0  0  0  0  0  0  0
  140.2521   68.6088  224.9673 H   0  0  0  0  0  0  0  0  0  0  0  0
  141.1720   70.0938  224.2240 H   0  0  0  0  0  0  0  0  0  0  0  0
  141.6209   71.9006  225.1549 H   0  0  0  0  0  0  0  0  0  0  0  0
  141.8983   73.1534  227.2429 H   0  0  0  0  0  0  0  0  0  0  0  0
  139.4334   70.3779  229.3035 H   0  0  0  0  0  0  0  0  0  0  0  0
  139.1439   69.0991  227.2201 H   0  0  0  0  0  0  0  0  0  0  0  0
  141.5726   76.9140  218.6570 H   0  0  0  0  0  0  0  0  0  0  0  0
  142.1201   79.2756  219.1500 H   0  0  0  0  0  0  0  0  0  0  0  0
  142.3285   81.0313  220.7700 H   0  0  0  0  0  0  0  0  0  0  0  0
  141.4435   80.1682  224.8791 H   0  0  0  0  0  0  0  0  0  0  0  0
  140.9094   77.8169  224.3248 H   0  0  0  0  0  0  0  0  0  0  0  0
  1  2  2  0
  2  3  1  0
  3  4  1  0
  4  5  1  0
  5  6  2  0
  5  7  1  0
  7  8  1  0
  8  9  1  0
  9 10  1  0
 10 11  1  0
 11 12  1  0
 12 13  1  0
 13 14  1  0
 14 15  2  0
 15 16  1  0
 16 17  2  0
 17 18  1  0
 18 19  2  0
  2 20  1  0
 20 21  2  0
 21 22  1  0
 22 23  2  0
 23 24  1  0
 24 25  2  0
 25 26  1  0
 25 27  1  0
 27 28  2  0
 28 29  1  0
 29 30  2  0
 12  7  1  0
 19 14  1  0
 30 20  1  0
 29 23  1  0
  3 31  1  0
  4 32  1  0
  4 33  1  0
  8 34  1  0
  8 35  1  0
  9 36  1  0
  9 37  1  0
 10 38  1  0
 10 39  1  0
 11 40  1  0
 11 41  1  0
 12 42  1  6
 13 43  1  0
 13 44  1  0
 15 45  1  0
 16 46  1  0
 18 47  1  0
 19 48  1  0
 21 49  1  0
 22 50  1  0
 24 51  1  0
 27 52  1  0
 28 53  1  0
M  END
>  <smiles>  (20) 
O=C(NCC(=O)N1CCCCC1Cc1ccncc1)c1ccc2cc(F)ccc2n1

>  <score_type>  (20) 
oracle

>  <origin>  (20) 
autodockgpu

>  <m_score__min__energy>  (20) 
-8.9800000000000004

>  <m_primary>  (20) 
energy

>  <rmsd>  (20) 
8.540555878295951

>  <m_score__min__rmsd>  (20) 
8.540555878295951

>  <meeko>  (20) 
{"free_energy": -7.64, "intermolecular_energy": -9.43, "internal_energy": -2.15, "cluster_size": 8, "cluster_id": 3, "rank_in_cluster": 8}

>  <energy>  (20) 
-8.44

>  <cluster_rmsd>  (20) 
1.35

>  <cluster>  (20) 
2

$$$$

     RDKit          3D

 53 56  0  0  0  0  0  0  0  0999 V2000
  141.3390   72.7850  222.1330 O   0  0  0  0  0  0  0  0  0  0  0  0
  140.2320   72.6360  222.6850 C   0  0  0  0  0  0  0  0  0  0  0  0
  139.0520   73.3470  222.3400 N   0  0  0  0  0  0  0  0  0  0  0  0
  139.0740   74.3510  221.2550 C   0  0  0  0  0  0  0  0  0  0  0  0
  139.5420   75.6480  221.7680 C   0  0  0  0  0  0  0  0  0  0  0  0
  138.6640   76.3010  222.4630 O   0  0  0  0  0  0  0  0  0  0  0  0
  140.7730   76.2730  221.6180 N   0  0  0  0  0  0  0  0  0  0  0  0
  141.0300   77.3120  222.7010 C   0  0  0  0  0  0  0  0  0  0  0  0
  141.6470   78.5070  222.0070 C   0  0  0  0  0  0  0  0  0  0  0  0
  141.2420   78.6340  220.5550 C   0  0  0  0  0  0  0  0  0  0  0  0
  141.6100   77.4260  219.7190 C   0  0  0  0  0  0  0  0  0  0  0  0
  141.7870   76.2020  220.6700 C   0  0  2  0  0  0  0  0  0  0  0  0
  142.2180   75.0720  219.8860 C   0  0  0  0  0  0  0  0  0  0  0  0
  143.4520   74.3670  220.1600 C   0  0  0  0  0  0  0  0  0  0  0  0
  143.3850   72.9560  220.1530 C   0  0  0  0  0  0  0  0  0  0  0  0
  144.4890   72.1860  220.4440 C   0  0  0  0  0  0  0  0  0  0  0  0
  145.6860   72.7390  220.7490 N   0  0  0  0  0  0  0  0  0  0  0  0
  145.7900   74.0980  220.7660 C   0  0  0  0  0  0  0  0  0  0  0  0
  144.6790   74.8810  220.4740 C   0  0  0  0  0  0  0  0  0  0  0  0
  140.1380   71.6470  223.7800 C   0  0  0  0  0  0  0  0  0  0  0  0
  139.5400   70.4240  223.5980 C   0  0  0  0  0  0  0  0  0  0  0  0
  139.4330   69.4720  224.5980 C   0  0  0  0  0  0  0  0  0  0  0  0
  139.9570   69.7760  225.8390 C   0  0  0  0  0  0  0  0  0  0  0  0
  139.8710   68.8630  226.8470 C   0  0  0  0  0  0  0  0  0  0  0  0
  140.4080   69.1930  228.0870 C   0  0  0  0  0  0  0  0  0  0  0  0
  140.3320   68.3000  229.1070 F   0  0  0  0  0  0  0  0  0  0  0  0
  141.0030   70.4270  228.2420 C   0  0  0  0  0  0  0  0  0  0  0  0
  141.0930   71.3530  227.2270 C   0  0  0  0  0  0  0  0  0  0  0  0
  140.5530   71.0020  226.0070 C   0  0  0  0  0  0  0  0  0  0  0  0
  140.6380   71.9040  225.0070 N   0  0  0  0  0  0  0  0  0  0  0  0
  138.1320   73.2090  222.8130 H   0  0  0  0  0  0  0  0  0  0  0  0
  139.7520   74.0098  220.4588 H   0  0  0  0  0  0  0  0  0  0  0  0
  138.0553   74.4703  220.8576 H   0  0  0  0  0  0  0  0  0  0  0  0
  140.0849   77.5990  223.1851 H   0  0  0  0  0  0  0  0  0  0  0  0
  141.6950   76.9173  223.4833 H   0  0  0  0  0  0  0  0  0  0  0  0
  141.3336   79.4183  222.5373 H   0  0  0  0  0  0  0  0  0  0  0  0
  142.7379   78.3675  222.0287 H   0  0  0  0  0  0  0  0  0  0  0  0
  140.1516   78.7712  220.5081 H   0  0  0  0  0  0  0  0  0  0  0  0
  141.7881   79.4940  220.1401 H   0  0  0  0  0  0  0  0  0  0  0  0
  140.8098   77.2193  218.9930 H   0  0  0  0  0  0  0  0  0  0  0  0
  142.5449   77.6167  219.1717 H   0  0  0  0  0  0  0  0  0  0  0  0
  142.6161   76.1233  221.3886 H   0  0  0  0  0  0  0  0  0  0  0  0
  141.4148   74.3240  219.9590 H   0  0  0  0  0  0  0  0  0  0  0  0
  142.4329   75.5381  218.9131 H   0  0  0  0  0  0  0  0  0  0  0  0
  142.4323   72.4626  219.9103 H   0  0  0  0  0  0  0  0  0  0  0  0
  144.3953   71.0901  220.4281 H   0  0  0  0  0  0  0  0  0  0  0  0
  146.7510   74.5742  221.0103 H   0  0  0  0  0  0  0  0  0  0  0  0
  144.7937   75.9748  220.4969 H   0  0  0  0  0  0  0  0  0  0  0  0
  139.1247   70.1886  222.6070 H   0  0  0  0  0  0  0  0  0  0  0  0
  138.9458   68.5039  224.4097 H   0  0  0  0  0  0  0  0  0  0  0  0
  139.3883   67.8881  226.6839 H   0  0  0  0  0  0  0  0  0  0  0  0
  141.4263   70.6842  229.2242 H   0  0  0  0  0  0  0  0  0  0  0  0
  141.5744   72.3298  227.3821 H   0  0  0  0  0  0  0  0  0  0  0  0
  1  2  2  0
  2  3  1  0
  3  4  1  0
  4  5  1  0
  5  6  2  0
  5  7  1  0
  7  8  1  0
  8  9  1  0
  9 10  1  0
 10 11  1  0
 11 12  1  0
 12 13  1  0
 13 14  1  0
 14 15  2  0
 15 16  1  0
 16 17  2  0
 17 18  1  0
 18 19  2  0
  2 20  1  0
 20 21  2  0
 21 22  1  0
 22 23  2  0
 23 24  1  0
 24 25  2  0
 25 26  1  0
 25 27  1  0
 27 28  2  0
 28 29  1  0
 29 30  2  0
 12  7  1  0
 19 14  1  0
 30 20  1  0
 29 23  1  0
  3 31  1  0
  4 32  1  0
  4 33  1  0
  8 34  1  0
  8 35  1  0
  9 36  1  0
  9 37  1  0
 10 38  1  0
 10 39  1  0
 11 40  1  0
 11 41  1  0
 12 42  1  1
 13 43  1  0
 13 44  1  0
 15 45  1  0
 16 46  1  0
 18 47  1  0
 19 48  1  0
 21 49  1  0
 22 50  1  0
 24 51  1  0
 27 52  1  0
 28 53  1  0
M  END
>  <smiles>  (21) 
O=C(NCC(=O)N1CCCCC1Cc1ccncc1)c1ccc2cc(F)ccc2n1

>  <score_type>  (21) 
oracle

>  <origin>  (21) 
autodockgpu

>  <m_score__min__energy>  (21) 
-8.9800000000000004

>  <m_primary>  (21) 
energy

>  <rmsd>  (21) 
2.7284302276974137

>  <m_score__min__rmsd>  (21) 
2.7284302276974137

>  <meeko>  (21) 
{"free_energy": -8.74, "intermolecular_energy": -10.52, "internal_energy": -1.66, "cluster_size": 13, "cluster_id": 1, "rank_in_cluster": 4}

>  <energy>  (21) 
-8.42

>  <cluster_rmsd>  (21) 
0.72

>  <cluster>  (21) 
2

$$$$

     RDKit          3D

 53 56  0  0  0  0  0  0  0  0999 V2000
  137.5900   70.2330  222.1910 O   0  0  0  0  0  0  0  0  0  0  0  0
  138.3780   70.8080  222.9660 C   0  0  0  0  0  0  0  0  0  0  0  0
  138.8050   72.1570  222.8340 N   0  0  0  0  0  0  0  0  0  0  0  0
  138.3140   72.9890  221.7150 C   0  0  0  0  0  0  0  0  0  0  0  0
  138.8530   74.3530  221.8180 C   0  0  0  0  0  0  0  0  0  0  0  0
  140.0370   74.4280  222.3410 O   0  0  0  0  0  0  0  0  0  0  0  0
  138.2870   75.5650  221.4440 N   0  0  0  0  0  0  0  0  0  0  0  0
  139.1970   76.3710  220.5270 C   0  0  0  0  0  0  0  0  0  0  0  0
  139.1130   77.8060  220.9980 C   0  0  0  0  0  0  0  0  0  0  0  0
  138.7790   77.9390  222.4670 C   0  0  0  0  0  0  0  0  0  0  0  0
  137.4620   77.2940  222.8460 C   0  0  0  0  0  0  0  0  0  0  0  0
  137.1060   76.2240  221.7670 C   0  0  2  0  0  0  0  0  0  0  0  0
  135.8150   75.6700  222.0820 C   0  0  0  0  0  0  0  0  0  0  0  0
  135.4450   75.2910  223.4300 C   0  0  0  0  0  0  0  0  0  0  0  0
  135.4320   73.9070  223.7140 C   0  0  0  0  0  0  0  0  0  0  0  0
  135.0540   73.4340  224.9510 C   0  0  0  0  0  0  0  0  0  0  0  0
  134.6780   74.2660  225.9500 N   0  0  0  0  0  0  0  0  0  0  0  0
  134.6770   75.6080  225.7140 C   0  0  0  0  0  0  0  0  0  0  0  0
  135.0570   76.0920  224.4670 C   0  0  0  0  0  0  0  0  0  0  0  0
  138.9070   70.0330  224.1080 C   0  0  0  0  0  0  0  0  0  0  0  0
  138.8150   68.6630  224.1560 C   0  0  0  0  0  0  0  0  0  0  0  0
  139.2980   67.9030  225.2070 C   0  0  0  0  0  0  0  0  0  0  0  0
  139.9030   68.5640  226.2580 C   0  0  0  0  0  0  0  0  0  0  0  0
  140.3910   67.8480  227.3100 C   0  0  0  0  0  0  0  0  0  0  0  0
  140.9960   68.5370  228.3560 C   0  0  0  0  0  0  0  0  0  0  0  0
  141.4890   67.8450  229.4160 F   0  0  0  0  0  0  0  0  0  0  0  0
  141.0760   69.9110  228.2830 C   0  0  0  0  0  0  0  0  0  0  0  0
  140.5840   70.6390  227.2230 C   0  0  0  0  0  0  0  0  0  0  0  0
  139.9890   69.9330  226.1980 C   0  0  0  0  0  0  0  0  0  0  0  0
  139.5060   70.6390  225.1550 N   0  0  0  0  0  0  0  0  0  0  0  0
  139.4640   72.6250  223.4930 H   0  0  0  0  0  0  0  0  0  0  0  0
  138.6359   72.5426  220.7626 H   0  0  0  0  0  0  0  0  0  0  0  0
  137.2158   73.0342  221.7580 H   0  0  0  0  0  0  0  0  0  0  0  0
  140.2320   76.0060  220.6012 H   0  0  0  0  0  0  0  0  0  0  0  0
  138.8885   76.2772  219.4753 H   0  0  0  0  0  0  0  0  0  0  0  0
  140.0841   78.2897  220.8163 H   0  0  0  0  0  0  0  0  0  0  0  0
  138.2976   78.2844  220.4357 H   0  0  0  0  0  0  0  0  0  0  0  0
  139.5808   77.4637  223.0511 H   0  0  0  0  0  0  0  0  0  0  0  0
  138.6879   79.0137  222.6829 H   0  0  0  0  0  0  0  0  0  0  0  0
  137.5547   76.8118  223.8303 H   0  0  0  0  0  0  0  0  0  0  0  0
  136.6701   78.0558  222.8970 H   0  0  0  0  0  0  0  0  0  0  0  0
  136.8308   76.4876  220.7351 H   0  0  0  0  0  0  0  0  0  0  0  0
  135.0740   76.4159  221.7587 H   0  0  0  0  0  0  0  0  0  0  0  0
  135.8545   74.6954  221.5735 H   0  0  0  0  0  0  0  0  0  0  0  0
  135.7297   73.1932  222.9317 H   0  0  0  0  0  0  0  0  0  0  0  0
  135.0578   72.3490  225.1322 H   0  0  0  0  0  0  0  0  0  0  0  0
  134.3762   76.3071  226.5083 H   0  0  0  0  0  0  0  0  0  0  0  0
  135.0446   77.1801  224.3063 H   0  0  0  0  0  0  0  0  0  0  0  0
  138.3323   68.1431  223.3153 H   0  0  0  0  0  0  0  0  0  0  0  0
  139.2030   66.8071  225.2053 H   0  0  0  0  0  0  0  0  0  0  0  0
  140.3084   66.7513  227.3314 H   0  0  0  0  0  0  0  0  0  0  0  0
  141.5561   70.4521  229.1117 H   0  0  0  0  0  0  0  0  0  0  0  0
  140.6620   71.7359  227.1947 H   0  0  0  0  0  0  0  0  0  0  0  0
  1  2  2  0
  2  3  1  0
  3  4  1  0
  4  5  1  0
  5  6  2  0
  5  7  1  0
  7  8  1  0
  8  9  1  0
  9 10  1  0
 10 11  1  0
 11 12  1  0
 12 13  1  0
 13 14  1  0
 14 15  2  0
 15 16  1  0
 16 17  2  0
 17 18  1  0
 18 19  2  0
  2 20  1  0
 20 21  2  0
 21 22  1  0
 22 23  2  0
 23 24  1  0
 24 25  2  0
 25 26  1  0
 25 27  1  0
 27 28  2  0
 28 29  1  0
 29 30  2  0
 12  7  1  0
 19 14  1  0
 30 20  1  0
 29 23  1  0
  3 31  1  0
  4 32  1  0
  4 33  1  0
  8 34  1  0
  8 35  1  0
  9 36  1  0
  9 37  1  0
 10 38  1  0
 10 39  1  0
 11 40  1  0
 11 41  1  0
 12 42  1  6
 13 43  1  0
 13 44  1  0
 15 45  1  0
 16 46  1  0
 18 47  1  0
 19 48  1  0
 21 49  1  0
 22 50  1  0
 24 51  1  0
 27 52  1  0
 28 53  1  0
M  END
>  <smiles>  (22) 
O=C(NCC(=O)N1CCCCC1Cc1ccncc1)c1ccc2cc(F)ccc2n1

>  <score_type>  (22) 
oracle

>  <origin>  (22) 
autodockgpu

>  <m_score__min__energy>  (22) 
-8.9800000000000004

>  <m_primary>  (22) 
energy

>  <rmsd>  (22) 
2.920919691794851

>  <m_score__min__rmsd>  (22) 
2.920919691794851

>  <meeko>  (22) 
{"free_energy": -7.48, "intermolecular_energy": -9.27, "internal_energy": -2.26, "cluster_size": 2, "cluster_id": 4, "rank_in_cluster": 1}

>  <energy>  (22) 
-8.4

>  <cluster_rmsd>  (22) 
0.74

>  <cluster>  (22) 
2

$$$$

     RDKit          3D

 53 56  0  0  0  0  0  0  0  0999 V2000
  138.8940   71.0210  221.1980 O   0  0  0  0  0  0  0  0  0  0  0  0
  139.2110   71.6280  222.2380 C   0  0  0  0  0  0  0  0  0  0  0  0
  139.3810   73.0350  222.3360 N   0  0  0  0  0  0  0  0  0  0  0  0
  139.1810   73.8960  221.1510 C   0  0  0  0  0  0  0  0  0  0  0  0
  140.1440   75.0070  221.1580 C   0  0  0  0  0  0  0  0  0  0  0  0
  140.6030   75.3170  222.3300 O   0  0  0  0  0  0  0  0  0  0  0  0
  140.6300   75.7700  220.1040 N   0  0  0  0  0  0  0  0  0  0  0  0
  140.8410   74.9460  218.8420 C   0  0  0  0  0  0  0  0  0  0  0  0
  142.1580   75.4010  218.2510 C   0  0  0  0  0  0  0  0  0  0  0  0
  143.1230   75.9450  219.2810 C   0  0  0  0  0  0  0  0  0  0  0  0
  142.5770   77.1290  220.0530 C   0  0  0  0  0  0  0  0  0  0  0  0
  141.0190   77.0980  219.9670 C   0  0  2  0  0  0  0  0  0  0  0  0
  140.5020   78.2670  220.6310 C   0  0  0  0  0  0  0  0  0  0  0  0
  141.1340   78.8320  221.8050 C   0  0  0  0  0  0  0  0  0  0  0  0
  141.8940   80.0060  221.6070 C   0  0  0  0  0  0  0  0  0  0  0  0
  142.5730   80.6020  222.6470 C   0  0  0  0  0  0  0  0  0  0  0  0
  142.5450   80.0960  223.9020 N   0  0  0  0  0  0  0  0  0  0  0  0
  141.8230   78.9640  224.1320 C   0  0  0  0  0  0  0  0  0  0  0  0
  141.1360   78.3570  223.0860 C   0  0  0  0  0  0  0  0  0  0  0  0
  139.4270   70.8270  223.4620 C   0  0  0  0  0  0  0  0  0  0  0  0
  139.0250   69.5160  223.5470 C   0  0  0  0  0  0  0  0  0  0  0  0
  139.2100   68.7340  224.6740 C   0  0  0  0  0  0  0  0  0  0  0  0
  139.8300   69.3090  225.7650 C   0  0  0  0  0  0  0  0  0  0  0  0
  140.0300   68.5700  226.8930 C   0  0  0  0  0  0  0  0  0  0  0  0
  140.6570   69.1720  227.9770 C   0  0  0  0  0  0  0  0  0  0  0  0
  140.8660   68.4550  229.1120 F   0  0  0  0  0  0  0  0  0  0  0  0
  141.0500   70.4890  227.8660 C   0  0  0  0  0  0  0  0  0  0  0  0
  140.8520   71.2410  226.7300 C   0  0  0  0  0  0  0  0  0  0  0  0
  140.2280   70.6210  225.6680 C   0  0  0  0  0  0  0  0  0  0  0  0
  140.0300   71.3500  224.5500 N   0  0  0  0  0  0  0  0  0  0  0  0
  139.6460   73.5280  223.2170 H   0  0  0  0  0  0  0  0  0  0  0  0
  139.3245   73.2974  220.2394 H   0  0  0  0  0  0  0  0  0  0  0  0
  138.1610   74.3070  221.1759 H   0  0  0  0  0  0  0  0  0  0  0  0
  140.8846   73.8751  219.0895 H   0  0  0  0  0  0  0  0  0  0  0  0
  140.0142   75.0870  218.1303 H   0  0  0  0  0  0  0  0  0  0  0  0
  142.6301   74.5431  217.7498 H   0  0  0  0  0  0  0  0  0  0  0  0
  141.9342   76.2199  217.5515 H   0  0  0  0  0  0  0  0  0  0  0  0
  143.3593   75.1424  219.9952 H   0  0  0  0  0  0  0  0  0  0  0  0
  144.0134   76.2949  218.7380 H   0  0  0  0  0  0  0  0  0  0  0  0
  142.8922   77.0638  221.1048 H   0  0  0  0  0  0  0  0  0  0  0  0
  142.9602   78.0675  219.6259 H   0  0  0  0  0  0  0  0  0  0  0  0
  140.4717   77.2861  219.0316 H   0  0  0  0  0  0  0  0  0  0  0  0
  140.4867   79.0669  219.8760 H   0  0  0  0  0  0  0  0  0  0  0  0
  139.5512   77.8950  221.0405 H   0  0  0  0  0  0  0  0  0  0  0  0
  141.9447   80.4529  220.6032 H   0  0  0  0  0  0  0  0  0  0  0  0
  143.1545   81.5151  222.4519 H   0  0  0  0  0  0  0  0  0  0  0  0
  141.7834   78.5310  225.1424 H   0  0  0  0  0  0  0  0  0  0  0  0
  140.5623   77.4437  223.3022 H   0  0  0  0  0  0  0  0  0  0  0  0
  138.5305   69.0645  222.6743 H   0  0  0  0  0  0  0  0  0  0  0  0
  138.8735   67.6871  224.6994 H   0  0  0  0  0  0  0  0  0  0  0  0
  139.7025   67.5211  226.9438 H   0  0  0  0  0  0  0  0  0  0  0  0
  141.5457   70.9616  228.7268 H   0  0  0  0  0  0  0  0  0  0  0  0
  141.1772   72.2902  226.6720 H   0  0  0  0  0  0  0  0  0  0  0  0
  1  2  2  0
  2  3  1  0
  3  4  1  0
  4  5  1  0
  5  6  2  0
  5  7  1  0
  7  8  1  0
  8  9  1  0
  9 10  1  0
 10 11  1  0
 11 12  1  0
 12 13  1  0
 13 14  1  0
 14 15  2  0
 15 16  1  0
 16 17  2  0
 17 18  1  0
 18 19  2  0
  2 20  1  0
 20 21  2  0
 21 22  1  0
 22 23  2  0
 23 24  1  0
 24 25  2  0
 25 26  1  0
 25 27  1  0
 27 28  2  0
 28 29  1  0
 29 30  2  0
 12  7  1  0
 19 14  1  0
 30 20  1  0
 29 23  1  0
  3 31  1  0
  4 32  1  0
  4 33  1  0
  8 34  1  0
  8 35  1  0
  9 36  1  0
  9 37  1  0
 10 38  1  0
 10 39  1  0
 11 40  1  0
 11 41  1  0
 12 42  1  6
 13 43  1  0
 13 44  1  0
 15 45  1  0
 16 46  1  0
 18 47  1  0
 19 48  1  0
 21 49  1  0
 22 50  1  0
 24 51  1  0
 27 52  1  0
 28 53  1  0
M  END
>  <smiles>  (23) 
O=C(NCC(=O)N1CCCCC1Cc1ccncc1)c1ccc2cc(F)ccc2n1

>  <score_type>  (23) 
oracle

>  <origin>  (23) 
autodockgpu

>  <m_score__min__energy>  (23) 
-8.9800000000000004

>  <m_primary>  (23) 
energy

>  <rmsd>  (23) 
1.4017778566287513

>  <m_score__min__rmsd>  (23) 
1.4017778566287513

>  <meeko>  (23) 
{"free_energy": -8.46, "intermolecular_energy": -10.25, "internal_energy": -2.17, "cluster_size": 27, "cluster_id": 2, "rank_in_cluster": 4}

>  <energy>  (23) 
-8.38

>  <cluster_rmsd>  (23) 
1.18

>  <cluster>  (23) 
2

$$$$

     RDKit          3D

 53 56  0  0  0  0  0  0  0  0999 V2000
  140.2070   71.0620  221.4420 O   0  0  0  0  0  0  0  0  0  0  0  0
  139.6120   71.5700  222.4120 C   0  0  0  0  0  0  0  0  0  0  0  0
  138.6080   72.5710  222.3140 N   0  0  0  0  0  0  0  0  0  0  0  0
  138.1970   73.0890  220.9920 C   0  0  0  0  0  0  0  0  0  0  0  0
  139.2270   73.9880  220.4520 C   0  0  0  0  0  0  0  0  0  0  0  0
  139.1070   74.2500  219.1880 O   0  0  0  0  0  0  0  0  0  0  0  0
  140.3030   74.5930  221.0890 N   0  0  0  0  0  0  0  0  0  0  0  0
  139.8730   75.7520  221.9770 C   0  0  0  0  0  0  0  0  0  0  0  0
  140.8800   76.8580  221.7530 C   0  0  0  0  0  0  0  0  0  0  0  0
  141.5270   76.8140  220.3860 C   0  0  0  0  0  0  0  0  0  0  0  0
  142.2580   75.5170  220.1070 C   0  0  0  0  0  0  0  0  0  0  0  0
  141.6810   74.4130  221.0470 C   0  0  2  0  0  0  0  0  0  0  0  0
  142.4310   73.2000  220.8400 C   0  0  0  0  0  0  0  0  0  0  0  0
  143.7820   73.2070  220.3210 C   0  0  0  0  0  0  0  0  0  0  0  0
  143.9400   72.8100  218.9740 C   0  0  0  0  0  0  0  0  0  0  0  0
  145.1860   72.7380  218.3910 C   0  0  0  0  0  0  0  0  0  0  0  0
  146.3140   73.0430  219.0750 N   0  0  0  0  0  0  0  0  0  0  0  0
  146.2020   73.4290  220.3770 C   0  0  0  0  0  0  0  0  0  0  0  0
  144.9460   73.5030  220.9710 C   0  0  0  0  0  0  0  0  0  0  0  0
  139.9750   71.0970  223.7650 C   0  0  0  0  0  0  0  0  0  0  0  0
  140.6930   71.8820  224.6340 C   0  0  0  0  0  0  0  0  0  0  0  0
  141.0520   71.4750  225.9080 C   0  0  0  0  0  0  0  0  0  0  0  0
  140.6650   70.2140  226.3170 C   0  0  0  0  0  0  0  0  0  0  0  0
  141.0000   69.7790  227.5650 C   0  0  0  0  0  0  0  0  0  0  0  0
  140.5970   68.5060  227.9530 C   0  0  0  0  0  0  0  0  0  0  0  0
  140.9200   68.0510  229.1910 F   0  0  0  0  0  0  0  0  0  0  0  0
  139.8780   67.7400  227.0610 C   0  0  0  0  0  0  0  0  0  0  0  0
  139.5370   68.1740  225.8000 C   0  0  0  0  0  0  0  0  0  0  0  0
  139.9470   69.4400  225.4380 C   0  0  0  0  0  0  0  0  0  0  0  0
  139.6160   69.8730  224.2040 N   0  0  0  0  0  0  0  0  0  0  0  0
  138.1180   72.9850  223.1370 H   0  0  0  0  0  0  0  0  0  0  0  0
  138.0533   72.2455  220.3007 H   0  0  0  0  0  0  0  0  0  0  0  0
  137.2571   73.6494  221.1044 H   0  0  0  0  0  0  0  0  0  0  0  0
  138.8653   76.0925  221.6967 H   0  0  0  0  0  0  0  0  0  0  0  0
  139.8385   75.4524  223.0348 H   0  0  0  0  0  0  0  0  0  0  0  0
  140.3670   77.8246  221.8650 H   0  0  0  0  0  0  0  0  0  0  0  0
  141.6804   76.7236  222.4955 H   0  0  0  0  0  0  0  0  0  0  0  0
  140.7431   76.9429  219.6251 H   0  0  0  0  0  0  0  0  0  0  0  0
  142.2742   77.6207  220.3547 H   0  0  0  0  0  0  0  0  0  0  0  0
  142.1092   75.2254  219.0568 H   0  0  0  0  0  0  0  0  0  0  0  0
  143.3352   75.6438  220.2904 H   0  0  0  0  0  0  0  0  0  0  0  0
  141.8346   74.4203  222.1362 H   0  0  0  0  0  0  0  0  0  0  0  0
  142.4807   72.6993  221.8182 H   0  0  0  0  0  0  0  0  0  0  0  0
  141.8736   72.7239  220.0198 H   0  0  0  0  0  0  0  0  0  0  0  0
  143.0508   72.5535  218.3795 H   0  0  0  0  0  0  0  0  0  0  0  0
  145.2669   72.4238  217.3399 H   0  0  0  0  0  0  0  0  0  0  0  0
  147.1021   73.6814  220.9568 H   0  0  0  0  0  0  0  0  0  0  0  0
  144.8873   73.8176  222.0234 H   0  0  0  0  0  0  0  0  0  0  0  0
  140.9983   72.8849  224.3010 H   0  0  0  0  0  0  0  0  0  0  0  0
  141.6274   72.1354  226.5734 H   0  0  0  0  0  0  0  0  0  0  0  0
  141.5756   70.4201  228.2489 H   0  0  0  0  0  0  0  0  0  0  0  0
  139.5614   66.7334  227.3717 H   0  0  0  0  0  0  0  0  0  0  0  0
  138.9621   67.5383  225.1106 H   0  0  0  0  0  0  0  0  0  0  0  0
  1  2  2  0
  2  3  1  0
  3  4  1  0
  4  5  1  0
  5  6  2  0
  5  7  1  0
  7  8  1  0
  8  9  1  0
  9 10  1  0
 10 11  1  0
 11 12  1  0
 12 13  1  0
 13 14  1  0
 14 15  2  0
 15 16  1  0
 16 17  2  0
 17 18  1  0
 18 19  2  0
  2 20  1  0
 20 21  2  0
 21 22  1  0
 22 23  2  0
 23 24  1  0
 24 25  2  0
 25 26  1  0
 25 27  1  0
 27 28  2  0
 28 29  1  0
 29 30  2  0
 12  7  1  0
 19 14  1  0
 30 20  1  0
 29 23  1  0
  3 31  1  0
  4 32  1  0
  4 33  1  0
  8 34  1  0
  8 35  1  0
  9 36  1  0
  9 37  1  0
 10 38  1  0
 10 39  1  0
 11 40  1  0
 11 41  1  0
 12 42  1  1
 13 43  1  0
 13 44  1  0
 15 45  1  0
 16 46  1  0
 18 47  1  0
 19 48  1  0
 21 49  1  0
 22 50  1  0
 24 51  1  0
 27 52  1  0
 28 53  1  0
M  END
>  <smiles>  (24) 
O=C(NCC(=O)N1CCCCC1Cc1ccncc1)c1ccc2cc(F)ccc2n1

>  <score_type>  (24) 
oracle

>  <origin>  (24) 
autodockgpu

>  <m_score__min__energy>  (24) 
-8.9800000000000004

>  <m_primary>  (24) 
energy

>  <rmsd>  (24) 
3.364698202479933

>  <m_score__min__rmsd>  (24) 
3.364698202479933

>  <meeko>  (24) 
{"free_energy": -8.58, "intermolecular_energy": -10.37, "internal_energy": -1.78, "cluster_size": 13, "cluster_id": 1, "rank_in_cluster": 7}

>  <energy>  (24) 
-8.37

>  <cluster_rmsd>  (24) 
0.74

>  <cluster>  (24) 
2

$$$$

     RDKit          3D

 53 56  0  0  0  0  0  0  0  0999 V2000
  139.9930   75.7590  220.1450 O   0  0  0  0  0  0  0  0  0  0  0  0
  139.7940   75.8420  221.3720 C   0  0  0  0  0  0  0  0  0  0  0  0
  139.3050   74.7860  222.1870 N   0  0  0  0  0  0  0  0  0  0  0  0
  138.9900   73.4690  221.5930 C   0  0  0  0  0  0  0  0  0  0  0  0
  139.3820   72.3880  222.5100 C   0  0  0  0  0  0  0  0  0  0  0  0
  140.4100   72.6560  223.2520 O   0  0  0  0  0  0  0  0  0  0  0  0
  138.8210   71.1310  222.6950 N   0  0  0  0  0  0  0  0  0  0  0  0
  137.8180   70.7780  221.6050 C   0  0  0  0  0  0  0  0  0  0  0  0
  136.6450   70.1230  222.3010 C   0  0  0  0  0  0  0  0  0  0  0  0
  136.4680   70.5740  223.7350 C   0  0  0  0  0  0  0  0  0  0  0  0
  137.6780   70.3020  224.6050 C   0  0  0  0  0  0  0  0  0  0  0  0
  138.9280   70.1570  223.6820 C   0  0  2  0  0  0  0  0  0  0  0  0
  140.0640   69.8180  224.5010 C   0  0  0  0  0  0  0  0  0  0  0  0
  140.3330   70.4810  225.7600 C   0  0  0  0  0  0  0  0  0  0  0  0
  139.8690   69.8320  226.9250 C   0  0  0  0  0  0  0  0  0  0  0  0
  140.0330   70.3950  228.1710 C   0  0  0  0  0  0  0  0  0  0  0  0
  140.6440   71.5900  228.3410 N   0  0  0  0  0  0  0  0  0  0  0  0
  141.1050   72.2470  227.2400 C   0  0  0  0  0  0  0  0  0  0  0  0
  140.9420   71.6840  225.9790 C   0  0  0  0  0  0  0  0  0  0  0  0
  140.0880   77.1320  222.0310 C   0  0  0  0  0  0  0  0  0  0  0  0
  139.1020   77.8760  222.6340 C   0  0  0  0  0  0  0  0  0  0  0  0
  139.3380   79.0880  223.2610 C   0  0  0  0  0  0  0  0  0  0  0  0
  140.6330   79.5670  223.2750 C   0  0  0  0  0  0  0  0  0  0  0  0
  140.9030   80.7570  223.8830 C   0  0  0  0  0  0  0  0  0  0  0  0
  142.2150   81.2170  223.8840 C   0  0  0  0  0  0  0  0  0  0  0  0
  142.5080   82.4000  224.4820 F   0  0  0  0  0  0  0  0  0  0  0  0
  143.1840   80.4510  223.2710 C   0  0  0  0  0  0  0  0  0  0  0  0
  142.9170   79.2490  222.6560 C   0  0  0  0  0  0  0  0  0  0  0  0
  141.6090   78.8140  222.6680 C   0  0  0  0  0  0  0  0  0  0  0  0
  141.3390   77.6360  222.0680 N   0  0  0  0  0  0  0  0  0  0  0  0
  139.1440   74.8710  223.2140 H   0  0  0  0  0  0  0  0  0  0  0  0
  137.9088   73.4071  221.4004 H   0  0  0  0  0  0  0  0  0  0  0  0
  139.5477   73.3589  220.6513 H   0  0  0  0  0  0  0  0  0  0  0  0
  137.4899   71.6876  221.0807 H   0  0  0  0  0  0  0  0  0  0  0  0
  138.2628   70.1070  220.8554 H   0  0  0  0  0  0  0  0  0  0  0  0
  135.7286   70.3664  221.7434 H   0  0  0  0  0  0  0  0  0  0  0  0
  136.8436   69.0413  222.3232 H   0  0  0  0  0  0  0  0  0  0  0  0
  136.2723   71.6564  223.7384 H   0  0  0  0  0  0  0  0  0  0  0  0
  135.6300   69.9986  224.1553 H   0  0  0  0  0  0  0  0  0  0  0  0
  137.8278   71.1378  225.3042 H   0  0  0  0  0  0  0  0  0  0  0  0
  137.5269   69.3785  225.1833 H   0  0  0  0  0  0  0  0  0  0  0  0
  139.0643   69.3075  222.9966 H   0  0  0  0  0  0  0  0  0  0  0  0
  139.9666   68.7471  224.7327 H   0  0  0  0  0  0  0  0  0  0  0  0
  140.9045   70.1590  223.8787 H   0  0  0  0  0  0  0  0  0  0  0  0
  139.3666   68.8575  226.8355 H   0  0  0  0  0  0  0  0  0  0  0  0
  139.6563   69.8575  229.0537 H   0  0  0  0  0  0  0  0  0  0  0  0
  141.6051   73.2207  227.3484 H   0  0  0  0  0  0  0  0  0  0  0  0
  141.3248   72.2382  225.1094 H   0  0  0  0  0  0  0  0  0  0  0  0
  138.0725   77.4888  222.6177 H   0  0  0  0  0  0  0  0  0  0  0  0
  138.5196   79.6514  223.7330 H   0  0  0  0  0  0  0  0  0  0  0  0
  140.1018   81.3394  224.3614 H   0  0  0  0  0  0  0  0  0  0  0  0
  144.2208   80.8185  223.2736 H   0  0  0  0  0  0  0  0  0  0  0  0
  143.7129   78.6609  222.1757 H   0  0  0  0  0  0  0  0  0  0  0  0
  1  2  2  0
  2  3  1  0
  3  4  1  0
  4  5  1  0
  5  6  2  0
  5  7  1  0
  7  8  1  0
  8  9  1  0
  9 10  1  0
 10 11  1  0
 11 12  1  0
 12 13  1  0
 13 14  1  0
 14 15  2  0
 15 16  1  0
 16 17  2  0
 17 18  1  0
 18 19  2  0
  2 20  1  0
 20 21  2  0
 21 22  1  0
 22 23  2  0
 23 24  1  0
 24 25  2  0
 25 26  1  0
 25 27  1  0
 27 28  2  0
 28 29  1  0
 29 30  2  0
 12  7  1  0
 19 14  1  0
 30 20  1  0
 29 23  1  0
  3 31  1  0
  4 32  1  0
  4 33  1  0
  8 34  1  0
  8 35  1  0
  9 36  1  0
  9 37  1  0
 10 38  1  0
 10 39  1  0
 11 40  1  0
 11 41  1  0
 12 42  1  6
 13 43  1  0
 13 44  1  0
 15 45  1  0
 16 46  1  0
 18 47  1  0
 19 48  1  0
 21 49  1  0
 22 50  1  0
 24 51  1  0
 27 52  1  0
 28 53  1  0
M  END
>  <smiles>  (25) 
O=C(NCC(=O)N1CCCCC1Cc1ccncc1)c1ccc2cc(F)ccc2n1

>  <score_type>  (25) 
oracle

>  <origin>  (25) 
autodockgpu

>  <m_score__min__energy>  (25) 
-8.9800000000000004

>  <m_primary>  (25) 
energy

>  <rmsd>  (25) 
8.516064732174513

>  <m_score__min__rmsd>  (25) 
8.516064732174513

>  <meeko>  (25) 
{"free_energy": -8.47, "intermolecular_energy": -10.26, "internal_energy": -1.51, "cluster_size": 8, "cluster_id": 3, "rank_in_cluster": 2}

>  <energy>  (25) 
-8.34

>  <cluster_rmsd>  (25) 
1.25

>  <cluster>  (25) 
2

$$$$

     RDKit          3D

 53 56  0  0  0  0  0  0  0  0999 V2000
  139.0070   70.9930  221.1700 O   0  0  0  0  0  0  0  0  0  0  0  0
  139.2610   71.6150  222.2190 C   0  0  0  0  0  0  0  0  0  0  0  0
  139.3720   73.0280  222.3180 N   0  0  0  0  0  0  0  0  0  0  0  0
  139.1840   73.8770  221.1220 C   0  0  0  0  0  0  0  0  0  0  0  0
  140.1060   75.0210  221.1580 C   0  0  0  0  0  0  0  0  0  0  0  0
  140.5220   75.3430  222.3420 O   0  0  0  0  0  0  0  0  0  0  0  0
  140.5930   75.8040  220.1190 N   0  0  0  0  0  0  0  0  0  0  0  0
  140.7730   75.0120  218.8310 C   0  0  0  0  0  0  0  0  0  0  0  0
  142.0900   75.4600  218.2360 C   0  0  0  0  0  0  0  0  0  0  0  0
  143.0790   75.9560  219.2670 C   0  0  0  0  0  0  0  0  0  0  0  0
  142.5650   77.1270  220.0800 C   0  0  0  0  0  0  0  0  0  0  0  0
  141.0050   77.1280  220.0140 C   0  0  2  0  0  0  0  0  0  0  0  0
  140.5190   78.2880  220.7170 C   0  0  0  0  0  0  0  0  0  0  0  0
  141.2820   78.9310  221.7660 C   0  0  0  0  0  0  0  0  0  0  0  0
  141.1420   78.3940  223.0650 C   0  0  0  0  0  0  0  0  0  0  0  0
  141.7880   78.9550  224.1440 C   0  0  0  0  0  0  0  0  0  0  0  0
  142.5850   80.0410  224.0150 N   0  0  0  0  0  0  0  0  0  0  0  0
  142.7440   80.5880  222.7770 C   0  0  0  0  0  0  0  0  0  0  0  0
  142.0940   80.0270  221.6830 C   0  0  0  0  0  0  0  0  0  0  0  0
  139.4610   70.8260  223.4540 C   0  0  0  0  0  0  0  0  0  0  0  0
  139.0600   69.5160  223.5460 C   0  0  0  0  0  0  0  0  0  0  0  0
  139.2300   68.7450  224.6830 C   0  0  0  0  0  0  0  0  0  0  0  0
  139.8340   69.3320  225.7780 C   0  0  0  0  0  0  0  0  0  0  0  0
  140.0190   68.6040  226.9150 C   0  0  0  0  0  0  0  0  0  0  0  0
  140.6300   69.2190  228.0020 C   0  0  0  0  0  0  0  0  0  0  0  0
  140.8240   68.5130  229.1470 F   0  0  0  0  0  0  0  0  0  0  0  0
  141.0220   70.5350  227.8830 C   0  0  0  0  0  0  0  0  0  0  0  0
  140.8380   71.2750  226.7370 C   0  0  0  0  0  0  0  0  0  0  0  0
  140.2300   70.6430  225.6730 C   0  0  0  0  0  0  0  0  0  0  0  0
  140.0470   71.3620  224.5450 N   0  0  0  0  0  0  0  0  0  0  0  0
  139.5840   73.5330  223.2050 H   0  0  0  0  0  0  0  0  0  0  0  0
  139.3811   73.2805  220.2190 H   0  0  0  0  0  0  0  0  0  0  0  0
  138.1498   74.2515  221.1082 H   0  0  0  0  0  0  0  0  0  0  0  0
  140.8003   73.9339  219.0477 H   0  0  0  0  0  0  0  0  0  0  0  0
  139.9399   75.1877  218.1345 H   0  0  0  0  0  0  0  0  0  0  0  0
  142.5393   74.6087  217.7036 H   0  0  0  0  0  0  0  0  0  0  0  0
  141.8719   76.3034  217.5643 H   0  0  0  0  0  0  0  0  0  0  0  0
  143.3101   75.1290  219.9545 H   0  0  0  0  0  0  0  0  0  0  0  0
  143.9685   76.3048  218.7220 H   0  0  0  0  0  0  0  0  0  0  0  0
  142.8923   77.0253  221.1253 H   0  0  0  0  0  0  0  0  0  0  0  0
  142.9604   78.0701  219.6748 H   0  0  0  0  0  0  0  0  0  0  0  0
  140.4486   77.3528  219.0921 H   0  0  0  0  0  0  0  0  0  0  0  0
  140.3401   79.0578  219.9519 H   0  0  0  0  0  0  0  0  0  0  0  0
  139.6655   77.8758  221.2752 H   0  0  0  0  0  0  0  0  0  0  0  0
  140.5046   77.5106  223.2176 H   0  0  0  0  0  0  0  0  0  0  0  0
  141.6522   78.5074  225.1396 H   0  0  0  0  0  0  0  0  0  0  0  0
  143.3853   81.4716  222.6433 H   0  0  0  0  0  0  0  0  0  0  0  0
  142.2416   80.4910  220.6966 H   0  0  0  0  0  0  0  0  0  0  0  0
  138.5787   69.0553  222.6707 H   0  0  0  0  0  0  0  0  0  0  0  0
  138.8947   67.6978  224.7137 H   0  0  0  0  0  0  0  0  0  0  0  0
  139.6928   67.5550  226.9714 H   0  0  0  0  0  0  0  0  0  0  0  0
  141.5053   71.0172  228.7455 H   0  0  0  0  0  0  0  0  0  0  0  0
  141.1617   72.3243  226.6729 H   0  0  0  0  0  0  0  0  0  0  0  0
  1  2  2  0
  2  3  1  0
  3  4  1  0
  4  5  1  0
  5  6  2  0
  5  7  1  0
  7  8  1  0
  8  9  1  0
  9 10  1  0
 10 11  1  0
 11 12  1  0
 12 13  1  0
 13 14  1  0
 14 15  2  0
 15 16  1  0
 16 17  2  0
 17 18  1  0
 18 19  2  0
  2 20  1  0
 20 21  2  0
 21 22  1  0
 22 23  2  0
 23 24  1  0
 24 25  2  0
 25 26  1  0
 25 27  1  0
 27 28  2  0
 28 29  1  0
 29 30  2  0
 12  7  1  0
 19 14  1  0
 30 20  1  0
 29 23  1  0
  3 31  1  0
  4 32  1  0
  4 33  1  0
  8 34  1  0
  8 35  1  0
  9 36  1  0
  9 37  1  0
 10 38  1  0
 10 39  1  0
 11 40  1  0
 11 41  1  0
 12 42  1  6
 13 43  1  0
 13 44  1  0
 15 45  1  0
 16 46  1  0
 18 47  1  0
 19 48  1  0
 21 49  1  0
 22 50  1  0
 24 51  1  0
 27 52  1  0
 28 53  1  0
M  END
>  <smiles>  (26) 
O=C(NCC(=O)N1CCCCC1Cc1ccncc1)c1ccc2cc(F)ccc2n1

>  <score_type>  (26) 
oracle

>  <origin>  (26) 
autodockgpu

>  <m_score__min__energy>  (26) 
-8.9800000000000004

>  <m_primary>  (26) 
energy

>  <rmsd>  (26) 
1.3962212103320577

>  <m_score__min__rmsd>  (26) 
1.3962212103320577

>  <meeko>  (26) 
{"free_energy": -8.47, "intermolecular_energy": -10.26, "internal_energy": -2.15, "cluster_size": 27, "cluster_id": 2, "rank_in_cluster": 3}

>  <energy>  (26) 
-8.34

>  <cluster_rmsd>  (26) 
0.86

>  <cluster>  (26) 
2

$$$$

     RDKit          3D

 53 56  0  0  0  0  0  0  0  0999 V2000
  139.2280   71.2590  221.0810 O   0  0  0  0  0  0  0  0  0  0  0  0
  139.3900   71.8710  222.1530 C   0  0  0  0  0  0  0  0  0  0  0  0
  139.4400   73.2850  222.2800 N   0  0  0  0  0  0  0  0  0  0  0  0
  139.2950   74.1470  221.0880 C   0  0  0  0  0  0  0  0  0  0  0  0
  140.1950   75.3060  221.1830 C   0  0  0  0  0  0  0  0  0  0  0  0
  140.7060   75.4980  222.3580 O   0  0  0  0  0  0  0  0  0  0  0  0
  140.5750   76.2210  220.2080 N   0  0  0  0  0  0  0  0  0  0  0  0
  139.9130   75.9440  218.8660 C   0  0  0  0  0  0  0  0  0  0  0  0
  140.9830   76.1410  217.8140 C   0  0  0  0  0  0  0  0  0  0  0  0
  142.3830   75.8860  218.3270 C   0  0  0  0  0  0  0  0  0  0  0  0
  142.7700   76.7730  219.4920 C   0  0  0  0  0  0  0  0  0  0  0  0
  141.4650   77.2880  220.1750 C   0  0  2  0  0  0  0  0  0  0  0  0
  141.8300   78.1980  221.2310 C   0  0  0  0  0  0  0  0  0  0  0  0
  140.8450   78.8250  222.0860 C   0  0  0  0  0  0  0  0  0  0  0  0
  141.2920   79.9100  222.8700 C   0  0  0  0  0  0  0  0  0  0  0  0
  140.4490   80.5520  223.7510 C   0  0  0  0  0  0  0  0  0  0  0  0
  139.1580   80.1770  223.9060 N   0  0  0  0  0  0  0  0  0  0  0  0
  138.6900   79.1330  223.1670 C   0  0  0  0  0  0  0  0  0  0  0  0
  139.5360   78.4810  222.2760 C   0  0  0  0  0  0  0  0  0  0  0  0
  139.5420   71.0690  223.3860 C   0  0  0  0  0  0  0  0  0  0  0  0
  139.1130   69.7660  223.4570 C   0  0  0  0  0  0  0  0  0  0  0  0
  139.2380   68.9840  224.5920 C   0  0  0  0  0  0  0  0  0  0  0  0
  139.8250   69.5500  225.7070 C   0  0  0  0  0  0  0  0  0  0  0  0
  139.9650   68.8100  226.8420 C   0  0  0  0  0  0  0  0  0  0  0  0
  140.5590   69.4030  227.9500 C   0  0  0  0  0  0  0  0  0  0  0  0
  140.7090   68.6850  229.0940 F   0  0  0  0  0  0  0  0  0  0  0  0
  140.9810   70.7120  227.8520 C   0  0  0  0  0  0  0  0  0  0  0  0
  140.8420   71.4650  226.7080 C   0  0  0  0  0  0  0  0  0  0  0  0
  140.2490   70.8540  225.6230 C   0  0  0  0  0  0  0  0  0  0  0  0
  140.1100   71.5840  224.4970 N   0  0  0  0  0  0  0  0  0  0  0  0
  139.5750   73.7830  223.1870 H   0  0  0  0  0  0  0  0  0  0  0  0
  139.5451   73.5663  220.1878 H   0  0  0  0  0  0  0  0  0  0  0  0
  138.2564   74.5047  221.0296 H   0  0  0  0  0  0  0  0  0  0  0  0
  139.5337   74.9119  218.8345 H   0  0  0  0  0  0  0  0  0  0  0  0
  139.0582   76.6153  218.6965 H   0  0  0  0  0  0  0  0  0  0  0  0
  140.7852   75.4497  216.9816 H   0  0  0  0  0  0  0  0  0  0  0  0
  140.9391   77.1940  217.4989 H   0  0  0  0  0  0  0  0  0  0  0  0
  142.4495   74.8369  218.6509 H   0  0  0  0  0  0  0  0  0  0  0  0
  143.0759   76.1128  217.5033 H   0  0  0  0  0  0  0  0  0  0  0  0
  143.3653   76.1969  220.2156 H   0  0  0  0  0  0  0  0  0  0  0  0
  143.3706   77.6231  219.1361 H   0  0  0  0  0  0  0  0  0  0  0  0
  140.7802   77.9986  219.6891 H   0  0  0  0  0  0  0  0  0  0  0  0
  142.5035   77.6395  221.8977 H   0  0  0  0  0  0  0  0  0  0  0  0
  142.2214   79.0570  220.6663 H   0  0  0  0  0  0  0  0  0  0  0  0
  142.3339   80.2499  222.7760 H   0  0  0  0  0  0  0  0  0  0  0  0
  140.8364   81.3929  224.3450 H   0  0  0  0  0  0  0  0  0  0  0  0
  137.6452   78.8062  223.2746 H   0  0  0  0  0  0  0  0  0  0  0  0
  139.1291   77.6423  221.6921 H   0  0  0  0  0  0  0  0  0  0  0  0
  138.6461   69.3212  222.5659 H   0  0  0  0  0  0  0  0  0  0  0  0
  138.8809   67.9437  224.6058 H   0  0  0  0  0  0  0  0  0  0  0  0
  139.6161   67.7675  226.8808 H   0  0  0  0  0  0  0  0  0  0  0  0
  141.4516   71.1772  228.7307 H   0  0  0  0  0  0  0  0  0  0  0  0
  141.1886   72.5079  226.6613 H   0  0  0  0  0  0  0  0  0  0  0  0
  1  2  2  0
  2  3  1  0
  3  4  1  0
  4  5  1  0
  5  6  2  0
  5  7  1  0
  7  8  1  0
  8  9  1  0
  9 10  1  0
 10 11  1  0
 11 12  1  0
 12 13  1  0
 13 14  1  0
 14 15  2  0
 15 16  1  0
 16 17  2  0
 17 18  1  0
 18 19  2  0
  2 20  1  0
 20 21  2  0
 21 22  1  0
 22 23  2  0
 23 24  1  0
 24 25  2  0
 25 26  1  0
 25 27  1  0
 27 28  2  0
 28 29  1  0
 29 30  2  0
 12  7  1  0
 19 14  1  0
 30 20  1  0
 29 23  1  0
  3 31  1  0
  4 32  1  0
  4 33  1  0
  8 34  1  0
  8 35  1  0
  9 36  1  0
  9 37  1  0
 10 38  1  0
 10 39  1  0
 11 40  1  0
 11 41  1  0
 12 42  1  6
 13 43  1  0
 13 44  1  0
 15 45  1  0
 16 46  1  0
 18 47  1  0
 19 48  1  0
 21 49  1  0
 22 50  1  0
 24 51  1  0
 27 52  1  0
 28 53  1  0
M  END
>  <smiles>  (27) 
O=C(NCC(=O)N1CCCCC1Cc1ccncc1)c1ccc2cc(F)ccc2n1

>  <score_type>  (27) 
oracle

>  <origin>  (27) 
autodockgpu

>  <m_score__min__energy>  (27) 
-8.9800000000000004

>  <m_primary>  (27) 
energy

>  <rmsd>  (27) 
1.4155355869441617

>  <m_score__min__rmsd>  (27) 
1.4155355869441617

>  <meeko>  (27) 
{"free_energy": -7.81, "intermolecular_energy": -9.6, "internal_energy": -2.12, "cluster_size": 27, "cluster_id": 2, "rank_in_cluster": 27}

>  <energy>  (27) 
-8.34

>  <cluster_rmsd>  (27) 
1.12

>  <cluster>  (27) 
2

$$$$

     RDKit          3D

 53 56  0  0  0  0  0  0  0  0999 V2000
  137.0230   76.1260  222.0900 O   0  0  0  0  0  0  0  0  0  0  0  0
  138.2630   76.1560  222.2070 C   0  0  0  0  0  0  0  0  0  0  0  0
  139.1240   75.0460  221.9940 N   0  0  0  0  0  0  0  0  0  0  0  0
  138.5680   73.7330  221.6030 C   0  0  0  0  0  0  0  0  0  0  0  0
  139.2480   72.6530  222.3320 C   0  0  0  0  0  0  0  0  0  0  0  0
  140.4130   72.9690  222.8040 O   0  0  0  0  0  0  0  0  0  0  0  0
  138.8330   71.3520  222.5870 N   0  0  0  0  0  0  0  0  0  0  0  0
  137.7900   70.8710  221.5870 C   0  0  0  0  0  0  0  0  0  0  0  0
  136.7460   70.1230  222.3870 C   0  0  0  0  0  0  0  0  0  0  0  0
  136.6360   70.5930  223.8210 C   0  0  0  0  0  0  0  0  0  0  0  0
  137.9310   70.4680  224.5980 C   0  0  0  0  0  0  0  0  0  0  0  0
  139.1140   70.4210  223.5810 C   0  0  2  0  0  0  0  0  0  0  0  0
  140.3380   70.2190  224.3140 C   0  0  0  0  0  0  0  0  0  0  0  0
  140.5140   70.6960  225.6700 C   0  0  0  0  0  0  0  0  0  0  0  0
  140.0730   69.8370  226.7010 C   0  0  0  0  0  0  0  0  0  0  0  0
  140.1520   70.2090  228.0250 C   0  0  0  0  0  0  0  0  0  0  0  0
  140.6540   71.4090  228.4010 N   0  0  0  0  0  0  0  0  0  0  0  0
  141.0890   72.2650  227.4350 C   0  0  0  0  0  0  0  0  0  0  0  0
  141.0110   71.8950  226.0960 C   0  0  0  0  0  0  0  0  0  0  0  0
  138.8860   77.4390  222.5960 C   0  0  0  0  0  0  0  0  0  0  0  0
  138.1340   78.5620  222.8380 C   0  0  0  0  0  0  0  0  0  0  0  0
  138.6800   79.7810  223.2040 C   0  0  0  0  0  0  0  0  0  0  0  0
  140.0530   79.8630  223.3290 C   0  0  0  0  0  0  0  0  0  0  0  0
  140.6260   81.0460  223.6890 C   0  0  0  0  0  0  0  0  0  0  0  0
  142.0100   81.1020  223.8080 C   0  0  0  0  0  0  0  0  0  0  0  0
  142.6040   82.2700  224.1640 F   0  0  0  0  0  0  0  0  0  0  0  0
  142.7410   79.9600  223.5590 C   0  0  0  0  0  0  0  0  0  0  0  0
  142.1680   78.7620  223.1960 C   0  0  0  0  0  0  0  0  0  0  0  0
  140.7930   78.7320  223.0840 C   0  0  0  0  0  0  0  0  0  0  0  0
  140.2240   77.5620  222.7300 N   0  0  0  0  0  0  0  0  0  0  0  0
  140.1620   75.0880  222.0950 H   0  0  0  0  0  0  0  0  0  0  0  0
  137.4938   73.7093  221.8385 H   0  0  0  0  0  0  0  0  0  0  0  0
  138.7207   73.5871  220.5235 H   0  0  0  0  0  0  0  0  0  0  0  0
  137.3325   71.7286  221.0719 H   0  0  0  0  0  0  0  0  0  0  0  0
  138.2413   70.2266  220.8182 H   0  0  0  0  0  0  0  0  0  0  0  0
  135.7694   70.2597  221.8995 H   0  0  0  0  0  0  0  0  0  0  0  0
  137.0534   69.0672  222.4144 H   0  0  0  0  0  0  0  0  0  0  0  0
  136.3317   71.6501  223.8188 H   0  0  0  0  0  0  0  0  0  0  0  0
  135.8965   69.9476  224.3177 H   0  0  0  0  0  0  0  0  0  0  0  0
  138.0490   71.3346  225.2651 H   0  0  0  0  0  0  0  0  0  0  0  0
  137.9194   69.5517  225.2064 H   0  0  0  0  0  0  0  0  0  0  0  0
  139.2821   69.5706  222.9038 H   0  0  0  0  0  0  0  0  0  0  0  0
  140.4993   69.1314  224.3480 H   0  0  0  0  0  0  0  0  0  0  0  0
  141.0451   70.8505  223.7562 H   0  0  0  0  0  0  0  0  0  0  0  0
  139.6584   68.8517  226.4415 H   0  0  0  0  0  0  0  0  0  0  0  0
  139.7974   69.5117  228.7983 H   0  0  0  0  0  0  0  0  0  0  0  0
  141.5010   73.2464  227.7127 H   0  0  0  0  0  0  0  0  0  0  0  0
  141.3694   72.6075  225.3384 H   0  0  0  0  0  0  0  0  0  0  0  0
  137.0411   78.4897  222.7359 H   0  0  0  0  0  0  0  0  0  0  0  0
  138.0402   80.6564  223.3893 H   0  0  0  0  0  0  0  0  0  0  0  0
  140.0080   81.9355  223.8809 H   0  0  0  0  0  0  0  0  0  0  0  0
  143.8357   80.0084  223.6551 H   0  0  0  0  0  0  0  0  0  0  0  0
  142.7794   77.8680  223.0037 H   0  0  0  0  0  0  0  0  0  0  0  0
  1  2  2  0
  2  3  1  0
  3  4  1  0
  4  5  1  0
  5  6  2  0
  5  7  1  0
  7  8  1  0
  8  9  1  0
  9 10  1  0
 10 11  1  0
 11 12  1  0
 12 13  1  0
 13 14  1  0
 14 15  2  0
 15 16  1  0
 16 17  2  0
 17 18  1  0
 18 19  2  0
  2 20  1  0
 20 21  2  0
 21 22  1  0
 22 23  2  0
 23 24  1  0
 24 25  2  0
 25 26  1  0
 25 27  1  0
 27 28  2  0
 28 29  1  0
 29 30  2  0
 12  7  1  0
 19 14  1  0
 30 20  1  0
 29 23  1  0
  3 31  1  0
  4 32  1  0
  4 33  1  0
  8 34  1  0
  8 35  1  0
  9 36  1  0
  9 37  1  0
 10 38  1  0
 10 39  1  0
 11 40  1  0
 11 41  1  0
 12 42  1  6
 13 43  1  0
 13 44  1  0
 15 45  1  0
 16 46  1  0
 18 47  1  0
 19 48  1  0
 21 49  1  0
 22 50  1  0
 24 51  1  0
 27 52  1  0
 28 53  1  0
M  END
>  <smiles>  (28) 
O=C(NCC(=O)N1CCCCC1Cc1ccncc1)c1ccc2cc(F)ccc2n1

>  <score_type>  (28) 
oracle

>  <origin>  (28) 
autodockgpu

>  <m_score__min__energy>  (28) 
-8.9800000000000004

>  <m_primary>  (28) 
energy

>  <rmsd>  (28) 
8.501798373910809

>  <m_score__min__rmsd>  (28) 
8.501798373910809

>  <meeko>  (28) 
{"free_energy": -8.04, "intermolecular_energy": -9.83, "internal_energy": -2.07, "cluster_size": 8, "cluster_id": 3, "rank_in_cluster": 5}

>  <energy>  (28) 
-8.32

>  <cluster_rmsd>  (28) 
0.73

>  <cluster>  (28) 
2

$$$$

     RDKit          3D

 53 56  0  0  0  0  0  0  0  0999 V2000
  138.2060   70.8100  221.7760 O   0  0  0  0  0  0  0  0  0  0  0  0
  138.8640   71.3250  222.7000 C   0  0  0  0  0  0  0  0  0  0  0  0
  139.3130   72.6720  222.7240 N   0  0  0  0  0  0  0  0  0  0  0  0
  139.0090   73.5800  221.5970 C   0  0  0  0  0  0  0  0  0  0  0  0
  140.0540   74.6070  221.4720 C   0  0  0  0  0  0  0  0  0  0  0  0
  141.0330   74.4870  222.3130 O   0  0  0  0  0  0  0  0  0  0  0  0
  140.1470   75.6800  220.5950 N   0  0  0  0  0  0  0  0  0  0  0  0
  140.0680   75.2450  219.1380 C   0  0  0  0  0  0  0  0  0  0  0  0
  141.1130   76.0500  218.3970 C   0  0  0  0  0  0  0  0  0  0  0  0
  142.2760   76.4730  219.2670 C   0  0  0  0  0  0  0  0  0  0  0  0
  141.8620   77.3160  220.4560 C   0  0  0  0  0  0  0  0  0  0  0  0
  140.3540   77.0460  220.7520 C   0  0  2  0  0  0  0  0  0  0  0  0
  139.9390   77.9080  221.8300 C   0  0  0  0  0  0  0  0  0  0  0  0
  140.8220   78.8960  222.4130 C   0  0  0  0  0  0  0  0  0  0  0  0
  140.7860   80.1870  221.8410 C   0  0  0  0  0  0  0  0  0  0  0  0
  141.6160   81.1910  222.2890 C   0  0  0  0  0  0  0  0  0  0  0  0
  142.5010   80.9910  223.2940 N   0  0  0  0  0  0  0  0  0  0  0  0
  142.5650   79.7580  223.8700 C   0  0  0  0  0  0  0  0  0  0  0  0
  141.7310   78.7400  223.4210 C   0  0  0  0  0  0  0  0  0  0  0  0
  139.2040   70.4710  223.8590 C   0  0  0  0  0  0  0  0  0  0  0  0
  138.9020   69.1320  223.8820 C   0  0  0  0  0  0  0  0  0  0  0  0
  139.2030   68.3010  224.9480 C   0  0  0  0  0  0  0  0  0  0  0  0
  139.8400   68.8560  226.0400 C   0  0  0  0  0  0  0  0  0  0  0  0
  140.1530   68.0680  227.1080 C   0  0  0  0  0  0  0  0  0  0  0  0
  140.7940   68.6510  228.1950 C   0  0  0  0  0  0  0  0  0  0  0  0
  141.1160   67.8870  229.2710 F   0  0  0  0  0  0  0  0  0  0  0  0
  141.0860   69.9980  228.1460 C   0  0  0  0  0  0  0  0  0  0  0  0
  140.7720   70.7980  227.0710 C   0  0  0  0  0  0  0  0  0  0  0  0
  140.1360   70.1960  226.0050 C   0  0  0  0  0  0  0  0  0  0  0  0
  139.8260   70.9730  224.9460 N   0  0  0  0  0  0  0  0  0  0  0  0
  139.8630   73.0880  223.5070 H   0  0  0  0  0  0  0  0  0  0  0  0
  138.9594   72.9976  220.6651 H   0  0  0  0  0  0  0  0  0  0  0  0
  138.0439   74.0730  221.7854 H   0  0  0  0  0  0  0  0  0  0  0  0
  140.2822   74.1697  219.0494 H   0  0  0  0  0  0  0  0  0  0  0  0
  139.0635   75.4163  218.7236 H   0  0  0  0  0  0  0  0  0  0  0  0
  141.5015   75.4386  217.5692 H   0  0  0  0  0  0  0  0  0  0  0  0
  140.6229   76.9686  218.0421 H   0  0  0  0  0  0  0  0  0  0  0  0
  142.7801   75.5689  219.6391 H   0  0  0  0  0  0  0  0  0  0  0  0
  142.9389   77.0921  218.6448 H   0  0  0  0  0  0  0  0  0  0  0  0
  142.4671   77.0432  221.3332 H   0  0  0  0  0  0  0  0  0  0  0  0
  142.0181   78.3822  220.2352 H   0  0  0  0  0  0  0  0  0  0  0  0
  139.5487   77.3672  220.0750 H   0  0  0  0  0  0  0  0  0  0  0  0
  139.0621   78.4602  221.4609 H   0  0  0  0  0  0  0  0  0  0  0  0
  139.8164   77.1946  222.6583 H   0  0  0  0  0  0  0  0  0  0  0  0
  140.0816   80.3947  221.0220 H   0  0  0  0  0  0  0  0  0  0  0  0
  141.5582   82.1829  221.8171 H   0  0  0  0  0  0  0  0  0  0  0  0
  143.2749   79.5682  224.6885 H   0  0  0  0  0  0  0  0  0  0  0  0
  141.8073   77.7547  223.9040 H   0  0  0  0  0  0  0  0  0  0  0  0
  138.3946   68.6967  223.0084 H   0  0  0  0  0  0  0  0  0  0  0  0
  138.9428   67.2325  224.9255 H   0  0  0  0  0  0  0  0  0  0  0  0
  139.9042   66.9965  227.1093 H   0  0  0  0  0  0  0  0  0  0  0  0
  141.5944   70.4551  229.0077 H   0  0  0  0  0  0  0  0  0  0  0  0
  141.0174   71.8702  227.0622 H   0  0  0  0  0  0  0  0  0  0  0  0
  1  2  2  0
  2  3  1  0
  3  4  1  0
  4  5  1  0
  5  6  2  0
  5  7  1  0
  7  8  1  0
  8  9  1  0
  9 10  1  0
 10 11  1  0
 11 12  1  0
 12 13  1  0
 13 14  1  0
 14 15  2  0
 15 16  1  0
 16 17  2  0
 17 18  1  0
 18 19  2  0
  2 20  1  0
 20 21  2  0
 21 22  1  0
 22 23  2  0
 23 24  1  0
 24 25  2  0
 25 26  1  0
 25 27  1  0
 27 28  2  0
 28 29  1  0
 29 30  2  0
 12  7  1  0
 19 14  1  0
 30 20  1  0
 29 23  1  0
  3 31  1  0
  4 32  1  0
  4 33  1  0
  8 34  1  0
  8 35  1  0
  9 36  1  0
  9 37  1  0
 10 38  1  0
 10 39  1  0
 11 40  1  0
 11 41  1  0
 12 42  1  6
 13 43  1  0
 13 44  1  0
 15 45  1  0
 16 46  1  0
 18 47  1  0
 19 48  1  0
 21 49  1  0
 22 50  1  0
 24 51  1  0
 27 52  1  0
 28 53  1  0
M  END
>  <smiles>  (29) 
O=C(NCC(=O)N1CCCCC1Cc1ccncc1)c1ccc2cc(F)ccc2n1

>  <score_type>  (29) 
oracle

>  <origin>  (29) 
autodockgpu

>  <m_score__min__energy>  (29) 
-8.9800000000000004

>  <m_primary>  (29) 
energy

>  <rmsd>  (29) 
1.5515553470275463

>  <m_score__min__rmsd>  (29) 
1.5515553470275463

>  <meeko>  (29) 
{"free_energy": -8.26, "intermolecular_energy": -10.05, "internal_energy": -2.08, "cluster_size": 27, "cluster_id": 2, "rank_in_cluster": 20}

>  <energy>  (29) 
-8.32

>  <cluster_rmsd>  (29) 
0.73

>  <cluster>  (29) 
2

$$$$

     RDKit          3D

 53 56  0  0  0  0  0  0  0  0999 V2000
  138.1880   70.8950  221.7670 O   0  0  0  0  0  0  0  0  0  0  0  0
  138.8630   71.4000  222.6850 C   0  0  0  0  0  0  0  0  0  0  0  0
  139.3300   72.7410  222.7040 N   0  0  0  0  0  0  0  0  0  0  0  0
  139.0240   73.6550  221.5830 C   0  0  0  0  0  0  0  0  0  0  0  0
  140.0250   74.7300  221.5120 C   0  0  0  0  0  0  0  0  0  0  0  0
  141.0280   74.5880  222.3210 O   0  0  0  0  0  0  0  0  0  0  0  0
  140.0550   75.8670  220.7150 N   0  0  0  0  0  0  0  0  0  0  0  0
  139.8960   75.5420  219.2370 C   0  0  0  0  0  0  0  0  0  0  0  0
  140.8880   76.4150  218.4990 C   0  0  0  0  0  0  0  0  0  0  0  0
  142.0940   76.7900  219.3310 C   0  0  0  0  0  0  0  0  0  0  0  0
  141.7420   77.5340  220.6030 C   0  0  0  0  0  0  0  0  0  0  0  0
  140.2570   77.2200  220.9640 C   0  0  2  0  0  0  0  0  0  0  0  0
  139.8960   77.9920  222.1260 C   0  0  0  0  0  0  0  0  0  0  0  0
  140.7250   79.0690  222.6250 C   0  0  0  0  0  0  0  0  0  0  0  0
  140.4260   80.3650  222.1500 C   0  0  0  0  0  0  0  0  0  0  0  0
  141.1790   81.4560  222.5260 C   0  0  0  0  0  0  0  0  0  0  0  0
  142.2350   81.3410  223.3650 N   0  0  0  0  0  0  0  0  0  0  0  0
  142.5550   80.1060  223.8440 C   0  0  0  0  0  0  0  0  0  0  0  0
  141.7990   79.0000  223.4670 C   0  0  0  0  0  0  0  0  0  0  0  0
  139.2050   70.5400  223.8380 C   0  0  0  0  0  0  0  0  0  0  0  0
  138.9140   69.1980  223.8490 C   0  0  0  0  0  0  0  0  0  0  0  0
  139.2180   68.3610  224.9100 C   0  0  0  0  0  0  0  0  0  0  0  0
  139.8460   68.9130  226.0090 C   0  0  0  0  0  0  0  0  0  0  0  0
  140.1620   68.1200  227.0720 C   0  0  0  0  0  0  0  0  0  0  0  0
  140.7940   68.6990  228.1660 C   0  0  0  0  0  0  0  0  0  0  0  0
  141.1170   67.9290  229.2370 F   0  0  0  0  0  0  0  0  0  0  0  0
  141.0750   70.0480  228.1280 C   0  0  0  0  0  0  0  0  0  0  0  0
  140.7590   70.8540  227.0580 C   0  0  0  0  0  0  0  0  0  0  0  0
  140.1320   70.2560  225.9850 C   0  0  0  0  0  0  0  0  0  0  0  0
  139.8200   71.0390  224.9310 N   0  0  0  0  0  0  0  0  0  0  0  0
  139.8940   73.1490  223.4820 H   0  0  0  0  0  0  0  0  0  0  0  0
  139.0328   73.0883  220.6402 H   0  0  0  0  0  0  0  0  0  0  0  0
  138.0317   74.1008  221.7460 H   0  0  0  0  0  0  0  0  0  0  0  0
  140.1152   74.4795  219.0553 H   0  0  0  0  0  0  0  0  0  0  0  0
  138.8674   75.7302  218.8955 H   0  0  0  0  0  0  0  0  0  0  0  0
  141.2347   75.8718  217.6076 H   0  0  0  0  0  0  0  0  0  0  0  0
  140.3686   77.3496  218.2407 H   0  0  0  0  0  0  0  0  0  0  0  0
  142.6295   75.8685  219.6033 H   0  0  0  0  0  0  0  0  0  0  0  0
  142.7111   77.4658  218.7207 H   0  0  0  0  0  0  0  0  0  0  0  0
  142.4004   77.2043  221.4202 H   0  0  0  0  0  0  0  0  0  0  0  0
  141.8739   78.6161  220.4560 H   0  0  0  0  0  0  0  0  0  0  0  0
  139.4102   77.5795  220.3610 H   0  0  0  0  0  0  0  0  0  0  0  0
  138.9144   78.4370  221.9060 H   0  0  0  0  0  0  0  0  0  0  0  0
  139.9802   77.2469  222.9308 H   0  0  0  0  0  0  0  0  0  0  0  0
  139.5756   80.5062  221.4667 H   0  0  0  0  0  0  0  0  0  0  0  0
  140.9144   82.4488  222.1331 H   0  0  0  0  0  0  0  0  0  0  0  0
  143.4086   79.9836  224.5269 H   0  0  0  0  0  0  0  0  0  0  0  0
  142.0817   78.0159  223.8691 H   0  0  0  0  0  0  0  0  0  0  0  0
  138.4137   68.7654  222.9700 H   0  0  0  0  0  0  0  0  0  0  0  0
  138.9671   67.2905  224.8781 H   0  0  0  0  0  0  0  0  0  0  0  0
  139.9222   67.0465  227.0640 H   0  0  0  0  0  0  0  0  0  0  0  0
  141.5763   70.5025  228.9952 H   0  0  0  0  0  0  0  0  0  0  0  0
  140.9962   71.9281  227.0586 H   0  0  0  0  0  0  0  0  0  0  0  0
  1  2  2  0
  2  3  1  0
  3  4  1  0
  4  5  1  0
  5  6  2  0
  5  7  1  0
  7  8  1  0
  8  9  1  0
  9 10  1  0
 10 11  1  0
 11 12  1  0
 12 13  1  0
 13 14  1  0
 14 15  2  0
 15 16  1  0
 16 17  2  0
 17 18  1  0
 18 19  2  0
  2 20  1  0
 20 21  2  0
 21 22  1  0
 22 23  2  0
 23 24  1  0
 24 25  2  0
 25 26  1  0
 25 27  1  0
 27 28  2  0
 28 29  1  0
 29 30  2  0
 12  7  1  0
 19 14  1  0
 30 20  1  0
 29 23  1  0
  3 31  1  0
  4 32  1  0
  4 33  1  0
  8 34  1  0
  8 35  1  0
  9 36  1  0
  9 37  1  0
 10 38  1  0
 10 39  1  0
 11 40  1  0
 11 41  1  0
 12 42  1  6
 13 43  1  0
 13 44  1  0
 15 45  1  0
 16 46  1  0
 18 47  1  0
 19 48  1  0
 21 49  1  0
 22 50  1  0
 24 51  1  0
 27 52  1  0
 28 53  1  0
M  END
>  <smiles>  (30) 
O=C(NCC(=O)N1CCCCC1Cc1ccncc1)c1ccc2cc(F)ccc2n1

>  <score_type>  (30) 
oracle

>  <origin>  (30) 
autodockgpu

>  <m_score__min__energy>  (30) 
-8.9800000000000004

>  <m_primary>  (30) 
energy

>  <rmsd>  (30) 
1.6231939882277604

>  <m_score__min__rmsd>  (30) 
1.6231939882277604

>  <meeko>  (30) 
{"free_energy": -8.34, "intermolecular_energy": -10.13, "internal_energy": -2.06, "cluster_size": 27, "cluster_id": 2, "rank_in_cluster": 12}

>  <energy>  (30) 
-8.31

>  <cluster_rmsd>  (30) 
1.17

>  <cluster>  (30) 
2

$$$$

     RDKit          3D

 53 56  0  0  0  0  0  0  0  0999 V2000
  138.7290   71.0010  221.2650 O   0  0  0  0  0  0  0  0  0  0  0  0
  139.1270   71.5810  222.2930 C   0  0  0  0  0  0  0  0  0  0  0  0
  139.3770   72.9750  222.3930 N   0  0  0  0  0  0  0  0  0  0  0  0
  139.1690   73.8570  221.2250 C   0  0  0  0  0  0  0  0  0  0  0  0
  140.2160   74.8880  221.1700 C   0  0  0  0  0  0  0  0  0  0  0  0
  140.8280   75.0970  222.2930 O   0  0  0  0  0  0  0  0  0  0  0  0
  140.6430   75.6670  220.1020 N   0  0  0  0  0  0  0  0  0  0  0  0
  140.8480   74.8490  218.8340 C   0  0  0  0  0  0  0  0  0  0  0  0
  142.1280   75.3520  218.2050 C   0  0  0  0  0  0  0  0  0  0  0  0
  143.1030   75.9320  219.2060 C   0  0  0  0  0  0  0  0  0  0  0  0
  142.5360   77.0960  219.9930 C   0  0  0  0  0  0  0  0  0  0  0  0
  140.9790   77.0080  219.9530 C   0  0  2  0  0  0  0  0  0  0  0  0
  140.4390   78.1580  220.6310 C   0  0  0  0  0  0  0  0  0  0  0  0
  141.0790   78.7420  221.7910 C   0  0  0  0  0  0  0  0  0  0  0  0
  141.8180   79.9260  221.5720 C   0  0  0  0  0  0  0  0  0  0  0  0
  142.5030   80.5410  222.5970 C   0  0  0  0  0  0  0  0  0  0  0  0
  142.5010   80.0450  223.8560 N   0  0  0  0  0  0  0  0  0  0  0  0
  141.7990   78.9040  224.1060 C   0  0  0  0  0  0  0  0  0  0  0  0
  141.1060   78.2780  223.0760 C   0  0  0  0  0  0  0  0  0  0  0  0
  139.3560   70.7570  223.5000 C   0  0  0  0  0  0  0  0  0  0  0  0
  138.9810   69.4370  223.5540 C   0  0  0  0  0  0  0  0  0  0  0  0
  139.1790   68.6340  224.6650 C   0  0  0  0  0  0  0  0  0  0  0  0
  139.7840   69.1980  225.7710 C   0  0  0  0  0  0  0  0  0  0  0  0
  139.9950   68.4380  226.8820 C   0  0  0  0  0  0  0  0  0  0  0  0
  140.6070   69.0290  227.9820 C   0  0  0  0  0  0  0  0  0  0  0  0
  140.8270   68.2920  229.1020 F   0  0  0  0  0  0  0  0  0  0  0  0
  140.9730   70.3560  227.9010 C   0  0  0  0  0  0  0  0  0  0  0  0
  140.7620   71.1280  226.7810 C   0  0  0  0  0  0  0  0  0  0  0  0
  140.1540   70.5190  225.7030 C   0  0  0  0  0  0  0  0  0  0  0  0
  139.9440   71.2690  224.6010 N   0  0  0  0  0  0  0  0  0  0  0  0
  139.7090   73.4450  223.2640 H   0  0  0  0  0  0  0  0  0  0  0  0
  139.2041   73.2550  220.3051 H   0  0  0  0  0  0  0  0  0  0  0  0
  138.1888   74.3476  221.3177 H   0  0  0  0  0  0  0  0  0  0  0  0
  140.9392   73.7809  219.0807 H   0  0  0  0  0  0  0  0  0  0  0  0
  139.9960   74.9575  218.1468 H   0  0  0  0  0  0  0  0  0  0  0  0
  142.6164   74.5121  217.6893 H   0  0  0  0  0  0  0  0  0  0  0  0
  141.8530   76.1620  217.5134 H   0  0  0  0  0  0  0  0  0  0  0  0
  143.3896   75.1396  219.9131 H   0  0  0  0  0  0  0  0  0  0  0  0
  143.9641   76.3131  218.6374 H   0  0  0  0  0  0  0  0  0  0  0  0
  142.8841   77.0441  221.0352 H   0  0  0  0  0  0  0  0  0  0  0  0
  142.8714   78.0472  219.5540 H   0  0  0  0  0  0  0  0  0  0  0  0
  140.3982   77.1747  219.0339 H   0  0  0  0  0  0  0  0  0  0  0  0
  140.3795   78.9579  219.8783 H   0  0  0  0  0  0  0  0  0  0  0  0
  139.5108   77.7541  221.0615 H   0  0  0  0  0  0  0  0  0  0  0  0
  141.8470   80.3652  220.5639 H   0  0  0  0  0  0  0  0  0  0  0  0
  143.0675   81.4612  222.3860 H   0  0  0  0  0  0  0  0  0  0  0  0
  141.7807   78.4792  225.1205 H   0  0  0  0  0  0  0  0  0  0  0  0
  140.5487   77.3585  223.3083 H   0  0  0  0  0  0  0  0  0  0  0  0
  138.4987   68.9948  222.6697 H   0  0  0  0  0  0  0  0  0  0  0  0
  138.8642   67.5800  224.6664 H   0  0  0  0  0  0  0  0  0  0  0  0
  139.6885   67.3819  226.9082 H   0  0  0  0  0  0  0  0  0  0  0  0
  141.4568   70.8199  228.7732 H   0  0  0  0  0  0  0  0  0  0  0  0
  141.0651   72.1849  226.7472 H   0  0  0  0  0  0  0  0  0  0  0  0
  1  2  2  0
  2  3  1  0
  3  4  1  0
  4  5  1  0
  5  6  2  0
  5  7  1  0
  7  8  1  0
  8  9  1  0
  9 10  1  0
 10 11  1  0
 11 12  1  0
 12 13  1  0
 13 14  1  0
 14 15  2  0
 15 16  1  0
 16 17  2  0
 17 18  1  0
 18 19  2  0
  2 20  1  0
 20 21  2  0
 21 22  1  0
 22 23  2  0
 23 24  1  0
 24 25  2  0
 25 26  1  0
 25 27  1  0
 27 28  2  0
 28 29  1  0
 29 30  2  0
 12  7  1  0
 19 14  1  0
 30 20  1  0
 29 23  1  0
  3 31  1  0
  4 32  1  0
  4 33  1  0
  8 34  1  0
  8 35  1  0
  9 36  1  0
  9 37  1  0
 10 38  1  0
 10 39  1  0
 11 40  1  0
 11 41  1  0
 12 42  1  6
 13 43  1  0
 13 44  1  0
 15 45  1  0
 16 46  1  0
 18 47  1  0
 19 48  1  0
 21 49  1  0
 22 50  1  0
 24 51  1  0
 27 52  1  0
 28 53  1  0
M  END
>  <smiles>  (31) 
O=C(NCC(=O)N1CCCCC1Cc1ccncc1)c1ccc2cc(F)ccc2n1

>  <score_type>  (31) 
oracle

>  <origin>  (31) 
autodockgpu

>  <m_score__min__energy>  (31) 
-8.9800000000000004

>  <m_primary>  (31) 
energy

>  <rmsd>  (31) 
1.390080919618424

>  <m_score__min__rmsd>  (31) 
1.390080919618424

>  <meeko>  (31) 
{"free_energy": -8.37, "intermolecular_energy": -10.16, "internal_energy": -2.16, "cluster_size": 27, "cluster_id": 2, "rank_in_cluster": 11}

>  <energy>  (31) 
-8.3

>  <cluster_rmsd>  (31) 
0.73

>  <cluster>  (31) 
2

$$$$

     RDKit          3D

 53 56  0  0  0  0  0  0  0  0999 V2000
  141.1270   72.0630  221.4790 O   0  0  0  0  0  0  0  0  0  0  0  0
  140.2960   72.3800  222.3510 C   0  0  0  0  0  0  0  0  0  0  0  0
  139.4650   73.5310  222.2990 N   0  0  0  0  0  0  0  0  0  0  0  0
  139.5460   74.4600  221.1520 C   0  0  0  0  0  0  0  0  0  0  0  0
  139.7810   75.8330  221.6220 C   0  0  0  0  0  0  0  0  0  0  0  0
  138.7820   76.3660  222.2540 O   0  0  0  0  0  0  0  0  0  0  0  0
  140.9030   76.6400  221.4880 N   0  0  0  0  0  0  0  0  0  0  0  0
  141.1120   77.5460  222.6940 C   0  0  0  0  0  0  0  0  0  0  0  0
  141.5080   78.9000  222.1470 C   0  0  0  0  0  0  0  0  0  0  0  0
  140.9710   79.1680  220.7580 C   0  0  0  0  0  0  0  0  0  0  0  0
  141.4240   78.1500  219.7310 C   0  0  0  0  0  0  0  0  0  0  0  0
  141.8370   76.8440  220.4780 C   0  0  2  0  0  0  0  0  0  0  0  0
  142.3440   75.9050  219.5100 C   0  0  0  0  0  0  0  0  0  0  0  0
  143.2880   74.8650  219.8630 C   0  0  0  0  0  0  0  0  0  0  0  0
  142.8740   73.5350  219.6290 C   0  0  0  0  0  0  0  0  0  0  0  0
  143.6750   72.4670  219.9680 C   0  0  0  0  0  0  0  0  0  0  0  0
  144.8910   72.6380  220.5380 N   0  0  0  0  0  0  0  0  0  0  0  0
  145.3240   73.9070  220.7810 C   0  0  0  0  0  0  0  0  0  0  0  0
  144.5190   74.9890  220.4410 C   0  0  0  0  0  0  0  0  0  0  0  0
  140.1620   71.4940  223.5270 C   0  0  0  0  0  0  0  0  0  0  0  0
  139.5460   70.2690  223.4420 C   0  0  0  0  0  0  0  0  0  0  0  0
  139.4030   69.4120  224.5190 C   0  0  0  0  0  0  0  0  0  0  0  0
  139.9070   69.8170  225.7390 C   0  0  0  0  0  0  0  0  0  0  0  0
  139.7850   68.9990  226.8230 C   0  0  0  0  0  0  0  0  0  0  0  0
  140.3010   69.4310  228.0400 C   0  0  0  0  0  0  0  0  0  0  0  0
  140.1900   68.6330  229.1340 F   0  0  0  0  0  0  0  0  0  0  0  0
  140.9140   70.6640  228.0970 C   0  0  0  0  0  0  0  0  0  0  0  0
  141.0410   71.4940  227.0070 C   0  0  0  0  0  0  0  0  0  0  0  0
  140.5210   71.0440  225.8110 C   0  0  0  0  0  0  0  0  0  0  0  0
  140.6420   71.8510  224.7370 N   0  0  0  0  0  0  0  0  0  0  0  0
  138.7720   73.7810  223.0380 H   0  0  0  0  0  0  0  0  0  0  0  0
  140.3742   74.1546  220.4956 H   0  0  0  0  0  0  0  0  0  0  0  0
  138.5955   74.4292  220.5992 H   0  0  0  0  0  0  0  0  0  0  0  0
  140.1812   77.6275  223.2745 H   0  0  0  0  0  0  0  0  0  0  0  0
  141.8859   77.1449  223.3650 H   0  0  0  0  0  0  0  0  0  0  0  0
  141.1234   79.6760  222.8252 H   0  0  0  0  0  0  0  0  0  0  0  0
  142.6058   78.9140  222.0788 H   0  0  0  0  0  0  0  0  0  0  0  0
  139.8719   79.1550  220.8006 H   0  0  0  0  0  0  0  0  0  0  0  0
  141.3632   80.1456  220.4412 H   0  0  0  0  0  0  0  0  0  0  0  0
  140.6008   77.9344  219.0340 H   0  0  0  0  0  0  0  0  0  0  0  0
  142.2779   78.5442  219.1605 H   0  0  0  0  0  0  0  0  0  0  0  0
  142.7258   76.7852  221.1234 H   0  0  0  0  0  0  0  0  0  0  0  0
  141.4656   75.3925  219.0907 H   0  0  0  0  0  0  0  0  0  0  0  0
  142.9505   76.5526  218.8598 H   0  0  0  0  0  0  0  0  0  0  0  0
  141.8932   73.3486  219.1672 H   0  0  0  0  0  0  0  0  0  0  0  0
  143.3165   71.4461  219.7700 H   0  0  0  0  0  0  0  0  0  0  0  0
  146.3072   74.0751  221.2447 H   0  0  0  0  0  0  0  0  0  0  0  0
  144.8950   76.0015  220.6494 H   0  0  0  0  0  0  0  0  0  0  0  0
  139.1457   69.9530  222.4674 H   0  0  0  0  0  0  0  0  0  0  0  0
  138.9034   68.4385  224.4067 H   0  0  0  0  0  0  0  0  0  0  0  0
  139.2901   68.0204  226.7369 H   0  0  0  0  0  0  0  0  0  0  0  0
  141.3218   71.0012  229.0614 H   0  0  0  0  0  0  0  0  0  0  0  0
  141.5355   72.4734  227.0857 H   0  0  0  0  0  0  0  0  0  0  0  0
  1  2  2  0
  2  3  1  0
  3  4  1  0
  4  5  1  0
  5  6  2  0
  5  7  1  0
  7  8  1  0
  8  9  1  0
  9 10  1  0
 10 11  1  0
 11 12  1  0
 12 13  1  0
 13 14  1  0
 14 15  2  0
 15 16  1  0
 16 17  2  0
 17 18  1  0
 18 19  2  0
  2 20  1  0
 20 21  2  0
 21 22  1  0
 22 23  2  0
 23 24  1  0
 24 25  2  0
 25 26  1  0
 25 27  1  0
 27 28  2  0
 28 29  1  0
 29 30  2  0
 12  7  1  0
 19 14  1  0
 30 20  1  0
 29 23  1  0
  3 31  1  0
  4 32  1  0
  4 33  1  0
  8 34  1  0
  8 35  1  0
  9 36  1  0
  9 37  1  0
 10 38  1  0
 10 39  1  0
 11 40  1  0
 11 41  1  0
 12 42  1  1
 13 43  1  0
 13 44  1  0
 15 45  1  0
 16 46  1  0
 18 47  1  0
 19 48  1  0
 21 49  1  0
 22 50  1  0
 24 51  1  0
 27 52  1  0
 28 53  1  0
M  END
>  <smiles>  (32) 
O=C(NCC(=O)N1CCCCC1Cc1ccncc1)c1ccc2cc(F)ccc2n1

>  <score_type>  (32) 
oracle

>  <origin>  (32) 
autodockgpu

>  <m_score__min__energy>  (32) 
-8.9800000000000004

>  <m_primary>  (32) 
energy

>  <rmsd>  (32) 
2.7350483814836366

>  <m_score__min__rmsd>  (32) 
2.7350483814836366

>  <meeko>  (32) 
{"free_energy": -8.58, "intermolecular_energy": -10.37, "internal_energy": -1.77, "cluster_size": 13, "cluster_id": 1, "rank_in_cluster": 6}

>  <energy>  (32) 
-8.29

>  <cluster_rmsd>  (32) 
1.19

>  <cluster>  (32) 
2

$$$$

     RDKit          3D

 53 56  0  0  0  0  0  0  0  0999 V2000
  140.4060   71.7850  221.0800 O   0  0  0  0  0  0  0  0  0  0  0  0
  140.1060   72.3260  222.1610 C   0  0  0  0  0  0  0  0  0  0  0  0
  139.8170   73.7070  222.3240 N   0  0  0  0  0  0  0  0  0  0  0  0
  139.8610   74.6210  221.1630 C   0  0  0  0  0  0  0  0  0  0  0  0
  140.6960   75.7920  221.4650 C   0  0  0  0  0  0  0  0  0  0  0  0
  140.6770   76.1630  222.7070 O   0  0  0  0  0  0  0  0  0  0  0  0
  141.4950   76.5570  220.6250 N   0  0  0  0  0  0  0  0  0  0  0  0
  141.6080   78.0020  221.0900 C   0  0  0  0  0  0  0  0  0  0  0  0
  141.4970   78.8600  219.8490 C   0  0  0  0  0  0  0  0  0  0  0  0
  140.6990   78.2110  218.7390 C   0  0  0  0  0  0  0  0  0  0  0  0
  141.2700   76.8830  218.2840 C   0  0  0  0  0  0  0  0  0  0  0  0
  142.1600   76.3090  219.4290 C   0  0  2  0  0  0  0  0  0  0  0  0
  142.7680   75.0880  218.9660 C   0  0  0  0  0  0  0  0  0  0  0  0
  143.7090   74.3390  219.7730 C   0  0  0  0  0  0  0  0  0  0  0  0
  143.4040   72.9780  219.9930 C   0  0  0  0  0  0  0  0  0  0  0  0
  144.2070   72.1830  220.7820 C   0  0  0  0  0  0  0  0  0  0  0  0
  145.3210   72.6650  221.3800 N   0  0  0  0  0  0  0  0  0  0  0  0
  145.6480   73.9740  221.1920 C   0  0  0  0  0  0  0  0  0  0  0  0
  144.8410   74.7810  220.3970 C   0  0  0  0  0  0  0  0  0  0  0  0
  140.0440   71.4690  223.3650 C   0  0  0  0  0  0  0  0  0  0  0  0
  139.5440   70.1900  223.3150 C   0  0  0  0  0  0  0  0  0  0  0  0
  139.4710   69.3570  224.4190 C   0  0  0  0  0  0  0  0  0  0  0  0
  139.9240   69.8460  225.6280 C   0  0  0  0  0  0  0  0  0  0  0  0
  139.8680   69.0550  226.7370 C   0  0  0  0  0  0  0  0  0  0  0  0
  140.3310   69.5700  227.9420 C   0  0  0  0  0  0  0  0  0  0  0  0
  140.2830   68.8000  229.0610 F   0  0  0  0  0  0  0  0  0  0  0  0
  140.8270   70.8560  227.9640 C   0  0  0  0  0  0  0  0  0  0  0  0
  140.8870   71.6590  226.8480 C   0  0  0  0  0  0  0  0  0  0  0  0
  140.4210   71.1260  225.6640 C   0  0  0  0  0  0  0  0  0  0  0  0
  140.4770   71.9070  224.5650 N   0  0  0  0  0  0  0  0  0  0  0  0
  139.5650   74.1440  223.2370 H   0  0  0  0  0  0  0  0  0  0  0  0
  140.2828   74.0883  220.2980 H   0  0  0  0  0  0  0  0  0  0  0  0
  138.8393   74.9598  220.9364 H   0  0  0  0  0  0  0  0  0  0  0  0
  140.7950   78.2406  221.7914 H   0  0  0  0  0  0  0  0  0  0  0  0
  142.5591   78.1792  221.6135 H   0  0  0  0  0  0  0  0  0  0  0  0
  141.0081   79.8068  220.1223 H   0  0  0  0  0  0  0  0  0  0  0  0
  142.5175   79.0137  219.4682 H   0  0  0  0  0  0  0  0  0  0  0  0
  139.6729   78.0444  219.0988 H   0  0  0  0  0  0  0  0  0  0  0  0
  140.7316   78.8914  217.8753 H   0  0  0  0  0  0  0  0  0  0  0  0
  140.4508   76.1826  218.0641 H   0  0  0  0  0  0  0  0  0  0  0  0
  141.8711   77.0232  217.3735 H   0  0  0  0  0  0  0  0  0  0  0  0
  143.1143   76.7678  219.7268 H   0  0  0  0  0  0  0  0  0  0  0  0
  141.9403   74.3992  218.7413 H   0  0  0  0  0  0  0  0  0  0  0  0
  143.4065   75.4477  218.1456 H   0  0  0  0  0  0  0  0  0  0  0  0
  142.5080   72.5438  219.5255 H   0  0  0  0  0  0  0  0  0  0  0  0
  143.9348   71.1275  220.9297 H   0  0  0  0  0  0  0  0  0  0  0  0
  146.5477   74.3916  221.6676 H   0  0  0  0  0  0  0  0  0  0  0  0
  145.1304   75.8338  220.2633 H   0  0  0  0  0  0  0  0  0  0  0  0
  139.1832   69.8082  222.3485 H   0  0  0  0  0  0  0  0  0  0  0  0
  139.0650   68.3381  224.3352 H   0  0  0  0  0  0  0  0  0  0  0  0
  139.4657   68.0328  226.6794 H   0  0  0  0  0  0  0  0  0  0  0  0
  141.1925   71.2598  228.9197 H   0  0  0  0  0  0  0  0  0  0  0  0
  141.2891   72.6816  226.8979 H   0  0  0  0  0  0  0  0  0  0  0  0
  1  2  2  0
  2  3  1  0
  3  4  1  0
  4  5  1  0
  5  6  2  0
  5  7  1  0
  7  8  1  0
  8  9  1  0
  9 10  1  0
 10 11  1  0
 11 12  1  0
 12 13  1  0
 13 14  1  0
 14 15  2  0
 15 16  1  0
 16 17  2  0
 17 18  1  0
 18 19  2  0
  2 20  1  0
 20 21  2  0
 21 22  1  0
 22 23  2  0
 23 24  1  0
 24 25  2  0
 25 26  1  0
 25 27  1  0
 27 28  2  0
 28 29  1  0
 29 30  2  0
 12  7  1  0
 19 14  1  0
 30 20  1  0
 29 23  1  0
  3 31  1  0
  4 32  1  0
  4 33  1  0
  8 34  1  0
  8 35  1  0
  9 36  1  0
  9 37  1  0
 10 38  1  0
 10 39  1  0
 11 40  1  0
 11 41  1  0
 12 42  1  1
 13 43  1  0
 13 44  1  0
 15 45  1  0
 16 46  1  0
 18 47  1  0
 19 48  1  0
 21 49  1  0
 22 50  1  0
 24 51  1  0
 27 52  1  0
 28 53  1  0
M  END
>  <smiles>  (33) 
O=C(NCC(=O)N1CCCCC1Cc1ccncc1)c1ccc2cc(F)ccc2n1

>  <score_type>  (33) 
oracle

>  <origin>  (33) 
autodockgpu

>  <m_score__min__energy>  (33) 
-8.9800000000000004

>  <m_primary>  (33) 
energy

>  <rmsd>  (33) 
2.435660649821422

>  <m_score__min__rmsd>  (33) 
2.435660649821422

>  <meeko>  (33) 
{"free_energy": -7.88, "intermolecular_energy": -9.67, "internal_energy": -2.19, "cluster_size": 13, "cluster_id": 1, "rank_in_cluster": 13}

>  <energy>  (33) 
-8.26

>  <cluster_rmsd>  (33) 
1.18

>  <cluster>  (33) 
2

$$$$

     RDKit          3D

 53 56  0  0  0  0  0  0  0  0999 V2000
  138.8640   71.0140  221.2110 O   0  0  0  0  0  0  0  0  0  0  0  0
  139.1830   71.6250  222.2490 C   0  0  0  0  0  0  0  0  0  0  0  0
  139.3500   73.0320  222.3430 N   0  0  0  0  0  0  0  0  0  0  0  0
  139.1460   73.8900  221.1560 C   0  0  0  0  0  0  0  0  0  0  0  0
  140.0990   75.0090  221.1640 C   0  0  0  0  0  0  0  0  0  0  0  0
  140.5390   75.3350  222.3390 O   0  0  0  0  0  0  0  0  0  0  0  0
  140.5920   75.7660  220.1090 N   0  0  0  0  0  0  0  0  0  0  0  0
  140.8000   74.9360  218.8490 C   0  0  0  0  0  0  0  0  0  0  0  0
  142.1210   75.3810  218.2600 C   0  0  0  0  0  0  0  0  0  0  0  0
  143.0880   75.9210  219.2900 C   0  0  0  0  0  0  0  0  0  0  0  0
  142.5490   77.1110  220.0570 C   0  0  0  0  0  0  0  0  0  0  0  0
  140.9910   77.0900  219.9680 C   0  0  2  0  0  0  0  0  0  0  0  0
  140.4810   78.2650  220.6280 C   0  0  0  0  0  0  0  0  0  0  0  0
  141.1140   78.8280  221.8020 C   0  0  0  0  0  0  0  0  0  0  0  0
  141.8740   80.0020  221.6040 C   0  0  0  0  0  0  0  0  0  0  0  0
  142.5550   80.5970  222.6440 C   0  0  0  0  0  0  0  0  0  0  0  0
  142.5280   80.0900  223.8980 N   0  0  0  0  0  0  0  0  0  0  0  0
  141.8060   78.9580  224.1280 C   0  0  0  0  0  0  0  0  0  0  0  0
  141.1170   78.3520  223.0820 C   0  0  0  0  0  0  0  0  0  0  0  0
  139.4030   70.8270  223.4750 C   0  0  0  0  0  0  0  0  0  0  0  0
  139.0210   69.5110  223.5570 C   0  0  0  0  0  0  0  0  0  0  0  0
  139.2100   68.7320  224.6860 C   0  0  0  0  0  0  0  0  0  0  0  0
  139.8140   69.3170  225.7810 C   0  0  0  0  0  0  0  0  0  0  0  0
  140.0180   68.5810  226.9100 C   0  0  0  0  0  0  0  0  0  0  0  0
  140.6290   69.1930  227.9990 C   0  0  0  0  0  0  0  0  0  0  0  0
  140.8410   68.4800  229.1350 F   0  0  0  0  0  0  0  0  0  0  0  0
  141.0020   70.5150  227.8890 C   0  0  0  0  0  0  0  0  0  0  0  0
  140.8000   71.2640  226.7520 C   0  0  0  0  0  0  0  0  0  0  0  0
  140.1920   70.6340  225.6860 C   0  0  0  0  0  0  0  0  0  0  0  0
  139.9910   71.3600  224.5670 N   0  0  0  0  0  0  0  0  0  0  0  0
  139.6170   73.5280  223.2220 H   0  0  0  0  0  0  0  0  0  0  0  0
  139.2972   73.2914  220.2456 H   0  0  0  0  0  0  0  0  0  0  0  0
  138.1224   74.2923  221.1776 H   0  0  0  0  0  0  0  0  0  0  0  0
  140.8362   73.8656  219.0998 H   0  0  0  0  0  0  0  0  0  0  0  0
  139.9755   75.0797  218.1352 H   0  0  0  0  0  0  0  0  0  0  0  0
  142.5883   74.5189  217.7616 H   0  0  0  0  0  0  0  0  0  0  0  0
  141.9037   76.2001  217.5587 H   0  0  0  0  0  0  0  0  0  0  0  0
  143.3172   75.1190  220.0071 H   0  0  0  0  0  0  0  0  0  0  0  0
  143.9820   76.2626  218.7478 H   0  0  0  0  0  0  0  0  0  0  0  0
  142.8618   77.0471  221.1096 H   0  0  0  0  0  0  0  0  0  0  0  0
  142.9394   78.0455  219.6278 H   0  0  0  0  0  0  0  0  0  0  0  0
  140.4475   77.2780  219.0303 H   0  0  0  0  0  0  0  0  0  0  0  0
  140.4738   79.0631  219.8710 H   0  0  0  0  0  0  0  0  0  0  0  0
  139.5264   77.9012  221.0359 H   0  0  0  0  0  0  0  0  0  0  0  0
  141.9233   80.4499  220.6005 H   0  0  0  0  0  0  0  0  0  0  0  0
  143.1369   81.5099  222.4490 H   0  0  0  0  0  0  0  0  0  0  0  0
  141.7678   78.5241  225.1381 H   0  0  0  0  0  0  0  0  0  0  0  0
  140.5429   77.4389  223.2981 H   0  0  0  0  0  0  0  0  0  0  0  0
  138.5400   69.0518  222.6808 H   0  0  0  0  0  0  0  0  0  0  0  0
  138.8890   67.6801  224.7097 H   0  0  0  0  0  0  0  0  0  0  0  0
  139.7065   67.5272  226.9586 H   0  0  0  0  0  0  0  0  0  0  0  0
  141.4851   70.9955  228.7526 H   0  0  0  0  0  0  0  0  0  0  0  0
  141.1096   72.3180  226.6959 H   0  0  0  0  0  0  0  0  0  0  0  0
  1  2  2  0
  2  3  1  0
  3  4  1  0
  4  5  1  0
  5  6  2  0
  5  7  1  0
  7  8  1  0
  8  9  1  0
  9 10  1  0
 10 11  1  0
 11 12  1  0
 12 13  1  0
 13 14  1  0
 14 15  2  0
 15 16  1  0
 16 17  2  0
 17 18  1  0
 18 19  2  0
  2 20  1  0
 20 21  2  0
 21 22  1  0
 22 23  2  0
 23 24  1  0
 24 25  2  0
 25 26  1  0
 25 27  1  0
 27 28  2  0
 28 29  1  0
 29 30  2  0
 12  7  1  0
 19 14  1  0
 30 20  1  0
 29 23  1  0
  3 31  1  0
  4 32  1  0
  4 33  1  0
  8 34  1  0
  8 35  1  0
  9 36  1  0
  9 37  1  0
 10 38  1  0
 10 39  1  0
 11 40  1  0
 11 41  1  0
 12 42  1  6
 13 43  1  0
 13 44  1  0
 15 45  1  0
 16 46  1  0
 18 47  1  0
 19 48  1  0
 21 49  1  0
 22 50  1  0
 24 51  1  0
 27 52  1  0
 28 53  1  0
M  END
>  <smiles>  (34) 
O=C(NCC(=O)N1CCCCC1Cc1ccncc1)c1ccc2cc(F)ccc2n1

>  <score_type>  (34) 
oracle

>  <origin>  (34) 
autodockgpu

>  <m_score__min__energy>  (34) 
-8.9800000000000004

>  <m_primary>  (34) 
energy

>  <rmsd>  (34) 
1.3911570326648899

>  <m_score__min__rmsd>  (34) 
1.3911570326648899

>  <meeko>  (34) 
{"free_energy": -8.45, "intermolecular_energy": -10.24, "internal_energy": -2.17, "cluster_size": 27, "cluster_id": 2, "rank_in_cluster": 5}

>  <energy>  (34) 
-8.24

>  <cluster_rmsd>  (34) 
1.13

>  <cluster>  (34) 
2

$$$$

     RDKit          3D

 53 56  0  0  0  0  0  0  0  0999 V2000
  141.4560   71.6850  221.6910 O   0  0  0  0  0  0  0  0  0  0  0  0
  140.5500   72.0830  222.4480 C   0  0  0  0  0  0  0  0  0  0  0  0
  139.7540   73.2380  222.2230 N   0  0  0  0  0  0  0  0  0  0  0  0
  139.9690   74.0710  221.0210 C   0  0  0  0  0  0  0  0  0  0  0  0
  139.2530   75.3480  221.1500 C   0  0  0  0  0  0  0  0  0  0  0  0
  138.0820   75.2580  221.6990 O   0  0  0  0  0  0  0  0  0  0  0  0
  139.6390   76.6280  220.7710 N   0  0  0  0  0  0  0  0  0  0  0  0
  138.9670   77.0780  219.4820 C   0  0  0  0  0  0  0  0  0  0  0  0
  140.0340   77.7720  218.6640 C   0  0  0  0  0  0  0  0  0  0  0  0
  141.4340   77.2800  218.9600 C   0  0  0  0  0  0  0  0  0  0  0  0
  141.8380   77.4490  220.4110 C   0  0  0  0  0  0  0  0  0  0  0  0
  140.5430   77.5570  221.2750 C   0  0  2  0  0  0  0  0  0  0  0  0
  140.9260   77.8000  222.6420 C   0  0  0  0  0  0  0  0  0  0  0  0
  141.5670   79.0300  223.0580 C   0  0  0  0  0  0  0  0  0  0  0  0
  140.7140   80.0690  223.4900 C   0  0  0  0  0  0  0  0  0  0  0  0
  141.2150   81.2960  223.8660 C   0  0  0  0  0  0  0  0  0  0  0  0
  142.5410   81.5640  223.8410 N   0  0  0  0  0  0  0  0  0  0  0  0
  143.3960   80.5870  223.4290 C   0  0  0  0  0  0  0  0  0  0  0  0
  142.8960   79.3460  223.0480 C   0  0  0  0  0  0  0  0  0  0  0  0
  140.2810   71.2950  223.6700 C   0  0  0  0  0  0  0  0  0  0  0  0
  139.6200   70.0920  223.6220 C   0  0  0  0  0  0  0  0  0  0  0  0
  139.3500   69.3260  224.7440 C   0  0  0  0  0  0  0  0  0  0  0  0
  139.7700   69.8040  225.9700 C   0  0  0  0  0  0  0  0  0  0  0  0
  139.5230   69.0770  227.0960 C   0  0  0  0  0  0  0  0  0  0  0  0
  139.9560   69.5800  228.3170 C   0  0  0  0  0  0  0  0  0  0  0  0
  139.7200   68.8740  229.4530 F   0  0  0  0  0  0  0  0  0  0  0  0
  140.6170   70.7900  228.3360 C   0  0  0  0  0  0  0  0  0  0  0  0
  140.8700   71.5280  227.2030 C   0  0  0  0  0  0  0  0  0  0  0  0
  140.4300   71.0080  226.0030 C   0  0  0  0  0  0  0  0  0  0  0  0
  140.6750   71.7260  224.8870 N   0  0  0  0  0  0  0  0  0  0  0  0
  138.9970   73.5560  222.8670 H   0  0  0  0  0  0  0  0  0  0  0  0
  141.0448   74.2685  220.9042 H   0  0  0  0  0  0  0  0  0  0  0  0
  139.5864   73.5339  220.1406 H   0  0  0  0  0  0  0  0  0  0  0  0
  138.5732   76.2089  218.9347 H   0  0  0  0  0  0  0  0  0  0  0  0
  138.1210   77.7506  219.6869 H   0  0  0  0  0  0  0  0  0  0  0  0
  139.8225   77.6009  217.5982 H   0  0  0  0  0  0  0  0  0  0  0  0
  140.0025   78.8393  218.9284 H   0  0  0  0  0  0  0  0  0  0  0  0
  141.4891   76.2114  218.7051 H   0  0  0  0  0  0  0  0  0  0  0  0
  142.1255   77.8877  218.3579 H   0  0  0  0  0  0  0  0  0  0  0  0
  142.4293   76.5800  220.7354 H   0  0  0  0  0  0  0  0  0  0  0  0
  142.4476   78.3569  220.5297 H   0  0  0  0  0  0  0  0  0  0  0  0
  139.8649   78.4217  221.2247 H   0  0  0  0  0  0  0  0  0  0  0  0
  140.0050   77.7174  223.2378 H   0  0  0  0  0  0  0  0  0  0  0  0
  141.7296   77.0632  222.7882 H   0  0  0  0  0  0  0  0  0  0  0  0
  139.6284   79.8953  223.5271 H   0  0  0  0  0  0  0  0  0  0  0  0
  140.5174   82.0799  224.1958 H   0  0  0  0  0  0  0  0  0  0  0  0
  144.4787   80.7787  223.3976 H   0  0  0  0  0  0  0  0  0  0  0  0
  143.6105   78.5764  222.7205 H   0  0  0  0  0  0  0  0  0  0  0  0
  139.2880   69.7177  222.6424 H   0  0  0  0  0  0  0  0  0  0  0  0
  138.8177   68.3669  224.6613 H   0  0  0  0  0  0  0  0  0  0  0  0
  138.9933   68.1146  227.0397 H   0  0  0  0  0  0  0  0  0  0  0  0
  140.9587   71.1844  229.3044 H   0  0  0  0  0  0  0  0  0  0  0  0
  141.4000   72.4907  227.2515 H   0  0  0  0  0  0  0  0  0  0  0  0
  1  2  2  0
  2  3  1  0
  3  4  1  0
  4  5  1  0
  5  6  2  0
  5  7  1  0
  7  8  1  0
  8  9  1  0
  9 10  1  0
 10 11  1  0
 11 12  1  0
 12 13  1  0
 13 14  1  0
 14 15  2  0
 15 16  1  0
 16 17  2  0
 17 18  1  0
 18 19  2  0
  2 20  1  0
 20 21  2  0
 21 22  1  0
 22 23  2  0
 23 24  1  0
 24 25  2  0
 25 26  1  0
 25 27  1  0
 27 28  2  0
 28 29  1  0
 29 30  2  0
 12  7  1  0
 19 14  1  0
 30 20  1  0
 29 23  1  0
  3 31  1  0
  4 32  1  0
  4 33  1  0
  8 34  1  0
  8 35  1  0
  9 36  1  0
  9 37  1  0
 10 38  1  0
 10 39  1  0
 11 40  1  0
 11 41  1  0
 12 42  1  6
 13 43  1  0
 13 44  1  0
 15 45  1  0
 16 46  1  0
 18 47  1  0
 19 48  1  0
 21 49  1  0
 22 50  1  0
 24 51  1  0
 27 52  1  0
 28 53  1  0
M  END
>  <smiles>  (35) 
O=C(NCC(=O)N1CCCCC1Cc1ccncc1)c1ccc2cc(F)ccc2n1

>  <score_type>  (35) 
oracle

>  <origin>  (35) 
autodockgpu

>  <m_score__min__energy>  (35) 
-8.9800000000000004

>  <m_primary>  (35) 
energy

>  <rmsd>  (35) 
2.1244099293531633

>  <m_score__min__rmsd>  (35) 
2.1244099293531633

>  <meeko>  (35) 
{"free_energy": -8.29, "intermolecular_energy": -10.08, "internal_energy": -1.74, "cluster_size": 27, "cluster_id": 2, "rank_in_cluster": 19}

>  <energy>  (35) 
-8.21

>  <cluster_rmsd>  (35) 
1.21

>  <cluster>  (35) 
2

$$$$

     RDKit          3D

 53 56  0  0  0  0  0  0  0  0999 V2000
  138.6920   71.1380  221.2530 O   0  0  0  0  0  0  0  0  0  0  0  0
  139.1260   71.7180  222.2670 C   0  0  0  0  0  0  0  0  0  0  0  0
  139.4090   73.1070  222.3470 N   0  0  0  0  0  0  0  0  0  0  0  0
  139.1960   73.9830  221.1760 C   0  0  0  0  0  0  0  0  0  0  0  0
  140.3150   74.9240  221.0300 C   0  0  0  0  0  0  0  0  0  0  0  0
  141.0640   75.0400  222.0810 O   0  0  0  0  0  0  0  0  0  0  0  0
  140.6870   75.7040  219.9420 N   0  0  0  0  0  0  0  0  0  0  0  0
  140.8350   74.8860  218.6670 C   0  0  0  0  0  0  0  0  0  0  0  0
  142.0810   75.3940  217.9760 C   0  0  0  0  0  0  0  0  0  0  0  0
  143.1000   75.9810  218.9290 C   0  0  0  0  0  0  0  0  0  0  0  0
  142.5650   77.1420  219.7410 C   0  0  0  0  0  0  0  0  0  0  0  0
  141.0080   77.0460  219.7760 C   0  0  2  0  0  0  0  0  0  0  0  0
  140.4960   78.1950  220.4780 C   0  0  0  0  0  0  0  0  0  0  0  0
  141.2330   78.8410  221.5440 C   0  0  0  0  0  0  0  0  0  0  0  0
  141.1900   78.2130  222.8080 C   0  0  0  0  0  0  0  0  0  0  0  0
  141.8200   78.7650  223.9020 C   0  0  0  0  0  0  0  0  0  0  0  0
  142.5070   79.9280  223.8200 N   0  0  0  0  0  0  0  0  0  0  0  0
  142.5700   80.5640  222.6160 C   0  0  0  0  0  0  0  0  0  0  0  0
  141.9360   80.0120  221.5080 C   0  0  0  0  0  0  0  0  0  0  0  0
  139.3630   70.9000  223.4760 C   0  0  0  0  0  0  0  0  0  0  0  0
  138.9810   69.5830  223.5430 C   0  0  0  0  0  0  0  0  0  0  0  0
  139.1860   68.7860  224.6560 C   0  0  0  0  0  0  0  0  0  0  0  0
  139.8060   69.3530  225.7520 C   0  0  0  0  0  0  0  0  0  0  0  0
  140.0250   68.5990  226.8660 C   0  0  0  0  0  0  0  0  0  0  0  0
  140.6510   69.1930  227.9550 C   0  0  0  0  0  0  0  0  0  0  0  0
  140.8790   68.4610  229.0770 F   0  0  0  0  0  0  0  0  0  0  0  0
  141.0240   70.5170  227.8620 C   0  0  0  0  0  0  0  0  0  0  0  0
  140.8060   71.2830  226.7390 C   0  0  0  0  0  0  0  0  0  0  0  0
  140.1830   70.6710  225.6720 C   0  0  0  0  0  0  0  0  0  0  0  0
  139.9660   71.4150  224.5680 N   0  0  0  0  0  0  0  0  0  0  0  0
  139.7720   73.5770  223.2060 H   0  0  0  0  0  0  0  0  0  0  0  0
  139.1219   73.3645  220.2694 H   0  0  0  0  0  0  0  0  0  0  0  0
  138.2668   74.5534  221.3214 H   0  0  0  0  0  0  0  0  0  0  0  0
  140.9431   73.8187  218.9102 H   0  0  0  0  0  0  0  0  0  0  0  0
  139.9504   74.9901  218.0215 H   0  0  0  0  0  0  0  0  0  0  0  0
  142.5484   74.5554  217.4390 H   0  0  0  0  0  0  0  0  0  0  0  0
  141.7694   76.2009  217.2965 H   0  0  0  0  0  0  0  0  0  0  0  0
  143.4248   75.1910  219.6221 H   0  0  0  0  0  0  0  0  0  0  0  0
  143.9306   76.3664  218.3194 H   0  0  0  0  0  0  0  0  0  0  0  0
  142.9629   77.0929  220.7653 H   0  0  0  0  0  0  0  0  0  0  0  0
  142.8737   78.0944  219.2854 H   0  0  0  0  0  0  0  0  0  0  0  0
  140.3816   77.2081  218.8864 H   0  0  0  0  0  0  0  0  0  0  0  0
  140.3203   78.9674  219.7148 H   0  0  0  0  0  0  0  0  0  0  0  0
  139.6387   77.7683  221.0193 H   0  0  0  0  0  0  0  0  0  0  0  0
  140.6433   77.2653  222.9214 H   0  0  0  0  0  0  0  0  0  0  0  0
  141.7629   78.2454  224.8699 H   0  0  0  0  0  0  0  0  0  0  0  0
  143.1209   81.5114  222.5210 H   0  0  0  0  0  0  0  0  0  0  0  0
  142.0043   80.5478  220.5497 H   0  0  0  0  0  0  0  0  0  0  0  0
  138.4865   69.1382  222.6669 H   0  0  0  0  0  0  0  0  0  0  0  0
  138.8651   67.7339  224.6671 H   0  0  0  0  0  0  0  0  0  0  0  0
  139.7134   67.5447  226.9022 H   0  0  0  0  0  0  0  0  0  0  0  0
  141.5194   70.9836  228.7262 H   0  0  0  0  0  0  0  0  0  0  0  0
  141.1155   72.3376  226.6949 H   0  0  0  0  0  0  0  0  0  0  0  0
  1  2  2  0
  2  3  1  0
  3  4  1  0
  4  5  1  0
  5  6  2  0
  5  7  1  0
  7  8  1  0
  8  9  1  0
  9 10  1  0
 10 11  1  0
 11 12  1  0
 12 13  1  0
 13 14  1  0
 14 15  2  0
 15 16  1  0
 16 17  2  0
 17 18  1  0
 18 19  2  0
  2 20  1  0
 20 21  2  0
 21 22  1  0
 22 23  2  0
 23 24  1  0
 24 25  2  0
 25 26  1  0
 25 27  1  0
 27 28  2  0
 28 29  1  0
 29 30  2  0
 12  7  1  0
 19 14  1  0
 30 20  1  0
 29 23  1  0
  3 31  1  0
  4 32  1  0
  4 33  1  0
  8 34  1  0
  8 35  1  0
  9 36  1  0
  9 37  1  0
 10 38  1  0
 10 39  1  0
 11 40  1  0
 11 41  1  0
 12 42  1  6
 13 43  1  0
 13 44  1  0
 15 45  1  0
 16 46  1  0
 18 47  1  0
 19 48  1  0
 21 49  1  0
 22 50  1  0
 24 51  1  0
 27 52  1  0
 28 53  1  0
M  END
>  <smiles>  (36) 
O=C(NCC(=O)N1CCCCC1Cc1ccncc1)c1ccc2cc(F)ccc2n1

>  <score_type>  (36) 
oracle

>  <origin>  (36) 
autodockgpu

>  <m_score__min__energy>  (36) 
-8.9800000000000004

>  <m_primary>  (36) 
energy

>  <rmsd>  (36) 
1.3692876259445828

>  <m_score__min__rmsd>  (36) 
1.3692876259445828

>  <meeko>  (36) 
{"free_energy": -8.32, "intermolecular_energy": -10.11, "internal_energy": -2.16, "cluster_size": 27, "cluster_id": 2, "rank_in_cluster": 16}

>  <energy>  (36) 
-8.18

>  <cluster_rmsd>  (36) 
1.21

>  <cluster>  (36) 
2

$$$$

     RDKit          3D

 53 56  0  0  0  0  0  0  0  0999 V2000
  141.3060   71.7140  221.6560 O   0  0  0  0  0  0  0  0  0  0  0  0
  140.4320   72.0580  222.4740 C   0  0  0  0  0  0  0  0  0  0  0  0
  139.6030   73.2040  222.3400 N   0  0  0  0  0  0  0  0  0  0  0  0
  139.7410   74.0930  221.1670 C   0  0  0  0  0  0  0  0  0  0  0  0
  139.2630   75.4450  221.4910 C   0  0  0  0  0  0  0  0  0  0  0  0
  138.3260   75.4870  222.3850 O   0  0  0  0  0  0  0  0  0  0  0  0
  139.6620   76.6750  220.9830 N   0  0  0  0  0  0  0  0  0  0  0  0
  138.9310   77.0350  219.6970 C   0  0  0  0  0  0  0  0  0  0  0  0
  139.9690   77.6250  218.7680 C   0  0  0  0  0  0  0  0  0  0  0  0
  141.3690   77.1160  219.0300 C   0  0  0  0  0  0  0  0  0  0  0  0
  141.8580   77.3940  220.4370 C   0  0  0  0  0  0  0  0  0  0  0  0
  140.6160   77.6150  221.3560 C   0  0  2  0  0  0  0  0  0  0  0  0
  141.0810   77.9610  222.6750 C   0  0  0  0  0  0  0  0  0  0  0  0
  141.4950   79.3040  223.0210 C   0  0  0  0  0  0  0  0  0  0  0  0
  140.8330   80.3580  222.3520 C   0  0  0  0  0  0  0  0  0  0  0  0
  141.1780   81.6730  222.5720 C   0  0  0  0  0  0  0  0  0  0  0  0
  142.1610   82.0190  223.4350 N   0  0  0  0  0  0  0  0  0  0  0  0
  142.8230   81.0310  224.0990 C   0  0  0  0  0  0  0  0  0  0  0  0
  142.4800   79.7010  223.8810 C   0  0  0  0  0  0  0  0  0  0  0  0
  140.2410   71.2130  223.6720 C   0  0  0  0  0  0  0  0  0  0  0  0
  139.5740   70.0140  223.6100 C   0  0  0  0  0  0  0  0  0  0  0  0
  139.3750   69.1950  224.7090 C   0  0  0  0  0  0  0  0  0  0  0  0
  139.8760   69.6140  225.9260 C   0  0  0  0  0  0  0  0  0  0  0  0
  139.7000   68.8330  227.0300 C   0  0  0  0  0  0  0  0  0  0  0  0
  140.2130   69.2770  228.2430 C   0  0  0  0  0  0  0  0  0  0  0  0
  140.0490   68.5170  229.3570 F   0  0  0  0  0  0  0  0  0  0  0  0
  140.8780   70.4850  228.2770 C   0  0  0  0  0  0  0  0  0  0  0  0
  141.0580   71.2770  227.1660 C   0  0  0  0  0  0  0  0  0  0  0  0
  140.5400   70.8150  225.9740 C   0  0  0  0  0  0  0  0  0  0  0  0
  140.7140   71.5850  224.8800 N   0  0  0  0  0  0  0  0  0  0  0  0
  138.8730   73.4780  223.0340 H   0  0  0  0  0  0  0  0  0  0  0  0
  140.7997   74.1435  220.8728 H   0  0  0  0  0  0  0  0  0  0  0  0
  139.1383   73.6895  220.3400 H   0  0  0  0  0  0  0  0  0  0  0  0
  138.4855   76.1352  219.2477 H   0  0  0  0  0  0  0  0  0  0  0  0
  138.1148   77.7474  219.8877 H   0  0  0  0  0  0  0  0  0  0  0  0
  139.6943   77.3726  217.7332 H   0  0  0  0  0  0  0  0  0  0  0  0
  139.9806   78.7110  218.9423 H   0  0  0  0  0  0  0  0  0  0  0  0
  141.3809   76.0284  218.8654 H   0  0  0  0  0  0  0  0  0  0  0  0
  142.0418   77.6486  218.3417 H   0  0  0  0  0  0  0  0  0  0  0  0
  142.4431   76.5374  220.8029 H   0  0  0  0  0  0  0  0  0  0  0  0
  142.4977   78.2889  220.4447 H   0  0  0  0  0  0  0  0  0  0  0  0
  139.9590   78.4928  221.2673 H   0  0  0  0  0  0  0  0  0  0  0  0
  140.2637   77.7048  223.3652 H   0  0  0  0  0  0  0  0  0  0  0  0
  142.0298   77.4076  222.7346 H   0  0  0  0  0  0  0  0  0  0  0  0
  140.0264   80.1236  221.6417 H   0  0  0  0  0  0  0  0  0  0  0  0
  140.6391   82.4646  222.0307 H   0  0  0  0  0  0  0  0  0  0  0  0
  143.6268   81.2844  224.8058 H   0  0  0  0  0  0  0  0  0  0  0  0
  143.0324   78.9253  224.4316 H   0  0  0  0  0  0  0  0  0  0  0  0
  139.1774   69.6874  222.6374 H   0  0  0  0  0  0  0  0  0  0  0  0
  138.8351   68.2412  224.6156 H   0  0  0  0  0  0  0  0  0  0  0  0
  139.1647   67.8744  226.9621 H   0  0  0  0  0  0  0  0  0  0  0  0
  141.2841   70.8321  229.2386 H   0  0  0  0  0  0  0  0  0  0  0  0
  141.5918   72.2369  227.2260 H   0  0  0  0  0  0  0  0  0  0  0  0
  1  2  2  0
  2  3  1  0
  3  4  1  0
  4  5  1  0
  5  6  2  0
  5  7  1  0
  7  8  1  0
  8  9  1  0
  9 10  1  0
 10 11  1  0
 11 12  1  0
 12 13  1  0
 13 14  1  0
 14 15  2  0
 15 16  1  0
 16 17  2  0
 17 18  1  0
 18 19  2  0
  2 20  1  0
 20 21  2  0
 21 22  1  0
 22 23  2  0
 23 24  1  0
 24 25  2  0
 25 26  1  0
 25 27  1  0
 27 28  2  0
 28 29  1  0
 29 30  2  0
 12  7  1  0
 19 14  1  0
 30 20  1  0
 29 23  1  0
  3 31  1  0
  4 32  1  0
  4 33  1  0
  8 34  1  0
  8 35  1  0
  9 36  1  0
  9 37  1  0
 10 38  1  0
 10 39  1  0
 11 40  1  0
 11 41  1  0
 12 42  1  6
 13 43  1  0
 13 44  1  0
 15 45  1  0
 16 46  1  0
 18 47  1  0
 19 48  1  0
 21 49  1  0
 22 50  1  0
 24 51  1  0
 27 52  1  0
 28 53  1  0
M  END
>  <smiles>  (37) 
O=C(NCC(=O)N1CCCCC1Cc1ccncc1)c1ccc2cc(F)ccc2n1

>  <score_type>  (37) 
oracle

>  <origin>  (37) 
autodockgpu

>  <m_score__min__energy>  (37) 
-8.9800000000000004

>  <m_primary>  (37) 
energy

>  <rmsd>  (37) 
2.0729801165879866

>  <m_score__min__rmsd>  (37) 
2.0729801165879866

>  <meeko>  (37) 
{"free_energy": -8.38, "intermolecular_energy": -10.17, "internal_energy": -1.84, "cluster_size": 27, "cluster_id": 2, "rank_in_cluster": 10}

>  <energy>  (37) 
-7.92

>  <cluster_rmsd>  (37) 
1.69

>  <cluster>  (37) 
2

$$$$

     RDKit          3D

 53 56  0  0  0  0  0  0  0  0999 V2000
  141.3730   72.7720  222.1180 O   0  0  0  0  0  0  0  0  0  0  0  0
  140.2670   72.6290  222.6720 C   0  0  0  0  0  0  0  0  0  0  0  0
  139.0900   73.3480  222.3300 N   0  0  0  0  0  0  0  0  0  0  0  0
  139.1180   74.3550  221.2470 C   0  0  0  0  0  0  0  0  0  0  0  0
  139.5810   75.6500  221.7650 C   0  0  0  0  0  0  0  0  0  0  0  0
  138.7130   76.2840  222.4890 O   0  0  0  0  0  0  0  0  0  0  0  0
  140.8000   76.2940  221.5920 N   0  0  0  0  0  0  0  0  0  0  0  0
  141.0590   77.3400  222.6670 C   0  0  0  0  0  0  0  0  0  0  0  0
  141.6460   78.5420  221.9600 C   0  0  0  0  0  0  0  0  0  0  0  0
  141.2160   78.6580  220.5140 C   0  0  0  0  0  0  0  0  0  0  0  0
  141.5890   77.4520  219.6760 C   0  0  0  0  0  0  0  0  0  0  0  0
  141.8000   76.2340  220.6290 C   0  0  2  0  0  0  0  0  0  0  0  0
  142.2350   75.1090  219.8410 C   0  0  0  0  0  0  0  0  0  0  0  0
  143.4550   74.3870  220.1340 C   0  0  0  0  0  0  0  0  0  0  0  0
  143.3720   72.9770  220.1140 C   0  0  0  0  0  0  0  0  0  0  0  0
  144.4620   72.1920  220.4200 C   0  0  0  0  0  0  0  0  0  0  0  0
  145.6590   72.7290  220.7530 N   0  0  0  0  0  0  0  0  0  0  0  0
  145.7780   74.0860  220.7830 C   0  0  0  0  0  0  0  0  0  0  0  0
  144.6810   74.8840  220.4760 C   0  0  0  0  0  0  0  0  0  0  0  0
  140.1680   71.6380  223.7640 C   0  0  0  0  0  0  0  0  0  0  0  0
  139.5800   70.4110  223.5750 C   0  0  0  0  0  0  0  0  0  0  0  0
  139.4690   69.4570  224.5730 C   0  0  0  0  0  0  0  0  0  0  0  0
  139.9780   69.7640  225.8190 C   0  0  0  0  0  0  0  0  0  0  0  0
  139.8870   68.8490  226.8260 C   0  0  0  0  0  0  0  0  0  0  0  0
  140.4070   69.1820  228.0720 C   0  0  0  0  0  0  0  0  0  0  0  0
  140.3270   68.2870  229.0910 F   0  0  0  0  0  0  0  0  0  0  0  0
  140.9910   70.4200  228.2350 C   0  0  0  0  0  0  0  0  0  0  0  0
  141.0860   71.3480  227.2220 C   0  0  0  0  0  0  0  0  0  0  0  0
  140.5630   70.9940  225.9950 C   0  0  0  0  0  0  0  0  0  0  0  0
  140.6520   71.8970  224.9970 N   0  0  0  0  0  0  0  0  0  0  0  0
  138.1700   73.2160  222.8030 H   0  0  0  0  0  0  0  0  0  0  0  0
  139.8013   74.0162  220.4543 H   0  0  0  0  0  0  0  0  0  0  0  0
  138.1016   74.4743  220.8436 H   0  0  0  0  0  0  0  0  0  0  0  0
  140.1177   77.6141  223.1659 H   0  0  0  0  0  0  0  0  0  0  0  0
  141.7430   76.9578  223.4391 H   0  0  0  0  0  0  0  0  0  0  0  0
  141.3268   79.4500  222.4926 H   0  0  0  0  0  0  0  0  0  0  0  0
  142.7392   78.4197  221.9648 H   0  0  0  0  0  0  0  0  0  0  0  0
  140.1231   78.7787  220.4840 H   0  0  0  0  0  0  0  0  0  0  0  0
  141.7423   79.5247  220.0876 H   0  0  0  0  0  0  0  0  0  0  0  0
  140.7805   77.2304  218.9638 H   0  0  0  0  0  0  0  0  0  0  0  0
  142.5119   77.6547  219.1129 H   0  0  0  0  0  0  0  0  0  0  0  0
  142.6408   76.1691  221.3353 H   0  0  0  0  0  0  0  0  0  0  0  0
  141.4221   74.3694  219.8873 H   0  0  0  0  0  0  0  0  0  0  0  0
  142.4760   75.5838  218.8784 H   0  0  0  0  0  0  0  0  0  0  0  0
  142.4186   72.4965  219.8490 H   0  0  0  0  0  0  0  0  0  0  0  0
  144.3565   71.0974  220.3929 H   0  0  0  0  0  0  0  0  0  0  0  0
  146.7394   74.5493  221.0494 H   0  0  0  0  0  0  0  0  0  0  0  0
  144.8074   75.9762  220.5104 H   0  0  0  0  0  0  0  0  0  0  0  0
  139.1764   70.1738  222.5796 H   0  0  0  0  0  0  0  0  0  0  0  0
  138.9905   68.4857  224.3790 H   0  0  0  0  0  0  0  0  0  0  0  0
  139.4135   67.8707  226.6567 H   0  0  0  0  0  0  0  0  0  0  0  0
  141.4011   70.6792  229.2222 H   0  0  0  0  0  0  0  0  0  0  0  0
  141.5580   72.3283  227.3838 H   0  0  0  0  0  0  0  0  0  0  0  0
  1  2  2  0
  2  3  1  0
  3  4  1  0
  4  5  1  0
  5  6  2  0
  5  7  1  0
  7  8  1  0
  8  9  1  0
  9 10  1  0
 10 11  1  0
 11 12  1  0
 12 13  1  0
 13 14  1  0
 14 15  2  0
 15 16  1  0
 16 17  2  0
 17 18  1  0
 18 19  2  0
  2 20  1  0
 20 21  2  0
 21 22  1  0
 22 23  2  0
 23 24  1  0
 24 25  2  0
 25 26  1  0
 25 27  1  0
 27 28  2  0
 28 29  1  0
 29 30  2  0
 12  7  1  0
 19 14  1  0
 30 20  1  0
 29 23  1  0
  3 31  1  0
  4 32  1  0
  4 33  1  0
  8 34  1  0
  8 35  1  0
  9 36  1  0
  9 37  1  0
 10 38  1  0
 10 39  1  0
 11 40  1  0
 11 41  1  0
 12 42  1  1
 13 43  1  0
 13 44  1  0
 15 45  1  0
 16 46  1  0
 18 47  1  0
 19 48  1  0
 21 49  1  0
 22 50  1  0
 24 51  1  0
 27 52  1  0
 28 53  1  0
M  END
>  <smiles>  (38) 
O=C(NCC(=O)N1CCCCC1Cc1ccncc1)c1ccc2cc(F)ccc2n1

>  <score_type>  (38) 
oracle

>  <origin>  (38) 
autodockgpu

>  <m_score__min__energy>  (38) 
-8.9800000000000004

>  <m_primary>  (38) 
energy

>  <rmsd>  (38) 
2.720297259543694

>  <m_score__min__rmsd>  (38) 
2.720297259543694

>  <meeko>  (38) 
{"free_energy": -8.75, "intermolecular_energy": -10.54, "internal_energy": -1.66, "cluster_size": 13, "cluster_id": 1, "rank_in_cluster": 3}

>  <energy>  (38) 
-7.84

>  <cluster_rmsd>  (38) 
1.28

>  <cluster>  (38) 
2

$$$$

     RDKit          3D

 53 56  0  0  0  0  0  0  0  0999 V2000
  141.0770   72.9580  222.2600 O   0  0  0  0  0  0  0  0  0  0  0  0
  139.9680   72.6610  222.7440 C   0  0  0  0  0  0  0  0  0  0  0  0
  138.7300   73.2300  222.3440 N   0  0  0  0  0  0  0  0  0  0  0  0
  138.6880   74.2550  221.2800 C   0  0  0  0  0  0  0  0  0  0  0  0
  139.2110   75.5340  221.7810 C   0  0  0  0  0  0  0  0  0  0  0  0
  138.3530   76.2490  222.4380 O   0  0  0  0  0  0  0  0  0  0  0  0
  140.4790   76.0880  221.6550 N   0  0  0  0  0  0  0  0  0  0  0  0
  140.7360   77.1850  222.6790 C   0  0  0  0  0  0  0  0  0  0  0  0
  141.4470   78.2990  221.9410 C   0  0  0  0  0  0  0  0  0  0  0  0
  141.1200   78.3460  220.4650 C   0  0  0  0  0  0  0  0  0  0  0  0
  141.4660   77.0670  219.7300 C   0  0  0  0  0  0  0  0  0  0  0  0
  141.5340   75.9040  220.7680 C   0  0  2  0  0  0  0  0  0  0  0  0
  141.9430   74.7040  220.0830 C   0  0  0  0  0  0  0  0  0  0  0  0
  143.2730   74.1500  220.2240 C   0  0  0  0  0  0  0  0  0  0  0  0
  143.3780   72.7430  220.1650 C   0  0  0  0  0  0  0  0  0  0  0  0
  144.5890   72.1080  220.3310 C   0  0  0  0  0  0  0  0  0  0  0  0
  145.7320   72.7970  220.5560 N   0  0  0  0  0  0  0  0  0  0  0  0
  145.6710   74.1570  220.6200 C   0  0  0  0  0  0  0  0  0  0  0  0
  144.4510   74.8040  220.4540 C   0  0  0  0  0  0  0  0  0  0  0  0
  139.9370   71.6420  223.8150 C   0  0  0  0  0  0  0  0  0  0  0  0
  139.3500   70.4140  223.6250 C   0  0  0  0  0  0  0  0  0  0  0  0
  139.3020   69.4340  224.6020 C   0  0  0  0  0  0  0  0  0  0  0  0
  139.8750   69.7130  225.8270 C   0  0  0  0  0  0  0  0  0  0  0  0
  139.8470   68.7730  226.8130 C   0  0  0  0  0  0  0  0  0  0  0  0
  140.4310   69.0780  228.0370 C   0  0  0  0  0  0  0  0  0  0  0  0
  140.4140   68.1570  229.0350 F   0  0  0  0  0  0  0  0  0  0  0  0
  141.0130   70.3170  228.2000 C   0  0  0  0  0  0  0  0  0  0  0  0
  141.0450   71.2710  227.2080 C   0  0  0  0  0  0  0  0  0  0  0  0
  140.4590   70.9440  226.0030 C   0  0  0  0  0  0  0  0  0  0  0  0
  140.4860   71.8730  225.0260 N   0  0  0  0  0  0  0  0  0  0  0  0
  137.8090   72.9690  222.7600 H   0  0  0  0  0  0  0  0  0  0  0  0
  139.3009   73.9206  220.4300 H   0  0  0  0  0  0  0  0  0  0  0  0
  137.6448   74.3961  220.9609 H   0  0  0  0  0  0  0  0  0  0  0  0
  139.7844   77.5496  223.0932 H   0  0  0  0  0  0  0  0  0  0  0  0
  141.3408   76.8131  223.5191 H   0  0  0  0  0  0  0  0  0  0  0  0
  141.1557   79.2584  222.3934 H   0  0  0  0  0  0  0  0  0  0  0  0
  142.5269   78.1090  222.0285 H   0  0  0  0  0  0  0  0  0  0  0  0
  140.0416   78.5316  220.3527 H   0  0  0  0  0  0  0  0  0  0  0  0
  141.7288   79.1487  220.0233 H   0  0  0  0  0  0  0  0  0  0  0  0
  140.6924   76.8495  218.9789 H   0  0  0  0  0  0  0  0  0  0  0  0
  142.4347   77.1749  219.2201 H   0  0  0  0  0  0  0  0  0  0  0  0
  142.3222   75.8357  221.5323 H   0  0  0  0  0  0  0  0  0  0  0  0
  141.2465   73.9152  220.4034 H   0  0  0  0  0  0  0  0  0  0  0  0
  141.9409   75.0288  219.0320 H   0  0  0  0  0  0  0  0  0  0  0  0
  142.4748   72.1422  219.9828 H   0  0  0  0  0  0  0  0  0  0  0  0
  144.6282   71.0099  220.2792 H   0  0  0  0  0  0  0  0  0  0  0  0
  146.5847   74.7417  220.8025 H   0  0  0  0  0  0  0  0  0  0  0  0
  144.4332   75.9024  220.5109 H   0  0  0  0  0  0  0  0  0  0  0  0
  138.8951   70.1986  222.6469 H   0  0  0  0  0  0  0  0  0  0  0  0
  138.8223   68.4633  224.4083 H   0  0  0  0  0  0  0  0  0  0  0  0
  139.3729   67.7948  226.6442 H   0  0  0  0  0  0  0  0  0  0  0  0
  141.4743   70.5549  229.1699 H   0  0  0  0  0  0  0  0  0  0  0  0
  141.5173   72.2513  227.3693 H   0  0  0  0  0  0  0  0  0  0  0  0
  1  2  2  0
  2  3  1  0
  3  4  1  0
  4  5  1  0
  5  6  2  0
  5  7  1  0
  7  8  1  0
  8  9  1  0
  9 10  1  0
 10 11  1  0
 11 12  1  0
 12 13  1  0
 13 14  1  0
 14 15  2  0
 15 16  1  0
 16 17  2  0
 17 18  1  0
 18 19  2  0
  2 20  1  0
 20 21  2  0
 21 22  1  0
 22 23  2  0
 23 24  1  0
 24 25  2  0
 25 26  1  0
 25 27  1  0
 27 28  2  0
 28 29  1  0
 29 30  2  0
 12  7  1  0
 19 14  1  0
 30 20  1  0
 29 23  1  0
  3 31  1  0
  4 32  1  0
  4 33  1  0
  8 34  1  0
  8 35  1  0
  9 36  1  0
  9 37  1  0
 10 38  1  0
 10 39  1  0
 11 40  1  0
 11 41  1  0
 12 42  1  1
 13 43  1  0
 13 44  1  0
 15 45  1  0
 16 46  1  0
 18 47  1  0
 19 48  1  0
 21 49  1  0
 22 50  1  0
 24 51  1  0
 27 52  1  0
 28 53  1  0
M  END
>  <smiles>  (39) 
O=C(NCC(=O)N1CCCCC1Cc1ccncc1)c1ccc2cc(F)ccc2n1

>  <score_type>  (39) 
oracle

>  <origin>  (39) 
autodockgpu

>  <m_score__min__energy>  (39) 
-8.9800000000000004

>  <m_primary>  (39) 
energy

>  <rmsd>  (39) 
2.6824669531643996

>  <m_score__min__rmsd>  (39) 
2.6824669531643996

>  <meeko>  (39) 
{"free_energy": -8.65, "intermolecular_energy": -10.44, "internal_energy": -1.66, "cluster_size": 13, "cluster_id": 1, "rank_in_cluster": 5}

>  <energy>  (39) 
-7.83

>  <cluster_rmsd>  (39) 
1.23

>  <cluster>  (39) 
2

$$$$

     RDKit          3D

 53 56  0  0  0  0  0  0  0  0999 V2000
  140.2460   71.0210  221.4680 O   0  0  0  0  0  0  0  0  0  0  0  0
  139.6410   71.5370  222.4270 C   0  0  0  0  0  0  0  0  0  0  0  0
  138.6380   72.5360  222.3100 N   0  0  0  0  0  0  0  0  0  0  0  0
  138.2380   73.0410  220.9790 C   0  0  0  0  0  0  0  0  0  0  0  0
  139.1010   74.1630  220.5790 C   0  0  0  0  0  0  0  0  0  0  0  0
  138.7700   74.7250  219.4590 O   0  0  0  0  0  0  0  0  0  0  0  0
  140.2110   74.7030  221.2150 N   0  0  0  0  0  0  0  0  0  0  0  0
  139.8390   75.8280  222.1710 C   0  0  0  0  0  0  0  0  0  0  0  0
  140.8730   76.9140  221.9740 C   0  0  0  0  0  0  0  0  0  0  0  0
  141.4830   76.9200  220.5900 C   0  0  0  0  0  0  0  0  0  0  0  0
  142.1670   75.6180  220.2270 C   0  0  0  0  0  0  0  0  0  0  0  0
  141.5810   74.4850  221.1260 C   0  0  2  0  0  0  0  0  0  0  0  0
  142.2880   73.2630  220.8400 C   0  0  0  0  0  0  0  0  0  0  0  0
  143.6600   73.2550  220.3760 C   0  0  0  0  0  0  0  0  0  0  0  0
  143.8670   72.8830  219.0300 C   0  0  0  0  0  0  0  0  0  0  0  0
  145.1340   72.8000  218.4970 C   0  0  0  0  0  0  0  0  0  0  0  0
  146.2380   73.0700  219.2330 N   0  0  0  0  0  0  0  0  0  0  0  0
  146.0790   73.4310  220.5370 C   0  0  0  0  0  0  0  0  0  0  0  0
  144.8010   73.5160  221.0810 C   0  0  0  0  0  0  0  0  0  0  0  0
  139.9920   71.0770  223.7880 C   0  0  0  0  0  0  0  0  0  0  0  0
  140.6840   71.8770  224.6640 C   0  0  0  0  0  0  0  0  0  0  0  0
  141.0310   71.4830  225.9450 C   0  0  0  0  0  0  0  0  0  0  0  0
  140.6570   70.2180  226.3550 C   0  0  0  0  0  0  0  0  0  0  0  0
  140.9800   69.7950  227.6100 C   0  0  0  0  0  0  0  0  0  0  0  0
  140.5930   68.5180  227.9990 C   0  0  0  0  0  0  0  0  0  0  0  0
  140.9050   68.0740  229.2440 F   0  0  0  0  0  0  0  0  0  0  0  0
  139.8990   67.7360  227.1000 C   0  0  0  0  0  0  0  0  0  0  0  0
  139.5700   68.1580  225.8320 C   0  0  0  0  0  0  0  0  0  0  0  0
  139.9650   69.4290  225.4700 C   0  0  0  0  0  0  0  0  0  0  0  0
  139.6460   69.8500  224.2290 N   0  0  0  0  0  0  0  0  0  0  0  0
  138.1390   72.9570  223.1250 H   0  0  0  0  0  0  0  0  0  0  0  0
  138.3303   72.2309  220.2406 H   0  0  0  0  0  0  0  0  0  0  0  0
  137.1959   73.3900  221.0267 H   0  0  0  0  0  0  0  0  0  0  0  0
  138.8351   76.2111  221.9356 H   0  0  0  0  0  0  0  0  0  0  0  0
  139.8225   75.4769  223.2133 H   0  0  0  0  0  0  0  0  0  0  0  0
  140.3925   77.8882  222.1473 H   0  0  0  0  0  0  0  0  0  0  0  0
  141.6879   76.7191  222.6867 H   0  0  0  0  0  0  0  0  0  0  0  0
  140.6842   77.1098  219.8580 H   0  0  0  0  0  0  0  0  0  0  0  0
  142.2534   77.7051  220.5787 H   0  0  0  0  0  0  0  0  0  0  0  0
  141.9827   75.3844  219.1680 H   0  0  0  0  0  0  0  0  0  0  0  0
  143.2518   75.7040  220.3874 H   0  0  0  0  0  0  0  0  0  0  0  0
  141.7628   74.4324  222.2096 H   0  0  0  0  0  0  0  0  0  0  0  0
  142.2753   72.6763  221.7704 H   0  0  0  0  0  0  0  0  0  0  0  0
  141.7468   72.8867  219.9594 H   0  0  0  0  0  0  0  0  0  0  0  0
  142.9988   72.6549  218.3942 H   0  0  0  0  0  0  0  0  0  0  0  0
  145.2526   72.5061  217.4436 H   0  0  0  0  0  0  0  0  0  0  0  0
  146.9587   73.6547  221.1584 H   0  0  0  0  0  0  0  0  0  0  0  0
  144.7040   73.8095  222.1367 H   0  0  0  0  0  0  0  0  0  0  0  0
  140.9778   72.8832  224.3304 H   0  0  0  0  0  0  0  0  0  0  0  0
  141.5867   72.1557  226.6149 H   0  0  0  0  0  0  0  0  0  0  0  0
  141.5342   70.4493  228.2990 H   0  0  0  0  0  0  0  0  0  0  0  0
  139.5936   66.7262  227.4113 H   0  0  0  0  0  0  0  0  0  0  0  0
  139.0160   67.5097  225.1372 H   0  0  0  0  0  0  0  0  0  0  0  0
  1  2  2  0
  2  3  1  0
  3  4  1  0
  4  5  1  0
  5  6  2  0
  5  7  1  0
  7  8  1  0
  8  9  1  0
  9 10  1  0
 10 11  1  0
 11 12  1  0
 12 13  1  0
 13 14  1  0
 14 15  2  0
 15 16  1  0
 16 17  2  0
 17 18  1  0
 18 19  2  0
  2 20  1  0
 20 21  2  0
 21 22  1  0
 22 23  2  0
 23 24  1  0
 24 25  2  0
 25 26  1  0
 25 27  1  0
 27 28  2  0
 28 29  1  0
 29 30  2  0
 12  7  1  0
 19 14  1  0
 30 20  1  0
 29 23  1  0
  3 31  1  0
  4 32  1  0
  4 33  1  0
  8 34  1  0
  8 35  1  0
  9 36  1  0
  9 37  1  0
 10 38  1  0
 10 39  1  0
 11 40  1  0
 11 41  1  0
 12 42  1  1
 13 43  1  0
 13 44  1  0
 15 45  1  0
 16 46  1  0
 18 47  1  0
 19 48  1  0
 21 49  1  0
 22 50  1  0
 24 51  1  0
 27 52  1  0
 28 53  1  0
M  END
>  <smiles>  (40) 
O=C(NCC(=O)N1CCCCC1Cc1ccncc1)c1ccc2cc(F)ccc2n1

>  <score_type>  (40) 
oracle

>  <origin>  (40) 
autodockgpu

>  <m_score__min__energy>  (40) 
-8.9800000000000004

>  <m_primary>  (40) 
energy

>  <rmsd>  (40) 
3.393794125183949

>  <m_score__min__rmsd>  (40) 
3.393794125183949

>  <meeko>  (40) 
{"free_energy": -8.53, "intermolecular_energy": -10.32, "internal_energy": -1.77, "cluster_size": 13, "cluster_id": 1, "rank_in_cluster": 9}

>  <energy>  (40) 
-7.81

>  <cluster_rmsd>  (40) 
1.24

>  <cluster>  (40) 
2

$$$$

     RDKit          3D

 53 56  0  0  0  0  0  0  0  0999 V2000
  139.8540   70.9170  221.0750 O   0  0  0  0  0  0  0  0  0  0  0  0
  139.7660   71.5160  222.1640 C   0  0  0  0  0  0  0  0  0  0  0  0
  139.6630   72.9250  222.3080 N   0  0  0  0  0  0  0  0  0  0  0  0
  139.6540   73.8000  221.1160 C   0  0  0  0  0  0  0  0  0  0  0  0
  139.6610   75.2130  221.5190 C   0  0  0  0  0  0  0  0  0  0  0  0
  139.2370   75.4340  222.7240 O   0  0  0  0  0  0  0  0  0  0  0  0
  140.0480   76.3410  220.8060 N   0  0  0  0  0  0  0  0  0  0  0  0
  139.3170   76.4640  219.4760 C   0  0  0  0  0  0  0  0  0  0  0  0
  140.3510   76.8930  218.4590 C   0  0  0  0  0  0  0  0  0  0  0  0
  141.7560   76.4520  218.8060 C   0  0  0  0  0  0  0  0  0  0  0  0
  142.2380   76.9760  220.1430 C   0  0  0  0  0  0  0  0  0  0  0  0
  140.9930   77.3400  221.0100 C   0  0  2  0  0  0  0  0  0  0  0  0
  141.4510   77.9150  222.2490 C   0  0  0  0  0  0  0  0  0  0  0  0
  141.5710   79.3450  222.4390 C   0  0  0  0  0  0  0  0  0  0  0  0
  141.3270   80.1530  221.3070 C   0  0  0  0  0  0  0  0  0  0  0  0
  141.4550   81.5230  221.3640 C   0  0  0  0  0  0  0  0  0  0  0  0
  141.8180   82.1600  222.5020 N   0  0  0  0  0  0  0  0  0  0  0  0
  142.0620   81.4140  223.6160 C   0  0  0  0  0  0  0  0  0  0  0  0
  141.9360   80.0300  223.5640 C   0  0  0  0  0  0  0  0  0  0  0  0
  139.7700   70.7010  223.3970 C   0  0  0  0  0  0  0  0  0  0  0  0
  139.2320   69.4380  223.4290 C   0  0  0  0  0  0  0  0  0  0  0  0
  139.2170   68.6450  224.5640 C   0  0  0  0  0  0  0  0  0  0  0  0
  139.7730   69.1580  225.7190 C   0  0  0  0  0  0  0  0  0  0  0  0
  139.7770   68.4060  226.8560 C   0  0  0  0  0  0  0  0  0  0  0  0
  140.3430   68.9460  228.0050 C   0  0  0  0  0  0  0  0  0  0  0  0
  140.3570   68.2150  229.1500 F   0  0  0  0  0  0  0  0  0  0  0  0
  140.8760   70.2160  227.9450 C   0  0  0  0  0  0  0  0  0  0  0  0
  140.8750   70.9800  226.8000 C   0  0  0  0  0  0  0  0  0  0  0  0
  140.3080   70.4220  225.6740 C   0  0  0  0  0  0  0  0  0  0  0  0
  140.3040   71.1650  224.5470 N   0  0  0  0  0  0  0  0  0  0  0  0
  139.5890   73.4110  223.2290 H   0  0  0  0  0  0  0  0  0  0  0  0
  140.5461   73.5922  220.5069 H   0  0  0  0  0  0  0  0  0  0  0  0
  138.7434   73.5994  220.5324 H   0  0  0  0  0  0  0  0  0  0  0  0
  138.8813   75.4952  219.1903 H   0  0  0  0  0  0  0  0  0  0  0  0
  138.4938   77.1909  219.5389 H   0  0  0  0  0  0  0  0  0  0  0  0
  140.0810   76.4610  217.4841 H   0  0  0  0  0  0  0  0  0  0  0  0
  140.3515   77.9929  218.4414 H   0  0  0  0  0  0  0  0  0  0  0  0
  141.7796   75.3526  218.8333 H   0  0  0  0  0  0  0  0  0  0  0  0
  142.4250   76.8632  218.0357 H   0  0  0  0  0  0  0  0  0  0  0  0
  142.8317   76.2027  220.6524 H   0  0  0  0  0  0  0  0  0  0  0  0
  142.8671   77.8660  219.9944 H   0  0  0  0  0  0  0  0  0  0  0  0
  140.3281   78.1827  220.7698 H   0  0  0  0  0  0  0  0  0  0  0  0
  140.7590   77.5593  223.0265 H   0  0  0  0  0  0  0  0  0  0  0  0
  142.5022   77.5922  222.2756 H   0  0  0  0  0  0  0  0  0  0  0  0
  141.0286   79.6786  220.3605 H   0  0  0  0  0  0  0  0  0  0  0  0
  141.2567   82.1164  220.4593 H   0  0  0  0  0  0  0  0  0  0  0  0
  142.3580   81.9056  224.5545 H   0  0  0  0  0  0  0  0  0  0  0  0
  142.1415   79.4548  224.4788 H   0  0  0  0  0  0  0  0  0  0  0  0
  138.7902   69.0356  222.5055 H   0  0  0  0  0  0  0  0  0  0  0  0
  138.7758   67.6375  224.5460 H   0  0  0  0  0  0  0  0  0  0  0  0
  139.3425   67.3955  226.8640 H   0  0  0  0  0  0  0  0  0  0  0  0
  141.3238   70.6393  228.8562 H   0  0  0  0  0  0  0  0  0  0  0  0
  141.3076   71.9913  226.7841 H   0  0  0  0  0  0  0  0  0  0  0  0
  1  2  2  0
  2  3  1  0
  3  4  1  0
  4  5  1  0
  5  6  2  0
  5  7  1  0
  7  8  1  0
  8  9  1  0
  9 10  1  0
 10 11  1  0
 11 12  1  0
 12 13  1  0
 13 14  1  0
 14 15  2  0
 15 16  1  0
 16 17  2  0
 17 18  1  0
 18 19  2  0
  2 20  1  0
 20 21  2  0
 21 22  1  0
 22 23  2  0
 23 24  1  0
 24 25  2  0
 25 26  1  0
 25 27  1  0
 27 28  2  0
 28 29  1  0
 29 30  2  0
 12  7  1  0
 19 14  1  0
 30 20  1  0
 29 23  1  0
  3 31  1  0
  4 32  1  0
  4 33  1  0
  8 34  1  0
  8 35  1  0
  9 36  1  0
  9 37  1  0
 10 38  1  0
 10 39  1  0
 11 40  1  0
 11 41  1  0
 12 42  1  6
 13 43  1  0
 13 44  1  0
 15 45  1  0
 16 46  1  0
 18 47  1  0
 19 48  1  0
 21 49  1  0
 22 50  1  0
 24 51  1  0
 27 52  1  0
 28 53  1  0
M  END
>  <smiles>  (41) 
O=C(NCC(=O)N1CCCCC1Cc1ccncc1)c1ccc2cc(F)ccc2n1

>  <score_type>  (41) 
oracle

>  <origin>  (41) 
autodockgpu

>  <m_score__min__energy>  (41) 
-8.9800000000000004

>  <m_primary>  (41) 
energy

>  <rmsd>  (41) 
1.6975904342286086

>  <m_score__min__rmsd>  (41) 
1.6975904342286086

>  <meeko>  (41) 
{"free_energy": -8.18, "intermolecular_energy": -9.97, "internal_energy": -1.99, "cluster_size": 27, "cluster_id": 2, "rank_in_cluster": 23}

>  <energy>  (41) 
-8.48

>  <cluster_rmsd>  (41) 
0.0

>  <cluster>  (41) 
3

$$$$

     RDKit          3D

 53 56  0  0  0  0  0  0  0  0999 V2000
  138.6720   70.9920  221.2310 O   0  0  0  0  0  0  0  0  0  0  0  0
  139.0840   71.6130  222.2290 C   0  0  0  0  0  0  0  0  0  0  0  0
  139.2970   73.0170  222.2790 N   0  0  0  0  0  0  0  0  0  0  0  0
  139.0300   73.8560  221.0910 C   0  0  0  0  0  0  0  0  0  0  0  0
  139.8260   75.0900  221.1480 C   0  0  0  0  0  0  0  0  0  0  0  0
  140.0950   75.5050  222.3460 O   0  0  0  0  0  0  0  0  0  0  0  0
  140.3270   75.8740  220.1160 N   0  0  0  0  0  0  0  0  0  0  0  0
  140.4840   75.0920  218.8190 C   0  0  0  0  0  0  0  0  0  0  0  0
  141.8090   75.5160  218.2240 C   0  0  0  0  0  0  0  0  0  0  0  0
  142.8130   75.9770  219.2570 C   0  0  0  0  0  0  0  0  0  0  0  0
  142.3290   77.1510  220.0840 C   0  0  0  0  0  0  0  0  0  0  0  0
  140.7700   77.1880  220.0240 C   0  0  2  0  0  0  0  0  0  0  0  0
  140.3140   78.3510  220.7430 C   0  0  0  0  0  0  0  0  0  0  0  0
  141.1260   79.0070  221.7460 C   0  0  0  0  0  0  0  0  0  0  0  0
  141.0800   78.4620  223.0480 C   0  0  0  0  0  0  0  0  0  0  0  0
  141.7790   79.0330  224.0880 C   0  0  0  0  0  0  0  0  0  0  0  0
  142.5410   80.1380  223.9150 N   0  0  0  0  0  0  0  0  0  0  0  0
  142.6110   80.6930  222.6730 C   0  0  0  0  0  0  0  0  0  0  0  0
  141.9060   80.1220  221.6190 C   0  0  0  0  0  0  0  0  0  0  0  0
  139.3720   70.8350  223.4530 C   0  0  0  0  0  0  0  0  0  0  0  0
  139.0590   69.5010  223.5490 C   0  0  0  0  0  0  0  0  0  0  0  0
  139.3130   68.7380  224.6770 C   0  0  0  0  0  0  0  0  0  0  0  0
  139.9100   69.3600  225.7560 C   0  0  0  0  0  0  0  0  0  0  0  0
  140.1760   68.6410  226.8840 C   0  0  0  0  0  0  0  0  0  0  0  0
  140.7780   69.2890  227.9560 C   0  0  0  0  0  0  0  0  0  0  0  0
  141.0510   68.5940  229.0900 F   0  0  0  0  0  0  0  0  0  0  0  0
  141.0810   70.6290  227.8320 C   0  0  0  0  0  0  0  0  0  0  0  0
  140.8150   71.3600  226.6960 C   0  0  0  0  0  0  0  0  0  0  0  0
  140.2180   70.6940  225.6470 C   0  0  0  0  0  0  0  0  0  0  0  0
  139.9550   71.4030  224.5290 N   0  0  0  0  0  0  0  0  0  0  0  0
  139.6410   73.5230  223.1250 H   0  0  0  0  0  0  0  0  0  0  0  0
  139.2957   73.2945  220.1832 H   0  0  0  0  0  0  0  0  0  0  0  0
  137.9623   74.1198  221.0723 H   0  0  0  0  0  0  0  0  0  0  0  0
  140.4872   74.0113  219.0241 H   0  0  0  0  0  0  0  0  0  0  0  0
  139.6527   75.2942  218.1276 H   0  0  0  0  0  0  0  0  0  0  0  0
  142.2364   74.6606  217.6802 H   0  0  0  0  0  0  0  0  0  0  0  0
  141.6083   76.3718  217.5627 H   0  0  0  0  0  0  0  0  0  0  0  0
  143.0265   75.1374  219.9348 H   0  0  0  0  0  0  0  0  0  0  0  0
  143.7092   76.3102  218.7131 H   0  0  0  0  0  0  0  0  0  0  0  0
  142.6577   77.0311  221.1269 H   0  0  0  0  0  0  0  0  0  0  0  0
  142.7444   78.0890  219.6871 H   0  0  0  0  0  0  0  0  0  0  0  0
  140.2166   77.4350  219.1060 H   0  0  0  0  0  0  0  0  0  0  0  0
  140.0907   79.1137  219.9824 H   0  0  0  0  0  0  0  0  0  0  0  0
  139.4936   77.9378  221.3482 H   0  0  0  0  0  0  0  0  0  0  0  0
  140.4737   77.5634  223.2351 H   0  0  0  0  0  0  0  0  0  0  0  0
  141.7163   78.5781  225.0876 H   0  0  0  0  0  0  0  0  0  0  0  0
  143.2237   81.5908  222.5041 H   0  0  0  0  0  0  0  0  0  0  0  0
  141.9803   80.5939  220.6282 H   0  0  0  0  0  0  0  0  0  0  0  0
  138.5822   69.0135  222.6859 H   0  0  0  0  0  0  0  0  0  0  0  0
  139.0477   67.6710  224.7122 H   0  0  0  0  0  0  0  0  0  0  0  0
  139.9200   67.5729  226.9439 H   0  0  0  0  0  0  0  0  0  0  0  0
  141.5584   71.1383  228.6821 H   0  0  0  0  0  0  0  0  0  0  0  0
  141.0677   72.4284  226.6284 H   0  0  0  0  0  0  0  0  0  0  0  0
  1  2  2  0
  2  3  1  0
  3  4  1  0
  4  5  1  0
  5  6  2  0
  5  7  1  0
  7  8  1  0
  8  9  1  0
  9 10  1  0
 10 11  1  0
 11 12  1  0
 12 13  1  0
 13 14  1  0
 14 15  2  0
 15 16  1  0
 16 17  2  0
 17 18  1  0
 18 19  2  0
  2 20  1  0
 20 21  2  0
 21 22  1  0
 22 23  2  0
 23 24  1  0
 24 25  2  0
 25 26  1  0
 25 27  1  0
 27 28  2  0
 28 29  1  0
 29 30  2  0
 12  7  1  0
 19 14  1  0
 30 20  1  0
 29 23  1  0
  3 31  1  0
  4 32  1  0
  4 33  1  0
  8 34  1  0
  8 35  1  0
  9 36  1  0
  9 37  1  0
 10 38  1  0
 10 39  1  0
 11 40  1  0
 11 41  1  0
 12 42  1  6
 13 43  1  0
 13 44  1  0
 15 45  1  0
 16 46  1  0
 18 47  1  0
 19 48  1  0
 21 49  1  0
 22 50  1  0
 24 51  1  0
 27 52  1  0
 28 53  1  0
M  END
>  <smiles>  (42) 
O=C(NCC(=O)N1CCCCC1Cc1ccncc1)c1ccc2cc(F)ccc2n1

>  <score_type>  (42) 
oracle

>  <origin>  (42) 
autodockgpu

>  <m_score__min__energy>  (42) 
-8.9800000000000004

>  <m_primary>  (42) 
energy

>  <rmsd>  (42) 
1.3520051404760391

>  <m_score__min__rmsd>  (42) 
1.3520051404760391

>  <meeko>  (42) 
{"free_energy": -8.32, "intermolecular_energy": -10.11, "internal_energy": -2.18, "cluster_size": 27, "cluster_id": 2, "rank_in_cluster": 15}

>  <energy>  (42) 
-8.47

>  <cluster_rmsd>  (42) 
0.48

>  <cluster>  (42) 
3

$$$$

     RDKit          3D

 53 56  0  0  0  0  0  0  0  0999 V2000
  140.7160   71.7760  221.3520 O   0  0  0  0  0  0  0  0  0  0  0  0
  139.9530   72.0730  222.2910 C   0  0  0  0  0  0  0  0  0  0  0  0
  139.0740   73.1890  222.2990 N   0  0  0  0  0  0  0  0  0  0  0  0
  139.0170   74.1040  221.1390 C   0  0  0  0  0  0  0  0  0  0  0  0
  139.5490   75.4250  221.5030 C   0  0  0  0  0  0  0  0  0  0  0  0
  138.6740   76.2420  222.0000 O   0  0  0  0  0  0  0  0  0  0  0  0
  140.8400   75.9260  221.3920 N   0  0  0  0  0  0  0  0  0  0  0  0
  140.9690   77.3280  221.9710 C   0  0  0  0  0  0  0  0  0  0  0  0
  141.8300   78.1110  221.0040 C   0  0  0  0  0  0  0  0  0  0  0  0
  141.7480   77.6050  219.5810 C   0  0  0  0  0  0  0  0  0  0  0  0
  142.1610   76.1550  219.4320 C   0  0  0  0  0  0  0  0  0  0  0  0
  142.0170   75.4560  220.8190 C   0  0  2  0  0  0  0  0  0  0  0  0
  142.4870   74.0990  220.6970 C   0  0  0  0  0  0  0  0  0  0  0  0
  143.8130   73.7830  220.2090 C   0  0  0  0  0  0  0  0  0  0  0  0
  143.9040   73.3610  218.8640 C   0  0  0  0  0  0  0  0  0  0  0  0
  145.1100   72.9940  218.3090 C   0  0  0  0  0  0  0  0  0  0  0  0
  146.2610   73.0180  219.0210 N   0  0  0  0  0  0  0  0  0  0  0  0
  146.2130   73.4190  220.3230 C   0  0  0  0  0  0  0  0  0  0  0  0
  144.9980   73.7910  220.8890 C   0  0  0  0  0  0  0  0  0  0  0  0
  139.9590   71.2000  223.4840 C   0  0  0  0  0  0  0  0  0  0  0  0
  139.4310   69.9320  223.4530 C   0  0  0  0  0  0  0  0  0  0  0  0
  139.4190   69.0850  224.5480 C   0  0  0  0  0  0  0  0  0  0  0  0
  139.9680   69.5470  225.7280 C   0  0  0  0  0  0  0  0  0  0  0  0
  139.9750   68.7410  226.8270 C   0  0  0  0  0  0  0  0  0  0  0  0
  140.5340   69.2290  228.0030 C   0  0  0  0  0  0  0  0  0  0  0  0
  140.5510   68.4440  229.1120 F   0  0  0  0  0  0  0  0  0  0  0  0
  141.0570   70.5040  228.0060 C   0  0  0  0  0  0  0  0  0  0  0  0
  141.0530   71.3230  226.9000 C   0  0  0  0  0  0  0  0  0  0  0  0
  140.4930   70.8160  225.7450 C   0  0  0  0  0  0  0  0  0  0  0  0
  140.4860   71.6110  224.6560 N   0  0  0  0  0  0  0  0  0  0  0  0
  138.4390   73.4230  223.0940 H   0  0  0  0  0  0  0  0  0  0  0  0
  139.6166   73.6855  220.3172 H   0  0  0  0  0  0  0  0  0  0  0  0
  137.9693   74.2155  220.8231 H   0  0  0  0  0  0  0  0  0  0  0  0
  139.9772   77.7951  222.0617 H   0  0  0  0  0  0  0  0  0  0  0  0
  141.4164   77.3053  222.9756 H   0  0  0  0  0  0  0  0  0  0  0  0
  141.5048   79.1617  221.0197 H   0  0  0  0  0  0  0  0  0  0  0  0
  142.8738   77.9938  221.3306 H   0  0  0  0  0  0  0  0  0  0  0  0
  140.7095   77.7090  219.2335 H   0  0  0  0  0  0  0  0  0  0  0  0
  142.4494   78.2050  218.9826 H   0  0  0  0  0  0  0  0  0  0  0  0
  141.5117   75.6577  218.6964 H   0  0  0  0  0  0  0  0  0  0  0  0
  143.2028   76.0930  219.0843 H   0  0  0  0  0  0  0  0  0  0  0  0
  142.6678   75.6925  221.6737 H   0  0  0  0  0  0  0  0  0  0  0  0
  142.4168   73.6582  221.7024 H   0  0  0  0  0  0  0  0  0  0  0  0
  141.8475   73.7067  219.8925 H   0  0  0  0  0  0  0  0  0  0  0  0
  142.9936   73.3248  218.2476 H   0  0  0  0  0  0  0  0  0  0  0  0
  145.1386   72.6723  217.2575 H   0  0  0  0  0  0  0  0  0  0  0  0
  147.1333   73.4483  220.9249 H   0  0  0  0  0  0  0  0  0  0  0  0
  144.9909   74.1091  221.9420 H   0  0  0  0  0  0  0  0  0  0  0  0
  138.9954   69.5712  222.5096 H   0  0  0  0  0  0  0  0  0  0  0  0
  138.9860   68.0761  224.4803 H   0  0  0  0  0  0  0  0  0  0  0  0
  139.5484   67.7280  226.7847 H   0  0  0  0  0  0  0  0  0  0  0  0
  141.4993   70.8858  228.9380 H   0  0  0  0  0  0  0  0  0  0  0  0
  141.4775   72.3372  226.9350 H   0  0  0  0  0  0  0  0  0  0  0  0
  1  2  2  0
  2  3  1  0
  3  4  1  0
  4  5  1  0
  5  6  2  0
  5  7  1  0
  7  8  1  0
  8  9  1  0
  9 10  1  0
 10 11  1  0
 11 12  1  0
 12 13  1  0
 13 14  1  0
 14 15  2  0
 15 16  1  0
 16 17  2  0
 17 18  1  0
 18 19  2  0
  2 20  1  0
 20 21  2  0
 21 22  1  0
 22 23  2  0
 23 24  1  0
 24 25  2  0
 25 26  1  0
 25 27  1  0
 27 28  2  0
 28 29  1  0
 29 30  2  0
 12  7  1  0
 19 14  1  0
 30 20  1  0
 29 23  1  0
  3 31  1  0
  4 32  1  0
  4 33  1  0
  8 34  1  0
  8 35  1  0
  9 36  1  0
  9 37  1  0
 10 38  1  0
 10 39  1  0
 11 40  1  0
 11 41  1  0
 12 42  1  1
 13 43  1  0
 13 44  1  0
 15 45  1  0
 16 46  1  0
 18 47  1  0
 19 48  1  0
 21 49  1  0
 22 50  1  0
 24 51  1  0
 27 52  1  0
 28 53  1  0
M  END
>  <smiles>  (43) 
O=C(NCC(=O)N1CCCCC1Cc1ccncc1)c1ccc2cc(F)ccc2n1

>  <score_type>  (43) 
oracle

>  <origin>  (43) 
autodockgpu

>  <m_score__min__energy>  (43) 
-8.9800000000000004

>  <m_primary>  (43) 
energy

>  <rmsd>  (43) 
2.5678771268065765

>  <m_score__min__rmsd>  (43) 
2.5678771268065765

>  <meeko>  (43) 
{"free_energy": -8.98, "intermolecular_energy": -10.77, "internal_energy": -1.57, "cluster_size": 13, "cluster_id": 1, "rank_in_cluster": 1}

>  <energy>  (43) 
-8.17

>  <cluster_rmsd>  (43) 
0.56

>  <cluster>  (43) 
3

$$$$

     RDKit          3D

 53 56  0  0  0  0  0  0  0  0999 V2000
  141.4320   71.7560  221.7140 O   0  0  0  0  0  0  0  0  0  0  0  0
  140.4710   72.0470  222.4510 C   0  0  0  0  0  0  0  0  0  0  0  0
  139.5760   73.1270  222.2270 N   0  0  0  0  0  0  0  0  0  0  0  0
  139.7460   74.0070  221.0520 C   0  0  0  0  0  0  0  0  0  0  0  0
  139.1740   75.3350  221.3200 C   0  0  0  0  0  0  0  0  0  0  0  0
  138.1240   75.3270  222.0810 O   0  0  0  0  0  0  0  0  0  0  0  0
  139.5860   76.5870  220.8820 N   0  0  0  0  0  0  0  0  0  0  0  0
  138.8600   77.0240  219.6170 C   0  0  0  0  0  0  0  0  0  0  0  0
  139.9060   77.6530  218.7220 C   0  0  0  0  0  0  0  0  0  0  0  0
  141.3000   77.1160  218.9570 C   0  0  0  0  0  0  0  0  0  0  0  0
  141.7900   77.3120  220.3770 C   0  0  0  0  0  0  0  0  0  0  0  0
  140.5490   77.4940  221.3070 C   0  0  2  0  0  0  0  0  0  0  0  0
  141.0160   77.7620  222.6430 C   0  0  0  0  0  0  0  0  0  0  0  0
  141.4560   79.0770  223.0580 C   0  0  0  0  0  0  0  0  0  0  0  0
  142.8480   79.3140  223.0270 C   0  0  0  0  0  0  0  0  0  0  0  0
  143.3790   80.5150  223.4420 C   0  0  0  0  0  0  0  0  0  0  0  0
  142.5980   81.5230  223.8970 N   0  0  0  0  0  0  0  0  0  0  0  0
  141.2500   81.3320  223.9420 C   0  0  0  0  0  0  0  0  0  0  0  0
  140.7070   80.1210  223.5250 C   0  0  0  0  0  0  0  0  0  0  0  0
  140.2430   71.2070  223.6460 C   0  0  0  0  0  0  0  0  0  0  0  0
  139.5370   70.0300  223.5770 C   0  0  0  0  0  0  0  0  0  0  0  0
  139.3040   69.2170  224.6730 C   0  0  0  0  0  0  0  0  0  0  0  0
  139.8090   69.6170  225.8940 C   0  0  0  0  0  0  0  0  0  0  0  0
  139.5990   68.8410  226.9960 C   0  0  0  0  0  0  0  0  0  0  0  0
  140.1190   69.2660  228.2130 C   0  0  0  0  0  0  0  0  0  0  0  0
  139.9210   68.5100  229.3250 F   0  0  0  0  0  0  0  0  0  0  0  0
  140.8230   70.4510  228.2540 C   0  0  0  0  0  0  0  0  0  0  0  0
  141.0380   71.2380  227.1450 C   0  0  0  0  0  0  0  0  0  0  0  0
  140.5130   70.7950  225.9490 C   0  0  0  0  0  0  0  0  0  0  0  0
  140.7200   71.5600  224.8580 N   0  0  0  0  0  0  0  0  0  0  0  0
  138.7740   73.3560  222.8550 H   0  0  0  0  0  0  0  0  0  0  0  0
  140.8182   74.1121  220.8298 H   0  0  0  0  0  0  0  0  0  0  0  0
  139.2244   73.5602  220.1928 H   0  0  0  0  0  0  0  0  0  0  0  0
  138.4057   76.1547  219.1191 H   0  0  0  0  0  0  0  0  0  0  0  0
  138.0508   77.7333  219.8455 H   0  0  0  0  0  0  0  0  0  0  0  0
  139.6302   77.4602  217.6747 H   0  0  0  0  0  0  0  0  0  0  0  0
  139.9288   78.7277  218.9553 H   0  0  0  0  0  0  0  0  0  0  0  0
  141.3008   76.0389  218.7337 H   0  0  0  0  0  0  0  0  0  0  0  0
  141.9792   77.6781  218.2992 H   0  0  0  0  0  0  0  0  0  0  0  0
  142.3668   76.4312  220.6957 H   0  0  0  0  0  0  0  0  0  0  0  0
  142.4377   78.1993  220.4338 H   0  0  0  0  0  0  0  0  0  0  0  0
  139.9007   78.3818  221.2674 H   0  0  0  0  0  0  0  0  0  0  0  0
  140.1912   77.4877  223.3171 H   0  0  0  0  0  0  0  0  0  0  0  0
  141.9528   77.1865  222.6771 H   0  0  0  0  0  0  0  0  0  0  0  0
  143.5214   78.5235  222.6641 H   0  0  0  0  0  0  0  0  0  0  0  0
  144.4688   80.6594  223.4027 H   0  0  0  0  0  0  0  0  0  0  0  0
  140.5919   82.1341  224.3075 H   0  0  0  0  0  0  0  0  0  0  0  0
  139.6151   79.9966  223.5737 H   0  0  0  0  0  0  0  0  0  0  0  0
  139.1366   69.7180  222.6011 H   0  0  0  0  0  0  0  0  0  0  0  0
  138.7342   68.2813  224.5741 H   0  0  0  0  0  0  0  0  0  0  0  0
  139.0317   67.9014  226.9233 H   0  0  0  0  0  0  0  0  0  0  0  0
  141.2325   70.7835  229.2193 H   0  0  0  0  0  0  0  0  0  0  0  0
  141.6038   72.1791  227.2100 H   0  0  0  0  0  0  0  0  0  0  0  0
  1  2  2  0
  2  3  1  0
  3  4  1  0
  4  5  1  0
  5  6  2  0
  5  7  1  0
  7  8  1  0
  8  9  1  0
  9 10  1  0
 10 11  1  0
 11 12  1  0
 12 13  1  0
 13 14  1  0
 14 15  2  0
 15 16  1  0
 16 17  2  0
 17 18  1  0
 18 19  2  0
  2 20  1  0
 20 21  2  0
 21 22  1  0
 22 23  2  0
 23 24  1  0
 24 25  2  0
 25 26  1  0
 25 27  1  0
 27 28  2  0
 28 29  1  0
 29 30  2  0
 12  7  1  0
 19 14  1  0
 30 20  1  0
 29 23  1  0
  3 31  1  0
  4 32  1  0
  4 33  1  0
  8 34  1  0
  8 35  1  0
  9 36  1  0
  9 37  1  0
 10 38  1  0
 10 39  1  0
 11 40  1  0
 11 41  1  0
 12 42  1  6
 13 43  1  0
 13 44  1  0
 15 45  1  0
 16 46  1  0
 18 47  1  0
 19 48  1  0
 21 49  1  0
 22 50  1  0
 24 51  1  0
 27 52  1  0
 28 53  1  0
M  END
>  <smiles>  (44) 
O=C(NCC(=O)N1CCCCC1Cc1ccncc1)c1ccc2cc(F)ccc2n1

>  <score_type>  (44) 
oracle

>  <origin>  (44) 
autodockgpu

>  <m_score__min__energy>  (44) 
-8.9800000000000004

>  <m_primary>  (44) 
energy

>  <rmsd>  (44) 
2.064591424777336

>  <m_score__min__rmsd>  (44) 
2.064591424777336

>  <meeko>  (44) 
{"free_energy": -8.31, "intermolecular_energy": -10.1, "internal_energy": -1.78, "cluster_size": 27, "cluster_id": 2, "rank_in_cluster": 17}

>  <energy>  (44) 
-8.08

>  <cluster_rmsd>  (44) 
1.15

>  <cluster>  (44) 
3

$$$$

     RDKit          3D

 53 56  0  0  0  0  0  0  0  0999 V2000
  137.2150   76.1530  222.0210 O   0  0  0  0  0  0  0  0  0  0  0  0
  138.4220   76.1790  222.3270 C   0  0  0  0  0  0  0  0  0  0  0  0
  139.2830   75.0490  222.3260 N   0  0  0  0  0  0  0  0  0  0  0  0
  138.7670   73.7170  221.9440 C   0  0  0  0  0  0  0  0  0  0  0  0
  139.7790   72.6830  222.2050 C   0  0  0  0  0  0  0  0  0  0  0  0
  141.0050   73.0830  222.0780 O   0  0  0  0  0  0  0  0  0  0  0  0
  139.6180   71.3500  222.5620 N   0  0  0  0  0  0  0  0  0  0  0  0
  139.3990   70.4490  221.3540 C   0  0  0  0  0  0  0  0  0  0  0  0
  138.3070   69.4760  221.7400 C   0  0  0  0  0  0  0  0  0  0  0  0
  137.3570   70.0220  222.7840 C   0  0  0  0  0  0  0  0  0  0  0  0
  138.0440   70.4170  224.0760 C   0  0  0  0  0  0  0  0  0  0  0  0
  139.5540   70.6720  223.7740 C   0  0  2  0  0  0  0  0  0  0  0  0
  140.2230   70.9680  225.0150 C   0  0  0  0  0  0  0  0  0  0  0  0
  140.4160   69.9690  226.0460 C   0  0  0  0  0  0  0  0  0  0  0  0
  140.7920   70.4460  227.3210 C   0  0  0  0  0  0  0  0  0  0  0  0
  141.0440   69.5800  228.3630 C   0  0  0  0  0  0  0  0  0  0  0  0
  140.9420   68.2380  228.2170 N   0  0  0  0  0  0  0  0  0  0  0  0
  140.5810   67.7410  227.0010 C   0  0  0  0  0  0  0  0  0  0  0  0
  140.3270   68.6090  225.9450 C   0  0  0  0  0  0  0  0  0  0  0  0
  139.0040   77.4800  222.7200 C   0  0  0  0  0  0  0  0  0  0  0  0
  138.2130   78.5590  223.0330 C   0  0  0  0  0  0  0  0  0  0  0  0
  138.7190   79.7920  223.4060 C   0  0  0  0  0  0  0  0  0  0  0  0
  140.0920   79.9370  223.4610 C   0  0  0  0  0  0  0  0  0  0  0  0
  140.6270   81.1370  223.8240 C   0  0  0  0  0  0  0  0  0  0  0  0
  142.0110   81.2570  223.8730 C   0  0  0  0  0  0  0  0  0  0  0  0
  142.5670   82.4440  224.2310 F   0  0  0  0  0  0  0  0  0  0  0  0
  142.7810   80.1600  223.5530 C   0  0  0  0  0  0  0  0  0  0  0  0
  142.2460   78.9450  223.1860 C   0  0  0  0  0  0  0  0  0  0  0  0
  140.8710   78.8510  223.1450 C   0  0  0  0  0  0  0  0  0  0  0  0
  140.3390   77.6650  222.7870 N   0  0  0  0  0  0  0  0  0  0  0  0
  140.2930   75.0880  222.5840 H   0  0  0  0  0  0  0  0  0  0  0  0
  137.8631   73.4962  222.5307 H   0  0  0  0  0  0  0  0  0  0  0  0
  138.5282   73.7206  220.8703 H   0  0  0  0  0  0  0  0  0  0  0  0
  139.0864   71.0468  220.4851 H   0  0  0  0  0  0  0  0  0  0  0  0
  140.3237   69.9216  221.0768 H   0  0  0  0  0  0  0  0  0  0  0  0
  137.7282   69.2259  220.8386 H   0  0  0  0  0  0  0  0  0  0  0  0
  138.7977   68.5938  222.1771 H   0  0  0  0  0  0  0  0  0  0  0  0
  136.8566   70.9097  222.3697 H   0  0  0  0  0  0  0  0  0  0  0  0
  136.6457   69.2189  223.0271 H   0  0  0  0  0  0  0  0  0  0  0  0
  137.5852   71.3335  224.4754 H   0  0  0  0  0  0  0  0  0  0  0  0
  137.9381   69.6144  224.8207 H   0  0  0  0  0  0  0  0  0  0  0  0
  140.2490   69.8662  223.4955 H   0  0  0  0  0  0  0  0  0  0  0  0
  141.2268   71.3274  224.7443 H   0  0  0  0  0  0  0  0  0  0  0  0
  139.5158   71.6595  225.4964 H   0  0  0  0  0  0  0  0  0  0  0  0
  140.8855   71.5296  227.4855 H   0  0  0  0  0  0  0  0  0  0  0  0
  141.3362   69.9907  229.3407 H   0  0  0  0  0  0  0  0  0  0  0  0
  140.4906   66.6545  226.8549 H   0  0  0  0  0  0  0  0  0  0  0  0
  140.0386   68.1775  224.9752 H   0  0  0  0  0  0  0  0  0  0  0  0
  137.1209   78.4365  222.9846 H   0  0  0  0  0  0  0  0  0  0  0  0
  138.0495   80.6298  223.6509 H   0  0  0  0  0  0  0  0  0  0  0  0
  139.9788   81.9903  224.0723 H   0  0  0  0  0  0  0  0  0  0  0  0
  143.8758   80.2594  223.5925 H   0  0  0  0  0  0  0  0  0  0  0  0
  142.8877   78.0871  222.9365 H   0  0  0  0  0  0  0  0  0  0  0  0
  1  2  2  0
  2  3  1  0
  3  4  1  0
  4  5  1  0
  5  6  2  0
  5  7  1  0
  7  8  1  0
  8  9  1  0
  9 10  1  0
 10 11  1  0
 11 12  1  0
 12 13  1  0
 13 14  1  0
 14 15  2  0
 15 16  1  0
 16 17  2  0
 17 18  1  0
 18 19  2  0
  2 20  1  0
 20 21  2  0
 21 22  1  0
 22 23  2  0
 23 24  1  0
 24 25  2  0
 25 26  1  0
 25 27  1  0
 27 28  2  0
 28 29  1  0
 29 30  2  0
 12  7  1  0
 19 14  1  0
 30 20  1  0
 29 23  1  0
  3 31  1  0
  4 32  1  0
  4 33  1  0
  8 34  1  0
  8 35  1  0
  9 36  1  0
  9 37  1  0
 10 38  1  0
 10 39  1  0
 11 40  1  0
 11 41  1  0
 12 42  1  6
 13 43  1  0
 13 44  1  0
 15 45  1  0
 16 46  1  0
 18 47  1  0
 19 48  1  0
 21 49  1  0
 22 50  1  0
 24 51  1  0
 27 52  1  0
 28 53  1  0
M  END
>  <smiles>  (45) 
O=C(NCC(=O)N1CCCCC1Cc1ccncc1)c1ccc2cc(F)ccc2n1

>  <score_type>  (45) 
oracle

>  <origin>  (45) 
autodockgpu

>  <m_score__min__energy>  (45) 
-8.9800000000000004

>  <m_primary>  (45) 
energy

>  <rmsd>  (45) 
8.470530113224155

>  <m_score__min__rmsd>  (45) 
8.470530113224155

>  <meeko>  (45) 
{"free_energy": -8.01, "intermolecular_energy": -9.8, "internal_energy": -2.0, "cluster_size": 8, "cluster_id": 3, "rank_in_cluster": 6}

>  <energy>  (45) 
-8.04

>  <cluster_rmsd>  (45) 
0.61

>  <cluster>  (45) 
3

$$$$

     RDKit          3D

 53 56  0  0  0  0  0  0  0  0999 V2000
  140.2790   71.2430  221.6400 O   0  0  0  0  0  0  0  0  0  0  0  0
  139.6570   71.6660  222.6320 C   0  0  0  0  0  0  0  0  0  0  0  0
  138.6190   72.6350  222.5860 N   0  0  0  0  0  0  0  0  0  0  0  0
  138.2010   73.2210  221.2940 C   0  0  0  0  0  0  0  0  0  0  0  0
  139.3610   73.7880  220.5910 C   0  0  0  0  0  0  0  0  0  0  0  0
  139.3690   73.5840  219.3110 O   0  0  0  0  0  0  0  0  0  0  0  0
  140.4420   74.5030  221.0900 N   0  0  0  0  0  0  0  0  0  0  0  0
  140.0090   75.7270  221.8870 C   0  0  0  0  0  0  0  0  0  0  0  0
  140.9420   76.8480  221.4850 C   0  0  0  0  0  0  0  0  0  0  0  0
  141.5030   76.6930  220.0890 C   0  0  0  0  0  0  0  0  0  0  0  0
  142.2810   75.4080  219.8910 C   0  0  0  0  0  0  0  0  0  0  0  0
  141.8220   74.3820  220.9730 C   0  0  2  0  0  0  0  0  0  0  0  0
  142.6190   73.1890  220.8380 C   0  0  0  0  0  0  0  0  0  0  0  0
  143.9380   73.2050  220.2400 C   0  0  0  0  0  0  0  0  0  0  0  0
  145.0140   73.5170  221.1000 C   0  0  0  0  0  0  0  0  0  0  0  0
  146.3050   73.6030  220.6270 C   0  0  0  0  0  0  0  0  0  0  0  0
  146.6040   73.3930  219.3240 N   0  0  0  0  0  0  0  0  0  0  0  0
  145.5920   73.0910  218.4640 C   0  0  0  0  0  0  0  0  0  0  0  0
  144.2860   73.0030  218.9350 C   0  0  0  0  0  0  0  0  0  0  0  0
  140.0250   71.1220  223.9570 C   0  0  0  0  0  0  0  0  0  0  0  0
  140.6670   71.8890  224.8990 C   0  0  0  0  0  0  0  0  0  0  0  0
  141.0270   71.4160  226.1490 C   0  0  0  0  0  0  0  0  0  0  0  0
  140.7230   70.1040  226.4570 C   0  0  0  0  0  0  0  0  0  0  0  0
  141.0620   69.6040  227.6780 C   0  0  0  0  0  0  0  0  0  0  0  0
  140.7440   68.2810  227.9630 C   0  0  0  0  0  0  0  0  0  0  0  0
  141.0730   67.7590  229.1740 F   0  0  0  0  0  0  0  0  0  0  0  0
  140.1000   67.5340  227.0000 C   0  0  0  0  0  0  0  0  0  0  0  0
  139.7550   68.0340  225.7640 C   0  0  0  0  0  0  0  0  0  0  0  0
  140.0810   69.3490  225.5060 C   0  0  0  0  0  0  0  0  0  0  0  0
  139.7460   69.8470  224.2980 N   0  0  0  0  0  0  0  0  0  0  0  0
  138.1070   72.9780  223.4280 H   0  0  0  0  0  0  0  0  0  0  0  0
  137.7464   72.4372  220.6703 H   0  0  0  0  0  0  0  0  0  0  0  0
  137.4716   74.0221  221.4841 H   0  0  0  0  0  0  0  0  0  0  0  0
  138.9693   75.9913  221.6440 H   0  0  0  0  0  0  0  0  0  0  0  0
  140.0565   75.5364  222.9693 H   0  0  0  0  0  0  0  0  0  0  0  0
  140.3880   77.7970  221.5345 H   0  0  0  0  0  0  0  0  0  0  0  0
  141.7937   76.8261  222.1808 H   0  0  0  0  0  0  0  0  0  0  0  0
  140.6672   76.7080  219.3740 H   0  0  0  0  0  0  0  0  0  0  0  0
  142.2044   77.5248  219.9273 H   0  0  0  0  0  0  0  0  0  0  0  0
  142.0814   75.0039  218.8876 H   0  0  0  0  0  0  0  0  0  0  0  0
  143.3597   75.6010  219.9870 H   0  0  0  0  0  0  0  0  0  0  0  0
  142.0433   74.5086  222.0431 H   0  0  0  0  0  0  0  0  0  0  0  0
  142.7479   72.7894  221.8547 H   0  0  0  0  0  0  0  0  0  0  0  0
  142.0414   72.6104  220.1020 H   0  0  0  0  0  0  0  0  0  0  0  0
  144.8175   73.6947  222.1676 H   0  0  0  0  0  0  0  0  0  0  0  0
  147.1158   73.8494  221.3284 H   0  0  0  0  0  0  0  0  0  0  0  0
  145.8069   72.9171  217.3993 H   0  0  0  0  0  0  0  0  0  0  0  0
  143.4899   72.7572  218.2168 H   0  0  0  0  0  0  0  0  0  0  0  0
  140.9072   72.9324  224.6468 H   0  0  0  0  0  0  0  0  0  0  0  0
  141.5393   72.0647  226.8748 H   0  0  0  0  0  0  0  0  0  0  0  0
  141.5752   70.2323  228.4209 H   0  0  0  0  0  0  0  0  0  0  0  0
  139.8495   66.4879  227.2299 H   0  0  0  0  0  0  0  0  0  0  0  0
  139.2421   67.4120  225.0156 H   0  0  0  0  0  0  0  0  0  0  0  0
  1  2  2  0
  2  3  1  0
  3  4  1  0
  4  5  1  0
  5  6  2  0
  5  7  1  0
  7  8  1  0
  8  9  1  0
  9 10  1  0
 10 11  1  0
 11 12  1  0
 12 13  1  0
 13 14  1  0
 14 15  2  0
 15 16  1  0
 16 17  2  0
 17 18  1  0
 18 19  2  0
  2 20  1  0
 20 21  2  0
 21 22  1  0
 22 23  2  0
 23 24  1  0
 24 25  2  0
 25 26  1  0
 25 27  1  0
 27 28  2  0
 28 29  1  0
 29 30  2  0
 12  7  1  0
 19 14  1  0
 30 20  1  0
 29 23  1  0
  3 31  1  0
  4 32  1  0
  4 33  1  0
  8 34  1  0
  8 35  1  0
  9 36  1  0
  9 37  1  0
 10 38  1  0
 10 39  1  0
 11 40  1  0
 11 41  1  0
 12 42  1  1
 13 43  1  0
 13 44  1  0
 15 45  1  0
 16 46  1  0
 18 47  1  0
 19 48  1  0
 21 49  1  0
 22 50  1  0
 24 51  1  0
 27 52  1  0
 28 53  1  0
M  END
>  <smiles>  (46) 
O=C(NCC(=O)N1CCCCC1Cc1ccncc1)c1ccc2cc(F)ccc2n1

>  <score_type>  (46) 
oracle

>  <origin>  (46) 
autodockgpu

>  <m_score__min__energy>  (46) 
-8.9800000000000004

>  <m_primary>  (46) 
energy

>  <rmsd>  (46) 
3.3759906219607574

>  <m_score__min__rmsd>  (46) 
3.3759906219607574

>  <meeko>  (46) 
{"free_energy": -8.43, "intermolecular_energy": -10.22, "internal_energy": -1.68, "cluster_size": 13, "cluster_id": 1, "rank_in_cluster": 11}

>  <energy>  (46) 
-8.01

>  <cluster_rmsd>  (46) 
1.16

>  <cluster>  (46) 
3

$$$$

     RDKit          3D

 53 56  0  0  0  0  0  0  0  0999 V2000
  140.5070   71.0210  221.8000 O   0  0  0  0  0  0  0  0  0  0  0  0
  140.1830   71.7520  222.7560 C   0  0  0  0  0  0  0  0  0  0  0  0
  139.6840   73.0760  222.6310 N   0  0  0  0  0  0  0  0  0  0  0  0
  139.5150   73.6880  221.2950 C   0  0  0  0  0  0  0  0  0  0  0  0
  140.3680   74.8780  221.1670 C   0  0  0  0  0  0  0  0  0  0  0  0
  140.7040   75.4260  222.2920 O   0  0  0  0  0  0  0  0  0  0  0  0
  140.8630   75.5000  220.0270 N   0  0  0  0  0  0  0  0  0  0  0  0
  141.1190   74.5140  218.8950 C   0  0  0  0  0  0  0  0  0  0  0  0
  142.4390   74.9140  218.2720 C   0  0  0  0  0  0  0  0  0  0  0  0
  143.3700   75.6150  219.2360 C   0  0  0  0  0  0  0  0  0  0  0  0
  142.7840   76.8810  219.8270 C   0  0  0  0  0  0  0  0  0  0  0  0
  141.2290   76.8040  219.7160 C   0  0  2  0  0  0  0  0  0  0  0  0
  140.6750   78.0420  220.2020 C   0  0  0  0  0  0  0  0  0  0  0  0
  141.0830   78.6300  221.4600 C   0  0  0  0  0  0  0  0  0  0  0  0
  142.1890   79.5080  221.4150 C   0  0  0  0  0  0  0  0  0  0  0  0
  142.6890   80.0880  222.5600 C   0  0  0  0  0  0  0  0  0  0  0  0
  142.1480   79.8480  223.7770 N   0  0  0  0  0  0  0  0  0  0  0  0
  141.0800   79.0060  223.8610 C   0  0  0  0  0  0  0  0  0  0  0  0
  140.5720   78.4160  222.7090 C   0  0  0  0  0  0  0  0  0  0  0  0
  140.3270   71.2020  224.1210 C   0  0  0  0  0  0  0  0  0  0  0  0
  140.9540   71.9070  225.1200 C   0  0  0  0  0  0  0  0  0  0  0  0
  141.1080   71.4260  226.4090 C   0  0  0  0  0  0  0  0  0  0  0  0
  140.6030   70.1740  226.6970 C   0  0  0  0  0  0  0  0  0  0  0  0
  140.7360   69.6680  227.9560 C   0  0  0  0  0  0  0  0  0  0  0  0
  140.2190   68.4050  228.2200 C   0  0  0  0  0  0  0  0  0  0  0  0
  140.3400   67.8800  229.4670 F   0  0  0  0  0  0  0  0  0  0  0  0
  139.5950   67.7200  227.1990 C   0  0  0  0  0  0  0  0  0  0  0  0
  139.4580   68.2250  225.9260 C   0  0  0  0  0  0  0  0  0  0  0  0
  139.9790   69.4800  225.6890 C   0  0  0  0  0  0  0  0  0  0  0  0
  139.8480   69.9830  224.4440 N   0  0  0  0  0  0  0  0  0  0  0  0
  139.4150   73.6750  223.4420 H   0  0  0  0  0  0  0  0  0  0  0  0
  139.7948   72.9563  220.5228 H   0  0  0  0  0  0  0  0  0  0  0  0
  138.4638   73.9862  221.1686 H   0  0  0  0  0  0  0  0  0  0  0  0
  141.1793   73.4889  219.2894 H   0  0  0  0  0  0  0  0  0  0  0  0
  140.3054   74.5356  218.1550 H   0  0  0  0  0  0  0  0  0  0  0  0
  142.9390   74.0068  217.9017 H   0  0  0  0  0  0  0  0  0  0  0  0
  142.2142   75.6245  217.4628 H   0  0  0  0  0  0  0  0  0  0  0  0
  143.6057   74.9232  220.0581 H   0  0  0  0  0  0  0  0  0  0  0  0
  144.2655   75.9067  218.6677 H   0  0  0  0  0  0  0  0  0  0  0  0
  143.0770   76.9677  220.8837 H   0  0  0  0  0  0  0  0  0  0  0  0
  143.1582   77.7603  219.2822 H   0  0  0  0  0  0  0  0  0  0  0  0
  140.6986   76.8493  218.7534 H   0  0  0  0  0  0  0  0  0  0  0  0
  140.8844   78.7960  219.4289 H   0  0  0  0  0  0  0  0  0  0  0  0
  139.6325   77.7592  220.4100 H   0  0  0  0  0  0  0  0  0  0  0  0
  142.6600   79.7328  220.4467 H   0  0  0  0  0  0  0  0  0  0  0  0
  143.5523   80.7653  222.4830 H   0  0  0  0  0  0  0  0  0  0  0  0
  140.6209   78.7936  224.8377 H   0  0  0  0  0  0  0  0  0  0  0  0
  139.7106   77.7392  222.8087 H   0  0  0  0  0  0  0  0  0  0  0  0
  141.3538   72.9041  224.8835 H   0  0  0  0  0  0  0  0  0  0  0  0
  141.6171   72.0231  227.1799 H   0  0  0  0  0  0  0  0  0  0  0  0
  141.2406   70.2457  228.7444 H   0  0  0  0  0  0  0  0  0  0  0  0
  139.1867   66.7211  227.4123 H   0  0  0  0  0  0  0  0  0  0  0  0
  138.9551   67.6529  225.1324 H   0  0  0  0  0  0  0  0  0  0  0  0
  1  2  2  0
  2  3  1  0
  3  4  1  0
  4  5  1  0
  5  6  2  0
  5  7  1  0
  7  8  1  0
  8  9  1  0
  9 10  1  0
 10 11  1  0
 11 12  1  0
 12 13  1  0
 13 14  1  0
 14 15  2  0
 15 16  1  0
 16 17  2  0
 17 18  1  0
 18 19  2  0
  2 20  1  0
 20 21  2  0
 21 22  1  0
 22 23  2  0
 23 24  1  0
 24 25  2  0
 25 26  1  0
 25 27  1  0
 27 28  2  0
 28 29  1  0
 29 30  2  0
 12  7  1  0
 19 14  1  0
 30 20  1  0
 29 23  1  0
  3 31  1  0
  4 32  1  0
  4 33  1  0
  8 34  1  0
  8 35  1  0
  9 36  1  0
  9 37  1  0
 10 38  1  0
 10 39  1  0
 11 40  1  0
 11 41  1  0
 12 42  1  6
 13 43  1  0
 13 44  1  0
 15 45  1  0
 16 46  1  0
 18 47  1  0
 19 48  1  0
 21 49  1  0
 22 50  1  0
 24 51  1  0
 27 52  1  0
 28 53  1  0
M  END
>  <smiles>  (47) 
O=C(NCC(=O)N1CCCCC1Cc1ccncc1)c1ccc2cc(F)ccc2n1

>  <score_type>  (47) 
oracle

>  <origin>  (47) 
autodockgpu

>  <m_score__min__energy>  (47) 
-8.9800000000000004

>  <m_primary>  (47) 
energy

>  <rmsd>  (47) 
2.7243599039396242

>  <m_score__min__rmsd>  (47) 
2.7243599039396242

>  <meeko>  (47) 
{"free_energy": -8.34, "intermolecular_energy": -10.13, "internal_energy": -1.67, "cluster_size": 27, "cluster_id": 2, "rank_in_cluster": 13}

>  <energy>  (47) 
-7.89

>  <cluster_rmsd>  (47) 
1.13

>  <cluster>  (47) 
3

$$$$

     RDKit          3D

 53 56  0  0  0  0  0  0  0  0999 V2000
  138.8290   70.9930  221.2100 O   0  0  0  0  0  0  0  0  0  0  0  0
  139.1740   71.5810  222.2540 C   0  0  0  0  0  0  0  0  0  0  0  0
  139.3790   72.9820  222.3640 N   0  0  0  0  0  0  0  0  0  0  0  0
  139.1870   73.8610  221.1910 C   0  0  0  0  0  0  0  0  0  0  0  0
  140.2160   74.9100  221.1650 C   0  0  0  0  0  0  0  0  0  0  0  0
  140.7830   75.1400  222.3080 O   0  0  0  0  0  0  0  0  0  0  0  0
  140.6670   75.6890  220.1060 N   0  0  0  0  0  0  0  0  0  0  0  0
  140.8850   74.8720  218.8390 C   0  0  0  0  0  0  0  0  0  0  0  0
  142.1800   75.3660  218.2320 C   0  0  0  0  0  0  0  0  0  0  0  0
  143.1430   75.9350  219.2500 C   0  0  0  0  0  0  0  0  0  0  0  0
  142.5740   77.1010  220.0320 C   0  0  0  0  0  0  0  0  0  0  0  0
  141.0170   77.0270  219.9660 C   0  0  2  0  0  0  0  0  0  0  0  0
  140.4760   78.1800  220.6390 C   0  0  0  0  0  0  0  0  0  0  0  0
  141.1160   78.7690  221.7970 C   0  0  0  0  0  0  0  0  0  0  0  0
  141.8730   79.9390  221.5710 C   0  0  0  0  0  0  0  0  0  0  0  0
  142.5590   80.5570  222.5940 C   0  0  0  0  0  0  0  0  0  0  0  0
  142.5400   80.0760  223.8590 N   0  0  0  0  0  0  0  0  0  0  0  0
  141.8200   78.9480  224.1170 C   0  0  0  0  0  0  0  0  0  0  0  0
  141.1270   78.3200  223.0880 C   0  0  0  0  0  0  0  0  0  0  0  0
  139.3830   70.7610  223.4660 C   0  0  0  0  0  0  0  0  0  0  0  0
  138.9960   69.4450  223.5230 C   0  0  0  0  0  0  0  0  0  0  0  0
  139.1750   68.6460  224.6400 C   0  0  0  0  0  0  0  0  0  0  0  0
  139.7750   69.2090  225.7490 C   0  0  0  0  0  0  0  0  0  0  0  0
  139.9690   68.4530  226.8660 C   0  0  0  0  0  0  0  0  0  0  0  0
  140.5750   69.0440  227.9690 C   0  0  0  0  0  0  0  0  0  0  0  0
  140.7770   68.3100  229.0940 F   0  0  0  0  0  0  0  0  0  0  0  0
  140.9540   70.3670  227.8840 C   0  0  0  0  0  0  0  0  0  0  0  0
  140.7610   71.1350  226.7590 C   0  0  0  0  0  0  0  0  0  0  0  0
  140.1580   70.5270  225.6780 C   0  0  0  0  0  0  0  0  0  0  0  0
  139.9660   71.2730  224.5710 N   0  0  0  0  0  0  0  0  0  0  0  0
  139.6660   73.4590  223.2470 H   0  0  0  0  0  0  0  0  0  0  0  0
  139.2579   73.2604  220.2722 H   0  0  0  0  0  0  0  0  0  0  0  0
  138.1960   74.3338  221.2569 H   0  0  0  0  0  0  0  0  0  0  0  0
  140.9630   73.8025  219.0843 H   0  0  0  0  0  0  0  0  0  0  0  0
  140.0450   74.9893  218.1385 H   0  0  0  0  0  0  0  0  0  0  0  0
  142.6696   74.5233  217.7221 H   0  0  0  0  0  0  0  0  0  0  0  0
  141.9232   76.1800  217.5381 H   0  0  0  0  0  0  0  0  0  0  0  0
  143.4118   75.1380  219.9589 H   0  0  0  0  0  0  0  0  0  0  0  0
  144.0157   76.3112  218.6960 H   0  0  0  0  0  0  0  0  0  0  0  0
  142.9044   77.0420  221.0795 H   0  0  0  0  0  0  0  0  0  0  0  0
  142.9252   78.0508  219.6024 H   0  0  0  0  0  0  0  0  0  0  0  0
  140.4532   77.2015  219.0377 H   0  0  0  0  0  0  0  0  0  0  0  0
  140.4164   78.9767  219.8829 H   0  0  0  0  0  0  0  0  0  0  0  0
  139.5476   77.7779  221.0708 H   0  0  0  0  0  0  0  0  0  0  0  0
  141.9161   80.3659  220.5581 H   0  0  0  0  0  0  0  0  0  0  0  0
  143.1382   81.4665  222.3764 H   0  0  0  0  0  0  0  0  0  0  0  0
  141.7872   78.5356  225.1362 H   0  0  0  0  0  0  0  0  0  0  0  0
  140.5555   77.4108  223.3263 H   0  0  0  0  0  0  0  0  0  0  0  0
  138.5193   69.0025  222.6359 H   0  0  0  0  0  0  0  0  0  0  0  0
  138.8493   67.5953  224.6436 H   0  0  0  0  0  0  0  0  0  0  0  0
  139.6535   67.3996  226.8944 H   0  0  0  0  0  0  0  0  0  0  0  0
  141.4340   70.8310  228.7583 H   0  0  0  0  0  0  0  0  0  0  0  0
  141.0742   72.1889  226.7233 H   0  0  0  0  0  0  0  0  0  0  0  0
  1  2  2  0
  2  3  1  0
  3  4  1  0
  4  5  1  0
  5  6  2  0
  5  7  1  0
  7  8  1  0
  8  9  1  0
  9 10  1  0
 10 11  1  0
 11 12  1  0
 12 13  1  0
 13 14  1  0
 14 15  2  0
 15 16  1  0
 16 17  2  0
 17 18  1  0
 18 19  2  0
  2 20  1  0
 20 21  2  0
 21 22  1  0
 22 23  2  0
 23 24  1  0
 24 25  2  0
 25 26  1  0
 25 27  1  0
 27 28  2  0
 28 29  1  0
 29 30  2  0
 12  7  1  0
 19 14  1  0
 30 20  1  0
 29 23  1  0
  3 31  1  0
  4 32  1  0
  4 33  1  0
  8 34  1  0
  8 35  1  0
  9 36  1  0
  9 37  1  0
 10 38  1  0
 10 39  1  0
 11 40  1  0
 11 41  1  0
 12 42  1  6
 13 43  1  0
 13 44  1  0
 15 45  1  0
 16 46  1  0
 18 47  1  0
 19 48  1  0
 21 49  1  0
 22 50  1  0
 24 51  1  0
 27 52  1  0
 28 53  1  0
M  END
>  <smiles>  (48) 
O=C(NCC(=O)N1CCCCC1Cc1ccncc1)c1ccc2cc(F)ccc2n1

>  <score_type>  (48) 
oracle

>  <origin>  (48) 
autodockgpu

>  <m_score__min__energy>  (48) 
-8.9800000000000004

>  <m_primary>  (48) 
energy

>  <rmsd>  (48) 
1.3997859811375166

>  <m_score__min__rmsd>  (48) 
1.3997859811375166

>  <meeko>  (48) 
{"free_energy": -8.42, "intermolecular_energy": -10.21, "internal_energy": -2.15, "cluster_size": 27, "cluster_id": 2, "rank_in_cluster": 8}

>  <energy>  (48) 
-7.64

>  <cluster_rmsd>  (48) 
1.41

>  <cluster>  (48) 
3

$$$$

     RDKit          3D

 53 56  0  0  0  0  0  0  0  0999 V2000
  139.5010   70.6950  221.4490 O   0  0  0  0  0  0  0  0  0  0  0  0
  139.3590   71.4920  222.3960 C   0  0  0  0  0  0  0  0  0  0  0  0
  138.7950   72.7910  222.2860 N   0  0  0  0  0  0  0  0  0  0  0  0
  138.3240   73.2920  220.9770 C   0  0  0  0  0  0  0  0  0  0  0  0
  139.2410   74.3190  220.4620 C   0  0  0  0  0  0  0  0  0  0  0  0
  138.9490   74.7610  219.2800 O   0  0  0  0  0  0  0  0  0  0  0  0
  140.3680   74.8800  221.0490 N   0  0  0  0  0  0  0  0  0  0  0  0
  140.0350   76.1090  221.8830 C   0  0  0  0  0  0  0  0  0  0  0  0
  141.1100   77.1310  221.5850 C   0  0  0  0  0  0  0  0  0  0  0  0
  141.7250   76.9740  220.2120 C   0  0  0  0  0  0  0  0  0  0  0  0
  142.3610   75.6170  219.9880 C   0  0  0  0  0  0  0  0  0  0  0  0
  141.7300   74.6040  220.9940 C   0  0  2  0  0  0  0  0  0  0  0  0
  142.3920   73.3340  220.8380 C   0  0  0  0  0  0  0  0  0  0  0  0
  143.6700   73.2070  220.1690 C   0  0  0  0  0  0  0  0  0  0  0  0
  144.8180   73.4590  220.9510 C   0  0  0  0  0  0  0  0  0  0  0  0
  146.0810   73.4080  220.4050 C   0  0  0  0  0  0  0  0  0  0  0  0
  146.2840   73.1150  219.0990 N   0  0  0  0  0  0  0  0  0  0  0  0
  145.2000   72.8670  218.3120 C   0  0  0  0  0  0  0  0  0  0  0  0
  143.9220   72.9170  218.8570 C   0  0  0  0  0  0  0  0  0  0  0  0
  139.8100   71.0540  223.7350 C   0  0  0  0  0  0  0  0  0  0  0  0
  140.5510   71.8750  224.5500 C   0  0  0  0  0  0  0  0  0  0  0  0
  140.9910   71.5020  225.8090 C   0  0  0  0  0  0  0  0  0  0  0  0
  140.6640   70.2380  226.2600 C   0  0  0  0  0  0  0  0  0  0  0  0
  141.0800   69.8360  227.4940 C   0  0  0  0  0  0  0  0  0  0  0  0
  140.7370   68.5590  227.9250 C   0  0  0  0  0  0  0  0  0  0  0  0
  141.1410   68.1360  229.1510 F   0  0  0  0  0  0  0  0  0  0  0  0
  139.9930   67.7570  227.0870 C   0  0  0  0  0  0  0  0  0  0  0  0
  139.5710   68.1570  225.8390 C   0  0  0  0  0  0  0  0  0  0  0  0
  139.9230   69.4280  225.4350 C   0  0  0  0  0  0  0  0  0  0  0  0
  139.5120   69.8280  224.2140 N   0  0  0  0  0  0  0  0  0  0  0  0
  138.6820   73.4460  223.0900 H   0  0  0  0  0  0  0  0  0  0  0  0
  138.2787   72.4558  220.2637 H   0  0  0  0  0  0  0  0  0  0  0  0
  137.3253   73.7357  221.1028 H   0  0  0  0  0  0  0  0  0  0  0  0
  139.0471   76.5030  221.6023 H   0  0  0  0  0  0  0  0  0  0  0  0
  140.0015   75.8663  222.9554 H   0  0  0  0  0  0  0  0  0  0  0  0
  140.6657   78.1348  221.6552 H   0  0  0  0  0  0  0  0  0  0  0  0
  141.9143   76.9796  222.3200 H   0  0  0  0  0  0  0  0  0  0  0  0
  140.9367   77.1181  219.4585 H   0  0  0  0  0  0  0  0  0  0  0  0
  142.5244   77.7248  220.1269 H   0  0  0  0  0  0  0  0  0  0  0  0
  142.1712   75.2836  218.9571 H   0  0  0  0  0  0  0  0  0  0  0  0
  143.4478   75.6787  220.1460 H   0  0  0  0  0  0  0  0  0  0  0  0
  141.9057   74.6559  222.0786 H   0  0  0  0  0  0  0  0  0  0  0  0
  142.5362   72.9363  221.8534 H   0  0  0  0  0  0  0  0  0  0  0  0
  141.7181   72.8083  220.1456 H   0  0  0  0  0  0  0  0  0  0  0  0
  144.7012   73.7009  222.0177 H   0  0  0  0  0  0  0  0  0  0  0  0
  146.9498   73.6111  221.0483 H   0  0  0  0  0  0  0  0  0  0  0  0
  145.3357   72.6276  217.2470 H   0  0  0  0  0  0  0  0  0  0  0  0
  143.0667   72.7120  218.1963 H   0  0  0  0  0  0  0  0  0  0  0  0
  140.8079   72.8799  224.1838 H   0  0  0  0  0  0  0  0  0  0  0  0
  141.5823   72.1907  226.4304 H   0  0  0  0  0  0  0  0  0  0  0  0
  141.6731   70.5058  228.1340 H   0  0  0  0  0  0  0  0  0  0  0  0
  139.7231   66.7480  227.4320 H   0  0  0  0  0  0  0  0  0  0  0  0
  138.9792   67.4923  225.1926 H   0  0  0  0  0  0  0  0  0  0  0  0
  1  2  2  0
  2  3  1  0
  3  4  1  0
  4  5  1  0
  5  6  2  0
  5  7  1  0
  7  8  1  0
  8  9  1  0
  9 10  1  0
 10 11  1  0
 11 12  1  0
 12 13  1  0
 13 14  1  0
 14 15  2  0
 15 16  1  0
 16 17  2  0
 17 18  1  0
 18 19  2  0
  2 20  1  0
 20 21  2  0
 21 22  1  0
 22 23  2  0
 23 24  1  0
 24 25  2  0
 25 26  1  0
 25 27  1  0
 27 28  2  0
 28 29  1  0
 29 30  2  0
 12  7  1  0
 19 14  1  0
 30 20  1  0
 29 23  1  0
  3 31  1  0
  4 32  1  0
  4 33  1  0
  8 34  1  0
  8 35  1  0
  9 36  1  0
  9 37  1  0
 10 38  1  0
 10 39  1  0
 11 40  1  0
 11 41  1  0
 12 42  1  1
 13 43  1  0
 13 44  1  0
 15 45  1  0
 16 46  1  0
 18 47  1  0
 19 48  1  0
 21 49  1  0
 22 50  1  0
 24 51  1  0
 27 52  1  0
 28 53  1  0
M  END
>  <smiles>  (49) 
O=C(NCC(=O)N1CCCCC1Cc1ccncc1)c1ccc2cc(F)ccc2n1

>  <score_type>  (49) 
oracle

>  <origin>  (49) 
autodockgpu

>  <m_score__min__energy>  (49) 
-8.9800000000000004

>  <m_primary>  (49) 
energy

>  <rmsd>  (49) 
3.3198414014775386

>  <m_score__min__rmsd>  (49) 
3.3198414014775386

>  <meeko>  (49) 
{"free_energy": -8.54, "intermolecular_energy": -10.33, "internal_energy": -1.63, "cluster_size": 13, "cluster_id": 1, "rank_in_cluster": 8}

>  <energy>  (49) 
-7.48

>  <cluster_rmsd>  (49) 
0.0

>  <cluster>  (49) 
4

$$$$

     RDKit          3D

 53 56  0  0  0  0  0  0  0  0999 V2000
  139.9340   70.7800  221.8130 O   0  0  0  0  0  0  0  0  0  0  0  0
  139.9310   71.5950  222.7560 C   0  0  0  0  0  0  0  0  0  0  0  0
  139.6900   72.9890  222.6220 N   0  0  0  0  0  0  0  0  0  0  0  0
  139.4170   73.5750  221.2920 C   0  0  0  0  0  0  0  0  0  0  0  0
  139.9700   74.9350  221.2100 C   0  0  0  0  0  0  0  0  0  0  0  0
  140.3980   75.4130  222.3370 O   0  0  0  0  0  0  0  0  0  0  0  0
  140.0980   75.7790  220.1150 N   0  0  0  0  0  0  0  0  0  0  0  0
  138.9940   75.5680  219.0880 C   0  0  0  0  0  0  0  0  0  0  0  0
  139.6600   75.6120  217.7310 C   0  0  0  0  0  0  0  0  0  0  0  0
  141.1130   75.1900  217.7590 C   0  0  0  0  0  0  0  0  0  0  0  0
  141.9690   76.0390  218.6760 C   0  0  0  0  0  0  0  0  0  0  0  0
  141.0390   76.7250  219.7250 C   0  0  2  0  0  0  0  0  0  0  0  0
  141.8420   77.5980  220.5440 C   0  0  0  0  0  0  0  0  0  0  0  0
  141.2800   78.3620  221.6380 C   0  0  0  0  0  0  0  0  0  0  0  0
  142.1810   79.1660  222.3710 C   0  0  0  0  0  0  0  0  0  0  0  0
  141.7620   79.9010  223.4580 C   0  0  0  0  0  0  0  0  0  0  0  0
  140.4740   79.8900  223.8750 N   0  0  0  0  0  0  0  0  0  0  0  0
  139.5760   79.1260  223.1930 C   0  0  0  0  0  0  0  0  0  0  0  0
  139.9930   78.3810  222.0950 C   0  0  0  0  0  0  0  0  0  0  0  0
  140.1970   71.0750  224.1140 C   0  0  0  0  0  0  0  0  0  0  0  0
  140.6870   71.8820  225.1120 C   0  0  0  0  0  0  0  0  0  0  0  0
  140.9480   71.4330  226.3960 C   0  0  0  0  0  0  0  0  0  0  0  0
  140.7030   70.1040  226.6770 C   0  0  0  0  0  0  0  0  0  0  0  0
  140.9480   69.6250  227.9300 C   0  0  0  0  0  0  0  0  0  0  0  0
  140.6920   68.2830  228.1880 C   0  0  0  0  0  0  0  0  0  0  0  0
  140.9290   67.7840  229.4290 F   0  0  0  0  0  0  0  0  0  0  0  0
  140.2010   67.4960  227.1690 C   0  0  0  0  0  0  0  0  0  0  0  0
  139.9520   67.9730  225.9020 C   0  0  0  0  0  0  0  0  0  0  0  0
  140.2140   69.3080  225.6700 C   0  0  0  0  0  0  0  0  0  0  0  0
  139.9710   69.7830  224.4320 N   0  0  0  0  0  0  0  0  0  0  0  0
  139.6890   73.6580  223.4230 H   0  0  0  0  0  0  0  0  0  0  0  0
  139.8809   72.9474  220.5168 H   0  0  0  0  0  0  0  0  0  0  0  0
  138.3288   73.6215  221.1381 H   0  0  0  0  0  0  0  0  0  0  0  0
  138.5111   74.5920  219.2434 H   0  0  0  0  0  0  0  0  0  0  0  0
  138.2150   76.3397  219.1754 H   0  0  0  0  0  0  0  0  0  0  0  0
  139.1147   74.9387  217.0533 H   0  0  0  0  0  0  0  0  0  0  0  0
  139.6327   76.6576  217.3904 H   0  0  0  0  0  0  0  0  0  0  0  0
  141.1662   74.1457  218.1005 H   0  0  0  0  0  0  0  0  0  0  0  0
  141.5069   75.3150  216.7396 H   0  0  0  0  0  0  0  0  0  0  0  0
  142.7044   75.4035  219.1911 H   0  0  0  0  0  0  0  0  0  0  0  0
  142.5062   76.8011  218.0923 H   0  0  0  0  0  0  0  0  0  0  0  0
  140.3145   77.5078  219.4562 H   0  0  0  0  0  0  0  0  0  0  0  0
  142.6304   76.9685  220.9823 H   0  0  0  0  0  0  0  0  0  0  0  0
  142.1199   78.3887  219.8316 H   0  0  0  0  0  0  0  0  0  0  0  0
  143.2377   79.2059  222.0679 H   0  0  0  0  0  0  0  0  0  0  0  0
  142.4948   80.5144  224.0028 H   0  0  0  0  0  0  0  0  0  0  0  0
  138.5230   79.0983  223.5100 H   0  0  0  0  0  0  0  0  0  0  0  0
  139.2447   77.7733  221.5652 H   0  0  0  0  0  0  0  0  0  0  0  0
  140.8821   72.9393  224.8794 H   0  0  0  0  0  0  0  0  0  0  0  0
  141.3380   72.1137  227.1671 H   0  0  0  0  0  0  0  0  0  0  0  0
  141.3391   70.2850  228.7183 H   0  0  0  0  0  0  0  0  0  0  0  0
  139.9982   66.4353  227.3782 H   0  0  0  0  0  0  0  0  0  0  0  0
  139.5612   67.3186  225.1089 H   0  0  0  0  0  0  0  0  0  0  0  0
  1  2  2  0
  2  3  1  0
  3  4  1  0
  4  5  1  0
  5  6  2  0
  5  7  1  0
  7  8  1  0
  8  9  1  0
  9 10  1  0
 10 11  1  0
 11 12  1  0
 12 13  1  0
 13 14  1  0
 14 15  2  0
 15 16  1  0
 16 17  2  0
 17 18  1  0
 18 19  2  0
  2 20  1  0
 20 21  2  0
 21 22  1  0
 22 23  2  0
 23 24  1  0
 24 25  2  0
 25 26  1  0
 25 27  1  0
 27 28  2  0
 28 29  1  0
 29 30  2  0
 12  7  1  0
 19 14  1  0
 30 20  1  0
 29 23  1  0
  3 31  1  0
  4 32  1  0
  4 33  1  0
  8 34  1  0
  8 35  1  0
  9 36  1  0
  9 37  1  0
 10 38  1  0
 10 39  1  0
 11 40  1  0
 11 41  1  0
 12 42  1  6
 13 43  1  0
 13 44  1  0
 15 45  1  0
 16 46  1  0
 18 47  1  0
 19 48  1  0
 21 49  1  0
 22 50  1  0
 24 51  1  0
 27 52  1  0
 28 53  1  0
M  END
>  <smiles>  (50) 
O=C(NCC(=O)N1CCCCC1Cc1ccncc1)c1ccc2cc(F)ccc2n1

>  <score_type>  (50) 
oracle

>  <origin>  (50) 
autodockgpu

>  <m_score__min__energy>  (50) 
-8.9800000000000004

>  <m_primary>  (50) 
energy

>  <rmsd>  (50) 
2.587806353600929

>  <m_score__min__rmsd>  (50) 
2.587806353600929

>  <meeko>  (50) 
{"free_energy": -7.83, "intermolecular_energy": -9.62, "internal_energy": -1.93, "cluster_size": 27, "cluster_id": 2, "rank_in_cluster": 26}

>  <energy>  (50) 
-7.17

>  <cluster_rmsd>  (50) 
0.59

>  <cluster>  (50) 
4

$$$$

     RDKit          3D

 53 56  0  0  0  0  0  0  0  0999 V2000
  140.1850   71.6600  221.0510 O   0  0  0  0  0  0  0  0  0  0  0  0
  139.9780   72.1970  222.1580 C   0  0  0  0  0  0  0  0  0  0  0  0
  139.7510   73.5980  222.2820 N   0  0  0  0  0  0  0  0  0  0  0  0
  139.7690   74.3890  221.0840 C   0  0  0  0  0  0  0  0  0  0  0  0
  140.2520   75.7420  221.4200 C   0  0  0  0  0  0  0  0  0  0  0  0
  140.2660   76.1950  222.6070 O   0  0  0  0  0  0  0  0  0  0  0  0
  140.7200   76.5670  220.3590 N   0  0  0  0  0  0  0  0  0  0  0  0
  140.0140   76.6530  219.0740 C   0  0  0  0  0  0  0  0  0  0  0  0
  141.0290   76.5970  217.9510 C   0  0  0  0  0  0  0  0  0  0  0  0
  142.3550   76.0680  218.3810 C   0  0  0  0  0  0  0  0  0  0  0  0
  142.9430   76.7410  219.5910 C   0  0  0  0  0  0  0  0  0  0  0  0
  141.9230   77.3820  220.4650 C   0  0  1  0  0  0  0  0  0  0  0  0
  141.6850   78.8250  220.2100 C   0  0  0  0  0  0  0  0  0  0  0  0
  141.7850   79.6450  221.4440 C   0  0  0  0  0  0  0  0  0  0  0  0
  141.4450   81.0020  221.3900 C   0  0  0  0  0  0  0  0  0  0  0  0
  141.5250   81.8050  222.5200 C   0  0  0  0  0  0  0  0  0  0  0  0
  141.9380   81.2600  223.6850 N   0  0  0  0  0  0  0  0  0  0  0  0
  142.2770   79.9640  223.7980 C   0  0  0  0  0  0  0  0  0  0  0  0
  142.1930   79.1630  222.6560 C   0  0  0  0  0  0  0  0  0  0  0  0
  139.9600   71.3820  223.3890 C   0  0  0  0  0  0  0  0  0  0  0  0
  139.4390   70.0930  223.3300 C   0  0  0  0  0  0  0  0  0  0  0  0
  139.4120   69.3100  224.4750 C   0  0  0  0  0  0  0  0  0  0  0  0
  139.8980   69.7920  225.6770 C   0  0  0  0  0  0  0  0  0  0  0  0
  139.8740   69.0190  226.8170 C   0  0  0  0  0  0  0  0  0  0  0  0
  140.3780   69.5740  227.9820 C   0  0  0  0  0  0  0  0  0  0  0  0
  140.3460   68.7960  229.0970 F   0  0  0  0  0  0  0  0  0  0  0  0
  140.8950   70.8560  228.0320 C   0  0  0  0  0  0  0  0  0  0  0  0
  140.9000   71.5990  226.8700 C   0  0  0  0  0  0  0  0  0  0  0  0
  140.4060   71.0890  225.6740 C   0  0  0  0  0  0  0  0  0  0  0  0
  140.4260   71.8390  224.5560 N   0  0  0  0  0  0  0  0  0  0  0  0
  139.5760   74.0700  223.1940 H   0  0  0  0  0  0  0  0  0  0  0  0
  140.4418   73.9281  220.3458 H   0  0  0  0  0  0  0  0  0  0  0  0
  138.7570   74.4468  220.6568 H   0  0  0  0  0  0  0  0  0  0  0  0
  139.3134   75.8102  218.9807 H   0  0  0  0  0  0  0  0  0  0  0  0
  139.4513   77.5967  219.0207 H   0  0  0  0  0  0  0  0  0  0  0  0
  140.6348   75.9469  217.1560 H   0  0  0  0  0  0  0  0  0  0  0  0
  141.1869   77.6283  217.6025 H   0  0  0  0  0  0  0  0  0  0  0  0
  142.2388   74.9979  218.6078 H   0  0  0  0  0  0  0  0  0  0  0  0
  143.0495   76.2641  217.5508 H   0  0  0  0  0  0  0  0  0  0  0  0
  143.4835   75.9865  220.1814 H   0  0  0  0  0  0  0  0  0  0  0  0
  143.6073   77.5391  219.2280 H   0  0  0  0  0  0  0  0  0  0  0  0
  142.2969   77.4045  221.4993 H   0  0  0  0  0  0  0  0  0  0  0  0
  142.4325   79.1833  219.4869 H   0  0  0  0  0  0  0  0  0  0  0  0
  140.6618   78.9311  219.8205 H   0  0  0  0  0  0  0  0  0  0  0  0
  141.1094   81.4388  220.4379 H   0  0  0  0  0  0  0  0  0  0  0  0
  141.2558   82.8702  222.4672 H   0  0  0  0  0  0  0  0  0  0  0  0
  142.6102   79.5469  224.7598 H   0  0  0  0  0  0  0  0  0  0  0  0
  142.4666   78.1006  222.7359 H   0  0  0  0  0  0  0  0  0  0  0  0
  139.0505   69.6968  222.3802 H   0  0  0  0  0  0  0  0  0  0  0  0
  138.9984   68.2919  224.4263 H   0  0  0  0  0  0  0  0  0  0  0  0
  139.4687   67.9965  226.8028 H   0  0  0  0  0  0  0  0  0  0  0  0
  141.2905   71.2707  228.9709 H   0  0  0  0  0  0  0  0  0  0  0  0
  141.3052   72.6215  226.8896 H   0  0  0  0  0  0  0  0  0  0  0  0
  1  2  2  0
  2  3  1  0
  3  4  1  0
  4  5  1  0
  5  6  2  0
  5  7  1  0
  7  8  1  0
  8  9  1  0
  9 10  1  0
 10 11  1  0
 11 12  1  0
 12 13  1  0
 13 14  1  0
 14 15  2  0
 15 16  1  0
 16 17  2  0
 17 18  1  0
 18 19  2  0
  2 20  1  0
 20 21  2  0
 21 22  1  0
 22 23  2  0
 23 24  1  0
 24 25  2  0
 25 26  1  0
 25 27  1  0
 27 28  2  0
 28 29  1  0
 29 30  2  0
 12  7  1  0
 19 14  1  0
 30 20  1  0
 29 23  1  0
  3 31  1  0
  4 32  1  0
  4 33  1  0
  8 34  1  0
  8 35  1  0
  9 36  1  0
  9 37  1  0
 10 38  1  0
 10 39  1  0
 11 40  1  0
 11 41  1  0
 12 42  1  1
 13 43  1  0
 13 44  1  0
 15 45  1  0
 16 46  1  0
 18 47  1  0
 19 48  1  0
 21 49  1  0
 22 50  1  0
 24 51  1  0
 27 52  1  0
 28 53  1  0
M  END
>  <smiles>  (51) 
O=C(NCC(=O)N1CCCCC1Cc1ccncc1)c1ccc2cc(F)ccc2n1

>  <score_type>  (51) 
oracle

>  <origin>  (51) 
autodockgpu

>  <m_score__min__energy>  (51) 
-8.8399999999999999

>  <m_primary>  (51) 
energy

>  <rmsd>  (51) 
1.5426791082087932

>  <m_score__min__rmsd>  (51) 
1.5426791082087932

>  <meeko>  (51) 
{"free_energy": -8.51, "intermolecular_energy": -10.3, "internal_energy": -1.91, "cluster_size": 35, "cluster_id": 2, "rank_in_cluster": 11}

>  <energy>  (51) 
-8.84

>  <cluster_rmsd>  (51) 
0.0

>  <cluster>  (51) 
1

$$$$

     RDKit          3D

 53 56  0  0  0  0  0  0  0  0999 V2000
  140.6610   73.2140  222.3490 O   0  0  0  0  0  0  0  0  0  0  0  0
  139.6740   72.5540  222.7290 C   0  0  0  0  0  0  0  0  0  0  0  0
  138.3850   72.7290  222.1470 N   0  0  0  0  0  0  0  0  0  0  0  0
  138.2500   73.6980  221.0970 C   0  0  0  0  0  0  0  0  0  0  0  0
  138.0010   75.0200  221.7050 C   0  0  0  0  0  0  0  0  0  0  0  0
  137.0400   75.2410  222.5050 O   0  0  0  0  0  0  0  0  0  0  0  0
  138.8860   76.0840  221.3730 N   0  0  0  0  0  0  0  0  0  0  0  0
  139.1160   76.4970  219.9830 C   0  0  0  0  0  0  0  0  0  0  0  0
  140.5990   76.7230  219.7760 C   0  0  0  0  0  0  0  0  0  0  0  0
  141.4430   76.0950  220.8330 C   0  0  0  0  0  0  0  0  0  0  0  0
  141.0490   76.4370  222.2430 C   0  0  0  0  0  0  0  0  0  0  0  0
  139.6220   76.8400  222.3780 C   0  0  1  0  0  0  0  0  0  0  0  0
  139.3690   78.3010  222.3230 C   0  0  0  0  0  0  0  0  0  0  0  0
  140.5990   79.1010  222.5560 C   0  0  0  0  0  0  0  0  0  0  0  0
  141.1090   79.2040  223.8560 C   0  0  0  0  0  0  0  0  0  0  0  0
  142.2550   79.9420  224.1170 C   0  0  0  0  0  0  0  0  0  0  0  0
  142.8820   80.5670  223.0960 N   0  0  0  0  0  0  0  0  0  0  0  0
  142.4390   80.5040  221.8290 C   0  0  0  0  0  0  0  0  0  0  0  0
  141.2860   79.7580  221.5740 C   0  0  0  0  0  0  0  0  0  0  0  0
  139.8140   71.5570  223.8090 C   0  0  0  0  0  0  0  0  0  0  0  0
  139.4210   70.2450  223.5640 C   0  0  0  0  0  0  0  0  0  0  0  0
  139.5440   69.2930  224.5650 C   0  0  0  0  0  0  0  0  0  0  0  0
  140.0540   69.6270  225.8060 C   0  0  0  0  0  0  0  0  0  0  0  0
  140.1790   68.6860  226.8040 C   0  0  0  0  0  0  0  0  0  0  0  0
  140.6980   69.1010  228.0200 C   0  0  0  0  0  0  0  0  0  0  0  0
  140.8140   68.1570  228.9910 F   0  0  0  0  0  0  0  0  0  0  0  0
  141.0880   70.4070  228.2550 C   0  0  0  0  0  0  0  0  0  0  0  0
  140.9460   71.3200  227.2320 C   0  0  0  0  0  0  0  0  0  0  0  0
  140.4310   70.9560  225.9930 C   0  0  0  0  0  0  0  0  0  0  0  0
  140.3060   71.8710  225.0130 N   0  0  0  0  0  0  0  0  0  0  0  0
  137.5440   72.1900  222.4460 H   0  0  0  0  0  0  0  0  0  0  0  0
  139.1751   73.7318  220.5028 H   0  0  0  0  0  0  0  0  0  0  0  0
  137.4129   73.4238  220.4381 H   0  0  0  0  0  0  0  0  0  0  0  0
  138.7641   75.7091  219.3009 H   0  0  0  0  0  0  0  0  0  0  0  0
  138.5654   77.4263  219.7749 H   0  0  0  0  0  0  0  0  0  0  0  0
  140.8847   76.2981  218.8024 H   0  0  0  0  0  0  0  0  0  0  0  0
  140.7733   77.8082  219.8209 H   0  0  0  0  0  0  0  0  0  0  0  0
  141.3809   75.0030  220.7160 H   0  0  0  0  0  0  0  0  0  0  0  0
  142.4597   76.4906  220.6919 H   0  0  0  0  0  0  0  0  0  0  0  0
  141.2236   75.5554  222.8772 H   0  0  0  0  0  0  0  0  0  0  0  0
  141.6598   77.2986  222.5505 H   0  0  0  0  0  0  0  0  0  0  0  0
  139.2712   76.5979  223.3921 H   0  0  0  0  0  0  0  0  0  0  0  0
  138.9677   78.5523  221.3301 H   0  0  0  0  0  0  0  0  0  0  0  0
  138.6544   78.5466  223.1224 H   0  0  0  0  0  0  0  0  0  0  0  0
  140.5938   78.6925  224.6824 H   0  0  0  0  0  0  0  0  0  0  0  0
  142.6479   80.0172  225.1417 H   0  0  0  0  0  0  0  0  0  0  0  0
  142.9684   81.0242  221.0171 H   0  0  0  0  0  0  0  0  0  0  0  0
  140.9156   79.6968  220.5401 H   0  0  0  0  0  0  0  0  0  0  0  0
  139.0147   69.9642  222.5811 H   0  0  0  0  0  0  0  0  0  0  0  0
  139.2312   68.2568  224.3687 H   0  0  0  0  0  0  0  0  0  0  0  0
  139.8772   67.6408  226.6413 H   0  0  0  0  0  0  0  0  0  0  0  0
  141.4994   70.7083  229.2297 H   0  0  0  0  0  0  0  0  0  0  0  0
  141.2482   72.3642  227.4004 H   0  0  0  0  0  0  0  0  0  0  0  0
  1  2  2  0
  2  3  1  0
  3  4  1  0
  4  5  1  0
  5  6  2  0
  5  7  1  0
  7  8  1  0
  8  9  1  0
  9 10  1  0
 10 11  1  0
 11 12  1  0
 12 13  1  0
 13 14  1  0
 14 15  2  0
 15 16  1  0
 16 17  2  0
 17 18  1  0
 18 19  2  0
  2 20  1  0
 20 21  2  0
 21 22  1  0
 22 23  2  0
 23 24  1  0
 24 25  2  0
 25 26  1  0
 25 27  1  0
 27 28  2  0
 28 29  1  0
 29 30  2  0
 12  7  1  0
 19 14  1  0
 30 20  1  0
 29 23  1  0
  3 31  1  0
  4 32  1  0
  4 33  1  0
  8 34  1  0
  8 35  1  0
  9 36  1  0
  9 37  1  0
 10 38  1  0
 10 39  1  0
 11 40  1  0
 11 41  1  0
 12 42  1  1
 13 43  1  0
 13 44  1  0
 15 45  1  0
 16 46  1  0
 18 47  1  0
 19 48  1  0
 21 49  1  0
 22 50  1  0
 24 51  1  0
 27 52  1  0
 28 53  1  0
M  END
>  <smiles>  (52) 
O=C(NCC(=O)N1CCCCC1Cc1ccncc1)c1ccc2cc(F)ccc2n1

>  <score_type>  (52) 
oracle

>  <origin>  (52) 
autodockgpu

>  <m_score__min__energy>  (52) 
-8.8399999999999999

>  <m_primary>  (52) 
energy

>  <rmsd>  (52) 
2.1985585561651293

>  <m_score__min__rmsd>  (52) 
2.1985585561651293

>  <meeko>  (52) 
{"free_energy": -8.21, "intermolecular_energy": -10.0, "internal_energy": -1.68, "cluster_size": 35, "cluster_id": 2, "rank_in_cluster": 29}

>  <energy>  (52) 
-8.79

>  <cluster_rmsd>  (52) 
0.16

>  <cluster>  (52) 
1

$$$$

     RDKit          3D

 53 56  0  0  0  0  0  0  0  0999 V2000
  140.9760   72.0410  221.2290 O   0  0  0  0  0  0  0  0  0  0  0  0
  140.3230   72.4050  222.2280 C   0  0  0  0  0  0  0  0  0  0  0  0
  139.6670   73.6680  222.2770 N   0  0  0  0  0  0  0  0  0  0  0  0
  139.7780   74.5250  221.1300 C   0  0  0  0  0  0  0  0  0  0  0  0
  140.5270   75.7360  221.5180 C   0  0  0  0  0  0  0  0  0  0  0  0
  140.3040   76.3700  222.5950 O   0  0  0  0  0  0  0  0  0  0  0  0
  141.5430   76.2040  220.6370 N   0  0  0  0  0  0  0  0  0  0  0  0
  141.8170   77.6360  220.4610 C   0  0  0  0  0  0  0  0  0  0  0  0
  142.0010   77.9240  218.9850 C   0  0  0  0  0  0  0  0  0  0  0  0
  141.4650   76.8470  218.1040 C   0  0  0  0  0  0  0  0  0  0  0  0
  141.9450   75.4610  218.4360 C   0  0  0  0  0  0  0  0  0  0  0  0
  142.3800   75.3080  219.8510 C   0  0  1  0  0  0  0  0  0  0  0  0
  143.8330   75.4920  220.0920 C   0  0  0  0  0  0  0  0  0  0  0  0
  144.5990   74.2290  219.9350 C   0  0  0  0  0  0  0  0  0  0  0  0
  145.5370   73.8760  220.9120 C   0  0  0  0  0  0  0  0  0  0  0  0
  146.2760   72.7050  220.8040 C   0  0  0  0  0  0  0  0  0  0  0  0
  146.0800   71.9010  219.7360 N   0  0  0  0  0  0  0  0  0  0  0  0
  145.1940   72.1880  218.7670 C   0  0  0  0  0  0  0  0  0  0  0  0
  144.4540   73.3670  218.8850 C   0  0  0  0  0  0  0  0  0  0  0  0
  140.2110   71.5220  223.4070 C   0  0  0  0  0  0  0  0  0  0  0  0
  139.6190   70.2720  223.2510 C   0  0  0  0  0  0  0  0  0  0  0  0
  139.5020   69.4270  224.3460 C   0  0  0  0  0  0  0  0  0  0  0  0
  139.9680   69.8080  225.5910 C   0  0  0  0  0  0  0  0  0  0  0  0
  139.8550   68.9730  226.6800 C   0  0  0  0  0  0  0  0  0  0  0  0
  140.3450   69.4280  227.8940 C   0  0  0  0  0  0  0  0  0  0  0  0
  140.2250   68.5890  228.9580 F   0  0  0  0  0  0  0  0  0  0  0  0
  140.9320   70.6720  228.0400 C   0  0  0  0  0  0  0  0  0  0  0  0
  141.0260   71.4790  226.9260 C   0  0  0  0  0  0  0  0  0  0  0  0
  140.5510   71.0700  225.6850 C   0  0  0  0  0  0  0  0  0  0  0  0
  140.6570   71.8810  224.6150 N   0  0  0  0  0  0  0  0  0  0  0  0
  139.1160   73.9960  223.0980 H   0  0  0  0  0  0  0  0  0  0  0  0
  140.3136   73.9999  220.3254 H   0  0  0  0  0  0  0  0  0  0  0  0
  138.7764   74.8020  220.7694 H   0  0  0  0  0  0  0  0  0  0  0  0
  140.9721   78.2238  220.8491 H   0  0  0  0  0  0  0  0  0  0  0  0
  142.7296   77.9105  221.0103 H   0  0  0  0  0  0  0  0  0  0  0  0
  141.4810   78.8631  218.7448 H   0  0  0  0  0  0  0  0  0  0  0  0
  143.0829   77.9906  218.7978 H   0  0  0  0  0  0  0  0  0  0  0  0
  140.3678   76.8565  218.1814 H   0  0  0  0  0  0  0  0  0  0  0  0
  141.8315   77.0662  217.0903 H   0  0  0  0  0  0  0  0  0  0  0  0
  141.1249   74.7532  218.2451 H   0  0  0  0  0  0  0  0  0  0  0  0
  142.8228   75.2618  217.8037 H   0  0  0  0  0  0  0  0  0  0  0  0
  142.2409   74.2615  220.1602 H   0  0  0  0  0  0  0  0  0  0  0  0
  144.2191   76.2306  219.3741 H   0  0  0  0  0  0  0  0  0  0  0  0
  143.9595   75.8334  221.1300 H   0  0  0  0  0  0  0  0  0  0  0  0
  145.6912   74.5359  221.7784 H   0  0  0  0  0  0  0  0  0  0  0  0
  147.0106   72.4359  221.5772 H   0  0  0  0  0  0  0  0  0  0  0  0
  145.0558   71.5154  217.9076 H   0  0  0  0  0  0  0  0  0  0  0  0
  143.7238   73.6116  218.0995 H   0  0  0  0  0  0  0  0  0  0  0  0
  139.2460   69.9556  222.2657 H   0  0  0  0  0  0  0  0  0  0  0  0
  139.0319   68.4403  224.2216 H   0  0  0  0  0  0  0  0  0  0  0  0
  139.3919   67.9793  226.5896 H   0  0  0  0  0  0  0  0  0  0  0  0
  141.3126   71.0075  229.0160 H   0  0  0  0  0  0  0  0  0  0  0  0
  141.4889   72.4723  227.0216 H   0  0  0  0  0  0  0  0  0  0  0  0
  1  2  2  0
  2  3  1  0
  3  4  1  0
  4  5  1  0
  5  6  2  0
  5  7  1  0
  7  8  1  0
  8  9  1  0
  9 10  1  0
 10 11  1  0
 11 12  1  0
 12 13  1  0
 13 14  1  0
 14 15  2  0
 15 16  1  0
 16 17  2  0
 17 18  1  0
 18 19  2  0
  2 20  1  0
 20 21  2  0
 21 22  1  0
 22 23  2  0
 23 24  1  0
 24 25  2  0
 25 26  1  0
 25 27  1  0
 27 28  2  0
 28 29  1  0
 29 30  2  0
 12  7  1  0
 19 14  1  0
 30 20  1  0
 29 23  1  0
  3 31  1  0
  4 32  1  0
  4 33  1  0
  8 34  1  0
  8 35  1  0
  9 36  1  0
  9 37  1  0
 10 38  1  0
 10 39  1  0
 11 40  1  0
 11 41  1  0
 12 42  1  1
 13 43  1  0
 13 44  1  0
 15 45  1  0
 16 46  1  0
 18 47  1  0
 19 48  1  0
 21 49  1  0
 22 50  1  0
 24 51  1  0
 27 52  1  0
 28 53  1  0
M  END
>  <smiles>  (53) 
O=C(NCC(=O)N1CCCCC1Cc1ccncc1)c1ccc2cc(F)ccc2n1

>  <score_type>  (53) 
oracle

>  <origin>  (53) 
autodockgpu

>  <m_score__min__energy>  (53) 
-8.8399999999999999

>  <m_primary>  (53) 
energy

>  <rmsd>  (53) 
2.3956463852703074

>  <m_score__min__rmsd>  (53) 
2.3956463852703074

>  <meeko>  (53) 
{"free_energy": -8.71, "intermolecular_energy": -10.5, "internal_energy": -1.65, "cluster_size": 8, "cluster_id": 1, "rank_in_cluster": 3}

>  <energy>  (53) 
-8.71

>  <cluster_rmsd>  (53) 
0.33

>  <cluster>  (53) 
1

$$$$

     RDKit          3D

 53 56  0  0  0  0  0  0  0  0999 V2000
  138.0810   70.9000  221.9620 O   0  0  0  0  0  0  0  0  0  0  0  0
  138.8220   71.3310  222.8690 C   0  0  0  0  0  0  0  0  0  0  0  0
  139.3510   72.6540  222.8410 N   0  0  0  0  0  0  0  0  0  0  0  0
  139.0050   73.4910  221.7260 C   0  0  0  0  0  0  0  0  0  0  0  0
  139.7840   74.7410  221.8170 C   0  0  0  0  0  0  0  0  0  0  0  0
  141.0480   74.7590  221.9370 O   0  0  0  0  0  0  0  0  0  0  0  0
  139.0760   75.9750  221.7650 N   0  0  0  0  0  0  0  0  0  0  0  0
  137.6110   76.0320  221.8540 C   0  0  0  0  0  0  0  0  0  0  0  0
  137.0920   77.0050  220.8150 C   0  0  0  0  0  0  0  0  0  0  0  0
  138.0870   77.3100  219.7470 C   0  0  0  0  0  0  0  0  0  0  0  0
  139.4390   77.7410  220.2450 C   0  0  0  0  0  0  0  0  0  0  0  0
  139.7420   77.2620  221.6210 C   0  0  1  0  0  0  0  0  0  0  0  0
  139.4230   78.2190  222.7100 C   0  0  0  0  0  0  0  0  0  0  0  0
  140.5350   79.1670  222.9780 C   0  0  0  0  0  0  0  0  0  0  0  0
  141.8380   78.8080  222.6150 C   0  0  0  0  0  0  0  0  0  0  0  0
  142.9060   79.6640  222.8480 C   0  0  0  0  0  0  0  0  0  0  0  0
  142.6750   80.8590  223.4360 N   0  0  0  0  0  0  0  0  0  0  0  0
  141.4450   81.2570  223.8060 C   0  0  0  0  0  0  0  0  0  0  0  0
  140.3770   80.3900  223.5660 C   0  0  0  0  0  0  0  0  0  0  0  0
  139.1770   70.4690  224.0140 C   0  0  0  0  0  0  0  0  0  0  0  0
  138.8710   69.1130  223.9500 C   0  0  0  0  0  0  0  0  0  0  0  0
  139.1950   68.2860  225.0150 C   0  0  0  0  0  0  0  0  0  0  0  0
  139.8210   68.7880  226.1410 C   0  0  0  0  0  0  0  0  0  0  0  0
  140.1450   67.9710  227.2020 C   0  0  0  0  0  0  0  0  0  0  0  0
  140.7700   68.5500  228.2940 C   0  0  0  0  0  0  0  0  0  0  0  0
  141.0830   67.7270  229.3300 F   0  0  0  0  0  0  0  0  0  0  0  0
  141.0720   69.8990  228.3490 C   0  0  0  0  0  0  0  0  0  0  0  0
  140.7300   70.6840  227.2680 C   0  0  0  0  0  0  0  0  0  0  0  0
  140.1020   70.1520  226.1480 C   0  0  0  0  0  0  0  0  0  0  0  0
  139.7820   70.9450  225.1070 N   0  0  0  0  0  0  0  0  0  0  0  0
  139.9720   73.0380  223.5840 H   0  0  0  0  0  0  0  0  0  0  0  0
  139.2438   72.9730  220.7854 H   0  0  0  0  0  0  0  0  0  0  0  0
  137.9285   73.7165  221.7448 H   0  0  0  0  0  0  0  0  0  0  0  0
  137.1908   75.0329  221.6663 H   0  0  0  0  0  0  0  0  0  0  0  0
  137.3121   76.3660  222.8585 H   0  0  0  0  0  0  0  0  0  0  0  0
  136.1971   76.5706  220.3454 H   0  0  0  0  0  0  0  0  0  0  0  0
  136.8694   77.9492  221.3337 H   0  0  0  0  0  0  0  0  0  0  0  0
  138.2205   76.4051  219.1360 H   0  0  0  0  0  0  0  0  0  0  0  0
  137.6809   78.1616  219.1814 H   0  0  0  0  0  0  0  0  0  0  0  0
  140.2048   77.3454  219.5615 H   0  0  0  0  0  0  0  0  0  0  0  0
  139.4381   78.8405  220.2766 H   0  0  0  0  0  0  0  0  0  0  0  0
  140.8312   77.1591  221.7356 H   0  0  0  0  0  0  0  0  0  0  0  0
  138.5302   78.7943  222.4238 H   0  0  0  0  0  0  0  0  0  0  0  0
  139.2518   77.6366  223.6273 H   0  0  0  0  0  0  0  0  0  0  0  0
  142.0187   77.8334  222.1381 H   0  0  0  0  0  0  0  0  0  0  0  0
  143.9266   79.3736  222.5580 H   0  0  0  0  0  0  0  0  0  0  0  0
  141.2851   82.2352  224.2829 H   0  0  0  0  0  0  0  0  0  0  0  0
  139.3658   80.7050  223.8629 H   0  0  0  0  0  0  0  0  0  0  0  0
  138.3749   68.6994  223.0596 H   0  0  0  0  0  0  0  0  0  0  0  0
  138.9504   67.2148  224.9632 H   0  0  0  0  0  0  0  0  0  0  0  0
  139.9151   66.8955  227.1825 H   0  0  0  0  0  0  0  0  0  0  0  0
  141.5701   70.3325  229.2288 H   0  0  0  0  0  0  0  0  0  0  0  0
  140.9602   71.7593  227.2928 H   0  0  0  0  0  0  0  0  0  0  0  0
  1  2  2  0
  2  3  1  0
  3  4  1  0
  4  5  1  0
  5  6  2  0
  5  7  1  0
  7  8  1  0
  8  9  1  0
  9 10  1  0
 10 11  1  0
 11 12  1  0
 12 13  1  0
 13 14  1  0
 14 15  2  0
 15 16  1  0
 16 17  2  0
 17 18  1  0
 18 19  2  0
  2 20  1  0
 20 21  2  0
 21 22  1  0
 22 23  2  0
 23 24  1  0
 24 25  2  0
 25 26  1  0
 25 27  1  0
 27 28  2  0
 28 29  1  0
 29 30  2  0
 12  7  1  0
 19 14  1  0
 30 20  1  0
 29 23  1  0
  3 31  1  0
  4 32  1  0
  4 33  1  0
  8 34  1  0
  8 35  1  0
  9 36  1  0
  9 37  1  0
 10 38  1  0
 10 39  1  0
 11 40  1  0
 11 41  1  0
 12 42  1  6
 13 43  1  0
 13 44  1  0
 15 45  1  0
 16 46  1  0
 18 47  1  0
 19 48  1  0
 21 49  1  0
 22 50  1  0
 24 51  1  0
 27 52  1  0
 28 53  1  0
M  END
>  <smiles>  (54) 
O=C(NCC(=O)N1CCCCC1Cc1ccncc1)c1ccc2cc(F)ccc2n1

>  <score_type>  (54) 
oracle

>  <origin>  (54) 
autodockgpu

>  <m_score__min__energy>  (54) 
-8.8399999999999999

>  <m_primary>  (54) 
energy

>  <rmsd>  (54) 
2.517520429979066

>  <m_score__min__rmsd>  (54) 
2.517520429979066

>  <meeko>  (54) 
{"free_energy": -8.23, "intermolecular_energy": -10.02, "internal_energy": -1.64, "cluster_size": 35, "cluster_id": 2, "rank_in_cluster": 26}

>  <energy>  (54) 
-8.67

>  <cluster_rmsd>  (54) 
0.23

>  <cluster>  (54) 
1

$$$$

     RDKit          3D

 53 56  0  0  0  0  0  0  0  0999 V2000
  140.6570   71.6780  221.1080 O   0  0  0  0  0  0  0  0  0  0  0  0
  140.2420   72.1990  222.1620 C   0  0  0  0  0  0  0  0  0  0  0  0
  139.8830   73.5770  222.2280 N   0  0  0  0  0  0  0  0  0  0  0  0
  140.0120   74.3610  221.0330 C   0  0  0  0  0  0  0  0  0  0  0  0
  140.0560   75.7880  221.4080 C   0  0  0  0  0  0  0  0  0  0  0  0
  139.8730   76.1940  222.5980 O   0  0  0  0  0  0  0  0  0  0  0  0
  140.3180   76.7410  220.3840 N   0  0  0  0  0  0  0  0  0  0  0  0
  139.2390   77.3330  219.5830 C   0  0  0  0  0  0  0  0  0  0  0  0
  139.6610   77.3550  218.1280 C   0  0  0  0  0  0  0  0  0  0  0  0
  140.8000   76.4380  217.8320 C   0  0  0  0  0  0  0  0  0  0  0  0
  141.9940   76.6030  218.7310 C   0  0  0  0  0  0  0  0  0  0  0  0
  141.6610   77.1970  220.0550 C   0  0  1  0  0  0  0  0  0  0  0  0
  141.8260   78.6690  220.1480 C   0  0  0  0  0  0  0  0  0  0  0  0
  141.3820   79.2090  221.4590 C   0  0  0  0  0  0  0  0  0  0  0  0
  140.4840   80.2820  221.4840 C   0  0  0  0  0  0  0  0  0  0  0  0
  140.0440   80.8180  222.6870 C   0  0  0  0  0  0  0  0  0  0  0  0
  140.4960   80.2900  223.8460 N   0  0  0  0  0  0  0  0  0  0  0  0
  141.3600   79.2600  223.8830 C   0  0  0  0  0  0  0  0  0  0  0  0
  141.7950   78.7270  222.6680 C   0  0  0  0  0  0  0  0  0  0  0  0
  140.1090   71.3910  223.3910 C   0  0  0  0  0  0  0  0  0  0  0  0
  139.5250   70.1310  223.3020 C   0  0  0  0  0  0  0  0  0  0  0  0
  139.3890   69.3550  224.4440 C   0  0  0  0  0  0  0  0  0  0  0  0
  139.8280   69.8150  225.6720 C   0  0  0  0  0  0  0  0  0  0  0  0
  139.6970   69.0490  226.8090 C   0  0  0  0  0  0  0  0  0  0  0  0
  140.1610   69.5810  228.0020 C   0  0  0  0  0  0  0  0  0  0  0  0
  140.0220   68.8090  229.1130 F   0  0  0  0  0  0  0  0  0  0  0  0
  140.7410   70.8340  228.0810 C   0  0  0  0  0  0  0  0  0  0  0  0
  140.8540   71.5710  226.9210 C   0  0  0  0  0  0  0  0  0  0  0  0
  140.4040   71.0830  225.6990 C   0  0  0  0  0  0  0  0  0  0  0  0
  140.5290   71.8270  224.5830 N   0  0  0  0  0  0  0  0  0  0  0  0
  139.5340   74.0360  223.0960 H   0  0  0  0  0  0  0  0  0  0  0  0
  140.9392   74.0870  220.5084 H   0  0  0  0  0  0  0  0  0  0  0  0
  139.1569   74.1739  220.3668 H   0  0  0  0  0  0  0  0  0  0  0  0
  138.3249   76.7310  219.6930 H   0  0  0  0  0  0  0  0  0  0  0  0
  139.0392   78.3582  219.9279 H   0  0  0  0  0  0  0  0  0  0  0  0
  138.8015   77.0555  217.5102 H   0  0  0  0  0  0  0  0  0  0  0  0
  139.9972   78.3774  217.9008 H   0  0  0  0  0  0  0  0  0  0  0  0
  140.4398   75.4031  217.9284 H   0  0  0  0  0  0  0  0  0  0  0  0
  141.1412   76.6867  216.8162 H   0  0  0  0  0  0  0  0  0  0  0  0
  142.4450   75.6134  218.8965 H   0  0  0  0  0  0  0  0  0  0  0  0
  142.6846   77.2965  218.2289 H   0  0  0  0  0  0  0  0  0  0  0  0
  142.3908   76.8496  220.8011 H   0  0  0  0  0  0  0  0  0  0  0  0
  142.8889   78.9145  220.0069 H   0  0  0  0  0  0  0  0  0  0  0  0
  141.1988   79.1258  219.3683 H   0  0  0  0  0  0  0  0  0  0  0  0
  140.1213   80.7071  220.5365 H   0  0  0  0  0  0  0  0  0  0  0  0
  139.3372   81.6608  222.6965 H   0  0  0  0  0  0  0  0  0  0  0  0
  141.7130   78.8502  224.8408 H   0  0  0  0  0  0  0  0  0  0  0  0
  142.5003   77.8830  222.6855 H   0  0  0  0  0  0  0  0  0  0  0  0
  139.1730   69.7522  222.3311 H   0  0  0  0  0  0  0  0  0  0  0  0
  138.9256   68.3600  224.3716 H   0  0  0  0  0  0  0  0  0  0  0  0
  139.2398   68.0492  226.7717 H   0  0  0  0  0  0  0  0  0  0  0  0
  141.1017   71.2312  229.0413 H   0  0  0  0  0  0  0  0  0  0  0  0
  141.3117   72.5703  226.9633 H   0  0  0  0  0  0  0  0  0  0  0  0
  1  2  2  0
  2  3  1  0
  3  4  1  0
  4  5  1  0
  5  6  2  0
  5  7  1  0
  7  8  1  0
  8  9  1  0
  9 10  1  0
 10 11  1  0
 11 12  1  0
 12 13  1  0
 13 14  1  0
 14 15  2  0
 15 16  1  0
 16 17  2  0
 17 18  1  0
 18 19  2  0
  2 20  1  0
 20 21  2  0
 21 22  1  0
 22 23  2  0
 23 24  1  0
 24 25  2  0
 25 26  1  0
 25 27  1  0
 27 28  2  0
 28 29  1  0
 29 30  2  0
 12  7  1  0
 19 14  1  0
 30 20  1  0
 29 23  1  0
  3 31  1  0
  4 32  1  0
  4 33  1  0
  8 34  1  0
  8 35  1  0
  9 36  1  0
  9 37  1  0
 10 38  1  0
 10 39  1  0
 11 40  1  0
 11 41  1  0
 12 42  1  1
 13 43  1  0
 13 44  1  0
 15 45  1  0
 16 46  1  0
 18 47  1  0
 19 48  1  0
 21 49  1  0
 22 50  1  0
 24 51  1  0
 27 52  1  0
 28 53  1  0
M  END
>  <smiles>  (55) 
O=C(NCC(=O)N1CCCCC1Cc1ccncc1)c1ccc2cc(F)ccc2n1

>  <score_type>  (55) 
oracle

>  <origin>  (55) 
autodockgpu

>  <m_score__min__energy>  (55) 
-8.8399999999999999

>  <m_primary>  (55) 
energy

>  <rmsd>  (55) 
1.7320683059127704

>  <m_score__min__rmsd>  (55) 
1.7320683059127704

>  <meeko>  (55) 
{"free_energy": -7.73, "intermolecular_energy": -9.52, "internal_energy": -2.13, "cluster_size": 35, "cluster_id": 2, "rank_in_cluster": 35}

>  <energy>  (55) 
-8.63

>  <cluster_rmsd>  (55) 
0.3

>  <cluster>  (55) 
1

$$$$

     RDKit          3D

 53 56  0  0  0  0  0  0  0  0999 V2000
  140.7290   71.8430  221.1480 O   0  0  0  0  0  0  0  0  0  0  0  0
  140.2130   72.3020  222.1870 C   0  0  0  0  0  0  0  0  0  0  0  0
  139.6860   73.6250  222.2420 N   0  0  0  0  0  0  0  0  0  0  0  0
  139.7650   74.4270  221.0540 C   0  0  0  0  0  0  0  0  0  0  0  0
  140.2190   75.7810  221.4290 C   0  0  0  0  0  0  0  0  0  0  0  0
  140.1940   76.2100  222.6240 O   0  0  0  0  0  0  0  0  0  0  0  0
  140.7030   76.6330  220.3970 N   0  0  0  0  0  0  0  0  0  0  0  0
  139.9690   76.8220  219.1390 C   0  0  0  0  0  0  0  0  0  0  0  0
  140.9500   76.7700  217.9860 C   0  0  0  0  0  0  0  0  0  0  0  0
  142.2560   76.1500  218.3510 C   0  0  0  0  0  0  0  0  0  0  0  0
  142.9110   76.7290  219.5740 C   0  0  0  0  0  0  0  0  0  0  0  0
  141.9500   77.3770  220.5090 C   0  0  1  0  0  0  0  0  0  0  0  0
  141.7840   78.8410  220.3320 C   0  0  0  0  0  0  0  0  0  0  0  0
  141.5820   79.5510  221.6220 C   0  0  0  0  0  0  0  0  0  0  0  0
  142.6690   80.1940  222.2230 C   0  0  0  0  0  0  0  0  0  0  0  0
  142.5240   80.8670  223.4290 C   0  0  0  0  0  0  0  0  0  0  0  0
  141.3120   80.8960  224.0240 N   0  0  0  0  0  0  0  0  0  0  0  0
  140.2310   80.2960  223.4940 C   0  0  0  0  0  0  0  0  0  0  0  0
  140.3870   79.6220  222.2800 C   0  0  0  0  0  0  0  0  0  0  0  0
  140.1320   71.4760  223.4080 C   0  0  0  0  0  0  0  0  0  0  0  0
  139.5290   70.2240  223.3290 C   0  0  0  0  0  0  0  0  0  0  0  0
  139.4430   69.4310  224.4640 C   0  0  0  0  0  0  0  0  0  0  0  0
  139.9490   69.8650  225.6750 C   0  0  0  0  0  0  0  0  0  0  0  0
  139.8660   69.0830  226.8050 C   0  0  0  0  0  0  0  0  0  0  0  0
  140.3960   69.5900  227.9810 C   0  0  0  0  0  0  0  0  0  0  0  0
  140.3050   68.8010  229.0850 F   0  0  0  0  0  0  0  0  0  0  0  0
  140.9940   70.8340  228.0510 C   0  0  0  0  0  0  0  0  0  0  0  0
  141.0570   71.5890  226.8980 C   0  0  0  0  0  0  0  0  0  0  0  0
  140.5410   71.1270  225.6930 C   0  0  0  0  0  0  0  0  0  0  0  0
  140.6180   71.8870  224.5840 N   0  0  0  0  0  0  0  0  0  0  0  0
  139.2500   74.0330  223.0960 H   0  0  0  0  0  0  0  0  0  0  0  0
  140.4813   73.9776  220.3504 H   0  0  0  0  0  0  0  0  0  0  0  0
  138.7781   74.4818  220.5713 H   0  0  0  0  0  0  0  0  0  0  0  0
  139.2214   76.0233  219.0241 H   0  0  0  0  0  0  0  0  0  0  0  0
  139.4568   77.7954  219.1490 H   0  0  0  0  0  0  0  0  0  0  0  0
  140.5005   76.1834  217.1712 H   0  0  0  0  0  0  0  0  0  0  0  0
  141.1547   77.8080  217.6850 H   0  0  0  0  0  0  0  0  0  0  0  0
  142.0875   75.0776  218.5288 H   0  0  0  0  0  0  0  0  0  0  0  0
  142.9381   76.3499  217.5115 H   0  0  0  0  0  0  0  0  0  0  0  0
  143.4265   75.9186  220.1102 H   0  0  0  0  0  0  0  0  0  0  0  0
  143.6066   77.5091  219.2312 H   0  0  0  0  0  0  0  0  0  0  0  0
  142.3508   77.3267  221.5322 H   0  0  0  0  0  0  0  0  0  0  0  0
  142.6857   79.2421  219.8460 H   0  0  0  0  0  0  0  0  0  0  0  0
  140.8867   79.0037  219.7169 H   0  0  0  0  0  0  0  0  0  0  0  0
  143.6535   80.1662  221.7331 H   0  0  0  0  0  0  0  0  0  0  0  0
  143.3850   81.3699  223.8936 H   0  0  0  0  0  0  0  0  0  0  0  0
  139.2552   80.3347  224.0002 H   0  0  0  0  0  0  0  0  0  0  0  0
  139.5106   79.1278  221.8354 H   0  0  0  0  0  0  0  0  0  0  0  0
  139.1229   69.8653  222.3717 H   0  0  0  0  0  0  0  0  0  0  0  0
  138.9651   68.4423  224.3994 H   0  0  0  0  0  0  0  0  0  0  0  0
  139.3950   68.0894  226.7755 H   0  0  0  0  0  0  0  0  0  0  0  0
  141.4075   71.2110  228.9980 H   0  0  0  0  0  0  0  0  0  0  0  0
  141.5279   72.5825  226.9333 H   0  0  0  0  0  0  0  0  0  0  0  0
  1  2  2  0
  2  3  1  0
  3  4  1  0
  4  5  1  0
  5  6  2  0
  5  7  1  0
  7  8  1  0
  8  9  1  0
  9 10  1  0
 10 11  1  0
 11 12  1  0
 12 13  1  0
 13 14  1  0
 14 15  2  0
 15 16  1  0
 16 17  2  0
 17 18  1  0
 18 19  2  0
  2 20  1  0
 20 21  2  0
 21 22  1  0
 22 23  2  0
 23 24  1  0
 24 25  2  0
 25 26  1  0
 25 27  1  0
 27 28  2  0
 28 29  1  0
 29 30  2  0
 12  7  1  0
 19 14  1  0
 30 20  1  0
 29 23  1  0
  3 31  1  0
  4 32  1  0
  4 33  1  0
  8 34  1  0
  8 35  1  0
  9 36  1  0
  9 37  1  0
 10 38  1  0
 10 39  1  0
 11 40  1  0
 11 41  1  0
 12 42  1  1
 13 43  1  0
 13 44  1  0
 15 45  1  0
 16 46  1  0
 18 47  1  0
 19 48  1  0
 21 49  1  0
 22 50  1  0
 24 51  1  0
 27 52  1  0
 28 53  1  0
M  END
>  <smiles>  (56) 
O=C(NCC(=O)N1CCCCC1Cc1ccncc1)c1ccc2cc(F)ccc2n1

>  <score_type>  (56) 
oracle

>  <origin>  (56) 
autodockgpu

>  <m_score__min__energy>  (56) 
-8.8399999999999999

>  <m_primary>  (56) 
energy

>  <rmsd>  (56) 
1.631262061962302

>  <m_score__min__rmsd>  (56) 
1.631262061962302

>  <meeko>  (56) 
{"free_energy": -8.39, "intermolecular_energy": -10.18, "internal_energy": -1.78, "cluster_size": 35, "cluster_id": 2, "rank_in_cluster": 17}

>  <energy>  (56) 
-8.35

>  <cluster_rmsd>  (56) 
1.12

>  <cluster>  (56) 
1

$$$$

     RDKit          3D

 53 56  0  0  0  0  0  0  0  0999 V2000
  140.2440   71.0330  221.2550 O   0  0  0  0  0  0  0  0  0  0  0  0
  140.0790   71.5990  222.3540 C   0  0  0  0  0  0  0  0  0  0  0  0
  139.9420   73.0140  222.4570 N   0  0  0  0  0  0  0  0  0  0  0  0
  139.9990   73.7830  221.2460 C   0  0  0  0  0  0  0  0  0  0  0  0
  139.9150   75.2150  221.5940 C   0  0  0  0  0  0  0  0  0  0  0  0
  139.4840   75.6290  222.7140 O   0  0  0  0  0  0  0  0  0  0  0  0
  140.3400   76.1640  220.6220 N   0  0  0  0  0  0  0  0  0  0  0  0
  139.7340   76.2300  219.2860 C   0  0  0  0  0  0  0  0  0  0  0  0
  140.8310   76.3910  218.2550 C   0  0  0  0  0  0  0  0  0  0  0  0
  142.1830   76.0300  218.7720 C   0  0  0  0  0  0  0  0  0  0  0  0
  142.5670   76.7010  220.0610 C   0  0  0  0  0  0  0  0  0  0  0  0
  141.3970   77.1330  220.8750 C   0  0  1  0  0  0  0  0  0  0  0  0
  140.9710   78.5410  220.6740 C   0  0  0  0  0  0  0  0  0  0  0  0
  141.4640   79.4430  221.7470 C   0  0  0  0  0  0  0  0  0  0  0  0
  141.3350   80.8270  221.5850 C   0  0  0  0  0  0  0  0  0  0  0  0
  141.7840   81.7060  222.5620 C   0  0  0  0  0  0  0  0  0  0  0  0
  142.3540   81.2080  223.6810 N   0  0  0  0  0  0  0  0  0  0  0  0
  142.5050   79.8890  223.8910 C   0  0  0  0  0  0  0  0  0  0  0  0
  142.0490   79.0130  222.9040 C   0  0  0  0  0  0  0  0  0  0  0  0
  140.0190   70.8070  223.5990 C   0  0  0  0  0  0  0  0  0  0  0  0
  139.3810   69.5710  223.5740 C   0  0  0  0  0  0  0  0  0  0  0  0
  139.3130   68.8100  224.7320 C   0  0  0  0  0  0  0  0  0  0  0  0
  139.8730   69.2610  225.9130 C   0  0  0  0  0  0  0  0  0  0  0  0
  139.8090   68.5100  227.0660 C   0  0  0  0  0  0  0  0  0  0  0  0
  140.3930   69.0320  228.2090 C   0  0  0  0  0  0  0  0  0  0  0  0
  140.3200   68.2750  229.3360 F   0  0  0  0  0  0  0  0  0  0  0  0
  141.0270   70.2610  228.2250 C   0  0  0  0  0  0  0  0  0  0  0  0
  141.0690   70.9840  227.0510 C   0  0  0  0  0  0  0  0  0  0  0  0
  140.4990   70.5050  225.8770 C   0  0  0  0  0  0  0  0  0  0  0  0
  140.5570   71.2340  224.7460 N   0  0  0  0  0  0  0  0  0  0  0  0
  139.8030   73.5100  223.3630 H   0  0  0  0  0  0  0  0  0  0  0  0
  140.9466   73.5832  220.7243 H   0  0  0  0  0  0  0  0  0  0  0  0
  139.1639   73.5068  220.5854 H   0  0  0  0  0  0  0  0  0  0  0  0
  139.1751   75.3034  219.0883 H   0  0  0  0  0  0  0  0  0  0  0  0
  139.0447   77.0856  219.2322 H   0  0  0  0  0  0  0  0  0  0  0  0
  140.6010   75.7433  217.3962 H   0  0  0  0  0  0  0  0  0  0  0  0
  140.8620   77.4543  217.9750 H   0  0  0  0  0  0  0  0  0  0  0  0
  142.2084   74.9420  218.9322 H   0  0  0  0  0  0  0  0  0  0  0  0
  142.9046   76.3756  218.0171 H   0  0  0  0  0  0  0  0  0  0  0  0
  143.1646   75.9954  220.6567 H   0  0  0  0  0  0  0  0  0  0  0  0
  143.1325   77.6074  219.7991 H   0  0  0  0  0  0  0  0  0  0  0  0
  141.6794   77.1420  221.9381 H   0  0  0  0  0  0  0  0  0  0  0  0
  141.3630   78.8938  219.7087 H   0  0  0  0  0  0  0  0  0  0  0  0
  139.8715   78.5642  220.6966 H   0  0  0  0  0  0  0  0  0  0  0  0
  140.8711   81.2246  220.6703 H   0  0  0  0  0  0  0  0  0  0  0  0
  141.6770   82.7924  222.4266 H   0  0  0  0  0  0  0  0  0  0  0  0
  142.9733   79.5114  224.8119 H   0  0  0  0  0  0  0  0  0  0  0  0
  142.1657   77.9311  223.0649 H   0  0  0  0  0  0  0  0  0  0  0  0
  138.9328   69.1990  222.6409 H   0  0  0  0  0  0  0  0  0  0  0  0
  138.8063   67.8339  224.7103 H   0  0  0  0  0  0  0  0  0  0  0  0
  139.3112   67.5292  227.0789 H   0  0  0  0  0  0  0  0  0  0  0  0
  141.4842   70.6504  229.1466 H   0  0  0  0  0  0  0  0  0  0  0  0
  141.5665   71.9651  227.0435 H   0  0  0  0  0  0  0  0  0  0  0  0
  1  2  2  0
  2  3  1  0
  3  4  1  0
  4  5  1  0
  5  6  2  0
  5  7  1  0
  7  8  1  0
  8  9  1  0
  9 10  1  0
 10 11  1  0
 11 12  1  0
 12 13  1  0
 13 14  1  0
 14 15  2  0
 15 16  1  0
 16 17  2  0
 17 18  1  0
 18 19  2  0
  2 20  1  0
 20 21  2  0
 21 22  1  0
 22 23  2  0
 23 24  1  0
 24 25  2  0
 25 26  1  0
 25 27  1  0
 27 28  2  0
 28 29  1  0
 29 30  2  0
 12  7  1  0
 19 14  1  0
 30 20  1  0
 29 23  1  0
  3 31  1  0
  4 32  1  0
  4 33  1  0
  8 34  1  0
  8 35  1  0
  9 36  1  0
  9 37  1  0
 10 38  1  0
 10 39  1  0
 11 40  1  0
 11 41  1  0
 12 42  1  1
 13 43  1  0
 13 44  1  0
 15 45  1  0
 16 46  1  0
 18 47  1  0
 19 48  1  0
 21 49  1  0
 22 50  1  0
 24 51  1  0
 27 52  1  0
 28 53  1  0
M  END
>  <smiles>  (57) 
O=C(NCC(=O)N1CCCCC1Cc1ccncc1)c1ccc2cc(F)ccc2n1

>  <score_type>  (57) 
oracle

>  <origin>  (57) 
autodockgpu

>  <m_score__min__energy>  (57) 
-8.8399999999999999

>  <m_primary>  (57) 
energy

>  <rmsd>  (57) 
1.479547373629673

>  <m_score__min__rmsd>  (57) 
1.479547373629673

>  <meeko>  (57) 
{"free_energy": -8.3, "intermolecular_energy": -10.09, "internal_energy": -1.91, "cluster_size": 35, "cluster_id": 2, "rank_in_cluster": 23}

>  <energy>  (57) 
-8.0

>  <cluster_rmsd>  (57) 
0.66

>  <cluster>  (57) 
1

$$$$

     RDKit          3D

 53 56  0  0  0  0  0  0  0  0999 V2000
  140.1660   71.6240  221.0560 O   0  0  0  0  0  0  0  0  0  0  0  0
  139.9660   72.1530  222.1680 C   0  0  0  0  0  0  0  0  0  0  0  0
  139.7470   73.5540  222.3050 N   0  0  0  0  0  0  0  0  0  0  0  0
  139.7610   74.3540  221.1120 C   0  0  0  0  0  0  0  0  0  0  0  0
  140.1800   75.7240  221.4700 C   0  0  0  0  0  0  0  0  0  0  0  0
  140.1320   76.1720  222.6570 O   0  0  0  0  0  0  0  0  0  0  0  0
  140.6560   76.5700  220.4290 N   0  0  0  0  0  0  0  0  0  0  0  0
  139.9750   76.6620  219.1310 C   0  0  0  0  0  0  0  0  0  0  0  0
  141.0120   76.6360  218.0280 C   0  0  0  0  0  0  0  0  0  0  0  0
  142.3380   76.1220  218.4780 C   0  0  0  0  0  0  0  0  0  0  0  0
  142.8910   76.7880  219.7070 C   0  0  0  0  0  0  0  0  0  0  0  0
  141.8440   77.4010  220.5700 C   0  0  1  0  0  0  0  0  0  0  0  0
  141.5890   78.8430  220.3280 C   0  0  0  0  0  0  0  0  0  0  0  0
  141.7910   79.6690  221.5460 C   0  0  0  0  0  0  0  0  0  0  0  0
  141.3550   80.9990  221.5480 C   0  0  0  0  0  0  0  0  0  0  0  0
  141.5250   81.8060  222.6650 C   0  0  0  0  0  0  0  0  0  0  0  0
  142.1210   81.2910  223.7630 N   0  0  0  0  0  0  0  0  0  0  0  0
  142.5590   80.0210  223.8200 C   0  0  0  0  0  0  0  0  0  0  0  0
  142.3830   79.2170  222.6920 C   0  0  0  0  0  0  0  0  0  0  0  0
  139.9520   71.3290  223.3930 C   0  0  0  0  0  0  0  0  0  0  0  0
  139.4430   70.0360  223.3220 C   0  0  0  0  0  0  0  0  0  0  0  0
  139.4190   69.2440  224.4610 C   0  0  0  0  0  0  0  0  0  0  0  0
  139.8960   69.7210  225.6690 C   0  0  0  0  0  0  0  0  0  0  0  0
  139.8750   68.9390  226.8030 C   0  0  0  0  0  0  0  0  0  0  0  0
  140.3700   69.4900  227.9740 C   0  0  0  0  0  0  0  0  0  0  0  0
  140.3410   68.7030  229.0820 F   0  0  0  0  0  0  0  0  0  0  0  0
  140.8740   70.7770  228.0360 C   0  0  0  0  0  0  0  0  0  0  0  0
  140.8770   71.5280  226.8790 C   0  0  0  0  0  0  0  0  0  0  0  0
  140.3920   71.0230  225.6780 C   0  0  0  0  0  0  0  0  0  0  0  0
  140.4090   71.7810  224.5650 N   0  0  0  0  0  0  0  0  0  0  0  0
  139.5780   74.0200  223.2210 H   0  0  0  0  0  0  0  0  0  0  0  0
  140.4699   73.9269  220.3874 H   0  0  0  0  0  0  0  0  0  0  0  0
  138.7584   74.3731  220.6598 H   0  0  0  0  0  0  0  0  0  0  0  0
  139.2894   75.8100  219.0129 H   0  0  0  0  0  0  0  0  0  0  0  0
  139.3996   77.5980  219.0785 H   0  0  0  0  0  0  0  0  0  0  0  0
  140.6437   75.9900  217.2175 H   0  0  0  0  0  0  0  0  0  0  0  0
  141.1603   77.6739  217.6952 H   0  0  0  0  0  0  0  0  0  0  0  0
  142.2342   75.0474  218.6890 H   0  0  0  0  0  0  0  0  0  0  0  0
  143.0455   76.3396  217.6643 H   0  0  0  0  0  0  0  0  0  0  0  0
  143.4326   76.0347  220.2979 H   0  0  0  0  0  0  0  0  0  0  0  0
  143.5485   77.6017  219.3670 H   0  0  0  0  0  0  0  0  0  0  0  0
  142.1966   77.4142  221.6119 H   0  0  0  0  0  0  0  0  0  0  0  0
  142.2758   79.1960  219.5446 H   0  0  0  0  0  0  0  0  0  0  0  0
  140.5377   78.9497  220.0226 H   0  0  0  0  0  0  0  0  0  0  0  0
  140.8702   81.4113  220.6508 H   0  0  0  0  0  0  0  0  0  0  0  0
  141.1793   82.8502  222.6562 H   0  0  0  0  0  0  0  0  0  0  0  0
  143.0410   79.6276  224.7271 H   0  0  0  0  0  0  0  0  0  0  0  0
  142.7358   78.1757  222.7272 H   0  0  0  0  0  0  0  0  0  0  0  0
  139.0616   69.6437  222.3678 H   0  0  0  0  0  0  0  0  0  0  0  0
  139.0151   68.2225  224.4028 H   0  0  0  0  0  0  0  0  0  0  0  0
  139.4791   67.9130  226.7796 H   0  0  0  0  0  0  0  0  0  0  0  0
  141.2607   71.1890  228.9797 H   0  0  0  0  0  0  0  0  0  0  0  0
  141.2736   72.5536  226.9074 H   0  0  0  0  0  0  0  0  0  0  0  0
  1  2  2  0
  2  3  1  0
  3  4  1  0
  4  5  1  0
  5  6  2  0
  5  7  1  0
  7  8  1  0
  8  9  1  0
  9 10  1  0
 10 11  1  0
 11 12  1  0
 12 13  1  0
 13 14  1  0
 14 15  2  0
 15 16  1  0
 16 17  2  0
 17 18  1  0
 18 19  2  0
  2 20  1  0
 20 21  2  0
 21 22  1  0
 22 23  2  0
 23 24  1  0
 24 25  2  0
 25 26  1  0
 25 27  1  0
 27 28  2  0
 28 29  1  0
 29 30  2  0
 12  7  1  0
 19 14  1  0
 30 20  1  0
 29 23  1  0
  3 31  1  0
  4 32  1  0
  4 33  1  0
  8 34  1  0
  8 35  1  0
  9 36  1  0
  9 37  1  0
 10 38  1  0
 10 39  1  0
 11 40  1  0
 11 41  1  0
 12 42  1  1
 13 43  1  0
 13 44  1  0
 15 45  1  0
 16 46  1  0
 18 47  1  0
 19 48  1  0
 21 49  1  0
 22 50  1  0
 24 51  1  0
 27 52  1  0
 28 53  1  0
M  END
>  <smiles>  (58) 
O=C(NCC(=O)N1CCCCC1Cc1ccncc1)c1ccc2cc(F)ccc2n1

>  <score_type>  (58) 
oracle

>  <origin>  (58) 
autodockgpu

>  <m_score__min__energy>  (58) 
-8.8399999999999999

>  <m_primary>  (58) 
energy

>  <rmsd>  (58) 
1.538167203444475

>  <m_score__min__rmsd>  (58) 
1.538167203444475

>  <meeko>  (58) 
{"free_energy": -8.51, "intermolecular_energy": -10.3, "internal_energy": -1.92, "cluster_size": 35, "cluster_id": 2, "rank_in_cluster": 9}

>  <energy>  (58) 
-7.44

>  <cluster_rmsd>  (58) 
0.86

>  <cluster>  (58) 
1

$$$$

     RDKit          3D

 53 56  0  0  0  0  0  0  0  0999 V2000
  141.0850   71.5140  221.4060 O   0  0  0  0  0  0  0  0  0  0  0  0
  140.4990   72.0620  222.3610 C   0  0  0  0  0  0  0  0  0  0  0  0
  140.0680   73.4190  222.3000 N   0  0  0  0  0  0  0  0  0  0  0  0
  140.3300   74.1510  221.0930 C   0  0  0  0  0  0  0  0  0  0  0  0
  140.1270   75.5880  221.3600 C   0  0  0  0  0  0  0  0  0  0  0  0
  139.6160   76.0230  222.4380 O   0  0  0  0  0  0  0  0  0  0  0  0
  140.5250   76.5170  220.3580 N   0  0  0  0  0  0  0  0  0  0  0  0
  139.6490   76.8660  219.2320 C   0  0  0  0  0  0  0  0  0  0  0  0
  140.4680   76.8860  217.9580 C   0  0  0  0  0  0  0  0  0  0  0  0
  141.7720   76.1720  218.0860 C   0  0  0  0  0  0  0  0  0  0  0  0
  142.6110   76.5920  219.2600 C   0  0  0  0  0  0  0  0  0  0  0  0
  141.8180   77.1860  220.3720 C   0  0  1  0  0  0  0  0  0  0  0  0
  141.7190   78.6670  220.3580 C   0  0  0  0  0  0  0  0  0  0  0  0
  141.7660   79.2530  221.7220 C   0  0  0  0  0  0  0  0  0  0  0  0
  142.1270   80.5970  221.8740 C   0  0  0  0  0  0  0  0  0  0  0  0
  142.1850   81.1840  223.1310 C   0  0  0  0  0  0  0  0  0  0  0  0
  141.8870   80.4390  224.2180 N   0  0  0  0  0  0  0  0  0  0  0  0
  141.5340   79.1450  224.1340 C   0  0  0  0  0  0  0  0  0  0  0  0
  141.4780   78.5630  222.8660 C   0  0  0  0  0  0  0  0  0  0  0  0
  140.2300   71.3070  223.6020 C   0  0  0  0  0  0  0  0  0  0  0  0
  139.5440   70.1000  223.5140 C   0  0  0  0  0  0  0  0  0  0  0  0
  139.2800   69.3750  224.6680 C   0  0  0  0  0  0  0  0  0  0  0  0
  139.6900   69.8340  225.9060 C   0  0  0  0  0  0  0  0  0  0  0  0
  139.4320   69.1190  227.0540 C   0  0  0  0  0  0  0  0  0  0  0  0
  139.8750   69.6470  228.2560 C   0  0  0  0  0  0  0  0  0  0  0  0
  139.6100   68.9260  229.3780 F   0  0  0  0  0  0  0  0  0  0  0  0
  140.5560   70.8480  228.3340 C   0  0  0  0  0  0  0  0  0  0  0  0
  140.7960   71.5360  227.1630 C   0  0  0  0  0  0  0  0  0  0  0  0
  140.3720   71.0490  225.9300 C   0  0  0  0  0  0  0  0  0  0  0  0
  140.6220   71.7430  224.8040 N   0  0  0  0  0  0  0  0  0  0  0  0
  139.5770   73.8990  223.0830 H   0  0  0  0  0  0  0  0  0  0  0  0
  141.3675   73.9768  220.7718 H   0  0  0  0  0  0  0  0  0  0  0  0
  139.6493   73.8172  220.2960 H   0  0  0  0  0  0  0  0  0  0  0  0
  138.8470   76.1184  219.1432 H   0  0  0  0  0  0  0  0  0  0  0  0
  139.2019   77.8565  219.4020 H   0  0  0  0  0  0  0  0  0  0  0  0
  139.8836   76.4061  217.1592 H   0  0  0  0  0  0  0  0  0  0  0  0
  140.6927   77.9385  217.7304 H   0  0  0  0  0  0  0  0  0  0  0  0
  141.5644   75.0960  218.1819 H   0  0  0  0  0  0  0  0  0  0  0  0
  142.3519   76.4252  217.1862 H   0  0  0  0  0  0  0  0  0  0  0  0
  143.1413   75.7079  219.6436 H   0  0  0  0  0  0  0  0  0  0  0  0
  143.3024   77.3695  218.9031 H   0  0  0  0  0  0  0  0  0  0  0  0
  142.3427   77.0128  221.3232 H   0  0  0  0  0  0  0  0  0  0  0  0
  142.5572   79.0711  219.7714 H   0  0  0  0  0  0  0  0  0  0  0  0
  140.7488   78.9330  219.9132 H   0  0  0  0  0  0  0  0  0  0  0  0
  142.3683   81.1971  220.9842 H   0  0  0  0  0  0  0  0  0  0  0  0
  142.4696   82.2409  223.2403 H   0  0  0  0  0  0  0  0  0  0  0  0
  141.2965   78.5623  225.0363 H   0  0  0  0  0  0  0  0  0  0  0  0
  141.1899   77.5045  222.7844 H   0  0  0  0  0  0  0  0  0  0  0  0
  139.2126   69.7222  222.5355 H   0  0  0  0  0  0  0  0  0  0  0  0
  138.7366   68.4213  224.5964 H   0  0  0  0  0  0  0  0  0  0  0  0
  138.8925   68.1611  227.0181 H   0  0  0  0  0  0  0  0  0  0  0  0
  140.8966   71.2433  229.3024 H   0  0  0  0  0  0  0  0  0  0  0  0
  141.3360   72.4935  227.2045 H   0  0  0  0  0  0  0  0  0  0  0  0
  1  2  2  0
  2  3  1  0
  3  4  1  0
  4  5  1  0
  5  6  2  0
  5  7  1  0
  7  8  1  0
  8  9  1  0
  9 10  1  0
 10 11  1  0
 11 12  1  0
 12 13  1  0
 13 14  1  0
 14 15  2  0
 15 16  1  0
 16 17  2  0
 17 18  1  0
 18 19  2  0
  2 20  1  0
 20 21  2  0
 21 22  1  0
 22 23  2  0
 23 24  1  0
 24 25  2  0
 25 26  1  0
 25 27  1  0
 27 28  2  0
 28 29  1  0
 29 30  2  0
 12  7  1  0
 19 14  1  0
 30 20  1  0
 29 23  1  0
  3 31  1  0
  4 32  1  0
  4 33  1  0
  8 34  1  0
  8 35  1  0
  9 36  1  0
  9 37  1  0
 10 38  1  0
 10 39  1  0
 11 40  1  0
 11 41  1  0
 12 42  1  1
 13 43  1  0
 13 44  1  0
 15 45  1  0
 16 46  1  0
 18 47  1  0
 19 48  1  0
 21 49  1  0
 22 50  1  0
 24 51  1  0
 27 52  1  0
 28 53  1  0
M  END
>  <smiles>  (59) 
O=C(NCC(=O)N1CCCCC1Cc1ccncc1)c1ccc2cc(F)ccc2n1

>  <score_type>  (59) 
oracle

>  <origin>  (59) 
autodockgpu

>  <m_score__min__energy>  (59) 
-8.8399999999999999

>  <m_primary>  (59) 
energy

>  <rmsd>  (59) 
1.718208732705392

>  <m_score__min__rmsd>  (59) 
1.718208732705392

>  <meeko>  (59) 
{"free_energy": -8.37, "intermolecular_energy": -10.16, "internal_energy": -1.96, "cluster_size": 35, "cluster_id": 2, "rank_in_cluster": 19}

>  <energy>  (59) 
-8.79

>  <cluster_rmsd>  (59) 
0.0

>  <cluster>  (59) 
2

$$$$

     RDKit          3D

 53 56  0  0  0  0  0  0  0  0999 V2000
  140.1200   71.4360  221.0760 O   0  0  0  0  0  0  0  0  0  0  0  0
  139.9310   71.9800  222.1830 C   0  0  0  0  0  0  0  0  0  0  0  0
  139.7280   73.3850  222.3030 N   0  0  0  0  0  0  0  0  0  0  0  0
  139.7460   74.1710  221.1010 C   0  0  0  0  0  0  0  0  0  0  0  0
  140.2000   75.5340  221.4360 C   0  0  0  0  0  0  0  0  0  0  0  0
  140.1700   76.0010  222.6170 O   0  0  0  0  0  0  0  0  0  0  0  0
  140.6940   76.3520  220.3810 N   0  0  0  0  0  0  0  0  0  0  0  0
  139.9740   76.4940  219.1090 C   0  0  0  0  0  0  0  0  0  0  0  0
  140.9680   76.4060  217.9690 C   0  0  0  0  0  0  0  0  0  0  0  0
  142.2720   75.8050  218.3710 C   0  0  0  0  0  0  0  0  0  0  0  0
  142.9100   76.4290  219.5810 C   0  0  0  0  0  0  0  0  0  0  0  0
  141.9370   77.1050  220.4810 C   0  0  1  0  0  0  0  0  0  0  0  0
  141.7670   78.5610  220.2520 C   0  0  0  0  0  0  0  0  0  0  0  0
  141.6340   79.3250  221.5190 C   0  0  0  0  0  0  0  0  0  0  0  0
  140.4750   79.1690  222.2890 C   0  0  0  0  0  0  0  0  0  0  0  0
  140.3090   79.8640  223.4790 C   0  0  0  0  0  0  0  0  0  0  0  0
  141.2850   80.7030  223.8920 N   0  0  0  0  0  0  0  0  0  0  0  0
  142.4180   80.8930  223.1950 C   0  0  0  0  0  0  0  0  0  0  0  0
  142.5780   80.1880  222.0000 C   0  0  0  0  0  0  0  0  0  0  0  0
  139.9130   71.1710  223.4180 C   0  0  0  0  0  0  0  0  0  0  0  0
  139.3510   69.8990  223.3750 C   0  0  0  0  0  0  0  0  0  0  0  0
  139.3230   69.1220  224.5240 C   0  0  0  0  0  0  0  0  0  0  0  0
  139.8480   69.5930  225.7140 C   0  0  0  0  0  0  0  0  0  0  0  0
  139.8240   68.8260  226.8580 C   0  0  0  0  0  0  0  0  0  0  0  0
  140.3700   69.3690  228.0090 C   0  0  0  0  0  0  0  0  0  0  0  0
  140.3360   68.5960  229.1280 F   0  0  0  0  0  0  0  0  0  0  0  0
  140.9270   70.6340  228.0430 C   0  0  0  0  0  0  0  0  0  0  0  0
  140.9320   71.3720  226.8780 C   0  0  0  0  0  0  0  0  0  0  0  0
  140.3980   70.8730  225.6950 C   0  0  0  0  0  0  0  0  0  0  0  0
  140.4180   71.6170  224.5730 N   0  0  0  0  0  0  0  0  0  0  0  0
  139.5690   73.8640  223.2150 H   0  0  0  0  0  0  0  0  0  0  0  0
  140.4360   73.7191  220.3732 H   0  0  0  0  0  0  0  0  0  0  0  0
  138.7383   74.2082  220.6615 H   0  0  0  0  0  0  0  0  0  0  0  0
  139.2308   75.6887  219.0137 H   0  0  0  0  0  0  0  0  0  0  0  0
  139.4585   77.4653  219.0794 H   0  0  0  0  0  0  0  0  0  0  0  0
  140.5302   75.7890  217.1704 H   0  0  0  0  0  0  0  0  0  0  0  0
  141.1716   77.4335  217.6331 H   0  0  0  0  0  0  0  0  0  0  0  0
  142.1057   74.7387  218.5839 H   0  0  0  0  0  0  0  0  0  0  0  0
  142.9633   75.9789  217.5333 H   0  0  0  0  0  0  0  0  0  0  0  0
  143.4219   75.6397  220.1511 H   0  0  0  0  0  0  0  0  0  0  0  0
  143.6065   77.1997  219.2192 H   0  0  0  0  0  0  0  0  0  0  0  0
  142.3269   77.0925  221.5095 H   0  0  0  0  0  0  0  0  0  0  0  0
  142.6438   78.9365  219.7041 H   0  0  0  0  0  0  0  0  0  0  0  0
  140.8396   78.7027  219.6776 H   0  0  0  0  0  0  0  0  0  0  0  0
  139.6843   78.4856  221.9458 H   0  0  0  0  0  0  0  0  0  0  0  0
  139.3955   79.7338  224.0779 H   0  0  0  0  0  0  0  0  0  0  0  0
  143.1958   81.5827  223.5546 H   0  0  0  0  0  0  0  0  0  0  0  0
  143.5025   80.3335  221.4219 H   0  0  0  0  0  0  0  0  0  0  0  0
  138.9311   69.5115  222.4350 H   0  0  0  0  0  0  0  0  0  0  0  0
  138.8770   68.1171  224.4882 H   0  0  0  0  0  0  0  0  0  0  0  0
  139.3862   67.8169  226.8573 H   0  0  0  0  0  0  0  0  0  0  0  0
  141.3537   71.0399  228.9721 H   0  0  0  0  0  0  0  0  0  0  0  0
  141.3696   72.3812  226.8848 H   0  0  0  0  0  0  0  0  0  0  0  0
  1  2  2  0
  2  3  1  0
  3  4  1  0
  4  5  1  0
  5  6  2  0
  5  7  1  0
  7  8  1  0
  8  9  1  0
  9 10  1  0
 10 11  1  0
 11 12  1  0
 12 13  1  0
 13 14  1  0
 14 15  2  0
 15 16  1  0
 16 17  2  0
 17 18  1  0
 18 19  2  0
  2 20  1  0
 20 21  2  0
 21 22  1  0
 22 23  2  0
 23 24  1  0
 24 25  2  0
 25 26  1  0
 25 27  1  0
 27 28  2  0
 28 29  1  0
 29 30  2  0
 12  7  1  0
 19 14  1  0
 30 20  1  0
 29 23  1  0
  3 31  1  0
  4 32  1  0
  4 33  1  0
  8 34  1  0
  8 35  1  0
  9 36  1  0
  9 37  1  0
 10 38  1  0
 10 39  1  0
 11 40  1  0
 11 41  1  0
 12 42  1  1
 13 43  1  0
 13 44  1  0
 15 45  1  0
 16 46  1  0
 18 47  1  0
 19 48  1  0
 21 49  1  0
 22 50  1  0
 24 51  1  0
 27 52  1  0
 28 53  1  0
M  END
>  <smiles>  (60) 
O=C(NCC(=O)N1CCCCC1Cc1ccncc1)c1ccc2cc(F)ccc2n1

>  <score_type>  (60) 
oracle

>  <origin>  (60) 
autodockgpu

>  <m_score__min__energy>  (60) 
-8.8399999999999999

>  <m_primary>  (60) 
energy

>  <rmsd>  (60) 
1.4479875830402527

>  <m_score__min__rmsd>  (60) 
1.4479875830402527

>  <meeko>  (60) 
{"free_energy": -8.27, "intermolecular_energy": -10.06, "internal_energy": -1.97, "cluster_size": 35, "cluster_id": 2, "rank_in_cluster": 24}

>  <energy>  (60) 
-8.72

>  <cluster_rmsd>  (60) 
0.1

>  <cluster>  (60) 
2

$$$$

     RDKit          3D

 53 56  0  0  0  0  0  0  0  0999 V2000
  139.7550   70.9310  221.1840 O   0  0  0  0  0  0  0  0  0  0  0  0
  139.7000   71.4900  222.2980 C   0  0  0  0  0  0  0  0  0  0  0  0
  139.6090   72.9060  222.4240 N   0  0  0  0  0  0  0  0  0  0  0  0
  139.5820   73.6860  221.2190 C   0  0  0  0  0  0  0  0  0  0  0  0
  139.8440   75.0970  221.5650 C   0  0  0  0  0  0  0  0  0  0  0  0
  139.6240   75.5760  222.7210 O   0  0  0  0  0  0  0  0  0  0  0  0
  140.3660   75.9480  220.5510 N   0  0  0  0  0  0  0  0  0  0  0  0
  139.6520   76.1780  219.2880 C   0  0  0  0  0  0  0  0  0  0  0  0
  140.6430   76.1110  218.1440 C   0  0  0  0  0  0  0  0  0  0  0  0
  141.9250   75.4440  218.5130 C   0  0  0  0  0  0  0  0  0  0  0  0
  142.5840   75.9840  219.7520 C   0  0  0  0  0  0  0  0  0  0  0  0
  141.6350   76.6490  220.6860 C   0  0  1  0  0  0  0  0  0  0  0  0
  141.5190   78.1200  220.5290 C   0  0  0  0  0  0  0  0  0  0  0  0
  141.7320   78.8480  221.8070 C   0  0  0  0  0  0  0  0  0  0  0  0
  142.2030   80.1650  221.7700 C   0  0  0  0  0  0  0  0  0  0  0  0
  142.4180   80.8800  222.9400 C   0  0  0  0  0  0  0  0  0  0  0  0
  142.1670   80.2880  224.1280 N   0  0  0  0  0  0  0  0  0  0  0  0
  141.7140   79.0260  224.2250 C   0  0  0  0  0  0  0  0  0  0  0  0
  141.5000   78.3140  223.0430 C   0  0  0  0  0  0  0  0  0  0  0  0
  139.7270   70.6860  223.5370 C   0  0  0  0  0  0  0  0  0  0  0  0
  139.1610   69.4160  223.5220 C   0  0  0  0  0  0  0  0  0  0  0  0
  139.1750   68.6440  224.6750 C   0  0  0  0  0  0  0  0  0  0  0  0
  139.7470   69.1180  225.8410 C   0  0  0  0  0  0  0  0  0  0  0  0
  139.7640   68.3570  226.9880 C   0  0  0  0  0  0  0  0  0  0  0  0
  140.3550   68.9040  228.1160 C   0  0  0  0  0  0  0  0  0  0  0  0
  140.3630   68.1360  229.2380 F   0  0  0  0  0  0  0  0  0  0  0  0
  140.9170   70.1670  228.1220 C   0  0  0  0  0  0  0  0  0  0  0  0
  140.8790   70.9000  226.9540 C   0  0  0  0  0  0  0  0  0  0  0  0
  140.2980   70.3970  225.7950 C   0  0  0  0  0  0  0  0  0  0  0  0
  140.2770   71.1360  224.6700 N   0  0  0  0  0  0  0  0  0  0  0  0
  139.5620   73.3970  223.3420 H   0  0  0  0  0  0  0  0  0  0  0  0
  140.3562   73.3245  220.5262 H   0  0  0  0  0  0  0  0  0  0  0  0
  138.5989   73.5944  220.7341 H   0  0  0  0  0  0  0  0  0  0  0  0
  138.8807   75.4052  219.1540 H   0  0  0  0  0  0  0  0  0  0  0  0
  139.1712   77.1672  219.3068 H   0  0  0  0  0  0  0  0  0  0  0  0
  140.1835   75.5509  217.3163 H   0  0  0  0  0  0  0  0  0  0  0  0
  140.8839   77.1461  217.8603 H   0  0  0  0  0  0  0  0  0  0  0  0
  141.7208   74.3749  218.6725 H   0  0  0  0  0  0  0  0  0  0  0  0
  142.6224   75.6342  217.6839 H   0  0  0  0  0  0  0  0  0  0  0  0
  143.0670   75.1496  220.2816 H   0  0  0  0  0  0  0  0  0  0  0  0
  143.3077   76.7464  219.4281 H   0  0  0  0  0  0  0  0  0  0  0  0
  142.0228   76.5707  221.7124 H   0  0  0  0  0  0  0  0  0  0  0  0
  142.2717   78.4574  219.8013 H   0  0  0  0  0  0  0  0  0  0  0  0
  140.4972   78.3397  220.1859 H   0  0  0  0  0  0  0  0  0  0  0  0
  142.4059   80.6408  220.7992 H   0  0  0  0  0  0  0  0  0  0  0  0
  142.7879   81.9152  222.9004 H   0  0  0  0  0  0  0  0  0  0  0  0
  141.5179   78.5681  225.2058 H   0  0  0  0  0  0  0  0  0  0  0  0
  141.1293   77.2805  223.1098 H   0  0  0  0  0  0  0  0  0  0  0  0
  138.7044   69.0252  222.6007 H   0  0  0  0  0  0  0  0  0  0  0  0
  138.7246   67.6405  224.6611 H   0  0  0  0  0  0  0  0  0  0  0  0
  139.3236   67.3492  227.0086 H   0  0  0  0  0  0  0  0  0  0  0  0
  141.3811   70.5756  229.0318 H   0  0  0  0  0  0  0  0  0  0  0  0
  141.3194   71.9079  226.9390 H   0  0  0  0  0  0  0  0  0  0  0  0
  1  2  2  0
  2  3  1  0
  3  4  1  0
  4  5  1  0
  5  6  2  0
  5  7  1  0
  7  8  1  0
  8  9  1  0
  9 10  1  0
 10 11  1  0
 11 12  1  0
 12 13  1  0
 13 14  1  0
 14 15  2  0
 15 16  1  0
 16 17  2  0
 17 18  1  0
 18 19  2  0
  2 20  1  0
 20 21  2  0
 21 22  1  0
 22 23  2  0
 23 24  1  0
 24 25  2  0
 25 26  1  0
 25 27  1  0
 27 28  2  0
 28 29  1  0
 29 30  2  0
 12  7  1  0
 19 14  1  0
 30 20  1  0
 29 23  1  0
  3 31  1  0
  4 32  1  0
  4 33  1  0
  8 34  1  0
  8 35  1  0
  9 36  1  0
  9 37  1  0
 10 38  1  0
 10 39  1  0
 11 40  1  0
 11 41  1  0
 12 42  1  1
 13 43  1  0
 13 44  1  0
 15 45  1  0
 16 46  1  0
 18 47  1  0
 19 48  1  0
 21 49  1  0
 22 50  1  0
 24 51  1  0
 27 52  1  0
 28 53  1  0
M  END
>  <smiles>  (61) 
O=C(NCC(=O)N1CCCCC1Cc1ccncc1)c1ccc2cc(F)ccc2n1

>  <score_type>  (61) 
oracle

>  <origin>  (61) 
autodockgpu

>  <m_score__min__energy>  (61) 
-8.8399999999999999

>  <m_primary>  (61) 
energy

>  <rmsd>  (61) 
1.315686557985815

>  <m_score__min__rmsd>  (61) 
1.315686557985815

>  <meeko>  (61) 
{"free_energy": -8.4, "intermolecular_energy": -10.19, "internal_energy": -1.96, "cluster_size": 35, "cluster_id": 2, "rank_in_cluster": 16}

>  <energy>  (61) 
-8.66

>  <cluster_rmsd>  (61) 
1.85

>  <cluster>  (61) 
2

$$$$

     RDKit          3D

 53 56  0  0  0  0  0  0  0  0999 V2000
  141.2850   72.0660  221.5000 O   0  0  0  0  0  0  0  0  0  0  0  0
  140.4710   72.3840  222.3900 C   0  0  0  0  0  0  0  0  0  0  0  0
  139.7010   73.5800  222.3100 N   0  0  0  0  0  0  0  0  0  0  0  0
  139.8870   74.4220  221.1620 C   0  0  0  0  0  0  0  0  0  0  0  0
  140.4440   75.7130  221.6100 C   0  0  0  0  0  0  0  0  0  0  0  0
  140.1010   76.2720  222.6980 O   0  0  0  0  0  0  0  0  0  0  0  0
  141.4060   76.3510  220.7770 N   0  0  0  0  0  0  0  0  0  0  0  0
  141.6450   77.7980  220.8370 C   0  0  0  0  0  0  0  0  0  0  0  0
  141.7520   78.3380  219.4260 C   0  0  0  0  0  0  0  0  0  0  0  0
  141.1920   77.4130  218.3980 C   0  0  0  0  0  0  0  0  0  0  0  0
  141.7140   76.0050  218.4650 C   0  0  0  0  0  0  0  0  0  0  0  0
  142.2190   75.6240  219.8120 C   0  0  1  0  0  0  0  0  0  0  0  0
  143.6790   75.8020  220.0150 C   0  0  0  0  0  0  0  0  0  0  0  0
  144.4360   74.5360  219.8390 C   0  0  0  0  0  0  0  0  0  0  0  0
  145.3200   74.1260  220.8440 C   0  0  0  0  0  0  0  0  0  0  0  0
  146.0480   72.9510  220.7200 C   0  0  0  0  0  0  0  0  0  0  0  0
  145.8960   72.1980  219.6080 N   0  0  0  0  0  0  0  0  0  0  0  0
  145.0630   72.5410  218.6110 C   0  0  0  0  0  0  0  0  0  0  0  0
  144.3330   73.7240  218.7450 C   0  0  0  0  0  0  0  0  0  0  0  0
  140.2810   71.5180  223.5710 C   0  0  0  0  0  0  0  0  0  0  0  0
  139.6330   70.2980  223.4060 C   0  0  0  0  0  0  0  0  0  0  0  0
  139.4430   69.4680  224.5020 C   0  0  0  0  0  0  0  0  0  0  0  0
  139.8900   69.8350  225.7580 C   0  0  0  0  0  0  0  0  0  0  0  0
  139.7050   69.0160  226.8490 C   0  0  0  0  0  0  0  0  0  0  0  0
  140.1810   69.4560  228.0740 C   0  0  0  0  0  0  0  0  0  0  0  0
  139.9890   68.6320  229.1390 F   0  0  0  0  0  0  0  0  0  0  0  0
  140.8250   70.6700  228.2290 C   0  0  0  0  0  0  0  0  0  0  0  0
  140.9900   71.4630  227.1130 C   0  0  0  0  0  0  0  0  0  0  0  0
  140.5320   71.0680  225.8610 C   0  0  0  0  0  0  0  0  0  0  0  0
  140.7090   71.8640  224.7890 N   0  0  0  0  0  0  0  0  0  0  0  0
  139.0150   73.8690  223.0390 H   0  0  0  0  0  0  0  0  0  0  0  0
  140.5837   73.9417  220.4592 H   0  0  0  0  0  0  0  0  0  0  0  0
  138.9244   74.5839  220.6549 H   0  0  0  0  0  0  0  0  0  0  0  0
  140.8094   78.2887  221.3575 H   0  0  0  0  0  0  0  0  0  0  0  0
  142.5781   77.9986  221.3839 H   0  0  0  0  0  0  0  0  0  0  0  0
  141.2048   79.2908  219.3740 H   0  0  0  0  0  0  0  0  0  0  0  0
  142.8222   78.4631  219.2044 H   0  0  0  0  0  0  0  0  0  0  0  0
  140.1000   77.3795  218.5265 H   0  0  0  0  0  0  0  0  0  0  0  0
  141.5023   77.8119  217.4210 H   0  0  0  0  0  0  0  0  0  0  0  0
  140.8997   75.3181  218.1911 H   0  0  0  0  0  0  0  0  0  0  0  0
  142.5643   75.9411  217.7700 H   0  0  0  0  0  0  0  0  0  0  0  0
  142.1125   74.5371  219.9434 H   0  0  0  0  0  0  0  0  0  0  0  0
  144.0493   76.5386  219.2868 H   0  0  0  0  0  0  0  0  0  0  0  0
  143.8337   76.1431  221.0493 H   0  0  0  0  0  0  0  0  0  0  0  0
  145.4394   74.7446  221.7457 H   0  0  0  0  0  0  0  0  0  0  0  0
  146.7393   72.6368  221.5159 H   0  0  0  0  0  0  0  0  0  0  0  0
  144.9592   71.9092  217.7165 H   0  0  0  0  0  0  0  0  0  0  0  0
  143.6464   74.0142  217.9360 H   0  0  0  0  0  0  0  0  0  0  0  0
  139.2732   69.9929  222.4123 H   0  0  0  0  0  0  0  0  0  0  0  0
  138.9294   68.5043  224.3696 H   0  0  0  0  0  0  0  0  0  0  0  0
  139.1967   68.0454  226.7518 H   0  0  0  0  0  0  0  0  0  0  0  0
  141.1946   70.9934  229.2133 H   0  0  0  0  0  0  0  0  0  0  0  0
  141.4973   72.4336  227.2160 H   0  0  0  0  0  0  0  0  0  0  0  0
  1  2  2  0
  2  3  1  0
  3  4  1  0
  4  5  1  0
  5  6  2  0
  5  7  1  0
  7  8  1  0
  8  9  1  0
  9 10  1  0
 10 11  1  0
 11 12  1  0
 12 13  1  0
 13 14  1  0
 14 15  2  0
 15 16  1  0
 16 17  2  0
 17 18  1  0
 18 19  2  0
  2 20  1  0
 20 21  2  0
 21 22  1  0
 22 23  2  0
 23 24  1  0
 24 25  2  0
 25 26  1  0
 25 27  1  0
 27 28  2  0
 28 29  1  0
 29 30  2  0
 12  7  1  0
 19 14  1  0
 30 20  1  0
 29 23  1  0
  3 31  1  0
  4 32  1  0
  4 33  1  0
  8 34  1  0
  8 35  1  0
  9 36  1  0
  9 37  1  0
 10 38  1  0
 10 39  1  0
 11 40  1  0
 11 41  1  0
 12 42  1  1
 13 43  1  0
 13 44  1  0
 15 45  1  0
 16 46  1  0
 18 47  1  0
 19 48  1  0
 21 49  1  0
 22 50  1  0
 24 51  1  0
 27 52  1  0
 28 53  1  0
M  END
>  <smiles>  (62) 
O=C(NCC(=O)N1CCCCC1Cc1ccncc1)c1ccc2cc(F)ccc2n1

>  <score_type>  (62) 
oracle

>  <origin>  (62) 
autodockgpu

>  <m_score__min__energy>  (62) 
-8.8399999999999999

>  <m_primary>  (62) 
energy

>  <rmsd>  (62) 
2.4513009160476655

>  <m_score__min__rmsd>  (62) 
2.4513009160476655

>  <meeko>  (62) 
{"free_energy": -8.84, "intermolecular_energy": -10.63, "internal_energy": -1.65, "cluster_size": 8, "cluster_id": 1, "rank_in_cluster": 1}

>  <energy>  (62) 
-8.65

>  <cluster_rmsd>  (62) 
1.87

>  <cluster>  (62) 
2

$$$$

     RDKit          3D

 53 56  0  0  0  0  0  0  0  0999 V2000
  140.7450   71.7000  221.1680 O   0  0  0  0  0  0  0  0  0  0  0  0
  140.2870   72.1780  222.2250 C   0  0  0  0  0  0  0  0  0  0  0  0
  139.8590   73.5350  222.3120 N   0  0  0  0  0  0  0  0  0  0  0  0
  139.9700   74.3490  221.1350 C   0  0  0  0  0  0  0  0  0  0  0  0
  140.4670   75.6820  221.5300 C   0  0  0  0  0  0  0  0  0  0  0  0
  140.0680   76.2860  222.5730 O   0  0  0  0  0  0  0  0  0  0  0  0
  141.4380   76.3060  220.6970 N   0  0  0  0  0  0  0  0  0  0  0  0
  141.6380   77.7610  220.6970 C   0  0  0  0  0  0  0  0  0  0  0  0
  141.7730   78.2390  219.2650 C   0  0  0  0  0  0  0  0  0  0  0  0
  141.2690   77.2530  218.2660 C   0  0  0  0  0  0  0  0  0  0  0  0
  141.8240   75.8630  218.4130 C   0  0  0  0  0  0  0  0  0  0  0  0
  142.2990   75.5580  219.7910 C   0  0  1  0  0  0  0  0  0  0  0  0
  143.7460   75.7850  220.0270 C   0  0  0  0  0  0  0  0  0  0  0  0
  144.5410   74.5330  219.9370 C   0  0  0  0  0  0  0  0  0  0  0  0
  144.3210   73.6630  218.8630 C   0  0  0  0  0  0  0  0  0  0  0  0
  145.0400   72.4820  218.7410 C   0  0  0  0  0  0  0  0  0  0  0  0
  145.9630   72.1750  219.6790 N   0  0  0  0  0  0  0  0  0  0  0  0
  146.2180   72.9720  220.7310 C   0  0  0  0  0  0  0  0  0  0  0  0
  145.4900   74.1590  220.8450 C   0  0  0  0  0  0  0  0  0  0  0  0
  140.1730   71.3390  223.4350 C   0  0  0  0  0  0  0  0  0  0  0  0
  139.5770   70.0870  223.3260 C   0  0  0  0  0  0  0  0  0  0  0  0
  139.4590   69.2820  224.4490 C   0  0  0  0  0  0  0  0  0  0  0  0
  139.9280   69.7050  225.6790 C   0  0  0  0  0  0  0  0  0  0  0  0
  139.8150   68.9110  226.7990 C   0  0  0  0  0  0  0  0  0  0  0  0
  140.3090   69.4070  227.9940 C   0  0  0  0  0  0  0  0  0  0  0  0
  140.1880   68.6070  229.0870 F   0  0  0  0  0  0  0  0  0  0  0  0
  140.9010   70.6530  228.0940 C   0  0  0  0  0  0  0  0  0  0  0  0
  140.9960   71.4190  226.9510 C   0  0  0  0  0  0  0  0  0  0  0  0
  140.5160   70.9680  225.7270 C   0  0  0  0  0  0  0  0  0  0  0  0
  140.6230   71.7400  224.6280 N   0  0  0  0  0  0  0  0  0  0  0  0
  139.4730   73.9580  223.1820 H   0  0  0  0  0  0  0  0  0  0  0  0
  140.6742   73.8852  220.4286 H   0  0  0  0  0  0  0  0  0  0  0  0
  138.9878   74.4428  220.6487 H   0  0  0  0  0  0  0  0  0  0  0  0
  140.7750   78.2522  221.1702 H   0  0  0  0  0  0  0  0  0  0  0  0
  142.5488   78.0116  221.2606 H   0  0  0  0  0  0  0  0  0  0  0  0
  141.2025   79.1728  219.1530 H   0  0  0  0  0  0  0  0  0  0  0  0
  142.8456   78.3837  219.0687 H   0  0  0  0  0  0  0  0  0  0  0  0
  140.1748   77.1962  218.3639 H   0  0  0  0  0  0  0  0  0  0  0  0
  141.5998   77.6148  217.2813 H   0  0  0  0  0  0  0  0  0  0  0  0
  141.0354   75.1430  218.1488 H   0  0  0  0  0  0  0  0  0  0  0  0
  142.6953   75.7892  217.7456 H   0  0  0  0  0  0  0  0  0  0  0  0
  142.2179   74.4757  219.9702 H   0  0  0  0  0  0  0  0  0  0  0  0
  144.1191   76.4946  219.2738 H   0  0  0  0  0  0  0  0  0  0  0  0
  143.8600   76.1805  221.0471 H   0  0  0  0  0  0  0  0  0  0  0  0
  143.5669   73.9190  218.1042 H   0  0  0  0  0  0  0  0  0  0  0  0
  144.8609   71.8053  217.8925 H   0  0  0  0  0  0  0  0  0  0  0  0
  146.9765   72.6981  221.4791 H   0  0  0  0  0  0  0  0  0  0  0  0
  145.6895   74.8196  221.7016 H   0  0  0  0  0  0  0  0  0  0  0  0
  139.2009   69.7370  222.3534 H   0  0  0  0  0  0  0  0  0  0  0  0
  138.9856   68.2931  224.3600 H   0  0  0  0  0  0  0  0  0  0  0  0
  139.3481   67.9164  226.7460 H   0  0  0  0  0  0  0  0  0  0  0  0
  141.2847   71.0221  229.0566 H   0  0  0  0  0  0  0  0  0  0  0  0
  141.4639   72.4128  227.0096 H   0  0  0  0  0  0  0  0  0  0  0  0
  1  2  2  0
  2  3  1  0
  3  4  1  0
  4  5  1  0
  5  6  2  0
  5  7  1  0
  7  8  1  0
  8  9  1  0
  9 10  1  0
 10 11  1  0
 11 12  1  0
 12 13  1  0
 13 14  1  0
 14 15  2  0
 15 16  1  0
 16 17  2  0
 17 18  1  0
 18 19  2  0
  2 20  1  0
 20 21  2  0
 21 22  1  0
 22 23  2  0
 23 24  1  0
 24 25  2  0
 25 26  1  0
 25 27  1  0
 27 28  2  0
 28 29  1  0
 29 30  2  0
 12  7  1  0
 19 14  1  0
 30 20  1  0
 29 23  1  0
  3 31  1  0
  4 32  1  0
  4 33  1  0
  8 34  1  0
  8 35  1  0
  9 36  1  0
  9 37  1  0
 10 38  1  0
 10 39  1  0
 11 40  1  0
 11 41  1  0
 12 42  1  1
 13 43  1  0
 13 44  1  0
 15 45  1  0
 16 46  1  0
 18 47  1  0
 19 48  1  0
 21 49  1  0
 22 50  1  0
 24 51  1  0
 27 52  1  0
 28 53  1  0
M  END
>  <smiles>  (63) 
O=C(NCC(=O)N1CCCCC1Cc1ccncc1)c1ccc2cc(F)ccc2n1

>  <score_type>  (63) 
oracle

>  <origin>  (63) 
autodockgpu

>  <m_score__min__energy>  (63) 
-8.8399999999999999

>  <m_primary>  (63) 
energy

>  <rmsd>  (63) 
2.3851252692788

>  <m_score__min__rmsd>  (63) 
2.3851252692788

>  <meeko>  (63) 
{"free_energy": -8.67, "intermolecular_energy": -10.46, "internal_energy": -1.75, "cluster_size": 8, "cluster_id": 1, "rank_in_cluster": 4}

>  <energy>  (63) 
-8.63

>  <cluster_rmsd>  (63) 
0.4

>  <cluster>  (63) 
2

$$$$

     RDKit          3D

 53 56  0  0  0  0  0  0  0  0999 V2000
  141.1750   71.4380  221.4310 O   0  0  0  0  0  0  0  0  0  0  0  0
  140.5260   71.9280  222.3770 C   0  0  0  0  0  0  0  0  0  0  0  0
  139.9960   73.2490  222.3180 N   0  0  0  0  0  0  0  0  0  0  0  0
  140.2310   74.0140  221.1260 C   0  0  0  0  0  0  0  0  0  0  0  0
  140.4660   75.4200  221.5070 C   0  0  0  0  0  0  0  0  0  0  0  0
  139.9040   75.9680  222.5050 O   0  0  0  0  0  0  0  0  0  0  0  0
  141.3650   76.1860  220.7120 N   0  0  0  0  0  0  0  0  0  0  0  0
  141.5300   77.6320  220.9040 C   0  0  0  0  0  0  0  0  0  0  0  0
  141.5610   78.3080  219.5490 C   0  0  0  0  0  0  0  0  0  0  0  0
  141.0170   77.4540  218.4530 C   0  0  0  0  0  0  0  0  0  0  0  0
  141.6130   76.0770  218.3700 C   0  0  0  0  0  0  0  0  0  0  0  0
  142.1830   75.5990  219.6600 C   0  0  1  0  0  0  0  0  0  0  0  0
  143.6370   75.8380  219.8370 C   0  0  0  0  0  0  0  0  0  0  0  0
  144.4300   74.5820  219.7950 C   0  0  0  0  0  0  0  0  0  0  0  0
  144.3760   73.7810  218.6490 C   0  0  0  0  0  0  0  0  0  0  0  0
  145.0990   72.5980  218.5690 C   0  0  0  0  0  0  0  0  0  0  0  0
  145.8640   72.2240  219.6180 N   0  0  0  0  0  0  0  0  0  0  0  0
  145.9550   72.9530  220.7440 C   0  0  0  0  0  0  0  0  0  0  0  0
  145.2250   74.1410  220.8150 C   0  0  0  0  0  0  0  0  0  0  0  0
  140.2860   71.1410  223.6020 C   0  0  0  0  0  0  0  0  0  0  0  0
  139.5510   69.9630  223.5070 C   0  0  0  0  0  0  0  0  0  0  0  0
  139.3120   69.2080  224.6460 C   0  0  0  0  0  0  0  0  0  0  0  0
  139.7970   69.6080  225.8780 C   0  0  0  0  0  0  0  0  0  0  0  0
  139.5630   68.8620  227.0130 C   0  0  0  0  0  0  0  0  0  0  0  0
  140.0820   69.3310  228.2090 C   0  0  0  0  0  0  0  0  0  0  0  0
  139.8410   68.5800  229.3170 F   0  0  0  0  0  0  0  0  0  0  0  0
  140.8120   70.5020  228.2960 C   0  0  0  0  0  0  0  0  0  0  0  0
  141.0240   71.2210  227.1380 C   0  0  0  0  0  0  0  0  0  0  0  0
  140.5260   70.7950  225.9120 C   0  0  0  0  0  0  0  0  0  0  0  0
  140.7490   71.5190  224.7980 N   0  0  0  0  0  0  0  0  0  0  0  0
  139.4510   73.6820  223.0940 H   0  0  0  0  0  0  0  0  0  0  0  0
  141.1136   73.6200  220.6009 H   0  0  0  0  0  0  0  0  0  0  0  0
  139.3593   73.9465  220.4585 H   0  0  0  0  0  0  0  0  0  0  0  0
  140.6879   78.0245  221.4930 H   0  0  0  0  0  0  0  0  0  0  0  0
  142.4692   77.8313  221.4408 H   0  0  0  0  0  0  0  0  0  0  0  0
  140.9624   79.2292  219.6042 H   0  0  0  0  0  0  0  0  0  0  0  0
  142.6150   78.5135  219.3105 H   0  0  0  0  0  0  0  0  0  0  0  0
  139.9330   77.3486  218.6077 H   0  0  0  0  0  0  0  0  0  0  0  0
  141.2747   77.9595  217.5106 H   0  0  0  0  0  0  0  0  0  0  0  0
  140.8265   75.3753  218.0553 H   0  0  0  0  0  0  0  0  0  0  0  0
  142.4413   76.1254  217.6478 H   0  0  0  0  0  0  0  0  0  0  0  0
  142.1393   74.5003  219.6905 H   0  0  0  0  0  0  0  0  0  0  0  0
  143.9857   76.5023  219.0325 H   0  0  0  0  0  0  0  0  0  0  0  0
  143.7826   76.2919  220.8284 H   0  0  0  0  0  0  0  0  0  0  0  0
  143.7516   74.0930  217.7988 H   0  0  0  0  0  0  0  0  0  0  0  0
  145.0495   71.9742  217.6643 H   0  0  0  0  0  0  0  0  0  0  0  0
  146.5851   72.6236  221.5833 H   0  0  0  0  0  0  0  0  0  0  0  0
  145.2927   74.7473  221.7303 H   0  0  0  0  0  0  0  0  0  0  0  0
  139.1613   69.6321  222.5330 H   0  0  0  0  0  0  0  0  0  0  0  0
  138.7288   68.2786  224.5683 H   0  0  0  0  0  0  0  0  0  0  0  0
  138.9846   67.9273  226.9708 H   0  0  0  0  0  0  0  0  0  0  0  0
  141.2118   70.8499  229.2599 H   0  0  0  0  0  0  0  0  0  0  0  0
  141.6021   72.1556  227.1859 H   0  0  0  0  0  0  0  0  0  0  0  0
  1  2  2  0
  2  3  1  0
  3  4  1  0
  4  5  1  0
  5  6  2  0
  5  7  1  0
  7  8  1  0
  8  9  1  0
  9 10  1  0
 10 11  1  0
 11 12  1  0
 12 13  1  0
 13 14  1  0
 14 15  2  0
 15 16  1  0
 16 17  2  0
 17 18  1  0
 18 19  2  0
  2 20  1  0
 20 21  2  0
 21 22  1  0
 22 23  2  0
 23 24  1  0
 24 25  2  0
 25 26  1  0
 25 27  1  0
 27 28  2  0
 28 29  1  0
 29 30  2  0
 12  7  1  0
 19 14  1  0
 30 20  1  0
 29 23  1  0
  3 31  1  0
  4 32  1  0
  4 33  1  0
  8 34  1  0
  8 35  1  0
  9 36  1  0
  9 37  1  0
 10 38  1  0
 10 39  1  0
 11 40  1  0
 11 41  1  0
 12 42  1  6
 13 43  1  0
 13 44  1  0
 15 45  1  0
 16 46  1  0
 18 47  1  0
 19 48  1  0
 21 49  1  0
 22 50  1  0
 24 51  1  0
 27 52  1  0
 28 53  1  0
M  END
>  <smiles>  (64) 
O=C(NCC(=O)N1CCCCC1Cc1ccncc1)c1ccc2cc(F)ccc2n1

>  <score_type>  (64) 
oracle

>  <origin>  (64) 
autodockgpu

>  <m_score__min__energy>  (64) 
-8.8399999999999999

>  <m_primary>  (64) 
energy

>  <rmsd>  (64) 
2.404571768937095

>  <m_score__min__rmsd>  (64) 
2.404571768937095

>  <meeko>  (64) 
{"free_energy": -8.63, "intermolecular_energy": -10.42, "internal_energy": -1.8, "cluster_size": 8, "cluster_id": 1, "rank_in_cluster": 5}

>  <energy>  (64) 
-8.63

>  <cluster_rmsd>  (64) 
0.34

>  <cluster>  (64) 
2

$$$$

     RDKit          3D

 53 56  0  0  0  0  0  0  0  0999 V2000
  140.6650   73.8490  219.8970 O   0  0  0  0  0  0  0  0  0  0  0  0
  140.4800   74.4250  220.9890 C   0  0  0  0  0  0  0  0  0  0  0  0
  139.9370   73.7420  222.1150 N   0  0  0  0  0  0  0  0  0  0  0  0
  139.6030   72.3540  221.9610 C   0  0  0  0  0  0  0  0  0  0  0  0
  139.7400   71.6880  223.2710 C   0  0  0  0  0  0  0  0  0  0  0  0
  140.3270   72.2270  224.2600 O   0  0  0  0  0  0  0  0  0  0  0  0
  139.1850   70.3860  223.4200 N   0  0  0  0  0  0  0  0  0  0  0  0
  139.2020   69.4060  222.3260 C   0  0  0  0  0  0  0  0  0  0  0  0
  137.8490   68.7290  222.2510 C   0  0  0  0  0  0  0  0  0  0  0  0
  136.7760   69.4780  222.9670 C   0  0  0  0  0  0  0  0  0  0  0  0
  137.1030   69.8480  224.3870 C   0  0  0  0  0  0  0  0  0  0  0  0
  138.5650   69.9300  224.6560 C   0  0  1  0  0  0  0  0  0  0  0  0
  139.1770   68.6950  225.2050 C   0  0  0  0  0  0  0  0  0  0  0  0
  139.9710   68.9520  226.4350 C   0  0  0  0  0  0  0  0  0  0  0  0
  140.2910   70.2710  226.7750 C   0  0  0  0  0  0  0  0  0  0  0  0
  141.0320   70.5560  227.9140 C   0  0  0  0  0  0  0  0  0  0  0  0
  141.4470   69.5380  228.7000 N   0  0  0  0  0  0  0  0  0  0  0  0
  141.1690   68.2510  228.4240 C   0  0  0  0  0  0  0  0  0  0  0  0
  140.4230   67.9750  227.2760 C   0  0  0  0  0  0  0  0  0  0  0  0
  140.8240   75.8520  221.1460 C   0  0  0  0  0  0  0  0  0  0  0  0
  140.9910   76.6290  220.0030 C   0  0  0  0  0  0  0  0  0  0  0  0
  141.3160   77.9720  220.1280 C   0  0  0  0  0  0  0  0  0  0  0  0
  141.4750   78.5530  221.3730 C   0  0  0  0  0  0  0  0  0  0  0  0
  141.7960   79.8850  221.5020 C   0  0  0  0  0  0  0  0  0  0  0  0
  141.9380   80.3920  222.7840 C   0  0  0  0  0  0  0  0  0  0  0  0
  142.2560   81.7100  222.8910 F   0  0  0  0  0  0  0  0  0  0  0  0
  141.7700   79.6130  223.9150 C   0  0  0  0  0  0  0  0  0  0  0  0
  141.4500   78.2830  223.7440 C   0  0  0  0  0  0  0  0  0  0  0  0
  141.2950   77.7250  222.4790 C   0  0  0  0  0  0  0  0  0  0  0  0
  140.9810   76.4220  222.3450 N   0  0  0  0  0  0  0  0  0  0  0  0
  139.7730   74.1990  223.0370 H   0  0  0  0  0  0  0  0  0  0  0  0
  138.5668   72.2597  221.6040 H   0  0  0  0  0  0  0  0  0  0  0  0
  140.2765   71.8846  221.2288 H   0  0  0  0  0  0  0  0  0  0  0  0
  139.4117   69.9179  221.3752 H   0  0  0  0  0  0  0  0  0  0  0  0
  139.9842   68.6550  222.5112 H   0  0  0  0  0  0  0  0  0  0  0  0
  137.5633   68.6352  221.1929 H   0  0  0  0  0  0  0  0  0  0  0  0
  137.9464   67.7492  222.7415 H   0  0  0  0  0  0  0  0  0  0  0  0
  136.5759   70.4050  222.4096 H   0  0  0  0  0  0  0  0  0  0  0  0
  135.9083   68.8037  223.0155 H   0  0  0  0  0  0  0  0  0  0  0  0
  136.6532   70.8281  224.6042 H   0  0  0  0  0  0  0  0  0  0  0  0
  136.6990   69.0527  225.0306 H   0  0  0  0  0  0  0  0  0  0  0  0
  138.7433   70.6428  225.4746 H   0  0  0  0  0  0  0  0  0  0  0  0
  138.3756   67.9807  225.4451 H   0  0  0  0  0  0  0  0  0  0  0  0
  139.8613   68.2936  224.4430 H   0  0  0  0  0  0  0  0  0  0  0  0
  139.9504   71.0945  226.1302 H   0  0  0  0  0  0  0  0  0  0  0  0
  141.2780   71.5964  228.1732 H   0  0  0  0  0  0  0  0  0  0  0  0
  141.5183   67.4415  229.0818 H   0  0  0  0  0  0  0  0  0  0  0  0
  140.1895   66.9265  227.0390 H   0  0  0  0  0  0  0  0  0  0  0  0
  140.8660   76.1807  219.0063 H   0  0  0  0  0  0  0  0  0  0  0  0
  141.4492   78.5837  219.2236 H   0  0  0  0  0  0  0  0  0  0  0  0
  141.9351   80.5251  220.6183 H   0  0  0  0  0  0  0  0  0  0  0  0
  141.8883   80.0422  224.9209 H   0  0  0  0  0  0  0  0  0  0  0  0
  141.3137   77.6465  224.6307 H   0  0  0  0  0  0  0  0  0  0  0  0
  1  2  2  0
  2  3  1  0
  3  4  1  0
  4  5  1  0
  5  6  2  0
  5  7  1  0
  7  8  1  0
  8  9  1  0
  9 10  1  0
 10 11  1  0
 11 12  1  0
 12 13  1  0
 13 14  1  0
 14 15  2  0
 15 16  1  0
 16 17  2  0
 17 18  1  0
 18 19  2  0
  2 20  1  0
 20 21  2  0
 21 22  1  0
 22 23  2  0
 23 24  1  0
 24 25  2  0
 25 26  1  0
 25 27  1  0
 27 28  2  0
 28 29  1  0
 29 30  2  0
 12  7  1  0
 19 14  1  0
 30 20  1  0
 29 23  1  0
  3 31  1  0
  4 32  1  0
  4 33  1  0
  8 34  1  0
  8 35  1  0
  9 36  1  0
  9 37  1  0
 10 38  1  0
 10 39  1  0
 11 40  1  0
 11 41  1  0
 12 42  1  1
 13 43  1  0
 13 44  1  0
 15 45  1  0
 16 46  1  0
 18 47  1  0
 19 48  1  0
 21 49  1  0
 22 50  1  0
 24 51  1  0
 27 52  1  0
 28 53  1  0
M  END
>  <smiles>  (65) 
O=C(NCC(=O)N1CCCCC1Cc1ccncc1)c1ccc2cc(F)ccc2n1

>  <score_type>  (65) 
oracle

>  <origin>  (65) 
autodockgpu

>  <m_score__min__energy>  (65) 
-8.8399999999999999

>  <m_primary>  (65) 
energy

>  <rmsd>  (65) 
8.561598836471642

>  <m_score__min__rmsd>  (65) 
8.561598836471642

>  <meeko>  (65) 
{"free_energy": -7.85, "intermolecular_energy": -9.64, "internal_energy": -1.89, "cluster_size": 6, "cluster_id": 4, "rank_in_cluster": 2}

>  <energy>  (65) 
-8.56

>  <cluster_rmsd>  (65) 
1.91

>  <cluster>  (65) 
2

$$$$

     RDKit          3D

 53 56  0  0  0  0  0  0  0  0999 V2000
  138.0030   71.2780  222.1200 O   0  0  0  0  0  0  0  0  0  0  0  0
  138.9350   71.5540  222.9030 C   0  0  0  0  0  0  0  0  0  0  0  0
  139.7400   72.7170  222.7300 N   0  0  0  0  0  0  0  0  0  0  0  0
  139.4480   73.5750  221.6170 C   0  0  0  0  0  0  0  0  0  0  0  0
  140.5610   74.5310  221.4540 C   0  0  0  0  0  0  0  0  0  0  0  0
  141.7810   74.1770  221.4690 O   0  0  0  0  0  0  0  0  0  0  0  0
  140.2410   75.9050  221.2720 N   0  0  0  0  0  0  0  0  0  0  0  0
  139.0810   76.3330  220.4800 C   0  0  0  0  0  0  0  0  0  0  0  0
  139.4900   77.4900  219.5920 C   0  0  0  0  0  0  0  0  0  0  0  0
  140.9680   77.6150  219.4320 C   0  0  0  0  0  0  0  0  0  0  0  0
  141.7430   77.6370  220.7200 C   0  0  0  0  0  0  0  0  0  0  0  0
  141.0310   76.9830  221.8520 C   0  0  1  0  0  0  0  0  0  0  0  0
  140.2420   77.8960  222.7170 C   0  0  0  0  0  0  0  0  0  0  0  0
  140.9160   79.2030  222.9270 C   0  0  0  0  0  0  0  0  0  0  0  0
  142.1060   79.2460  223.6620 C   0  0  0  0  0  0  0  0  0  0  0  0
  142.7660   80.4470  223.8830 C   0  0  0  0  0  0  0  0  0  0  0  0
  142.2460   81.5860  223.3770 N   0  0  0  0  0  0  0  0  0  0  0  0
  141.1070   81.6070  222.6630 C   0  0  0  0  0  0  0  0  0  0  0  0
  140.4490   80.3940  222.4450 C   0  0  0  0  0  0  0  0  0  0  0  0
  139.2340   70.6710  224.0470 C   0  0  0  0  0  0  0  0  0  0  0  0
  138.8030   69.3480  224.0010 C   0  0  0  0  0  0  0  0  0  0  0  0
  139.0720   68.5010  225.0660 C   0  0  0  0  0  0  0  0  0  0  0  0
  139.7660   68.9500  226.1740 C   0  0  0  0  0  0  0  0  0  0  0  0
  140.0370   68.1130  227.2340 C   0  0  0  0  0  0  0  0  0  0  0  0
  140.7360   68.6400  228.3080 C   0  0  0  0  0  0  0  0  0  0  0  0
  140.9940   67.7970  229.3440 F   0  0  0  0  0  0  0  0  0  0  0  0
  141.1610   69.9550  228.3460 C   0  0  0  0  0  0  0  0  0  0  0  0
  140.8700   70.7620  227.2660 C   0  0  0  0  0  0  0  0  0  0  0  0
  140.1720   70.2830  226.1630 C   0  0  0  0  0  0  0  0  0  0  0  0
  139.9030   71.0960  225.1240 N   0  0  0  0  0  0  0  0  0  0  0  0
  140.5240   72.9700  223.3680 H   0  0  0  0  0  0  0  0  0  0  0  0
  139.3402   72.9725  220.7030 H   0  0  0  0  0  0  0  0  0  0  0  0
  138.5092   74.1189  221.7982 H   0  0  0  0  0  0  0  0  0  0  0  0
  138.7304   75.4965  219.8577 H   0  0  0  0  0  0  0  0  0  0  0  0
  138.2687   76.6487  221.1512 H   0  0  0  0  0  0  0  0  0  0  0  0
  139.0421   77.3431  218.5981 H   0  0  0  0  0  0  0  0  0  0  0  0
  139.1344   78.4129  220.0735 H   0  0  0  0  0  0  0  0  0  0  0  0
  141.3208   76.7610  218.8351 H   0  0  0  0  0  0  0  0  0  0  0  0
  141.1455   78.5866  218.9478 H   0  0  0  0  0  0  0  0  0  0  0  0
  142.6979   77.1147  220.5609 H   0  0  0  0  0  0  0  0  0  0  0  0
  141.8859   78.6927  220.9940 H   0  0  0  0  0  0  0  0  0  0  0  0
  141.7702   76.5927  222.5670 H   0  0  0  0  0  0  0  0  0  0  0  0
  139.2654   78.0746  222.2434 H   0  0  0  0  0  0  0  0  0  0  0  0
  140.1323   77.4143  223.6998 H   0  0  0  0  0  0  0  0  0  0  0  0
  142.5246   78.3144  224.0706 H   0  0  0  0  0  0  0  0  0  0  0  0
  143.7005   80.4707  224.4628 H   0  0  0  0  0  0  0  0  0  0  0  0
  140.7057   82.5498  222.2629 H   0  0  0  0  0  0  0  0  0  0  0  0
  139.5166   80.3974  221.8614 H   0  0  0  0  0  0  0  0  0  0  0  0
  138.2519   68.9763  223.1246 H   0  0  0  0  0  0  0  0  0  0  0  0
  138.7281   67.4568  225.0283 H   0  0  0  0  0  0  0  0  0  0  0  0
  139.7099   67.0628  227.2280 H   0  0  0  0  0  0  0  0  0  0  0  0
  141.7149   70.3462  229.2121 H   0  0  0  0  0  0  0  0  0  0  0  0
  141.1986   71.8117  227.2776 H   0  0  0  0  0  0  0  0  0  0  0  0
  1  2  2  0
  2  3  1  0
  3  4  1  0
  4  5  1  0
  5  6  2  0
  5  7  1  0
  7  8  1  0
  8  9  1  0
  9 10  1  0
 10 11  1  0
 11 12  1  0
 12 13  1  0
 13 14  1  0
 14 15  2  0
 15 16  1  0
 16 17  2  0
 17 18  1  0
 18 19  2  0
  2 20  1  0
 20 21  2  0
 21 22  1  0
 22 23  2  0
 23 24  1  0
 24 25  2  0
 25 26  1  0
 25 27  1  0
 27 28  2  0
 28 29  1  0
 29 30  2  0
 12  7  1  0
 19 14  1  0
 30 20  1  0
 29 23  1  0
  3 31  1  0
  4 32  1  0
  4 33  1  0
  8 34  1  0
  8 35  1  0
  9 36  1  0
  9 37  1  0
 10 38  1  0
 10 39  1  0
 11 40  1  0
 11 41  1  0
 12 42  1  1
 13 43  1  0
 13 44  1  0
 15 45  1  0
 16 46  1  0
 18 47  1  0
 19 48  1  0
 21 49  1  0
 22 50  1  0
 24 51  1  0
 27 52  1  0
 28 53  1  0
M  END
>  <smiles>  (66) 
O=C(NCC(=O)N1CCCCC1Cc1ccncc1)c1ccc2cc(F)ccc2n1

>  <score_type>  (66) 
oracle

>  <origin>  (66) 
autodockgpu

>  <m_score__min__energy>  (66) 
-8.8399999999999999

>  <m_primary>  (66) 
energy

>  <rmsd>  (66) 
2.039619121653066

>  <m_score__min__rmsd>  (66) 
2.039619121653066

>  <meeko>  (66) 
{"free_energy": -8.06, "intermolecular_energy": -9.85, "internal_energy": -1.66, "cluster_size": 35, "cluster_id": 2, "rank_in_cluster": 32}

>  <energy>  (66) 
-8.54

>  <cluster_rmsd>  (66) 
1.91

>  <cluster>  (66) 
2

$$$$

     RDKit          3D

 53 56  0  0  0  0  0  0  0  0999 V2000
  141.1570   71.6230  221.4000 O   0  0  0  0  0  0  0  0  0  0  0  0
  140.5120   72.0810  222.3640 C   0  0  0  0  0  0  0  0  0  0  0  0
  139.9680   73.3980  222.3460 N   0  0  0  0  0  0  0  0  0  0  0  0
  140.1840   74.1960  221.1730 C   0  0  0  0  0  0  0  0  0  0  0  0
  140.0980   75.6210  221.5500 C   0  0  0  0  0  0  0  0  0  0  0  0
  139.4380   76.0290  222.5560 O   0  0  0  0  0  0  0  0  0  0  0  0
  140.7890   76.5690  220.7440 N   0  0  0  0  0  0  0  0  0  0  0  0
  141.4360   77.7530  221.3230 C   0  0  0  0  0  0  0  0  0  0  0  0
  141.1220   78.9570  220.4580 C   0  0  0  0  0  0  0  0  0  0  0  0
  139.9620   78.7400  219.5460 C   0  0  0  0  0  0  0  0  0  0  0  0
  140.0400   77.4940  218.7080 C   0  0  0  0  0  0  0  0  0  0  0  0
  140.9070   76.4370  219.2980 C   0  0  1  0  0  0  0  0  0  0  0  0
  142.3110   76.4290  218.8180 C   0  0  0  0  0  0  0  0  0  0  0  0
  143.0580   75.2240  219.2640 C   0  0  0  0  0  0  0  0  0  0  0  0
  142.6590   73.9650  218.8010 C   0  0  0  0  0  0  0  0  0  0  0  0
  143.3280   72.8140  219.1940 C   0  0  0  0  0  0  0  0  0  0  0  0
  144.3790   72.9200  220.0360 N   0  0  0  0  0  0  0  0  0  0  0  0
  144.8080   74.1020  220.5130 C   0  0  0  0  0  0  0  0  0  0  0  0
  144.1290   75.2550  220.1120 C   0  0  0  0  0  0  0  0  0  0  0  0
  140.2910   71.2580  223.5700 C   0  0  0  0  0  0  0  0  0  0  0  0
  139.5960   70.0600  223.4430 C   0  0  0  0  0  0  0  0  0  0  0  0
  139.3760   69.2710  224.5640 C   0  0  0  0  0  0  0  0  0  0  0  0
  139.8390   69.6590  225.8080 C   0  0  0  0  0  0  0  0  0  0  0  0
  139.6240   68.8800  226.9230 C   0  0  0  0  0  0  0  0  0  0  0  0
  140.1200   69.3380  228.1340 C   0  0  0  0  0  0  0  0  0  0  0  0
  139.8980   68.5550  229.2230 F   0  0  0  0  0  0  0  0  0  0  0  0
  140.8100   70.5310  228.2520 C   0  0  0  0  0  0  0  0  0  0  0  0
  141.0040   71.2830  227.1120 C   0  0  0  0  0  0  0  0  0  0  0  0
  140.5280   70.8680  225.8730 C   0  0  0  0  0  0  0  0  0  0  0  0
  140.7340   71.6250  224.7770 N   0  0  0  0  0  0  0  0  0  0  0  0
  139.4260   73.8040  223.1380 H   0  0  0  0  0  0  0  0  0  0  0  0
  141.1798   73.9821  220.7575 H   0  0  0  0  0  0  0  0  0  0  0  0
  139.4232   73.9617  220.4139 H   0  0  0  0  0  0  0  0  0  0  0  0
  141.0554   77.9207  222.3413 H   0  0  0  0  0  0  0  0  0  0  0  0
  142.5243   77.5990  221.3661 H   0  0  0  0  0  0  0  0  0  0  0  0
  140.8952   79.8096  221.1150 H   0  0  0  0  0  0  0  0  0  0  0  0
  142.0031   79.1441  219.8266 H   0  0  0  0  0  0  0  0  0  0  0  0
  139.0509   78.6826  220.1597 H   0  0  0  0  0  0  0  0  0  0  0  0
  139.9604   79.5855  218.8423 H   0  0  0  0  0  0  0  0  0  0  0  0
  139.0244   77.0875  218.5925 H   0  0  0  0  0  0  0  0  0  0  0  0
  140.4863   77.7789  217.7438 H   0  0  0  0  0  0  0  0  0  0  0  0
  140.5561   75.4509  218.9596 H   0  0  0  0  0  0  0  0  0  0  0  0
  142.3080   76.4553  217.7183 H   0  0  0  0  0  0  0  0  0  0  0  0
  142.8143   77.3103  219.2422 H   0  0  0  0  0  0  0  0  0  0  0  0
  141.8024   73.8864  218.1154 H   0  0  0  0  0  0  0  0  0  0  0  0
  143.0067   71.8289  218.8248 H   0  0  0  0  0  0  0  0  0  0  0  0
  145.6670   74.1591  221.1977 H   0  0  0  0  0  0  0  0  0  0  0  0
  144.4706   76.2281  220.4947 H   0  0  0  0  0  0  0  0  0  0  0  0
  139.2225   69.7392  222.4593 H   0  0  0  0  0  0  0  0  0  0  0  0
  138.8258   68.3241  224.4612 H   0  0  0  0  0  0  0  0  0  0  0  0
  139.0778   67.9276  226.8553 H   0  0  0  0  0  0  0  0  0  0  0  0
  141.1926   70.8700  229.2260 H   0  0  0  0  0  0  0  0  0  0  0  0
  141.5493   72.2355  227.1848 H   0  0  0  0  0  0  0  0  0  0  0  0
  1  2  2  0
  2  3  1  0
  3  4  1  0
  4  5  1  0
  5  6  2  0
  5  7  1  0
  7  8  1  0
  8  9  1  0
  9 10  1  0
 10 11  1  0
 11 12  1  0
 12 13  1  0
 13 14  1  0
 14 15  2  0
 15 16  1  0
 16 17  2  0
 17 18  1  0
 18 19  2  0
  2 20  1  0
 20 21  2  0
 21 22  1  0
 22 23  2  0
 23 24  1  0
 24 25  2  0
 25 26  1  0
 25 27  1  0
 27 28  2  0
 28 29  1  0
 29 30  2  0
 12  7  1  0
 19 14  1  0
 30 20  1  0
 29 23  1  0
  3 31  1  0
  4 32  1  0
  4 33  1  0
  8 34  1  0
  8 35  1  0
  9 36  1  0
  9 37  1  0
 10 38  1  0
 10 39  1  0
 11 40  1  0
 11 41  1  0
 12 42  1  6
 13 43  1  0
 13 44  1  0
 15 45  1  0
 16 46  1  0
 18 47  1  0
 19 48  1  0
 21 49  1  0
 22 50  1  0
 24 51  1  0
 27 52  1  0
 28 53  1  0
M  END
>  <smiles>  (67) 
O=C(NCC(=O)N1CCCCC1Cc1ccncc1)c1ccc2cc(F)ccc2n1

>  <score_type>  (67) 
oracle

>  <origin>  (67) 
autodockgpu

>  <m_score__min__energy>  (67) 
-8.8399999999999999

>  <m_primary>  (67) 
energy

>  <rmsd>  (67) 
2.449379898872455

>  <m_score__min__rmsd>  (67) 
2.449379898872455

>  <meeko>  (67) 
{"free_energy": -7.44, "intermolecular_energy": -9.23, "internal_energy": -2.23, "cluster_size": 8, "cluster_id": 1, "rank_in_cluster": 8}

>  <energy>  (67) 
-8.51

>  <cluster_rmsd>  (67) 
1.88

>  <cluster>  (67) 
2

$$$$

     RDKit          3D

 53 56  0  0  0  0  0  0  0  0999 V2000
  141.1740   72.2290  221.4860 O   0  0  0  0  0  0  0  0  0  0  0  0
  140.2550   72.4110  222.3100 C   0  0  0  0  0  0  0  0  0  0  0  0
  139.2960   73.4520  222.1480 N   0  0  0  0  0  0  0  0  0  0  0  0
  139.4140   74.2980  220.9950 C   0  0  0  0  0  0  0  0  0  0  0  0
  140.4690   75.2980  221.2510 C   0  0  0  0  0  0  0  0  0  0  0  0
  141.1160   75.3540  222.3430 O   0  0  0  0  0  0  0  0  0  0  0  0
  140.7660   76.2350  220.2220 N   0  0  0  0  0  0  0  0  0  0  0  0
  139.9580   76.3250  218.9990 C   0  0  0  0  0  0  0  0  0  0  0  0
  140.8840   76.4520  217.8060 C   0  0  0  0  0  0  0  0  0  0  0  0
  142.2870   76.0450  218.1050 C   0  0  0  0  0  0  0  0  0  0  0  0
  142.8920   76.7000  219.3150 C   0  0  0  0  0  0  0  0  0  0  0  0
  141.8810   77.1690  220.3020 C   0  0  1  0  0  0  0  0  0  0  0  0
  141.4750   78.5900  220.1680 C   0  0  0  0  0  0  0  0  0  0  0  0
  141.6280   79.3480  221.4360 C   0  0  0  0  0  0  0  0  0  0  0  0
  141.7110   78.6450  222.6440 C   0  0  0  0  0  0  0  0  0  0  0  0
  141.8530   79.3140  223.8520 C   0  0  0  0  0  0  0  0  0  0  0  0
  141.9110   80.6640  223.8530 N   0  0  0  0  0  0  0  0  0  0  0  0
  141.8360   81.3920  222.7250 C   0  0  0  0  0  0  0  0  0  0  0  0
  141.6940   80.7100  221.5140 C   0  0  0  0  0  0  0  0  0  0  0  0
  140.1350   71.5390  223.4960 C   0  0  0  0  0  0  0  0  0  0  0  0
  139.4810   70.3180  223.3640 C   0  0  0  0  0  0  0  0  0  0  0  0
  139.3560   69.4830  224.4650 C   0  0  0  0  0  0  0  0  0  0  0  0
  139.8750   69.8460  225.6950 C   0  0  0  0  0  0  0  0  0  0  0  0
  139.7540   69.0220  226.7910 C   0  0  0  0  0  0  0  0  0  0  0  0
  140.3000   69.4570  227.9880 C   0  0  0  0  0  0  0  0  0  0  0  0
  140.1710   68.6290  229.0590 F   0  0  0  0  0  0  0  0  0  0  0  0
  140.9490   70.6720  228.1110 C   0  0  0  0  0  0  0  0  0  0  0  0
  141.0490   71.4700  226.9910 C   0  0  0  0  0  0  0  0  0  0  0  0
  140.5190   71.0800  225.7660 C   0  0  0  0  0  0  0  0  0  0  0  0
  140.6320   71.8810  224.6890 N   0  0  0  0  0  0  0  0  0  0  0  0
  138.5200   73.6240  222.8220 H   0  0  0  0  0  0  0  0  0  0  0  0
  139.6826   73.6924  220.1169 H   0  0  0  0  0  0  0  0  0  0  0  0
  138.4566   74.8032  220.7999 H   0  0  0  0  0  0  0  0  0  0  0  0
  139.3440   75.4183  218.8947 H   0  0  0  0  0  0  0  0  0  0  0  0
  139.2976   77.2030  219.0528 H   0  0  0  0  0  0  0  0  0  0  0  0
  140.5001   75.8143  216.9961 H   0  0  0  0  0  0  0  0  0  0  0  0
  140.9057   77.5142  217.5208 H   0  0  0  0  0  0  0  0  0  0  0  0
  142.3007   74.9565  218.2630 H   0  0  0  0  0  0  0  0  0  0  0  0
  142.8918   76.3679  217.2448 H   0  0  0  0  0  0  0  0  0  0  0  0
  143.5524   75.9735  219.8110 H   0  0  0  0  0  0  0  0  0  0  0  0
  143.4388   77.5876  218.9641 H   0  0  0  0  0  0  0  0  0  0  0  0
  142.3285   77.1673  221.3069 H   0  0  0  0  0  0  0  0  0  0  0  0
  142.0995   79.0639  219.3963 H   0  0  0  0  0  0  0  0  0  0  0  0
  140.4097   78.6085  219.8944 H   0  0  0  0  0  0  0  0  0  0  0  0
  141.6630   77.5461  222.6357 H   0  0  0  0  0  0  0  0  0  0  0  0
  141.9174   78.7527  224.7958 H   0  0  0  0  0  0  0  0  0  0  0  0
  141.8849   82.4905  222.7548 H   0  0  0  0  0  0  0  0  0  0  0  0
  141.6328   81.2945  220.5842 H   0  0  0  0  0  0  0  0  0  0  0  0
  139.0651   70.0162  222.3914 H   0  0  0  0  0  0  0  0  0  0  0  0
  138.8370   68.5190  224.3584 H   0  0  0  0  0  0  0  0  0  0  0  0
  139.2414   68.0514  226.7191 H   0  0  0  0  0  0  0  0  0  0  0  0
  141.3730   70.9924  229.0741 H   0  0  0  0  0  0  0  0  0  0  0  0
  141.5613   72.4403  227.0685 H   0  0  0  0  0  0  0  0  0  0  0  0
  1  2  2  0
  2  3  1  0
  3  4  1  0
  4  5  1  0
  5  6  2  0
  5  7  1  0
  7  8  1  0
  8  9  1  0
  9 10  1  0
 10 11  1  0
 11 12  1  0
 12 13  1  0
 13 14  1  0
 14 15  2  0
 15 16  1  0
 16 17  2  0
 17 18  1  0
 18 19  2  0
  2 20  1  0
 20 21  2  0
 21 22  1  0
 22 23  2  0
 23 24  1  0
 24 25  2  0
 25 26  1  0
 25 27  1  0
 27 28  2  0
 28 29  1  0
 29 30  2  0
 12  7  1  0
 19 14  1  0
 30 20  1  0
 29 23  1  0
  3 31  1  0
  4 32  1  0
  4 33  1  0
  8 34  1  0
  8 35  1  0
  9 36  1  0
  9 37  1  0
 10 38  1  0
 10 39  1  0
 11 40  1  0
 11 41  1  0
 12 42  1  1
 13 43  1  0
 13 44  1  0
 15 45  1  0
 16 46  1  0
 18 47  1  0
 19 48  1  0
 21 49  1  0
 22 50  1  0
 24 51  1  0
 27 52  1  0
 28 53  1  0
M  END
>  <smiles>  (68) 
O=C(NCC(=O)N1CCCCC1Cc1ccncc1)c1ccc2cc(F)ccc2n1

>  <score_type>  (68) 
oracle

>  <origin>  (68) 
autodockgpu

>  <m_score__min__energy>  (68) 
-8.8399999999999999

>  <m_primary>  (68) 
energy

>  <rmsd>  (68) 
1.453887119030051

>  <m_score__min__rmsd>  (68) 
1.453887119030051

>  <meeko>  (68) 
{"free_energy": -8.66, "intermolecular_energy": -10.45, "internal_energy": -1.44, "cluster_size": 35, "cluster_id": 2, "rank_in_cluster": 3}

>  <energy>  (68) 
-8.51

>  <cluster_rmsd>  (68) 
1.9

>  <cluster>  (68) 
2

$$$$

     RDKit          3D

 53 56  0  0  0  0  0  0  0  0999 V2000
  141.2740   72.8130  222.0480 O   0  0  0  0  0  0  0  0  0  0  0  0
  140.2060   72.6180  222.6620 C   0  0  0  0  0  0  0  0  0  0  0  0
  139.0170   73.3380  222.3480 N   0  0  0  0  0  0  0  0  0  0  0  0
  139.0800   74.3080  221.2910 C   0  0  0  0  0  0  0  0  0  0  0  0
  139.7160   75.5330  221.8150 C   0  0  0  0  0  0  0  0  0  0  0  0
  140.9750   75.6690  221.9130 O   0  0  0  0  0  0  0  0  0  0  0  0
  138.8710   76.6030  222.2230 N   0  0  0  0  0  0  0  0  0  0  0  0
  137.6610   76.3730  223.0230 C   0  0  0  0  0  0  0  0  0  0  0  0
  136.5320   77.2110  222.4600 C   0  0  0  0  0  0  0  0  0  0  0  0
  136.7910   77.6900  221.0710 C   0  0  0  0  0  0  0  0  0  0  0  0
  138.1100   78.3840  220.8780 C   0  0  0  0  0  0  0  0  0  0  0  0
  139.1380   77.9930  221.8810 C   0  0  1  0  0  0  0  0  0  0  0  0
  139.2390   78.8840  223.0640 C   0  0  0  0  0  0  0  0  0  0  0  0
  140.5700   79.5340  223.1750 C   0  0  0  0  0  0  0  0  0  0  0  0
  141.6970   78.8660  222.6810 C   0  0  0  0  0  0  0  0  0  0  0  0
  142.9600   79.4370  222.7650 C   0  0  0  0  0  0  0  0  0  0  0  0
  143.0940   80.6550  223.3340 N   0  0  0  0  0  0  0  0  0  0  0  0
  142.0490   81.3430  223.8260 C   0  0  0  0  0  0  0  0  0  0  0  0
  140.7820   80.7620  223.7360 C   0  0  0  0  0  0  0  0  0  0  0  0
  140.1420   71.6200  223.7480 C   0  0  0  0  0  0  0  0  0  0  0  0
  139.5700   70.3790  223.4830 C   0  0  0  0  0  0  0  0  0  0  0  0
  139.5000   69.4270  224.4900 C   0  0  0  0  0  0  0  0  0  0  0  0
  139.9910   69.6910  225.7550 C   0  0  0  0  0  0  0  0  0  0  0  0
  139.9240   68.7500  226.7570 C   0  0  0  0  0  0  0  0  0  0  0  0
  140.4390   69.0920  227.9980 C   0  0  0  0  0  0  0  0  0  0  0  0
  140.3630   68.1480  228.9750 F   0  0  0  0  0  0  0  0  0  0  0  0
  141.0060   70.3270  228.2530 C   0  0  0  0  0  0  0  0  0  0  0  0
  141.0540   71.2430  227.2230 C   0  0  0  0  0  0  0  0  0  0  0  0
  140.5520   70.9500  225.9600 C   0  0  0  0  0  0  0  0  0  0  0  0
  140.6140   71.8660  224.9750 N   0  0  0  0  0  0  0  0  0  0  0  0
  138.1130   73.1940  222.8450 H   0  0  0  0  0  0  0  0  0  0  0  0
  139.6753   73.9090  220.4565 H   0  0  0  0  0  0  0  0  0  0  0  0
  138.0668   74.5356  220.9282 H   0  0  0  0  0  0  0  0  0  0  0  0
  137.3872   75.3085  222.9801 H   0  0  0  0  0  0  0  0  0  0  0  0
  137.8478   76.6554  224.0696 H   0  0  0  0  0  0  0  0  0  0  0  0
  135.6149   76.6037  222.4549 H   0  0  0  0  0  0  0  0  0  0  0  0
  136.4352   78.1007  223.0996 H   0  0  0  0  0  0  0  0  0  0  0  0
  136.7605   76.8203  220.3981 H   0  0  0  0  0  0  0  0  0  0  0  0
  136.0138   78.4369  220.8516 H   0  0  0  0  0  0  0  0  0  0  0  0
  138.4899   78.1375  219.8756 H   0  0  0  0  0  0  0  0  0  0  0  0
  137.9300   79.4621  221.0020 H   0  0  0  0  0  0  0  0  0  0  0  0
  140.1379   78.1067  221.4369 H   0  0  0  0  0  0  0  0  0  0  0  0
  138.4701   79.6664  222.9829 H   0  0  0  0  0  0  0  0  0  0  0  0
  139.0935   78.2652  223.9617 H   0  0  0  0  0  0  0  0  0  0  0  0
  141.5802   77.8743  222.2196 H   0  0  0  0  0  0  0  0  0  0  0  0
  143.8395   78.9048  222.3735 H   0  0  0  0  0  0  0  0  0  0  0  0
  142.1875   82.3329  224.2853 H   0  0  0  0  0  0  0  0  0  0  0  0
  139.9187   81.3160  224.1333 H   0  0  0  0  0  0  0  0  0  0  0  0
  139.1757   70.1543  222.4810 H   0  0  0  0  0  0  0  0  0  0  0  0
  139.0469   68.4472  224.2785 H   0  0  0  0  0  0  0  0  0  0  0  0
  139.4772   67.7606  226.5794 H   0  0  0  0  0  0  0  0  0  0  0  0
  141.4069   70.5717  229.2477 H   0  0  0  0  0  0  0  0  0  0  0  0
  141.5012   72.2313  227.4056 H   0  0  0  0  0  0  0  0  0  0  0  0
  1  2  2  0
  2  3  1  0
  3  4  1  0
  4  5  1  0
  5  6  2  0
  5  7  1  0
  7  8  1  0
  8  9  1  0
  9 10  1  0
 10 11  1  0
 11 12  1  0
 12 13  1  0
 13 14  1  0
 14 15  2  0
 15 16  1  0
 16 17  2  0
 17 18  1  0
 18 19  2  0
  2 20  1  0
 20 21  2  0
 21 22  1  0
 22 23  2  0
 23 24  1  0
 24 25  2  0
 25 26  1  0
 25 27  1  0
 27 28  2  0
 28 29  1  0
 29 30  2  0
 12  7  1  0
 19 14  1  0
 30 20  1  0
 29 23  1  0
  3 31  1  0
  4 32  1  0
  4 33  1  0
  8 34  1  0
  8 35  1  0
  9 36  1  0
  9 37  1  0
 10 38  1  0
 10 39  1  0
 11 40  1  0
 11 41  1  0
 12 42  1  6
 13 43  1  0
 13 44  1  0
 15 45  1  0
 16 46  1  0
 18 47  1  0
 19 48  1  0
 21 49  1  0
 22 50  1  0
 24 51  1  0
 27 52  1  0
 28 53  1  0
M  END
>  <smiles>  (69) 
O=C(NCC(=O)N1CCCCC1Cc1ccncc1)c1ccc2cc(F)ccc2n1

>  <score_type>  (69) 
oracle

>  <origin>  (69) 
autodockgpu

>  <m_score__min__energy>  (69) 
-8.8399999999999999

>  <m_primary>  (69) 
energy

>  <rmsd>  (69) 
3.1797497158181938

>  <m_score__min__rmsd>  (69) 
3.1797497158181938

>  <meeko>  (69) 
{"free_energy": -8.79, "intermolecular_energy": -10.58, "internal_energy": -1.38, "cluster_size": 35, "cluster_id": 2, "rank_in_cluster": 1}

>  <energy>  (69) 
-8.51

>  <cluster_rmsd>  (69) 
1.93

>  <cluster>  (69) 
2

$$$$

     RDKit          3D

 53 56  0  0  0  0  0  0  0  0999 V2000
  137.2490   75.6290  222.1450 O   0  0  0  0  0  0  0  0  0  0  0  0
  138.4740   75.7990  222.3110 C   0  0  0  0  0  0  0  0  0  0  0  0
  139.3990   74.7180  222.2340 N   0  0  0  0  0  0  0  0  0  0  0  0
  138.8790   73.4090  221.9550 C   0  0  0  0  0  0  0  0  0  0  0  0
  139.8410   72.4050  222.4480 C   0  0  0  0  0  0  0  0  0  0  0  0
  141.0870   72.6330  222.5470 O   0  0  0  0  0  0  0  0  0  0  0  0
  139.3390   71.1280  222.8280 N   0  0  0  0  0  0  0  0  0  0  0  0
  139.5120   69.9430  221.9780 C   0  0  0  0  0  0  0  0  0  0  0  0
  138.2080   69.1730  221.9360 C   0  0  0  0  0  0  0  0  0  0  0  0
  137.0340   69.9800  222.3780 C   0  0  0  0  0  0  0  0  0  0  0  0
  137.2010   70.6640  223.7060 C   0  0  0  0  0  0  0  0  0  0  0  0
  138.6230   70.9010  224.0760 C   0  0  1  0  0  0  0  0  0  0  0  0
  139.2390   69.8550  224.9300 C   0  0  0  0  0  0  0  0  0  0  0  0
  140.0210   70.4280  226.0560 C   0  0  0  0  0  0  0  0  0  0  0  0
  140.0930   69.7240  227.2630 C   0  0  0  0  0  0  0  0  0  0  0  0
  140.8110   70.2240  228.3410 C   0  0  0  0  0  0  0  0  0  0  0  0
  141.4470   71.4090  228.2130 N   0  0  0  0  0  0  0  0  0  0  0  0
  141.4140   72.1290  227.0790 C   0  0  0  0  0  0  0  0  0  0  0  0
  140.6890   71.6180  226.0000 C   0  0  0  0  0  0  0  0  0  0  0  0
  139.0080   77.1460  222.5980 C   0  0  0  0  0  0  0  0  0  0  0  0
  138.1140   78.2030  222.7360 C   0  0  0  0  0  0  0  0  0  0  0  0
  138.5940   79.4770  223.0050 C   0  0  0  0  0  0  0  0  0  0  0  0
  139.9500   79.7120  223.1400 C   0  0  0  0  0  0  0  0  0  0  0  0
  140.4320   80.9740  223.4070 C   0  0  0  0  0  0  0  0  0  0  0  0
  141.8040   81.1280  223.5270 C   0  0  0  0  0  0  0  0  0  0  0  0
  142.2590   82.3820  223.7910 F   0  0  0  0  0  0  0  0  0  0  0  0
  142.6850   80.0720  223.3890 C   0  0  0  0  0  0  0  0  0  0  0  0
  142.1640   78.8230  223.1200 C   0  0  0  0  0  0  0  0  0  0  0  0
  140.7950   78.6150  222.9910 C   0  0  0  0  0  0  0  0  0  0  0  0
  140.3170   77.3830  222.7290 N   0  0  0  0  0  0  0  0  0  0  0  0
  140.4260   74.8330  222.3690 H   0  0  0  0  0  0  0  0  0  0  0  0
  137.9129   73.2778  222.4643 H   0  0  0  0  0  0  0  0  0  0  0  0
  138.7305   73.2868  220.8719 H   0  0  0  0  0  0  0  0  0  0  0  0
  139.7886   70.2560  220.9604 H   0  0  0  0  0  0  0  0  0  0  0  0
  140.3083   69.3042  222.3876 H   0  0  0  0  0  0  0  0  0  0  0  0
  138.0329   68.8381  220.9029 H   0  0  0  0  0  0  0  0  0  0  0  0
  138.3049   68.3281  222.6337 H   0  0  0  0  0  0  0  0  0  0  0  0
  136.8438   70.7517  221.6175 H   0  0  0  0  0  0  0  0  0  0  0  0
  136.2003   69.2724  222.4977 H   0  0  0  0  0  0  0  0  0  0  0  0
  136.6852   71.6347  223.6652 H   0  0  0  0  0  0  0  0  0  0  0  0
  136.7743   69.9972  224.4698 H   0  0  0  0  0  0  0  0  0  0  0  0
  138.6836   71.7803  224.7341 H   0  0  0  0  0  0  0  0  0  0  0  0
  138.4405   69.2204  225.3419 H   0  0  0  0  0  0  0  0  0  0  0  0
  139.9321   69.2760  224.3020 H   0  0  0  0  0  0  0  0  0  0  0  0
  139.5728   68.7596  227.3593 H   0  0  0  0  0  0  0  0  0  0  0  0
  140.8613   69.6632  229.2860 H   0  0  0  0  0  0  0  0  0  0  0  0
  141.9417   73.0912  227.0027 H   0  0  0  0  0  0  0  0  0  0  0  0
  140.6546   72.1982  225.0661 H   0  0  0  0  0  0  0  0  0  0  0  0
  137.0327   78.0299  222.6324 H   0  0  0  0  0  0  0  0  0  0  0  0
  137.8857   80.3118  223.1124 H   0  0  0  0  0  0  0  0  0  0  0  0
  139.7513   81.8305  223.5211 H   0  0  0  0  0  0  0  0  0  0  0  0
  143.7698   80.2229  223.4907 H   0  0  0  0  0  0  0  0  0  0  0  0
  142.8489   77.9700  223.0046 H   0  0  0  0  0  0  0  0  0  0  0  0
  1  2  2  0
  2  3  1  0
  3  4  1  0
  4  5  1  0
  5  6  2  0
  5  7  1  0
  7  8  1  0
  8  9  1  0
  9 10  1  0
 10 11  1  0
 11 12  1  0
 12 13  1  0
 13 14  1  0
 14 15  2  0
 15 16  1  0
 16 17  2  0
 17 18  1  0
 18 19  2  0
  2 20  1  0
 20 21  2  0
 21 22  1  0
 22 23  2  0
 23 24  1  0
 24 25  2  0
 25 26  1  0
 25 27  1  0
 27 28  2  0
 28 29  1  0
 29 30  2  0
 12  7  1  0
 19 14  1  0
 30 20  1  0
 29 23  1  0
  3 31  1  0
  4 32  1  0
  4 33  1  0
  8 34  1  0
  8 35  1  0
  9 36  1  0
  9 37  1  0
 10 38  1  0
 10 39  1  0
 11 40  1  0
 11 41  1  0
 12 42  1  1
 13 43  1  0
 13 44  1  0
 15 45  1  0
 16 46  1  0
 18 47  1  0
 19 48  1  0
 21 49  1  0
 22 50  1  0
 24 51  1  0
 27 52  1  0
 28 53  1  0
M  END
>  <smiles>  (70) 
O=C(NCC(=O)N1CCCCC1Cc1ccncc1)c1ccc2cc(F)ccc2n1

>  <score_type>  (70) 
oracle

>  <origin>  (70) 
autodockgpu

>  <m_score__min__energy>  (70) 
-8.8399999999999999

>  <m_primary>  (70) 
energy

>  <rmsd>  (70) 
8.56565555158598

>  <m_score__min__rmsd>  (70) 
8.56565555158598

>  <meeko>  (70) 
{"free_energy": -7.81, "intermolecular_energy": -9.6, "internal_energy": -2.06, "cluster_size": 6, "cluster_id": 4, "rank_in_cluster": 4}

>  <energy>  (70) 
-8.5

>  <cluster_rmsd>  (70) 
1.86

>  <cluster>  (70) 
2

$$$$

     RDKit          3D

 53 56  0  0  0  0  0  0  0  0999 V2000
  139.6620   71.2950  221.0610 O   0  0  0  0  0  0  0  0  0  0  0  0
  139.6580   71.8460  222.1800 C   0  0  0  0  0  0  0  0  0  0  0  0
  139.5770   73.2620  222.3190 N   0  0  0  0  0  0  0  0  0  0  0  0
  139.5000   74.0500  221.1220 C   0  0  0  0  0  0  0  0  0  0  0  0
  139.9230   75.4280  221.4370 C   0  0  0  0  0  0  0  0  0  0  0  0
  139.7970   75.9420  222.5920 O   0  0  0  0  0  0  0  0  0  0  0  0
  140.4970   76.2060  220.3920 N   0  0  0  0  0  0  0  0  0  0  0  0
  139.7830   76.4630  219.1350 C   0  0  0  0  0  0  0  0  0  0  0  0
  140.7440   76.2840  217.9780 C   0  0  0  0  0  0  0  0  0  0  0  0
  141.9720   75.5220  218.3450 C   0  0  0  0  0  0  0  0  0  0  0  0
  142.6960   76.0360  219.5580 C   0  0  0  0  0  0  0  0  0  0  0  0
  141.8220   76.8020  220.4890 C   0  0  1  0  0  0  0  0  0  0  0  0
  141.8260   78.2730  220.2940 C   0  0  0  0  0  0  0  0  0  0  0  0
  141.8180   79.0170  221.5800 C   0  0  0  0  0  0  0  0  0  0  0  0
  142.1820   80.3690  221.5870 C   0  0  0  0  0  0  0  0  0  0  0  0
  142.1900   81.1010  222.7670 C   0  0  0  0  0  0  0  0  0  0  0  0
  141.8410   80.4910  223.9210 N   0  0  0  0  0  0  0  0  0  0  0  0
  141.4830   79.1960  223.9750 C   0  0  0  0  0  0  0  0  0  0  0  0
  141.4760   78.4680  222.7830 C   0  0  0  0  0  0  0  0  0  0  0  0
  139.7380   71.0340  223.4110 C   0  0  0  0  0  0  0  0  0  0  0  0
  139.2540   69.7300  223.3840 C   0  0  0  0  0  0  0  0  0  0  0  0
  139.3180   68.9500  224.5290 C   0  0  0  0  0  0  0  0  0  0  0  0
  139.8590   69.4490  225.7000 C   0  0  0  0  0  0  0  0  0  0  0  0
  139.9260   68.6790  226.8400 C   0  0  0  0  0  0  0  0  0  0  0  0
  140.4820   69.2520  227.9720 C   0  0  0  0  0  0  0  0  0  0  0  0
  140.5390   68.4750  229.0870 F   0  0  0  0  0  0  0  0  0  0  0  0
  140.9610   70.5490  227.9910 C   0  0  0  0  0  0  0  0  0  0  0  0
  140.8760   71.2880  226.8300 C   0  0  0  0  0  0  0  0  0  0  0  0
  140.3280   70.7610  225.6660 C   0  0  0  0  0  0  0  0  0  0  0  0
  140.2580   71.5080  224.5480 N   0  0  0  0  0  0  0  0  0  0  0  0
  139.5720   73.7470  223.2420 H   0  0  0  0  0  0  0  0  0  0  0  0
  140.1641   73.6247  220.3551 H   0  0  0  0  0  0  0  0  0  0  0  0
  138.4687   74.0519  220.7393 H   0  0  0  0  0  0  0  0  0  0  0  0
  138.9475   75.7547  219.0337 H   0  0  0  0  0  0  0  0  0  0  0  0
  139.3874   77.4894  219.1348 H   0  0  0  0  0  0  0  0  0  0  0  0
  140.2248   75.7431  217.1731 H   0  0  0  0  0  0  0  0  0  0  0  0
  141.0650   77.2876  217.6623 H   0  0  0  0  0  0  0  0  0  0  0  0
  141.6822   74.4783  218.5366 H   0  0  0  0  0  0  0  0  0  0  0  0
  142.6679   75.6322  217.5002 H   0  0  0  0  0  0  0  0  0  0  0  0
  143.1173   75.1778  220.1021 H   0  0  0  0  0  0  0  0  0  0  0  0
  143.4750   76.7265  219.2024 H   0  0  0  0  0  0  0  0  0  0  0  0
  142.2197   76.7181  221.5111 H   0  0  0  0  0  0  0  0  0  0  0  0
  142.7287   78.5518  219.7307 H   0  0  0  0  0  0  0  0  0  0  0  0
  140.9097   78.5404  219.7473 H   0  0  0  0  0  0  0  0  0  0  0  0
  142.4659   80.8586  220.6438 H   0  0  0  0  0  0  0  0  0  0  0  0
  142.4766   82.1630  222.7623 H   0  0  0  0  0  0  0  0  0  0  0  0
  141.2042   78.7243  224.9288 H   0  0  0  0  0  0  0  0  0  0  0  0
  141.1828   77.4083  222.8144 H   0  0  0  0  0  0  0  0  0  0  0  0
  138.8227   69.3196  222.4591 H   0  0  0  0  0  0  0  0  0  0  0  0
  138.9330   67.9198  224.5055 H   0  0  0  0  0  0  0  0  0  0  0  0
  139.5510   67.6449  226.8512 H   0  0  0  0  0  0  0  0  0  0  0  0
  141.3969   70.9785  228.9051 H   0  0  0  0  0  0  0  0  0  0  0  0
  141.2517   72.3218  226.8246 H   0  0  0  0  0  0  0  0  0  0  0  0
  1  2  2  0
  2  3  1  0
  3  4  1  0
  4  5  1  0
  5  6  2  0
  5  7  1  0
  7  8  1  0
  8  9  1  0
  9 10  1  0
 10 11  1  0
 11 12  1  0
 12 13  1  0
 13 14  1  0
 14 15  2  0
 15 16  1  0
 16 17  2  0
 17 18  1  0
 18 19  2  0
  2 20  1  0
 20 21  2  0
 21 22  1  0
 22 23  2  0
 23 24  1  0
 24 25  2  0
 25 26  1  0
 25 27  1  0
 27 28  2  0
 28 29  1  0
 29 30  2  0
 12  7  1  0
 19 14  1  0
 30 20  1  0
 29 23  1  0
  3 31  1  0
  4 32  1  0
  4 33  1  0
  8 34  1  0
  8 35  1  0
  9 36  1  0
  9 37  1  0
 10 38  1  0
 10 39  1  0
 11 40  1  0
 11 41  1  0
 12 42  1  1
 13 43  1  0
 13 44  1  0
 15 45  1  0
 16 46  1  0
 18 47  1  0
 19 48  1  0
 21 49  1  0
 22 50  1  0
 24 51  1  0
 27 52  1  0
 28 53  1  0
M  END
>  <smiles>  (71) 
O=C(NCC(=O)N1CCCCC1Cc1ccncc1)c1ccc2cc(F)ccc2n1

>  <score_type>  (71) 
oracle

>  <origin>  (71) 
autodockgpu

>  <m_score__min__energy>  (71) 
-8.8399999999999999

>  <m_primary>  (71) 
energy

>  <rmsd>  (71) 
1.3396624497950769

>  <m_score__min__rmsd>  (71) 
1.3396624497950769

>  <meeko>  (71) 
{"free_energy": -8.38, "intermolecular_energy": -10.17, "internal_energy": -1.98, "cluster_size": 35, "cluster_id": 2, "rank_in_cluster": 18}

>  <energy>  (71) 
-8.47

>  <cluster_rmsd>  (71) 
1.87

>  <cluster>  (71) 
2

$$$$

     RDKit          3D

 53 56  0  0  0  0  0  0  0  0999 V2000
  140.0800   71.6420  221.0440 O   0  0  0  0  0  0  0  0  0  0  0  0
  139.9330   72.1890  222.1550 C   0  0  0  0  0  0  0  0  0  0  0  0
  139.7110   73.5910  222.2790 N   0  0  0  0  0  0  0  0  0  0  0  0
  139.6620   74.3700  221.0740 C   0  0  0  0  0  0  0  0  0  0  0  0
  139.6640   75.8010  221.4380 C   0  0  0  0  0  0  0  0  0  0  0  0
  139.3970   76.2150  222.6090 O   0  0  0  0  0  0  0  0  0  0  0  0
  139.9830   76.7480  220.4240 N   0  0  0  0  0  0  0  0  0  0  0  0
  138.9530   77.3270  219.5530 C   0  0  0  0  0  0  0  0  0  0  0  0
  139.4650   77.3400  218.1270 C   0  0  0  0  0  0  0  0  0  0  0  0
  140.6270   76.4300  217.9100 C   0  0  0  0  0  0  0  0  0  0  0  0
  141.7610   76.6090  218.8810 C   0  0  0  0  0  0  0  0  0  0  0  0
  141.3420   77.2110  220.1770 C   0  0  1  0  0  0  0  0  0  0  0  0
  141.4910   78.6850  220.2680 C   0  0  0  0  0  0  0  0  0  0  0  0
  141.7390   79.1460  221.6590 C   0  0  0  0  0  0  0  0  0  0  0  0
  142.2580   80.4290  221.8680 C   0  0  0  0  0  0  0  0  0  0  0  0
  142.5060   80.8990  223.1510 C   0  0  0  0  0  0  0  0  0  0  0  0
  142.2410   80.0980  224.2060 N   0  0  0  0  0  0  0  0  0  0  0  0
  141.7420   78.8580  224.0670 C   0  0  0  0  0  0  0  0  0  0  0  0
  141.4940   78.3940  222.7730 C   0  0  0  0  0  0  0  0  0  0  0  0
  139.9840   71.3860  223.3930 C   0  0  0  0  0  0  0  0  0  0  0  0
  139.5400   70.0680  223.3540 C   0  0  0  0  0  0  0  0  0  0  0  0
  139.5790   69.2950  224.5060 C   0  0  0  0  0  0  0  0  0  0  0  0
  140.0540   69.8160  225.6950 C   0  0  0  0  0  0  0  0  0  0  0  0
  140.0950   69.0540  226.8420 C   0  0  0  0  0  0  0  0  0  0  0  0
  140.5850   69.6490  227.9930 C   0  0  0  0  0  0  0  0  0  0  0  0
  140.6180   68.8800  229.1150 F   0  0  0  0  0  0  0  0  0  0  0  0
  141.0250   70.9590  228.0240 C   0  0  0  0  0  0  0  0  0  0  0  0
  140.9670   71.6900  226.8560 C   0  0  0  0  0  0  0  0  0  0  0  0
  140.4850   71.1410  225.6730 C   0  0  0  0  0  0  0  0  0  0  0  0
  140.4410   71.8800  224.5480 N   0  0  0  0  0  0  0  0  0  0  0  0
  139.5850   74.0720  223.1940 H   0  0  0  0  0  0  0  0  0  0  0  0
  140.5402   74.1448  220.4511 H   0  0  0  0  0  0  0  0  0  0  0  0
  138.7513   74.1278  220.5066 H   0  0  0  0  0  0  0  0  0  0  0  0
  138.0372   76.7204  219.6108 H   0  0  0  0  0  0  0  0  0  0  0  0
  138.7262   78.3536  219.8764 H   0  0  0  0  0  0  0  0  0  0  0  0
  138.6479   77.0285  217.4596 H   0  0  0  0  0  0  0  0  0  0  0  0
  139.8074   78.3631  217.9126 H   0  0  0  0  0  0  0  0  0  0  0  0
  140.2687   75.3931  217.9904 H   0  0  0  0  0  0  0  0  0  0  0  0
  141.0299   76.6755  216.9163 H   0  0  0  0  0  0  0  0  0  0  0  0
  142.2062   75.6235  219.0823 H   0  0  0  0  0  0  0  0  0  0  0  0
  142.4779   77.3030  218.4179 H   0  0  0  0  0  0  0  0  0  0  0  0
  142.0258   76.8748  220.9704 H   0  0  0  0  0  0  0  0  0  0  0  0
  142.3379   78.9938  219.6375 H   0  0  0  0  0  0  0  0  0  0  0  0
  140.5482   79.1384  219.9282 H   0  0  0  0  0  0  0  0  0  0  0  0
  142.4725   81.0744  221.0034 H   0  0  0  0  0  0  0  0  0  0  0  0
  142.9125   81.9093  223.3060 H   0  0  0  0  0  0  0  0  0  0  0  0
  141.5353   78.2281  224.9448 H   0  0  0  0  0  0  0  0  0  0  0  0
  141.0844   77.3811  222.6456 H   0  0  0  0  0  0  0  0  0  0  0  0
  139.1598   69.6406  222.4144 H   0  0  0  0  0  0  0  0  0  0  0  0
  139.2271   68.2534  224.4724 H   0  0  0  0  0  0  0  0  0  0  0  0
  139.7506   68.0093  226.8438 H   0  0  0  0  0  0  0  0  0  0  0  0
  141.4100   71.4052  228.9528 H   0  0  0  0  0  0  0  0  0  0  0  0
  141.3111   72.7348  226.8604 H   0  0  0  0  0  0  0  0  0  0  0  0
  1  2  2  0
  2  3  1  0
  3  4  1  0
  4  5  1  0
  5  6  2  0
  5  7  1  0
  7  8  1  0
  8  9  1  0
  9 10  1  0
 10 11  1  0
 11 12  1  0
 12 13  1  0
 13 14  1  0
 14 15  2  0
 15 16  1  0
 16 17  2  0
 17 18  1  0
 18 19  2  0
  2 20  1  0
 20 21  2  0
 21 22  1  0
 22 23  2  0
 23 24  1  0
 24 25  2  0
 25 26  1  0
 25 27  1  0
 27 28  2  0
 28 29  1  0
 29 30  2  0
 12  7  1  0
 19 14  1  0
 30 20  1  0
 29 23  1  0
  3 31  1  0
  4 32  1  0
  4 33  1  0
  8 34  1  0
  8 35  1  0
  9 36  1  0
  9 37  1  0
 10 38  1  0
 10 39  1  0
 11 40  1  0
 11 41  1  0
 12 42  1  1
 13 43  1  0
 13 44  1  0
 15 45  1  0
 16 46  1  0
 18 47  1  0
 19 48  1  0
 21 49  1  0
 22 50  1  0
 24 51  1  0
 27 52  1  0
 28 53  1  0
M  END
>  <smiles>  (72) 
O=C(NCC(=O)N1CCCCC1Cc1ccncc1)c1ccc2cc(F)ccc2n1

>  <score_type>  (72) 
oracle

>  <origin>  (72) 
autodockgpu

>  <m_score__min__energy>  (72) 
-8.8399999999999999

>  <m_primary>  (72) 
energy

>  <rmsd>  (72) 
1.661948028624937

>  <m_score__min__rmsd>  (72) 
1.661948028624937

>  <meeko>  (72) 
{"free_energy": -8.04, "intermolecular_energy": -9.83, "internal_energy": -2.05, "cluster_size": 35, "cluster_id": 2, "rank_in_cluster": 33}

>  <energy>  (72) 
-8.43

>  <cluster_rmsd>  (72) 
1.8

>  <cluster>  (72) 
2

$$$$

     RDKit          3D

 53 56  0  0  0  0  0  0  0  0999 V2000
  139.6610   70.8520  221.4750 O   0  0  0  0  0  0  0  0  0  0  0  0
  139.7330   71.6100  222.4630 C   0  0  0  0  0  0  0  0  0  0  0  0
  139.5100   73.0130  222.3520 N   0  0  0  0  0  0  0  0  0  0  0  0
  139.1940   73.5400  221.0550 C   0  0  0  0  0  0  0  0  0  0  0  0
  140.4530   73.7370  220.3080 C   0  0  0  0  0  0  0  0  0  0  0  0
  140.8990   72.8900  219.4740 O   0  0  0  0  0  0  0  0  0  0  0  0
  141.1880   74.9330  220.5420 N   0  0  0  0  0  0  0  0  0  0  0  0
  141.0760   75.6780  221.8020 C   0  0  0  0  0  0  0  0  0  0  0  0
  140.9740   77.1570  221.4920 C   0  0  0  0  0  0  0  0  0  0  0  0
  140.5990   77.4370  220.0760 C   0  0  0  0  0  0  0  0  0  0  0  0
  141.4460   76.7390  219.0480 C   0  0  0  0  0  0  0  0  0  0  0  0
  142.1000   75.5030  219.5600 C   0  0  1  0  0  0  0  0  0  0  0  0
  143.4820   75.6820  220.0690 C   0  0  0  0  0  0  0  0  0  0  0  0
  144.3460   74.5040  219.7960 C   0  0  0  0  0  0  0  0  0  0  0  0
  145.2300   74.0640  220.7870 C   0  0  0  0  0  0  0  0  0  0  0  0
  146.0560   72.9680  220.5730 C   0  0  0  0  0  0  0  0  0  0  0  0
  145.9980   72.3240  219.3870 N   0  0  0  0  0  0  0  0  0  0  0  0
  145.1700   72.7020  218.3980 C   0  0  0  0  0  0  0  0  0  0  0  0
  144.3420   73.8040  218.6220 C   0  0  0  0  0  0  0  0  0  0  0  0
  140.0580   71.0650  223.7970 C   0  0  0  0  0  0  0  0  0  0  0  0
  140.6990   71.8890  224.7170 C   0  0  0  0  0  0  0  0  0  0  0  0
  141.0140   71.3980  225.9760 C   0  0  0  0  0  0  0  0  0  0  0  0
  140.6980   70.0990  226.3320 C   0  0  0  0  0  0  0  0  0  0  0  0
  141.0070   69.6060  227.5800 C   0  0  0  0  0  0  0  0  0  0  0  0
  140.6570   68.2950  227.8600 C   0  0  0  0  0  0  0  0  0  0  0  0
  140.9710   67.8270  229.0980 F   0  0  0  0  0  0  0  0  0  0  0  0
  140.0190   67.4830  226.9400 C   0  0  0  0  0  0  0  0  0  0  0  0
  139.7270   68.0130  225.7000 C   0  0  0  0  0  0  0  0  0  0  0  0
  140.0560   69.3230  225.3690 C   0  0  0  0  0  0  0  0  0  0  0  0
  139.7570   69.8110  224.1510 N   0  0  0  0  0  0  0  0  0  0  0  0
  139.5640   73.6660  223.1620 H   0  0  0  0  0  0  0  0  0  0  0  0
  138.5489   72.8319  220.5142 H   0  0  0  0  0  0  0  0  0  0  0  0
  138.6633   74.4981  221.1572 H   0  0  0  0  0  0  0  0  0  0  0  0
  140.1765   75.3519  222.3447 H   0  0  0  0  0  0  0  0  0  0  0  0
  141.9620   75.4890  222.4259 H   0  0  0  0  0  0  0  0  0  0  0  0
  140.2115   77.6000  222.1495 H   0  0  0  0  0  0  0  0  0  0  0  0
  141.9692   77.5949  221.6588 H   0  0  0  0  0  0  0  0  0  0  0  0
  139.5552   77.1220  219.9300 H   0  0  0  0  0  0  0  0  0  0  0  0
  140.7532   78.5153  219.9229 H   0  0  0  0  0  0  0  0  0  0  0  0
  140.8062   76.4672  218.1955 H   0  0  0  0  0  0  0  0  0  0  0  0
  142.2478   77.4353  218.7612 H   0  0  0  0  0  0  0  0  0  0  0  0
  142.2663   74.8084  218.7234 H   0  0  0  0  0  0  0  0  0  0  0  0
  143.9250   76.5644  219.5841 H   0  0  0  0  0  0  0  0  0  0  0  0
  143.4227   75.8073  221.1602 H   0  0  0  0  0  0  0  0  0  0  0  0
  145.2716   74.5939  221.7501 H   0  0  0  0  0  0  0  0  0  0  0  0
  146.7477   72.6292  221.3583 H   0  0  0  0  0  0  0  0  0  0  0  0
  145.1453   72.1598  217.4412 H   0  0  0  0  0  0  0  0  0  0  0  0
  143.6585   74.1217  217.8208 H   0  0  0  0  0  0  0  0  0  0  0  0
  140.9547   72.9244  224.4476 H   0  0  0  0  0  0  0  0  0  0  0  0
  141.5221   72.0507  226.7011 H   0  0  0  0  0  0  0  0  0  0  0  0
  141.5144   70.2316  228.3291 H   0  0  0  0  0  0  0  0  0  0  0  0
  139.7523   66.4454  227.1895 H   0  0  0  0  0  0  0  0  0  0  0  0
  139.2208   67.3829  224.9538 H   0  0  0  0  0  0  0  0  0  0  0  0
  1  2  2  0
  2  3  1  0
  3  4  1  0
  4  5  1  0
  5  6  2  0
  5  7  1  0
  7  8  1  0
  8  9  1  0
  9 10  1  0
 10 11  1  0
 11 12  1  0
 12 13  1  0
 13 14  1  0
 14 15  2  0
 15 16  1  0
 16 17  2  0
 17 18  1  0
 18 19  2  0
  2 20  1  0
 20 21  2  0
 21 22  1  0
 22 23  2  0
 23 24  1  0
 24 25  2  0
 25 26  1  0
 25 27  1  0
 27 28  2  0
 28 29  1  0
 29 30  2  0
 12  7  1  0
 19 14  1  0
 30 20  1  0
 29 23  1  0
  3 31  1  0
  4 32  1  0
  4 33  1  0
  8 34  1  0
  8 35  1  0
  9 36  1  0
  9 37  1  0
 10 38  1  0
 10 39  1  0
 11 40  1  0
 11 41  1  0
 12 42  1  6
 13 43  1  0
 13 44  1  0
 15 45  1  0
 16 46  1  0
 18 47  1  0
 19 48  1  0
 21 49  1  0
 22 50  1  0
 24 51  1  0
 27 52  1  0
 28 53  1  0
M  END
>  <smiles>  (73) 
O=C(NCC(=O)N1CCCCC1Cc1ccncc1)c1ccc2cc(F)ccc2n1

>  <score_type>  (73) 
oracle

>  <origin>  (73) 
autodockgpu

>  <m_score__min__energy>  (73) 
-8.8399999999999999

>  <m_primary>  (73) 
energy

>  <rmsd>  (73) 
3.20959894604174

>  <m_score__min__rmsd>  (73) 
3.20959894604174

>  <meeko>  (73) 
{"free_energy": -8.35, "intermolecular_energy": -10.14, "internal_energy": -1.5, "cluster_size": 8, "cluster_id": 1, "rank_in_cluster": 6}

>  <energy>  (73) 
-8.41

>  <cluster_rmsd>  (73) 
1.82

>  <cluster>  (73) 
2

$$$$

     RDKit          3D

 53 56  0  0  0  0  0  0  0  0999 V2000
  138.1110   70.9230  221.9450 O   0  0  0  0  0  0  0  0  0  0  0  0
  138.8560   71.3490  222.8510 C   0  0  0  0  0  0  0  0  0  0  0  0
  139.4070   72.6630  222.8140 N   0  0  0  0  0  0  0  0  0  0  0  0
  139.0780   73.4960  221.6920 C   0  0  0  0  0  0  0  0  0  0  0  0
  140.0660   74.5910  221.6140 C   0  0  0  0  0  0  0  0  0  0  0  0
  141.3170   74.3990  221.7160 O   0  0  0  0  0  0  0  0  0  0  0  0
  139.5810   75.9140  221.4140 N   0  0  0  0  0  0  0  0  0  0  0  0
  138.2260   76.1760  220.9130 C   0  0  0  0  0  0  0  0  0  0  0  0
  138.2930   77.2680  219.8640 C   0  0  0  0  0  0  0  0  0  0  0  0
  139.6670   77.4830  219.3250 C   0  0  0  0  0  0  0  0  0  0  0  0
  140.7300   77.6880  220.3680 C   0  0  0  0  0  0  0  0  0  0  0  0
  140.3840   77.0980  221.6900 C   0  0  1  0  0  0  0  0  0  0  0  0
  139.7510   78.0320  222.6540 C   0  0  0  0  0  0  0  0  0  0  0  0
  140.5710   79.2470  222.8910 C   0  0  0  0  0  0  0  0  0  0  0  0
  141.8020   79.1210  223.5450 C   0  0  0  0  0  0  0  0  0  0  0  0
  142.5990   80.2320  223.7880 C   0  0  0  0  0  0  0  0  0  0  0  0
  142.1720   81.4480  223.3840 N   0  0  0  0  0  0  0  0  0  0  0  0
  141.0000   81.6300  222.7520 C   0  0  0  0  0  0  0  0  0  0  0  0
  140.2050   80.5080  222.5110 C   0  0  0  0  0  0  0  0  0  0  0  0
  139.1930   70.4900  224.0040 C   0  0  0  0  0  0  0  0  0  0  0  0
  138.8590   69.1410  223.9520 C   0  0  0  0  0  0  0  0  0  0  0  0
  139.1650   68.3160  225.0250 C   0  0  0  0  0  0  0  0  0  0  0  0
  139.8010   68.8150  226.1470 C   0  0  0  0  0  0  0  0  0  0  0  0
  140.1080   68.0010  227.2140 C   0  0  0  0  0  0  0  0  0  0  0  0
  140.7450   68.5770  228.3020 C   0  0  0  0  0  0  0  0  0  0  0  0
  141.0400   67.7570  229.3450 F   0  0  0  0  0  0  0  0  0  0  0  0
  141.0740   69.9200  228.3450 C   0  0  0  0  0  0  0  0  0  0  0  0
  140.7490   70.7030  227.2570 C   0  0  0  0  0  0  0  0  0  0  0  0
  140.1100   70.1740  226.1410 C   0  0  0  0  0  0  0  0  0  0  0  0
  139.8060   70.9640  225.0930 N   0  0  0  0  0  0  0  0  0  0  0  0
  140.0320   73.0420  223.5570 H   0  0  0  0  0  0  0  0  0  0  0  0
  139.1095   72.9016  220.7670 H   0  0  0  0  0  0  0  0  0  0  0  0
  138.0663   73.9100  221.8145 H   0  0  0  0  0  0  0  0  0  0  0  0
  137.8140   75.2593  220.4659 H   0  0  0  0  0  0  0  0  0  0  0  0
  137.5773   76.4950  221.7421 H   0  0  0  0  0  0  0  0  0  0  0  0
  137.6298   76.9930  219.0306 H   0  0  0  0  0  0  0  0  0  0  0  0
  137.9820   78.2054  220.3484 H   0  0  0  0  0  0  0  0  0  0  0  0
  139.9411   76.6020  218.7261 H   0  0  0  0  0  0  0  0  0  0  0  0
  139.6267   78.4124  218.7380 H   0  0  0  0  0  0  0  0  0  0  0  0
  141.6615   77.2236  220.0122 H   0  0  0  0  0  0  0  0  0  0  0  0
  140.8354   78.7731  220.5147 H   0  0  0  0  0  0  0  0  0  0  0  0
  141.3098   76.8332  222.2217 H   0  0  0  0  0  0  0  0  0  0  0  0
  138.7722   78.3390  222.2568 H   0  0  0  0  0  0  0  0  0  0  0  0
  139.6507   77.5042  223.6139 H   0  0  0  0  0  0  0  0  0  0  0  0
  142.1432   78.1274  223.8713 H   0  0  0  0  0  0  0  0  0  0  0  0
  143.5651   80.1231  224.3026 H   0  0  0  0  0  0  0  0  0  0  0  0
  140.6770   82.6324  222.4343 H   0  0  0  0  0  0  0  0  0  0  0  0
  139.2439   80.6444  221.9937 H   0  0  0  0  0  0  0  0  0  0  0  0
  138.3548   68.7301  223.0649 H   0  0  0  0  0  0  0  0  0  0  0  0
  138.8978   67.2498  224.9825 H   0  0  0  0  0  0  0  0  0  0  0  0
  139.8564   66.9302  227.2035 H   0  0  0  0  0  0  0  0  0  0  0  0
  141.5801   70.3509  229.2214 H   0  0  0  0  0  0  0  0  0  0  0  0
  141.0018   71.7735  227.2725 H   0  0  0  0  0  0  0  0  0  0  0  0
  1  2  2  0
  2  3  1  0
  3  4  1  0
  4  5  1  0
  5  6  2  0
  5  7  1  0
  7  8  1  0
  8  9  1  0
  9 10  1  0
 10 11  1  0
 11 12  1  0
 12 13  1  0
 13 14  1  0
 14 15  2  0
 15 16  1  0
 16 17  2  0
 17 18  1  0
 18 19  2  0
  2 20  1  0
 20 21  2  0
 21 22  1  0
 22 23  2  0
 23 24  1  0
 24 25  2  0
 25 26  1  0
 25 27  1  0
 27 28  2  0
 28 29  1  0
 29 30  2  0
 12  7  1  0
 19 14  1  0
 30 20  1  0
 29 23  1  0
  3 31  1  0
  4 32  1  0
  4 33  1  0
  8 34  1  0
  8 35  1  0
  9 36  1  0
  9 37  1  0
 10 38  1  0
 10 39  1  0
 11 40  1  0
 11 41  1  0
 12 42  1  1
 13 43  1  0
 13 44  1  0
 15 45  1  0
 16 46  1  0
 18 47  1  0
 19 48  1  0
 21 49  1  0
 22 50  1  0
 24 51  1  0
 27 52  1  0
 28 53  1  0
M  END
>  <smiles>  (74) 
O=C(NCC(=O)N1CCCCC1Cc1ccncc1)c1ccc2cc(F)ccc2n1

>  <score_type>  (74) 
oracle

>  <origin>  (74) 
autodockgpu

>  <m_score__min__energy>  (74) 
-8.8399999999999999

>  <m_primary>  (74) 
energy

>  <rmsd>  (74) 
2.129472244909433

>  <m_score__min__rmsd>  (74) 
2.129472244909433

>  <meeko>  (74) 
{"free_energy": -8.09, "intermolecular_energy": -9.88, "internal_energy": -1.65, "cluster_size": 35, "cluster_id": 2, "rank_in_cluster": 31}

>  <energy>  (74) 
-8.4

>  <cluster_rmsd>  (74) 
1.76

>  <cluster>  (74) 
2

$$$$

     RDKit          3D

 53 56  0  0  0  0  0  0  0  0999 V2000
  141.8540   73.7240  220.9800 O   0  0  0  0  0  0  0  0  0  0  0  0
  140.9410   74.3390  221.5660 C   0  0  0  0  0  0  0  0  0  0  0  0
  139.8970   73.6560  222.2540 N   0  0  0  0  0  0  0  0  0  0  0  0
  139.9230   72.2200  222.2550 C   0  0  0  0  0  0  0  0  0  0  0  0
  138.6510   71.7270  222.8190 C   0  0  0  0  0  0  0  0  0  0  0  0
  137.6190   72.4570  222.9360 O   0  0  0  0  0  0  0  0  0  0  0  0
  138.5920   70.3710  223.2480 N   0  0  0  0  0  0  0  0  0  0  0  0
  139.1720   69.2800  222.4530 C   0  0  0  0  0  0  0  0  0  0  0  0
  138.2000   68.1190  222.4280 C   0  0  0  0  0  0  0  0  0  0  0  0
  136.8130   68.5040  222.8190 C   0  0  0  0  0  0  0  0  0  0  0  0
  136.7070   69.2530  224.1190 C   0  0  0  0  0  0  0  0  0  0  0  0
  137.9590   69.9650  224.4950 C   0  0  1  0  0  0  0  0  0  0  0  0
  138.8650   69.2160  225.4030 C   0  0  0  0  0  0  0  0  0  0  0  0
  139.7230   70.1140  226.2170 C   0  0  0  0  0  0  0  0  0  0  0  0
  140.5660   71.0240  225.5680 C   0  0  0  0  0  0  0  0  0  0  0  0
  141.3850   71.8810  226.2920 C   0  0  0  0  0  0  0  0  0  0  0  0
  141.3630   71.8280  227.6410 N   0  0  0  0  0  0  0  0  0  0  0  0
  140.5740   70.9750  228.3190 C   0  0  0  0  0  0  0  0  0  0  0  0
  139.7530   70.1180  227.5830 C   0  0  0  0  0  0  0  0  0  0  0  0
  140.9160   75.8160  221.5640 C   0  0  0  0  0  0  0  0  0  0  0  0
  140.6090   76.4770  220.3790 C   0  0  0  0  0  0  0  0  0  0  0  0
  140.5810   77.8640  220.3550 C   0  0  0  0  0  0  0  0  0  0  0  0
  140.8510   78.6010  221.4930 C   0  0  0  0  0  0  0  0  0  0  0  0
  140.8240   79.9780  221.4750 C   0  0  0  0  0  0  0  0  0  0  0  0
  141.1070   80.6440  222.6570 C   0  0  0  0  0  0  0  0  0  0  0  0
  141.0750   82.0030  222.6180 F   0  0  0  0  0  0  0  0  0  0  0  0
  141.4110   79.9790  223.8310 C   0  0  0  0  0  0  0  0  0  0  0  0
  141.4290   78.6000  223.8090 C   0  0  0  0  0  0  0  0  0  0  0  0
  141.1510   77.8840  222.6490 C   0  0  0  0  0  0  0  0  0  0  0  0
  141.1770   76.5370  222.6590 N   0  0  0  0  0  0  0  0  0  0  0  0
  139.1230   74.1450  222.7510 H   0  0  0  0  0  0  0  0  0  0  0  0
  140.0399   71.8506  221.2255 H   0  0  0  0  0  0  0  0  0  0  0  0
  140.7676   71.8596  222.8606 H   0  0  0  0  0  0  0  0  0  0  0  0
  139.3562   69.6292  221.4263 H   0  0  0  0  0  0  0  0  0  0  0  0
  140.1240   68.9587  222.9008 H   0  0  0  0  0  0  0  0  0  0  0  0
  138.1740   67.7070  221.4084 H   0  0  0  0  0  0  0  0  0  0  0  0
  138.5536   67.3814  223.1634 H   0  0  0  0  0  0  0  0  0  0  0  0
  136.3976   69.1398  222.0233 H   0  0  0  0  0  0  0  0  0  0  0  0
  136.2592   67.5638  222.9583 H   0  0  0  0  0  0  0  0  0  0  0  0
  135.8982   69.9933  224.0299 H   0  0  0  0  0  0  0  0  0  0  0  0
  136.5067   68.5109  224.9059 H   0  0  0  0  0  0  0  0  0  0  0  0
  137.7062   70.8391  225.1131 H   0  0  0  0  0  0  0  0  0  0  0  0
  138.2553   68.6005  226.0809 H   0  0  0  0  0  0  0  0  0  0  0  0
  139.5262   68.5965  224.7793 H   0  0  0  0  0  0  0  0  0  0  0  0
  140.5800   71.0609  224.4687 H   0  0  0  0  0  0  0  0  0  0  0  0
  142.0430   72.5936  225.7731 H   0  0  0  0  0  0  0  0  0  0  0  0
  140.5755   70.9533  229.4188 H   0  0  0  0  0  0  0  0  0  0  0  0
  139.1028   69.4163  228.1261 H   0  0  0  0  0  0  0  0  0  0  0  0
  140.3897   75.9034  219.4664 H   0  0  0  0  0  0  0  0  0  0  0  0
  140.3404   78.3849  219.4165 H   0  0  0  0  0  0  0  0  0  0  0  0
  140.5860   80.5302  220.5539 H   0  0  0  0  0  0  0  0  0  0  0  0
  141.6319   80.5335  224.7550 H   0  0  0  0  0  0  0  0  0  0  0  0
  141.6693   78.0524  224.7322 H   0  0  0  0  0  0  0  0  0  0  0  0
  1  2  2  0
  2  3  1  0
  3  4  1  0
  4  5  1  0
  5  6  2  0
  5  7  1  0
  7  8  1  0
  8  9  1  0
  9 10  1  0
 10 11  1  0
 11 12  1  0
 12 13  1  0
 13 14  1  0
 14 15  2  0
 15 16  1  0
 16 17  2  0
 17 18  1  0
 18 19  2  0
  2 20  1  0
 20 21  2  0
 21 22  1  0
 22 23  2  0
 23 24  1  0
 24 25  2  0
 25 26  1  0
 25 27  1  0
 27 28  2  0
 28 29  1  0
 29 30  2  0
 12  7  1  0
 19 14  1  0
 30 20  1  0
 29 23  1  0
  3 31  1  0
  4 32  1  0
  4 33  1  0
  8 34  1  0
  8 35  1  0
  9 36  1  0
  9 37  1  0
 10 38  1  0
 10 39  1  0
 11 40  1  0
 11 41  1  0
 12 42  1  1
 13 43  1  0
 13 44  1  0
 15 45  1  0
 16 46  1  0
 18 47  1  0
 19 48  1  0
 21 49  1  0
 22 50  1  0
 24 51  1  0
 27 52  1  0
 28 53  1  0
M  END
>  <smiles>  (75) 
O=C(NCC(=O)N1CCCCC1Cc1ccncc1)c1ccc2cc(F)ccc2n1

>  <score_type>  (75) 
oracle

>  <origin>  (75) 
autodockgpu

>  <m_score__min__energy>  (75) 
-8.8399999999999999

>  <m_primary>  (75) 
energy

>  <rmsd>  (75) 
8.656356412918392

>  <m_score__min__rmsd>  (75) 
8.656356412918392

>  <meeko>  (75) 
{"free_energy": -7.67, "intermolecular_energy": -9.46, "internal_energy": -1.94, "cluster_size": 6, "cluster_id": 4, "rank_in_cluster": 5}

>  <energy>  (75) 
-8.39

>  <cluster_rmsd>  (75) 
1.85

>  <cluster>  (75) 
2

$$$$

     RDKit          3D

 53 56  0  0  0  0  0  0  0  0999 V2000
  141.0040   71.7920  221.2210 O   0  0  0  0  0  0  0  0  0  0  0  0
  140.4590   72.2860  222.2280 C   0  0  0  0  0  0  0  0  0  0  0  0
  140.0110   73.6390  222.2530 N   0  0  0  0  0  0  0  0  0  0  0  0
  140.2070   74.4310  221.0720 C   0  0  0  0  0  0  0  0  0  0  0  0
  140.3940   75.8390  221.4740 C   0  0  0  0  0  0  0  0  0  0  0  0
  139.8020   76.3550  222.4720 O   0  0  0  0  0  0  0  0  0  0  0  0
  141.2810   76.6420  220.7030 N   0  0  0  0  0  0  0  0  0  0  0  0
  141.8000   77.9220  221.2020 C   0  0  0  0  0  0  0  0  0  0  0  0
  141.7310   78.9480  220.0890 C   0  0  0  0  0  0  0  0  0  0  0  0
  140.8180   78.5510  218.9790 C   0  0  0  0  0  0  0  0  0  0  0  0
  141.0630   77.1780  218.4170 C   0  0  0  0  0  0  0  0  0  0  0  0
  141.7380   76.2590  219.3740 C   0  0  1  0  0  0  0  0  0  0  0  0
  143.2160   76.1920  219.2530 C   0  0  0  0  0  0  0  0  0  0  0  0
  143.7620   74.8770  219.6750 C   0  0  0  0  0  0  0  0  0  0  0  0
  144.9100   74.8410  220.4760 C   0  0  0  0  0  0  0  0  0  0  0  0
  145.4540   73.6330  220.8910 C   0  0  0  0  0  0  0  0  0  0  0  0
  144.8610   72.4800  220.5120 N   0  0  0  0  0  0  0  0  0  0  0  0
  143.7580   72.4530  219.7440 C   0  0  0  0  0  0  0  0  0  0  0  0
  143.2170   73.6720  219.3320 C   0  0  0  0  0  0  0  0  0  0  0  0
  140.2580   71.4700  223.4420 C   0  0  0  0  0  0  0  0  0  0  0  0
  139.5950   70.2520  223.3270 C   0  0  0  0  0  0  0  0  0  0  0  0
  139.3960   69.4690  224.4550 C   0  0  0  0  0  0  0  0  0  0  0  0
  139.8480   69.8810  225.6950 C   0  0  0  0  0  0  0  0  0  0  0  0
  139.6530   69.1080  226.8180 C   0  0  0  0  0  0  0  0  0  0  0  0
  140.1350   69.5910  228.0240 C   0  0  0  0  0  0  0  0  0  0  0  0
  139.9330   68.8140  229.1210 F   0  0  0  0  0  0  0  0  0  0  0  0
  140.7930   70.8030  228.1310 C   0  0  0  0  0  0  0  0  0  0  0  0
  140.9680   71.5490  226.9840 C   0  0  0  0  0  0  0  0  0  0  0  0
  140.5040   71.1090  225.7480 C   0  0  0  0  0  0  0  0  0  0  0  0
  140.6910   71.8600  224.6460 N   0  0  0  0  0  0  0  0  0  0  0  0
  139.5540   74.0750  223.0810 H   0  0  0  0  0  0  0  0  0  0  0  0
  141.0986   74.0781  220.5331 H   0  0  0  0  0  0  0  0  0  0  0  0
  139.3323   74.3422  220.4109 H   0  0  0  0  0  0  0  0  0  0  0  0
  141.1917   78.2600  222.0539 H   0  0  0  0  0  0  0  0  0  0  0  0
  142.8425   77.7984  221.5304 H   0  0  0  0  0  0  0  0  0  0  0  0
  141.3743   79.8988  220.5118 H   0  0  0  0  0  0  0  0  0  0  0  0
  142.7417   79.0376  219.6643 H   0  0  0  0  0  0  0  0  0  0  0  0
  139.7855   78.5861  219.3569 H   0  0  0  0  0  0  0  0  0  0  0  0
  141.0058   79.2582  218.1577 H   0  0  0  0  0  0  0  0  0  0  0  0
  140.0946   76.7385  218.1357 H   0  0  0  0  0  0  0  0  0  0  0  0
  141.7331   77.2959  217.5526 H   0  0  0  0  0  0  0  0  0  0  0  0
  141.4544   75.2222  219.1406 H   0  0  0  0  0  0  0  0  0  0  0  0
  143.4924   76.3682  218.2030 H   0  0  0  0  0  0  0  0  0  0  0  0
  143.6409   76.9591  219.9171 H   0  0  0  0  0  0  0  0  0  0  0  0
  145.3878   75.7837  220.7809 H   0  0  0  0  0  0  0  0  0  0  0  0
  146.3561   73.6150  221.5202 H   0  0  0  0  0  0  0  0  0  0  0  0
  143.2959   71.4993  219.4492 H   0  0  0  0  0  0  0  0  0  0  0  0
  142.3136   73.6621  218.7046 H   0  0  0  0  0  0  0  0  0  0  0  0
  139.2305   69.9116  222.3466 H   0  0  0  0  0  0  0  0  0  0  0  0
  138.8712   68.5068  224.3614 H   0  0  0  0  0  0  0  0  0  0  0  0
  139.1326   68.1406  226.7596 H   0  0  0  0  0  0  0  0  0  0  0  0
  141.1657   71.1613  229.1019 H   0  0  0  0  0  0  0  0  0  0  0  0
  141.4876   72.5164  227.0479 H   0  0  0  0  0  0  0  0  0  0  0  0
  1  2  2  0
  2  3  1  0
  3  4  1  0
  4  5  1  0
  5  6  2  0
  5  7  1  0
  7  8  1  0
  8  9  1  0
  9 10  1  0
 10 11  1  0
 11 12  1  0
 12 13  1  0
 13 14  1  0
 14 15  2  0
 15 16  1  0
 16 17  2  0
 17 18  1  0
 18 19  2  0
  2 20  1  0
 20 21  2  0
 21 22  1  0
 22 23  2  0
 23 24  1  0
 24 25  2  0
 25 26  1  0
 25 27  1  0
 27 28  2  0
 28 29  1  0
 29 30  2  0
 12  7  1  0
 19 14  1  0
 30 20  1  0
 29 23  1  0
  3 31  1  0
  4 32  1  0
  4 33  1  0
  8 34  1  0
  8 35  1  0
  9 36  1  0
  9 37  1  0
 10 38  1  0
 10 39  1  0
 11 40  1  0
 11 41  1  0
 12 42  1  6
 13 43  1  0
 13 44  1  0
 15 45  1  0
 16 46  1  0
 18 47  1  0
 19 48  1  0
 21 49  1  0
 22 50  1  0
 24 51  1  0
 27 52  1  0
 28 53  1  0
M  END
>  <smiles>  (76) 
O=C(NCC(=O)N1CCCCC1Cc1ccncc1)c1ccc2cc(F)ccc2n1

>  <score_type>  (76) 
oracle

>  <origin>  (76) 
autodockgpu

>  <m_score__min__energy>  (76) 
-8.8399999999999999

>  <m_primary>  (76) 
energy

>  <rmsd>  (76) 
2.5541443409648155

>  <m_score__min__rmsd>  (76) 
2.5541443409648155

>  <meeko>  (76) 
{"free_energy": -8.0, "intermolecular_energy": -9.79, "internal_energy": -2.13, "cluster_size": 8, "cluster_id": 1, "rank_in_cluster": 7}

>  <energy>  (76) 
-8.38

>  <cluster_rmsd>  (76) 
1.83

>  <cluster>  (76) 
2

$$$$

     RDKit          3D

 53 56  0  0  0  0  0  0  0  0999 V2000
  140.6110   71.7330  221.0680 O   0  0  0  0  0  0  0  0  0  0  0  0
  140.1240   72.2310  222.1030 C   0  0  0  0  0  0  0  0  0  0  0  0
  139.6570   73.5770  222.1410 N   0  0  0  0  0  0  0  0  0  0  0  0
  139.7620   74.3570  220.9400 C   0  0  0  0  0  0  0  0  0  0  0  0
  140.1550   75.7320  221.3050 C   0  0  0  0  0  0  0  0  0  0  0  0
  140.0420   76.1920  222.4840 O   0  0  0  0  0  0  0  0  0  0  0  0
  140.6820   76.5700  220.2830 N   0  0  0  0  0  0  0  0  0  0  0  0
  140.0060   76.7350  218.9900 C   0  0  0  0  0  0  0  0  0  0  0  0
  141.0380   76.6700  217.8830 C   0  0  0  0  0  0  0  0  0  0  0  0
  142.3290   76.0620  218.3170 C   0  0  0  0  0  0  0  0  0  0  0  0
  142.9250   76.6630  219.5590 C   0  0  0  0  0  0  0  0  0  0  0  0
  141.9200   77.3220  220.4390 C   0  0  1  0  0  0  0  0  0  0  0  0
  141.7560   78.7820  220.2310 C   0  0  0  0  0  0  0  0  0  0  0  0
  141.7920   79.5460  221.5050 C   0  0  0  0  0  0  0  0  0  0  0  0
  141.8240   78.8460  222.7170 C   0  0  0  0  0  0  0  0  0  0  0  0
  141.8570   79.5210  223.9310 C   0  0  0  0  0  0  0  0  0  0  0  0
  141.8570   80.8720  223.9320 N   0  0  0  0  0  0  0  0  0  0  0  0
  141.8270   81.5960  222.8000 C   0  0  0  0  0  0  0  0  0  0  0  0
  141.7960   80.9100  221.5840 C   0  0  0  0  0  0  0  0  0  0  0  0
  140.0170   71.4270  223.3370 C   0  0  0  0  0  0  0  0  0  0  0  0
  139.3550   70.2050  223.2820 C   0  0  0  0  0  0  0  0  0  0  0  0
  139.2420   69.4330  224.4300 C   0  0  0  0  0  0  0  0  0  0  0  0
  139.7800   69.8610  225.6300 C   0  0  0  0  0  0  0  0  0  0  0  0
  139.6710   69.1000  226.7730 C   0  0  0  0  0  0  0  0  0  0  0  0
  140.2360   69.5980  227.9350 C   0  0  0  0  0  0  0  0  0  0  0  0
  140.1190   68.8320  229.0520 F   0  0  0  0  0  0  0  0  0  0  0  0
  140.8930   70.8140  227.9810 C   0  0  0  0  0  0  0  0  0  0  0  0
  140.9810   71.5480  226.8160 C   0  0  0  0  0  0  0  0  0  0  0  0
  140.4310   71.0930  225.6230 C   0  0  0  0  0  0  0  0  0  0  0  0
  140.5330   71.8320  224.5020 N   0  0  0  0  0  0  0  0  0  0  0  0
  139.2470   74.0160  222.9920 H   0  0  0  0  0  0  0  0  0  0  0  0
  140.5225   73.9175  220.2779 H   0  0  0  0  0  0  0  0  0  0  0  0
  138.7960   74.3691  220.4139 H   0  0  0  0  0  0  0  0  0  0  0  0
  139.2681   75.9306  218.8542 H   0  0  0  0  0  0  0  0  0  0  0  0
  139.4902   77.7062  218.9612 H   0  0  0  0  0  0  0  0  0  0  0  0
  140.6283   76.0685  217.0582 H   0  0  0  0  0  0  0  0  0  0  0  0
  141.2515   77.7041  217.5745 H   0  0  0  0  0  0  0  0  0  0  0  0
  142.1570   74.9917  218.5038 H   0  0  0  0  0  0  0  0  0  0  0  0
  143.0478   76.2522  217.5064 H   0  0  0  0  0  0  0  0  0  0  0  0
  143.4182   75.8633  220.1311 H   0  0  0  0  0  0  0  0  0  0  0  0
  143.6327   77.4406  219.2357 H   0  0  0  0  0  0  0  0  0  0  0  0
  142.2747   77.2905  221.4798 H   0  0  0  0  0  0  0  0  0  0  0  0
  142.5692   79.1394  219.5823 H   0  0  0  0  0  0  0  0  0  0  0  0
  140.7702   78.9454  219.7711 H   0  0  0  0  0  0  0  0  0  0  0  0
  141.8230   77.7460  222.7080 H   0  0  0  0  0  0  0  0  0  0  0  0
  141.8828   78.9629  224.8786 H   0  0  0  0  0  0  0  0  0  0  0  0
  141.8269   82.6956  222.8305 H   0  0  0  0  0  0  0  0  0  0  0  0
  141.7739   81.4921  220.6509 H   0  0  0  0  0  0  0  0  0  0  0  0
  138.9233   69.8522  222.3338 H   0  0  0  0  0  0  0  0  0  0  0  0
  138.7172   68.4673  224.3847 H   0  0  0  0  0  0  0  0  0  0  0  0
  139.1528   68.1298  226.7630 H   0  0  0  0  0  0  0  0  0  0  0  0
  141.3325   71.1851  228.9186 H   0  0  0  0  0  0  0  0  0  0  0  0
  141.4996   72.5180  226.8315 H   0  0  0  0  0  0  0  0  0  0  0  0
  1  2  2  0
  2  3  1  0
  3  4  1  0
  4  5  1  0
  5  6  2  0
  5  7  1  0
  7  8  1  0
  8  9  1  0
  9 10  1  0
 10 11  1  0
 11 12  1  0
 12 13  1  0
 13 14  1  0
 14 15  2  0
 15 16  1  0
 16 17  2  0
 17 18  1  0
 18 19  2  0
  2 20  1  0
 20 21  2  0
 21 22  1  0
 22 23  2  0
 23 24  1  0
 24 25  2  0
 25 26  1  0
 25 27  1  0
 27 28  2  0
 28 29  1  0
 29 30  2  0
 12  7  1  0
 19 14  1  0
 30 20  1  0
 29 23  1  0
  3 31  1  0
  4 32  1  0
  4 33  1  0
  8 34  1  0
  8 35  1  0
  9 36  1  0
  9 37  1  0
 10 38  1  0
 10 39  1  0
 11 40  1  0
 11 41  1  0
 12 42  1  1
 13 43  1  0
 13 44  1  0
 15 45  1  0
 16 46  1  0
 18 47  1  0
 19 48  1  0
 21 49  1  0
 22 50  1  0
 24 51  1  0
 27 52  1  0
 28 53  1  0
M  END
>  <smiles>  (77) 
O=C(NCC(=O)N1CCCCC1Cc1ccncc1)c1ccc2cc(F)ccc2n1

>  <score_type>  (77) 
oracle

>  <origin>  (77) 
autodockgpu

>  <m_score__min__energy>  (77) 
-8.8399999999999999

>  <m_primary>  (77) 
energy

>  <rmsd>  (77) 
1.575157369131708

>  <m_score__min__rmsd>  (77) 
1.575157369131708

>  <meeko>  (77) 
{"free_energy": -8.56, "intermolecular_energy": -10.35, "internal_energy": -1.81, "cluster_size": 35, "cluster_id": 2, "rank_in_cluster": 7}

>  <energy>  (77) 
-8.37

>  <cluster_rmsd>  (77) 
1.85

>  <cluster>  (77) 
2

$$$$

     RDKit          3D

 53 56  0  0  0  0  0  0  0  0999 V2000
  140.3300   71.5120  221.0230 O   0  0  0  0  0  0  0  0  0  0  0  0
  140.0470   72.0550  222.1100 C   0  0  0  0  0  0  0  0  0  0  0  0
  139.7940   73.4540  222.2070 N   0  0  0  0  0  0  0  0  0  0  0  0
  139.8730   74.2350  221.0050 C   0  0  0  0  0  0  0  0  0  0  0  0
  140.2010   75.6270  221.3680 C   0  0  0  0  0  0  0  0  0  0  0  0
  140.0730   76.0810  222.5480 O   0  0  0  0  0  0  0  0  0  0  0  0
  140.6810   76.4900  220.3430 N   0  0  0  0  0  0  0  0  0  0  0  0
  140.0340   76.5650  219.0270 C   0  0  0  0  0  0  0  0  0  0  0  0
  141.1020   76.5740  217.9530 C   0  0  0  0  0  0  0  0  0  0  0  0
  142.4290   76.0980  218.4390 C   0  0  0  0  0  0  0  0  0  0  0  0
  142.9270   76.7770  219.6850 C   0  0  0  0  0  0  0  0  0  0  0  0
  141.8380   77.3560  220.5190 C   0  0  1  0  0  0  0  0  0  0  0  0
  141.5470   78.7910  220.2730 C   0  0  0  0  0  0  0  0  0  0  0  0
  141.7300   79.6250  221.4880 C   0  0  0  0  0  0  0  0  0  0  0  0
  142.0360   79.0010  222.7030 C   0  0  0  0  0  0  0  0  0  0  0  0
  142.2140   79.7420  223.8630 C   0  0  0  0  0  0  0  0  0  0  0  0
  142.0880   81.0860  223.8090 N   0  0  0  0  0  0  0  0  0  0  0  0
  141.7960   81.7410  222.6720 C   0  0  0  0  0  0  0  0  0  0  0  0
  141.6190   80.9870  221.5100 C   0  0  0  0  0  0  0  0  0  0  0  0
  139.9670   71.2510  223.3450 C   0  0  0  0  0  0  0  0  0  0  0  0
  139.4170   69.9740  223.2770 C   0  0  0  0  0  0  0  0  0  0  0  0
  139.3310   69.2020  224.4260 C   0  0  0  0  0  0  0  0  0  0  0  0
  139.7850   69.6810  225.6410 C   0  0  0  0  0  0  0  0  0  0  0  0
  139.7020   68.9180  226.7850 C   0  0  0  0  0  0  0  0  0  0  0  0
  140.1780   69.4710  227.9640 C   0  0  0  0  0  0  0  0  0  0  0  0
  140.0870   68.7020  229.0820 F   0  0  0  0  0  0  0  0  0  0  0  0
  140.7230   70.7400  228.0230 C   0  0  0  0  0  0  0  0  0  0  0  0
  140.7870   71.4740  226.8570 C   0  0  0  0  0  0  0  0  0  0  0  0
  140.3240   70.9660  225.6480 C   0  0  0  0  0  0  0  0  0  0  0  0
  140.4020   71.7060  224.5250 N   0  0  0  0  0  0  0  0  0  0  0  0
  139.5570   73.9320  223.1020 H   0  0  0  0  0  0  0  0  0  0  0  0
  140.6575   73.8283  220.3499 H   0  0  0  0  0  0  0  0  0  0  0  0
  138.9112   74.2026  220.4722 H   0  0  0  0  0  0  0  0  0  0  0  0
  139.3783   75.6928  218.8880 H   0  0  0  0  0  0  0  0  0  0  0  0
  139.4318   77.4831  218.9604 H   0  0  0  0  0  0  0  0  0  0  0  0
  140.7760   75.9203  217.1306 H   0  0  0  0  0  0  0  0  0  0  0  0
  141.2286   77.6170  217.6271 H   0  0  0  0  0  0  0  0  0  0  0  0
  142.3511   75.0202  218.6449 H   0  0  0  0  0  0  0  0  0  0  0  0
  143.1526   76.3383  217.6461 H   0  0  0  0  0  0  0  0  0  0  0  0
  143.4739   76.0385  220.2896 H   0  0  0  0  0  0  0  0  0  0  0  0
  143.5693   77.6109  219.3655 H   0  0  0  0  0  0  0  0  0  0  0  0
  142.1600   77.3774  221.5706 H   0  0  0  0  0  0  0  0  0  0  0  0
  142.2238   79.1586  219.4876 H   0  0  0  0  0  0  0  0  0  0  0  0
  140.4930   78.8708  219.9686 H   0  0  0  0  0  0  0  0  0  0  0  0
  142.1370   77.9062  222.7390 H   0  0  0  0  0  0  0  0  0  0  0  0
  142.4543   79.2420  224.8129 H   0  0  0  0  0  0  0  0  0  0  0  0
  141.6995   82.8367  222.6574 H   0  0  0  0  0  0  0  0  0  0  0  0
  141.3802   81.5113  220.5730 H   0  0  0  0  0  0  0  0  0  0  0  0
  139.0526   69.5793  222.3171 H   0  0  0  0  0  0  0  0  0  0  0  0
  138.8951   68.1936  224.3698 H   0  0  0  0  0  0  0  0  0  0  0  0
  139.2730   67.9053  226.7638 H   0  0  0  0  0  0  0  0  0  0  0  0
  141.0949   71.1525  228.9725 H   0  0  0  0  0  0  0  0  0  0  0  0
  141.2151   72.4869  226.8840 H   0  0  0  0  0  0  0  0  0  0  0  0
  1  2  2  0
  2  3  1  0
  3  4  1  0
  4  5  1  0
  5  6  2  0
  5  7  1  0
  7  8  1  0
  8  9  1  0
  9 10  1  0
 10 11  1  0
 11 12  1  0
 12 13  1  0
 13 14  1  0
 14 15  2  0
 15 16  1  0
 16 17  2  0
 17 18  1  0
 18 19  2  0
  2 20  1  0
 20 21  2  0
 21 22  1  0
 22 23  2  0
 23 24  1  0
 24 25  2  0
 25 26  1  0
 25 27  1  0
 27 28  2  0
 28 29  1  0
 29 30  2  0
 12  7  1  0
 19 14  1  0
 30 20  1  0
 29 23  1  0
  3 31  1  0
  4 32  1  0
  4 33  1  0
  8 34  1  0
  8 35  1  0
  9 36  1  0
  9 37  1  0
 10 38  1  0
 10 39  1  0
 11 40  1  0
 11 41  1  0
 12 42  1  1
 13 43  1  0
 13 44  1  0
 15 45  1  0
 16 46  1  0
 18 47  1  0
 19 48  1  0
 21 49  1  0
 22 50  1  0
 24 51  1  0
 27 52  1  0
 28 53  1  0
M  END
>  <smiles>  (78) 
O=C(NCC(=O)N1CCCCC1Cc1ccncc1)c1ccc2cc(F)ccc2n1

>  <score_type>  (78) 
oracle

>  <origin>  (78) 
autodockgpu

>  <m_score__min__energy>  (78) 
-8.8399999999999999

>  <m_primary>  (78) 
energy

>  <rmsd>  (78) 
1.5158688187408866

>  <m_score__min__rmsd>  (78) 
1.5158688187408866

>  <meeko>  (78) 
{"free_energy": -8.54, "intermolecular_energy": -10.33, "internal_energy": -1.93, "cluster_size": 35, "cluster_id": 2, "rank_in_cluster": 8}

>  <energy>  (78) 
-8.35

>  <cluster_rmsd>  (78) 
1.77

>  <cluster>  (78) 
2

$$$$

     RDKit          3D

 53 56  0  0  0  0  0  0  0  0999 V2000
  141.1110   72.9440  222.3040 O   0  0  0  0  0  0  0  0  0  0  0  0
  140.0130   72.6310  222.8080 C   0  0  0  0  0  0  0  0  0  0  0  0
  138.7900   73.2090  222.3620 N   0  0  0  0  0  0  0  0  0  0  0  0
  138.8520   74.1760  221.3030 C   0  0  0  0  0  0  0  0  0  0  0  0
  139.4470   75.4180  221.8330 C   0  0  0  0  0  0  0  0  0  0  0  0
  140.7010   75.5970  221.9280 O   0  0  0  0  0  0  0  0  0  0  0  0
  138.5660   76.4540  222.2540 N   0  0  0  0  0  0  0  0  0  0  0  0
  137.3810   76.1780  223.0760 C   0  0  0  0  0  0  0  0  0  0  0  0
  136.2090   76.9670  222.5310 C   0  0  0  0  0  0  0  0  0  0  0  0
  136.4230   77.4530  221.1370 C   0  0  0  0  0  0  0  0  0  0  0  0
  137.7100   78.1990  220.9180 C   0  0  0  0  0  0  0  0  0  0  0  0
  138.7700   77.8530  221.9040 C   0  0  1  0  0  0  0  0  0  0  0  0
  138.8560   78.7510  223.0830 C   0  0  0  0  0  0  0  0  0  0  0  0
  140.1840   79.4060  223.2040 C   0  0  0  0  0  0  0  0  0  0  0  0
  141.3400   78.6460  222.9940 C   0  0  0  0  0  0  0  0  0  0  0  0
  142.6000   79.2180  223.0980 C   0  0  0  0  0  0  0  0  0  0  0  0
  142.7040   80.5290  223.4080 N   0  0  0  0  0  0  0  0  0  0  0  0
  141.6290   81.3090  223.6200 C   0  0  0  0  0  0  0  0  0  0  0  0
  140.3650   80.7250  223.5120 C   0  0  0  0  0  0  0  0  0  0  0  0
  139.9510   71.6360  223.8980 C   0  0  0  0  0  0  0  0  0  0  0  0
  139.2560   70.4510  223.6820 C   0  0  0  0  0  0  0  0  0  0  0  0
  139.1840   69.5030  224.6920 C   0  0  0  0  0  0  0  0  0  0  0  0
  139.7960   69.7180  225.9140 C   0  0  0  0  0  0  0  0  0  0  0  0
  139.7280   68.7800  226.9200 C   0  0  0  0  0  0  0  0  0  0  0  0
  140.3670   69.0710  228.1150 C   0  0  0  0  0  0  0  0  0  0  0  0
  140.2890   68.1330  229.0960 F   0  0  0  0  0  0  0  0  0  0  0  0
  141.0560   70.2520  228.3220 C   0  0  0  0  0  0  0  0  0  0  0  0
  141.1000   71.1660  227.2900 C   0  0  0  0  0  0  0  0  0  0  0  0
  140.4770   70.9230  226.0710 C   0  0  0  0  0  0  0  0  0  0  0  0
  140.5380   71.8350  225.0820 N   0  0  0  0  0  0  0  0  0  0  0  0
  137.8610   72.9650  222.7670 H   0  0  0  0  0  0  0  0  0  0  0  0
  139.4739   73.7879  220.4829 H   0  0  0  0  0  0  0  0  0  0  0  0
  137.8411   74.3779  220.9192 H   0  0  0  0  0  0  0  0  0  0  0  0
  137.1501   75.1031  223.0413 H   0  0  0  0  0  0  0  0  0  0  0  0
  137.5747   76.4718  224.1182 H   0  0  0  0  0  0  0  0  0  0  0  0
  135.3179   76.3222  222.5432 H   0  0  0  0  0  0  0  0  0  0  0  0
  136.0872   77.8537  223.1705 H   0  0  0  0  0  0  0  0  0  0  0  0
  136.4147   76.5814  220.4660 H   0  0  0  0  0  0  0  0  0  0  0  0
  135.6128   78.1680  220.9314 H   0  0  0  0  0  0  0  0  0  0  0  0
  138.0818   77.9640  219.9098 H   0  0  0  0  0  0  0  0  0  0  0  0
  137.4894   79.2696  221.0413 H   0  0  0  0  0  0  0  0  0  0  0  0
  139.7565   78.0060  221.4419 H   0  0  0  0  0  0  0  0  0  0  0  0
  138.0855   79.5305  222.9896 H   0  0  0  0  0  0  0  0  0  0  0  0
  138.7032   78.1368  223.9827 H   0  0  0  0  0  0  0  0  0  0  0  0
  141.2486   77.5790  222.7427 H   0  0  0  0  0  0  0  0  0  0  0  0
  143.5025   78.6119  222.9302 H   0  0  0  0  0  0  0  0  0  0  0  0
  141.7419   82.3741  223.8707 H   0  0  0  0  0  0  0  0  0  0  0  0
  139.4780   81.3530  223.6820 H   0  0  0  0  0  0  0  0  0  0  0  0
  138.7657   70.2663  222.7148 H   0  0  0  0  0  0  0  0  0  0  0  0
  138.6326   68.5671  224.5189 H   0  0  0  0  0  0  0  0  0  0  0  0
  139.1857   67.8333  226.7801 H   0  0  0  0  0  0  0  0  0  0  0  0
  141.5542   70.4564  229.2812 H   0  0  0  0  0  0  0  0  0  0  0  0
  141.6422   72.1120  227.4352 H   0  0  0  0  0  0  0  0  0  0  0  0
  1  2  2  0
  2  3  1  0
  3  4  1  0
  4  5  1  0
  5  6  2  0
  5  7  1  0
  7  8  1  0
  8  9  1  0
  9 10  1  0
 10 11  1  0
 11 12  1  0
 12 13  1  0
 13 14  1  0
 14 15  2  0
 15 16  1  0
 16 17  2  0
 17 18  1  0
 18 19  2  0
  2 20  1  0
 20 21  2  0
 21 22  1  0
 22 23  2  0
 23 24  1  0
 24 25  2  0
 25 26  1  0
 25 27  1  0
 27 28  2  0
 28 29  1  0
 29 30  2  0
 12  7  1  0
 19 14  1  0
 30 20  1  0
 29 23  1  0
  3 31  1  0
  4 32  1  0
  4 33  1  0
  8 34  1  0
  8 35  1  0
  9 36  1  0
  9 37  1  0
 10 38  1  0
 10 39  1  0
 11 40  1  0
 11 41  1  0
 12 42  1  6
 13 43  1  0
 13 44  1  0
 15 45  1  0
 16 46  1  0
 18 47  1  0
 19 48  1  0
 21 49  1  0
 22 50  1  0
 24 51  1  0
 27 52  1  0
 28 53  1  0
M  END
>  <smiles>  (79) 
O=C(NCC(=O)N1CCCCC1Cc1ccncc1)c1ccc2cc(F)ccc2n1

>  <score_type>  (79) 
oracle

>  <origin>  (79) 
autodockgpu

>  <m_score__min__energy>  (79) 
-8.8399999999999999

>  <m_primary>  (79) 
energy

>  <rmsd>  (79) 
3.26269516573181

>  <m_score__min__rmsd>  (79) 
3.26269516573181

>  <meeko>  (79) 
{"free_energy": -8.63, "intermolecular_energy": -10.42, "internal_energy": -1.37, "cluster_size": 35, "cluster_id": 2, "rank_in_cluster": 6}

>  <energy>  (79) 
-8.35

>  <cluster_rmsd>  (79) 
1.84

>  <cluster>  (79) 
2

$$$$

     RDKit          3D

 53 56  0  0  0  0  0  0  0  0999 V2000
  140.1660   71.6130  221.0570 O   0  0  0  0  0  0  0  0  0  0  0  0
  139.9630   72.1450  222.1670 C   0  0  0  0  0  0  0  0  0  0  0  0
  139.7330   73.5450  222.2980 N   0  0  0  0  0  0  0  0  0  0  0  0
  139.7400   74.3400  221.1020 C   0  0  0  0  0  0  0  0  0  0  0  0
  140.1830   75.7050  221.4470 C   0  0  0  0  0  0  0  0  0  0  0  0
  140.1550   76.1610  222.6320 O   0  0  0  0  0  0  0  0  0  0  0  0
  140.6600   76.5380  220.3960 N   0  0  0  0  0  0  0  0  0  0  0  0
  139.9670   76.6300  219.1040 C   0  0  0  0  0  0  0  0  0  0  0  0
  140.9940   76.5830  217.9910 C   0  0  0  0  0  0  0  0  0  0  0  0
  142.3170   76.0550  218.4320 C   0  0  0  0  0  0  0  0  0  0  0  0
  142.8900   76.7220  219.6510 C   0  0  0  0  0  0  0  0  0  0  0  0
  141.8590   77.3550  220.5200 C   0  0  1  0  0  0  0  0  0  0  0  0
  141.6210   78.7980  220.2700 C   0  0  0  0  0  0  0  0  0  0  0  0
  141.7730   79.6200  221.4980 C   0  0  0  0  0  0  0  0  0  0  0  0
  141.4790   80.9880  221.4440 C   0  0  0  0  0  0  0  0  0  0  0  0
  141.6090   81.7920  222.5670 C   0  0  0  0  0  0  0  0  0  0  0  0
  142.0280   81.2390  223.7270 N   0  0  0  0  0  0  0  0  0  0  0  0
  142.3250   79.9330  223.8390 C   0  0  0  0  0  0  0  0  0  0  0  0
  142.1900   79.1310  222.7040 C   0  0  0  0  0  0  0  0  0  0  0  0
  139.9560   71.3260  223.3960 C   0  0  0  0  0  0  0  0  0  0  0  0
  139.4610   70.0280  223.3310 C   0  0  0  0  0  0  0  0  0  0  0  0
  139.4440   69.2410  224.4740 C   0  0  0  0  0  0  0  0  0  0  0  0
  139.9150   69.7280  225.6790 C   0  0  0  0  0  0  0  0  0  0  0  0
  139.9020   68.9520  226.8170 C   0  0  0  0  0  0  0  0  0  0  0  0
  140.3910   69.5130  227.9860 C   0  0  0  0  0  0  0  0  0  0  0  0
  140.3690   68.7310  229.0980 F   0  0  0  0  0  0  0  0  0  0  0  0
  140.8820   70.8050  228.0420 C   0  0  0  0  0  0  0  0  0  0  0  0
  140.8780   71.5510  226.8820 C   0  0  0  0  0  0  0  0  0  0  0  0
  140.3990   71.0350  225.6830 C   0  0  0  0  0  0  0  0  0  0  0  0
  140.4090   71.7880  224.5660 N   0  0  0  0  0  0  0  0  0  0  0  0
  139.5610   74.0140  223.2120 H   0  0  0  0  0  0  0  0  0  0  0  0
  140.4318   73.9001  220.3686 H   0  0  0  0  0  0  0  0  0  0  0  0
  138.7308   74.3713  220.6654 H   0  0  0  0  0  0  0  0  0  0  0  0
  139.2694   75.7861  218.9984 H   0  0  0  0  0  0  0  0  0  0  0  0
  139.4026   77.5727  219.0504 H   0  0  0  0  0  0  0  0  0  0  0  0
  140.6098   75.9364  217.1883 H   0  0  0  0  0  0  0  0  0  0  0  0
  141.1527   77.6167  217.6499 H   0  0  0  0  0  0  0  0  0  0  0  0
  142.2013   74.9833  218.6514 H   0  0  0  0  0  0  0  0  0  0  0  0
  143.0196   76.2578  217.6103 H   0  0  0  0  0  0  0  0  0  0  0  0
  143.4272   75.9656  220.2420 H   0  0  0  0  0  0  0  0  0  0  0  0
  143.5547   77.5247  219.2991 H   0  0  0  0  0  0  0  0  0  0  0  0
  142.2209   77.3717  221.5586 H   0  0  0  0  0  0  0  0  0  0  0  0
  142.3430   79.1497  219.5183 H   0  0  0  0  0  0  0  0  0  0  0  0
  140.5847   78.9102  219.9185 H   0  0  0  0  0  0  0  0  0  0  0  0
  141.1397   81.4320  220.4965 H   0  0  0  0  0  0  0  0  0  0  0  0
  141.3742   82.8653  222.5141 H   0  0  0  0  0  0  0  0  0  0  0  0
  142.6641   79.5089  224.7956 H   0  0  0  0  0  0  0  0  0  0  0  0
  142.4294   78.0604  222.7840 H   0  0  0  0  0  0  0  0  0  0  0  0
  139.0848   69.6270  222.3783 H   0  0  0  0  0  0  0  0  0  0  0  0
  139.0502   68.2153  224.4203 H   0  0  0  0  0  0  0  0  0  0  0  0
  139.5165   67.9219  226.7985 H   0  0  0  0  0  0  0  0  0  0  0  0
  141.2644   71.2250  228.9840 H   0  0  0  0  0  0  0  0  0  0  0  0
  141.2638   72.5809  226.9060 H   0  0  0  0  0  0  0  0  0  0  0  0
  1  2  2  0
  2  3  1  0
  3  4  1  0
  4  5  1  0
  5  6  2  0
  5  7  1  0
  7  8  1  0
  8  9  1  0
  9 10  1  0
 10 11  1  0
 11 12  1  0
 12 13  1  0
 13 14  1  0
 14 15  2  0
 15 16  1  0
 16 17  2  0
 17 18  1  0
 18 19  2  0
  2 20  1  0
 20 21  2  0
 21 22  1  0
 22 23  2  0
 23 24  1  0
 24 25  2  0
 25 26  1  0
 25 27  1  0
 27 28  2  0
 28 29  1  0
 29 30  2  0
 12  7  1  0
 19 14  1  0
 30 20  1  0
 29 23  1  0
  3 31  1  0
  4 32  1  0
  4 33  1  0
  8 34  1  0
  8 35  1  0
  9 36  1  0
  9 37  1  0
 10 38  1  0
 10 39  1  0
 11 40  1  0
 11 41  1  0
 12 42  1  1
 13 43  1  0
 13 44  1  0
 15 45  1  0
 16 46  1  0
 18 47  1  0
 19 48  1  0
 21 49  1  0
 22 50  1  0
 24 51  1  0
 27 52  1  0
 28 53  1  0
M  END
>  <smiles>  (80) 
O=C(NCC(=O)N1CCCCC1Cc1ccncc1)c1ccc2cc(F)ccc2n1

>  <score_type>  (80) 
oracle

>  <origin>  (80) 
autodockgpu

>  <m_score__min__energy>  (80) 
-8.8399999999999999

>  <m_primary>  (80) 
energy

>  <rmsd>  (80) 
1.5172482283678552

>  <m_score__min__rmsd>  (80) 
1.5172482283678552

>  <meeko>  (80) 
{"free_energy": -8.51, "intermolecular_energy": -10.3, "internal_energy": -1.92, "cluster_size": 35, "cluster_id": 2, "rank_in_cluster": 10}

>  <energy>  (80) 
-8.35

>  <cluster_rmsd>  (80) 
1.74

>  <cluster>  (80) 
2

$$$$

     RDKit          3D

 53 56  0  0  0  0  0  0  0  0999 V2000
  140.6410   71.2330  221.2150 O   0  0  0  0  0  0  0  0  0  0  0  0
  140.2500   71.7900  222.2600 C   0  0  0  0  0  0  0  0  0  0  0  0
  139.9240   73.1770  222.2950 N   0  0  0  0  0  0  0  0  0  0  0  0
  140.0580   73.9280  221.0790 C   0  0  0  0  0  0  0  0  0  0  0  0
  140.1130   75.3640  221.4150 C   0  0  0  0  0  0  0  0  0  0  0  0
  139.8050   75.8160  222.5620 O   0  0  0  0  0  0  0  0  0  0  0  0
  140.5320   76.2720  220.4030 N   0  0  0  0  0  0  0  0  0  0  0  0
  139.6670   76.6220  219.2690 C   0  0  0  0  0  0  0  0  0  0  0  0
  140.4920   76.6100  217.9980 C   0  0  0  0  0  0  0  0  0  0  0  0
  141.7810   75.8740  218.1410 C   0  0  0  0  0  0  0  0  0  0  0  0
  142.6230   76.2940  219.3130 C   0  0  0  0  0  0  0  0  0  0  0  0
  141.8380   76.9180  220.4130 C   0  0  1  0  0  0  0  0  0  0  0  0
  141.7650   78.4000  220.3790 C   0  0  0  0  0  0  0  0  0  0  0  0
  141.8750   79.0060  221.7310 C   0  0  0  0  0  0  0  0  0  0  0  0
  142.4200   80.2890  221.8600 C   0  0  0  0  0  0  0  0  0  0  0  0
  142.5410   80.8910  223.1050 C   0  0  0  0  0  0  0  0  0  0  0  0
  142.1250   80.2220  224.2030 N   0  0  0  0  0  0  0  0  0  0  0  0
  141.5940   78.9890  224.1400 C   0  0  0  0  0  0  0  0  0  0  0  0
  141.4750   78.3910  222.8840 C   0  0  0  0  0  0  0  0  0  0  0  0
  140.1140   71.0170  223.5100 C   0  0  0  0  0  0  0  0  0  0  0  0
  139.5260   69.7570  223.4560 C   0  0  0  0  0  0  0  0  0  0  0  0
  139.3870   69.0130  224.6180 C   0  0  0  0  0  0  0  0  0  0  0  0
  139.8250   69.5050  225.8340 C   0  0  0  0  0  0  0  0  0  0  0  0
  139.6900   68.7710  226.9910 C   0  0  0  0  0  0  0  0  0  0  0  0
  140.1540   69.3340  228.1690 C   0  0  0  0  0  0  0  0  0  0  0  0
  140.0120   68.5940  229.3010 F   0  0  0  0  0  0  0  0  0  0  0  0
  140.7370   70.5870  228.2160 C   0  0  0  0  0  0  0  0  0  0  0  0
  140.8540   71.2920  227.0360 C   0  0  0  0  0  0  0  0  0  0  0  0
  140.4050   70.7720  225.8260 C   0  0  0  0  0  0  0  0  0  0  0  0
  140.5340   71.4840  224.6910 N   0  0  0  0  0  0  0  0  0  0  0  0
  139.5960   73.6660  223.1550 H   0  0  0  0  0  0  0  0  0  0  0  0
  140.9827   73.6330  220.5614 H   0  0  0  0  0  0  0  0  0  0  0  0
  139.2008   73.7295  220.4188 H   0  0  0  0  0  0  0  0  0  0  0  0
  138.8518   75.8881  219.1866 H   0  0  0  0  0  0  0  0  0  0  0  0
  139.2372   77.6226  219.4240 H   0  0  0  0  0  0  0  0  0  0  0  0
  139.9021   76.1306  217.2029 H   0  0  0  0  0  0  0  0  0  0  0  0
  140.7373   77.6550  217.7578 H   0  0  0  0  0  0  0  0  0  0  0  0
  141.5529   74.8035  218.2504 H   0  0  0  0  0  0  0  0  0  0  0  0
  142.3692   76.1042  217.2404 H   0  0  0  0  0  0  0  0  0  0  0  0
  143.1346   75.4052  219.7108 H   0  0  0  0  0  0  0  0  0  0  0  0
  143.3304   77.0534  218.9484 H   0  0  0  0  0  0  0  0  0  0  0  0
  142.3573   76.7491  221.3679 H   0  0  0  0  0  0  0  0  0  0  0  0
  142.5871   78.7795  219.7543 H   0  0  0  0  0  0  0  0  0  0  0  0
  140.7833   78.6770  219.9673 H   0  0  0  0  0  0  0  0  0  0  0  0
  142.7571   80.8277  220.9621 H   0  0  0  0  0  0  0  0  0  0  0  0
  142.9700   81.8997  223.1966 H   0  0  0  0  0  0  0  0  0  0  0  0
  141.2633   78.4670  225.0500 H   0  0  0  0  0  0  0  0  0  0  0  0
  141.0410   77.3823  222.8198 H   0  0  0  0  0  0  0  0  0  0  0  0
  139.1730   69.3529  222.4958 H   0  0  0  0  0  0  0  0  0  0  0  0
  138.9217   68.0173  224.5718 H   0  0  0  0  0  0  0  0  0  0  0  0
  139.2296   67.7720  226.9806 H   0  0  0  0  0  0  0  0  0  0  0  0
  141.0968   71.0090  229.1660 H   0  0  0  0  0  0  0  0  0  0  0  0
  141.3141   72.2910  227.0521 H   0  0  0  0  0  0  0  0  0  0  0  0
  1  2  2  0
  2  3  1  0
  3  4  1  0
  4  5  1  0
  5  6  2  0
  5  7  1  0
  7  8  1  0
  8  9  1  0
  9 10  1  0
 10 11  1  0
 11 12  1  0
 12 13  1  0
 13 14  1  0
 14 15  2  0
 15 16  1  0
 16 17  2  0
 17 18  1  0
 18 19  2  0
  2 20  1  0
 20 21  2  0
 21 22  1  0
 22 23  2  0
 23 24  1  0
 24 25  2  0
 25 26  1  0
 25 27  1  0
 27 28  2  0
 28 29  1  0
 29 30  2  0
 12  7  1  0
 19 14  1  0
 30 20  1  0
 29 23  1  0
  3 31  1  0
  4 32  1  0
  4 33  1  0
  8 34  1  0
  8 35  1  0
  9 36  1  0
  9 37  1  0
 10 38  1  0
 10 39  1  0
 11 40  1  0
 11 41  1  0
 12 42  1  1
 13 43  1  0
 13 44  1  0
 15 45  1  0
 16 46  1  0
 18 47  1  0
 19 48  1  0
 21 49  1  0
 22 50  1  0
 24 51  1  0
 27 52  1  0
 28 53  1  0
M  END
>  <smiles>  (81) 
O=C(NCC(=O)N1CCCCC1Cc1ccncc1)c1ccc2cc(F)ccc2n1

>  <score_type>  (81) 
oracle

>  <origin>  (81) 
autodockgpu

>  <m_score__min__energy>  (81) 
-8.8399999999999999

>  <m_primary>  (81) 
energy

>  <rmsd>  (81) 
1.5155367527052928

>  <m_score__min__rmsd>  (81) 
1.5155367527052928

>  <meeko>  (81) 
{"free_energy": -8.41, "intermolecular_energy": -10.2, "internal_energy": -1.97, "cluster_size": 35, "cluster_id": 2, "rank_in_cluster": 15}

>  <energy>  (81) 
-8.3

>  <cluster_rmsd>  (81) 
1.74

>  <cluster>  (81) 
2

$$$$

     RDKit          3D

 53 56  0  0  0  0  0  0  0  0999 V2000
  140.9440   73.7920  222.0050 O   0  0  0  0  0  0  0  0  0  0  0  0
  140.3400   74.6900  221.3850 C   0  0  0  0  0  0  0  0  0  0  0  0
  139.2050   74.4080  220.5710 N   0  0  0  0  0  0  0  0  0  0  0  0
  138.7680   73.0440  220.4810 C   0  0  0  0  0  0  0  0  0  0  0  0
  138.3190   72.6030  221.8160 C   0  0  0  0  0  0  0  0  0  0  0  0
  137.3670   73.1630  222.4440 O   0  0  0  0  0  0  0  0  0  0  0  0
  138.9900   71.5010  222.4170 N   0  0  0  0  0  0  0  0  0  0  0  0
  139.5210   70.3890  221.6190 C   0  0  0  0  0  0  0  0  0  0  0  0
  139.1780   69.0830  222.3050 C   0  0  0  0  0  0  0  0  0  0  0  0
  138.0900   69.2180  223.3160 C   0  0  0  0  0  0  0  0  0  0  0  0
  138.3000   70.3080  224.3300 C   0  0  0  0  0  0  0  0  0  0  0  0
  139.2010   71.3940  223.8540 C   0  0  1  0  0  0  0  0  0  0  0  0
  140.6280   71.2450  224.2340 C   0  0  0  0  0  0  0  0  0  0  0  0
  140.7990   70.8510  225.6560 C   0  0  0  0  0  0  0  0  0  0  0  0
  140.8890   71.8500  226.6330 C   0  0  0  0  0  0  0  0  0  0  0  0
  141.0510   71.5260  227.9730 C   0  0  0  0  0  0  0  0  0  0  0  0
  141.1230   70.2250  228.3310 N   0  0  0  0  0  0  0  0  0  0  0  0
  141.0430   69.2240  227.4380 C   0  0  0  0  0  0  0  0  0  0  0  0
  140.8790   69.5590  226.0920 C   0  0  0  0  0  0  0  0  0  0  0  0
  140.7910   76.0930  221.4800 C   0  0  0  0  0  0  0  0  0  0  0  0
  141.5200   76.6330  220.4250 C   0  0  0  0  0  0  0  0  0  0  0  0
  141.9540   77.9490  220.4930 C   0  0  0  0  0  0  0  0  0  0  0  0
  141.6710   78.7350  221.5950 C   0  0  0  0  0  0  0  0  0  0  0  0
  142.0990   80.0420  221.6680 C   0  0  0  0  0  0  0  0  0  0  0  0
  141.7760   80.7630  222.8070 C   0  0  0  0  0  0  0  0  0  0  0  0
  142.2070   82.0520  222.8600 F   0  0  0  0  0  0  0  0  0  0  0  0
  141.0500   80.2190  223.8510 C   0  0  0  0  0  0  0  0  0  0  0  0
  140.6400   78.9070  223.7410 C   0  0  0  0  0  0  0  0  0  0  0  0
  140.9380   78.1400  222.6200 C   0  0  0  0  0  0  0  0  0  0  0  0
  140.5230   76.8610  222.5410 N   0  0  0  0  0  0  0  0  0  0  0  0
  138.6830   75.1400  220.0440 H   0  0  0  0  0  0  0  0  0  0  0  0
  137.9351   72.9683  219.7664 H   0  0  0  0  0  0  0  0  0  0  0  0
  139.5950   72.4071  220.1339 H   0  0  0  0  0  0  0  0  0  0  0  0
  139.0715   70.4076  220.6152 H   0  0  0  0  0  0  0  0  0  0  0  0
  140.6129   70.4853  221.5270 H   0  0  0  0  0  0  0  0  0  0  0  0
  138.8569   68.3604  221.5403 H   0  0  0  0  0  0  0  0  0  0  0  0
  140.0797   68.7474  222.8382 H   0  0  0  0  0  0  0  0  0  0  0  0
  137.1508   69.4245  222.7818 H   0  0  0  0  0  0  0  0  0  0  0  0
  138.0722   68.2727  223.8783 H   0  0  0  0  0  0  0  0  0  0  0  0
  137.3225   70.7487  224.5755 H   0  0  0  0  0  0  0  0  0  0  0  0
  138.7810   69.8480  225.2058 H   0  0  0  0  0  0  0  0  0  0  0  0
  138.9384   72.3325  224.3642 H   0  0  0  0  0  0  0  0  0  0  0  0
  141.0842   70.4732  223.5966 H   0  0  0  0  0  0  0  0  0  0  0  0
  141.1146   72.2219  224.0966 H   0  0  0  0  0  0  0  0  0  0  0  0
  140.8305   72.9070  226.3342 H   0  0  0  0  0  0  0  0  0  0  0  0
  141.1198   72.3179  228.7334 H   0  0  0  0  0  0  0  0  0  0  0  0
  141.1048   68.1732  227.7572 H   0  0  0  0  0  0  0  0  0  0  0  0
  140.8114   68.7481  225.3518 H   0  0  0  0  0  0  0  0  0  0  0  0
  141.7510   76.0196  219.5416 H   0  0  0  0  0  0  0  0  0  0  0  0
  142.5314   78.3732  219.6584 H   0  0  0  0  0  0  0  0  0  0  0  0
  142.6771   80.4980  220.8508 H   0  0  0  0  0  0  0  0  0  0  0  0
  140.8068   80.8153  224.7428 H   0  0  0  0  0  0  0  0  0  0  0  0
  140.0624   78.4555  224.5611 H   0  0  0  0  0  0  0  0  0  0  0  0
  1  2  2  0
  2  3  1  0
  3  4  1  0
  4  5  1  0
  5  6  2  0
  5  7  1  0
  7  8  1  0
  8  9  1  0
  9 10  1  0
 10 11  1  0
 11 12  1  0
 12 13  1  0
 13 14  1  0
 14 15  2  0
 15 16  1  0
 16 17  2  0
 17 18  1  0
 18 19  2  0
  2 20  1  0
 20 21  2  0
 21 22  1  0
 22 23  2  0
 23 24  1  0
 24 25  2  0
 25 26  1  0
 25 27  1  0
 27 28  2  0
 28 29  1  0
 29 30  2  0
 12  7  1  0
 19 14  1  0
 30 20  1  0
 29 23  1  0
  3 31  1  0
  4 32  1  0
  4 33  1  0
  8 34  1  0
  8 35  1  0
  9 36  1  0
  9 37  1  0
 10 38  1  0
 10 39  1  0
 11 40  1  0
 11 41  1  0
 12 42  1  1
 13 43  1  0
 13 44  1  0
 15 45  1  0
 16 46  1  0
 18 47  1  0
 19 48  1  0
 21 49  1  0
 22 50  1  0
 24 51  1  0
 27 52  1  0
 28 53  1  0
M  END
>  <smiles>  (82) 
O=C(NCC(=O)N1CCCCC1Cc1ccncc1)c1ccc2cc(F)ccc2n1

>  <score_type>  (82) 
oracle

>  <origin>  (82) 
autodockgpu

>  <m_score__min__energy>  (82) 
-8.8399999999999999

>  <m_primary>  (82) 
energy

>  <rmsd>  (82) 
8.168357061991838

>  <m_score__min__rmsd>  (82) 
8.168357061991838

>  <meeko>  (82) 
{"free_energy": -8.0, "intermolecular_energy": -9.79, "internal_energy": -1.53, "cluster_size": 6, "cluster_id": 4, "rank_in_cluster": 1}

>  <energy>  (82) 
-8.27

>  <cluster_rmsd>  (82) 
1.85

>  <cluster>  (82) 
2

$$$$

     RDKit          3D

 53 56  0  0  0  0  0  0  0  0999 V2000
  140.5980   71.4940  221.1750 O   0  0  0  0  0  0  0  0  0  0  0  0
  140.2170   72.0380  222.2310 C   0  0  0  0  0  0  0  0  0  0  0  0
  139.9020   73.4260  222.2900 N   0  0  0  0  0  0  0  0  0  0  0  0
  140.0350   74.1950  221.0850 C   0  0  0  0  0  0  0  0  0  0  0  0
  139.9620   75.6280  221.4300 C   0  0  0  0  0  0  0  0  0  0  0  0
  139.6310   76.0430  222.5840 O   0  0  0  0  0  0  0  0  0  0  0  0
  140.2790   76.5760  220.4170 N   0  0  0  0  0  0  0  0  0  0  0  0
  139.2650   77.0800  219.4820 C   0  0  0  0  0  0  0  0  0  0  0  0
  139.8520   77.1020  218.0860 C   0  0  0  0  0  0  0  0  0  0  0  0
  141.0740   76.2580  217.9470 C   0  0  0  0  0  0  0  0  0  0  0  0
  142.1420   76.5190  218.9720 C   0  0  0  0  0  0  0  0  0  0  0  0
  141.6200   77.1150  220.2330 C   0  0  1  0  0  0  0  0  0  0  0  0
  141.6780   78.5960  220.3050 C   0  0  0  0  0  0  0  0  0  0  0  0
  141.8390   79.0920  221.6960 C   0  0  0  0  0  0  0  0  0  0  0  0
  142.3840   80.3640  221.9070 C   0  0  0  0  0  0  0  0  0  0  0  0
  142.5530   80.8650  223.1910 C   0  0  0  0  0  0  0  0  0  0  0  0
  142.1840   80.1060  224.2460 N   0  0  0  0  0  0  0  0  0  0  0  0
  141.6550   78.8780  224.1050 C   0  0  0  0  0  0  0  0  0  0  0  0
  141.4880   78.3830  222.8100 C   0  0  0  0  0  0  0  0  0  0  0  0
  140.0800   71.2450  223.4700 C   0  0  0  0  0  0  0  0  0  0  0  0
  139.5130   69.9770  223.3930 C   0  0  0  0  0  0  0  0  0  0  0  0
  139.3750   69.2160  224.5440 C   0  0  0  0  0  0  0  0  0  0  0  0
  139.7940   69.6980  225.7710 C   0  0  0  0  0  0  0  0  0  0  0  0
  139.6590   68.9470  226.9170 C   0  0  0  0  0  0  0  0  0  0  0  0
  140.1030   69.5020  228.1070 C   0  0  0  0  0  0  0  0  0  0  0  0
  139.9610   68.7440  229.2270 F   0  0  0  0  0  0  0  0  0  0  0  0
  140.6660   70.7630  228.1750 C   0  0  0  0  0  0  0  0  0  0  0  0
  140.7830   71.4850  227.0050 C   0  0  0  0  0  0  0  0  0  0  0  0
  140.3540   70.9740  225.7850 C   0  0  0  0  0  0  0  0  0  0  0  0
  140.4820   71.7030  224.6600 N   0  0  0  0  0  0  0  0  0  0  0  0
  139.5820   73.9040  223.1590 H   0  0  0  0  0  0  0  0  0  0  0  0
  141.0035   73.9768  220.6113 H   0  0  0  0  0  0  0  0  0  0  0  0
  139.2285   73.9361  220.3832 H   0  0  0  0  0  0  0  0  0  0  0  0
  138.3845   76.4210  219.5019 H   0  0  0  0  0  0  0  0  0  0  0  0
  138.9610   78.0959  219.7743 H   0  0  0  0  0  0  0  0  0  0  0  0
  139.0915   76.7341  217.3815 H   0  0  0  0  0  0  0  0  0  0  0  0
  140.1467   78.1401  217.8725 H   0  0  0  0  0  0  0  0  0  0  0  0
  140.7722   75.2034  218.0286 H   0  0  0  0  0  0  0  0  0  0  0  0
  141.5143   76.5101  216.9710 H   0  0  0  0  0  0  0  0  0  0  0  0
  142.6328   75.5649  219.2146 H   0  0  0  0  0  0  0  0  0  0  0  0
  142.8407   77.2471  218.5341 H   0  0  0  0  0  0  0  0  0  0  0  0
  142.2789   76.8321  221.0671 H   0  0  0  0  0  0  0  0  0  0  0  0
  142.5312   78.9452  219.7050 H   0  0  0  0  0  0  0  0  0  0  0  0
  140.7251   78.9870  219.9189 H   0  0  0  0  0  0  0  0  0  0  0  0
  142.6828   80.9757  221.0430 H   0  0  0  0  0  0  0  0  0  0  0  0
  142.9814   81.8661  223.3470 H   0  0  0  0  0  0  0  0  0  0  0  0
  141.3629   78.2820  224.9822 H   0  0  0  0  0  0  0  0  0  0  0  0
  141.0556   77.3798  222.6813 H   0  0  0  0  0  0  0  0  0  0  0  0
  139.1759   69.5801  222.4241 H   0  0  0  0  0  0  0  0  0  0  0  0
  138.9256   68.2140  224.4803 H   0  0  0  0  0  0  0  0  0  0  0  0
  139.2142   67.9413  226.8892 H   0  0  0  0  0  0  0  0  0  0  0  0
  141.0105   71.1784  229.1335 H   0  0  0  0  0  0  0  0  0  0  0  0
  141.2271   72.4908  227.0382 H   0  0  0  0  0  0  0  0  0  0  0  0
  1  2  2  0
  2  3  1  0
  3  4  1  0
  4  5  1  0
  5  6  2  0
  5  7  1  0
  7  8  1  0
  8  9  1  0
  9 10  1  0
 10 11  1  0
 11 12  1  0
 12 13  1  0
 13 14  1  0
 14 15  2  0
 15 16  1  0
 16 17  2  0
 17 18  1  0
 18 19  2  0
  2 20  1  0
 20 21  2  0
 21 22  1  0
 22 23  2  0
 23 24  1  0
 24 25  2  0
 25 26  1  0
 25 27  1  0
 27 28  2  0
 28 29  1  0
 29 30  2  0
 12  7  1  0
 19 14  1  0
 30 20  1  0
 29 23  1  0
  3 31  1  0
  4 32  1  0
  4 33  1  0
  8 34  1  0
  8 35  1  0
  9 36  1  0
  9 37  1  0
 10 38  1  0
 10 39  1  0
 11 40  1  0
 11 41  1  0
 12 42  1  1
 13 43  1  0
 13 44  1  0
 15 45  1  0
 16 46  1  0
 18 47  1  0
 19 48  1  0
 21 49  1  0
 22 50  1  0
 24 51  1  0
 27 52  1  0
 28 53  1  0
M  END
>  <smiles>  (83) 
O=C(NCC(=O)N1CCCCC1Cc1ccncc1)c1ccc2cc(F)ccc2n1

>  <score_type>  (83) 
oracle

>  <origin>  (83) 
autodockgpu

>  <m_score__min__energy>  (83) 
-8.8399999999999999

>  <m_primary>  (83) 
energy

>  <rmsd>  (83) 
1.6384973194093957

>  <m_score__min__rmsd>  (83) 
1.6384973194093957

>  <meeko>  (83) 
{"free_energy": -8.22, "intermolecular_energy": -10.01, "internal_energy": -2.0, "cluster_size": 35, "cluster_id": 2, "rank_in_cluster": 28}

>  <energy>  (83) 
-8.25

>  <cluster_rmsd>  (83) 
1.32

>  <cluster>  (83) 
2

$$$$

     RDKit          3D

 53 56  0  0  0  0  0  0  0  0999 V2000
  140.7150   73.1930  222.3810 O   0  0  0  0  0  0  0  0  0  0  0  0
  139.7270   72.5140  222.7260 C   0  0  0  0  0  0  0  0  0  0  0  0
  138.4590   72.6570  222.0910 N   0  0  0  0  0  0  0  0  0  0  0  0
  138.3450   73.6170  221.0300 C   0  0  0  0  0  0  0  0  0  0  0  0
  138.0160   74.9310  221.6160 C   0  0  0  0  0  0  0  0  0  0  0  0
  137.0070   75.1190  222.3640 O   0  0  0  0  0  0  0  0  0  0  0  0
  138.8760   76.0270  221.3230 N   0  0  0  0  0  0  0  0  0  0  0  0
  139.0770   76.5090  219.9510 C   0  0  0  0  0  0  0  0  0  0  0  0
  140.5530   76.7740  219.7340 C   0  0  0  0  0  0  0  0  0  0  0  0
  141.4240   76.1130  220.7480 C   0  0  0  0  0  0  0  0  0  0  0  0
  141.0450   76.3790  222.1780 C   0  0  0  0  0  0  0  0  0  0  0  0
  139.6130   76.7480  222.3520 C   0  0  1  0  0  0  0  0  0  0  0  0
  139.3320   78.2050  222.3710 C   0  0  0  0  0  0  0  0  0  0  0  0
  140.5620   79.0200  222.5420 C   0  0  0  0  0  0  0  0  0  0  0  0
  141.0790   79.7120  221.4410 C   0  0  0  0  0  0  0  0  0  0  0  0
  142.2280   80.4830  221.5560 C   0  0  0  0  0  0  0  0  0  0  0  0
  142.8490   80.5610  222.7530 N   0  0  0  0  0  0  0  0  0  0  0  0
  142.3990   79.9190  223.8450 C   0  0  0  0  0  0  0  0  0  0  0  0
  141.2430   79.1460  223.7200 C   0  0  0  0  0  0  0  0  0  0  0  0
  139.8450   71.5270  223.8180 C   0  0  0  0  0  0  0  0  0  0  0  0
  139.4350   70.2180  223.5840 C   0  0  0  0  0  0  0  0  0  0  0  0
  139.5370   69.2750  224.5960 C   0  0  0  0  0  0  0  0  0  0  0  0
  140.0430   69.6160  225.8370 C   0  0  0  0  0  0  0  0  0  0  0  0
  140.1470   68.6840  226.8460 C   0  0  0  0  0  0  0  0  0  0  0  0
  140.6640   69.1050  228.0610 C   0  0  0  0  0  0  0  0  0  0  0  0
  140.7580   68.1700  229.0440 F   0  0  0  0  0  0  0  0  0  0  0  0
  141.0700   70.4070  228.2860 C   0  0  0  0  0  0  0  0  0  0  0  0
  140.9490   71.3120  227.2510 C   0  0  0  0  0  0  0  0  0  0  0  0
  140.4370   70.9410  226.0120 C   0  0  0  0  0  0  0  0  0  0  0  0
  140.3320   71.8470  225.0210 N   0  0  0  0  0  0  0  0  0  0  0  0
  137.6190   72.1020  222.3600 H   0  0  0  0  0  0  0  0  0  0  0  0
  139.2986   73.6825  220.4857 H   0  0  0  0  0  0  0  0  0  0  0  0
  137.5546   73.3100  220.3293 H   0  0  0  0  0  0  0  0  0  0  0  0
  138.7301   75.7470  219.2376 H   0  0  0  0  0  0  0  0  0  0  0  0
  138.5055   77.4358  219.7946 H   0  0  0  0  0  0  0  0  0  0  0  0
  140.8322   76.4016  218.7373 H   0  0  0  0  0  0  0  0  0  0  0  0
  140.7075   77.8590  219.8280 H   0  0  0  0  0  0  0  0  0  0  0  0
  141.3808   75.0268  220.5795 H   0  0  0  0  0  0  0  0  0  0  0  0
  142.4306   76.5352  220.6121 H   0  0  0  0  0  0  0  0  0  0  0  0
  141.2450   75.4713  222.7662 H   0  0  0  0  0  0  0  0  0  0  0  0
  141.6446   77.2360  222.5185 H   0  0  0  0  0  0  0  0  0  0  0  0
  139.2822   76.4512  223.3582 H   0  0  0  0  0  0  0  0  0  0  0  0
  138.8532   78.4842  221.4208 H   0  0  0  0  0  0  0  0  0  0  0  0
  138.6753   78.4073  223.2300 H   0  0  0  0  0  0  0  0  0  0  0  0
  140.5673   79.6441  220.4696 H   0  0  0  0  0  0  0  0  0  0  0  0
  142.6270   81.0227  220.6845 H   0  0  0  0  0  0  0  0  0  0  0  0
  142.9254   80.0002  224.8075 H   0  0  0  0  0  0  0  0  0  0  0  0
  140.8647   78.6164  224.6068 H   0  0  0  0  0  0  0  0  0  0  0  0
  139.0319   69.9325  222.6011 H   0  0  0  0  0  0  0  0  0  0  0  0
  139.2108   68.2413  224.4088 H   0  0  0  0  0  0  0  0  0  0  0  0
  139.8307   67.6417  226.6927 H   0  0  0  0  0  0  0  0  0  0  0  0
  141.4774   70.7127  229.2609 H   0  0  0  0  0  0  0  0  0  0  0  0
  141.2656   72.3534  227.4100 H   0  0  0  0  0  0  0  0  0  0  0  0
  1  2  2  0
  2  3  1  0
  3  4  1  0
  4  5  1  0
  5  6  2  0
  5  7  1  0
  7  8  1  0
  8  9  1  0
  9 10  1  0
 10 11  1  0
 11 12  1  0
 12 13  1  0
 13 14  1  0
 14 15  2  0
 15 16  1  0
 16 17  2  0
 17 18  1  0
 18 19  2  0
  2 20  1  0
 20 21  2  0
 21 22  1  0
 22 23  2  0
 23 24  1  0
 24 25  2  0
 25 26  1  0
 25 27  1  0
 27 28  2  0
 28 29  1  0
 29 30  2  0
 12  7  1  0
 19 14  1  0
 30 20  1  0
 29 23  1  0
  3 31  1  0
  4 32  1  0
  4 33  1  0
  8 34  1  0
  8 35  1  0
  9 36  1  0
  9 37  1  0
 10 38  1  0
 10 39  1  0
 11 40  1  0
 11 41  1  0
 12 42  1  1
 13 43  1  0
 13 44  1  0
 15 45  1  0
 16 46  1  0
 18 47  1  0
 19 48  1  0
 21 49  1  0
 22 50  1  0
 24 51  1  0
 27 52  1  0
 28 53  1  0
M  END
>  <smiles>  (84) 
O=C(NCC(=O)N1CCCCC1Cc1ccncc1)c1ccc2cc(F)ccc2n1

>  <score_type>  (84) 
oracle

>  <origin>  (84) 
autodockgpu

>  <m_score__min__energy>  (84) 
-8.8399999999999999

>  <m_primary>  (84) 
energy

>  <rmsd>  (84) 
2.201475619455228

>  <m_score__min__rmsd>  (84) 
2.201475619455228

>  <meeko>  (84) 
{"free_energy": -8.25, "intermolecular_energy": -10.04, "internal_energy": -1.67, "cluster_size": 35, "cluster_id": 2, "rank_in_cluster": 25}

>  <energy>  (84) 
-8.23

>  <cluster_rmsd>  (84) 
1.18

>  <cluster>  (84) 
2

$$$$

     RDKit          3D

 53 56  0  0  0  0  0  0  0  0999 V2000
  140.6960   73.1950  222.3660 O   0  0  0  0  0  0  0  0  0  0  0  0
  139.7100   72.5240  222.7310 C   0  0  0  0  0  0  0  0  0  0  0  0
  138.4290   72.6800  222.1260 N   0  0  0  0  0  0  0  0  0  0  0  0
  138.3000   73.6450  221.0710 C   0  0  0  0  0  0  0  0  0  0  0  0
  138.0340   74.9670  221.6710 C   0  0  0  0  0  0  0  0  0  0  0  0
  137.0650   75.1830  222.4630 O   0  0  0  0  0  0  0  0  0  0  0  0
  138.9100   76.0390  221.3400 N   0  0  0  0  0  0  0  0  0  0  0  0
  139.1310   76.4590  219.9500 C   0  0  0  0  0  0  0  0  0  0  0  0
  140.6120   76.6960  219.7380 C   0  0  0  0  0  0  0  0  0  0  0  0
  141.4650   76.0690  220.7880 C   0  0  0  0  0  0  0  0  0  0  0  0
  141.0750   76.4020  222.2020 C   0  0  0  0  0  0  0  0  0  0  0  0
  139.6460   76.7950  222.3440 C   0  0  1  0  0  0  0  0  0  0  0  0
  139.3820   78.2550  222.2970 C   0  0  0  0  0  0  0  0  0  0  0  0
  140.6060   79.0620  222.5390 C   0  0  0  0  0  0  0  0  0  0  0  0
  141.1070   79.1650  223.8420 C   0  0  0  0  0  0  0  0  0  0  0  0
  142.2480   79.9100  224.1120 C   0  0  0  0  0  0  0  0  0  0  0  0
  142.8760   80.5410  223.0960 N   0  0  0  0  0  0  0  0  0  0  0  0
  142.4410   80.4780  221.8250 C   0  0  0  0  0  0  0  0  0  0  0  0
  141.2940   79.7250  221.5630 C   0  0  0  0  0  0  0  0  0  0  0  0
  139.8440   71.5320  223.8170 C   0  0  0  0  0  0  0  0  0  0  0  0
  139.4460   70.2210  223.5780 C   0  0  0  0  0  0  0  0  0  0  0  0
  139.5630   69.2730  224.5840 C   0  0  0  0  0  0  0  0  0  0  0  0
  140.0720   69.6120  225.8240 C   0  0  0  0  0  0  0  0  0  0  0  0
  140.1900   68.6750  226.8270 C   0  0  0  0  0  0  0  0  0  0  0  0
  140.7090   69.0940  228.0420 C   0  0  0  0  0  0  0  0  0  0  0  0
  140.8190   68.1540  229.0190 F   0  0  0  0  0  0  0  0  0  0  0  0
  141.1030   70.4000  228.2720 C   0  0  0  0  0  0  0  0  0  0  0  0
  140.9680   71.3080  227.2430 C   0  0  0  0  0  0  0  0  0  0  0  0
  140.4540   70.9390  226.0050 C   0  0  0  0  0  0  0  0  0  0  0  0
  140.3340   71.8500  225.0200 N   0  0  0  0  0  0  0  0  0  0  0  0
  137.5900   72.1320  222.4120 H   0  0  0  0  0  0  0  0  0  0  0  0
  139.2321   73.6835  220.4882 H   0  0  0  0  0  0  0  0  0  0  0  0
  137.4730   73.3626  220.4029 H   0  0  0  0  0  0  0  0  0  0  0  0
  138.7816   75.6712  219.2664 H   0  0  0  0  0  0  0  0  0  0  0  0
  138.5729   77.3850  219.7475 H   0  0  0  0  0  0  0  0  0  0  0  0
  140.8964   76.2777  218.7612 H   0  0  0  0  0  0  0  0  0  0  0  0
  140.7789   77.7821  219.7878 H   0  0  0  0  0  0  0  0  0  0  0  0
  141.4098   74.9772  220.6663 H   0  0  0  0  0  0  0  0  0  0  0  0
  142.4783   76.4721  220.6440 H   0  0  0  0  0  0  0  0  0  0  0  0
  141.2579   75.5186  222.8314 H   0  0  0  0  0  0  0  0  0  0  0  0
  141.6817   77.2658  222.5115 H   0  0  0  0  0  0  0  0  0  0  0  0
  139.3022   76.5458  223.3587 H   0  0  0  0  0  0  0  0  0  0  0  0
  138.9820   78.5095  221.3044 H   0  0  0  0  0  0  0  0  0  0  0  0
  138.6627   78.4907  223.0951 H   0  0  0  0  0  0  0  0  0  0  0  0
  140.5897   78.6486  224.6640 H   0  0  0  0  0  0  0  0  0  0  0  0
  142.6348   79.9851  225.1390 H   0  0  0  0  0  0  0  0  0  0  0  0
  142.9717   81.0030  221.0171 H   0  0  0  0  0  0  0  0  0  0  0  0
  140.9295   79.6634  220.5270 H   0  0  0  0  0  0  0  0  0  0  0  0
  139.0403   69.9371  222.5958 H   0  0  0  0  0  0  0  0  0  0  0  0
  139.2464   68.2371  224.3925 H   0  0  0  0  0  0  0  0  0  0  0  0
  139.8830   67.6306  226.6691 H   0  0  0  0  0  0  0  0  0  0  0  0
  141.5118   70.7050  229.2466 H   0  0  0  0  0  0  0  0  0  0  0  0
  141.2750   72.3516  227.4059 H   0  0  0  0  0  0  0  0  0  0  0  0
  1  2  2  0
  2  3  1  0
  3  4  1  0
  4  5  1  0
  5  6  2  0
  5  7  1  0
  7  8  1  0
  8  9  1  0
  9 10  1  0
 10 11  1  0
 11 12  1  0
 12 13  1  0
 13 14  1  0
 14 15  2  0
 15 16  1  0
 16 17  2  0
 17 18  1  0
 18 19  2  0
  2 20  1  0
 20 21  2  0
 21 22  1  0
 22 23  2  0
 23 24  1  0
 24 25  2  0
 25 26  1  0
 25 27  1  0
 27 28  2  0
 28 29  1  0
 29 30  2  0
 12  7  1  0
 19 14  1  0
 30 20  1  0
 29 23  1  0
  3 31  1  0
  4 32  1  0
  4 33  1  0
  8 34  1  0
  8 35  1  0
  9 36  1  0
  9 37  1  0
 10 38  1  0
 10 39  1  0
 11 40  1  0
 11 41  1  0
 12 42  1  1
 13 43  1  0
 13 44  1  0
 15 45  1  0
 16 46  1  0
 18 47  1  0
 19 48  1  0
 21 49  1  0
 22 50  1  0
 24 51  1  0
 27 52  1  0
 28 53  1  0
M  END
>  <smiles>  (85) 
O=C(NCC(=O)N1CCCCC1Cc1ccncc1)c1ccc2cc(F)ccc2n1

>  <score_type>  (85) 
oracle

>  <origin>  (85) 
autodockgpu

>  <m_score__min__energy>  (85) 
-8.8399999999999999

>  <m_primary>  (85) 
energy

>  <rmsd>  (85) 
2.178025270823635

>  <m_score__min__rmsd>  (85) 
2.178025270823635

>  <meeko>  (85) 
{"free_energy": -8.23, "intermolecular_energy": -10.02, "internal_energy": -1.68, "cluster_size": 35, "cluster_id": 2, "rank_in_cluster": 27}

>  <energy>  (85) 
-8.23

>  <cluster_rmsd>  (85) 
1.3

>  <cluster>  (85) 
2

$$$$

     RDKit          3D

 53 56  0  0  0  0  0  0  0  0999 V2000
  140.9100   71.9480  221.2440 O   0  0  0  0  0  0  0  0  0  0  0  0
  140.2420   72.3260  222.2280 C   0  0  0  0  0  0  0  0  0  0  0  0
  139.5380   73.5650  222.2260 N   0  0  0  0  0  0  0  0  0  0  0  0
  139.6170   74.3790  221.0460 C   0  0  0  0  0  0  0  0  0  0  0  0
  140.2290   75.6730  221.4060 C   0  0  0  0  0  0  0  0  0  0  0  0
  140.3310   76.0770  222.6060 O   0  0  0  0  0  0  0  0  0  0  0  0
  140.7240   76.4940  220.3540 N   0  0  0  0  0  0  0  0  0  0  0  0
  140.0080   76.6370  219.0800 C   0  0  0  0  0  0  0  0  0  0  0  0
  141.0050   76.5530  217.9430 C   0  0  0  0  0  0  0  0  0  0  0  0
  142.3090   75.9530  218.3460 C   0  0  0  0  0  0  0  0  0  0  0  0
  142.9430   76.5750  219.5600 C   0  0  0  0  0  0  0  0  0  0  0  0
  141.9660   77.2480  220.4590 C   0  0  1  0  0  0  0  0  0  0  0  0
  141.7950   78.7050  220.2320 C   0  0  0  0  0  0  0  0  0  0  0  0
  141.8190   79.4840  221.4970 C   0  0  0  0  0  0  0  0  0  0  0  0
  141.7930   80.8820  221.4360 C   0  0  0  0  0  0  0  0  0  0  0  0
  141.8160   81.6480  222.5930 C   0  0  0  0  0  0  0  0  0  0  0  0
  141.8650   81.0270  223.7920 N   0  0  0  0  0  0  0  0  0  0  0  0
  141.8910   79.6880  223.9120 C   0  0  0  0  0  0  0  0  0  0  0  0
  141.8670   78.9250  222.7430 C   0  0  0  0  0  0  0  0  0  0  0  0
  140.1620   71.4880  223.4410 C   0  0  0  0  0  0  0  0  0  0  0  0
  139.5750   70.2300  223.3470 C   0  0  0  0  0  0  0  0  0  0  0  0
  139.4890   69.4270  224.4740 C   0  0  0  0  0  0  0  0  0  0  0  0
  139.9800   69.8560  225.6930 C   0  0  0  0  0  0  0  0  0  0  0  0
  139.8980   69.0630  226.8160 C   0  0  0  0  0  0  0  0  0  0  0  0
  140.4130   69.5660  228.0000 C   0  0  0  0  0  0  0  0  0  0  0  0
  140.3220   68.7670  229.0960 F   0  0  0  0  0  0  0  0  0  0  0  0
  140.9960   70.8170  228.0850 C   0  0  0  0  0  0  0  0  0  0  0  0
  141.0590   71.5820  226.9390 C   0  0  0  0  0  0  0  0  0  0  0  0
  140.5570   71.1240  225.7260 C   0  0  0  0  0  0  0  0  0  0  0  0
  140.6340   71.8950  224.6240 N   0  0  0  0  0  0  0  0  0  0  0  0
  138.9750   73.9040  223.0340 H   0  0  0  0  0  0  0  0  0  0  0  0
  140.2353   73.8747  220.2888 H   0  0  0  0  0  0  0  0  0  0  0  0
  138.6102   74.5415  220.6337 H   0  0  0  0  0  0  0  0  0  0  0  0
  139.2665   75.8305  218.9809 H   0  0  0  0  0  0  0  0  0  0  0  0
  139.4911   77.6076  219.0506 H   0  0  0  0  0  0  0  0  0  0  0  0
  140.5700   75.9374  217.1418 H   0  0  0  0  0  0  0  0  0  0  0  0
  141.2082   77.5818  217.6108 H   0  0  0  0  0  0  0  0  0  0  0  0
  142.1442   74.8857  218.5553 H   0  0  0  0  0  0  0  0  0  0  0  0
  143.0021   76.1303  217.5104 H   0  0  0  0  0  0  0  0  0  0  0  0
  143.4540   75.7849  220.1298 H   0  0  0  0  0  0  0  0  0  0  0  0
  143.6399   77.3473  219.2022 H   0  0  0  0  0  0  0  0  0  0  0  0
  142.3528   77.2334  221.4886 H   0  0  0  0  0  0  0  0  0  0  0  0
  142.6102   79.0592  219.5839 H   0  0  0  0  0  0  0  0  0  0  0  0
  140.8113   78.8574  219.7639 H   0  0  0  0  0  0  0  0  0  0  0  0
  141.7538   81.3810  220.4565 H   0  0  0  0  0  0  0  0  0  0  0  0
  141.7946   82.7462  222.5347 H   0  0  0  0  0  0  0  0  0  0  0  0
  141.9300   79.2083  224.9011 H   0  0  0  0  0  0  0  0  0  0  0  0
  141.8876   77.8285  222.8285 H   0  0  0  0  0  0  0  0  0  0  0  0
  139.1812   69.8744  222.3835 H   0  0  0  0  0  0  0  0  0  0  0  0
  139.0230   68.4335  224.3970 H   0  0  0  0  0  0  0  0  0  0  0  0
  139.4392   68.0641  226.7745 H   0  0  0  0  0  0  0  0  0  0  0  0
  141.3976   71.1910  229.0383 H   0  0  0  0  0  0  0  0  0  0  0  0
  141.5184   72.5804  226.9860 H   0  0  0  0  0  0  0  0  0  0  0  0
  1  2  2  0
  2  3  1  0
  3  4  1  0
  4  5  1  0
  5  6  2  0
  5  7  1  0
  7  8  1  0
  8  9  1  0
  9 10  1  0
 10 11  1  0
 11 12  1  0
 12 13  1  0
 13 14  1  0
 14 15  2  0
 15 16  1  0
 16 17  2  0
 17 18  1  0
 18 19  2  0
  2 20  1  0
 20 21  2  0
 21 22  1  0
 22 23  2  0
 23 24  1  0
 24 25  2  0
 25 26  1  0
 25 27  1  0
 27 28  2  0
 28 29  1  0
 29 30  2  0
 12  7  1  0
 19 14  1  0
 30 20  1  0
 29 23  1  0
  3 31  1  0
  4 32  1  0
  4 33  1  0
  8 34  1  0
  8 35  1  0
  9 36  1  0
  9 37  1  0
 10 38  1  0
 10 39  1  0
 11 40  1  0
 11 41  1  0
 12 42  1  1
 13 43  1  0
 13 44  1  0
 15 45  1  0
 16 46  1  0
 18 47  1  0
 19 48  1  0
 21 49  1  0
 22 50  1  0
 24 51  1  0
 27 52  1  0
 28 53  1  0
M  END
>  <smiles>  (86) 
O=C(NCC(=O)N1CCCCC1Cc1ccncc1)c1ccc2cc(F)ccc2n1

>  <score_type>  (86) 
oracle

>  <origin>  (86) 
autodockgpu

>  <m_score__min__energy>  (86) 
-8.8399999999999999

>  <m_primary>  (86) 
energy

>  <rmsd>  (86) 
1.5636185573257488

>  <m_score__min__rmsd>  (86) 
1.5636185573257488

>  <meeko>  (86) 
{"free_energy": -8.65, "intermolecular_energy": -10.44, "internal_energy": -1.6, "cluster_size": 35, "cluster_id": 2, "rank_in_cluster": 4}

>  <energy>  (86) 
-8.22

>  <cluster_rmsd>  (86) 
1.74

>  <cluster>  (86) 
2

$$$$

     RDKit          3D

 53 56  0  0  0  0  0  0  0  0999 V2000
  137.2740   75.6260  222.1050 O   0  0  0  0  0  0  0  0  0  0  0  0
  138.4940   75.7950  222.3040 C   0  0  0  0  0  0  0  0  0  0  0  0
  139.4210   74.7150  222.2420 N   0  0  0  0  0  0  0  0  0  0  0  0
  138.9080   73.4080  221.9410 C   0  0  0  0  0  0  0  0  0  0  0  0
  139.8340   72.4010  222.4950 C   0  0  0  0  0  0  0  0  0  0  0  0
  141.0700   72.6260  222.6780 O   0  0  0  0  0  0  0  0  0  0  0  0
  139.3050   71.1240  222.8350 N   0  0  0  0  0  0  0  0  0  0  0  0
  139.4070   69.9750  221.9250 C   0  0  0  0  0  0  0  0  0  0  0  0
  138.0780   69.2490  221.9000 C   0  0  0  0  0  0  0  0  0  0  0  0
  136.9480   70.0690  222.4250 C   0  0  0  0  0  0  0  0  0  0  0  0
  137.1880   70.6840  223.7760 C   0  0  0  0  0  0  0  0  0  0  0  0
  138.6310   70.8610  224.0990 C   0  0  1  0  0  0  0  0  0  0  0  0
  139.2440   69.7570  224.8790 C   0  0  0  0  0  0  0  0  0  0  0  0
  139.9820   70.2460  226.0730 C   0  0  0  0  0  0  0  0  0  0  0  0
  140.1870   69.3760  227.1500 C   0  0  0  0  0  0  0  0  0  0  0  0
  140.8690   69.7930  228.2850 C   0  0  0  0  0  0  0  0  0  0  0  0
  141.3380   71.0590  228.3420 N   0  0  0  0  0  0  0  0  0  0  0  0
  141.1710   71.9380  227.3390 C   0  0  0  0  0  0  0  0  0  0  0  0
  140.4850   71.5100  226.2010 C   0  0  0  0  0  0  0  0  0  0  0  0
  139.0190   77.1400  222.6130 C   0  0  0  0  0  0  0  0  0  0  0  0
  138.1180   78.1880  222.7790 C   0  0  0  0  0  0  0  0  0  0  0  0
  138.5900   79.4590  223.0700 C   0  0  0  0  0  0  0  0  0  0  0  0
  139.9450   79.7030  223.1990 C   0  0  0  0  0  0  0  0  0  0  0  0
  140.4200   80.9630  223.4870 C   0  0  0  0  0  0  0  0  0  0  0  0
  141.7910   81.1250  223.6000 C   0  0  0  0  0  0  0  0  0  0  0  0
  142.2390   82.3770  223.8860 F   0  0  0  0  0  0  0  0  0  0  0  0
  142.6800   80.0790  223.4330 C   0  0  0  0  0  0  0  0  0  0  0  0
  142.1660   78.8320  223.1440 C   0  0  0  0  0  0  0  0  0  0  0  0
  140.7980   78.6150  223.0210 C   0  0  0  0  0  0  0  0  0  0  0  0
  140.3270   77.3860  222.7390 N   0  0  0  0  0  0  0  0  0  0  0  0
  140.4440   74.8290  222.4040 H   0  0  0  0  0  0  0  0  0  0  0  0
  137.9134   73.2865  222.3948 H   0  0  0  0  0  0  0  0  0  0  0  0
  138.8202   73.2798  220.8520 H   0  0  0  0  0  0  0  0  0  0  0  0
  139.6546   70.3267  220.9126 H   0  0  0  0  0  0  0  0  0  0  0  0
  140.1973   69.2934  222.2727 H   0  0  0  0  0  0  0  0  0  0  0  0
  137.8527   68.9689  220.8604 H   0  0  0  0  0  0  0  0  0  0  0  0
  138.1744   68.3701  222.5544 H   0  0  0  0  0  0  0  0  0  0  0  0
  136.7535   70.8813  221.7092 H   0  0  0  0  0  0  0  0  0  0  0  0
  136.0972   69.3821  222.5448 H   0  0  0  0  0  0  0  0  0  0  0  0
  136.7018   71.6704  223.8011 H   0  0  0  0  0  0  0  0  0  0  0  0
  136.7705   69.9946  224.5247 H   0  0  0  0  0  0  0  0  0  0  0  0
  138.7465   71.7069  224.7926 H   0  0  0  0  0  0  0  0  0  0  0  0
  138.4474   69.0751  225.2113 H   0  0  0  0  0  0  0  0  0  0  0  0
  139.9664   69.2464  224.2252 H   0  0  0  0  0  0  0  0  0  0  0  0
  139.8022   68.3469  227.0963 H   0  0  0  0  0  0  0  0  0  0  0  0
  141.0255   69.1022  229.1266 H   0  0  0  0  0  0  0  0  0  0  0  0
  141.5629   72.9632  227.4126 H   0  0  0  0  0  0  0  0  0  0  0  0
  140.3435   72.2199  225.3728 H   0  0  0  0  0  0  0  0  0  0  0  0
  137.0372   78.0089  222.6799 H   0  0  0  0  0  0  0  0  0  0  0  0
  137.8759   80.2855  223.2002 H   0  0  0  0  0  0  0  0  0  0  0  0
  139.7340   81.8121  223.6227 H   0  0  0  0  0  0  0  0  0  0  0  0
  143.7645   80.2367  223.5278 H   0  0  0  0  0  0  0  0  0  0  0  0
  142.8566   77.9868  223.0072 H   0  0  0  0  0  0  0  0  0  0  0  0
  1  2  2  0
  2  3  1  0
  3  4  1  0
  4  5  1  0
  5  6  2  0
  5  7  1  0
  7  8  1  0
  8  9  1  0
  9 10  1  0
 10 11  1  0
 11 12  1  0
 12 13  1  0
 13 14  1  0
 14 15  2  0
 15 16  1  0
 16 17  2  0
 17 18  1  0
 18 19  2  0
  2 20  1  0
 20 21  2  0
 21 22  1  0
 22 23  2  0
 23 24  1  0
 24 25  2  0
 25 26  1  0
 25 27  1  0
 27 28  2  0
 28 29  1  0
 29 30  2  0
 12  7  1  0
 19 14  1  0
 30 20  1  0
 29 23  1  0
  3 31  1  0
  4 32  1  0
  4 33  1  0
  8 34  1  0
  8 35  1  0
  9 36  1  0
  9 37  1  0
 10 38  1  0
 10 39  1  0
 11 40  1  0
 11 41  1  0
 12 42  1  1
 13 43  1  0
 13 44  1  0
 15 45  1  0
 16 46  1  0
 18 47  1  0
 19 48  1  0
 21 49  1  0
 22 50  1  0
 24 51  1  0
 27 52  1  0
 28 53  1  0
M  END
>  <smiles>  (87) 
O=C(NCC(=O)N1CCCCC1Cc1ccncc1)c1ccc2cc(F)ccc2n1

>  <score_type>  (87) 
oracle

>  <origin>  (87) 
autodockgpu

>  <m_score__min__energy>  (87) 
-8.8399999999999999

>  <m_primary>  (87) 
energy

>  <rmsd>  (87) 
8.55175808011682

>  <m_score__min__rmsd>  (87) 
8.55175808011682

>  <meeko>  (87) 
{"free_energy": -7.85, "intermolecular_energy": -9.64, "internal_energy": -2.03, "cluster_size": 6, "cluster_id": 4, "rank_in_cluster": 3}

>  <energy>  (87) 
-8.21

>  <cluster_rmsd>  (87) 
1.3

>  <cluster>  (87) 
2

$$$$

     RDKit          3D

 53 56  0  0  0  0  0  0  0  0999 V2000
  141.0580   72.1090  221.4130 O   0  0  0  0  0  0  0  0  0  0  0  0
  140.2740   72.3940  222.3400 C   0  0  0  0  0  0  0  0  0  0  0  0
  139.4550   73.5600  222.2980 N   0  0  0  0  0  0  0  0  0  0  0  0
  139.5570   74.4090  221.1450 C   0  0  0  0  0  0  0  0  0  0  0  0
  140.0510   75.7310  221.5760 C   0  0  0  0  0  0  0  0  0  0  0  0
  141.2770   76.0610  221.5220 O   0  0  0  0  0  0  0  0  0  0  0  0
  139.1030   76.6700  222.0720 N   0  0  0  0  0  0  0  0  0  0  0  0
  137.9460   76.2530  222.8740 C   0  0  0  0  0  0  0  0  0  0  0  0
  136.7180   76.9960  222.3900 C   0  0  0  0  0  0  0  0  0  0  0  0
  136.8890   77.5950  221.0340 C   0  0  0  0  0  0  0  0  0  0  0  0
  138.1190   78.4430  220.8690 C   0  0  0  0  0  0  0  0  0  0  0  0
  139.2070   78.1020  221.8260 C   0  0  1  0  0  0  0  0  0  0  0  0
  139.2380   78.9160  223.0670 C   0  0  0  0  0  0  0  0  0  0  0  0
  140.5270   79.6320  223.2450 C   0  0  0  0  0  0  0  0  0  0  0  0
  141.7230   78.9680  222.9480 C   0  0  0  0  0  0  0  0  0  0  0  0
  142.9490   79.6000  223.1020 C   0  0  0  0  0  0  0  0  0  0  0  0
  142.9800   80.8760  223.5460 N   0  0  0  0  0  0  0  0  0  0  0  0
  141.8650   81.5640  223.8470 C   0  0  0  0  0  0  0  0  0  0  0  0
  140.6350   80.9200  223.6880 C   0  0  0  0  0  0  0  0  0  0  0  0
  140.1700   71.5200  223.5250 C   0  0  0  0  0  0  0  0  0  0  0  0
  139.5830   70.2670  223.3810 C   0  0  0  0  0  0  0  0  0  0  0  0
  139.4750   69.4290  224.4820 C   0  0  0  0  0  0  0  0  0  0  0  0
  139.9450   69.8200  225.7220 C   0  0  0  0  0  0  0  0  0  0  0  0
  139.8400   68.9920  226.8180 C   0  0  0  0  0  0  0  0  0  0  0  0
  140.3350   69.4580  228.0260 C   0  0  0  0  0  0  0  0  0  0  0  0
  140.2230   68.6260  229.0960 F   0  0  0  0  0  0  0  0  0  0  0  0
  140.9170   70.7050  228.1610 C   0  0  0  0  0  0  0  0  0  0  0  0
  141.0030   71.5050  227.0400 C   0  0  0  0  0  0  0  0  0  0  0  0
  140.5230   71.0850  225.8040 C   0  0  0  0  0  0  0  0  0  0  0  0
  140.6210   71.8890  224.7280 N   0  0  0  0  0  0  0  0  0  0  0  0
  138.7920   73.8210  223.0580 H   0  0  0  0  0  0  0  0  0  0  0  0
  140.2591   73.9688  220.4216 H   0  0  0  0  0  0  0  0  0  0  0  0
  138.5718   74.5135  220.6670 H   0  0  0  0  0  0  0  0  0  0  0  0
  137.7901   75.1699  222.7614 H   0  0  0  0  0  0  0  0  0  0  0  0
  138.1261   76.4831  223.9345 H   0  0  0  0  0  0  0  0  0  0  0  0
  135.8738   76.2916  222.3570 H   0  0  0  0  0  0  0  0  0  0  0  0
  136.5390   77.8234  223.0923 H   0  0  0  0  0  0  0  0  0  0  0  0
  136.9378   76.7755  220.3018 H   0  0  0  0  0  0  0  0  0  0  0  0
  136.0294   78.2640  220.8808 H   0  0  0  0  0  0  0  0  0  0  0  0
  138.5001   78.3085  219.8459 H   0  0  0  0  0  0  0  0  0  0  0  0
  137.8246   79.4835  221.0706 H   0  0  0  0  0  0  0  0  0  0  0  0
  140.1778   78.3575  221.3763 H   0  0  0  0  0  0  0  0  0  0  0  0
  138.4260   79.6568  223.0235 H   0  0  0  0  0  0  0  0  0  0  0  0
  139.1153   78.2313  223.9192 H   0  0  0  0  0  0  0  0  0  0  0  0
  141.6906   77.9294  222.5870 H   0  0  0  0  0  0  0  0  0  0  0  0
  143.8831   79.0693  222.8658 H   0  0  0  0  0  0  0  0  0  0  0  0
  141.9192   82.6019  224.2073 H   0  0  0  0  0  0  0  0  0  0  0  0
  139.7154   81.4731  223.9296 H   0  0  0  0  0  0  0  0  0  0  0  0
  139.2065   69.9422  222.3998 H   0  0  0  0  0  0  0  0  0  0  0  0
  139.0087   68.4394  224.3664 H   0  0  0  0  0  0  0  0  0  0  0  0
  139.3796   67.9962  226.7374 H   0  0  0  0  0  0  0  0  0  0  0  0
  141.3000   71.0490  229.1331 H   0  0  0  0  0  0  0  0  0  0  0  0
  141.4630   72.5005  227.1261 H   0  0  0  0  0  0  0  0  0  0  0  0
  1  2  2  0
  2  3  1  0
  3  4  1  0
  4  5  1  0
  5  6  2  0
  5  7  1  0
  7  8  1  0
  8  9  1  0
  9 10  1  0
 10 11  1  0
 11 12  1  0
 12 13  1  0
 13 14  1  0
 14 15  2  0
 15 16  1  0
 16 17  2  0
 17 18  1  0
 18 19  2  0
  2 20  1  0
 20 21  2  0
 21 22  1  0
 22 23  2  0
 23 24  1  0
 24 25  2  0
 25 26  1  0
 25 27  1  0
 27 28  2  0
 28 29  1  0
 29 30  2  0
 12  7  1  0
 19 14  1  0
 30 20  1  0
 29 23  1  0
  3 31  1  0
  4 32  1  0
  4 33  1  0
  8 34  1  0
  8 35  1  0
  9 36  1  0
  9 37  1  0
 10 38  1  0
 10 39  1  0
 11 40  1  0
 11 41  1  0
 12 42  1  6
 13 43  1  0
 13 44  1  0
 15 45  1  0
 16 46  1  0
 18 47  1  0
 19 48  1  0
 21 49  1  0
 22 50  1  0
 24 51  1  0
 27 52  1  0
 28 53  1  0
M  END
>  <smiles>  (88) 
O=C(NCC(=O)N1CCCCC1Cc1ccncc1)c1ccc2cc(F)ccc2n1

>  <score_type>  (88) 
oracle

>  <origin>  (88) 
autodockgpu

>  <m_score__min__energy>  (88) 
-8.8399999999999999

>  <m_primary>  (88) 
energy

>  <rmsd>  (88) 
3.112511556904697

>  <m_score__min__rmsd>  (88) 
3.112511556904697

>  <meeko>  (88) 
{"free_energy": -8.63, "intermolecular_energy": -10.42, "internal_energy": -1.4, "cluster_size": 35, "cluster_id": 2, "rank_in_cluster": 5}

>  <energy>  (88) 
-8.2

>  <cluster_rmsd>  (88) 
1.91

>  <cluster>  (88) 
2

$$$$

     RDKit          3D

 53 56  0  0  0  0  0  0  0  0999 V2000
  141.0830   71.5040  221.3660 O   0  0  0  0  0  0  0  0  0  0  0  0
  140.5150   72.0070  222.3560 C   0  0  0  0  0  0  0  0  0  0  0  0
  140.0530   73.3550  222.3520 N   0  0  0  0  0  0  0  0  0  0  0  0
  140.2610   74.1310  221.1620 C   0  0  0  0  0  0  0  0  0  0  0  0
  140.0150   75.5520  221.4770 C   0  0  0  0  0  0  0  0  0  0  0  0
  139.4730   75.9340  222.5600 O   0  0  0  0  0  0  0  0  0  0  0  0
  140.4100   76.5270  220.5190 N   0  0  0  0  0  0  0  0  0  0  0  0
  139.7140   76.6770  219.2340 C   0  0  0  0  0  0  0  0  0  0  0  0
  140.7420   76.8420  218.1340 C   0  0  0  0  0  0  0  0  0  0  0  0
  142.1100   76.4050  218.5370 C   0  0  0  0  0  0  0  0  0  0  0  0
  142.6120   77.0020  219.8220 C   0  0  0  0  0  0  0  0  0  0  0  0
  141.5220   77.4420  220.7360 C   0  0  1  0  0  0  0  0  0  0  0  0
  141.1420   78.8730  220.6260 C   0  0  0  0  0  0  0  0  0  0  0  0
  141.3840   79.6240  221.8850 C   0  0  0  0  0  0  0  0  0  0  0  0
  142.6960   79.7640  222.3520 C   0  0  0  0  0  0  0  0  0  0  0  0
  142.9660   80.4570  223.5240 C   0  0  0  0  0  0  0  0  0  0  0  0
  141.9420   81.0000  224.2180 N   0  0  0  0  0  0  0  0  0  0  0  0
  140.6630   80.8980  223.8180 C   0  0  0  0  0  0  0  0  0  0  0  0
  140.4000   80.2000  222.6370 C   0  0  0  0  0  0  0  0  0  0  0  0
  140.3020   71.2080  223.5790 C   0  0  0  0  0  0  0  0  0  0  0  0
  139.5920   70.0150  223.4830 C   0  0  0  0  0  0  0  0  0  0  0  0
  139.3800   69.2490  224.6200 C   0  0  0  0  0  0  0  0  0  0  0  0
  139.8660   69.6520  225.8500 C   0  0  0  0  0  0  0  0  0  0  0  0
  139.6590   68.8950  226.9820 C   0  0  0  0  0  0  0  0  0  0  0  0
  140.1770   69.3680  228.1770 C   0  0  0  0  0  0  0  0  0  0  0  0
  139.9620   68.6060  229.2830 F   0  0  0  0  0  0  0  0  0  0  0  0
  140.8820   70.5540  228.2640 C   0  0  0  0  0  0  0  0  0  0  0  0
  141.0680   71.2850  227.1090 C   0  0  0  0  0  0  0  0  0  0  0  0
  140.5690   70.8540  225.8840 C   0  0  0  0  0  0  0  0  0  0  0  0
  140.7670   71.5890  224.7740 N   0  0  0  0  0  0  0  0  0  0  0  0
  139.5760   73.7990  223.1650 H   0  0  0  0  0  0  0  0  0  0  0  0
  141.2960   74.0028  220.8123 H   0  0  0  0  0  0  0  0  0  0  0  0
  139.5735   73.7971  220.3709 H   0  0  0  0  0  0  0  0  0  0  0  0
  139.1042   75.7827  219.0380 H   0  0  0  0  0  0  0  0  0  0  0  0
  139.0588   77.5600  219.2665 H   0  0  0  0  0  0  0  0  0  0  0  0
  140.4252   76.2437  217.2670 H   0  0  0  0  0  0  0  0  0  0  0  0
  140.7982   77.9149  217.8978 H   0  0  0  0  0  0  0  0  0  0  0  0
  142.0999   75.3108  218.6495 H   0  0  0  0  0  0  0  0  0  0  0  0
  142.7910   76.7552  217.7473 H   0  0  0  0  0  0  0  0  0  0  0  0
  143.2202   76.2476  220.3426 H   0  0  0  0  0  0  0  0  0  0  0  0
  143.1950   77.8967  219.5581 H   0  0  0  0  0  0  0  0  0  0  0  0
  141.8790   77.3923  221.7753 H   0  0  0  0  0  0  0  0  0  0  0  0
  141.7330   79.3341  219.8210 H   0  0  0  0  0  0  0  0  0  0  0  0
  140.0639   78.9172  220.4123 H   0  0  0  0  0  0  0  0  0  0  0  0
  143.5248   79.3186  221.7822 H   0  0  0  0  0  0  0  0  0  0  0  0
  144.0004   80.5627  223.8830 H   0  0  0  0  0  0  0  0  0  0  0  0
  139.8484   81.3503  224.4026 H   0  0  0  0  0  0  0  0  0  0  0  0
  139.3572   80.1105  222.2986 H   0  0  0  0  0  0  0  0  0  0  0  0
  139.2009   69.6811  222.5106 H   0  0  0  0  0  0  0  0  0  0  0  0
  138.8170   68.3072  224.5418 H   0  0  0  0  0  0  0  0  0  0  0  0
  139.1017   67.9476  226.9388 H   0  0  0  0  0  0  0  0  0  0  0  0
  141.2831   70.9046  229.2264 H   0  0  0  0  0  0  0  0  0  0  0  0
  141.6248   72.2324  227.1578 H   0  0  0  0  0  0  0  0  0  0  0  0
  1  2  2  0
  2  3  1  0
  3  4  1  0
  4  5  1  0
  5  6  2  0
  5  7  1  0
  7  8  1  0
  8  9  1  0
  9 10  1  0
 10 11  1  0
 11 12  1  0
 12 13  1  0
 13 14  1  0
 14 15  2  0
 15 16  1  0
 16 17  2  0
 17 18  1  0
 18 19  2  0
  2 20  1  0
 20 21  2  0
 21 22  1  0
 22 23  2  0
 23 24  1  0
 24 25  2  0
 25 26  1  0
 25 27  1  0
 27 28  2  0
 28 29  1  0
 29 30  2  0
 12  7  1  0
 19 14  1  0
 30 20  1  0
 29 23  1  0
  3 31  1  0
  4 32  1  0
  4 33  1  0
  8 34  1  0
  8 35  1  0
  9 36  1  0
  9 37  1  0
 10 38  1  0
 10 39  1  0
 11 40  1  0
 11 41  1  0
 12 42  1  1
 13 43  1  0
 13 44  1  0
 15 45  1  0
 16 46  1  0
 18 47  1  0
 19 48  1  0
 21 49  1  0
 22 50  1  0
 24 51  1  0
 27 52  1  0
 28 53  1  0
M  END
>  <smiles>  (89) 
O=C(NCC(=O)N1CCCCC1Cc1ccncc1)c1ccc2cc(F)ccc2n1

>  <score_type>  (89) 
oracle

>  <origin>  (89) 
autodockgpu

>  <m_score__min__energy>  (89) 
-8.8399999999999999

>  <m_primary>  (89) 
energy

>  <rmsd>  (89) 
1.6850293101260019

>  <m_score__min__rmsd>  (89) 
1.6850293101260019

>  <meeko>  (89) 
{"free_energy": -8.35, "intermolecular_energy": -10.14, "internal_energy": -1.88, "cluster_size": 35, "cluster_id": 2, "rank_in_cluster": 22}

>  <energy>  (89) 
-8.09

>  <cluster_rmsd>  (89) 
1.41

>  <cluster>  (89) 
2

$$$$

     RDKit          3D

 53 56  0  0  0  0  0  0  0  0999 V2000
  139.7930   70.8110  221.3020 O   0  0  0  0  0  0  0  0  0  0  0  0
  139.8190   71.4030  222.3990 C   0  0  0  0  0  0  0  0  0  0  0  0
  139.8540   72.8250  222.4840 N   0  0  0  0  0  0  0  0  0  0  0  0
  139.8590   73.5700  221.2570 C   0  0  0  0  0  0  0  0  0  0  0  0
  139.8930   75.0100  221.5800 C   0  0  0  0  0  0  0  0  0  0  0  0
  139.5530   75.4710  222.7130 O   0  0  0  0  0  0  0  0  0  0  0  0
  140.3290   75.9110  220.5680 N   0  0  0  0  0  0  0  0  0  0  0  0
  139.5810   76.0940  219.3180 C   0  0  0  0  0  0  0  0  0  0  0  0
  140.5570   76.1210  218.1600 C   0  0  0  0  0  0  0  0  0  0  0  0
  141.8940   75.5590  218.5040 C   0  0  0  0  0  0  0  0  0  0  0  0
  142.5250   76.1380  219.7390 C   0  0  0  0  0  0  0  0  0  0  0  0
  141.5380   76.7140  220.6940 C   0  0  1  0  0  0  0  0  0  0  0  0
  141.2980   78.1720  220.5550 C   0  0  0  0  0  0  0  0  0  0  0  0
  141.6320   78.9230  221.7930 C   0  0  0  0  0  0  0  0  0  0  0  0
  141.3990   78.3250  223.0370 C   0  0  0  0  0  0  0  0  0  0  0  0
  141.6950   78.9930  224.2170 C   0  0  0  0  0  0  0  0  0  0  0  0
  142.2150   80.2380  224.1560 N   0  0  0  0  0  0  0  0  0  0  0  0
  142.4610   80.8620  222.9910 C   0  0  0  0  0  0  0  0  0  0  0  0
  142.1610   80.1830  221.8080 C   0  0  0  0  0  0  0  0  0  0  0  0
  139.8130   70.6360  223.6610 C   0  0  0  0  0  0  0  0  0  0  0  0
  139.2290   69.3730  223.6720 C   0  0  0  0  0  0  0  0  0  0  0  0
  139.2130   68.6350  224.8470 C   0  0  0  0  0  0  0  0  0  0  0  0
  139.7700   69.1350  226.0090 C   0  0  0  0  0  0  0  0  0  0  0  0
  139.7570   68.4070  227.1780 C   0  0  0  0  0  0  0  0  0  0  0  0
  140.3360   68.9790  228.3000 C   0  0  0  0  0  0  0  0  0  0  0  0
  140.3130   68.2440  229.4440 F   0  0  0  0  0  0  0  0  0  0  0  0
  140.9150   70.2350  228.2800 C   0  0  0  0  0  0  0  0  0  0  0  0
  140.9070   70.9330  227.0910 C   0  0  0  0  0  0  0  0  0  0  0  0
  140.3400   70.4050  225.9360 C   0  0  0  0  0  0  0  0  0  0  0  0
  140.3490   71.1110  224.7900 N   0  0  0  0  0  0  0  0  0  0  0  0
  139.8760   73.3440  223.3870 H   0  0  0  0  0  0  0  0  0  0  0  0
  140.7462   73.3021  220.6645 H   0  0  0  0  0  0  0  0  0  0  0  0
  138.9566   73.3373  220.6727 H   0  0  0  0  0  0  0  0  0  0  0  0
  138.8743   75.2615  219.1856 H   0  0  0  0  0  0  0  0  0  0  0  0
  139.0208   77.0400  219.3546 H   0  0  0  0  0  0  0  0  0  0  0  0
  140.1334   75.5332  217.3323 H   0  0  0  0  0  0  0  0  0  0  0  0
  140.7073   77.1753  217.8845 H   0  0  0  0  0  0  0  0  0  0  0  0
  141.7807   74.4752  218.6541 H   0  0  0  0  0  0  0  0  0  0  0  0
  142.5609   75.8153  217.6676 H   0  0  0  0  0  0  0  0  0  0  0  0
  143.0822   75.3405  220.2523 H   0  0  0  0  0  0  0  0  0  0  0  0
  143.1796   76.9601  219.4138 H   0  0  0  0  0  0  0  0  0  0  0  0
  141.9463   76.6588  221.7139 H   0  0  0  0  0  0  0  0  0  0  0  0
  141.9187   78.5550  219.7315 H   0  0  0  0  0  0  0  0  0  0  0  0
  140.2263   78.3172  220.3542 H   0  0  0  0  0  0  0  0  0  0  0  0
  140.9751   77.3109  223.0800 H   0  0  0  0  0  0  0  0  0  0  0  0
  141.5084   78.5144  225.1897 H   0  0  0  0  0  0  0  0  0  0  0  0
  142.8857   81.8765  222.9701 H   0  0  0  0  0  0  0  0  0  0  0  0
  142.3587   80.6832  220.8484 H   0  0  0  0  0  0  0  0  0  0  0  0
  138.7826   68.9620  222.7545 H   0  0  0  0  0  0  0  0  0  0  0  0
  138.7501   67.6372  224.8538 H   0  0  0  0  0  0  0  0  0  0  0  0
  139.3028   67.4060  227.2198 H   0  0  0  0  0  0  0  0  0  0  0  0
  141.3683   70.6642  229.1857 H   0  0  0  0  0  0  0  0  0  0  0  0
  141.3612   71.9342  227.0549 H   0  0  0  0  0  0  0  0  0  0  0  0
  1  2  2  0
  2  3  1  0
  3  4  1  0
  4  5  1  0
  5  6  2  0
  5  7  1  0
  7  8  1  0
  8  9  1  0
  9 10  1  0
 10 11  1  0
 11 12  1  0
 12 13  1  0
 13 14  1  0
 14 15  2  0
 15 16  1  0
 16 17  2  0
 17 18  1  0
 18 19  2  0
  2 20  1  0
 20 21  2  0
 21 22  1  0
 22 23  2  0
 23 24  1  0
 24 25  2  0
 25 26  1  0
 25 27  1  0
 27 28  2  0
 28 29  1  0
 29 30  2  0
 12  7  1  0
 19 14  1  0
 30 20  1  0
 29 23  1  0
  3 31  1  0
  4 32  1  0
  4 33  1  0
  8 34  1  0
  8 35  1  0
  9 36  1  0
  9 37  1  0
 10 38  1  0
 10 39  1  0
 11 40  1  0
 11 41  1  0
 12 42  1  1
 13 43  1  0
 13 44  1  0
 15 45  1  0
 16 46  1  0
 18 47  1  0
 19 48  1  0
 21 49  1  0
 22 50  1  0
 24 51  1  0
 27 52  1  0
 28 53  1  0
M  END
>  <smiles>  (90) 
O=C(NCC(=O)N1CCCCC1Cc1ccncc1)c1ccc2cc(F)ccc2n1

>  <score_type>  (90) 
oracle

>  <origin>  (90) 
autodockgpu

>  <m_score__min__energy>  (90) 
-8.8399999999999999

>  <m_primary>  (90) 
energy

>  <rmsd>  (90) 
1.371641306729747

>  <m_score__min__rmsd>  (90) 
1.371641306729747

>  <meeko>  (90) 
{"free_energy": -8.35, "intermolecular_energy": -10.14, "internal_energy": -1.99, "cluster_size": 35, "cluster_id": 2, "rank_in_cluster": 20}

>  <energy>  (90) 
-8.06

>  <cluster_rmsd>  (90) 
1.57

>  <cluster>  (90) 
2

$$$$

     RDKit          3D

 53 56  0  0  0  0  0  0  0  0999 V2000
  140.1650   71.3310  221.0390 O   0  0  0  0  0  0  0  0  0  0  0  0
  139.9620   71.8800  222.1410 C   0  0  0  0  0  0  0  0  0  0  0  0
  139.7550   73.2860  222.2530 N   0  0  0  0  0  0  0  0  0  0  0  0
  139.7850   74.0650  221.0470 C   0  0  0  0  0  0  0  0  0  0  0  0
  140.1370   75.4560  221.3950 C   0  0  0  0  0  0  0  0  0  0  0  0
  140.0220   75.9230  222.5710 O   0  0  0  0  0  0  0  0  0  0  0  0
  140.6240   76.3010  220.3590 N   0  0  0  0  0  0  0  0  0  0  0  0
  139.9120   76.4530  219.0830 C   0  0  0  0  0  0  0  0  0  0  0  0
  140.9170   76.4030  217.9500 C   0  0  0  0  0  0  0  0  0  0  0  0
  142.2280   75.8170  218.3520 C   0  0  0  0  0  0  0  0  0  0  0  0
  142.8450   76.4300  219.5780 C   0  0  0  0  0  0  0  0  0  0  0  0
  141.8530   77.0730  220.4820 C   0  0  1  0  0  0  0  0  0  0  0  0
  141.6600   78.5310  220.2770 C   0  0  0  0  0  0  0  0  0  0  0  0
  141.7330   79.2980  221.5470 C   0  0  0  0  0  0  0  0  0  0  0  0
  141.7770   80.6960  221.4960 C   0  0  0  0  0  0  0  0  0  0  0  0
  141.8470   81.4520  222.6580 C   0  0  0  0  0  0  0  0  0  0  0  0
  141.8730   80.8200  223.8520 N   0  0  0  0  0  0  0  0  0  0  0  0
  141.8330   79.4810  223.9630 C   0  0  0  0  0  0  0  0  0  0  0  0
  141.7620   78.7290  222.7890 C   0  0  0  0  0  0  0  0  0  0  0  0
  139.9320   71.0770  223.3800 C   0  0  0  0  0  0  0  0  0  0  0  0
  139.3420   69.8170  223.3450 C   0  0  0  0  0  0  0  0  0  0  0  0
  139.3020   69.0460  224.4970 C   0  0  0  0  0  0  0  0  0  0  0  0
  139.8410   69.5100  225.6830 C   0  0  0  0  0  0  0  0  0  0  0  0
  139.8040   68.7490  226.8300 C   0  0  0  0  0  0  0  0  0  0  0  0
  140.3650   69.2850  227.9780 C   0  0  0  0  0  0  0  0  0  0  0  0
  140.3190   68.5180  229.0990 F   0  0  0  0  0  0  0  0  0  0  0  0
  140.9500   70.5380  228.0040 C   0  0  0  0  0  0  0  0  0  0  0  0
  140.9660   71.2710  226.8360 C   0  0  0  0  0  0  0  0  0  0  0  0
  140.4170   70.7780  225.6570 C   0  0  0  0  0  0  0  0  0  0  0  0
  140.4490   71.5170  224.5310 N   0  0  0  0  0  0  0  0  0  0  0  0
  139.5850   73.7690  223.1600 H   0  0  0  0  0  0  0  0  0  0  0  0
  140.5374   73.6533  220.3582 H   0  0  0  0  0  0  0  0  0  0  0  0
  138.8008   74.0373  220.5564 H   0  0  0  0  0  0  0  0  0  0  0  0
  139.1841   75.6365  218.9670 H   0  0  0  0  0  0  0  0  0  0  0  0
  139.3796   77.4154  219.0661 H   0  0  0  0  0  0  0  0  0  0  0  0
  140.4965   75.7935  217.1365 H   0  0  0  0  0  0  0  0  0  0  0  0
  141.1057   77.4399  217.6349 H   0  0  0  0  0  0  0  0  0  0  0  0
  142.0784   74.7444  218.5445 H   0  0  0  0  0  0  0  0  0  0  0  0
  142.9230   76.0174  217.5233 H   0  0  0  0  0  0  0  0  0  0  0  0
  143.3659   75.6396  220.1383 H   0  0  0  0  0  0  0  0  0  0  0  0
  143.5308   77.2190  219.2358 H   0  0  0  0  0  0  0  0  0  0  0  0
  142.2347   77.0484  221.5134 H   0  0  0  0  0  0  0  0  0  0  0  0
  142.4430   78.8985  219.5973 H   0  0  0  0  0  0  0  0  0  0  0  0
  140.6555   78.6792  219.8540 H   0  0  0  0  0  0  0  0  0  0  0  0
  141.7558   81.2033  220.5202 H   0  0  0  0  0  0  0  0  0  0  0  0
  141.8808   82.5503  222.6075 H   0  0  0  0  0  0  0  0  0  0  0  0
  141.8555   78.9929  224.9485 H   0  0  0  0  0  0  0  0  0  0  0  0
  141.7280   77.6323  222.8670 H   0  0  0  0  0  0  0  0  0  0  0  0
  138.9097   69.4347  222.4085 H   0  0  0  0  0  0  0  0  0  0  0  0
  138.8347   68.0507  224.4669 H   0  0  0  0  0  0  0  0  0  0  0  0
  139.3447   67.7495  226.8348 H   0  0  0  0  0  0  0  0  0  0  0  0
  141.3897   70.9382  228.9294 H   0  0  0  0  0  0  0  0  0  0  0  0
  141.4246   72.2709  226.8368 H   0  0  0  0  0  0  0  0  0  0  0  0
  1  2  2  0
  2  3  1  0
  3  4  1  0
  4  5  1  0
  5  6  2  0
  5  7  1  0
  7  8  1  0
  8  9  1  0
  9 10  1  0
 10 11  1  0
 11 12  1  0
 12 13  1  0
 13 14  1  0
 14 15  2  0
 15 16  1  0
 16 17  2  0
 17 18  1  0
 18 19  2  0
  2 20  1  0
 20 21  2  0
 21 22  1  0
 22 23  2  0
 23 24  1  0
 24 25  2  0
 25 26  1  0
 25 27  1  0
 27 28  2  0
 28 29  1  0
 29 30  2  0
 12  7  1  0
 19 14  1  0
 30 20  1  0
 29 23  1  0
  3 31  1  0
  4 32  1  0
  4 33  1  0
  8 34  1  0
  8 35  1  0
  9 36  1  0
  9 37  1  0
 10 38  1  0
 10 39  1  0
 11 40  1  0
 11 41  1  0
 12 42  1  1
 13 43  1  0
 13 44  1  0
 15 45  1  0
 16 46  1  0
 18 47  1  0
 19 48  1  0
 21 49  1  0
 22 50  1  0
 24 51  1  0
 27 52  1  0
 28 53  1  0
M  END
>  <smiles>  (91) 
O=C(NCC(=O)N1CCCCC1Cc1ccncc1)c1ccc2cc(F)ccc2n1

>  <score_type>  (91) 
oracle

>  <origin>  (91) 
autodockgpu

>  <m_score__min__energy>  (91) 
-8.8399999999999999

>  <m_primary>  (91) 
energy

>  <rmsd>  (91) 
1.414646242879116

>  <m_score__min__rmsd>  (91) 
1.414646242879116

>  <meeko>  (91) 
{"free_energy": -8.47, "intermolecular_energy": -10.26, "internal_energy": -1.94, "cluster_size": 35, "cluster_id": 2, "rank_in_cluster": 13}

>  <energy>  (91) 
-8.04

>  <cluster_rmsd>  (91) 
1.69

>  <cluster>  (91) 
2

$$$$

     RDKit          3D

 53 56  0  0  0  0  0  0  0  0999 V2000
  140.1080   71.4810  221.0780 O   0  0  0  0  0  0  0  0  0  0  0  0
  139.9280   72.0120  222.1920 C   0  0  0  0  0  0  0  0  0  0  0  0
  139.7300   73.4170  222.3300 N   0  0  0  0  0  0  0  0  0  0  0  0
  139.7440   74.2160  221.1370 C   0  0  0  0  0  0  0  0  0  0  0  0
  140.1890   75.5790  221.4890 C   0  0  0  0  0  0  0  0  0  0  0  0
  140.1800   76.0220  222.6790 O   0  0  0  0  0  0  0  0  0  0  0  0
  140.6470   76.4240  220.4390 N   0  0  0  0  0  0  0  0  0  0  0  0
  139.9810   76.4650  219.1310 C   0  0  0  0  0  0  0  0  0  0  0  0
  141.0340   76.4600  218.0420 C   0  0  0  0  0  0  0  0  0  0  0  0
  142.3720   76.0060  218.5200 C   0  0  0  0  0  0  0  0  0  0  0  0
  142.8810   76.7150  219.7440 C   0  0  0  0  0  0  0  0  0  0  0  0
  141.7990   77.3030  220.5800 C   0  0  1  0  0  0  0  0  0  0  0  0
  141.4930   78.7300  220.3080 C   0  0  0  0  0  0  0  0  0  0  0  0
  141.6990   79.5930  221.5000 C   0  0  0  0  0  0  0  0  0  0  0  0
  142.0160   78.9970  222.7260 C   0  0  0  0  0  0  0  0  0  0  0  0
  142.2150   79.7670  223.8640 C   0  0  0  0  0  0  0  0  0  0  0  0
  142.0990   81.1100  223.7780 N   0  0  0  0  0  0  0  0  0  0  0  0
  141.7970   81.7380  222.6280 C   0  0  0  0  0  0  0  0  0  0  0  0
  141.5990   80.9560  221.4880 C   0  0  0  0  0  0  0  0  0  0  0  0
  139.9150   71.1890  223.4170 C   0  0  0  0  0  0  0  0  0  0  0  0
  139.3970   69.8990  223.3500 C   0  0  0  0  0  0  0  0  0  0  0  0
  139.3740   69.1080  224.4890 C   0  0  0  0  0  0  0  0  0  0  0  0
  139.8610   69.5820  225.6940 C   0  0  0  0  0  0  0  0  0  0  0  0
  139.8410   68.8010  226.8280 C   0  0  0  0  0  0  0  0  0  0  0  0
  140.3460   69.3490  227.9960 C   0  0  0  0  0  0  0  0  0  0  0  0
  140.3180   68.5630  229.1050 F   0  0  0  0  0  0  0  0  0  0  0  0
  140.8590   70.6320  228.0550 C   0  0  0  0  0  0  0  0  0  0  0  0
  140.8610   71.3830  226.8980 C   0  0  0  0  0  0  0  0  0  0  0  0
  140.3660   70.8800  225.7000 C   0  0  0  0  0  0  0  0  0  0  0  0
  140.3820   71.6380  224.5860 N   0  0  0  0  0  0  0  0  0  0  0  0
  139.5780   73.8850  223.2480 H   0  0  0  0  0  0  0  0  0  0  0  0
  140.4378   73.7770  220.4049 H   0  0  0  0  0  0  0  0  0  0  0  0
  138.7368   74.2513  220.6961 H   0  0  0  0  0  0  0  0  0  0  0  0
  139.3313   75.5843  219.0200 H   0  0  0  0  0  0  0  0  0  0  0  0
  139.3697   77.3762  219.0532 H   0  0  0  0  0  0  0  0  0  0  0  0
  140.7026   75.7858  217.2385 H   0  0  0  0  0  0  0  0  0  0  0  0
  141.1467   77.4966  217.6917 H   0  0  0  0  0  0  0  0  0  0  0  0
  142.3065   74.9322  218.7496 H   0  0  0  0  0  0  0  0  0  0  0  0
  143.0825   76.2361  217.7124 H   0  0  0  0  0  0  0  0  0  0  0  0
  143.4419   75.9938  220.3566 H   0  0  0  0  0  0  0  0  0  0  0  0
  143.5122   77.5468  219.3982 H   0  0  0  0  0  0  0  0  0  0  0  0
  142.1352   77.3497  221.6263 H   0  0  0  0  0  0  0  0  0  0  0  0
  142.1490   79.0835  219.4989 H   0  0  0  0  0  0  0  0  0  0  0  0
  140.4318   78.7966  220.0263 H   0  0  0  0  0  0  0  0  0  0  0  0
  142.1088   77.9027  222.7888 H   0  0  0  0  0  0  0  0  0  0  0  0
  142.4639   79.2896  224.8232 H   0  0  0  0  0  0  0  0  0  0  0  0
  141.7086   82.8337  222.5865 H   0  0  0  0  0  0  0  0  0  0  0  0
  141.3522   81.4580  220.5409 H   0  0  0  0  0  0  0  0  0  0  0  0
  139.0077   69.5086  222.3982 H   0  0  0  0  0  0  0  0  0  0  0  0
  138.9627   68.0893  224.4335 H   0  0  0  0  0  0  0  0  0  0  0  0
  139.4381   67.7777  226.8072 H   0  0  0  0  0  0  0  0  0  0  0  0
  141.2537   71.0414  228.9966 H   0  0  0  0  0  0  0  0  0  0  0  0
  141.2645   72.4060  226.9238 H   0  0  0  0  0  0  0  0  0  0  0  0
  1  2  2  0
  2  3  1  0
  3  4  1  0
  4  5  1  0
  5  6  2  0
  5  7  1  0
  7  8  1  0
  8  9  1  0
  9 10  1  0
 10 11  1  0
 11 12  1  0
 12 13  1  0
 13 14  1  0
 14 15  2  0
 15 16  1  0
 16 17  2  0
 17 18  1  0
 18 19  2  0
  2 20  1  0
 20 21  2  0
 21 22  1  0
 22 23  2  0
 23 24  1  0
 24 25  2  0
 25 26  1  0
 25 27  1  0
 27 28  2  0
 28 29  1  0
 29 30  2  0
 12  7  1  0
 19 14  1  0
 30 20  1  0
 29 23  1  0
  3 31  1  0
  4 32  1  0
  4 33  1  0
  8 34  1  0
  8 35  1  0
  9 36  1  0
  9 37  1  0
 10 38  1  0
 10 39  1  0
 11 40  1  0
 11 41  1  0
 12 42  1  1
 13 43  1  0
 13 44  1  0
 15 45  1  0
 16 46  1  0
 18 47  1  0
 19 48  1  0
 21 49  1  0
 22 50  1  0
 24 51  1  0
 27 52  1  0
 28 53  1  0
M  END
>  <smiles>  (92) 
O=C(NCC(=O)N1CCCCC1Cc1ccncc1)c1ccc2cc(F)ccc2n1

>  <score_type>  (92) 
oracle

>  <origin>  (92) 
autodockgpu

>  <m_score__min__energy>  (92) 
-8.8399999999999999

>  <m_primary>  (92) 
energy

>  <rmsd>  (92) 
1.4560442334728572

>  <m_score__min__rmsd>  (92) 
1.4560442334728572

>  <meeko>  (92) 
{"free_energy": -8.5, "intermolecular_energy": -10.29, "internal_energy": -1.93, "cluster_size": 35, "cluster_id": 2, "rank_in_cluster": 12}

>  <energy>  (92) 
-7.76

>  <cluster_rmsd>  (92) 
1.72

>  <cluster>  (92) 
2

$$$$

     RDKit          3D

 53 56  0  0  0  0  0  0  0  0999 V2000
  141.6060   72.3050  221.7190 O   0  0  0  0  0  0  0  0  0  0  0  0
  140.6090   72.4740  222.4490 C   0  0  0  0  0  0  0  0  0  0  0  0
  139.6650   73.5130  222.2010 N   0  0  0  0  0  0  0  0  0  0  0  0
  139.8930   74.3710  221.0730 C   0  0  0  0  0  0  0  0  0  0  0  0
  140.5190   75.6200  221.5520 C   0  0  0  0  0  0  0  0  0  0  0  0
  140.2860   76.1120  222.6990 O   0  0  0  0  0  0  0  0  0  0  0  0
  141.4210   76.2920  220.6800 N   0  0  0  0  0  0  0  0  0  0  0  0
  141.6170   77.7460  220.7380 C   0  0  0  0  0  0  0  0  0  0  0  0
  141.6410   78.2960  219.3260 C   0  0  0  0  0  0  0  0  0  0  0  0
  141.0640   77.3580  218.3200 C   0  0  0  0  0  0  0  0  0  0  0  0
  141.6320   75.9660  218.3540 C   0  0  0  0  0  0  0  0  0  0  0  0
  142.2120   75.5950  219.6740 C   0  0  1  0  0  0  0  0  0  0  0  0
  143.6730   75.8190  219.8100 C   0  0  0  0  0  0  0  0  0  0  0  0
  144.4500   74.5550  219.7500 C   0  0  0  0  0  0  0  0  0  0  0  0
  145.2590   74.2000  220.8350 C   0  0  0  0  0  0  0  0  0  0  0  0
  146.0020   73.0280  220.8200 C   0  0  0  0  0  0  0  0  0  0  0  0
  145.9390   72.2230  219.7360 N   0  0  0  0  0  0  0  0  0  0  0  0
  145.1800   72.5120  218.6650 C   0  0  0  0  0  0  0  0  0  0  0  0
  144.4340   73.6930  218.6890 C   0  0  0  0  0  0  0  0  0  0  0  0
  140.3750   71.5900  223.6080 C   0  0  0  0  0  0  0  0  0  0  0  0
  139.6730   70.4040  223.4130 C   0  0  0  0  0  0  0  0  0  0  0  0
  139.4420   69.5590  224.4890 C   0  0  0  0  0  0  0  0  0  0  0  0
  139.9000   69.8770  225.7550 C   0  0  0  0  0  0  0  0  0  0  0  0
  139.6740   69.0420  226.8260 C   0  0  0  0  0  0  0  0  0  0  0  0
  140.1650   69.4310  228.0620 C   0  0  0  0  0  0  0  0  0  0  0  0
  139.9310   68.5930  229.1070 F   0  0  0  0  0  0  0  0  0  0  0  0
  140.8620   70.6110  228.2470 C   0  0  0  0  0  0  0  0  0  0  0  0
  141.0670   71.4220  227.1500 C   0  0  0  0  0  0  0  0  0  0  0  0
  140.5960   71.0770  225.8880 C   0  0  0  0  0  0  0  0  0  0  0  0
  140.8130   71.8890  224.8350 N   0  0  0  0  0  0  0  0  0  0  0  0
  138.8240   73.6750  222.7950 H   0  0  0  0  0  0  0  0  0  0  0  0
  140.5621   73.8719  220.3566 H   0  0  0  0  0  0  0  0  0  0  0  0
  138.9398   74.5957  220.5721 H   0  0  0  0  0  0  0  0  0  0  0  0
  140.7916   78.2075  221.2998 H   0  0  0  0  0  0  0  0  0  0  0  0
  142.5677   77.9736  221.2423 H   0  0  0  0  0  0  0  0  0  0  0  0
  141.0616   79.2308  219.3051 H   0  0  0  0  0  0  0  0  0  0  0  0
  142.6951   78.4570  219.0559 H   0  0  0  0  0  0  0  0  0  0  0  0
  139.9807   77.2896  218.4984 H   0  0  0  0  0  0  0  0  0  0  0  0
  141.3172   77.7707  217.3323 H   0  0  0  0  0  0  0  0  0  0  0  0
  140.8272   75.2553  218.1149 H   0  0  0  0  0  0  0  0  0  0  0  0
  142.4499   75.9315  217.6192 H   0  0  0  0  0  0  0  0  0  0  0  0
  142.1476   74.5046  219.8039 H   0  0  0  0  0  0  0  0  0  0  0  0
  144.0065   76.4771  218.9941 H   0  0  0  0  0  0  0  0  0  0  0  0
  143.8511   76.2744  220.7953 H   0  0  0  0  0  0  0  0  0  0  0  0
  145.3068   74.8602  221.7136 H   0  0  0  0  0  0  0  0  0  0  0  0
  146.6338   72.7577  221.6789 H   0  0  0  0  0  0  0  0  0  0  0  0
  145.1472   71.8388  217.7957 H   0  0  0  0  0  0  0  0  0  0  0  0
  143.8082   73.9394  217.8186 H   0  0  0  0  0  0  0  0  0  0  0  0
  139.3035   70.1382  222.4116 H   0  0  0  0  0  0  0  0  0  0  0  0
  138.8865   68.6225  224.3331 H   0  0  0  0  0  0  0  0  0  0  0  0
  139.1224   68.0981  226.7047 H   0  0  0  0  0  0  0  0  0  0  0  0
  141.2418   70.8946  229.2396 H   0  0  0  0  0  0  0  0  0  0  0  0
  141.6173   72.3660  227.2769 H   0  0  0  0  0  0  0  0  0  0  0  0
  1  2  2  0
  2  3  1  0
  3  4  1  0
  4  5  1  0
  5  6  2  0
  5  7  1  0
  7  8  1  0
  8  9  1  0
  9 10  1  0
 10 11  1  0
 11 12  1  0
 12 13  1  0
 13 14  1  0
 14 15  2  0
 15 16  1  0
 16 17  2  0
 17 18  1  0
 18 19  2  0
  2 20  1  0
 20 21  2  0
 21 22  1  0
 22 23  2  0
 23 24  1  0
 24 25  2  0
 25 26  1  0
 25 27  1  0
 27 28  2  0
 28 29  1  0
 29 30  2  0
 12  7  1  0
 19 14  1  0
 30 20  1  0
 29 23  1  0
  3 31  1  0
  4 32  1  0
  4 33  1  0
  8 34  1  0
  8 35  1  0
  9 36  1  0
  9 37  1  0
 10 38  1  0
 10 39  1  0
 11 40  1  0
 11 41  1  0
 12 42  1  1
 13 43  1  0
 13 44  1  0
 15 45  1  0
 16 46  1  0
 18 47  1  0
 19 48  1  0
 21 49  1  0
 22 50  1  0
 24 51  1  0
 27 52  1  0
 28 53  1  0
M  END
>  <smiles>  (93) 
O=C(NCC(=O)N1CCCCC1Cc1ccncc1)c1ccc2cc(F)ccc2n1

>  <score_type>  (93) 
oracle

>  <origin>  (93) 
autodockgpu

>  <m_score__min__energy>  (93) 
-8.8399999999999999

>  <m_primary>  (93) 
energy

>  <rmsd>  (93) 
2.4324384395230045

>  <m_score__min__rmsd>  (93) 
2.4324384395230045

>  <meeko>  (93) 
{"free_energy": -8.79, "intermolecular_energy": -10.58, "internal_energy": -1.61, "cluster_size": 8, "cluster_id": 1, "rank_in_cluster": 2}

>  <energy>  (93) 
-7.73

>  <cluster_rmsd>  (93) 
1.81

>  <cluster>  (93) 
2

$$$$

     RDKit          3D

 53 56  0  0  0  0  0  0  0  0999 V2000
  140.9770   71.5610  221.3190 O   0  0  0  0  0  0  0  0  0  0  0  0
  140.4410   72.0950  222.3110 C   0  0  0  0  0  0  0  0  0  0  0  0
  140.0130   73.4540  222.2930 N   0  0  0  0  0  0  0  0  0  0  0  0
  140.2170   74.2040  221.0860 C   0  0  0  0  0  0  0  0  0  0  0  0
  140.2500   75.6400  221.4250 C   0  0  0  0  0  0  0  0  0  0  0  0
  139.9260   76.0870  222.5690 O   0  0  0  0  0  0  0  0  0  0  0  0
  140.6670   76.5550  220.4170 N   0  0  0  0  0  0  0  0  0  0  0  0
  139.9140   76.7280  219.1680 C   0  0  0  0  0  0  0  0  0  0  0  0
  140.8880   76.7810  218.0090 C   0  0  0  0  0  0  0  0  0  0  0  0
  142.2370   76.2440  218.3500 C   0  0  0  0  0  0  0  0  0  0  0  0
  142.8570   76.8310  219.5880 C   0  0  0  0  0  0  0  0  0  0  0  0
  141.8590   77.3810  220.5460 C   0  0  1  0  0  0  0  0  0  0  0  0
  141.5900   78.8350  220.4140 C   0  0  0  0  0  0  0  0  0  0  0  0
  141.5650   79.5300  221.7270 C   0  0  0  0  0  0  0  0  0  0  0  0
  142.7760   79.8730  222.3380 C   0  0  0  0  0  0  0  0  0  0  0  0
  142.7990   80.5220  223.5650 C   0  0  0  0  0  0  0  0  0  0  0  0
  141.6290   80.8230  224.1710 N   0  0  0  0  0  0  0  0  0  0  0  0
  140.4360   80.5190  223.6320 C   0  0  0  0  0  0  0  0  0  0  0  0
  140.4230   79.8670  222.3970 C   0  0  0  0  0  0  0  0  0  0  0  0
  140.2330   71.3210  223.5520 C   0  0  0  0  0  0  0  0  0  0  0  0
  139.5730   70.0990  223.4740 C   0  0  0  0  0  0  0  0  0  0  0  0
  139.3650   69.3560  224.6270 C   0  0  0  0  0  0  0  0  0  0  0  0
  139.8070   69.8120  225.8560 C   0  0  0  0  0  0  0  0  0  0  0  0
  139.6040   69.0780  227.0040 C   0  0  0  0  0  0  0  0  0  0  0  0
  140.0760   69.6040  228.1960 C   0  0  0  0  0  0  0  0  0  0  0  0
  139.8670   68.8650  229.3180 F   0  0  0  0  0  0  0  0  0  0  0  0
  140.7320   70.8200  228.2650 C   0  0  0  0  0  0  0  0  0  0  0  0
  140.9150   71.5250  227.0930 C   0  0  0  0  0  0  0  0  0  0  0  0
  140.4610   71.0420  225.8710 C   0  0  0  0  0  0  0  0  0  0  0  0
  140.6550   71.7540  224.7440 N   0  0  0  0  0  0  0  0  0  0  0  0
  139.5640   73.9230  223.1070 H   0  0  0  0  0  0  0  0  0  0  0  0
  141.1709   73.9102  220.6237 H   0  0  0  0  0  0  0  0  0  0  0  0
  139.4009   74.0037  220.3761 H   0  0  0  0  0  0  0  0  0  0  0  0
  139.2249   75.8814  219.0324 H   0  0  0  0  0  0  0  0  0  0  0  0
  139.3342   77.6619  219.2096 H   0  0  0  0  0  0  0  0  0  0  0  0
  140.4758   76.1890  217.1786 H   0  0  0  0  0  0  0  0  0  0  0  0
  141.0164   77.8394  217.7382 H   0  0  0  0  0  0  0  0  0  0  0  0
  142.1456   75.1575  218.4957 H   0  0  0  0  0  0  0  0  0  0  0  0
  142.8983   76.5168  217.5144 H   0  0  0  0  0  0  0  0  0  0  0  0
  143.4316   76.0432  220.0972 H   0  0  0  0  0  0  0  0  0  0  0  0
  143.4936   77.6684  219.2662 H   0  0  0  0  0  0  0  0  0  0  0  0
  142.2682   77.3280  221.5657 H   0  0  0  0  0  0  0  0  0  0  0  0
  142.3779   79.2845  219.7918 H   0  0  0  0  0  0  0  0  0  0  0  0
  140.5970   78.9511  219.9552 H   0  0  0  0  0  0  0  0  0  0  0  0
  143.7241   79.6247  221.8386 H   0  0  0  0  0  0  0  0  0  0  0  0
  143.7562   80.7876  224.0375 H   0  0  0  0  0  0  0  0  0  0  0  0
  139.4988   80.7757  224.1476 H   0  0  0  0  0  0  0  0  0  0  0  0
  139.4527   79.6142  221.9448 H   0  0  0  0  0  0  0  0  0  0  0  0
  139.2178   69.7236  222.5030 H   0  0  0  0  0  0  0  0  0  0  0  0
  138.8413   68.3908  224.5631 H   0  0  0  0  0  0  0  0  0  0  0  0
  139.0854   68.1083  226.9754 H   0  0  0  0  0  0  0  0  0  0  0  0
  141.0968   71.2131  229.2254 H   0  0  0  0  0  0  0  0  0  0  0  0
  141.4336   72.4945  227.1265 H   0  0  0  0  0  0  0  0  0  0  0  0
  1  2  2  0
  2  3  1  0
  3  4  1  0
  4  5  1  0
  5  6  2  0
  5  7  1  0
  7  8  1  0
  8  9  1  0
  9 10  1  0
 10 11  1  0
 11 12  1  0
 12 13  1  0
 13 14  1  0
 14 15  2  0
 15 16  1  0
 16 17  2  0
 17 18  1  0
 18 19  2  0
  2 20  1  0
 20 21  2  0
 21 22  1  0
 22 23  2  0
 23 24  1  0
 24 25  2  0
 25 26  1  0
 25 27  1  0
 27 28  2  0
 28 29  1  0
 29 30  2  0
 12  7  1  0
 19 14  1  0
 30 20  1  0
 29 23  1  0
  3 31  1  0
  4 32  1  0
  4 33  1  0
  8 34  1  0
  8 35  1  0
  9 36  1  0
  9 37  1  0
 10 38  1  0
 10 39  1  0
 11 40  1  0
 11 41  1  0
 12 42  1  1
 13 43  1  0
 13 44  1  0
 15 45  1  0
 16 46  1  0
 18 47  1  0
 19 48  1  0
 21 49  1  0
 22 50  1  0
 24 51  1  0
 27 52  1  0
 28 53  1  0
M  END
>  <smiles>  (94) 
O=C(NCC(=O)N1CCCCC1Cc1ccncc1)c1ccc2cc(F)ccc2n1

>  <score_type>  (94) 
oracle

>  <origin>  (94) 
autodockgpu

>  <m_score__min__energy>  (94) 
-8.8399999999999999

>  <m_primary>  (94) 
energy

>  <rmsd>  (94) 
1.6875061521146382

>  <m_score__min__rmsd>  (94) 
1.6875061521146382

>  <meeko>  (94) 
{"free_energy": -8.35, "intermolecular_energy": -10.14, "internal_energy": -1.91, "cluster_size": 35, "cluster_id": 2, "rank_in_cluster": 21}

>  <energy>  (94) 
-8.1

>  <cluster_rmsd>  (94) 
0.0

>  <cluster>  (94) 
3

$$$$

     RDKit          3D

 53 56  0  0  0  0  0  0  0  0999 V2000
  139.9520   73.6810  222.6820 O   0  0  0  0  0  0  0  0  0  0  0  0
  140.0650   72.4510  222.5060 C   0  0  0  0  0  0  0  0  0  0  0  0
  140.1850   71.8870  221.2030 N   0  0  0  0  0  0  0  0  0  0  0  0
  140.1730   72.7830  220.0810 C   0  0  0  0  0  0  0  0  0  0  0  0
  141.3670   73.6480  220.1560 C   0  0  0  0  0  0  0  0  0  0  0  0
  142.5160   73.2110  220.4750 O   0  0  0  0  0  0  0  0  0  0  0  0
  141.2110   75.0300  219.8530 N   0  0  0  0  0  0  0  0  0  0  0  0
  140.5150   75.4850  218.6430 C   0  0  0  0  0  0  0  0  0  0  0  0
  141.3100   76.6100  218.0120 C   0  0  0  0  0  0  0  0  0  0  0  0
  142.7200   76.6770  218.4950 C   0  0  0  0  0  0  0  0  0  0  0  0
  142.8760   76.6950  219.9900 C   0  0  0  0  0  0  0  0  0  0  0  0
  141.7240   76.0880  220.7130 C   0  0  1  0  0  0  0  0  0  0  0  0
  140.6820   77.0450  221.1600 C   0  0  0  0  0  0  0  0  0  0  0  0
  141.2580   78.2510  221.8090 C   0  0  0  0  0  0  0  0  0  0  0  0
  141.4320   78.2590  223.1980 C   0  0  0  0  0  0  0  0  0  0  0  0
  141.9660   79.3650  223.8450 C   0  0  0  0  0  0  0  0  0  0  0  0
  142.3180   80.4460  223.1160 N   0  0  0  0  0  0  0  0  0  0  0  0
  142.1740   80.4960  221.7800 C   0  0  0  0  0  0  0  0  0  0  0  0
  141.6380   79.3780  221.1370 C   0  0  0  0  0  0  0  0  0  0  0  0
  140.0780   71.5310  223.6610 C   0  0  0  0  0  0  0  0  0  0  0  0
  139.5760   70.2440  223.4960 C   0  0  0  0  0  0  0  0  0  0  0  0
  139.5780   69.3640  224.5680 C   0  0  0  0  0  0  0  0  0  0  0  0
  140.0740   69.7460  225.8010 C   0  0  0  0  0  0  0  0  0  0  0  0
  140.0790   68.8760  226.8690 C   0  0  0  0  0  0  0  0  0  0  0  0
  140.5920   69.3340  228.0710 C   0  0  0  0  0  0  0  0  0  0  0  0
  140.5890   68.4600  229.1130 F   0  0  0  0  0  0  0  0  0  0  0  0
  141.0900   70.6150  228.2270 C   0  0  0  0  0  0  0  0  0  0  0  0
  141.0670   71.4570  227.1350 C   0  0  0  0  0  0  0  0  0  0  0  0
  140.5630   71.0460  225.9060 C   0  0  0  0  0  0  0  0  0  0  0  0
  140.5550   71.8910  224.8570 N   0  0  0  0  0  0  0  0  0  0  0  0
  140.2810   70.8650  221.0290 H   0  0  0  0  0  0  0  0  0  0  0  0
  140.1922   72.2052  219.1452 H   0  0  0  0  0  0  0  0  0  0  0  0
  139.2614   73.3983  220.1013 H   0  0  0  0  0  0  0  0  0  0  0  0
  140.4277   74.6506  217.9316 H   0  0  0  0  0  0  0  0  0  0  0  0
  139.5080   75.8421  218.9048 H   0  0  0  0  0  0  0  0  0  0  0  0
  141.3206   76.4618  216.9221 H   0  0  0  0  0  0  0  0  0  0  0  0
  140.8222   77.5540  218.2963 H   0  0  0  0  0  0  0  0  0  0  0  0
  143.2567   75.7992  218.1058 H   0  0  0  0  0  0  0  0  0  0  0  0
  143.1262   77.6321  218.1306 H   0  0  0  0  0  0  0  0  0  0  0  0
  143.7860   76.1355  220.2522 H   0  0  0  0  0  0  0  0  0  0  0  0
  142.9328   77.7496  220.2976 H   0  0  0  0  0  0  0  0  0  0  0  0
  142.0728   75.6830  221.6744 H   0  0  0  0  0  0  0  0  0  0  0  0
  140.0951   77.3615  220.2852 H   0  0  0  0  0  0  0  0  0  0  0  0
  140.0545   76.5325  221.9040 H   0  0  0  0  0  0  0  0  0  0  0  0
  141.1412   77.3757  223.7855 H   0  0  0  0  0  0  0  0  0  0  0  0
  142.1006   79.3610  224.9367 H   0  0  0  0  0  0  0  0  0  0  0  0
  142.4693   81.3899  221.2110 H   0  0  0  0  0  0  0  0  0  0  0  0
  141.5168   79.4061  220.0441 H   0  0  0  0  0  0  0  0  0  0  0  0
  139.1796   69.9260  222.5204 H   0  0  0  0  0  0  0  0  0  0  0  0
  139.1792   68.3474  224.4355 H   0  0  0  0  0  0  0  0  0  0  0  0
  139.6888   67.8523  226.7704 H   0  0  0  0  0  0  0  0  0  0  0  0
  141.4925   70.9522  229.1936 H   0  0  0  0  0  0  0  0  0  0  0  0
  141.4574   72.4801  227.2389 H   0  0  0  0  0  0  0  0  0  0  0  0
  1  2  2  0
  2  3  1  0
  3  4  1  0
  4  5  1  0
  5  6  2  0
  5  7  1  0
  7  8  1  0
  8  9  1  0
  9 10  1  0
 10 11  1  0
 11 12  1  0
 12 13  1  0
 13 14  1  0
 14 15  2  0
 15 16  1  0
 16 17  2  0
 17 18  1  0
 18 19  2  0
  2 20  1  0
 20 21  2  0
 21 22  1  0
 22 23  2  0
 23 24  1  0
 24 25  2  0
 25 26  1  0
 25 27  1  0
 27 28  2  0
 28 29  1  0
 29 30  2  0
 12  7  1  0
 19 14  1  0
 30 20  1  0
 29 23  1  0
  3 31  1  0
  4 32  1  0
  4 33  1  0
  8 34  1  0
  8 35  1  0
  9 36  1  0
  9 37  1  0
 10 38  1  0
 10 39  1  0
 11 40  1  0
 11 41  1  0
 12 42  1  1
 13 43  1  0
 13 44  1  0
 15 45  1  0
 16 46  1  0
 18 47  1  0
 19 48  1  0
 21 49  1  0
 22 50  1  0
 24 51  1  0
 27 52  1  0
 28 53  1  0
M  END
>  <smiles>  (95) 
O=C(NCC(=O)N1CCCCC1Cc1ccncc1)c1ccc2cc(F)ccc2n1

>  <score_type>  (95) 
oracle

>  <origin>  (95) 
autodockgpu

>  <m_score__min__energy>  (95) 
-8.8399999999999999

>  <m_primary>  (95) 
energy

>  <rmsd>  (95) 
1.8697251052899844

>  <m_score__min__rmsd>  (95) 
1.8697251052899844

>  <meeko>  (95) 
{"free_energy": -8.1, "intermolecular_energy": -9.89, "internal_energy": -1.45, "cluster_size": 1, "cluster_id": 3, "rank_in_cluster": 1}

>  <energy>  (95) 
-8.0

>  <cluster_rmsd>  (95) 
0.0

>  <cluster>  (95) 
4

$$$$

     RDKit          3D

 53 56  0  0  0  0  0  0  0  0999 V2000
  138.0750   71.1000  221.8150 O   0  0  0  0  0  0  0  0  0  0  0  0
  138.8040   71.5270  222.7320 C   0  0  0  0  0  0  0  0  0  0  0  0
  139.3280   72.8520  222.7200 N   0  0  0  0  0  0  0  0  0  0  0  0
  138.9900   73.6960  221.6090 C   0  0  0  0  0  0  0  0  0  0  0  0
  140.0500   74.7110  221.4490 C   0  0  0  0  0  0  0  0  0  0  0  0
  141.1770   74.6290  222.0290 O   0  0  0  0  0  0  0  0  0  0  0  0
  139.7850   75.8260  220.6050 N   0  0  0  0  0  0  0  0  0  0  0  0
  138.4870   76.0060  219.9430 C   0  0  0  0  0  0  0  0  0  0  0  0
  138.7220   76.4290  218.5070 C   0  0  0  0  0  0  0  0  0  0  0  0
  140.1080   76.1540  218.0320 C   0  0  0  0  0  0  0  0  0  0  0  0
  141.1990   76.6810  218.9230 C   0  0  0  0  0  0  0  0  0  0  0  0
  140.7710   76.8640  220.3370 C   0  0  1  0  0  0  0  0  0  0  0  0
  140.3040   78.2290  220.6870 C   0  0  0  0  0  0  0  0  0  0  0  0
  141.0750   78.8230  221.8090 C   0  0  0  0  0  0  0  0  0  0  0  0
  141.8550   79.9610  221.5720 C   0  0  0  0  0  0  0  0  0  0  0  0
  142.5910   80.5480  222.5930 C   0  0  0  0  0  0  0  0  0  0  0  0
  142.5500   80.0050  223.8290 N   0  0  0  0  0  0  0  0  0  0  0  0
  141.8190   78.9130  224.1160 C   0  0  0  0  0  0  0  0  0  0  0  0
  141.0810   78.3300  223.0830 C   0  0  0  0  0  0  0  0  0  0  0  0
  139.1510   70.6570  223.8750 C   0  0  0  0  0  0  0  0  0  0  0  0
  138.8210   69.3070  223.8110 C   0  0  0  0  0  0  0  0  0  0  0  0
  139.1370   68.4720  224.8730 C   0  0  0  0  0  0  0  0  0  0  0  0
  139.7770   68.9620  225.9970 C   0  0  0  0  0  0  0  0  0  0  0  0
  140.0940   68.1380  227.0540 C   0  0  0  0  0  0  0  0  0  0  0  0
  140.7340   68.7060  228.1440 C   0  0  0  0  0  0  0  0  0  0  0  0
  141.0380   67.8760  229.1770 F   0  0  0  0  0  0  0  0  0  0  0  0
  141.0590   70.0490  228.1990 C   0  0  0  0  0  0  0  0  0  0  0  0
  140.7250   70.8420  227.1210 C   0  0  0  0  0  0  0  0  0  0  0  0
  140.0820   70.3220  226.0030 C   0  0  0  0  0  0  0  0  0  0  0  0
  139.7690   71.1220  224.9660 N   0  0  0  0  0  0  0  0  0  0  0  0
  139.9390   73.2320  223.4730 H   0  0  0  0  0  0  0  0  0  0  0  0
  138.9150   73.0910  220.6934 H   0  0  0  0  0  0  0  0  0  0  0  0
  138.0231   74.1879  221.7912 H   0  0  0  0  0  0  0  0  0  0  0  0
  137.9284   75.0586  219.9620 H   0  0  0  0  0  0  0  0  0  0  0  0
  137.9051   76.7778  220.4681 H   0  0  0  0  0  0  0  0  0  0  0  0
  138.0170   75.8837  217.8623 H   0  0  0  0  0  0  0  0  0  0  0  0
  138.5702   77.5174  218.4583 H   0  0  0  0  0  0  0  0  0  0  0  0
  140.2309   75.0640  217.9494 H   0  0  0  0  0  0  0  0  0  0  0  0
  140.2144   76.6783  217.0709 H   0  0  0  0  0  0  0  0  0  0  0  0
  142.0394   75.9715  218.9021 H   0  0  0  0  0  0  0  0  0  0  0  0
  141.4818   77.6721  218.5385 H   0  0  0  0  0  0  0  0  0  0  0  0
  141.6458   76.7597  220.9957 H   0  0  0  0  0  0  0  0  0  0  0  0
  140.4111   78.8759  219.8038 H   0  0  0  0  0  0  0  0  0  0  0  0
  139.2542   78.1518  221.0064 H   0  0  0  0  0  0  0  0  0  0  0  0
  141.8854   80.3966  220.5624 H   0  0  0  0  0  0  0  0  0  0  0  0
  143.1994   81.4434  222.3976 H   0  0  0  0  0  0  0  0  0  0  0  0
  141.8028   78.4922  225.1322 H   0  0  0  0  0  0  0  0  0  0  0  0
  140.4793   77.4363  223.3048 H   0  0  0  0  0  0  0  0  0  0  0  0
  138.3122   68.9037  222.9230 H   0  0  0  0  0  0  0  0  0  0  0  0
  138.8748   67.4050  224.8203 H   0  0  0  0  0  0  0  0  0  0  0  0
  139.8477   67.0661  227.0337 H   0  0  0  0  0  0  0  0  0  0  0  0
  141.5690   70.4725  229.0768 H   0  0  0  0  0  0  0  0  0  0  0  0
  140.9737   71.9132  227.1463 H   0  0  0  0  0  0  0  0  0  0  0  0
  1  2  2  0
  2  3  1  0
  3  4  1  0
  4  5  1  0
  5  6  2  0
  5  7  1  0
  7  8  1  0
  8  9  1  0
  9 10  1  0
 10 11  1  0
 11 12  1  0
 12 13  1  0
 13 14  1  0
 14 15  2  0
 15 16  1  0
 16 17  2  0
 17 18  1  0
 18 19  2  0
  2 20  1  0
 20 21  2  0
 21 22  1  0
 22 23  2  0
 23 24  1  0
 24 25  2  0
 25 26  1  0
 25 27  1  0
 27 28  2  0
 28 29  1  0
 29 30  2  0
 12  7  1  0
 19 14  1  0
 30 20  1  0
 29 23  1  0
  3 31  1  0
  4 32  1  0
  4 33  1  0
  8 34  1  0
  8 35  1  0
  9 36  1  0
  9 37  1  0
 10 38  1  0
 10 39  1  0
 11 40  1  0
 11 41  1  0
 12 42  1  1
 13 43  1  0
 13 44  1  0
 15 45  1  0
 16 46  1  0
 18 47  1  0
 19 48  1  0
 21 49  1  0
 22 50  1  0
 24 51  1  0
 27 52  1  0
 28 53  1  0
M  END
>  <smiles>  (96) 
O=C(NCC(=O)N1CCCCC1Cc1ccncc1)c1ccc2cc(F)ccc2n1

>  <score_type>  (96) 
oracle

>  <origin>  (96) 
autodockgpu

>  <m_score__min__energy>  (96) 
-8.8399999999999999

>  <m_primary>  (96) 
energy

>  <rmsd>  (96) 
1.4225364097621425

>  <m_score__min__rmsd>  (96) 
1.4225364097621425

>  <meeko>  (96) 
{"free_energy": -7.76, "intermolecular_energy": -9.55, "internal_energy": -1.91, "cluster_size": 35, "cluster_id": 2, "rank_in_cluster": 34}

>  <energy>  (96) 
-7.85

>  <cluster_rmsd>  (96) 
1.32

>  <cluster>  (96) 
4

$$$$

     RDKit          3D

 53 56  0  0  0  0  0  0  0  0999 V2000
  141.4640   74.1990  221.2920 O   0  0  0  0  0  0  0  0  0  0  0  0
  140.4440   74.6470  221.8520 C   0  0  0  0  0  0  0  0  0  0  0  0
  139.4190   73.7880  222.3450 N   0  0  0  0  0  0  0  0  0  0  0  0
  139.5940   72.3730  222.1800 C   0  0  0  0  0  0  0  0  0  0  0  0
  138.4450   71.6820  222.7970 C   0  0  0  0  0  0  0  0  0  0  0  0
  137.3360   72.2570  223.0280 O   0  0  0  0  0  0  0  0  0  0  0  0
  138.5990   70.3100  223.1450 N   0  0  0  0  0  0  0  0  0  0  0  0
  139.2570   69.3520  222.2480 C   0  0  0  0  0  0  0  0  0  0  0  0
  138.4480   68.0710  222.2180 C   0  0  0  0  0  0  0  0  0  0  0  0
  137.0560   68.2420  222.7250 C   0  0  0  0  0  0  0  0  0  0  0  0
  136.9510   68.9020  224.0720 C   0  0  0  0  0  0  0  0  0  0  0  0
  138.1220   69.7580  224.4060 C   0  0  1  0  0  0  0  0  0  0  0  0
  139.1850   69.0940  225.2010 C   0  0  0  0  0  0  0  0  0  0  0  0
  139.9090   70.0430  226.0860 C   0  0  0  0  0  0  0  0  0  0  0  0
  139.7280   69.9570  227.4710 C   0  0  0  0  0  0  0  0  0  0  0  0
  140.3840   70.8250  228.3330 C   0  0  0  0  0  0  0  0  0  0  0  0
  141.2080   71.7640  227.8190 N   0  0  0  0  0  0  0  0  0  0  0  0
  141.4210   71.8950  226.4980 C   0  0  0  0  0  0  0  0  0  0  0  0
  140.7580   71.0170  225.6380 C   0  0  0  0  0  0  0  0  0  0  0  0
  140.2660   76.1030  222.0210 C   0  0  0  0  0  0  0  0  0  0  0  0
  138.9740   76.6120  222.1130 C   0  0  0  0  0  0  0  0  0  0  0  0
  138.7840   77.9770  222.2720 C   0  0  0  0  0  0  0  0  0  0  0  0
  139.8610   78.8420  222.3420 C   0  0  0  0  0  0  0  0  0  0  0  0
  139.6780   80.1980  222.5000 C   0  0  0  0  0  0  0  0  0  0  0  0
  140.8080   80.9970  222.5610 C   0  0  0  0  0  0  0  0  0  0  0  0
  140.6070   82.3330  222.7170 F   0  0  0  0  0  0  0  0  0  0  0  0
  142.0890   80.4840  222.4690 C   0  0  0  0  0  0  0  0  0  0  0  0
  142.2310   79.1210  222.3100 C   0  0  0  0  0  0  0  0  0  0  0  0
  141.1300   78.2740  222.2440 C   0  0  0  0  0  0  0  0  0  0  0  0
  141.3000   76.9470  222.0890 N   0  0  0  0  0  0  0  0  0  0  0  0
  138.5580   74.1370  222.8160 H   0  0  0  0  0  0  0  0  0  0  0  0
  139.6423   72.1279  221.1087 H   0  0  0  0  0  0  0  0  0  0  0  0
  140.5292   72.0511  222.6614 H   0  0  0  0  0  0  0  0  0  0  0  0
  139.3154   69.7755  221.2345 H   0  0  0  0  0  0  0  0  0  0  0  0
  140.2743   69.1415  222.6096 H   0  0  0  0  0  0  0  0  0  0  0  0
  138.3999   67.7124  221.1792 H   0  0  0  0  0  0  0  0  0  0  0  0
  138.9509   67.3518  222.8812 H   0  0  0  0  0  0  0  0  0  0  0  0
  136.5007   68.8548  221.9997 H   0  0  0  0  0  0  0  0  0  0  0  0
  136.6437   67.2292  222.8440 H   0  0  0  0  0  0  0  0  0  0  0  0
  136.0470   69.5286  224.0833 H   0  0  0  0  0  0  0  0  0  0  0  0
  136.9115   68.0997  224.8235 H   0  0  0  0  0  0  0  0  0  0  0  0
  137.8035   70.5558  225.0931 H   0  0  0  0  0  0  0  0  0  0  0  0
  138.7244   68.3125  225.8232 H   0  0  0  0  0  0  0  0  0  0  0  0
  139.9153   68.6705  224.4957 H   0  0  0  0  0  0  0  0  0  0  0  0
  139.0557   69.1899  227.8828 H   0  0  0  0  0  0  0  0  0  0  0  0
  140.2349   70.7492  229.4202 H   0  0  0  0  0  0  0  0  0  0  0  0
  142.0967   72.6698  226.1067 H   0  0  0  0  0  0  0  0  0  0  0  0
  140.9256   71.1128  224.5551 H   0  0  0  0  0  0  0  0  0  0  0  0
  138.1081   75.9356  222.0599 H   0  0  0  0  0  0  0  0  0  0  0  0
  137.7619   78.3772  222.3435 H   0  0  0  0  0  0  0  0  0  0  0  0
  138.6697   80.6313  222.5751 H   0  0  0  0  0  0  0  0  0  0  0  0
  142.9683   81.1430  222.5210 H   0  0  0  0  0  0  0  0  0  0  0  0
  143.2414   78.6930  222.2334 H   0  0  0  0  0  0  0  0  0  0  0  0
  1  2  2  0
  2  3  1  0
  3  4  1  0
  4  5  1  0
  5  6  2  0
  5  7  1  0
  7  8  1  0
  8  9  1  0
  9 10  1  0
 10 11  1  0
 11 12  1  0
 12 13  1  0
 13 14  1  0
 14 15  2  0
 15 16  1  0
 16 17  2  0
 17 18  1  0
 18 19  2  0
  2 20  1  0
 20 21  2  0
 21 22  1  0
 22 23  2  0
 23 24  1  0
 24 25  2  0
 25 26  1  0
 25 27  1  0
 27 28  2  0
 28 29  1  0
 29 30  2  0
 12  7  1  0
 19 14  1  0
 30 20  1  0
 29 23  1  0
  3 31  1  0
  4 32  1  0
  4 33  1  0
  8 34  1  0
  8 35  1  0
  9 36  1  0
  9 37  1  0
 10 38  1  0
 10 39  1  0
 11 40  1  0
 11 41  1  0
 12 42  1  1
 13 43  1  0
 13 44  1  0
 15 45  1  0
 16 46  1  0
 18 47  1  0
 19 48  1  0
 21 49  1  0
 22 50  1  0
 24 51  1  0
 27 52  1  0
 28 53  1  0
M  END
>  <smiles>  (97) 
O=C(NCC(=O)N1CCCCC1Cc1ccncc1)c1ccc2cc(F)ccc2n1

>  <score_type>  (97) 
oracle

>  <origin>  (97) 
autodockgpu

>  <m_score__min__energy>  (97) 
-8.8399999999999999

>  <m_primary>  (97) 
energy

>  <rmsd>  (97) 
8.721309699804612

>  <m_score__min__rmsd>  (97) 
8.721309699804612

>  <meeko>  (97) 
{"free_energy": -7.63, "intermolecular_energy": -9.42, "internal_energy": -1.92, "cluster_size": 6, "cluster_id": 4, "rank_in_cluster": 6}

>  <energy>  (97) 
-7.85

>  <cluster_rmsd>  (97) 
1.49

>  <cluster>  (97) 
4

$$$$

     RDKit          3D

 53 56  0  0  0  0  0  0  0  0999 V2000
  140.6530   71.2210  221.2480 O   0  0  0  0  0  0  0  0  0  0  0  0
  140.2470   71.7790  222.2880 C   0  0  0  0  0  0  0  0  0  0  0  0
  139.9130   73.1630  222.3150 N   0  0  0  0  0  0  0  0  0  0  0  0
  140.0570   73.9120  221.0990 C   0  0  0  0  0  0  0  0  0  0  0  0
  140.0420   75.3510  221.4260 C   0  0  0  0  0  0  0  0  0  0  0  0
  139.6810   75.7960  222.5600 O   0  0  0  0  0  0  0  0  0  0  0  0
  140.4520   76.2700  220.4200 N   0  0  0  0  0  0  0  0  0  0  0  0
  139.5870   76.6120  219.2830 C   0  0  0  0  0  0  0  0  0  0  0  0
  140.4180   76.6180  218.0170 C   0  0  0  0  0  0  0  0  0  0  0  0
  141.7180   75.9010  218.1620 C   0  0  0  0  0  0  0  0  0  0  0  0
  142.5480   76.3290  219.3410 C   0  0  0  0  0  0  0  0  0  0  0  0
  141.7470   76.9350  220.4400 C   0  0  1  0  0  0  0  0  0  0  0  0
  141.6530   78.4160  220.4120 C   0  0  0  0  0  0  0  0  0  0  0  0
  141.8130   79.0220  221.7590 C   0  0  0  0  0  0  0  0  0  0  0  0
  142.3650   80.3030  221.8680 C   0  0  0  0  0  0  0  0  0  0  0  0
  142.5340   80.9060  223.1080 C   0  0  0  0  0  0  0  0  0  0  0  0
  142.1570   80.2370  224.2200 N   0  0  0  0  0  0  0  0  0  0  0  0
  141.6220   79.0050  224.1770 C   0  0  0  0  0  0  0  0  0  0  0  0
  141.4550   78.4070  222.9260 C   0  0  0  0  0  0  0  0  0  0  0  0
  140.1000   71.0070  223.5380 C   0  0  0  0  0  0  0  0  0  0  0  0
  139.4940   69.7560  223.4840 C   0  0  0  0  0  0  0  0  0  0  0  0
  139.3440   69.0150  224.6470 C   0  0  0  0  0  0  0  0  0  0  0  0
  139.7910   69.5000  225.8630 C   0  0  0  0  0  0  0  0  0  0  0  0
  139.6450   68.7690  227.0200 C   0  0  0  0  0  0  0  0  0  0  0  0
  140.1180   69.3250  228.1980 C   0  0  0  0  0  0  0  0  0  0  0  0
  139.9660   68.5870  229.3300 F   0  0  0  0  0  0  0  0  0  0  0  0
  140.7200   70.5700  228.2430 C   0  0  0  0  0  0  0  0  0  0  0  0
  140.8460   71.2720  227.0630 C   0  0  0  0  0  0  0  0  0  0  0  0
  140.3890   70.7590  225.8540 C   0  0  0  0  0  0  0  0  0  0  0  0
  140.5270   71.4690  224.7180 N   0  0  0  0  0  0  0  0  0  0  0  0
  139.5720   73.6530  223.1700 H   0  0  0  0  0  0  0  0  0  0  0  0
  141.0099   73.6522  220.6147 H   0  0  0  0  0  0  0  0  0  0  0  0
  139.2311   73.6747  220.4122 H   0  0  0  0  0  0  0  0  0  0  0  0
  138.7834   75.8663  219.1933 H   0  0  0  0  0  0  0  0  0  0  0  0
  139.1412   77.6053  219.4402 H   0  0  0  0  0  0  0  0  0  0  0  0
  139.8392   76.1334  217.2170 H   0  0  0  0  0  0  0  0  0  0  0  0
  140.6489   77.6678  217.7834 H   0  0  0  0  0  0  0  0  0  0  0  0
  141.5062   74.8265  218.2650 H   0  0  0  0  0  0  0  0  0  0  0  0
  142.3067   76.1442  217.2652 H   0  0  0  0  0  0  0  0  0  0  0  0
  143.0719   75.4466  219.7372 H   0  0  0  0  0  0  0  0  0  0  0  0
  143.2452   77.1012  218.9838 H   0  0  0  0  0  0  0  0  0  0  0  0
  142.2623   76.7685  221.3975 H   0  0  0  0  0  0  0  0  0  0  0  0
  142.4423   78.8071  219.7532 H   0  0  0  0  0  0  0  0  0  0  0  0
  140.6508   78.6803  220.0436 H   0  0  0  0  0  0  0  0  0  0  0  0
  142.6698   80.8408  220.9581 H   0  0  0  0  0  0  0  0  0  0  0  0
  142.9685   81.9137  223.1837 H   0  0  0  0  0  0  0  0  0  0  0  0
  141.3247   78.4836  225.0988 H   0  0  0  0  0  0  0  0  0  0  0  0
  141.0171   77.3991  222.8778 H   0  0  0  0  0  0  0  0  0  0  0  0
  139.1356   69.3564  222.5239 H   0  0  0  0  0  0  0  0  0  0  0  0
  138.8624   68.0270  224.6017 H   0  0  0  0  0  0  0  0  0  0  0  0
  139.1691   67.7773  227.0100 H   0  0  0  0  0  0  0  0  0  0  0  0
  141.0872   70.9874  229.1922 H   0  0  0  0  0  0  0  0  0  0  0  0
  141.3206   72.2642  227.0784 H   0  0  0  0  0  0  0  0  0  0  0  0
  1  2  2  0
  2  3  1  0
  3  4  1  0
  4  5  1  0
  5  6  2  0
  5  7  1  0
  7  8  1  0
  8  9  1  0
  9 10  1  0
 10 11  1  0
 11 12  1  0
 12 13  1  0
 13 14  1  0
 14 15  2  0
 15 16  1  0
 16 17  2  0
 17 18  1  0
 18 19  2  0
  2 20  1  0
 20 21  2  0
 21 22  1  0
 22 23  2  0
 23 24  1  0
 24 25  2  0
 25 26  1  0
 25 27  1  0
 27 28  2  0
 28 29  1  0
 29 30  2  0
 12  7  1  0
 19 14  1  0
 30 20  1  0
 29 23  1  0
  3 31  1  0
  4 32  1  0
  4 33  1  0
  8 34  1  0
  8 35  1  0
  9 36  1  0
  9 37  1  0
 10 38  1  0
 10 39  1  0
 11 40  1  0
 11 41  1  0
 12 42  1  1
 13 43  1  0
 13 44  1  0
 15 45  1  0
 16 46  1  0
 18 47  1  0
 19 48  1  0
 21 49  1  0
 22 50  1  0
 24 51  1  0
 27 52  1  0
 28 53  1  0
M  END
>  <smiles>  (98) 
O=C(NCC(=O)N1CCCCC1Cc1ccncc1)c1ccc2cc(F)ccc2n1

>  <score_type>  (98) 
oracle

>  <origin>  (98) 
autodockgpu

>  <m_score__min__energy>  (98) 
-8.8399999999999999

>  <m_primary>  (98) 
energy

>  <rmsd>  (98) 
1.5128685786036373

>  <m_score__min__rmsd>  (98) 
1.5128685786036373

>  <meeko>  (98) 
{"free_energy": -8.43, "intermolecular_energy": -10.22, "internal_energy": -1.97, "cluster_size": 35, "cluster_id": 2, "rank_in_cluster": 14}

>  <energy>  (98) 
-7.81

>  <cluster_rmsd>  (98) 
1.5

>  <cluster>  (98) 
4

$$$$

     RDKit          3D

 53 56  0  0  0  0  0  0  0  0999 V2000
  140.5630   70.9940  221.8070 O   0  0  0  0  0  0  0  0  0  0  0  0
  140.2780   71.6890  222.8030 C   0  0  0  0  0  0  0  0  0  0  0  0
  139.8620   73.0460  222.6770 N   0  0  0  0  0  0  0  0  0  0  0  0
  139.7770   73.6020  221.3560 C   0  0  0  0  0  0  0  0  0  0  0  0
  139.8740   75.0710  221.4560 C   0  0  0  0  0  0  0  0  0  0  0  0
  139.4080   75.7280  222.4380 O   0  0  0  0  0  0  0  0  0  0  0  0
  140.5220   75.7710  220.3990 N   0  0  0  0  0  0  0  0  0  0  0  0
  139.9410   75.8540  219.0530 C   0  0  0  0  0  0  0  0  0  0  0  0
  141.0330   75.6160  218.0300 C   0  0  0  0  0  0  0  0  0  0  0  0
  142.2480   74.9710  218.6060 C   0  0  0  0  0  0  0  0  0  0  0  0
  142.8060   75.6500  219.8260 C   0  0  0  0  0  0  0  0  0  0  0  0
  141.7980   76.4530  220.5700 C   0  0  1  0  0  0  0  0  0  0  0  0
  141.7510   77.8940  220.2190 C   0  0  0  0  0  0  0  0  0  0  0  0
  141.8040   78.7730  221.4150 C   0  0  0  0  0  0  0  0  0  0  0  0
  141.4570   78.2460  222.6640 C   0  0  0  0  0  0  0  0  0  0  0  0
  141.4910   79.0330  223.8070 C   0  0  0  0  0  0  0  0  0  0  0  0
  141.8660   80.3270  223.7030 N   0  0  0  0  0  0  0  0  0  0  0  0
  142.2100   80.8880  222.5310 C   0  0  0  0  0  0  0  0  0  0  0  0
  142.1740   80.0880  221.3860 C   0  0  0  0  0  0  0  0  0  0  0  0
  140.3650   71.1160  224.1610 C   0  0  0  0  0  0  0  0  0  0  0  0
  140.8500   71.9140  225.1920 C   0  0  0  0  0  0  0  0  0  0  0  0
  140.9420   71.3960  226.4760 C   0  0  0  0  0  0  0  0  0  0  0  0
  140.5560   70.0960  226.7470 C   0  0  0  0  0  0  0  0  0  0  0  0
  140.6440   69.5760  228.0200 C   0  0  0  0  0  0  0  0  0  0  0  0
  140.2380   68.2650  228.2100 C   0  0  0  0  0  0  0  0  0  0  0  0
  140.3320   67.7700  229.4730 F   0  0  0  0  0  0  0  0  0  0  0  0
  139.7560   67.4790  227.1790 C   0  0  0  0  0  0  0  0  0  0  0  0
  139.6840   68.0350  225.9190 C   0  0  0  0  0  0  0  0  0  0  0  0
  140.0780   69.3460  225.6750 C   0  0  0  0  0  0  0  0  0  0  0  0
  139.9960   69.8610  224.4330 N   0  0  0  0  0  0  0  0  0  0  0  0
  139.6190   73.6480  223.4920 H   0  0  0  0  0  0  0  0  0  0  0  0
  140.6020   73.2174  220.7383 H   0  0  0  0  0  0  0  0  0  0  0  0
  138.8213   73.3195  220.8903 H   0  0  0  0  0  0  0  0  0  0  0  0
  139.1579   75.0896  218.9414 H   0  0  0  0  0  0  0  0  0  0  0  0
  139.4980   76.8491  218.8997 H   0  0  0  0  0  0  0  0  0  0  0  0
  140.6341   74.9652  217.2379 H   0  0  0  0  0  0  0  0  0  0  0  0
  141.3378   76.5995  217.6428 H   0  0  0  0  0  0  0  0  0  0  0  0
  141.9896   73.9370  218.8783 H   0  0  0  0  0  0  0  0  0  0  0  0
  143.0278   75.0352  217.8329 H   0  0  0  0  0  0  0  0  0  0  0  0
  143.2052   74.8793  220.5018 H   0  0  0  0  0  0  0  0  0  0  0  0
  143.5850   76.3461  219.4818 H   0  0  0  0  0  0  0  0  0  0  0  0
  142.0840   76.4985  221.6312 H   0  0  0  0  0  0  0  0  0  0  0  0
  142.6090   78.1274  219.5714 H   0  0  0  0  0  0  0  0  0  0  0  0
  140.7953   78.0824  219.7080 H   0  0  0  0  0  0  0  0  0  0  0  0
  141.1526   77.1918  222.7413 H   0  0  0  0  0  0  0  0  0  0  0  0
  141.2164   78.6090  224.7841 H   0  0  0  0  0  0  0  0  0  0  0  0
  142.5107   81.9446  222.4750 H   0  0  0  0  0  0  0  0  0  0  0  0
  142.4552   80.5354  220.4212 H   0  0  0  0  0  0  0  0  0  0  0  0
  141.1590   72.9503  224.9905 H   0  0  0  0  0  0  0  0  0  0  0  0
  141.3273   72.0282  227.2896 H   0  0  0  0  0  0  0  0  0  0  0  0
  141.0235   70.1809  228.8567 H   0  0  0  0  0  0  0  0  0  0  0  0
  139.4394   66.4410  227.3588 H   0  0  0  0  0  0  0  0  0  0  0  0
  139.3051   67.4255  225.0854 H   0  0  0  0  0  0  0  0  0  0  0  0
  1  2  2  0
  2  3  1  0
  3  4  1  0
  4  5  1  0
  5  6  2  0
  5  7  1  0
  7  8  1  0
  8  9  1  0
  9 10  1  0
 10 11  1  0
 11 12  1  0
 12 13  1  0
 13 14  1  0
 14 15  2  0
 15 16  1  0
 16 17  2  0
 17 18  1  0
 18 19  2  0
  2 20  1  0
 20 21  2  0
 21 22  1  0
 22 23  2  0
 23 24  1  0
 24 25  2  0
 25 26  1  0
 25 27  1  0
 27 28  2  0
 28 29  1  0
 29 30  2  0
 12  7  1  0
 19 14  1  0
 30 20  1  0
 29 23  1  0
  3 31  1  0
  4 32  1  0
  4 33  1  0
  8 34  1  0
  8 35  1  0
  9 36  1  0
  9 37  1  0
 10 38  1  0
 10 39  1  0
 11 40  1  0
 11 41  1  0
 12 42  1  1
 13 43  1  0
 13 44  1  0
 15 45  1  0
 16 46  1  0
 18 47  1  0
 19 48  1  0
 21 49  1  0
 22 50  1  0
 24 51  1  0
 27 52  1  0
 28 53  1  0
M  END
>  <smiles>  (99) 
O=C(NCC(=O)N1CCCCC1Cc1ccncc1)c1ccc2cc(F)ccc2n1

>  <score_type>  (99) 
oracle

>  <origin>  (99) 
autodockgpu

>  <m_score__min__energy>  (99) 
-8.8399999999999999

>  <m_primary>  (99) 
energy

>  <rmsd>  (99) 
2.6532691394085153

>  <m_score__min__rmsd>  (99) 
2.6532691394085153

>  <meeko>  (99) 
{"free_energy": -8.2, "intermolecular_energy": -9.99, "internal_energy": -1.78, "cluster_size": 35, "cluster_id": 2, "rank_in_cluster": 30}

>  <energy>  (99) 
-7.67

>  <cluster_rmsd>  (99) 
1.26

>  <cluster>  (99) 
4

$$$$

     RDKit          3D

 53 56  0  0  0  0  0  0  0  0999 V2000
  141.3220   72.6800  221.9680 O   0  0  0  0  0  0  0  0  0  0  0  0
  140.2750   72.5670  222.6360 C   0  0  0  0  0  0  0  0  0  0  0  0
  139.1280   73.3710  222.3760 N   0  0  0  0  0  0  0  0  0  0  0  0
  139.2080   74.3280  221.3080 C   0  0  0  0  0  0  0  0  0  0  0  0
  139.7910   75.5770  221.8380 C   0  0  0  0  0  0  0  0  0  0  0  0
  141.0410   75.7490  221.9790 O   0  0  0  0  0  0  0  0  0  0  0  0
  138.9010   76.6260  222.2030 N   0  0  0  0  0  0  0  0  0  0  0  0
  137.7290   76.3880  223.0560 C   0  0  0  0  0  0  0  0  0  0  0  0
  136.5410   77.1270  222.4760 C   0  0  0  0  0  0  0  0  0  0  0  0
  136.7340   77.5270  221.0520 C   0  0  0  0  0  0  0  0  0  0  0  0
  138.0080   78.2730  220.7720 C   0  0  0  0  0  0  0  0  0  0  0  0
  139.0840   78.0030  221.7650 C   0  0  1  0  0  0  0  0  0  0  0  0
  139.1710   78.9740  222.8840 C   0  0  0  0  0  0  0  0  0  0  0  0
  140.5390   79.5280  223.0510 C   0  0  0  0  0  0  0  0  0  0  0  0
  140.7020   80.7570  223.7010 C   0  0  0  0  0  0  0  0  0  0  0  0
  141.9630   81.3110  223.8770 C   0  0  0  0  0  0  0  0  0  0  0  0
  143.0430   80.6470  223.4100 N   0  0  0  0  0  0  0  0  0  0  0  0
  142.9480   79.4640  222.7780 C   0  0  0  0  0  0  0  0  0  0  0  0
  141.6760   78.9140  222.6070 C   0  0  0  0  0  0  0  0  0  0  0  0
  140.1940   71.5830  223.7340 C   0  0  0  0  0  0  0  0  0  0  0  0
  139.6150   70.3440  223.4790 C   0  0  0  0  0  0  0  0  0  0  0  0
  139.5280   69.4040  224.4960 C   0  0  0  0  0  0  0  0  0  0  0  0
  140.0100   69.6800  225.7620 C   0  0  0  0  0  0  0  0  0  0  0  0
  139.9270   68.7510  226.7750 C   0  0  0  0  0  0  0  0  0  0  0  0
  140.4330   69.1040  228.0160 C   0  0  0  0  0  0  0  0  0  0  0  0
  140.3410   68.1730  229.0030 F   0  0  0  0  0  0  0  0  0  0  0  0
  141.0070   70.3370  228.2620 C   0  0  0  0  0  0  0  0  0  0  0  0
  141.0710   71.2410  227.2220 C   0  0  0  0  0  0  0  0  0  0  0  0
  140.5790   70.9360  225.9570 C   0  0  0  0  0  0  0  0  0  0  0  0
  140.6570   71.8400  224.9620 N   0  0  0  0  0  0  0  0  0  0  0  0
  138.2420   73.2970  222.9190 H   0  0  0  0  0  0  0  0  0  0  0  0
  139.8460   73.9333  220.5036 H   0  0  0  0  0  0  0  0  0  0  0  0
  138.2043   74.5239  220.9027 H   0  0  0  0  0  0  0  0  0  0  0  0
  137.5115   75.3103  223.0922 H   0  0  0  0  0  0  0  0  0  0  0  0
  137.9308   76.7491  224.0753 H   0  0  0  0  0  0  0  0  0  0  0  0
  135.6585   76.4734  222.5387 H   0  0  0  0  0  0  0  0  0  0  0  0
  136.4145   78.0506  223.0600 H   0  0  0  0  0  0  0  0  0  0  0  0
  136.7298   76.6149  220.4372 H   0  0  0  0  0  0  0  0  0  0  0  0
  135.9125   78.2178  220.8113 H   0  0  0  0  0  0  0  0  0  0  0  0
  138.3716   77.9799  219.7761 H   0  0  0  0  0  0  0  0  0  0  0  0
  137.7745   79.3463  220.8312 H   0  0  0  0  0  0  0  0  0  0  0  0
  140.0638   78.1392  221.2839 H   0  0  0  0  0  0  0  0  0  0  0  0
  138.4762   79.8035  222.6862 H   0  0  0  0  0  0  0  0  0  0  0  0
  138.9108   78.4408  223.8103 H   0  0  0  0  0  0  0  0  0  0  0  0
  139.8178   81.2919  224.0780 H   0  0  0  0  0  0  0  0  0  0  0  0
  142.0810   82.2771  224.3895 H   0  0  0  0  0  0  0  0  0  0  0  0
  143.8445   78.9456  222.4072 H   0  0  0  0  0  0  0  0  0  0  0  0
  141.5855   77.9456  222.0932 H   0  0  0  0  0  0  0  0  0  0  0  0
  139.2281   70.1106  222.4761 H   0  0  0  0  0  0  0  0  0  0  0  0
  139.0690   68.4254  224.2920 H   0  0  0  0  0  0  0  0  0  0  0  0
  139.4747   67.7628  226.6051 H   0  0  0  0  0  0  0  0  0  0  0  0
  141.4010   70.5899  229.2574 H   0  0  0  0  0  0  0  0  0  0  0  0
  141.5227   72.2285  227.3975 H   0  0  0  0  0  0  0  0  0  0  0  0
  1  2  2  0
  2  3  1  0
  3  4  1  0
  4  5  1  0
  5  6  2  0
  5  7  1  0
  7  8  1  0
  8  9  1  0
  9 10  1  0
 10 11  1  0
 11 12  1  0
 12 13  1  0
 13 14  1  0
 14 15  2  0
 15 16  1  0
 16 17  2  0
 17 18  1  0
 18 19  2  0
  2 20  1  0
 20 21  2  0
 21 22  1  0
 22 23  2  0
 23 24  1  0
 24 25  2  0
 25 26  1  0
 25 27  1  0
 27 28  2  0
 28 29  1  0
 29 30  2  0
 12  7  1  0
 19 14  1  0
 30 20  1  0
 29 23  1  0
  3 31  1  0
  4 32  1  0
  4 33  1  0
  8 34  1  0
  8 35  1  0
  9 36  1  0
  9 37  1  0
 10 38  1  0
 10 39  1  0
 11 40  1  0
 11 41  1  0
 12 42  1  6
 13 43  1  0
 13 44  1  0
 15 45  1  0
 16 46  1  0
 18 47  1  0
 19 48  1  0
 21 49  1  0
 22 50  1  0
 24 51  1  0
 27 52  1  0
 28 53  1  0
M  END
>  <smiles>  (100) 
O=C(NCC(=O)N1CCCCC1Cc1ccncc1)c1ccc2cc(F)ccc2n1

>  <score_type>  (100) 
oracle

>  <origin>  (100) 
autodockgpu

>  <m_score__min__energy>  (100) 
-8.8399999999999999

>  <m_primary>  (100) 
energy

>  <rmsd>  (100) 
3.1714407134251488

>  <m_score__min__rmsd>  (100) 
3.1714407134251488

>  <meeko>  (100) 
{"free_energy": -8.72, "intermolecular_energy": -10.51, "internal_energy": -1.39, "cluster_size": 35, "cluster_id": 2, "rank_in_cluster": 2}

>  <energy>  (100) 
-7.63

>  <cluster_rmsd>  (100) 
1.37

>  <cluster>  (100) 
4

$$$$
