
     RDKit          3D

 50 53  0  0  0  0  0  0  0  0999 V2000
  139.6990   73.6170  222.4320 O   0  0  0  0  0  0  0  0  0  0  0  0
  140.1760   72.4330  222.3600 C   0  0  0  0  0  0  0  0  0  0  0  0
  140.7970   71.9620  221.1510 N   0  0  0  0  0  0  0  0  0  0  0  0
  140.9100   72.7890  219.9910 C   0  0  0  0  0  0  0  0  0  0  0  0
  141.6270   74.0490  220.0710 C   0  0  0  0  0  0  0  0  0  0  0  0
  142.0240   74.3530  221.2740 O   0  0  0  0  0  0  0  0  0  0  0  0
  141.9610   74.9870  219.0890 N   0  0  0  0  0  0  0  0  0  0  0  0
  141.1150   75.5060  218.0380 C   0  0  0  0  0  0  0  0  0  0  0  0
  141.4380   76.9830  217.7770 C   0  0  0  0  0  0  0  0  0  0  0  0
  142.8330   77.1960  217.2960 C   0  0  0  0  0  0  0  0  0  0  0  0
  143.6980   76.0480  217.6850 C   0  0  0  0  0  0  0  0  0  0  0  0
  143.3400   75.5320  219.0800 C   0  0  2  0  0  0  0  0  0  0  0  0
  144.3280   74.4810  219.4810 C   0  0  0  0  0  0  0  0  0  0  0  0
  144.8240   74.4370  220.7740 C   0  0  0  0  0  0  0  0  0  0  0  0
  145.7370   73.4420  221.0920 C   0  0  0  0  0  0  0  0  0  0  0  0
  146.1030   72.5410  220.0930 C   0  0  0  0  0  0  0  0  0  0  0  0
  145.5870   72.6290  218.8500 N   0  0  0  0  0  0  0  0  0  0  0  0
  144.7010   73.5810  218.5050 C   0  0  0  0  0  0  0  0  0  0  0  0
  140.1080   71.5230  223.4960 C   0  0  0  0  0  0  0  0  0  0  0  0
  139.5580   70.2760  223.3890 C   0  0  0  0  0  0  0  0  0  0  0  0
  139.4870   69.3930  224.4730 C   0  0  0  0  0  0  0  0  0  0  0  0
  139.9940   69.8100  225.6820 C   0  0  0  0  0  0  0  0  0  0  0  0
  139.9640   68.9980  226.8060 C   0  0  0  0  0  0  0  0  0  0  0  0
  140.4900   69.4640  228.0090 C   0  0  0  0  0  0  0  0  0  0  0  0
  140.4410   68.6400  229.0850 F   0  0  0  0  0  0  0  0  0  0  0  0
  141.0440   70.7370  228.0880 C   0  0  0  0  0  0  0  0  0  0  0  0
  141.0770   71.5530  226.9690 C   0  0  0  0  0  0  0  0  0  0  0  0
  140.5490   71.0700  225.7840 C   0  0  0  0  0  0  0  0  0  0  0  0
  140.5920   71.8770  224.7140 N   0  0  0  0  0  0  0  0  0  0  0  0
  141.1750   70.9700  221.1360 H   0  0  0  0  0  0  0  0  0  0  0  0
  141.4094   72.1868  219.2177 H   0  0  0  0  0  0  0  0  0  0  0  0
  139.8725   73.0976  219.7953 H   0  0  0  0  0  0  0  0  0  0  0  0
  141.2847   74.9289  217.1170 H   0  0  0  0  0  0  0  0  0  0  0  0
  140.0633   75.4185  218.3483 H   0  0  0  0  0  0  0  0  0  0  0  0
  140.7421   77.3652  217.0156 H   0  0  0  0  0  0  0  0  0  0  0  0
  141.3333   77.5175  218.7327 H   0  0  0  0  0  0  0  0  0  0  0  0
  142.8279   77.2908  216.2001 H   0  0  0  0  0  0  0  0  0  0  0  0
  143.2315   78.1136  217.7533 H   0  0  0  0  0  0  0  0  0  0  0  0
  143.5638   75.2348  216.9565 H   0  0  0  0  0  0  0  0  0  0  0  0
  144.7437   76.3891  217.6980 H   0  0  0  0  0  0  0  0  0  0  0  0
  143.3808   76.3608  219.8021 H   0  0  0  0  0  0  0  0  0  0  0  0
  144.5027   75.1709  221.5278 H   0  0  0  0  0  0  0  0  0  0  0  0
  146.1604   73.3661  222.1044 H   0  0  0  0  0  0  0  0  0  0  0  0
  146.8256   71.7440  220.3227 H   0  0  0  0  0  0  0  0  0  0  0  0
  144.2909   73.6390  217.4860 H   0  0  0  0  0  0  0  0  0  0  0  0
  139.1569   69.9550  222.4164 H   0  0  0  0  0  0  0  0  0  0  0  0
  139.0388   68.3947  224.3613 H   0  0  0  0  0  0  0  0  0  0  0  0
  139.5268   67.9903  226.7479 H   0  0  0  0  0  0  0  0  0  0  0  0
  141.4572   71.0971  229.0417 H   0  0  0  0  0  0  0  0  0  0  0  0
  141.5128   72.5617  227.0209 H   0  0  0  0  0  0  0  0  0  0  0  0
  1  2  2  0
  2  3  1  0
  3  4  1  0
  4  5  1  0
  5  6  2  0
  5  7  1  0
  7  8  1  0
  8  9  1  0
  9 10  1  0
 10 11  1  0
 11 12  1  0
 12 13  1  0
 13 14  2  0
 14 15  1  0
 15 16  2  0
 16 17  1  0
 17 18  2  0
  2 19  1  0
 19 20  2  0
 20 21  1  0
 21 22  2  0
 22 23  1  0
 23 24  2  0
 24 25  1  0
 24 26  1  0
 26 27  2  0
 27 28  1  0
 28 29  2  0
 12  7  1  0
 18 13  1  0
 29 19  1  0
 28 22  1  0
  3 30  1  0
  4 31  1  0
  4 32  1  0
  8 33  1  0
  8 34  1  0
  9 35  1  0
  9 36  1  0
 10 37  1  0
 10 38  1  0
 11 39  1  0
 11 40  1  0
 12 41  1  1
 14 42  1  0
 15 43  1  0
 16 44  1  0
 18 45  1  0
 20 46  1  0
 21 47  1  0
 23 48  1  0
 26 49  1  0
 27 50  1  0
M  END
>  <smiles>  (1) 
O=C(NCC(=O)N1CCCCC1c1cccnc1)c1ccc2cc(F)ccc2n1

>  <score_type>  (1) 
oracle

>  <origin>  (1) 
autodockgpu

>  <m_score__min__energy>  (1) 
-8.4299999999999997

>  <m_primary>  (1) 
energy

>  <rmsd>  (1) 
2.2434517027015786

>  <m_score__min__rmsd>  (1) 
2.2434517027015786

>  <meeko>  (1) 
{"free_energy": -8.36, "intermolecular_energy": -9.85, "internal_energy": -1.16, "cluster_size": 22, "cluster_id": 1, "rank_in_cluster": 3}

>  <energy>  (1) 
-8.43

>  <cluster_rmsd>  (1) 
0.0

>  <cluster>  (1) 
1

$$$$

     RDKit          3D

 50 53  0  0  0  0  0  0  0  0999 V2000
  141.4100   72.4070  221.5790 O   0  0  0  0  0  0  0  0  0  0  0  0
  140.4510   72.5740  222.4080 C   0  0  0  0  0  0  0  0  0  0  0  0
  139.5550   73.6920  222.2800 N   0  0  0  0  0  0  0  0  0  0  0  0
  139.6920   74.6520  221.2310 C   0  0  0  0  0  0  0  0  0  0  0  0
  140.8470   75.5320  221.2060 C   0  0  0  0  0  0  0  0  0  0  0  0
  141.4390   75.6560  222.3590 O   0  0  0  0  0  0  0  0  0  0  0  0
  141.4270   76.2680  220.1680 N   0  0  0  0  0  0  0  0  0  0  0  0
  142.3540   75.7980  219.1630 C   0  0  0  0  0  0  0  0  0  0  0  0
  142.0870   76.5000  217.8240 C   0  0  0  0  0  0  0  0  0  0  0  0
  142.2960   77.9750  217.8910 C   0  0  0  0  0  0  0  0  0  0  0  0
  142.1890   78.4530  219.2970 C   0  0  0  0  0  0  0  0  0  0  0  0
  141.0890   77.7070  220.0540 C   0  0  2  0  0  0  0  0  0  0  0  0
  140.9240   78.3220  221.4090 C   0  0  0  0  0  0  0  0  0  0  0  0
  142.0210   78.8160  222.0960 C   0  0  0  0  0  0  0  0  0  0  0  0
  141.8110   79.3760  223.3480 C   0  0  0  0  0  0  0  0  0  0  0  0
  140.5100   79.4100  223.8440 C   0  0  0  0  0  0  0  0  0  0  0  0
  139.4770   78.9150  223.1320 N   0  0  0  0  0  0  0  0  0  0  0  0
  139.6420   78.3640  221.9150 C   0  0  0  0  0  0  0  0  0  0  0  0
  140.2330   71.6420  223.5060 C   0  0  0  0  0  0  0  0  0  0  0  0
  139.5500   70.4700  223.3330 C   0  0  0  0  0  0  0  0  0  0  0  0
  139.3330   69.5680  224.3800 C   0  0  0  0  0  0  0  0  0  0  0  0
  139.8340   69.8840  225.6230 C   0  0  0  0  0  0  0  0  0  0  0  0
  139.6660   69.0450  226.7130 C   0  0  0  0  0  0  0  0  0  0  0  0
  140.1910   69.4080  227.9520 C   0  0  0  0  0  0  0  0  0  0  0  0
  140.0040   68.5610  228.9940 F   0  0  0  0  0  0  0  0  0  0  0  0
  140.8820   70.6060  228.0980 C   0  0  0  0  0  0  0  0  0  0  0  0
  141.0540   71.4480  227.0120 C   0  0  0  0  0  0  0  0  0  0  0  0
  140.5240   71.0680  225.7910 C   0  0  0  0  0  0  0  0  0  0  0  0
  140.7030   71.8980  224.7540 N   0  0  0  0  0  0  0  0  0  0  0  0
  138.7750   73.7920  222.9950 H   0  0  0  0  0  0  0  0  0  0  0  0
  139.6978   74.0914  220.2846 H   0  0  0  0  0  0  0  0  0  0  0  0
  138.8505   75.3395  221.4021 H   0  0  0  0  0  0  0  0  0  0  0  0
  143.3824   76.0146  219.4879 H   0  0  0  0  0  0  0  0  0  0  0  0
  142.2214   74.7139  219.0320 H   0  0  0  0  0  0  0  0  0  0  0  0
  142.7676   76.0830  217.0671 H   0  0  0  0  0  0  0  0  0  0  0  0
  141.0320   76.3272  217.5650 H   0  0  0  0  0  0  0  0  0  0  0  0
  143.2958   78.2171  217.5014 H   0  0  0  0  0  0  0  0  0  0  0  0
  141.5231   78.4719  217.2863 H   0  0  0  0  0  0  0  0  0  0  0  0
  143.1500   78.2877  219.8060 H   0  0  0  0  0  0  0  0  0  0  0  0
  141.9363   79.5235  219.2821 H   0  0  0  0  0  0  0  0  0  0  0  0
  140.1409   77.7887  219.5023 H   0  0  0  0  0  0  0  0  0  0  0  0
  143.0301   78.7657  221.6611 H   0  0  0  0  0  0  0  0  0  0  0  0
  142.6494   79.7821  223.9330 H   0  0  0  0  0  0  0  0  0  0  0  0
  140.3214   79.8488  224.8349 H   0  0  0  0  0  0  0  0  0  0  0  0
  138.7891   77.9636  221.3474 H   0  0  0  0  0  0  0  0  0  0  0  0
  139.1571   70.2278  222.3345 H   0  0  0  0  0  0  0  0  0  0  0  0
  138.7779   68.6328  224.2150 H   0  0  0  0  0  0  0  0  0  0  0  0
  139.1205   68.0964  226.6008 H   0  0  0  0  0  0  0  0  0  0  0  0
  141.2932   70.8857  229.0792 H   0  0  0  0  0  0  0  0  0  0  0  0
  141.5995   72.3974  227.1173 H   0  0  0  0  0  0  0  0  0  0  0  0
  1  2  2  0
  2  3  1  0
  3  4  1  0
  4  5  1  0
  5  6  2  0
  5  7  1  0
  7  8  1  0
  8  9  1  0
  9 10  1  0
 10 11  1  0
 11 12  1  0
 12 13  1  0
 13 14  2  0
 14 15  1  0
 15 16  2  0
 16 17  1  0
 17 18  2  0
  2 19  1  0
 19 20  2  0
 20 21  1  0
 21 22  2  0
 22 23  1  0
 23 24  2  0
 24 25  1  0
 24 26  1  0
 26 27  2  0
 27 28  1  0
 28 29  2  0
 12  7  1  0
 18 13  1  0
 29 19  1  0
 28 22  1  0
  3 30  1  0
  4 31  1  0
  4 32  1  0
  8 33  1  0
  8 34  1  0
  9 35  1  0
  9 36  1  0
 10 37  1  0
 10 38  1  0
 11 39  1  0
 11 40  1  0
 12 41  1  6
 14 42  1  0
 15 43  1  0
 16 44  1  0
 18 45  1  0
 20 46  1  0
 21 47  1  0
 23 48  1  0
 26 49  1  0
 27 50  1  0
M  END
>  <smiles>  (2) 
O=C(NCC(=O)N1CCCCC1c1cccnc1)c1ccc2cc(F)ccc2n1

>  <score_type>  (2) 
oracle

>  <origin>  (2) 
autodockgpu

>  <m_score__min__energy>  (2) 
-8.4299999999999997

>  <m_primary>  (2) 
energy

>  <rmsd>  (2) 
1.9615782220061495

>  <m_score__min__rmsd>  (2) 
1.9615782220061495

>  <meeko>  (2) 
{"free_energy": -8.36, "intermolecular_energy": -9.85, "internal_energy": -1.26, "cluster_size": 22, "cluster_id": 2, "rank_in_cluster": 2}

>  <energy>  (2) 
-8.38

>  <cluster_rmsd>  (2) 
0.09

>  <cluster>  (2) 
1

$$$$

     RDKit          3D

 50 53  0  0  0  0  0  0  0  0999 V2000
  141.2180   71.8550  221.2040 O   0  0  0  0  0  0  0  0  0  0  0  0
  140.4710   72.2560  222.1620 C   0  0  0  0  0  0  0  0  0  0  0  0
  139.8270   73.5400  222.1050 N   0  0  0  0  0  0  0  0  0  0  0  0
  139.9860   74.4140  220.9850 C   0  0  0  0  0  0  0  0  0  0  0  0
  140.9650   75.4850  221.0400 C   0  0  0  0  0  0  0  0  0  0  0  0
  141.4200   75.7210  222.2380 O   0  0  0  0  0  0  0  0  0  0  0  0
  141.4990   76.3030  220.0400 N   0  0  0  0  0  0  0  0  0  0  0  0
  140.8050   77.2900  219.2420 C   0  0  0  0  0  0  0  0  0  0  0  0
  141.7240   78.4860  218.9610 C   0  0  0  0  0  0  0  0  0  0  0  0
  142.9300   78.1170  218.1640 C   0  0  0  0  0  0  0  0  0  0  0  0
  143.2130   76.6610  218.2940 C   0  0  0  0  0  0  0  0  0  0  0  0
  142.9390   76.1670  219.7160 C   0  0  2  0  0  0  0  0  0  0  0  0
  143.3750   74.7390  219.8300 C   0  0  0  0  0  0  0  0  0  0  0  0
  144.3470   74.3710  220.7460 C   0  0  0  0  0  0  0  0  0  0  0  0
  144.7120   73.0340  220.8110 C   0  0  0  0  0  0  0  0  0  0  0  0
  144.0830   72.1370  219.9510 C   0  0  0  0  0  0  0  0  0  0  0  0
  143.1410   72.5500  219.0780 N   0  0  0  0  0  0  0  0  0  0  0  0
  142.7610   73.8380  218.9860 C   0  0  0  0  0  0  0  0  0  0  0  0
  140.2490   71.4290  223.3400 C   0  0  0  0  0  0  0  0  0  0  0  0
  139.5870   70.2340  223.2690 C   0  0  0  0  0  0  0  0  0  0  0  0
  139.3660   69.4320  224.3930 C   0  0  0  0  0  0  0  0  0  0  0  0
  139.8400   69.8730  225.6080 C   0  0  0  0  0  0  0  0  0  0  0  0
  139.6650   69.1390  226.7710 C   0  0  0  0  0  0  0  0  0  0  0  0
  140.1620   69.6270  227.9780 C   0  0  0  0  0  0  0  0  0  0  0  0
  139.9700   68.8800  229.0930 F   0  0  0  0  0  0  0  0  0  0  0  0
  140.8320   70.8450  228.0200 C   0  0  0  0  0  0  0  0  0  0  0  0
  141.0100   71.5830  226.8620 C   0  0  0  0  0  0  0  0  0  0  0  0
  140.5080   71.0800  225.6740 C   0  0  0  0  0  0  0  0  0  0  0  0
  140.6920   71.8110  224.5650 N   0  0  0  0  0  0  0  0  0  0  0  0
  139.2190   73.8330  222.9260 H   0  0  0  0  0  0  0  0  0  0  0  0
  140.2515   73.7833  220.1237 H   0  0  0  0  0  0  0  0  0  0  0  0
  139.0254   74.9480  220.9392 H   0  0  0  0  0  0  0  0  0  0  0  0
  140.4981   76.8357  218.2884 H   0  0  0  0  0  0  0  0  0  0  0  0
  139.9198   77.6395  219.7937 H   0  0  0  0  0  0  0  0  0  0  0  0
  141.1535   79.2437  218.4039 H   0  0  0  0  0  0  0  0  0  0  0  0
  142.0739   78.8685  219.9312 H   0  0  0  0  0  0  0  0  0  0  0  0
  142.7527   78.3586  217.1056 H   0  0  0  0  0  0  0  0  0  0  0  0
  143.7941   78.6834  218.5416 H   0  0  0  0  0  0  0  0  0  0  0  0
  142.5719   76.1072  217.5924 H   0  0  0  0  0  0  0  0  0  0  0  0
  144.2757   76.4918  218.0661 H   0  0  0  0  0  0  0  0  0  0  0  0
  143.5063   76.7771  220.4343 H   0  0  0  0  0  0  0  0  0  0  0  0
  144.8162   75.1178  221.4033 H   0  0  0  0  0  0  0  0  0  0  0  0
  145.4777   72.6916  221.5227 H   0  0  0  0  0  0  0  0  0  0  0  0
  144.3592   71.0728  219.9842 H   0  0  0  0  0  0  0  0  0  0  0  0
  141.9925   74.1585  218.2672 H   0  0  0  0  0  0  0  0  0  0  0  0
  139.2150   69.8915  222.2921 H   0  0  0  0  0  0  0  0  0  0  0  0
  138.8287   68.4759  224.3088 H   0  0  0  0  0  0  0  0  0  0  0  0
  139.1358   68.1751  226.7412 H   0  0  0  0  0  0  0  0  0  0  0  0
  141.2219   71.2234  228.9765 H   0  0  0  0  0  0  0  0  0  0  0  0
  141.5385   72.5474  226.8855 H   0  0  0  0  0  0  0  0  0  0  0  0
  1  2  2  0
  2  3  1  0
  3  4  1  0
  4  5  1  0
  5  6  2  0
  5  7  1  0
  7  8  1  0
  8  9  1  0
  9 10  1  0
 10 11  1  0
 11 12  1  0
 12 13  1  0
 13 14  2  0
 14 15  1  0
 15 16  2  0
 16 17  1  0
 17 18  2  0
  2 19  1  0
 19 20  2  0
 20 21  1  0
 21 22  2  0
 22 23  1  0
 23 24  2  0
 24 25  1  0
 24 26  1  0
 26 27  2  0
 27 28  1  0
 28 29  2  0
 12  7  1  0
 18 13  1  0
 29 19  1  0
 28 22  1  0
  3 30  1  0
  4 31  1  0
  4 32  1  0
  8 33  1  0
  8 34  1  0
  9 35  1  0
  9 36  1  0
 10 37  1  0
 10 38  1  0
 11 39  1  0
 11 40  1  0
 12 41  1  1
 14 42  1  0
 15 43  1  0
 16 44  1  0
 18 45  1  0
 20 46  1  0
 21 47  1  0
 23 48  1  0
 26 49  1  0
 27 50  1  0
M  END
>  <smiles>  (3) 
O=C(NCC(=O)N1CCCCC1c1cccnc1)c1ccc2cc(F)ccc2n1

>  <score_type>  (3) 
oracle

>  <origin>  (3) 
autodockgpu

>  <m_score__min__energy>  (3) 
-8.4299999999999997

>  <m_primary>  (3) 
energy

>  <rmsd>  (3) 
2.0409998841961774

>  <m_score__min__rmsd>  (3) 
2.0409998841961774

>  <meeko>  (3) 
{"free_energy": -7.89, "intermolecular_energy": -9.38, "internal_energy": -1.7, "cluster_size": 22, "cluster_id": 1, "rank_in_cluster": 11}

>  <energy>  (3) 
-8.36

>  <cluster_rmsd>  (3) 
0.21

>  <cluster>  (3) 
1

$$$$

     RDKit          3D

 50 53  0  0  0  0  0  0  0  0999 V2000
  140.4790   71.4750  220.9700 O   0  0  0  0  0  0  0  0  0  0  0  0
  140.1280   71.9920  222.0850 C   0  0  0  0  0  0  0  0  0  0  0  0
  139.8490   73.4000  222.1880 N   0  0  0  0  0  0  0  0  0  0  0  0
  139.9470   74.2720  221.0600 C   0  0  0  0  0  0  0  0  0  0  0  0
  140.8220   75.4290  221.1180 C   0  0  0  0  0  0  0  0  0  0  0  0
  141.1200   75.8040  222.3290 O   0  0  0  0  0  0  0  0  0  0  0  0
  141.3930   76.2080  220.1070 N   0  0  0  0  0  0  0  0  0  0  0  0
  140.7550   77.2380  219.3170 C   0  0  0  0  0  0  0  0  0  0  0  0
  141.7470   78.3700  219.0180 C   0  0  0  0  0  0  0  0  0  0  0  0
  142.9130   77.9190  218.2050 C   0  0  0  0  0  0  0  0  0  0  0  0
  143.1010   76.4480  218.3340 C   0  0  0  0  0  0  0  0  0  0  0  0
  142.8160   75.9760  219.7620 C   0  0  2  0  0  0  0  0  0  0  0  0
  143.1580   74.5230  219.8740 C   0  0  0  0  0  0  0  0  0  0  0  0
  142.5090   73.5840  219.0900 C   0  0  0  0  0  0  0  0  0  0  0  0
  142.8670   72.2500  219.2330 C   0  0  0  0  0  0  0  0  0  0  0  0
  143.8580   71.9310  220.1590 C   0  0  0  0  0  0  0  0  0  0  0  0
  144.4590   72.8870  220.8970 N   0  0  0  0  0  0  0  0  0  0  0  0
  144.1390   74.1890  220.7850 C   0  0  0  0  0  0  0  0  0  0  0  0
  139.9980   71.1780  223.2850 C   0  0  0  0  0  0  0  0  0  0  0  0
  139.4580   69.9220  223.2500 C   0  0  0  0  0  0  0  0  0  0  0  0
  139.3270   69.1300  224.3960 C   0  0  0  0  0  0  0  0  0  0  0  0
  139.7630   69.6480  225.5950 C   0  0  0  0  0  0  0  0  0  0  0  0
  139.6710   68.9300  226.7770 C   0  0  0  0  0  0  0  0  0  0  0  0
  140.1270   69.4960  227.9660 C   0  0  0  0  0  0  0  0  0  0  0  0
  140.0180   68.7620  229.1020 F   0  0  0  0  0  0  0  0  0  0  0  0
  140.6710   70.7750  227.9720 C   0  0  0  0  0  0  0  0  0  0  0  0
  140.7670   71.4980  226.7940 C   0  0  0  0  0  0  0  0  0  0  0  0
  140.3080   70.9160  225.6250 C   0  0  0  0  0  0  0  0  0  0  0  0
  140.4100   71.6330  224.4960 N   0  0  0  0  0  0  0  0  0  0  0  0
  139.5650   73.7860  223.1360 H   0  0  0  0  0  0  0  0  0  0  0  0
  140.2850   73.6589  220.2115 H   0  0  0  0  0  0  0  0  0  0  0  0
  138.9423   74.7145  220.9908 H   0  0  0  0  0  0  0  0  0  0  0  0
  140.4038   76.8034  218.3695 H   0  0  0  0  0  0  0  0  0  0  0  0
  139.9043   77.6471  219.8818 H   0  0  0  0  0  0  0  0  0  0  0  0
  141.2198   79.1624  218.4664 H   0  0  0  0  0  0  0  0  0  0  0  0
  142.1359   78.7317  219.9813 H   0  0  0  0  0  0  0  0  0  0  0  0
  142.7365   78.1701  217.1487 H   0  0  0  0  0  0  0  0  0  0  0  0
  143.8183   78.4266  218.5694 H   0  0  0  0  0  0  0  0  0  0  0  0
  142.4142   75.9367  217.6434 H   0  0  0  0  0  0  0  0  0  0  0  0
  144.1465   76.2080  218.0902 H   0  0  0  0  0  0  0  0  0  0  0  0
  143.4332   76.5486  220.4699 H   0  0  0  0  0  0  0  0  0  0  0  0
  141.7311   73.8866  218.3735 H   0  0  0  0  0  0  0  0  0  0  0  0
  142.3817   71.4669  218.6320 H   0  0  0  0  0  0  0  0  0  0  0  0
  144.1558   70.8803  220.2907 H   0  0  0  0  0  0  0  0  0  0  0  0
  144.6390   74.9559  221.3948 H   0  0  0  0  0  0  0  0  0  0  0  0
  139.1141   69.5197  222.2857 H   0  0  0  0  0  0  0  0  0  0  0  0
  138.8884   68.1227  224.3407 H   0  0  0  0  0  0  0  0  0  0  0  0
  139.2400   67.9180  226.7765 H   0  0  0  0  0  0  0  0  0  0  0  0
  141.0266   71.2148  228.9154 H   0  0  0  0  0  0  0  0  0  0  0  0
  141.1976   72.5102  226.7879 H   0  0  0  0  0  0  0  0  0  0  0  0
  1  2  2  0
  2  3  1  0
  3  4  1  0
  4  5  1  0
  5  6  2  0
  5  7  1  0
  7  8  1  0
  8  9  1  0
  9 10  1  0
 10 11  1  0
 11 12  1  0
 12 13  1  0
 13 14  2  0
 14 15  1  0
 15 16  2  0
 16 17  1  0
 17 18  2  0
  2 19  1  0
 19 20  2  0
 20 21  1  0
 21 22  2  0
 22 23  1  0
 23 24  2  0
 24 25  1  0
 24 26  1  0
 26 27  2  0
 27 28  1  0
 28 29  2  0
 12  7  1  0
 18 13  1  0
 29 19  1  0
 28 22  1  0
  3 30  1  0
  4 31  1  0
  4 32  1  0
  8 33  1  0
  8 34  1  0
  9 35  1  0
  9 36  1  0
 10 37  1  0
 10 38  1  0
 11 39  1  0
 11 40  1  0
 12 41  1  1
 14 42  1  0
 15 43  1  0
 16 44  1  0
 18 45  1  0
 20 46  1  0
 21 47  1  0
 23 48  1  0
 26 49  1  0
 27 50  1  0
M  END
>  <smiles>  (4) 
O=C(NCC(=O)N1CCCCC1c1cccnc1)c1ccc2cc(F)ccc2n1

>  <score_type>  (4) 
oracle

>  <origin>  (4) 
autodockgpu

>  <m_score__min__energy>  (4) 
-8.4299999999999997

>  <m_primary>  (4) 
energy

>  <rmsd>  (4) 
1.9340366826985185

>  <m_score__min__rmsd>  (4) 
1.9340366826985185

>  <meeko>  (4) 
{"free_energy": -7.59, "intermolecular_energy": -9.08, "internal_energy": -1.87, "cluster_size": 22, "cluster_id": 1, "rank_in_cluster": 21}

>  <energy>  (4) 
-7.94

>  <cluster_rmsd>  (4) 
1.46

>  <cluster>  (4) 
1

$$$$

     RDKit          3D

 50 53  0  0  0  0  0  0  0  0999 V2000
  140.8680   71.9250  221.1450 O   0  0  0  0  0  0  0  0  0  0  0  0
  140.2080   72.3180  222.1670 C   0  0  0  0  0  0  0  0  0  0  0  0
  139.5800   73.6120  222.1850 N   0  0  0  0  0  0  0  0  0  0  0  0
  139.6620   74.5050  221.0710 C   0  0  0  0  0  0  0  0  0  0  0  0
  140.7860   75.4170  220.9600 C   0  0  0  0  0  0  0  0  0  0  0  0
  141.4620   75.5570  222.0640 O   0  0  0  0  0  0  0  0  0  0  0  0
  141.2640   76.1690  219.8810 N   0  0  0  0  0  0  0  0  0  0  0  0
  140.5070   77.0310  219.0010 C   0  0  0  0  0  0  0  0  0  0  0  0
  141.3480   78.2500  218.6000 C   0  0  0  0  0  0  0  0  0  0  0  0
  142.5720   77.8830  217.8310 C   0  0  0  0  0  0  0  0  0  0  0  0
  142.9460   76.4660  218.0940 C   0  0  0  0  0  0  0  0  0  0  0  0
  142.7080   76.0920  219.5590 C   0  0  2  0  0  0  0  0  0  0  0  0
  143.2340   74.7120  219.8030 C   0  0  0  0  0  0  0  0  0  0  0  0
  144.3170   74.5090  220.6420 C   0  0  0  0  0  0  0  0  0  0  0  0
  144.7620   73.2090  220.8340 C   0  0  0  0  0  0  0  0  0  0  0  0
  144.0960   72.1800  220.1720 C   0  0  0  0  0  0  0  0  0  0  0  0
  143.0440   72.4340  219.3660 N   0  0  0  0  0  0  0  0  0  0  0  0
  142.5850   73.6810  219.1550 C   0  0  0  0  0  0  0  0  0  0  0  0
  140.0690   71.4720  223.3450 C   0  0  0  0  0  0  0  0  0  0  0  0
  139.5190   70.2230  223.2740 C   0  0  0  0  0  0  0  0  0  0  0  0
  139.3790   69.4010  224.3980 C   0  0  0  0  0  0  0  0  0  0  0  0
  139.8180   69.8820  225.6110 C   0  0  0  0  0  0  0  0  0  0  0  0
  139.7180   69.1330  226.7730 C   0  0  0  0  0  0  0  0  0  0  0  0
  140.1760   69.6630  227.9780 C   0  0  0  0  0  0  0  0  0  0  0  0
  140.0600   68.8990  229.0930 F   0  0  0  0  0  0  0  0  0  0  0  0
  140.7310   70.9370  228.0190 C   0  0  0  0  0  0  0  0  0  0  0  0
  140.8350   71.6900  226.8620 C   0  0  0  0  0  0  0  0  0  0  0  0
  140.3740   71.1450  225.6760 C   0  0  0  0  0  0  0  0  0  0  0  0
  140.4830   71.8910  224.5680 N   0  0  0  0  0  0  0  0  0  0  0  0
  139.0460   73.8970  223.0570 H   0  0  0  0  0  0  0  0  0  0  0  0
  139.6653   73.8832  220.1636 H   0  0  0  0  0  0  0  0  0  0  0  0
  138.8023   75.1755  221.2171 H   0  0  0  0  0  0  0  0  0  0  0  0
  140.2257   76.4706  218.0972 H   0  0  0  0  0  0  0  0  0  0  0  0
  139.6038   77.3754  219.5260 H   0  0  0  0  0  0  0  0  0  0  0  0
  140.7293   78.9143  217.9788 H   0  0  0  0  0  0  0  0  0  0  0  0
  141.6760   78.7440  219.5265 H   0  0  0  0  0  0  0  0  0  0  0  0
  142.3770   78.0127  216.7562 H   0  0  0  0  0  0  0  0  0  0  0  0
  143.4000   78.5346  218.1468 H   0  0  0  0  0  0  0  0  0  0  0  0
  142.3385   75.8100  217.4532 H   0  0  0  0  0  0  0  0  0  0  0  0
  144.0164   76.3421  217.8730 H   0  0  0  0  0  0  0  0  0  0  0  0
  143.2379   76.8007  220.2124 H   0  0  0  0  0  0  0  0  0  0  0  0
  144.8107   75.3551  221.1423 H   0  0  0  0  0  0  0  0  0  0  0  0
  145.6179   72.9965  221.4915 H   0  0  0  0  0  0  0  0  0  0  0  0
  144.4336   71.1421  220.3087 H   0  0  0  0  0  0  0  0  0  0  0  0
  141.7273   73.8709  218.4929 H   0  0  0  0  0  0  0  0  0  0  0  0
  139.1739   69.8503  222.2983 H   0  0  0  0  0  0  0  0  0  0  0  0
  138.9312   68.3997  224.3147 H   0  0  0  0  0  0  0  0  0  0  0  0
  139.2791   68.1248  226.7443 H   0  0  0  0  0  0  0  0  0  0  0  0
  141.0889   71.3483  228.9744 H   0  0  0  0  0  0  0  0  0  0  0  0
  141.2740   72.6984  226.8846 H   0  0  0  0  0  0  0  0  0  0  0  0
  1  2  2  0
  2  3  1  0
  3  4  1  0
  4  5  1  0
  5  6  2  0
  5  7  1  0
  7  8  1  0
  8  9  1  0
  9 10  1  0
 10 11  1  0
 11 12  1  0
 12 13  1  0
 13 14  2  0
 14 15  1  0
 15 16  2  0
 16 17  1  0
 17 18  2  0
  2 19  1  0
 19 20  2  0
 20 21  1  0
 21 22  2  0
 22 23  1  0
 23 24  2  0
 24 25  1  0
 24 26  1  0
 26 27  2  0
 27 28  1  0
 28 29  2  0
 12  7  1  0
 18 13  1  0
 29 19  1  0
 28 22  1  0
  3 30  1  0
  4 31  1  0
  4 32  1  0
  8 33  1  0
  8 34  1  0
  9 35  1  0
  9 36  1  0
 10 37  1  0
 10 38  1  0
 11 39  1  0
 11 40  1  0
 12 41  1  1
 14 42  1  0
 15 43  1  0
 16 44  1  0
 18 45  1  0
 20 46  1  0
 21 47  1  0
 23 48  1  0
 26 49  1  0
 27 50  1  0
M  END
>  <smiles>  (5) 
O=C(NCC(=O)N1CCCCC1c1cccnc1)c1ccc2cc(F)ccc2n1

>  <score_type>  (5) 
oracle

>  <origin>  (5) 
autodockgpu

>  <m_score__min__energy>  (5) 
-8.4299999999999997

>  <m_primary>  (5) 
energy

>  <rmsd>  (5) 
1.8410782253664981

>  <m_score__min__rmsd>  (5) 
1.8410782253664981

>  <meeko>  (5) 
{"free_energy": -7.83, "intermolecular_energy": -9.32, "internal_energy": -1.62, "cluster_size": 22, "cluster_id": 1, "rank_in_cluster": 14}

>  <energy>  (5) 
-7.93

>  <cluster_rmsd>  (5) 
1.49

>  <cluster>  (5) 
1

$$$$

     RDKit          3D

 50 53  0  0  0  0  0  0  0  0999 V2000
  141.2480   71.9520  221.2120 O   0  0  0  0  0  0  0  0  0  0  0  0
  140.4700   72.3300  222.1530 C   0  0  0  0  0  0  0  0  0  0  0  0
  139.7860   73.5930  222.0790 N   0  0  0  0  0  0  0  0  0  0  0  0
  139.9400   74.4700  220.9610 C   0  0  0  0  0  0  0  0  0  0  0  0
  140.8200   75.6200  221.0640 C   0  0  0  0  0  0  0  0  0  0  0  0
  141.2370   75.8580  222.2740 O   0  0  0  0  0  0  0  0  0  0  0  0
  141.2900   76.5140  220.0960 N   0  0  0  0  0  0  0  0  0  0  0  0
  140.5460   77.5460  219.4100 C   0  0  0  0  0  0  0  0  0  0  0  0
  141.4380   78.7700  219.1640 C   0  0  0  0  0  0  0  0  0  0  0  0
  142.6010   78.4730  218.2800 C   0  0  0  0  0  0  0  0  0  0  0  0
  142.9030   77.0140  218.2900 C   0  0  0  0  0  0  0  0  0  0  0  0
  142.7110   76.4180  219.6860 C   0  0  2  0  0  0  0  0  0  0  0  0
  143.1650   74.9920  219.6750 C   0  0  0  0  0  0  0  0  0  0  0  0
  144.1890   74.5720  220.5080 C   0  0  0  0  0  0  0  0  0  0  0  0
  144.5690   73.2380  220.4580 C   0  0  0  0  0  0  0  0  0  0  0  0
  143.9000   72.3960  219.5720 C   0  0  0  0  0  0  0  0  0  0  0  0
  142.9090   72.8580  218.7830 N   0  0  0  0  0  0  0  0  0  0  0  0
  142.5130   74.1440  218.8030 C   0  0  0  0  0  0  0  0  0  0  0  0
  140.2500   71.4980  223.3290 C   0  0  0  0  0  0  0  0  0  0  0  0
  139.5840   70.3060  223.2550 C   0  0  0  0  0  0  0  0  0  0  0  0
  139.3660   69.4990  224.3760 C   0  0  0  0  0  0  0  0  0  0  0  0
  139.8470   69.9340  225.5910 C   0  0  0  0  0  0  0  0  0  0  0  0
  139.6740   69.1950  226.7510 C   0  0  0  0  0  0  0  0  0  0  0  0
  140.1790   69.6760  227.9580 C   0  0  0  0  0  0  0  0  0  0  0  0
  139.9890   68.9240  229.0710 F   0  0  0  0  0  0  0  0  0  0  0  0
  140.8520   70.8920  228.0030 C   0  0  0  0  0  0  0  0  0  0  0  0
  141.0270   71.6350  226.8480 C   0  0  0  0  0  0  0  0  0  0  0  0
  140.5190   71.1380  225.6600 C   0  0  0  0  0  0  0  0  0  0  0  0
  140.7000   71.8740  224.5530 N   0  0  0  0  0  0  0  0  0  0  0  0
  139.1530   73.8680  222.8870 H   0  0  0  0  0  0  0  0  0  0  0  0
  140.3107   73.8587  220.1250 H   0  0  0  0  0  0  0  0  0  0  0  0
  138.9426   74.9203  220.8498 H   0  0  0  0  0  0  0  0  0  0  0  0
  140.1900   77.1563  218.4449 H   0  0  0  0  0  0  0  0  0  0  0  0
  139.6907   77.8455  220.0335 H   0  0  0  0  0  0  0  0  0  0  0  0
  140.8312   79.5573  218.6928 H   0  0  0  0  0  0  0  0  0  0  0  0
  141.8372   79.0882  220.1383 H   0  0  0  0  0  0  0  0  0  0  0  0
  142.3646   78.7870  217.2526 H   0  0  0  0  0  0  0  0  0  0  0  0
  143.4796   79.0214  218.6506 H   0  0  0  0  0  0  0  0  0  0  0  0
  142.2292   76.5034  217.5862 H   0  0  0  0  0  0  0  0  0  0  0  0
  143.9529   76.8739  217.9932 H   0  0  0  0  0  0  0  0  0  0  0  0
  143.3113   76.9827  220.4145 H   0  0  0  0  0  0  0  0  0  0  0  0
  144.6873   75.2763  221.1903 H   0  0  0  0  0  0  0  0  0  0  0  0
  145.3762   72.8559  221.1002 H   0  0  0  0  0  0  0  0  0  0  0  0
  144.1855   71.3352  219.5152 H   0  0  0  0  0  0  0  0  0  0  0  0
  141.7033   74.5043  218.1514 H   0  0  0  0  0  0  0  0  0  0  0  0
  139.2060   69.9697  222.2782 H   0  0  0  0  0  0  0  0  0  0  0  0
  138.8260   68.5445  224.2899 H   0  0  0  0  0  0  0  0  0  0  0  0
  139.1407   68.2335  226.7192 H   0  0  0  0  0  0  0  0  0  0  0  0
  141.2467   71.2649  228.9596 H   0  0  0  0  0  0  0  0  0  0  0  0
  141.5576   72.5982  226.8737 H   0  0  0  0  0  0  0  0  0  0  0  0
  1  2  2  0
  2  3  1  0
  3  4  1  0
  4  5  1  0
  5  6  2  0
  5  7  1  0
  7  8  1  0
  8  9  1  0
  9 10  1  0
 10 11  1  0
 11 12  1  0
 12 13  1  0
 13 14  2  0
 14 15  1  0
 15 16  2  0
 16 17  1  0
 17 18  2  0
  2 19  1  0
 19 20  2  0
 20 21  1  0
 21 22  2  0
 22 23  1  0
 23 24  2  0
 24 25  1  0
 24 26  1  0
 26 27  2  0
 27 28  1  0
 28 29  2  0
 12  7  1  0
 18 13  1  0
 29 19  1  0
 28 22  1  0
  3 30  1  0
  4 31  1  0
  4 32  1  0
  8 33  1  0
  8 34  1  0
  9 35  1  0
  9 36  1  0
 10 37  1  0
 10 38  1  0
 11 39  1  0
 11 40  1  0
 12 41  1  1
 14 42  1  0
 15 43  1  0
 16 44  1  0
 18 45  1  0
 20 46  1  0
 21 47  1  0
 23 48  1  0
 26 49  1  0
 27 50  1  0
M  END
>  <smiles>  (6) 
O=C(NCC(=O)N1CCCCC1c1cccnc1)c1ccc2cc(F)ccc2n1

>  <score_type>  (6) 
oracle

>  <origin>  (6) 
autodockgpu

>  <m_score__min__energy>  (6) 
-8.4299999999999997

>  <m_primary>  (6) 
energy

>  <rmsd>  (6) 
2.041610476213889

>  <m_score__min__rmsd>  (6) 
2.041610476213889

>  <meeko>  (6) 
{"free_energy": -7.91, "intermolecular_energy": -9.4, "internal_energy": -1.67, "cluster_size": 22, "cluster_id": 1, "rank_in_cluster": 10}

>  <energy>  (6) 
-7.93

>  <cluster_rmsd>  (6) 
1.39

>  <cluster>  (6) 
1

$$$$

     RDKit          3D

 50 53  0  0  0  0  0  0  0  0999 V2000
  141.5500   72.2650  221.5920 O   0  0  0  0  0  0  0  0  0  0  0  0
  140.5480   72.4620  222.3620 C   0  0  0  0  0  0  0  0  0  0  0  0
  139.6390   73.5500  222.1230 N   0  0  0  0  0  0  0  0  0  0  0  0
  139.8110   74.4480  221.0240 C   0  0  0  0  0  0  0  0  0  0  0  0
  140.8070   75.5020  221.1040 C   0  0  0  0  0  0  0  0  0  0  0  0
  141.3420   75.6320  222.2840 O   0  0  0  0  0  0  0  0  0  0  0  0
  141.2860   76.3960  220.1410 N   0  0  0  0  0  0  0  0  0  0  0  0
  140.5420   77.4150  219.4340 C   0  0  0  0  0  0  0  0  0  0  0  0
  141.4230   78.6500  219.2010 C   0  0  0  0  0  0  0  0  0  0  0  0
  142.6080   78.3640  218.3420 C   0  0  0  0  0  0  0  0  0  0  0  0
  142.9290   76.9100  218.3660 C   0  0  0  0  0  0  0  0  0  0  0  0
  142.7170   76.3180  219.7620 C   0  0  2  0  0  0  0  0  0  0  0  0
  143.1900   74.8980  219.7680 C   0  0  0  0  0  0  0  0  0  0  0  0
  144.2440   74.5100  220.5790 C   0  0  0  0  0  0  0  0  0  0  0  0
  144.6410   73.1810  220.5470 C   0  0  0  0  0  0  0  0  0  0  0  0
  143.9590   72.3110  219.6990 C   0  0  0  0  0  0  0  0  0  0  0  0
  142.9380   72.7420  218.9300 N   0  0  0  0  0  0  0  0  0  0  0  0
  142.5250   74.0230  218.9350 C   0  0  0  0  0  0  0  0  0  0  0  0
  140.2930   71.5930  223.5030 C   0  0  0  0  0  0  0  0  0  0  0  0
  139.5680   70.4400  223.3840 C   0  0  0  0  0  0  0  0  0  0  0  0
  139.3150   69.5980  224.4730 C   0  0  0  0  0  0  0  0  0  0  0  0
  139.8230   69.9570  225.7010 C   0  0  0  0  0  0  0  0  0  0  0  0
  139.6200   69.1790  226.8310 C   0  0  0  0  0  0  0  0  0  0  0  0
  140.1530   69.5840  228.0530 C   0  0  0  0  0  0  0  0  0  0  0  0
  139.9320   68.7960  229.1350 F   0  0  0  0  0  0  0  0  0  0  0  0
  140.8860   70.7620  228.1440 C   0  0  0  0  0  0  0  0  0  0  0  0
  141.0930   71.5430  227.0190 C   0  0  0  0  0  0  0  0  0  0  0  0
  140.5540   71.1220  225.8150 C   0  0  0  0  0  0  0  0  0  0  0  0
  140.7670   71.8940  224.7390 N   0  0  0  0  0  0  0  0  0  0  0  0
  138.8230   73.6770  222.7910 H   0  0  0  0  0  0  0  0  0  0  0  0
  140.0661   73.8341  220.1476 H   0  0  0  0  0  0  0  0  0  0  0  0
  138.8588   74.9979  220.9916 H   0  0  0  0  0  0  0  0  0  0  0  0
  140.2118   77.0161  218.4635 H   0  0  0  0  0  0  0  0  0  0  0  0
  139.6695   77.7056  220.0375 H   0  0  0  0  0  0  0  0  0  0  0  0
  140.8159   79.4273  218.7140 H   0  0  0  0  0  0  0  0  0  0  0  0
  141.7978   78.9778  220.1818 H   0  0  0  0  0  0  0  0  0  0  0  0
  142.3883   78.6695  217.3083 H   0  0  0  0  0  0  0  0  0  0  0  0
  143.4715   78.9260  218.7274 H   0  0  0  0  0  0  0  0  0  0  0  0
  142.2763   76.3868  217.6517 H   0  0  0  0  0  0  0  0  0  0  0  0
  143.9865   76.7827  218.0911 H   0  0  0  0  0  0  0  0  0  0  0  0
  143.2948   76.8943  220.4996 H   0  0  0  0  0  0  0  0  0  0  0  0
  144.7524   75.2359  221.2306 H   0  0  0  0  0  0  0  0  0  0  0  0
  145.4714   72.8240  221.1739 H   0  0  0  0  0  0  0  0  0  0  0  0
  144.2586   71.2535  219.6558 H   0  0  0  0  0  0  0  0  0  0  0  0
  141.6912   74.3582  218.3006 H   0  0  0  0  0  0  0  0  0  0  0  0
  139.1691   70.1641  222.3967 H   0  0  0  0  0  0  0  0  0  0  0  0
  138.7273   68.6762  224.3512 H   0  0  0  0  0  0  0  0  0  0  0  0
  139.0408   68.2463  226.7628 H   0  0  0  0  0  0  0  0  0  0  0  0
  141.3029   71.0747  229.1127 H   0  0  0  0  0  0  0  0  0  0  0  0
  141.6722   72.4761  227.0806 H   0  0  0  0  0  0  0  0  0  0  0  0
  1  2  2  0
  2  3  1  0
  3  4  1  0
  4  5  1  0
  5  6  2  0
  5  7  1  0
  7  8  1  0
  8  9  1  0
  9 10  1  0
 10 11  1  0
 11 12  1  0
 12 13  1  0
 13 14  2  0
 14 15  1  0
 15 16  2  0
 16 17  1  0
 17 18  2  0
  2 19  1  0
 19 20  2  0
 20 21  1  0
 21 22  2  0
 22 23  1  0
 23 24  2  0
 24 25  1  0
 24 26  1  0
 26 27  2  0
 27 28  1  0
 28 29  2  0
 12  7  1  0
 18 13  1  0
 29 19  1  0
 28 22  1  0
  3 30  1  0
  4 31  1  0
  4 32  1  0
  8 33  1  0
  8 34  1  0
  9 35  1  0
  9 36  1  0
 10 37  1  0
 10 38  1  0
 11 39  1  0
 11 40  1  0
 12 41  1  1
 14 42  1  0
 15 43  1  0
 16 44  1  0
 18 45  1  0
 20 46  1  0
 21 47  1  0
 23 48  1  0
 26 49  1  0
 27 50  1  0
M  END
>  <smiles>  (7) 
O=C(NCC(=O)N1CCCCC1c1cccnc1)c1ccc2cc(F)ccc2n1

>  <score_type>  (7) 
oracle

>  <origin>  (7) 
autodockgpu

>  <m_score__min__energy>  (7) 
-8.4299999999999997

>  <m_primary>  (7) 
energy

>  <rmsd>  (7) 
2.039960467944085

>  <m_score__min__rmsd>  (7) 
2.039960467944085

>  <meeko>  (7) 
{"free_energy": -7.93, "intermolecular_energy": -9.43, "internal_energy": -1.61, "cluster_size": 22, "cluster_id": 1, "rank_in_cluster": 5}

>  <energy>  (7) 
-7.93

>  <cluster_rmsd>  (7) 
1.52

>  <cluster>  (7) 
1

$$$$

     RDKit          3D

 50 53  0  0  0  0  0  0  0  0999 V2000
  141.2860   71.9290  221.2500 O   0  0  0  0  0  0  0  0  0  0  0  0
  140.4890   72.3060  222.1770 C   0  0  0  0  0  0  0  0  0  0  0  0
  139.7950   73.5620  222.0840 N   0  0  0  0  0  0  0  0  0  0  0  0
  139.9590   74.4330  220.9640 C   0  0  0  0  0  0  0  0  0  0  0  0
  140.8190   75.5980  221.0760 C   0  0  0  0  0  0  0  0  0  0  0  0
  141.2060   75.8510  222.2940 O   0  0  0  0  0  0  0  0  0  0  0  0
  141.2970   76.4910  220.1120 N   0  0  0  0  0  0  0  0  0  0  0  0
  140.5600   77.5270  219.4240 C   0  0  0  0  0  0  0  0  0  0  0  0
  141.4580   78.7480  219.1850 C   0  0  0  0  0  0  0  0  0  0  0  0
  142.6230   78.4480  218.3050 C   0  0  0  0  0  0  0  0  0  0  0  0
  142.9200   76.9890  218.3140 C   0  0  0  0  0  0  0  0  0  0  0  0
  142.7200   76.3910  219.7080 C   0  0  2  0  0  0  0  0  0  0  0  0
  143.1690   74.9630  219.6970 C   0  0  0  0  0  0  0  0  0  0  0  0
  144.1810   74.5350  220.5400 C   0  0  0  0  0  0  0  0  0  0  0  0
  144.5560   73.2010  220.4890 C   0  0  0  0  0  0  0  0  0  0  0  0
  143.8950   72.3650  219.5920 C   0  0  0  0  0  0  0  0  0  0  0  0
  142.9140   72.8330  218.7930 N   0  0  0  0  0  0  0  0  0  0  0  0
  142.5230   74.1210  218.8140 C   0  0  0  0  0  0  0  0  0  0  0  0
  140.2580   71.4790  223.3540 C   0  0  0  0  0  0  0  0  0  0  0  0
  139.5890   70.2890  223.2790 C   0  0  0  0  0  0  0  0  0  0  0  0
  139.3600   69.4860  224.4020 C   0  0  0  0  0  0  0  0  0  0  0  0
  139.8320   69.9240  225.6190 C   0  0  0  0  0  0  0  0  0  0  0  0
  139.6490   69.1900  226.7800 C   0  0  0  0  0  0  0  0  0  0  0  0
  140.1450   69.6750  227.9890 C   0  0  0  0  0  0  0  0  0  0  0  0
  139.9440   68.9270  229.1030 F   0  0  0  0  0  0  0  0  0  0  0  0
  140.8210   70.8890  228.0350 C   0  0  0  0  0  0  0  0  0  0  0  0
  141.0080   71.6270  226.8780 C   0  0  0  0  0  0  0  0  0  0  0  0
  140.5070   71.1270  225.6880 C   0  0  0  0  0  0  0  0  0  0  0  0
  140.6990   71.8580  224.5810 N   0  0  0  0  0  0  0  0  0  0  0  0
  139.1460   73.8350  222.8800 H   0  0  0  0  0  0  0  0  0  0  0  0
  140.3564   73.8216  220.1405 H   0  0  0  0  0  0  0  0  0  0  0  0
  138.9573   74.8672  220.8295 H   0  0  0  0  0  0  0  0  0  0  0  0
  140.2076   77.1404  218.4563 H   0  0  0  0  0  0  0  0  0  0  0  0
  139.7024   77.8285  220.0434 H   0  0  0  0  0  0  0  0  0  0  0  0
  140.8565   79.5391  218.7135 H   0  0  0  0  0  0  0  0  0  0  0  0
  141.8545   79.0623  220.1617 H   0  0  0  0  0  0  0  0  0  0  0  0
  142.3914   78.7641  217.2772 H   0  0  0  0  0  0  0  0  0  0  0  0
  143.5021   78.9928  218.6798 H   0  0  0  0  0  0  0  0  0  0  0  0
  142.2476   76.4818  217.6064 H   0  0  0  0  0  0  0  0  0  0  0  0
  143.9708   76.8462  218.0218 H   0  0  0  0  0  0  0  0  0  0  0  0
  143.3194   76.9525  220.4398 H   0  0  0  0  0  0  0  0  0  0  0  0
  144.6740   75.2343  221.2313 H   0  0  0  0  0  0  0  0  0  0  0  0
  145.3540   72.8134  221.1394 H   0  0  0  0  0  0  0  0  0  0  0  0
  144.1782   71.3037  219.5341 H   0  0  0  0  0  0  0  0  0  0  0  0
  141.7221   74.4873  218.1550 H   0  0  0  0  0  0  0  0  0  0  0  0
  139.2173   69.9505  222.3006 H   0  0  0  0  0  0  0  0  0  0  0  0
  138.8186   68.5324  224.3149 H   0  0  0  0  0  0  0  0  0  0  0  0
  139.1148   68.2290  226.7477 H   0  0  0  0  0  0  0  0  0  0  0  0
  141.2086   71.2646  228.9935 H   0  0  0  0  0  0  0  0  0  0  0  0
  141.5422   72.5882  226.9039 H   0  0  0  0  0  0  0  0  0  0  0  0
  1  2  2  0
  2  3  1  0
  3  4  1  0
  4  5  1  0
  5  6  2  0
  5  7  1  0
  7  8  1  0
  8  9  1  0
  9 10  1  0
 10 11  1  0
 11 12  1  0
 12 13  1  0
 13 14  2  0
 14 15  1  0
 15 16  2  0
 16 17  1  0
 17 18  2  0
  2 19  1  0
 19 20  2  0
 20 21  1  0
 21 22  2  0
 22 23  1  0
 23 24  2  0
 24 25  1  0
 24 26  1  0
 26 27  2  0
 27 28  1  0
 28 29  2  0
 12  7  1  0
 18 13  1  0
 29 19  1  0
 28 22  1  0
  3 30  1  0
  4 31  1  0
  4 32  1  0
  8 33  1  0
  8 34  1  0
  9 35  1  0
  9 36  1  0
 10 37  1  0
 10 38  1  0
 11 39  1  0
 11 40  1  0
 12 41  1  1
 14 42  1  0
 15 43  1  0
 16 44  1  0
 18 45  1  0
 20 46  1  0
 21 47  1  0
 23 48  1  0
 26 49  1  0
 27 50  1  0
M  END
>  <smiles>  (8) 
O=C(NCC(=O)N1CCCCC1c1cccnc1)c1ccc2cc(F)ccc2n1

>  <score_type>  (8) 
oracle

>  <origin>  (8) 
autodockgpu

>  <m_score__min__energy>  (8) 
-8.4299999999999997

>  <m_primary>  (8) 
energy

>  <rmsd>  (8) 
2.043775404934142

>  <m_score__min__rmsd>  (8) 
2.043775404934142

>  <meeko>  (8) 
{"free_energy": -7.91, "intermolecular_energy": -9.4, "internal_energy": -1.66, "cluster_size": 22, "cluster_id": 1, "rank_in_cluster": 9}

>  <energy>  (8) 
-7.92

>  <cluster_rmsd>  (8) 
1.51

>  <cluster>  (8) 
1

$$$$

     RDKit          3D

 50 53  0  0  0  0  0  0  0  0999 V2000
  141.4380   72.3830  221.5810 O   0  0  0  0  0  0  0  0  0  0  0  0
  140.4740   72.5560  222.4030 C   0  0  0  0  0  0  0  0  0  0  0  0
  139.5770   73.6720  222.2600 N   0  0  0  0  0  0  0  0  0  0  0  0
  139.7200   74.6230  221.2030 C   0  0  0  0  0  0  0  0  0  0  0  0
  140.8660   75.5140  221.1860 C   0  0  0  0  0  0  0  0  0  0  0  0
  141.4460   75.6490  222.3440 O   0  0  0  0  0  0  0  0  0  0  0  0
  141.4490   76.2500  220.1490 N   0  0  0  0  0  0  0  0  0  0  0  0
  142.3910   75.7840  219.1560 C   0  0  0  0  0  0  0  0  0  0  0  0
  142.1300   76.4770  217.8120 C   0  0  0  0  0  0  0  0  0  0  0  0
  142.3250   77.9540  217.8730 C   0  0  0  0  0  0  0  0  0  0  0  0
  142.2010   78.4380  219.2750 C   0  0  0  0  0  0  0  0  0  0  0  0
  141.1000   77.6850  220.0250 C   0  0  2  0  0  0  0  0  0  0  0  0
  140.9170   78.3050  221.3760 C   0  0  0  0  0  0  0  0  0  0  0  0
  142.0060   78.7880  222.0830 C   0  0  0  0  0  0  0  0  0  0  0  0
  141.7790   79.3540  223.3300 C   0  0  0  0  0  0  0  0  0  0  0  0
  140.4690   79.4040  223.8010 C   0  0  0  0  0  0  0  0  0  0  0  0
  139.4440   78.9200  223.0700 N   0  0  0  0  0  0  0  0  0  0  0  0
  139.6250   78.3640  221.8570 C   0  0  0  0  0  0  0  0  0  0  0  0
  140.2510   71.6330  223.5070 C   0  0  0  0  0  0  0  0  0  0  0  0
  139.5520   70.4690  223.3450 C   0  0  0  0  0  0  0  0  0  0  0  0
  139.3310   69.5750  224.3980 C   0  0  0  0  0  0  0  0  0  0  0  0
  139.8420   69.8920  225.6360 C   0  0  0  0  0  0  0  0  0  0  0  0
  139.6680   69.0620  226.7320 C   0  0  0  0  0  0  0  0  0  0  0  0
  140.2040   69.4260  227.9660 C   0  0  0  0  0  0  0  0  0  0  0  0
  140.0130   68.5870  229.0150 F   0  0  0  0  0  0  0  0  0  0  0  0
  140.9100   70.6170  228.1020 C   0  0  0  0  0  0  0  0  0  0  0  0
  141.0870   71.4510  227.0100 C   0  0  0  0  0  0  0  0  0  0  0  0
  140.5460   71.0690  225.7940 C   0  0  0  0  0  0  0  0  0  0  0  0
  140.7290   71.8920  224.7510 N   0  0  0  0  0  0  0  0  0  0  0  0
  138.7930   73.7780  222.9690 H   0  0  0  0  0  0  0  0  0  0  0  0
  139.7454   74.0530  220.2626 H   0  0  0  0  0  0  0  0  0  0  0  0
  138.8692   75.3036  221.3546 H   0  0  0  0  0  0  0  0  0  0  0  0
  143.4139   76.0124  219.4900 H   0  0  0  0  0  0  0  0  0  0  0  0
  142.2712   74.6979  219.0292 H   0  0  0  0  0  0  0  0  0  0  0  0
  142.8211   76.0624  217.0633 H   0  0  0  0  0  0  0  0  0  0  0  0
  141.0788   76.2937  217.5448 H   0  0  0  0  0  0  0  0  0  0  0  0
  143.3260   78.2032  217.4911 H   0  0  0  0  0  0  0  0  0  0  0  0
  141.5531   78.4407  217.2587 H   0  0  0  0  0  0  0  0  0  0  0  0
  143.1586   78.2838  219.7938 H   0  0  0  0  0  0  0  0  0  0  0  0
  141.9395   79.5062  219.2529 H   0  0  0  0  0  0  0  0  0  0  0  0
  140.1567   77.7555  219.4636 H   0  0  0  0  0  0  0  0  0  0  0  0
  143.0226   78.7248  221.6676 H   0  0  0  0  0  0  0  0  0  0  0  0
  142.6107   79.7521  223.9298 H   0  0  0  0  0  0  0  0  0  0  0  0
  140.2667   79.8465  224.7875 H   0  0  0  0  0  0  0  0  0  0  0  0
  138.7782   77.9731  221.2738 H   0  0  0  0  0  0  0  0  0  0  0  0
  139.1489   70.2268  222.3506 H   0  0  0  0  0  0  0  0  0  0  0  0
  138.7649   68.6450  224.2410 H   0  0  0  0  0  0  0  0  0  0  0  0
  139.1094   68.1201  226.6285 H   0  0  0  0  0  0  0  0  0  0  0  0
  141.3290   70.8974  229.0797 H   0  0  0  0  0  0  0  0  0  0  0  0
  141.6442   72.3945  227.1067 H   0  0  0  0  0  0  0  0  0  0  0  0
  1  2  2  0
  2  3  1  0
  3  4  1  0
  4  5  1  0
  5  6  2  0
  5  7  1  0
  7  8  1  0
  8  9  1  0
  9 10  1  0
 10 11  1  0
 11 12  1  0
 12 13  1  0
 13 14  2  0
 14 15  1  0
 15 16  2  0
 16 17  1  0
 17 18  2  0
  2 19  1  0
 19 20  2  0
 20 21  1  0
 21 22  2  0
 22 23  1  0
 23 24  2  0
 24 25  1  0
 24 26  1  0
 26 27  2  0
 27 28  1  0
 28 29  2  0
 12  7  1  0
 18 13  1  0
 29 19  1  0
 28 22  1  0
  3 30  1  0
  4 31  1  0
  4 32  1  0
  8 33  1  0
  8 34  1  0
  9 35  1  0
  9 36  1  0
 10 37  1  0
 10 38  1  0
 11 39  1  0
 11 40  1  0
 12 41  1  6
 14 42  1  0
 15 43  1  0
 16 44  1  0
 18 45  1  0
 20 46  1  0
 21 47  1  0
 23 48  1  0
 26 49  1  0
 27 50  1  0
M  END
>  <smiles>  (9) 
O=C(NCC(=O)N1CCCCC1c1cccnc1)c1ccc2cc(F)ccc2n1

>  <score_type>  (9) 
oracle

>  <origin>  (9) 
autodockgpu

>  <m_score__min__energy>  (9) 
-8.4299999999999997

>  <m_primary>  (9) 
energy

>  <rmsd>  (9) 
1.96921602753913

>  <m_score__min__rmsd>  (9) 
1.96921602753913

>  <meeko>  (9) 
{"free_energy": -8.36, "intermolecular_energy": -9.85, "internal_energy": -1.27, "cluster_size": 22, "cluster_id": 2, "rank_in_cluster": 3}

>  <energy>  (9) 
-7.91

>  <cluster_rmsd>  (9) 
1.51

>  <cluster>  (9) 
1

$$$$

     RDKit          3D

 50 53  0  0  0  0  0  0  0  0999 V2000
  141.2510   72.0720  221.3540 O   0  0  0  0  0  0  0  0  0  0  0  0
  140.4840   72.4320  222.3120 C   0  0  0  0  0  0  0  0  0  0  0  0
  139.8270   73.7110  222.2870 N   0  0  0  0  0  0  0  0  0  0  0  0
  139.9970   74.6250  221.2020 C   0  0  0  0  0  0  0  0  0  0  0  0
  140.8310   75.8010  221.3740 C   0  0  0  0  0  0  0  0  0  0  0  0
  141.0760   76.0950  222.6190 O   0  0  0  0  0  0  0  0  0  0  0  0
  141.4090   76.6690  220.4430 N   0  0  0  0  0  0  0  0  0  0  0  0
  142.5550   76.4210  219.5960 C   0  0  0  0  0  0  0  0  0  0  0  0
  142.3660   77.1020  218.2340 C   0  0  0  0  0  0  0  0  0  0  0  0
  142.2700   78.5870  218.3370 C   0  0  0  0  0  0  0  0  0  0  0  0
  141.8560   78.9880  219.7100 C   0  0  0  0  0  0  0  0  0  0  0  0
  140.8190   78.0190  220.2810 C   0  0  2  0  0  0  0  0  0  0  0  0
  140.3300   78.5450  221.5950 C   0  0  0  0  0  0  0  0  0  0  0  0
  141.2200   79.0620  222.5220 C   0  0  0  0  0  0  0  0  0  0  0  0
  140.7130   79.5370  223.7230 C   0  0  0  0  0  0  0  0  0  0  0  0
  139.3370   79.4660  223.9300 C   0  0  0  0  0  0  0  0  0  0  0  0
  138.5140   78.9540  222.9920 N   0  0  0  0  0  0  0  0  0  0  0  0
  138.9700   78.4830  221.8160 C   0  0  0  0  0  0  0  0  0  0  0  0
  140.2490   71.5610  223.4560 C   0  0  0  0  0  0  0  0  0  0  0  0
  139.5540   70.3890  223.3410 C   0  0  0  0  0  0  0  0  0  0  0  0
  139.3220   69.5460  224.4330 C   0  0  0  0  0  0  0  0  0  0  0  0
  139.8180   69.9230  225.6610 C   0  0  0  0  0  0  0  0  0  0  0  0
  139.6330   69.1450  226.7930 C   0  0  0  0  0  0  0  0  0  0  0  0
  140.1540   69.5690  228.0140 C   0  0  0  0  0  0  0  0  0  0  0  0
  139.9510   68.7800  229.0990 F   0  0  0  0  0  0  0  0  0  0  0  0
  140.8560   70.7650  228.1010 C   0  0  0  0  0  0  0  0  0  0  0  0
  141.0450   71.5470  226.9740 C   0  0  0  0  0  0  0  0  0  0  0  0
  140.5190   71.1070  225.7710 C   0  0  0  0  0  0  0  0  0  0  0  0
  140.7130   71.8790  224.6920 N   0  0  0  0  0  0  0  0  0  0  0  0
  139.2020   73.9680  223.1070 H   0  0  0  0  0  0  0  0  0  0  0  0
  140.4236   74.0513  220.3660 H   0  0  0  0  0  0  0  0  0  0  0  0
  138.9899   75.0445  221.0613 H   0  0  0  0  0  0  0  0  0  0  0  0
  143.4579   76.8216  220.0801 H   0  0  0  0  0  0  0  0  0  0  0  0
  142.6598   75.3367  219.4431 H   0  0  0  0  0  0  0  0  0  0  0  0
  143.2234   76.8491  217.5929 H   0  0  0  0  0  0  0  0  0  0  0  0
  141.4180   76.7380  217.8111 H   0  0  0  0  0  0  0  0  0  0  0  0
  143.2512   79.0299  218.1107 H   0  0  0  0  0  0  0  0  0  0  0  0
  141.5178   78.9459  217.6191 H   0  0  0  0  0  0  0  0  0  0  0  0
  142.7404   78.9933  220.3641 H   0  0  0  0  0  0  0  0  0  0  0  0
  141.4050   79.9900  219.6588 H   0  0  0  0  0  0  0  0  0  0  0  0
  139.9703   77.9354  219.5862 H   0  0  0  0  0  0  0  0  0  0  0  0
  142.2992   79.0951  222.3117 H   0  0  0  0  0  0  0  0  0  0  0  0
  141.3790   79.9580  224.4906 H   0  0  0  0  0  0  0  0  0  0  0  0
  138.9139   79.8344  224.8762 H   0  0  0  0  0  0  0  0  0  0  0  0
  138.2859   78.0658  221.0623 H   0  0  0  0  0  0  0  0  0  0  0  0
  139.1634   70.0987  222.3545 H   0  0  0  0  0  0  0  0  0  0  0  0
  138.7592   68.6084  224.3140 H   0  0  0  0  0  0  0  0  0  0  0  0
  139.0777   68.1977  226.7280 H   0  0  0  0  0  0  0  0  0  0  0  0
  141.2633   71.0919  229.0691 H   0  0  0  0  0  0  0  0  0  0  0  0
  141.5997   72.4951  227.0329 H   0  0  0  0  0  0  0  0  0  0  0  0
  1  2  2  0
  2  3  1  0
  3  4  1  0
  4  5  1  0
  5  6  2  0
  5  7  1  0
  7  8  1  0
  8  9  1  0
  9 10  1  0
 10 11  1  0
 11 12  1  0
 12 13  1  0
 13 14  2  0
 14 15  1  0
 15 16  2  0
 16 17  1  0
 17 18  2  0
  2 19  1  0
 19 20  2  0
 20 21  1  0
 21 22  2  0
 22 23  1  0
 23 24  2  0
 24 25  1  0
 24 26  1  0
 26 27  2  0
 27 28  1  0
 28 29  2  0
 12  7  1  0
 18 13  1  0
 29 19  1  0
 28 22  1  0
  3 30  1  0
  4 31  1  0
  4 32  1  0
  8 33  1  0
  8 34  1  0
  9 35  1  0
  9 36  1  0
 10 37  1  0
 10 38  1  0
 11 39  1  0
 11 40  1  0
 12 41  1  6
 14 42  1  0
 15 43  1  0
 16 44  1  0
 18 45  1  0
 20 46  1  0
 21 47  1  0
 23 48  1  0
 26 49  1  0
 27 50  1  0
M  END
>  <smiles>  (10) 
O=C(NCC(=O)N1CCCCC1c1cccnc1)c1ccc2cc(F)ccc2n1

>  <score_type>  (10) 
oracle

>  <origin>  (10) 
autodockgpu

>  <m_score__min__energy>  (10) 
-8.4299999999999997

>  <m_primary>  (10) 
energy

>  <rmsd>  (10) 
2.197939714312941

>  <m_score__min__rmsd>  (10) 
2.197939714312941

>  <meeko>  (10) 
{"free_energy": -8.29, "intermolecular_energy": -9.79, "internal_energy": -1.23, "cluster_size": 22, "cluster_id": 2, "rank_in_cluster": 12}

>  <energy>  (10) 
-7.91

>  <cluster_rmsd>  (10) 
1.52

>  <cluster>  (10) 
1

$$$$

     RDKit          3D

 50 53  0  0  0  0  0  0  0  0999 V2000
  140.6640   71.4360  221.0360 O   0  0  0  0  0  0  0  0  0  0  0  0
  140.2420   71.9690  222.1180 C   0  0  0  0  0  0  0  0  0  0  0  0
  139.9160   73.3690  222.1700 N   0  0  0  0  0  0  0  0  0  0  0  0
  140.0440   74.2160  221.0260 C   0  0  0  0  0  0  0  0  0  0  0  0
  140.8610   75.4130  221.1030 C   0  0  0  0  0  0  0  0  0  0  0  0
  141.1060   75.8050  222.3210 O   0  0  0  0  0  0  0  0  0  0  0  0
  141.4240   76.2150  220.1050 N   0  0  0  0  0  0  0  0  0  0  0  0
  140.7690   77.2370  219.3190 C   0  0  0  0  0  0  0  0  0  0  0  0
  141.7380   78.3940  219.0410 C   0  0  0  0  0  0  0  0  0  0  0  0
  142.9210   77.9780  218.2340 C   0  0  0  0  0  0  0  0  0  0  0  0
  143.1410   76.5100  218.3510 C   0  0  0  0  0  0  0  0  0  0  0  0
  142.8540   76.0180  219.7710 C   0  0  2  0  0  0  0  0  0  0  0  0
  143.2290   74.5720  219.8730 C   0  0  0  0  0  0  0  0  0  0  0  0
  144.1680   74.1510  220.7990 C   0  0  0  0  0  0  0  0  0  0  0  0
  144.4760   72.7990  220.8520 C   0  0  0  0  0  0  0  0  0  0  0  0
  143.8250   71.9410  219.9680 C   0  0  0  0  0  0  0  0  0  0  0  0
  142.9160   72.4050  219.0850 N   0  0  0  0  0  0  0  0  0  0  0  0
  142.5920   73.7090  219.0060 C   0  0  0  0  0  0  0  0  0  0  0  0
  140.0770   71.1800  223.3320 C   0  0  0  0  0  0  0  0  0  0  0  0
  139.4970   69.9420  223.3150 C   0  0  0  0  0  0  0  0  0  0  0  0
  139.3320   69.1760  224.4730 C   0  0  0  0  0  0  0  0  0  0  0  0
  139.7760   69.7000  225.6660 C   0  0  0  0  0  0  0  0  0  0  0  0
  139.6520   69.0070  226.8600 C   0  0  0  0  0  0  0  0  0  0  0  0
  140.1170   69.5800  228.0430 C   0  0  0  0  0  0  0  0  0  0  0  0
  139.9770   68.8700  229.1900 F   0  0  0  0  0  0  0  0  0  0  0  0
  140.7030   70.8410  228.0300 C   0  0  0  0  0  0  0  0  0  0  0  0
  140.8300   71.5390  226.8410 C   0  0  0  0  0  0  0  0  0  0  0  0
  140.3620   70.9510  225.6780 C   0  0  0  0  0  0  0  0  0  0  0  0
  140.4950   71.6440  224.5380 N   0  0  0  0  0  0  0  0  0  0  0  0
  139.5730   73.7690  223.0930 H   0  0  0  0  0  0  0  0  0  0  0  0
  140.4601   73.5978  220.2169 H   0  0  0  0  0  0  0  0  0  0  0  0
  139.0267   74.6100  220.8851 H   0  0  0  0  0  0  0  0  0  0  0  0
  140.4368   76.8038  218.3640 H   0  0  0  0  0  0  0  0  0  0  0  0
  139.9032   77.6205  219.8787 H   0  0  0  0  0  0  0  0  0  0  0  0
  141.1981   79.1803  218.4930 H   0  0  0  0  0  0  0  0  0  0  0  0
  142.1101   78.7538  220.0116 H   0  0  0  0  0  0  0  0  0  0  0  0
  142.7480   78.2353  217.1786 H   0  0  0  0  0  0  0  0  0  0  0  0
  143.8114   78.5026  218.6108 H   0  0  0  0  0  0  0  0  0  0  0  0
  142.4722   75.9901  217.6493 H   0  0  0  0  0  0  0  0  0  0  0  0
  144.1938   76.2961  218.1148 H   0  0  0  0  0  0  0  0  0  0  0  0
  143.4515   76.5974  220.4902 H   0  0  0  0  0  0  0  0  0  0  0  0
  144.6567   74.8687  221.4744 H   0  0  0  0  0  0  0  0  0  0  0  0
  145.2137   72.4152  221.5720 H   0  0  0  0  0  0  0  0  0  0  0  0
  144.0562   70.8658  219.9902 H   0  0  0  0  0  0  0  0  0  0  0  0
  141.8496   74.0715  218.2797 H   0  0  0  0  0  0  0  0  0  0  0  0
  139.1474   69.5337  222.3553 H   0  0  0  0  0  0  0  0  0  0  0  0
  138.8608   68.1829  224.4319 H   0  0  0  0  0  0  0  0  0  0  0  0
  139.1888   68.0094  226.8742 H   0  0  0  0  0  0  0  0  0  0  0  0
  141.0671   71.2857  228.9679 H   0  0  0  0  0  0  0  0  0  0  0  0
  141.2918   72.5372  226.8208 H   0  0  0  0  0  0  0  0  0  0  0  0
  1  2  2  0
  2  3  1  0
  3  4  1  0
  4  5  1  0
  5  6  2  0
  5  7  1  0
  7  8  1  0
  8  9  1  0
  9 10  1  0
 10 11  1  0
 11 12  1  0
 12 13  1  0
 13 14  2  0
 14 15  1  0
 15 16  2  0
 16 17  1  0
 17 18  2  0
  2 19  1  0
 19 20  2  0
 20 21  1  0
 21 22  2  0
 22 23  1  0
 23 24  2  0
 24 25  1  0
 24 26  1  0
 26 27  2  0
 27 28  1  0
 28 29  2  0
 12  7  1  0
 18 13  1  0
 29 19  1  0
 28 22  1  0
  3 30  1  0
  4 31  1  0
  4 32  1  0
  8 33  1  0
  8 34  1  0
  9 35  1  0
  9 36  1  0
 10 37  1  0
 10 38  1  0
 11 39  1  0
 11 40  1  0
 12 41  1  1
 14 42  1  0
 15 43  1  0
 16 44  1  0
 18 45  1  0
 20 46  1  0
 21 47  1  0
 23 48  1  0
 26 49  1  0
 27 50  1  0
M  END
>  <smiles>  (11) 
O=C(NCC(=O)N1CCCCC1c1cccnc1)c1ccc2cc(F)ccc2n1

>  <score_type>  (11) 
oracle

>  <origin>  (11) 
autodockgpu

>  <m_score__min__energy>  (11) 
-8.4299999999999997

>  <m_primary>  (11) 
energy

>  <rmsd>  (11) 
1.9673754587013794

>  <m_score__min__rmsd>  (11) 
1.9673754587013794

>  <meeko>  (11) 
{"free_energy": -7.75, "intermolecular_energy": -9.24, "internal_energy": -1.85, "cluster_size": 22, "cluster_id": 1, "rank_in_cluster": 16}

>  <energy>  (11) 
-7.89

>  <cluster_rmsd>  (11) 
1.41

>  <cluster>  (11) 
1

$$$$

     RDKit          3D

 50 53  0  0  0  0  0  0  0  0999 V2000
  141.3950   72.3240  221.5410 O   0  0  0  0  0  0  0  0  0  0  0  0
  140.4530   72.5300  222.3800 C   0  0  0  0  0  0  0  0  0  0  0  0
  139.5850   73.6690  222.2480 N   0  0  0  0  0  0  0  0  0  0  0  0
  139.7320   74.6080  221.1810 C   0  0  0  0  0  0  0  0  0  0  0  0
  140.8480   75.5370  221.1870 C   0  0  0  0  0  0  0  0  0  0  0  0
  141.4100   75.6760  222.3540 O   0  0  0  0  0  0  0  0  0  0  0  0
  141.4180   76.3050  220.1670 N   0  0  0  0  0  0  0  0  0  0  0  0
  142.3920   75.8850  219.1840 C   0  0  0  0  0  0  0  0  0  0  0  0
  142.1260   76.5800  217.8420 C   0  0  0  0  0  0  0  0  0  0  0  0
  142.2610   78.0620  217.9190 C   0  0  0  0  0  0  0  0  0  0  0  0
  142.0960   78.5280  219.3240 C   0  0  0  0  0  0  0  0  0  0  0  0
  141.0140   77.7260  220.0500 C   0  0  2  0  0  0  0  0  0  0  0  0
  140.7860   78.3250  221.4030 C   0  0  0  0  0  0  0  0  0  0  0  0
  141.8500   78.7990  222.1520 C   0  0  0  0  0  0  0  0  0  0  0  0
  141.5820   79.3460  223.3990 C   0  0  0  0  0  0  0  0  0  0  0  0
  140.2570   79.3880  223.8280 C   0  0  0  0  0  0  0  0  0  0  0  0
  139.2580   78.9120  223.0560 N   0  0  0  0  0  0  0  0  0  0  0  0
  139.4790   78.3750  221.8430 C   0  0  0  0  0  0  0  0  0  0  0  0
  140.2270   71.6210  223.4960 C   0  0  0  0  0  0  0  0  0  0  0  0
  139.5280   70.4550  223.3470 C   0  0  0  0  0  0  0  0  0  0  0  0
  139.3040   69.5750  224.4110 C   0  0  0  0  0  0  0  0  0  0  0  0
  139.8130   69.9080  225.6460 C   0  0  0  0  0  0  0  0  0  0  0  0
  139.6370   69.0920  226.7530 C   0  0  0  0  0  0  0  0  0  0  0  0
  140.1710   69.4710  227.9830 C   0  0  0  0  0  0  0  0  0  0  0  0
  139.9770   68.6460  229.0420 F   0  0  0  0  0  0  0  0  0  0  0  0
  140.8770   70.6630  228.1050 C   0  0  0  0  0  0  0  0  0  0  0  0
  141.0570   71.4820  227.0030 C   0  0  0  0  0  0  0  0  0  0  0  0
  140.5180   71.0860  225.7910 C   0  0  0  0  0  0  0  0  0  0  0  0
  140.7040   71.8950  224.7370 N   0  0  0  0  0  0  0  0  0  0  0  0
  138.8180   73.8010  222.9710 H   0  0  0  0  0  0  0  0  0  0  0  0
  139.8078   74.0248  220.2514 H   0  0  0  0  0  0  0  0  0  0  0  0
  138.8547   75.2619  221.2935 H   0  0  0  0  0  0  0  0  0  0  0  0
  143.4002   76.1489  219.5360 H   0  0  0  0  0  0  0  0  0  0  0  0
  142.3148   74.7965  219.0454 H   0  0  0  0  0  0  0  0  0  0  0  0
  142.8453   76.2002  217.1015 H   0  0  0  0  0  0  0  0  0  0  0  0
  141.0874   76.3578  217.5557 H   0  0  0  0  0  0  0  0  0  0  0  0
  143.2571   78.3542  217.5552 H   0  0  0  0  0  0  0  0  0  0  0  0
  141.4800   78.5234  217.2969 H   0  0  0  0  0  0  0  0  0  0  0  0
  143.0507   78.4065  219.8567 H   0  0  0  0  0  0  0  0  0  0  0  0
  141.7930   79.5853  219.3068 H   0  0  0  0  0  0  0  0  0  0  0  0
  140.0773   77.7652  219.4747 H   0  0  0  0  0  0  0  0  0  0  0  0
  142.8797   78.7435  221.7689 H   0  0  0  0  0  0  0  0  0  0  0  0
  142.3933   79.7357  224.0313 H   0  0  0  0  0  0  0  0  0  0  0  0
  140.0213   79.8167  224.8132 H   0  0  0  0  0  0  0  0  0  0  0  0
  138.6522   77.9915  221.2271 H   0  0  0  0  0  0  0  0  0  0  0  0
  139.1275   70.2000  222.3547 H   0  0  0  0  0  0  0  0  0  0  0  0
  138.7373   68.6435  224.2651 H   0  0  0  0  0  0  0  0  0  0  0  0
  139.0780   68.1491  226.6607 H   0  0  0  0  0  0  0  0  0  0  0  0
  141.2937   70.9561  229.0799 H   0  0  0  0  0  0  0  0  0  0  0  0
  141.6156   72.4257  227.0888 H   0  0  0  0  0  0  0  0  0  0  0  0
  1  2  2  0
  2  3  1  0
  3  4  1  0
  4  5  1  0
  5  6  2  0
  5  7  1  0
  7  8  1  0
  8  9  1  0
  9 10  1  0
 10 11  1  0
 11 12  1  0
 12 13  1  0
 13 14  2  0
 14 15  1  0
 15 16  2  0
 16 17  1  0
 17 18  2  0
  2 19  1  0
 19 20  2  0
 20 21  1  0
 21 22  2  0
 22 23  1  0
 23 24  2  0
 24 25  1  0
 24 26  1  0
 26 27  2  0
 27 28  1  0
 28 29  2  0
 12  7  1  0
 18 13  1  0
 29 19  1  0
 28 22  1  0
  3 30  1  0
  4 31  1  0
  4 32  1  0
  8 33  1  0
  8 34  1  0
  9 35  1  0
  9 36  1  0
 10 37  1  0
 10 38  1  0
 11 39  1  0
 11 40  1  0
 12 41  1  6
 14 42  1  0
 15 43  1  0
 16 44  1  0
 18 45  1  0
 20 46  1  0
 21 47  1  0
 23 48  1  0
 26 49  1  0
 27 50  1  0
M  END
>  <smiles>  (12) 
O=C(NCC(=O)N1CCCCC1c1cccnc1)c1ccc2cc(F)ccc2n1

>  <score_type>  (12) 
oracle

>  <origin>  (12) 
autodockgpu

>  <m_score__min__energy>  (12) 
-8.4299999999999997

>  <m_primary>  (12) 
energy

>  <rmsd>  (12) 
1.981030745011466

>  <m_score__min__rmsd>  (12) 
1.981030745011466

>  <meeko>  (12) 
{"free_energy": -8.36, "intermolecular_energy": -9.85, "internal_energy": -1.27, "cluster_size": 22, "cluster_id": 2, "rank_in_cluster": 4}

>  <energy>  (12) 
-7.88

>  <cluster_rmsd>  (12) 
0.8

>  <cluster>  (12) 
1

$$$$

     RDKit          3D

 50 53  0  0  0  0  0  0  0  0999 V2000
  140.7070   71.8310  221.0260 O   0  0  0  0  0  0  0  0  0  0  0  0
  140.2610   72.3210  222.1200 C   0  0  0  0  0  0  0  0  0  0  0  0
  139.9190   73.7150  222.2160 N   0  0  0  0  0  0  0  0  0  0  0  0
  140.0570   74.6030  221.1050 C   0  0  0  0  0  0  0  0  0  0  0  0
  141.0260   75.6830  221.1620 C   0  0  0  0  0  0  0  0  0  0  0  0
  141.4440   75.9520  222.3660 O   0  0  0  0  0  0  0  0  0  0  0  0
  141.5810   76.4810  220.1570 N   0  0  0  0  0  0  0  0  0  0  0  0
  142.5960   76.1120  219.1940 C   0  0  0  0  0  0  0  0  0  0  0  0
  142.3260   76.7990  217.8490 C   0  0  0  0  0  0  0  0  0  0  0  0
  142.3900   78.2860  217.9340 C   0  0  0  0  0  0  0  0  0  0  0  0
  142.1720   78.7380  219.3360 C   0  0  0  0  0  0  0  0  0  0  0  0
  141.1130   77.8820  220.0350 C   0  0  2  0  0  0  0  0  0  0  0  0
  140.8280   78.4650  221.3850 C   0  0  0  0  0  0  0  0  0  0  0  0
  139.5370   78.4780  221.8870 C   0  0  0  0  0  0  0  0  0  0  0  0
  139.3290   79.0290  223.1440 C   0  0  0  0  0  0  0  0  0  0  0  0
  140.4300   79.5380  223.8290 C   0  0  0  0  0  0  0  0  0  0  0  0
  141.6670   79.4990  223.2930 N   0  0  0  0  0  0  0  0  0  0  0  0
  141.9070   78.9730  222.0770 C   0  0  0  0  0  0  0  0  0  0  0  0
  140.0840   71.4880  223.3010 C   0  0  0  0  0  0  0  0  0  0  0  0
  139.4740   70.2660  223.2380 C   0  0  0  0  0  0  0  0  0  0  0  0
  139.2980   69.4570  224.3660 C   0  0  0  0  0  0  0  0  0  0  0  0
  139.7610   69.9220  225.5760 C   0  0  0  0  0  0  0  0  0  0  0  0
  139.6270   69.1840  226.7420 C   0  0  0  0  0  0  0  0  0  0  0  0
  140.1120   69.6970  227.9430 C   0  0  0  0  0  0  0  0  0  0  0  0
  139.9620   68.9440  229.0620 F   0  0  0  0  0  0  0  0  0  0  0  0
  140.7280   70.9430  227.9780 C   0  0  0  0  0  0  0  0  0  0  0  0
  140.8650   71.6850  226.8170 C   0  0  0  0  0  0  0  0  0  0  0  0
  140.3760   71.1570  225.6340 C   0  0  0  0  0  0  0  0  0  0  0  0
  140.5200   71.8920  224.5220 N   0  0  0  0  0  0  0  0  0  0  0  0
  139.5570   74.0780  223.1460 H   0  0  0  0  0  0  0  0  0  0  0  0
  140.3193   73.9850  220.2336 H   0  0  0  0  0  0  0  0  0  0  0  0
  139.0907   75.1278  221.0756 H   0  0  0  0  0  0  0  0  0  0  0  0
  143.5824   76.4225  219.5689 H   0  0  0  0  0  0  0  0  0  0  0  0
  142.5746   75.0216  219.0504 H   0  0  0  0  0  0  0  0  0  0  0  0
  143.0777   76.4563  217.1227 H   0  0  0  0  0  0  0  0  0  0  0  0
  141.3053   76.5296  217.5397 H   0  0  0  0  0  0  0  0  0  0  0  0
  143.3793   78.6258  217.5938 H   0  0  0  0  0  0  0  0  0  0  0  0
  141.6023   78.7131  217.2959 H   0  0  0  0  0  0  0  0  0  0  0  0
  143.1193   78.6598  219.8896 H   0  0  0  0  0  0  0  0  0  0  0  0
  141.8198   79.7799  219.3154 H   0  0  0  0  0  0  0  0  0  0  0  0
  140.1885   77.8784  219.4390 H   0  0  0  0  0  0  0  0  0  0  0  0
  138.7001   78.0633  221.3059 H   0  0  0  0  0  0  0  0  0  0  0  0
  138.3227   79.0628  223.5869 H   0  0  0  0  0  0  0  0  0  0  0  0
  140.2878   79.9802  224.8261 H   0  0  0  0  0  0  0  0  0  0  0  0
  142.9218   78.9495  221.6532 H   0  0  0  0  0  0  0  0  0  0  0  0
  139.1083   69.9057  222.2651 H   0  0  0  0  0  0  0  0  0  0  0  0
  138.8038   68.4774  224.2880 H   0  0  0  0  0  0  0  0  0  0  0  0
  139.1400   68.1980  226.7189 H   0  0  0  0  0  0  0  0  0  0  0  0
  141.1076   71.3405  228.9308 H   0  0  0  0  0  0  0  0  0  0  0  0
  141.3513   72.6715  226.8341 H   0  0  0  0  0  0  0  0  0  0  0  0
  1  2  2  0
  2  3  1  0
  3  4  1  0
  4  5  1  0
  5  6  2  0
  5  7  1  0
  7  8  1  0
  8  9  1  0
  9 10  1  0
 10 11  1  0
 11 12  1  0
 12 13  1  0
 13 14  2  0
 14 15  1  0
 15 16  2  0
 16 17  1  0
 17 18  2  0
  2 19  1  0
 19 20  2  0
 20 21  1  0
 21 22  2  0
 22 23  1  0
 23 24  2  0
 24 25  1  0
 24 26  1  0
 26 27  2  0
 27 28  1  0
 28 29  2  0
 12  7  1  0
 18 13  1  0
 29 19  1  0
 28 22  1  0
  3 30  1  0
  4 31  1  0
  4 32  1  0
  8 33  1  0
  8 34  1  0
  9 35  1  0
  9 36  1  0
 10 37  1  0
 10 38  1  0
 11 39  1  0
 11 40  1  0
 12 41  1  6
 14 42  1  0
 15 43  1  0
 16 44  1  0
 18 45  1  0
 20 46  1  0
 21 47  1  0
 23 48  1  0
 26 49  1  0
 27 50  1  0
M  END
>  <smiles>  (13) 
O=C(NCC(=O)N1CCCCC1c1cccnc1)c1ccc2cc(F)ccc2n1

>  <score_type>  (13) 
oracle

>  <origin>  (13) 
autodockgpu

>  <m_score__min__energy>  (13) 
-8.4299999999999997

>  <m_primary>  (13) 
energy

>  <rmsd>  (13) 
2.069216445572722

>  <m_score__min__rmsd>  (13) 
2.069216445572722

>  <meeko>  (13) 
{"free_energy": -8.12, "intermolecular_energy": -9.61, "internal_energy": -1.35, "cluster_size": 22, "cluster_id": 2, "rank_in_cluster": 22}

>  <energy>  (13) 
-7.84

>  <cluster_rmsd>  (13) 
1.39

>  <cluster>  (13) 
1

$$$$

     RDKit          3D

 50 53  0  0  0  0  0  0  0  0999 V2000
  141.4580   72.3080  221.5580 O   0  0  0  0  0  0  0  0  0  0  0  0
  140.5020   72.5110  222.3820 C   0  0  0  0  0  0  0  0  0  0  0  0
  139.6280   73.6430  222.2300 N   0  0  0  0  0  0  0  0  0  0  0  0
  139.7840   74.5780  221.1600 C   0  0  0  0  0  0  0  0  0  0  0  0
  140.9010   75.5060  221.1720 C   0  0  0  0  0  0  0  0  0  0  0  0
  141.4480   75.6560  222.3450 O   0  0  0  0  0  0  0  0  0  0  0  0
  141.4850   76.2630  220.1520 N   0  0  0  0  0  0  0  0  0  0  0  0
  142.4560   75.8270  219.1730 C   0  0  0  0  0  0  0  0  0  0  0  0
  142.2040   76.5220  217.8280 C   0  0  0  0  0  0  0  0  0  0  0  0
  142.3610   78.0030  217.9020 C   0  0  0  0  0  0  0  0  0  0  0  0
  142.1990   78.4740  219.3060 C   0  0  0  0  0  0  0  0  0  0  0  0
  141.1030   77.6900  220.0300 C   0  0  2  0  0  0  0  0  0  0  0  0
  140.8800   78.2960  221.3810 C   0  0  0  0  0  0  0  0  0  0  0  0
  141.9500   78.7430  222.1380 C   0  0  0  0  0  0  0  0  0  0  0  0
  141.6870   79.2970  223.3820 C   0  0  0  0  0  0  0  0  0  0  0  0
  140.3600   79.3720  223.8010 C   0  0  0  0  0  0  0  0  0  0  0  0
  139.3540   78.9220  223.0230 N   0  0  0  0  0  0  0  0  0  0  0  0
  139.5720   78.3790  221.8110 C   0  0  0  0  0  0  0  0  0  0  0  0
  140.2660   71.6070  223.4990 C   0  0  0  0  0  0  0  0  0  0  0  0
  139.5720   70.4380  223.3470 C   0  0  0  0  0  0  0  0  0  0  0  0
  139.3380   69.5620  224.4120 C   0  0  0  0  0  0  0  0  0  0  0  0
  139.8320   69.9020  225.6520 C   0  0  0  0  0  0  0  0  0  0  0  0
  139.6450   69.0900  226.7600 C   0  0  0  0  0  0  0  0  0  0  0  0
  140.1640   69.4760  227.9940 C   0  0  0  0  0  0  0  0  0  0  0  0
  139.9600   68.6550  229.0540 F   0  0  0  0  0  0  0  0  0  0  0  0
  140.8660   70.6700  228.1190 C   0  0  0  0  0  0  0  0  0  0  0  0
  141.0560   71.4860  227.0160 C   0  0  0  0  0  0  0  0  0  0  0  0
  140.5320   71.0830  225.7990 C   0  0  0  0  0  0  0  0  0  0  0  0
  140.7280   71.8870  224.7450 N   0  0  0  0  0  0  0  0  0  0  0  0
  138.8500   73.7740  222.9410 H   0  0  0  0  0  0  0  0  0  0  0  0
  139.8668   73.9912  220.2333 H   0  0  0  0  0  0  0  0  0  0  0  0
  138.9061   75.2329  221.2623 H   0  0  0  0  0  0  0  0  0  0  0  0
  143.4667   76.0778  219.5275 H   0  0  0  0  0  0  0  0  0  0  0  0
  142.3639   74.7393  219.0370 H   0  0  0  0  0  0  0  0  0  0  0  0
  142.9196   76.1295  217.0906 H   0  0  0  0  0  0  0  0  0  0  0  0
  141.1632   76.3143  217.5389 H   0  0  0  0  0  0  0  0  0  0  0  0
  143.3623   78.2796  217.5404 H   0  0  0  0  0  0  0  0  0  0  0  0
  141.5889   78.4749  217.2765 H   0  0  0  0  0  0  0  0  0  0  0  0
  143.1502   78.3389  219.8417 H   0  0  0  0  0  0  0  0  0  0  0  0
  141.9122   79.5358  219.2861 H   0  0  0  0  0  0  0  0  0  0  0  0
  140.1689   77.7415  219.4513 H   0  0  0  0  0  0  0  0  0  0  0  0
  142.9808   78.6609  221.7628 H   0  0  0  0  0  0  0  0  0  0  0  0
  142.5031   79.6669  224.0201 H   0  0  0  0  0  0  0  0  0  0  0  0
  140.1285   79.8064  224.7847 H   0  0  0  0  0  0  0  0  0  0  0  0
  138.7408   78.0161  221.1886 H   0  0  0  0  0  0  0  0  0  0  0  0
  139.1840   70.1775  222.3512 H   0  0  0  0  0  0  0  0  0  0  0  0
  138.7756   68.6284  224.2636 H   0  0  0  0  0  0  0  0  0  0  0  0
  139.0894   68.1453  226.6653 H   0  0  0  0  0  0  0  0  0  0  0  0
  141.2718   70.9674  229.0972 H   0  0  0  0  0  0  0  0  0  0  0  0
  141.6102   72.4321  227.1046 H   0  0  0  0  0  0  0  0  0  0  0  0
  1  2  2  0
  2  3  1  0
  3  4  1  0
  4  5  1  0
  5  6  2  0
  5  7  1  0
  7  8  1  0
  8  9  1  0
  9 10  1  0
 10 11  1  0
 11 12  1  0
 12 13  1  0
 13 14  2  0
 14 15  1  0
 15 16  2  0
 16 17  1  0
 17 18  2  0
  2 19  1  0
 19 20  2  0
 20 21  1  0
 21 22  2  0
 22 23  1  0
 23 24  2  0
 24 25  1  0
 24 26  1  0
 26 27  2  0
 27 28  1  0
 28 29  2  0
 12  7  1  0
 18 13  1  0
 29 19  1  0
 28 22  1  0
  3 30  1  0
  4 31  1  0
  4 32  1  0
  8 33  1  0
  8 34  1  0
  9 35  1  0
  9 36  1  0
 10 37  1  0
 10 38  1  0
 11 39  1  0
 11 40  1  0
 12 41  1  6
 14 42  1  0
 15 43  1  0
 16 44  1  0
 18 45  1  0
 20 46  1  0
 21 47  1  0
 23 48  1  0
 26 49  1  0
 27 50  1  0
M  END
>  <smiles>  (14) 
O=C(NCC(=O)N1CCCCC1c1cccnc1)c1ccc2cc(F)ccc2n1

>  <score_type>  (14) 
oracle

>  <origin>  (14) 
autodockgpu

>  <m_score__min__energy>  (14) 
-8.4299999999999997

>  <m_primary>  (14) 
energy

>  <rmsd>  (14) 
1.9965945986792109

>  <m_score__min__rmsd>  (14) 
1.9965945986792109

>  <meeko>  (14) 
{"free_energy": -8.35, "intermolecular_energy": -9.84, "internal_energy": -1.27, "cluster_size": 22, "cluster_id": 2, "rank_in_cluster": 6}

>  <energy>  (14) 
-7.83

>  <cluster_rmsd>  (14) 
1.44

>  <cluster>  (14) 
1

$$$$

     RDKit          3D

 50 53  0  0  0  0  0  0  0  0999 V2000
  140.3960   71.4620  220.9900 O   0  0  0  0  0  0  0  0  0  0  0  0
  140.0840   71.9660  222.1230 C   0  0  0  0  0  0  0  0  0  0  0  0
  139.8240   73.3750  222.2540 N   0  0  0  0  0  0  0  0  0  0  0  0
  139.8980   74.2630  221.1370 C   0  0  0  0  0  0  0  0  0  0  0  0
  140.9010   75.3130  221.1170 C   0  0  0  0  0  0  0  0  0  0  0  0
  141.3510   75.6340  222.2960 O   0  0  0  0  0  0  0  0  0  0  0  0
  141.4610   76.0370  220.0590 N   0  0  0  0  0  0  0  0  0  0  0  0
  140.7990   76.9810  219.1860 C   0  0  0  0  0  0  0  0  0  0  0  0
  141.7550   78.1240  218.8190 C   0  0  0  0  0  0  0  0  0  0  0  0
  142.9500   77.6590  218.0580 C   0  0  0  0  0  0  0  0  0  0  0  0
  143.1880   76.2090  218.2980 C   0  0  0  0  0  0  0  0  0  0  0  0
  142.8970   75.8330  219.7520 C   0  0  2  0  0  0  0  0  0  0  0  0
  143.2890   74.4050  219.9760 C   0  0  0  0  0  0  0  0  0  0  0  0
  142.5890   73.3780  219.3650 C   0  0  0  0  0  0  0  0  0  0  0  0
  142.9960   72.0740  219.6060 C   0  0  0  0  0  0  0  0  0  0  0  0
  144.0870   71.8700  220.4500 C   0  0  0  0  0  0  0  0  0  0  0  0
  144.7340   72.9080  221.0180 N   0  0  0  0  0  0  0  0  0  0  0  0
  144.3670   74.1860  220.8080 C   0  0  0  0  0  0  0  0  0  0  0  0
  139.9800   71.1350  223.3140 C   0  0  0  0  0  0  0  0  0  0  0  0
  139.4570   69.8730  223.2700 C   0  0  0  0  0  0  0  0  0  0  0  0
  139.3510   69.0650  224.4080 C   0  0  0  0  0  0  0  0  0  0  0  0
  139.7960   69.5740  225.6070 C   0  0  0  0  0  0  0  0  0  0  0  0
  139.7290   68.8400  226.7810 C   0  0  0  0  0  0  0  0  0  0  0  0
  140.1920   69.3980  227.9720 C   0  0  0  0  0  0  0  0  0  0  0  0
  140.1080   68.6480  229.0990 F   0  0  0  0  0  0  0  0  0  0  0  0
  140.7190   70.6840  227.9870 C   0  0  0  0  0  0  0  0  0  0  0  0
  140.7890   71.4220  226.8170 C   0  0  0  0  0  0  0  0  0  0  0  0
  140.3240   70.8490  225.6460 C   0  0  0  0  0  0  0  0  0  0  0  0
  140.4010   71.5810  224.5250 N   0  0  0  0  0  0  0  0  0  0  0  0
  139.5720   73.7500  223.2160 H   0  0  0  0  0  0  0  0  0  0  0  0
  140.0696   73.6411  220.2461 H   0  0  0  0  0  0  0  0  0  0  0  0
  138.9489   74.8168  221.1871 H   0  0  0  0  0  0  0  0  0  0  0  0
  140.4801   76.4652  218.2683 H   0  0  0  0  0  0  0  0  0  0  0  0
  139.9239   77.3980  219.7059 H   0  0  0  0  0  0  0  0  0  0  0  0
  141.2092   78.8542  218.2035 H   0  0  0  0  0  0  0  0  0  0  0  0
  142.1145   78.5684  219.7588 H   0  0  0  0  0  0  0  0  0  0  0  0
  142.7826   77.8256  216.9837 H   0  0  0  0  0  0  0  0  0  0  0  0
  143.8303   78.2252  218.3964 H   0  0  0  0  0  0  0  0  0  0  0  0
  142.5311   75.6236  217.6378 H   0  0  0  0  0  0  0  0  0  0  0  0
  144.2452   75.9903  218.0869 H   0  0  0  0  0  0  0  0  0  0  0  0
  143.4817   76.4782  220.4241 H   0  0  0  0  0  0  0  0  0  0  0  0
  141.7338   73.5905  218.7067 H   0  0  0  0  0  0  0  0  0  0  0  0
  142.4724   71.2241  219.1439 H   0  0  0  0  0  0  0  0  0  0  0  0
  144.4260   70.8441  220.6562 H   0  0  0  0  0  0  0  0  0  0  0  0
  144.9047   75.0212  221.2805 H   0  0  0  0  0  0  0  0  0  0  0  0
  139.1066   69.4779  222.3051 H   0  0  0  0  0  0  0  0  0  0  0  0
  138.9246   68.0529  224.3460 H   0  0  0  0  0  0  0  0  0  0  0  0
  139.3125   67.8219  226.7731 H   0  0  0  0  0  0  0  0  0  0  0  0
  141.0816   71.1170  228.9309 H   0  0  0  0  0  0  0  0  0  0  0  0
  141.2047   72.4404  226.8184 H   0  0  0  0  0  0  0  0  0  0  0  0
  1  2  2  0
  2  3  1  0
  3  4  1  0
  4  5  1  0
  5  6  2  0
  5  7  1  0
  7  8  1  0
  8  9  1  0
  9 10  1  0
 10 11  1  0
 11 12  1  0
 12 13  1  0
 13 14  2  0
 14 15  1  0
 15 16  2  0
 16 17  1  0
 17 18  2  0
  2 19  1  0
 19 20  2  0
 20 21  1  0
 21 22  2  0
 22 23  1  0
 23 24  2  0
 24 25  1  0
 24 26  1  0
 26 27  2  0
 27 28  1  0
 28 29  2  0
 12  7  1  0
 18 13  1  0
 29 19  1  0
 28 22  1  0
  3 30  1  0
  4 31  1  0
  4 32  1  0
  8 33  1  0
  8 34  1  0
  9 35  1  0
  9 36  1  0
 10 37  1  0
 10 38  1  0
 11 39  1  0
 11 40  1  0
 12 41  1  1
 14 42  1  0
 15 43  1  0
 16 44  1  0
 18 45  1  0
 20 46  1  0
 21 47  1  0
 23 48  1  0
 26 49  1  0
 27 50  1  0
M  END
>  <smiles>  (15) 
O=C(NCC(=O)N1CCCCC1c1cccnc1)c1ccc2cc(F)ccc2n1

>  <score_type>  (15) 
oracle

>  <origin>  (15) 
autodockgpu

>  <m_score__min__energy>  (15) 
-8.4299999999999997

>  <m_primary>  (15) 
energy

>  <rmsd>  (15) 
1.884634710544101

>  <m_score__min__rmsd>  (15) 
1.884634710544101

>  <meeko>  (15) 
{"free_energy": -7.65, "intermolecular_energy": -9.14, "internal_energy": -1.81, "cluster_size": 22, "cluster_id": 1, "rank_in_cluster": 19}

>  <energy>  (15) 
-7.77

>  <cluster_rmsd>  (15) 
1.42

>  <cluster>  (15) 
1

$$$$

     RDKit          3D

 50 53  0  0  0  0  0  0  0  0999 V2000
  139.7140   70.9010  220.8920 O   0  0  0  0  0  0  0  0  0  0  0  0
  140.0850   71.4480  221.9860 C   0  0  0  0  0  0  0  0  0  0  0  0
  140.6640   72.7650  221.9910 N   0  0  0  0  0  0  0  0  0  0  0  0
  140.8460   73.5130  220.7870 C   0  0  0  0  0  0  0  0  0  0  0  0
  141.2990   74.8910  220.8560 C   0  0  0  0  0  0  0  0  0  0  0  0
  141.3480   75.3680  222.0670 O   0  0  0  0  0  0  0  0  0  0  0  0
  141.6840   75.7880  219.8550 N   0  0  0  0  0  0  0  0  0  0  0  0
  140.8300   76.6100  219.0280 C   0  0  0  0  0  0  0  0  0  0  0  0
  141.5000   77.9620  218.7500 C   0  0  0  0  0  0  0  0  0  0  0  0
  142.7750   77.8310  217.9870 C   0  0  0  0  0  0  0  0  0  0  0  0
  143.3370   76.4620  218.1440 C   0  0  0  0  0  0  0  0  0  0  0  0
  143.1310   75.9380  219.5670 C   0  0  2  0  0  0  0  0  0  0  0  0
  143.8380   74.6260  219.7130 C   0  0  0  0  0  0  0  0  0  0  0  0
  143.4850   73.5440  218.9250 C   0  0  0  0  0  0  0  0  0  0  0  0
  144.1750   72.3530  219.1000 C   0  0  0  0  0  0  0  0  0  0  0  0
  145.1840   72.3120  220.0610 C   0  0  0  0  0  0  0  0  0  0  0  0
  145.4880   73.3980  220.8010 N   0  0  0  0  0  0  0  0  0  0  0  0
  144.8410   74.5690  220.6590 C   0  0  0  0  0  0  0  0  0  0  0  0
  139.9330   70.7600  223.2610 C   0  0  0  0  0  0  0  0  0  0  0  0
  139.2970   69.5540  223.3590 C   0  0  0  0  0  0  0  0  0  0  0  0
  139.1450   68.8840  224.5780 C   0  0  0  0  0  0  0  0  0  0  0  0
  139.6610   69.4730  225.7100 C   0  0  0  0  0  0  0  0  0  0  0  0
  139.5540   68.8770  226.9570 C   0  0  0  0  0  0  0  0  0  0  0  0
  140.0910   69.5120  228.0750 C   0  0  0  0  0  0  0  0  0  0  0  0
  139.9650   68.8970  229.2770 F   0  0  0  0  0  0  0  0  0  0  0  0
  140.7320   70.7390  227.9450 C   0  0  0  0  0  0  0  0  0  0  0  0
  140.8430   71.3400  226.7030 C   0  0  0  0  0  0  0  0  0  0  0  0
  140.3020   70.6920  225.6060 C   0  0  0  0  0  0  0  0  0  0  0  0
  140.4200   71.2910  224.4120 N   0  0  0  0  0  0  0  0  0  0  0  0
  140.9610   73.1770  222.9240 H   0  0  0  0  0  0  0  0  0  0  0  0
  141.5820   72.9656  220.1799 H   0  0  0  0  0  0  0  0  0  0  0  0
  139.8264   73.5992  220.3832 H   0  0  0  0  0  0  0  0  0  0  0  0
  140.6432   76.0946  218.0743 H   0  0  0  0  0  0  0  0  0  0  0  0
  139.8801   76.7829  219.5551 H   0  0  0  0  0  0  0  0  0  0  0  0
  140.8050   78.5853  218.1682 H   0  0  0  0  0  0  0  0  0  0  0  0
  141.7417   78.4171  219.7218 H   0  0  0  0  0  0  0  0  0  0  0  0
  142.5807   78.0227  216.9214 H   0  0  0  0  0  0  0  0  0  0  0  0
  143.5000   78.5605  218.3770 H   0  0  0  0  0  0  0  0  0  0  0  0
  142.8356   75.7852  217.4365 H   0  0  0  0  0  0  0  0  0  0  0  0
  144.4174   76.5042  217.9418 H   0  0  0  0  0  0  0  0  0  0  0  0
  143.5482   76.6558  220.2886 H   0  0  0  0  0  0  0  0  0  0  0  0
  142.6795   73.6262  218.1804 H   0  0  0  0  0  0  0  0  0  0  0  0
  143.9325   71.4655  218.4970 H   0  0  0  0  0  0  0  0  0  0  0  0
  145.7422   71.3774  220.2187 H   0  0  0  0  0  0  0  0  0  0  0  0
  145.1008   75.4448  221.2717 H   0  0  0  0  0  0  0  0  0  0  0  0
  138.8900   69.0936  222.4466 H   0  0  0  0  0  0  0  0  0  0  0  0
  138.6280   67.9145  224.6301 H   0  0  0  0  0  0  0  0  0  0  0  0
  139.0471   67.9066  227.0635 H   0  0  0  0  0  0  0  0  0  0  0  0
  141.1526   71.2341  228.8327 H   0  0  0  0  0  0  0  0  0  0  0  0
  141.3494   72.3100  226.5904 H   0  0  0  0  0  0  0  0  0  0  0  0
  1  2  2  0
  2  3  1  0
  3  4  1  0
  4  5  1  0
  5  6  2  0
  5  7  1  0
  7  8  1  0
  8  9  1  0
  9 10  1  0
 10 11  1  0
 11 12  1  0
 12 13  1  0
 13 14  2  0
 14 15  1  0
 15 16  2  0
 16 17  1  0
 17 18  2  0
  2 19  1  0
 19 20  2  0
 20 21  1  0
 21 22  2  0
 22 23  1  0
 23 24  2  0
 24 25  1  0
 24 26  1  0
 26 27  2  0
 27 28  1  0
 28 29  2  0
 12  7  1  0
 18 13  1  0
 29 19  1  0
 28 22  1  0
  3 30  1  0
  4 31  1  0
  4 32  1  0
  8 33  1  0
  8 34  1  0
  9 35  1  0
  9 36  1  0
 10 37  1  0
 10 38  1  0
 11 39  1  0
 11 40  1  0
 12 41  1  1
 14 42  1  0
 15 43  1  0
 16 44  1  0
 18 45  1  0
 20 46  1  0
 21 47  1  0
 23 48  1  0
 26 49  1  0
 27 50  1  0
M  END
>  <smiles>  (16) 
O=C(NCC(=O)N1CCCCC1c1cccnc1)c1ccc2cc(F)ccc2n1

>  <score_type>  (16) 
oracle

>  <origin>  (16) 
autodockgpu

>  <m_score__min__energy>  (16) 
-8.4299999999999997

>  <m_primary>  (16) 
energy

>  <rmsd>  (16) 
1.9886127880648046

>  <m_score__min__rmsd>  (16) 
1.9886127880648046

>  <meeko>  (16) 
{"free_energy": -7.17, "intermolecular_energy": -8.66, "internal_energy": -1.96, "cluster_size": 22, "cluster_id": 1, "rank_in_cluster": 22}

>  <energy>  (16) 
-7.75

>  <cluster_rmsd>  (16) 
1.45

>  <cluster>  (16) 
1

$$$$

     RDKit          3D

 50 53  0  0  0  0  0  0  0  0999 V2000
  141.3120   72.2790  221.4720 O   0  0  0  0  0  0  0  0  0  0  0  0
  140.4110   72.5100  222.3490 C   0  0  0  0  0  0  0  0  0  0  0  0
  139.5750   73.6770  222.2560 N   0  0  0  0  0  0  0  0  0  0  0  0
  139.7110   74.6180  221.1890 C   0  0  0  0  0  0  0  0  0  0  0  0
  140.8420   75.5280  221.1700 C   0  0  0  0  0  0  0  0  0  0  0  0
  141.4180   75.6760  222.3290 O   0  0  0  0  0  0  0  0  0  0  0  0
  141.4140   76.2710  220.1320 N   0  0  0  0  0  0  0  0  0  0  0  0
  142.3530   75.8140  219.1320 C   0  0  0  0  0  0  0  0  0  0  0  0
  142.0790   76.5080  217.7910 C   0  0  0  0  0  0  0  0  0  0  0  0
  142.2650   77.9860  217.8550 C   0  0  0  0  0  0  0  0  0  0  0  0
  142.1450   78.4660  219.2600 C   0  0  0  0  0  0  0  0  0  0  0  0
  141.0540   77.7040  220.0150 C   0  0  2  0  0  0  0  0  0  0  0  0
  140.8750   78.3180  221.3680 C   0  0  0  0  0  0  0  0  0  0  0  0
  139.6220   78.3770  221.9550 C   0  0  0  0  0  0  0  0  0  0  0  0
  139.5130   78.9560  223.2110 C   0  0  0  0  0  0  0  0  0  0  0  0
  140.6710   79.4470  223.8120 C   0  0  0  0  0  0  0  0  0  0  0  0
  141.8680   79.3630  223.1950 N   0  0  0  0  0  0  0  0  0  0  0  0
  142.0120   78.8090  221.9770 C   0  0  0  0  0  0  0  0  0  0  0  0
  140.1990   71.6020  223.4690 C   0  0  0  0  0  0  0  0  0  0  0  0
  139.4930   70.4390  223.3310 C   0  0  0  0  0  0  0  0  0  0  0  0
  139.2830   69.5600  224.3990 C   0  0  0  0  0  0  0  0  0  0  0  0
  139.8140   69.8910  225.6260 C   0  0  0  0  0  0  0  0  0  0  0  0
  139.6520   69.0760  226.7350 C   0  0  0  0  0  0  0  0  0  0  0  0
  140.2080   69.4530  227.9560 C   0  0  0  0  0  0  0  0  0  0  0  0
  140.0280   68.6280  229.0180 F   0  0  0  0  0  0  0  0  0  0  0  0
  140.9210   70.6410  228.0660 C   0  0  0  0  0  0  0  0  0  0  0  0
  141.0860   71.4600  226.9610 C   0  0  0  0  0  0  0  0  0  0  0  0
  140.5260   71.0660  225.7580 C   0  0  0  0  0  0  0  0  0  0  0  0
  140.6980   71.8740  224.7020 N   0  0  0  0  0  0  0  0  0  0  0  0
  138.8430   73.8300  223.0110 H   0  0  0  0  0  0  0  0  0  0  0  0
  139.7535   74.0374  220.2557 H   0  0  0  0  0  0  0  0  0  0  0  0
  138.8480   75.2861  221.3263 H   0  0  0  0  0  0  0  0  0  0  0  0
  143.3763   76.0489  219.4602 H   0  0  0  0  0  0  0  0  0  0  0  0
  142.2398   74.7274  219.0034 H   0  0  0  0  0  0  0  0  0  0  0  0
  142.7680   76.0997  217.0370 H   0  0  0  0  0  0  0  0  0  0  0  0
  141.0276   76.3182  217.5294 H   0  0  0  0  0  0  0  0  0  0  0  0
  143.2625   78.2425  217.4687 H   0  0  0  0  0  0  0  0  0  0  0  0
  141.4869   78.4694  217.2460 H   0  0  0  0  0  0  0  0  0  0  0  0
  143.1066   78.3175  219.7730 H   0  0  0  0  0  0  0  0  0  0  0  0
  141.8752   79.5322  219.2414 H   0  0  0  0  0  0  0  0  0  0  0  0
  140.1064   77.7703  219.4603 H   0  0  0  0  0  0  0  0  0  0  0  0
  138.7371   77.9756  221.4393 H   0  0  0  0  0  0  0  0  0  0  0  0
  138.5396   79.0257  223.7186 H   0  0  0  0  0  0  0  0  0  0  0  0
  140.6078   79.9113  224.8072 H   0  0  0  0  0  0  0  0  0  0  0  0
  142.9951   78.7500  221.4872 H   0  0  0  0  0  0  0  0  0  0  0  0
  139.0754   70.1856  222.3454 H   0  0  0  0  0  0  0  0  0  0  0  0
  138.7101   68.6309  224.2626 H   0  0  0  0  0  0  0  0  0  0  0  0
  139.0871   68.1358  226.6519 H   0  0  0  0  0  0  0  0  0  0  0  0
  141.3557   70.9318  229.0337 H   0  0  0  0  0  0  0  0  0  0  0  0
  141.6491   72.4018  227.0378 H   0  0  0  0  0  0  0  0  0  0  0  0
  1  2  2  0
  2  3  1  0
  3  4  1  0
  4  5  1  0
  5  6  2  0
  5  7  1  0
  7  8  1  0
  8  9  1  0
  9 10  1  0
 10 11  1  0
 11 12  1  0
 12 13  1  0
 13 14  2  0
 14 15  1  0
 15 16  2  0
 16 17  1  0
 17 18  2  0
  2 19  1  0
 19 20  2  0
 20 21  1  0
 21 22  2  0
 22 23  1  0
 23 24  2  0
 24 25  1  0
 24 26  1  0
 26 27  2  0
 27 28  1  0
 28 29  2  0
 12  7  1  0
 18 13  1  0
 29 19  1  0
 28 22  1  0
  3 30  1  0
  4 31  1  0
  4 32  1  0
  8 33  1  0
  8 34  1  0
  9 35  1  0
  9 36  1  0
 10 37  1  0
 10 38  1  0
 11 39  1  0
 11 40  1  0
 12 41  1  6
 14 42  1  0
 15 43  1  0
 16 44  1  0
 18 45  1  0
 20 46  1  0
 21 47  1  0
 23 48  1  0
 26 49  1  0
 27 50  1  0
M  END
>  <smiles>  (17) 
O=C(NCC(=O)N1CCCCC1c1cccnc1)c1ccc2cc(F)ccc2n1

>  <score_type>  (17) 
oracle

>  <origin>  (17) 
autodockgpu

>  <m_score__min__energy>  (17) 
-8.4299999999999997

>  <m_primary>  (17) 
energy

>  <rmsd>  (17) 
1.9437314748785945

>  <m_score__min__rmsd>  (17) 
1.9437314748785945

>  <meeko>  (17) 
{"free_energy": -8.27, "intermolecular_energy": -9.76, "internal_energy": -1.27, "cluster_size": 22, "cluster_id": 2, "rank_in_cluster": 16}

>  <energy>  (17) 
-7.74

>  <cluster_rmsd>  (17) 
1.53

>  <cluster>  (17) 
1

$$$$

     RDKit          3D

 50 53  0  0  0  0  0  0  0  0999 V2000
  139.7950   73.6250  222.3690 O   0  0  0  0  0  0  0  0  0  0  0  0
  140.1080   72.3900  222.2550 C   0  0  0  0  0  0  0  0  0  0  0  0
  140.5000   71.8450  220.9830 N   0  0  0  0  0  0  0  0  0  0  0  0
  140.5600   72.6510  219.8040 C   0  0  0  0  0  0  0  0  0  0  0  0
  141.8400   72.8970  219.1640 C   0  0  0  0  0  0  0  0  0  0  0  0
  141.7500   73.1530  217.8900 O   0  0  0  0  0  0  0  0  0  0  0  0
  143.1420   72.9040  219.6730 N   0  0  0  0  0  0  0  0  0  0  0  0
  143.9080   71.7770  220.1560 C   0  0  0  0  0  0  0  0  0  0  0  0
  145.3900   71.9500  219.8000 C   0  0  0  0  0  0  0  0  0  0  0  0
  146.0060   73.1460  220.4430 C   0  0  0  0  0  0  0  0  0  0  0  0
  144.9560   74.1340  220.8170 C   0  0  0  0  0  0  0  0  0  0  0  0
  143.8550   74.2010  219.7570 C   0  0  2  0  0  0  0  0  0  0  0  0
  142.9070   75.3060  220.1060 C   0  0  0  0  0  0  0  0  0  0  0  0
  142.8830   76.4750  219.3630 C   0  0  0  0  0  0  0  0  0  0  0  0
  141.9840   77.4660  219.7300 C   0  0  0  0  0  0  0  0  0  0  0  0
  141.1550   77.2290  220.8240 C   0  0  0  0  0  0  0  0  0  0  0  0
  141.2180   76.0710  221.5120 N   0  0  0  0  0  0  0  0  0  0  0  0
  142.0780   75.0880  221.1870 C   0  0  0  0  0  0  0  0  0  0  0  0
  140.0790   71.4970  223.4050 C   0  0  0  0  0  0  0  0  0  0  0  0
  139.5720   70.2300  223.3220 C   0  0  0  0  0  0  0  0  0  0  0  0
  139.5380   69.3620  224.4190 C   0  0  0  0  0  0  0  0  0  0  0  0
  140.0390   69.8150  225.6190 C   0  0  0  0  0  0  0  0  0  0  0  0
  140.0440   69.0210  226.7550 C   0  0  0  0  0  0  0  0  0  0  0  0
  140.5610   69.5240  227.9470 C   0  0  0  0  0  0  0  0  0  0  0  0
  140.5480   68.7150  229.0360 F   0  0  0  0  0  0  0  0  0  0  0  0
  141.0710   70.8160  228.0020 C   0  0  0  0  0  0  0  0  0  0  0  0
  141.0690   71.6150  226.8710 C   0  0  0  0  0  0  0  0  0  0  0  0
  140.5500   71.0960  225.6970 C   0  0  0  0  0  0  0  0  0  0  0  0
  140.5580   71.8860  224.6140 N   0  0  0  0  0  0  0  0  0  0  0  0
  140.7470   70.8130  220.9350 H   0  0  0  0  0  0  0  0  0  0  0  0
  139.9164   72.1676  219.0543 H   0  0  0  0  0  0  0  0  0  0  0  0
  140.2562   73.6467  220.1593 H   0  0  0  0  0  0  0  0  0  0  0  0
  143.8028   71.7081  221.2488 H   0  0  0  0  0  0  0  0  0  0  0  0
  143.5308   70.8584  219.6829 H   0  0  0  0  0  0  0  0  0  0  0  0
  145.9368   71.0540  220.1290 H   0  0  0  0  0  0  0  0  0  0  0  0
  145.4533   72.0916  218.7110 H   0  0  0  0  0  0  0  0  0  0  0  0
  146.5472   72.8325  221.3478 H   0  0  0  0  0  0  0  0  0  0  0  0
  146.7001   73.6159  219.7307 H   0  0  0  0  0  0  0  0  0  0  0  0
  144.5108   73.8376  221.7782 H   0  0  0  0  0  0  0  0  0  0  0  0
  145.4242   75.1263  220.8953 H   0  0  0  0  0  0  0  0  0  0  0  0
  144.3016   74.4055  218.7728 H   0  0  0  0  0  0  0  0  0  0  0  0
  143.5581   76.6137  218.5057 H   0  0  0  0  0  0  0  0  0  0  0  0
  141.9275   78.4126  219.1725 H   0  0  0  0  0  0  0  0  0  0  0  0
  140.4351   78.0013  221.1326 H   0  0  0  0  0  0  0  0  0  0  0  0
  142.1182   74.1496  221.7596 H   0  0  0  0  0  0  0  0  0  0  0  0
  139.1762   69.8800  222.3572 H   0  0  0  0  0  0  0  0  0  0  0  0
  139.1232   68.3475  224.3255 H   0  0  0  0  0  0  0  0  0  0  0  0
  139.6415   67.9980  226.7157 H   0  0  0  0  0  0  0  0  0  0  0  0
  141.4775   71.2050  228.9472 H   0  0  0  0  0  0  0  0  0  0  0  0
  141.4705   72.6385  226.9045 H   0  0  0  0  0  0  0  0  0  0  0  0
  1  2  2  0
  2  3  1  0
  3  4  1  0
  4  5  1  0
  5  6  2  0
  5  7  1  0
  7  8  1  0
  8  9  1  0
  9 10  1  0
 10 11  1  0
 11 12  1  0
 12 13  1  0
 13 14  2  0
 14 15  1  0
 15 16  2  0
 16 17  1  0
 17 18  2  0
  2 19  1  0
 19 20  2  0
 20 21  1  0
 21 22  2  0
 22 23  1  0
 23 24  2  0
 24 25  1  0
 24 26  1  0
 26 27  2  0
 27 28  1  0
 28 29  2  0
 12  7  1  0
 18 13  1  0
 29 19  1  0
 28 22  1  0
  3 30  1  0
  4 31  1  0
  4 32  1  0
  8 33  1  0
  8 34  1  0
  9 35  1  0
  9 36  1  0
 10 37  1  0
 10 38  1  0
 11 39  1  0
 11 40  1  0
 12 41  1  6
 14 42  1  0
 15 43  1  0
 16 44  1  0
 18 45  1  0
 20 46  1  0
 21 47  1  0
 23 48  1  0
 26 49  1  0
 27 50  1  0
M  END
>  <smiles>  (18) 
O=C(NCC(=O)N1CCCCC1c1cccnc1)c1ccc2cc(F)ccc2n1

>  <score_type>  (18) 
oracle

>  <origin>  (18) 
autodockgpu

>  <m_score__min__energy>  (18) 
-8.4299999999999997

>  <m_primary>  (18) 
energy

>  <rmsd>  (18) 
3.7283595786705157

>  <m_score__min__rmsd>  (18) 
3.7283595786705157

>  <meeko>  (18) 
{"free_energy": -7.96, "intermolecular_energy": -9.45, "internal_energy": -1.37, "cluster_size": 3, "cluster_id": 3, "rank_in_cluster": 1}

>  <energy>  (18) 
-7.68

>  <cluster_rmsd>  (18) 
1.44

>  <cluster>  (18) 
1

$$$$

     RDKit          3D

 50 53  0  0  0  0  0  0  0  0999 V2000
  141.4250   71.9980  221.3430 O   0  0  0  0  0  0  0  0  0  0  0  0
  140.5360   72.3310  222.1990 C   0  0  0  0  0  0  0  0  0  0  0  0
  139.7720   73.5390  222.0340 N   0  0  0  0  0  0  0  0  0  0  0  0
  139.9680   74.4080  220.9170 C   0  0  0  0  0  0  0  0  0  0  0  0
  140.9600   75.4650  220.9910 C   0  0  0  0  0  0  0  0  0  0  0  0
  141.4250   75.6670  222.1910 O   0  0  0  0  0  0  0  0  0  0  0  0
  141.4980   76.3000  220.0070 N   0  0  0  0  0  0  0  0  0  0  0  0
  140.8010   77.2740  219.1970 C   0  0  0  0  0  0  0  0  0  0  0  0
  141.6970   78.4930  218.9430 C   0  0  0  0  0  0  0  0  0  0  0  0
  142.9300   78.1560  218.1740 C   0  0  0  0  0  0  0  0  0  0  0  0
  143.2440   76.7060  218.3040 C   0  0  0  0  0  0  0  0  0  0  0  0
  142.9480   76.2000  219.7170 C   0  0  2  0  0  0  0  0  0  0  0  0
  143.4160   74.7830  219.8370 C   0  0  0  0  0  0  0  0  0  0  0  0
  144.3850   74.4360  220.7630 C   0  0  0  0  0  0  0  0  0  0  0  0
  144.7810   73.1080  220.8330 C   0  0  0  0  0  0  0  0  0  0  0  0
  144.1810   72.1970  219.9660 C   0  0  0  0  0  0  0  0  0  0  0  0
  143.2400   72.5880  219.0820 N   0  0  0  0  0  0  0  0  0  0  0  0
  142.8320   73.8670  218.9860 C   0  0  0  0  0  0  0  0  0  0  0  0
  140.2660   71.5030  223.3660 C   0  0  0  0  0  0  0  0  0  0  0  0
  139.5680   70.3300  223.2730 C   0  0  0  0  0  0  0  0  0  0  0  0
  139.3020   69.5260  224.3870 C   0  0  0  0  0  0  0  0  0  0  0  0
  139.7670   69.9440  225.6140 C   0  0  0  0  0  0  0  0  0  0  0  0
  139.5470   69.2070  226.7670 C   0  0  0  0  0  0  0  0  0  0  0  0
  140.0370   69.6700  227.9870 C   0  0  0  0  0  0  0  0  0  0  0  0
  139.8010   68.9210  229.0920 F   0  0  0  0  0  0  0  0  0  0  0  0
  140.7430   70.8670  228.0510 C   0  0  0  0  0  0  0  0  0  0  0  0
  140.9660   71.6070  226.9030 C   0  0  0  0  0  0  0  0  0  0  0  0
  140.4710   71.1280  225.7020 C   0  0  0  0  0  0  0  0  0  0  0  0
  140.6980   71.8610  224.6020 N   0  0  0  0  0  0  0  0  0  0  0  0
  139.0460   73.7770  222.7720 H   0  0  0  0  0  0  0  0  0  0  0  0
  140.2435   73.7718  220.0630 H   0  0  0  0  0  0  0  0  0  0  0  0
  139.0163   74.9555  220.8497 H   0  0  0  0  0  0  0  0  0  0  0  0
  140.5282   76.8171  218.2343 H   0  0  0  0  0  0  0  0  0  0  0  0
  139.8951   77.6000  219.7291 H   0  0  0  0  0  0  0  0  0  0  0  0
  141.1220   79.2392  218.3751 H   0  0  0  0  0  0  0  0  0  0  0  0
  142.0140   78.8800  219.9227 H   0  0  0  0  0  0  0  0  0  0  0  0
  142.7728   78.3989  217.1127 H   0  0  0  0  0  0  0  0  0  0  0  0
  143.7712   78.7402  218.5754 H   0  0  0  0  0  0  0  0  0  0  0  0
  142.6327   76.1407  217.5851 H   0  0  0  0  0  0  0  0  0  0  0  0
  144.3153   76.5621  218.1000 H   0  0  0  0  0  0  0  0  0  0  0  0
  143.4829   76.8209  220.4507 H   0  0  0  0  0  0  0  0  0  0  0  0
  144.8293   75.1932  221.4258 H   0  0  0  0  0  0  0  0  0  0  0  0
  145.5470   72.7835  221.5526 H   0  0  0  0  0  0  0  0  0  0  0  0
  144.4803   71.1391  220.0031 H   0  0  0  0  0  0  0  0  0  0  0  0
  142.0643   74.1698  218.2588 H   0  0  0  0  0  0  0  0  0  0  0  0
  139.2027   70.0072  222.2869 H   0  0  0  0  0  0  0  0  0  0  0  0
  138.7378   68.5872  224.2855 H   0  0  0  0  0  0  0  0  0  0  0  0
  138.9881   68.2608  226.7195 H   0  0  0  0  0  0  0  0  0  0  0  0
  141.1254   71.2266  229.0177 H   0  0  0  0  0  0  0  0  0  0  0  0
  141.5238   72.5542  226.9438 H   0  0  0  0  0  0  0  0  0  0  0  0
  1  2  2  0
  2  3  1  0
  3  4  1  0
  4  5  1  0
  5  6  2  0
  5  7  1  0
  7  8  1  0
  8  9  1  0
  9 10  1  0
 10 11  1  0
 11 12  1  0
 12 13  1  0
 13 14  2  0
 14 15  1  0
 15 16  2  0
 16 17  1  0
 17 18  2  0
  2 19  1  0
 19 20  2  0
 20 21  1  0
 21 22  2  0
 22 23  1  0
 23 24  2  0
 24 25  1  0
 24 26  1  0
 26 27  2  0
 27 28  1  0
 28 29  2  0
 12  7  1  0
 18 13  1  0
 29 19  1  0
 28 22  1  0
  3 30  1  0
  4 31  1  0
  4 32  1  0
  8 33  1  0
  8 34  1  0
  9 35  1  0
  9 36  1  0
 10 37  1  0
 10 38  1  0
 11 39  1  0
 11 40  1  0
 12 41  1  1
 14 42  1  0
 15 43  1  0
 16 44  1  0
 18 45  1  0
 20 46  1  0
 21 47  1  0
 23 48  1  0
 26 49  1  0
 27 50  1  0
M  END
>  <smiles>  (19) 
O=C(NCC(=O)N1CCCCC1c1cccnc1)c1ccc2cc(F)ccc2n1

>  <score_type>  (19) 
oracle

>  <origin>  (19) 
autodockgpu

>  <m_score__min__energy>  (19) 
-8.4299999999999997

>  <m_primary>  (19) 
energy

>  <rmsd>  (19) 
2.0623103556555944

>  <m_score__min__rmsd>  (19) 
2.0623103556555944

>  <meeko>  (19) 
{"free_energy": -7.93, "intermolecular_energy": -9.42, "internal_energy": -1.65, "cluster_size": 22, "cluster_id": 1, "rank_in_cluster": 6}

>  <energy>  (19) 
-7.65

>  <cluster_rmsd>  (19) 
1.46

>  <cluster>  (19) 
1

$$$$

     RDKit          3D

 50 53  0  0  0  0  0  0  0  0999 V2000
  141.3000   72.3360  221.3090 O   0  0  0  0  0  0  0  0  0  0  0  0
  140.5210   72.6710  222.2660 C   0  0  0  0  0  0  0  0  0  0  0  0
  139.8990   73.9670  222.2900 N   0  0  0  0  0  0  0  0  0  0  0  0
  140.1180   74.9270  221.2550 C   0  0  0  0  0  0  0  0  0  0  0  0
  139.5430   76.2560  221.3700 C   0  0  0  0  0  0  0  0  0  0  0  0
  138.3300   76.3460  220.9060 O   0  0  0  0  0  0  0  0  0  0  0  0
  140.0640   77.4470  221.8860 N   0  0  0  0  0  0  0  0  0  0  0  0
  139.3880   78.4230  222.7110 C   0  0  0  0  0  0  0  0  0  0  0  0
  140.3640   79.0240  223.7300 C   0  0  0  0  0  0  0  0  0  0  0  0
  141.4880   79.7660  223.0890 C   0  0  0  0  0  0  0  0  0  0  0  0
  141.6810   79.3070  221.6860 C   0  0  0  0  0  0  0  0  0  0  0  0
  141.4670   77.7970  221.5630 C   0  0  2  0  0  0  0  0  0  0  0  0
  141.8140   77.3660  220.1710 C   0  0  0  0  0  0  0  0  0  0  0  0
  141.2620   78.0100  219.0760 C   0  0  0  0  0  0  0  0  0  0  0  0
  141.6190   77.5710  217.8090 C   0  0  0  0  0  0  0  0  0  0  0  0
  142.5120   76.5060  217.7090 C   0  0  0  0  0  0  0  0  0  0  0  0
  143.0210   75.9150  218.8100 N   0  0  0  0  0  0  0  0  0  0  0  0
  142.6980   76.3130  220.0540 C   0  0  0  0  0  0  0  0  0  0  0  0
  140.2380   71.7530  223.3620 C   0  0  0  0  0  0  0  0  0  0  0  0
  139.5070   70.6120  223.1770 C   0  0  0  0  0  0  0  0  0  0  0  0
  139.2280   69.7240  224.2210 C   0  0  0  0  0  0  0  0  0  0  0  0
  139.7140   70.0230  225.4740 C   0  0  0  0  0  0  0  0  0  0  0  0
  139.4840   69.1970  226.5630 C   0  0  0  0  0  0  0  0  0  0  0  0
  139.9970   69.5410  227.8120 C   0  0  0  0  0  0  0  0  0  0  0  0
  139.7490   68.7070  228.8530 F   0  0  0  0  0  0  0  0  0  0  0  0
  140.7360   70.7080  227.9700 C   0  0  0  0  0  0  0  0  0  0  0  0
  140.9710   71.5380  226.8860 C   0  0  0  0  0  0  0  0  0  0  0  0
  140.4520   71.1760  225.6550 C   0  0  0  0  0  0  0  0  0  0  0  0
  140.6900   71.9940  224.6190 N   0  0  0  0  0  0  0  0  0  0  0  0
  139.2640   74.2020  223.1080 H   0  0  0  0  0  0  0  0  0  0  0  0
  141.2067   75.0575  221.1667 H   0  0  0  0  0  0  0  0  0  0  0  0
  139.5918   74.4952  220.3909 H   0  0  0  0  0  0  0  0  0  0  0  0
  138.9902   79.2253  222.0722 H   0  0  0  0  0  0  0  0  0  0  0  0
  138.5662   77.9290  223.2501 H   0  0  0  0  0  0  0  0  0  0  0  0
  139.8103   79.7181  224.3793 H   0  0  0  0  0  0  0  0  0  0  0  0
  140.8009   78.1908  224.3000 H   0  0  0  0  0  0  0  0  0  0  0  0
  141.2590   80.8419  223.0899 H   0  0  0  0  0  0  0  0  0  0  0  0
  142.4107   79.5749  223.6566 H   0  0  0  0  0  0  0  0  0  0  0  0
  140.9603   79.8255  221.0366 H   0  0  0  0  0  0  0  0  0  0  0  0
  142.7128   79.5382  221.3829 H   0  0  0  0  0  0  0  0  0  0  0  0
  142.1186   77.2727  222.2775 H   0  0  0  0  0  0  0  0  0  0  0  0
  140.5598   78.8465  219.2072 H   0  0  0  0  0  0  0  0  0  0  0  0
  141.2083   78.0506  216.9083 H   0  0  0  0  0  0  0  0  0  0  0  0
  142.8073   76.1404  216.7144 H   0  0  0  0  0  0  0  0  0  0  0  0
  143.1212   75.8193  220.9412 H   0  0  0  0  0  0  0  0  0  0  0  0
  139.1247   70.3845  222.1710 H   0  0  0  0  0  0  0  0  0  0  0  0
  138.6372   68.8128  224.0460 H   0  0  0  0  0  0  0  0  0  0  0  0
  138.8988   68.2735  226.4417 H   0  0  0  0  0  0  0  0  0  0  0  0
  141.1357   70.9734  228.9598 H   0  0  0  0  0  0  0  0  0  0  0  0
  141.5560   72.4625  227.0008 H   0  0  0  0  0  0  0  0  0  0  0  0
  1  2  2  0
  2  3  1  0
  3  4  1  0
  4  5  1  0
  5  6  2  0
  5  7  1  0
  7  8  1  0
  8  9  1  0
  9 10  1  0
 10 11  1  0
 11 12  1  0
 12 13  1  0
 13 14  2  0
 14 15  1  0
 15 16  2  0
 16 17  1  0
 17 18  2  0
  2 19  1  0
 19 20  2  0
 20 21  1  0
 21 22  2  0
 22 23  1  0
 23 24  2  0
 24 25  1  0
 24 26  1  0
 26 27  2  0
 27 28  1  0
 28 29  2  0
 12  7  1  0
 18 13  1  0
 29 19  1  0
 28 22  1  0
  3 30  1  0
  4 31  1  0
  4 32  1  0
  8 33  1  0
  8 34  1  0
  9 35  1  0
  9 36  1  0
 10 37  1  0
 10 38  1  0
 11 39  1  0
 11 40  1  0
 12 41  1  1
 14 42  1  0
 15 43  1  0
 16 44  1  0
 18 45  1  0
 20 46  1  0
 21 47  1  0
 23 48  1  0
 26 49  1  0
 27 50  1  0
M  END
>  <smiles>  (20) 
O=C(NCC(=O)N1CCCCC1c1cccnc1)c1ccc2cc(F)ccc2n1

>  <score_type>  (20) 
oracle

>  <origin>  (20) 
autodockgpu

>  <m_score__min__energy>  (20) 
-8.4299999999999997

>  <m_primary>  (20) 
energy

>  <rmsd>  (20) 
3.3028268909814082

>  <m_score__min__rmsd>  (20) 
3.3028268909814082

>  <meeko>  (20) 
{"free_energy": -7.81, "intermolecular_energy": -9.31, "internal_energy": -1.22, "cluster_size": 2, "cluster_id": 4, "rank_in_cluster": 2}

>  <energy>  (20) 
-7.62

>  <cluster_rmsd>  (20) 
1.49

>  <cluster>  (20) 
1

$$$$

     RDKit          3D

 50 53  0  0  0  0  0  0  0  0999 V2000
  141.4350   72.2850  221.5770 O   0  0  0  0  0  0  0  0  0  0  0  0
  140.4640   72.5120  222.3770 C   0  0  0  0  0  0  0  0  0  0  0  0
  139.6010   73.6470  222.1840 N   0  0  0  0  0  0  0  0  0  0  0  0
  139.7860   74.5580  221.0990 C   0  0  0  0  0  0  0  0  0  0  0  0
  140.8540   75.5400  221.1570 C   0  0  0  0  0  0  0  0  0  0  0  0
  141.3400   75.7200  222.3520 O   0  0  0  0  0  0  0  0  0  0  0  0
  141.4460   76.3240  220.1600 N   0  0  0  0  0  0  0  0  0  0  0  0
  142.4450   75.9200  219.1960 C   0  0  0  0  0  0  0  0  0  0  0  0
  142.2080   76.6310  217.8570 C   0  0  0  0  0  0  0  0  0  0  0  0
  142.3360   78.1130  217.9560 C   0  0  0  0  0  0  0  0  0  0  0  0
  142.1350   78.5600  219.3630 C   0  0  0  0  0  0  0  0  0  0  0  0
  141.0390   77.7450  220.0520 C   0  0  2  0  0  0  0  0  0  0  0  0
  140.7760   78.3260  221.4070 C   0  0  0  0  0  0  0  0  0  0  0  0
  141.8210   78.7900  222.1890 C   0  0  0  0  0  0  0  0  0  0  0  0
  141.5200   79.3200  223.4360 C   0  0  0  0  0  0  0  0  0  0  0  0
  140.1840   79.3550  223.8310 C   0  0  0  0  0  0  0  0  0  0  0  0
  139.2050   78.8900  223.0280 N   0  0  0  0  0  0  0  0  0  0  0  0
  139.4590   78.3690  221.8130 C   0  0  0  0  0  0  0  0  0  0  0  0
  140.1980   71.6330  223.5080 C   0  0  0  0  0  0  0  0  0  0  0  0
  139.4480   70.4970  223.3780 C   0  0  0  0  0  0  0  0  0  0  0  0
  139.1860   69.6460  224.4570 C   0  0  0  0  0  0  0  0  0  0  0  0
  139.7090   69.9760  225.6860 C   0  0  0  0  0  0  0  0  0  0  0  0
  139.4980   69.1870  226.8060 C   0  0  0  0  0  0  0  0  0  0  0  0
  140.0480   69.5630  228.0300 C   0  0  0  0  0  0  0  0  0  0  0  0
  139.8180   68.7650  229.1020 F   0  0  0  0  0  0  0  0  0  0  0  0
  140.8070   70.7240  228.1320 C   0  0  0  0  0  0  0  0  0  0  0  0
  141.0220   71.5160  227.0170 C   0  0  0  0  0  0  0  0  0  0  0  0
  140.4660   71.1240  225.8120 C   0  0  0  0  0  0  0  0  0  0  0  0
  140.6870   71.9060  224.7450 N   0  0  0  0  0  0  0  0  0  0  0  0
  138.8100   73.7980  222.8770 H   0  0  0  0  0  0  0  0  0  0  0  0
  139.9602   73.9504  220.1988 H   0  0  0  0  0  0  0  0  0  0  0  0
  138.8732   75.1714  221.1218 H   0  0  0  0  0  0  0  0  0  0  0  0
  143.4434   76.1833  219.5754 H   0  0  0  0  0  0  0  0  0  0  0  0
  142.3762   74.8330  219.0421 H   0  0  0  0  0  0  0  0  0  0  0  0
  142.9457   76.2629  217.1288 H   0  0  0  0  0  0  0  0  0  0  0  0
  141.1772   76.4091  217.5435 H   0  0  0  0  0  0  0  0  0  0  0  0
  143.3397   78.4131  217.6205 H   0  0  0  0  0  0  0  0  0  0  0  0
  141.5690   78.5801  217.3207 H   0  0  0  0  0  0  0  0  0  0  0  0
  143.0770   78.4349  219.9171 H   0  0  0  0  0  0  0  0  0  0  0  0
  141.8283   79.6163  219.3521 H   0  0  0  0  0  0  0  0  0  0  0  0
  140.1160   77.7881  219.4552 H   0  0  0  0  0  0  0  0  0  0  0  0
  142.8602   78.7398  221.8317 H   0  0  0  0  0  0  0  0  0  0  0  0
  142.3142   79.7019  224.0944 H   0  0  0  0  0  0  0  0  0  0  0  0
  139.9230   79.7695  224.8159 H   0  0  0  0  0  0  0  0  0  0  0  0
  138.6492   77.9930  221.1705 H   0  0  0  0  0  0  0  0  0  0  0  0
  139.0361   70.2433  222.3901 H   0  0  0  0  0  0  0  0  0  0  0  0
  138.5787   68.7382  224.3264 H   0  0  0  0  0  0  0  0  0  0  0  0
  138.8988   68.2677  226.7289 H   0  0  0  0  0  0  0  0  0  0  0  0
  141.2379   71.0139  229.1017 H   0  0  0  0  0  0  0  0  0  0  0  0
  141.6211   72.4358  227.0874 H   0  0  0  0  0  0  0  0  0  0  0  0
  1  2  2  0
  2  3  1  0
  3  4  1  0
  4  5  1  0
  5  6  2  0
  5  7  1  0
  7  8  1  0
  8  9  1  0
  9 10  1  0
 10 11  1  0
 11 12  1  0
 12 13  1  0
 13 14  2  0
 14 15  1  0
 15 16  2  0
 16 17  1  0
 17 18  2  0
  2 19  1  0
 19 20  2  0
 20 21  1  0
 21 22  2  0
 22 23  1  0
 23 24  2  0
 24 25  1  0
 24 26  1  0
 26 27  2  0
 27 28  1  0
 28 29  2  0
 12  7  1  0
 18 13  1  0
 29 19  1  0
 28 22  1  0
  3 30  1  0
  4 31  1  0
  4 32  1  0
  8 33  1  0
  8 34  1  0
  9 35  1  0
  9 36  1  0
 10 37  1  0
 10 38  1  0
 11 39  1  0
 11 40  1  0
 12 41  1  6
 14 42  1  0
 15 43  1  0
 16 44  1  0
 18 45  1  0
 20 46  1  0
 21 47  1  0
 23 48  1  0
 26 49  1  0
 27 50  1  0
M  END
>  <smiles>  (21) 
O=C(NCC(=O)N1CCCCC1c1cccnc1)c1ccc2cc(F)ccc2n1

>  <score_type>  (21) 
oracle

>  <origin>  (21) 
autodockgpu

>  <m_score__min__energy>  (21) 
-8.4299999999999997

>  <m_primary>  (21) 
energy

>  <rmsd>  (21) 
2.021947176867818

>  <m_score__min__rmsd>  (21) 
2.021947176867818

>  <meeko>  (21) 
{"free_energy": -8.34, "intermolecular_energy": -9.83, "internal_energy": -1.24, "cluster_size": 22, "cluster_id": 2, "rank_in_cluster": 8}

>  <energy>  (21) 
-7.59

>  <cluster_rmsd>  (21) 
1.51

>  <cluster>  (21) 
1

$$$$

     RDKit          3D

 50 53  0  0  0  0  0  0  0  0999 V2000
  139.1800   72.8530  222.1530 O   0  0  0  0  0  0  0  0  0  0  0  0
  140.1520   72.1170  222.5400 C   0  0  0  0  0  0  0  0  0  0  0  0
  141.4170   72.1490  221.8560 N   0  0  0  0  0  0  0  0  0  0  0  0
  141.6430   72.9980  220.7290 C   0  0  0  0  0  0  0  0  0  0  0  0
  141.5000   74.4360  220.8710 C   0  0  0  0  0  0  0  0  0  0  0  0
  141.0310   74.8070  222.0280 O   0  0  0  0  0  0  0  0  0  0  0  0
  141.7710   75.4850  219.9860 N   0  0  0  0  0  0  0  0  0  0  0  0
  140.8220   76.2800  219.2400 C   0  0  0  0  0  0  0  0  0  0  0  0
  141.3150   77.7290  219.1300 C   0  0  0  0  0  0  0  0  0  0  0  0
  142.5990   77.8500  218.3820 C   0  0  0  0  0  0  0  0  0  0  0  0
  143.3320   76.5540  218.3940 C   0  0  0  0  0  0  0  0  0  0  0  0
  143.1880   75.8490  219.7440 C   0  0  2  0  0  0  0  0  0  0  0  0
  144.0580   74.6300  219.7540 C   0  0  0  0  0  0  0  0  0  0  0  0
  144.0060   73.7190  218.7120 C   0  0  0  0  0  0  0  0  0  0  0  0
  144.8350   72.6070  218.7720 C   0  0  0  0  0  0  0  0  0  0  0  0
  145.6720   72.4700  219.8770 C   0  0  0  0  0  0  0  0  0  0  0  0
  145.6830   73.3890  220.8640 N   0  0  0  0  0  0  0  0  0  0  0  0
  144.8930   74.4780  220.8410 C   0  0  0  0  0  0  0  0  0  0  0  0
  140.0120   71.2230  223.6820 C   0  0  0  0  0  0  0  0  0  0  0  0
  139.3270   70.0430  223.5950 C   0  0  0  0  0  0  0  0  0  0  0  0
  139.1850   69.1770  224.6850 C   0  0  0  0  0  0  0  0  0  0  0  0
  139.7620   69.5400  225.8810 C   0  0  0  0  0  0  0  0  0  0  0  0
  139.6700   68.7410  227.0090 C   0  0  0  0  0  0  0  0  0  0  0  0
  140.2700   69.1510  228.1980 C   0  0  0  0  0  0  0  0  0  0  0  0
  140.1560   68.3410  229.2800 F   0  0  0  0  0  0  0  0  0  0  0  0
  140.9590   70.3570  228.2570 C   0  0  0  0  0  0  0  0  0  0  0  0
  141.0560   71.1610  227.1330 C   0  0  0  0  0  0  0  0  0  0  0  0
  140.4520   70.7340  225.9630 C   0  0  0  0  0  0  0  0  0  0  0  0
  140.5580   71.5270  224.8870 N   0  0  0  0  0  0  0  0  0  0  0  0
  142.1930   71.5160  222.2100 H   0  0  0  0  0  0  0  0  0  0  0  0
  142.6731   72.8118  220.3909 H   0  0  0  0  0  0  0  0  0  0  0  0
  140.8315   72.7271  220.0376 H   0  0  0  0  0  0  0  0  0  0  0  0
  140.7079   75.8574  218.2308 H   0  0  0  0  0  0  0  0  0  0  0  0
  139.8546   76.2688  219.7635 H   0  0  0  0  0  0  0  0  0  0  0  0
  140.5485   78.3219  218.6096 H   0  0  0  0  0  0  0  0  0  0  0  0
  141.4925   78.0956  220.1518 H   0  0  0  0  0  0  0  0  0  0  0  0
  142.3864   78.1363  217.3414 H   0  0  0  0  0  0  0  0  0  0  0  0
  143.2223   78.6165  218.8657 H   0  0  0  0  0  0  0  0  0  0  0  0
  142.9252   75.9045  217.6049 H   0  0  0  0  0  0  0  0  0  0  0  0
  144.3990   76.7559  218.2187 H   0  0  0  0  0  0  0  0  0  0  0  0
  143.5055   76.5264  220.5505 H   0  0  0  0  0  0  0  0  0  0  0  0
  143.3267   73.8723  217.8605 H   0  0  0  0  0  0  0  0  0  0  0  0
  144.8310   71.8550  217.9692 H   0  0  0  0  0  0  0  0  0  0  0  0
  146.3363   71.5960  219.9458 H   0  0  0  0  0  0  0  0  0  0  0  0
  144.9124   75.2167  221.6558 H   0  0  0  0  0  0  0  0  0  0  0  0
  138.8711   69.7643  222.6335 H   0  0  0  0  0  0  0  0  0  0  0  0
  138.6282   68.2332  224.5889 H   0  0  0  0  0  0  0  0  0  0  0  0
  139.1252   67.7863  226.9662 H   0  0  0  0  0  0  0  0  0  0  0  0
  141.4289   70.6741  229.1997 H   0  0  0  0  0  0  0  0  0  0  0  0
  141.6002   72.1163  227.1694 H   0  0  0  0  0  0  0  0  0  0  0  0
  1  2  2  0
  2  3  1  0
  3  4  1  0
  4  5  1  0
  5  6  2  0
  5  7  1  0
  7  8  1  0
  8  9  1  0
  9 10  1  0
 10 11  1  0
 11 12  1  0
 12 13  1  0
 13 14  2  0
 14 15  1  0
 15 16  2  0
 16 17  1  0
 17 18  2  0
  2 19  1  0
 19 20  2  0
 20 21  1  0
 21 22  2  0
 22 23  1  0
 23 24  2  0
 24 25  1  0
 24 26  1  0
 26 27  2  0
 27 28  1  0
 28 29  2  0
 12  7  1  0
 18 13  1  0
 29 19  1  0
 28 22  1  0
  3 30  1  0
  4 31  1  0
  4 32  1  0
  8 33  1  0
  8 34  1  0
  9 35  1  0
  9 36  1  0
 10 37  1  0
 10 38  1  0
 11 39  1  0
 11 40  1  0
 12 41  1  1
 14 42  1  0
 15 43  1  0
 16 44  1  0
 18 45  1  0
 20 46  1  0
 21 47  1  0
 23 48  1  0
 26 49  1  0
 27 50  1  0
M  END
>  <smiles>  (22) 
O=C(NCC(=O)N1CCCCC1c1cccnc1)c1ccc2cc(F)ccc2n1

>  <score_type>  (22) 
oracle

>  <origin>  (22) 
autodockgpu

>  <m_score__min__energy>  (22) 
-8.4299999999999997

>  <m_primary>  (22) 
energy

>  <rmsd>  (22) 
2.267857545542151

>  <m_score__min__rmsd>  (22) 
2.267857545542151

>  <meeko>  (22) 
{"free_energy": -7.88, "intermolecular_energy": -9.37, "internal_energy": -1.15, "cluster_size": 22, "cluster_id": 1, "rank_in_cluster": 12}

>  <energy>  (22) 
-7.17

>  <cluster_rmsd>  (22) 
1.16

>  <cluster>  (22) 
1

$$$$

     RDKit          3D

 50 53  0  0  0  0  0  0  0  0999 V2000
  141.0120   71.9680  221.1960 O   0  0  0  0  0  0  0  0  0  0  0  0
  140.3780   72.4020  222.2180 C   0  0  0  0  0  0  0  0  0  0  0  0
  139.8650   73.7450  222.2490 N   0  0  0  0  0  0  0  0  0  0  0  0
  140.0350   74.6430  221.1500 C   0  0  0  0  0  0  0  0  0  0  0  0
  141.0830   75.6470  221.1950 C   0  0  0  0  0  0  0  0  0  0  0  0
  142.2400   75.2190  220.7770 O   0  0  0  0  0  0  0  0  0  0  0  0
  141.0670   76.9820  221.6090 N   0  0  0  0  0  0  0  0  0  0  0  0
  140.3550   77.5510  222.7320 C   0  0  0  0  0  0  0  0  0  0  0  0
  141.1830   78.6720  223.3730 C   0  0  0  0  0  0  0  0  0  0  0  0
  141.4280   79.8150  222.4470 C   0  0  0  0  0  0  0  0  0  0  0  0
  141.2850   79.3760  221.0310 C   0  0  0  0  0  0  0  0  0  0  0  0
  141.8490   77.9690  220.8270 C   0  0  2  0  0  0  0  0  0  0  0  0
  141.8140   77.6350  219.3680 C   0  0  0  0  0  0  0  0  0  0  0  0
  142.9590   77.2090  218.7150 C   0  0  0  0  0  0  0  0  0  0  0  0
  142.8700   76.9120  217.3620 C   0  0  0  0  0  0  0  0  0  0  0  0
  141.6340   77.0590  216.7360 C   0  0  0  0  0  0  0  0  0  0  0  0
  140.5490   77.4770  217.4200 N   0  0  0  0  0  0  0  0  0  0  0  0
  140.5980   77.7750  218.7320 C   0  0  0  0  0  0  0  0  0  0  0  0
  140.1530   71.5550  223.3810 C   0  0  0  0  0  0  0  0  0  0  0  0
  139.4520   70.3840  223.2970 C   0  0  0  0  0  0  0  0  0  0  0  0
  139.2290   69.5620  224.4070 C   0  0  0  0  0  0  0  0  0  0  0  0
  139.7420   69.9600  225.6210 C   0  0  0  0  0  0  0  0  0  0  0  0
  139.5680   69.2050  226.7710 C   0  0  0  0  0  0  0  0  0  0  0  0
  140.1060   69.6490  227.9770 C   0  0  0  0  0  0  0  0  0  0  0  0
  139.9130   68.8820  229.0790 F   0  0  0  0  0  0  0  0  0  0  0  0
  140.8140   70.8440  228.0330 C   0  0  0  0  0  0  0  0  0  0  0  0
  140.9920   71.6030  226.8880 C   0  0  0  0  0  0  0  0  0  0  0  0
  140.4500   71.1430  225.7010 C   0  0  0  0  0  0  0  0  0  0  0  0
  140.6340   71.8940  224.6050 N   0  0  0  0  0  0  0  0  0  0  0  0
  139.3480   74.0640  223.1200 H   0  0  0  0  0  0  0  0  0  0  0  0
  140.2237   74.0250  220.2598 H   0  0  0  0  0  0  0  0  0  0  0  0
  139.1102   75.2384  221.1613 H   0  0  0  0  0  0  0  0  0  0  0  0
  139.3960   77.9618  222.3834 H   0  0  0  0  0  0  0  0  0  0  0  0
  140.1776   76.7640  223.4798 H   0  0  0  0  0  0  0  0  0  0  0  0
  140.6440   79.0452  224.2563 H   0  0  0  0  0  0  0  0  0  0  0  0
  142.1622   78.2477  223.6398 H   0  0  0  0  0  0  0  0  0  0  0  0
  140.6991   80.6123  222.6546 H   0  0  0  0  0  0  0  0  0  0  0  0
  142.4510   80.1879  222.6034 H   0  0  0  0  0  0  0  0  0  0  0  0
  140.2186   79.3774  220.7611 H   0  0  0  0  0  0  0  0  0  0  0  0
  141.8484   80.0724  220.3925 H   0  0  0  0  0  0  0  0  0  0  0  0
  142.8896   77.9340  221.1818 H   0  0  0  0  0  0  0  0  0  0  0  0
  143.9127   77.1088  219.2539 H   0  0  0  0  0  0  0  0  0  0  0  0
  143.7512   76.5699  216.7994 H   0  0  0  0  0  0  0  0  0  0  0  0
  141.5412   76.8300  215.6641 H   0  0  0  0  0  0  0  0  0  0  0  0
  139.7043   78.1164  219.2749 H   0  0  0  0  0  0  0  0  0  0  0  0
  139.0485   70.0770  222.3208 H   0  0  0  0  0  0  0  0  0  0  0  0
  138.6604   68.6251  224.3125 H   0  0  0  0  0  0  0  0  0  0  0  0
  139.0075   68.2594  226.7312 H   0  0  0  0  0  0  0  0  0  0  0  0
  141.2342   71.1880  228.9896 H   0  0  0  0  0  0  0  0  0  0  0  0
  141.5514   72.5496  226.9217 H   0  0  0  0  0  0  0  0  0  0  0  0
  1  2  2  0
  2  3  1  0
  3  4  1  0
  4  5  1  0
  5  6  2  0
  5  7  1  0
  7  8  1  0
  8  9  1  0
  9 10  1  0
 10 11  1  0
 11 12  1  0
 12 13  1  0
 13 14  2  0
 14 15  1  0
 15 16  2  0
 16 17  1  0
 17 18  2  0
  2 19  1  0
 19 20  2  0
 20 21  1  0
 21 22  2  0
 22 23  1  0
 23 24  2  0
 24 25  1  0
 24 26  1  0
 26 27  2  0
 27 28  1  0
 28 29  2  0
 12  7  1  0
 18 13  1  0
 29 19  1  0
 28 22  1  0
  3 30  1  0
  4 31  1  0
  4 32  1  0
  8 33  1  0
  8 34  1  0
  9 35  1  0
  9 36  1  0
 10 37  1  0
 10 38  1  0
 11 39  1  0
 11 40  1  0
 12 41  1  1
 14 42  1  0
 15 43  1  0
 16 44  1  0
 18 45  1  0
 20 46  1  0
 21 47  1  0
 23 48  1  0
 26 49  1  0
 27 50  1  0
M  END
>  <smiles>  (23) 
O=C(NCC(=O)N1CCCCC1c1cccnc1)c1ccc2cc(F)ccc2n1

>  <score_type>  (23) 
oracle

>  <origin>  (23) 
autodockgpu

>  <m_score__min__energy>  (23) 
-8.4299999999999997

>  <m_primary>  (23) 
energy

>  <rmsd>  (23) 
3.0356528992617204

>  <m_score__min__rmsd>  (23) 
3.0356528992617204

>  <meeko>  (23) 
{"free_energy": -7.96, "intermolecular_energy": -9.45, "internal_energy": -1.2, "cluster_size": 2, "cluster_id": 4, "rank_in_cluster": 1}

>  <energy>  (23) 
-8.38

>  <cluster_rmsd>  (23) 
0.0

>  <cluster>  (23) 
2

$$$$

     RDKit          3D

 50 53  0  0  0  0  0  0  0  0999 V2000
  141.1470   72.0030  221.2400 O   0  0  0  0  0  0  0  0  0  0  0  0
  140.4230   72.4030  222.2150 C   0  0  0  0  0  0  0  0  0  0  0  0
  139.8120   73.7050  222.1920 N   0  0  0  0  0  0  0  0  0  0  0  0
  139.9810   74.5980  221.0890 C   0  0  0  0  0  0  0  0  0  0  0  0
  140.9630   75.6640  221.1690 C   0  0  0  0  0  0  0  0  0  0  0  0
  141.3670   75.9180  222.3810 O   0  0  0  0  0  0  0  0  0  0  0  0
  141.5430   76.4640  220.1790 N   0  0  0  0  0  0  0  0  0  0  0  0
  142.5680   76.0910  219.2290 C   0  0  0  0  0  0  0  0  0  0  0  0
  142.3260   76.7920  217.8860 C   0  0  0  0  0  0  0  0  0  0  0  0
  142.4070   78.2770  217.9840 C   0  0  0  0  0  0  0  0  0  0  0  0
  142.1730   78.7200  219.3860 C   0  0  0  0  0  0  0  0  0  0  0  0
  141.0940   77.8720  220.0620 C   0  0  2  0  0  0  0  0  0  0  0  0
  140.7950   78.4470  221.4120 C   0  0  0  0  0  0  0  0  0  0  0  0
  141.8160   78.9270  222.2150 C   0  0  0  0  0  0  0  0  0  0  0  0
  141.4820   79.4510  223.4560 C   0  0  0  0  0  0  0  0  0  0  0  0
  140.1380   79.4630  223.8250 C   0  0  0  0  0  0  0  0  0  0  0  0
  139.1830   78.9820  223.0030 N   0  0  0  0  0  0  0  0  0  0  0  0
  139.4690   78.4670  221.7930 C   0  0  0  0  0  0  0  0  0  0  0  0
  140.1930   71.5580  223.3790 C   0  0  0  0  0  0  0  0  0  0  0  0
  139.4900   70.3880  223.2930 C   0  0  0  0  0  0  0  0  0  0  0  0
  139.2610   69.5680  224.4030 C   0  0  0  0  0  0  0  0  0  0  0  0
  139.7700   69.9660  225.6190 C   0  0  0  0  0  0  0  0  0  0  0  0
  139.5890   69.2130  226.7680 C   0  0  0  0  0  0  0  0  0  0  0  0
  140.1230   69.6570  227.9770 C   0  0  0  0  0  0  0  0  0  0  0  0
  139.9240   68.8920  229.0790 F   0  0  0  0  0  0  0  0  0  0  0  0
  140.8330   70.8510  228.0340 C   0  0  0  0  0  0  0  0  0  0  0  0
  141.0170   71.6090  226.8890 C   0  0  0  0  0  0  0  0  0  0  0  0
  140.4790   71.1480  225.7000 C   0  0  0  0  0  0  0  0  0  0  0  0
  140.6690   71.8980  224.6040 N   0  0  0  0  0  0  0  0  0  0  0  0
  139.2220   73.9960  223.0260 H   0  0  0  0  0  0  0  0  0  0  0  0
  140.2497   73.9818  220.2183 H   0  0  0  0  0  0  0  0  0  0  0  0
  139.0226   75.1362  221.0468 H   0  0  0  0  0  0  0  0  0  0  0  0
  143.5521   76.3871  219.6213 H   0  0  0  0  0  0  0  0  0  0  0  0
  142.5367   75.0021  219.0763 H   0  0  0  0  0  0  0  0  0  0  0  0
  143.0838   76.4458  217.1678 H   0  0  0  0  0  0  0  0  0  0  0  0
  141.3067   76.5378  217.5599 H   0  0  0  0  0  0  0  0  0  0  0  0
  143.4056   78.6072  217.6618 H   0  0  0  0  0  0  0  0  0  0  0  0
  141.6347   78.7191  217.3373 H   0  0  0  0  0  0  0  0  0  0  0  0
  143.1108   78.6259  219.9532 H   0  0  0  0  0  0  0  0  0  0  0  0
  141.8333   79.7661  219.3684 H   0  0  0  0  0  0  0  0  0  0  0  0
  140.1786   77.8850  219.4522 H   0  0  0  0  0  0  0  0  0  0  0  0
  142.8628   78.8939  221.8786 H   0  0  0  0  0  0  0  0  0  0  0  0
  142.2566   79.8459  224.1298 H   0  0  0  0  0  0  0  0  0  0  0  0
  139.8509   79.8723  224.8048 H   0  0  0  0  0  0  0  0  0  0  0  0
  138.6782   78.0780  221.1348 H   0  0  0  0  0  0  0  0  0  0  0  0
  139.0901   70.0806  222.3155 H   0  0  0  0  0  0  0  0  0  0  0  0
  138.6908   68.6322  224.3072 H   0  0  0  0  0  0  0  0  0  0  0  0
  139.0263   68.2687  226.7265 H   0  0  0  0  0  0  0  0  0  0  0  0
  141.2502   71.1952  228.9918 H   0  0  0  0  0  0  0  0  0  0  0  0
  141.5774   72.5549  226.9240 H   0  0  0  0  0  0  0  0  0  0  0  0
  1  2  2  0
  2  3  1  0
  3  4  1  0
  4  5  1  0
  5  6  2  0
  5  7  1  0
  7  8  1  0
  8  9  1  0
  9 10  1  0
 10 11  1  0
 11 12  1  0
 12 13  1  0
 13 14  2  0
 14 15  1  0
 15 16  2  0
 16 17  1  0
 17 18  2  0
  2 19  1  0
 19 20  2  0
 20 21  1  0
 21 22  2  0
 22 23  1  0
 23 24  2  0
 24 25  1  0
 24 26  1  0
 26 27  2  0
 27 28  1  0
 28 29  2  0
 12  7  1  0
 18 13  1  0
 29 19  1  0
 28 22  1  0
  3 30  1  0
  4 31  1  0
  4 32  1  0
  8 33  1  0
  8 34  1  0
  9 35  1  0
  9 36  1  0
 10 37  1  0
 10 38  1  0
 11 39  1  0
 11 40  1  0
 12 41  1  6
 14 42  1  0
 15 43  1  0
 16 44  1  0
 18 45  1  0
 20 46  1  0
 21 47  1  0
 23 48  1  0
 26 49  1  0
 27 50  1  0
M  END
>  <smiles>  (24) 
O=C(NCC(=O)N1CCCCC1c1cccnc1)c1ccc2cc(F)ccc2n1

>  <score_type>  (24) 
oracle

>  <origin>  (24) 
autodockgpu

>  <m_score__min__energy>  (24) 
-8.4299999999999997

>  <m_primary>  (24) 
energy

>  <rmsd>  (24) 
2.085454067336413

>  <m_score__min__rmsd>  (24) 
2.085454067336413

>  <meeko>  (24) 
{"free_energy": -8.33, "intermolecular_energy": -9.83, "internal_energy": -1.24, "cluster_size": 22, "cluster_id": 2, "rank_in_cluster": 10}

>  <energy>  (24) 
-8.36

>  <cluster_rmsd>  (24) 
0.13

>  <cluster>  (24) 
2

$$$$

     RDKit          3D

 50 53  0  0  0  0  0  0  0  0999 V2000
  140.9660   71.9120  221.1360 O   0  0  0  0  0  0  0  0  0  0  0  0
  140.4000   72.3740  222.1850 C   0  0  0  0  0  0  0  0  0  0  0  0
  139.9540   73.7400  222.2390 N   0  0  0  0  0  0  0  0  0  0  0  0
  140.1190   74.6310  221.1340 C   0  0  0  0  0  0  0  0  0  0  0  0
  140.8810   75.8560  221.3030 C   0  0  0  0  0  0  0  0  0  0  0  0
  141.0670   76.1930  222.5480 O   0  0  0  0  0  0  0  0  0  0  0  0
  141.4440   76.7310  220.3690 N   0  0  0  0  0  0  0  0  0  0  0  0
  142.5980   76.5050  219.5290 C   0  0  0  0  0  0  0  0  0  0  0  0
  142.4000   77.1740  218.1620 C   0  0  0  0  0  0  0  0  0  0  0  0
  142.2690   78.6560  218.2550 C   0  0  0  0  0  0  0  0  0  0  0  0
  141.8400   79.0550  219.6240 C   0  0  0  0  0  0  0  0  0  0  0  0
  140.8230   78.0660  220.1970 C   0  0  2  0  0  0  0  0  0  0  0  0
  140.3160   78.5880  221.5050 C   0  0  0  0  0  0  0  0  0  0  0  0
  141.1890   79.1380  222.4300 C   0  0  0  0  0  0  0  0  0  0  0  0
  140.6660   79.6080  223.6260 C   0  0  0  0  0  0  0  0  0  0  0  0
  139.2910   79.5000  223.8310 C   0  0  0  0  0  0  0  0  0  0  0  0
  138.4860   78.9560  222.8950 N   0  0  0  0  0  0  0  0  0  0  0  0
  138.9580   78.4900  221.7240 C   0  0  0  0  0  0  0  0  0  0  0  0
  140.1860   71.5350  223.3570 C   0  0  0  0  0  0  0  0  0  0  0  0
  139.5010   70.3540  223.2840 C   0  0  0  0  0  0  0  0  0  0  0  0
  139.2890   69.5410  224.4020 C   0  0  0  0  0  0  0  0  0  0  0  0
  139.7960   69.9580  225.6130 C   0  0  0  0  0  0  0  0  0  0  0  0
  139.6310   69.2120  226.7690 C   0  0  0  0  0  0  0  0  0  0  0  0
  140.1630   69.6750  227.9710 C   0  0  0  0  0  0  0  0  0  0  0  0
  139.9800   68.9160  229.0810 F   0  0  0  0  0  0  0  0  0  0  0  0
  140.8550   70.8800  228.0150 C   0  0  0  0  0  0  0  0  0  0  0  0
  141.0230   71.6300  226.8640 C   0  0  0  0  0  0  0  0  0  0  0  0
  140.4870   71.1510  225.6800 C   0  0  0  0  0  0  0  0  0  0  0  0
  140.6620   71.8930  224.5770 N   0  0  0  0  0  0  0  0  0  0  0  0
  139.4920   74.0810  223.1330 H   0  0  0  0  0  0  0  0  0  0  0  0
  140.6099   74.0583  220.3334 H   0  0  0  0  0  0  0  0  0  0  0  0
  139.0974   74.9903  220.9408 H   0  0  0  0  0  0  0  0  0  0  0  0
  143.4893   76.9288  220.0149 H   0  0  0  0  0  0  0  0  0  0  0  0
  142.7279   75.4226  219.3826 H   0  0  0  0  0  0  0  0  0  0  0  0
  143.2662   76.9374  217.5267 H   0  0  0  0  0  0  0  0  0  0  0  0
  141.4626   76.7858  217.7372 H   0  0  0  0  0  0  0  0  0  0  0  0
  143.2404   79.1204  218.0300 H   0  0  0  0  0  0  0  0  0  0  0  0
  141.5119   78.9931  217.5317 H   0  0  0  0  0  0  0  0  0  0  0  0
  142.7213   79.0844  220.2816 H   0  0  0  0  0  0  0  0  0  0  0  0
  141.3661   80.0459  219.5648 H   0  0  0  0  0  0  0  0  0  0  0  0
  139.9790   77.9588  219.4998 H   0  0  0  0  0  0  0  0  0  0  0  0
  142.2673   79.2003  222.2217 H   0  0  0  0  0  0  0  0  0  0  0  0
  141.3182   80.0536  224.3916 H   0  0  0  0  0  0  0  0  0  0  0  0
  138.8549   79.8649  224.7726 H   0  0  0  0  0  0  0  0  0  0  0  0
  138.2875   78.0487  220.9718 H   0  0  0  0  0  0  0  0  0  0  0  0
  139.1023   70.0317  222.3108 H   0  0  0  0  0  0  0  0  0  0  0  0
  138.7333   68.5955  224.3167 H   0  0  0  0  0  0  0  0  0  0  0  0
  139.0827   68.2589  226.7381 H   0  0  0  0  0  0  0  0  0  0  0  0
  141.2706   71.2387  228.9682 H   0  0  0  0  0  0  0  0  0  0  0  0
  141.5695   72.5843  226.8889 H   0  0  0  0  0  0  0  0  0  0  0  0
  1  2  2  0
  2  3  1  0
  3  4  1  0
  4  5  1  0
  5  6  2  0
  5  7  1  0
  7  8  1  0
  8  9  1  0
  9 10  1  0
 10 11  1  0
 11 12  1  0
 12 13  1  0
 13 14  2  0
 14 15  1  0
 15 16  2  0
 16 17  1  0
 17 18  2  0
  2 19  1  0
 19 20  2  0
 20 21  1  0
 21 22  2  0
 22 23  1  0
 23 24  2  0
 24 25  1  0
 24 26  1  0
 26 27  2  0
 27 28  1  0
 28 29  2  0
 12  7  1  0
 18 13  1  0
 29 19  1  0
 28 22  1  0
  3 30  1  0
  4 31  1  0
  4 32  1  0
  8 33  1  0
  8 34  1  0
  9 35  1  0
  9 36  1  0
 10 37  1  0
 10 38  1  0
 11 39  1  0
 11 40  1  0
 12 41  1  6
 14 42  1  0
 15 43  1  0
 16 44  1  0
 18 45  1  0
 20 46  1  0
 21 47  1  0
 23 48  1  0
 26 49  1  0
 27 50  1  0
M  END
>  <smiles>  (25) 
O=C(NCC(=O)N1CCCCC1c1cccnc1)c1ccc2cc(F)ccc2n1

>  <score_type>  (25) 
oracle

>  <origin>  (25) 
autodockgpu

>  <m_score__min__energy>  (25) 
-8.4299999999999997

>  <m_primary>  (25) 
energy

>  <rmsd>  (25) 
2.2142050084477143

>  <m_score__min__rmsd>  (25) 
2.2142050084477143

>  <meeko>  (25) 
{"free_energy": -8.23, "intermolecular_energy": -9.73, "internal_energy": -1.28, "cluster_size": 22, "cluster_id": 2, "rank_in_cluster": 18}

>  <energy>  (25) 
-8.36

>  <cluster_rmsd>  (25) 
0.13

>  <cluster>  (25) 
2

$$$$

     RDKit          3D

 50 53  0  0  0  0  0  0  0  0999 V2000
  141.1150   71.9830  221.2270 O   0  0  0  0  0  0  0  0  0  0  0  0
  140.4060   72.3680  222.2190 C   0  0  0  0  0  0  0  0  0  0  0  0
  139.7630   73.6550  222.2080 N   0  0  0  0  0  0  0  0  0  0  0  0
  139.8830   74.5480  221.1000 C   0  0  0  0  0  0  0  0  0  0  0  0
  140.8720   75.6110  221.1350 C   0  0  0  0  0  0  0  0  0  0  0  0
  141.4200   75.7820  222.3040 O   0  0  0  0  0  0  0  0  0  0  0  0
  141.3320   76.4800  220.1400 N   0  0  0  0  0  0  0  0  0  0  0  0
  140.5810   77.4990  219.4400 C   0  0  0  0  0  0  0  0  0  0  0  0
  141.4740   78.7130  219.1530 C   0  0  0  0  0  0  0  0  0  0  0  0
  142.6230   78.3900  218.2590 C   0  0  0  0  0  0  0  0  0  0  0  0
  142.9190   76.9320  218.2990 C   0  0  0  0  0  0  0  0  0  0  0  0
  142.7460   76.3690  219.7110 C   0  0  2  0  0  0  0  0  0  0  0  0
  143.1950   74.9410  219.7270 C   0  0  0  0  0  0  0  0  0  0  0  0
  144.2630   74.5470  220.5160 C   0  0  0  0  0  0  0  0  0  0  0  0
  144.6360   73.2100  220.4930 C   0  0  0  0  0  0  0  0  0  0  0  0
  143.9160   72.3400  219.6780 C   0  0  0  0  0  0  0  0  0  0  0  0
  142.8820   72.7770  218.9310 N   0  0  0  0  0  0  0  0  0  0  0  0
  142.4920   74.0650  218.9260 C   0  0  0  0  0  0  0  0  0  0  0  0
  140.2260   71.5200  223.3890 C   0  0  0  0  0  0  0  0  0  0  0  0
  139.5840   70.3150  223.3150 C   0  0  0  0  0  0  0  0  0  0  0  0
  139.4040   69.4920  224.4320 C   0  0  0  0  0  0  0  0  0  0  0  0
  139.8970   69.9250  225.6420 C   0  0  0  0  0  0  0  0  0  0  0  0
  139.7610   69.1710  226.7980 C   0  0  0  0  0  0  0  0  0  0  0  0
  140.2760   69.6510  228.0000 C   0  0  0  0  0  0  0  0  0  0  0  0
  140.1230   68.8840  229.1090 F   0  0  0  0  0  0  0  0  0  0  0  0
  140.9240   70.8810  228.0460 C   0  0  0  0  0  0  0  0  0  0  0  0
  141.0630   71.6390  226.8950 C   0  0  0  0  0  0  0  0  0  0  0  0
  140.5440   71.1430  225.7120 C   0  0  0  0  0  0  0  0  0  0  0  0
  140.6890   71.8930  224.6100 N   0  0  0  0  0  0  0  0  0  0  0  0
  139.1880   73.9330  223.0570 H   0  0  0  0  0  0  0  0  0  0  0  0
  140.1083   73.9319  220.2170 H   0  0  0  0  0  0  0  0  0  0  0  0
  138.9255   75.0895  221.1033 H   0  0  0  0  0  0  0  0  0  0  0  0
  140.2100   77.0882  218.4894 H   0  0  0  0  0  0  0  0  0  0  0  0
  139.7354   77.8162  220.0679 H   0  0  0  0  0  0  0  0  0  0  0  0
  140.8637   79.4919  218.6726 H   0  0  0  0  0  0  0  0  0  0  0  0
  141.8886   79.0522  220.1138 H   0  0  0  0  0  0  0  0  0  0  0  0
  142.3727   78.6807  217.2281 H   0  0  0  0  0  0  0  0  0  0  0  0
  143.5092   78.9431  218.6037 H   0  0  0  0  0  0  0  0  0  0  0  0
  142.2326   76.4080  217.6176 H   0  0  0  0  0  0  0  0  0  0  0  0
  143.9639   76.7809  217.9902 H   0  0  0  0  0  0  0  0  0  0  0  0
  143.3595   76.9482  220.4168 H   0  0  0  0  0  0  0  0  0  0  0  0
  144.8006   75.2732  221.1434 H   0  0  0  0  0  0  0  0  0  0  0  0
  145.4774   72.8476  221.1019 H   0  0  0  0  0  0  0  0  0  0  0  0
  144.1960   71.2768  219.6430 H   0  0  0  0  0  0  0  0  0  0  0  0
  141.6475   74.4053  218.3087 H   0  0  0  0  0  0  0  0  0  0  0  0
  139.1949   69.9806  222.3420 H   0  0  0  0  0  0  0  0  0  0  0  0
  138.8835   68.5268  224.3457 H   0  0  0  0  0  0  0  0  0  0  0  0
  139.2487   68.1981  226.7659 H   0  0  0  0  0  0  0  0  0  0  0  0
  141.3273   71.2529  228.9994 H   0  0  0  0  0  0  0  0  0  0  0  0
  141.5741   72.6127  226.9208 H   0  0  0  0  0  0  0  0  0  0  0  0
  1  2  2  0
  2  3  1  0
  3  4  1  0
  4  5  1  0
  5  6  2  0
  5  7  1  0
  7  8  1  0
  8  9  1  0
  9 10  1  0
 10 11  1  0
 11 12  1  0
 12 13  1  0
 13 14  2  0
 14 15  1  0
 15 16  2  0
 16 17  1  0
 17 18  2  0
  2 19  1  0
 19 20  2  0
 20 21  1  0
 21 22  2  0
 22 23  1  0
 23 24  2  0
 24 25  1  0
 24 26  1  0
 26 27  2  0
 27 28  1  0
 28 29  2  0
 12  7  1  0
 18 13  1  0
 29 19  1  0
 28 22  1  0
  3 30  1  0
  4 31  1  0
  4 32  1  0
  8 33  1  0
  8 34  1  0
  9 35  1  0
  9 36  1  0
 10 37  1  0
 10 38  1  0
 11 39  1  0
 11 40  1  0
 12 41  1  1
 14 42  1  0
 15 43  1  0
 16 44  1  0
 18 45  1  0
 20 46  1  0
 21 47  1  0
 23 48  1  0
 26 49  1  0
 27 50  1  0
M  END
>  <smiles>  (26) 
O=C(NCC(=O)N1CCCCC1c1cccnc1)c1ccc2cc(F)ccc2n1

>  <score_type>  (26) 
oracle

>  <origin>  (26) 
autodockgpu

>  <m_score__min__energy>  (26) 
-8.4299999999999997

>  <m_primary>  (26) 
energy

>  <rmsd>  (26) 
2.0321290921646504

>  <m_score__min__rmsd>  (26) 
2.0321290921646504

>  <meeko>  (26) 
{"free_energy": -7.93, "intermolecular_energy": -9.42, "internal_energy": -1.66, "cluster_size": 22, "cluster_id": 1, "rank_in_cluster": 7}

>  <energy>  (26) 
-8.36

>  <cluster_rmsd>  (26) 
0.08

>  <cluster>  (26) 
2

$$$$

     RDKit          3D

 50 53  0  0  0  0  0  0  0  0999 V2000
  141.4140   72.4850  221.5990 O   0  0  0  0  0  0  0  0  0  0  0  0
  140.4290   72.6090  222.4050 C   0  0  0  0  0  0  0  0  0  0  0  0
  139.4970   73.6950  222.2660 N   0  0  0  0  0  0  0  0  0  0  0  0
  139.6260   74.6710  221.2300 C   0  0  0  0  0  0  0  0  0  0  0  0
  140.7960   75.5300  221.1900 C   0  0  0  0  0  0  0  0  0  0  0  0
  141.4080   75.6380  222.3350 O   0  0  0  0  0  0  0  0  0  0  0  0
  141.3730   76.2590  220.1460 N   0  0  0  0  0  0  0  0  0  0  0  0
  142.2920   75.7810  219.1370 C   0  0  0  0  0  0  0  0  0  0  0  0
  142.0200   76.4780  217.7980 C   0  0  0  0  0  0  0  0  0  0  0  0
  142.2370   77.9520  217.8570 C   0  0  0  0  0  0  0  0  0  0  0  0
  142.1410   78.4360  219.2620 C   0  0  0  0  0  0  0  0  0  0  0  0
  141.0410   77.6990  220.0280 C   0  0  2  0  0  0  0  0  0  0  0  0
  140.8880   78.3200  221.3820 C   0  0  0  0  0  0  0  0  0  0  0  0
  141.9920   78.8050  222.0640 C   0  0  0  0  0  0  0  0  0  0  0  0
  141.7930   79.3720  223.3140 C   0  0  0  0  0  0  0  0  0  0  0  0
  140.4930   79.4210  223.8150 C   0  0  0  0  0  0  0  0  0  0  0  0
  139.4530   78.9340  223.1080 N   0  0  0  0  0  0  0  0  0  0  0  0
  139.6080   78.3770  221.8920 C   0  0  0  0  0  0  0  0  0  0  0  0
  140.2180   71.6580  223.4880 C   0  0  0  0  0  0  0  0  0  0  0  0
  139.5320   70.4900  223.2990 C   0  0  0  0  0  0  0  0  0  0  0  0
  139.3220   69.5690  224.3320 C   0  0  0  0  0  0  0  0  0  0  0  0
  139.8320   69.8630  225.5760 C   0  0  0  0  0  0  0  0  0  0  0  0
  139.6700   69.0050  226.6530 C   0  0  0  0  0  0  0  0  0  0  0  0
  140.2050   69.3460  227.8940 C   0  0  0  0  0  0  0  0  0  0  0  0
  140.0240   68.4800  228.9230 F   0  0  0  0  0  0  0  0  0  0  0  0
  140.8980   70.5400  228.0560 C   0  0  0  0  0  0  0  0  0  0  0  0
  141.0640   71.4010  226.9840 C   0  0  0  0  0  0  0  0  0  0  0  0
  140.5250   71.0430  225.7610 C   0  0  0  0  0  0  0  0  0  0  0  0
  140.6970   71.8920  224.7370 N   0  0  0  0  0  0  0  0  0  0  0  0
  138.6970   73.7600  222.9620 H   0  0  0  0  0  0  0  0  0  0  0  0
  139.5974   74.1269  220.2744 H   0  0  0  0  0  0  0  0  0  0  0  0
  138.8024   75.3709  221.4347 H   0  0  0  0  0  0  0  0  0  0  0  0
  143.3232   75.9946  219.4547 H   0  0  0  0  0  0  0  0  0  0  0  0
  142.1540   74.6970  219.0113 H   0  0  0  0  0  0  0  0  0  0  0  0
  142.6934   76.0541  217.0384 H   0  0  0  0  0  0  0  0  0  0  0  0
  140.9624   76.3096  217.5469 H   0  0  0  0  0  0  0  0  0  0  0  0
  143.2356   78.1873  217.4602 H   0  0  0  0  0  0  0  0  0  0  0  0
  141.4633   78.4505  217.2547 H   0  0  0  0  0  0  0  0  0  0  0  0
  143.1040   78.2670  219.7661 H   0  0  0  0  0  0  0  0  0  0  0  0
  141.8946   79.5079  219.2447 H   0  0  0  0  0  0  0  0  0  0  0  0
  140.0900   77.7836  219.4817 H   0  0  0  0  0  0  0  0  0  0  0  0
  142.9991   78.7421  221.6260 H   0  0  0  0  0  0  0  0  0  0  0  0
  142.6377   79.7720  223.8941 H   0  0  0  0  0  0  0  0  0  0  0  0
  140.3122   79.8650  224.8051 H   0  0  0  0  0  0  0  0  0  0  0  0
  138.7490   77.9836  221.3286 H   0  0  0  0  0  0  0  0  0  0  0  0
  139.1309   70.2663  222.2994 H   0  0  0  0  0  0  0  0  0  0  0  0
  138.7653   68.6370  224.1546 H   0  0  0  0  0  0  0  0  0  0  0  0
  139.1218   68.0595  226.5286 H   0  0  0  0  0  0  0  0  0  0  0  0
  141.3160   70.8020  229.0392 H   0  0  0  0  0  0  0  0  0  0  0  0
  141.6117   72.3476  227.1021 H   0  0  0  0  0  0  0  0  0  0  0  0
  1  2  2  0
  2  3  1  0
  3  4  1  0
  4  5  1  0
  5  6  2  0
  5  7  1  0
  7  8  1  0
  8  9  1  0
  9 10  1  0
 10 11  1  0
 11 12  1  0
 12 13  1  0
 13 14  2  0
 14 15  1  0
 15 16  2  0
 16 17  1  0
 17 18  2  0
  2 19  1  0
 19 20  2  0
 20 21  1  0
 21 22  2  0
 22 23  1  0
 23 24  2  0
 24 25  1  0
 24 26  1  0
 26 27  2  0
 27 28  1  0
 28 29  2  0
 12  7  1  0
 18 13  1  0
 29 19  1  0
 28 22  1  0
  3 30  1  0
  4 31  1  0
  4 32  1  0
  8 33  1  0
  8 34  1  0
  9 35  1  0
  9 36  1  0
 10 37  1  0
 10 38  1  0
 11 39  1  0
 11 40  1  0
 12 41  1  6
 14 42  1  0
 15 43  1  0
 16 44  1  0
 18 45  1  0
 20 46  1  0
 21 47  1  0
 23 48  1  0
 26 49  1  0
 27 50  1  0
M  END
>  <smiles>  (27) 
O=C(NCC(=O)N1CCCCC1c1cccnc1)c1ccc2cc(F)ccc2n1

>  <score_type>  (27) 
oracle

>  <origin>  (27) 
autodockgpu

>  <m_score__min__energy>  (27) 
-8.4299999999999997

>  <m_primary>  (27) 
energy

>  <rmsd>  (27) 
1.9328240953133118

>  <m_score__min__rmsd>  (27) 
1.9328240953133118

>  <meeko>  (27) 
{"free_energy": -8.33, "intermolecular_energy": -9.83, "internal_energy": -1.26, "cluster_size": 22, "cluster_id": 2, "rank_in_cluster": 9}

>  <energy>  (27) 
-8.35

>  <cluster_rmsd>  (27) 
0.23

>  <cluster>  (27) 
2

$$$$

     RDKit          3D

 50 53  0  0  0  0  0  0  0  0999 V2000
  140.7510   71.8090  221.0350 O   0  0  0  0  0  0  0  0  0  0  0  0
  140.2880   72.2960  222.1230 C   0  0  0  0  0  0  0  0  0  0  0  0
  139.9210   73.6840  222.2100 N   0  0  0  0  0  0  0  0  0  0  0  0
  140.0530   74.5690  221.0970 C   0  0  0  0  0  0  0  0  0  0  0  0
  140.9760   75.6880  221.1710 C   0  0  0  0  0  0  0  0  0  0  0  0
  141.3150   76.0110  222.3870 O   0  0  0  0  0  0  0  0  0  0  0  0
  141.5570   76.4760  220.1720 N   0  0  0  0  0  0  0  0  0  0  0  0
  142.5810   76.0910  219.2270 C   0  0  0  0  0  0  0  0  0  0  0  0
  142.3410   76.7760  217.8750 C   0  0  0  0  0  0  0  0  0  0  0  0
  142.4220   78.2630  217.9560 C   0  0  0  0  0  0  0  0  0  0  0  0
  142.1880   78.7220  219.3530 C   0  0  0  0  0  0  0  0  0  0  0  0
  141.1080   77.8820  220.0390 C   0  0  2  0  0  0  0  0  0  0  0  0
  140.8090   78.4730  221.3820 C   0  0  0  0  0  0  0  0  0  0  0  0
  139.5130   78.4890  221.8710 C   0  0  0  0  0  0  0  0  0  0  0  0
  139.2920   79.0480  223.1220 C   0  0  0  0  0  0  0  0  0  0  0  0
  140.3860   79.5610  223.8160 C   0  0  0  0  0  0  0  0  0  0  0  0
  141.6290   79.5180  223.2920 N   0  0  0  0  0  0  0  0  0  0  0  0
  141.8810   78.9850  222.0830 C   0  0  0  0  0  0  0  0  0  0  0  0
  140.1150   71.4640  223.3070 C   0  0  0  0  0  0  0  0  0  0  0  0
  139.5440   70.2240  223.2410 C   0  0  0  0  0  0  0  0  0  0  0  0
  139.3730   69.4170  224.3700 C   0  0  0  0  0  0  0  0  0  0  0  0
  139.8000   69.9030  225.5850 C   0  0  0  0  0  0  0  0  0  0  0  0
  139.6680   69.1680  226.7530 C   0  0  0  0  0  0  0  0  0  0  0  0
  140.1160   69.7020  227.9600 C   0  0  0  0  0  0  0  0  0  0  0  0
  139.9690   68.9520  229.0810 F   0  0  0  0  0  0  0  0  0  0  0  0
  140.6930   70.9670  227.9970 C   0  0  0  0  0  0  0  0  0  0  0  0
  140.8280   71.7060  226.8340 C   0  0  0  0  0  0  0  0  0  0  0  0
  140.3770   71.1560  225.6460 C   0  0  0  0  0  0  0  0  0  0  0  0
  140.5170   71.8890  224.5320 N   0  0  0  0  0  0  0  0  0  0  0  0
  139.5440   74.0440  223.1360 H   0  0  0  0  0  0  0  0  0  0  0  0
  140.3632   73.9563  220.2377 H   0  0  0  0  0  0  0  0  0  0  0  0
  139.0675   75.0542  221.0383 H   0  0  0  0  0  0  0  0  0  0  0  0
  143.5653   76.3905  219.6161 H   0  0  0  0  0  0  0  0  0  0  0  0
  142.5477   75.0004  219.0871 H   0  0  0  0  0  0  0  0  0  0  0  0
  143.0999   76.4214  217.1621 H   0  0  0  0  0  0  0  0  0  0  0  0
  141.3223   76.5178  217.5501 H   0  0  0  0  0  0  0  0  0  0  0  0
  143.4205   78.5896  217.6300 H   0  0  0  0  0  0  0  0  0  0  0  0
  141.6497   78.6977  217.3043 H   0  0  0  0  0  0  0  0  0  0  0  0
  143.1257   78.6339  219.9213 H   0  0  0  0  0  0  0  0  0  0  0  0
  141.8487   79.7679  219.3233 H   0  0  0  0  0  0  0  0  0  0  0  0
  140.1923   77.8880  219.4295 H   0  0  0  0  0  0  0  0  0  0  0  0
  138.6822   78.0703  221.2841 H   0  0  0  0  0  0  0  0  0  0  0  0
  138.2810   79.0850  223.5538 H   0  0  0  0  0  0  0  0  0  0  0  0
  140.2338   80.0092  224.8090 H   0  0  0  0  0  0  0  0  0  0  0  0
  142.9003   78.9585  221.6702 H   0  0  0  0  0  0  0  0  0  0  0  0
  139.2067   69.8472  222.2642 H   0  0  0  0  0  0  0  0  0  0  0  0
  138.9105   68.4222  224.2895 H   0  0  0  0  0  0  0  0  0  0  0  0
  139.2116   68.1675  226.7273 H   0  0  0  0  0  0  0  0  0  0  0  0
  141.0433   71.3818  228.9537 H   0  0  0  0  0  0  0  0  0  0  0  0
  141.2832   72.7072  226.8533 H   0  0  0  0  0  0  0  0  0  0  0  0
  1  2  2  0
  2  3  1  0
  3  4  1  0
  4  5  1  0
  5  6  2  0
  5  7  1  0
  7  8  1  0
  8  9  1  0
  9 10  1  0
 10 11  1  0
 11 12  1  0
 12 13  1  0
 13 14  2  0
 14 15  1  0
 15 16  2  0
 16 17  1  0
 17 18  2  0
  2 19  1  0
 19 20  2  0
 20 21  1  0
 21 22  2  0
 22 23  1  0
 23 24  2  0
 24 25  1  0
 24 26  1  0
 26 27  2  0
 27 28  1  0
 28 29  2  0
 12  7  1  0
 18 13  1  0
 29 19  1  0
 28 22  1  0
  3 30  1  0
  4 31  1  0
  4 32  1  0
  8 33  1  0
  8 34  1  0
  9 35  1  0
  9 36  1  0
 10 37  1  0
 10 38  1  0
 11 39  1  0
 11 40  1  0
 12 41  1  6
 14 42  1  0
 15 43  1  0
 16 44  1  0
 18 45  1  0
 20 46  1  0
 21 47  1  0
 23 48  1  0
 26 49  1  0
 27 50  1  0
M  END
>  <smiles>  (28) 
O=C(NCC(=O)N1CCCCC1c1cccnc1)c1ccc2cc(F)ccc2n1

>  <score_type>  (28) 
oracle

>  <origin>  (28) 
autodockgpu

>  <m_score__min__energy>  (28) 
-8.4299999999999997

>  <m_primary>  (28) 
energy

>  <rmsd>  (28) 
2.0632870289995497

>  <m_score__min__rmsd>  (28) 
2.0632870289995497

>  <meeko>  (28) 
{"free_energy": -8.16, "intermolecular_energy": -9.65, "internal_energy": -1.31, "cluster_size": 22, "cluster_id": 2, "rank_in_cluster": 21}

>  <energy>  (28) 
-8.35

>  <cluster_rmsd>  (28) 
0.11

>  <cluster>  (28) 
2

$$$$

     RDKit          3D

 50 53  0  0  0  0  0  0  0  0999 V2000
  141.3790   72.3280  221.5900 O   0  0  0  0  0  0  0  0  0  0  0  0
  140.4380   72.5310  222.4320 C   0  0  0  0  0  0  0  0  0  0  0  0
  139.5690   73.6700  222.3040 N   0  0  0  0  0  0  0  0  0  0  0  0
  139.7150   74.6130  221.2410 C   0  0  0  0  0  0  0  0  0  0  0  0
  140.7370   75.6410  221.3240 C   0  0  0  0  0  0  0  0  0  0  0  0
  141.0850   75.9400  222.5430 O   0  0  0  0  0  0  0  0  0  0  0  0
  141.4050   76.3640  220.3300 N   0  0  0  0  0  0  0  0  0  0  0  0
  142.4430   75.8920  219.4410 C   0  0  0  0  0  0  0  0  0  0  0  0
  142.3010   76.5500  218.0620 C   0  0  0  0  0  0  0  0  0  0  0  0
  142.4670   78.0310  218.1060 C   0  0  0  0  0  0  0  0  0  0  0  0
  142.2030   78.5430  219.4790 C   0  0  0  0  0  0  0  0  0  0  0  0
  141.0470   77.7890  220.1390 C   0  0  2  0  0  0  0  0  0  0  0  0
  140.7280   78.4360  221.4520 C   0  0  0  0  0  0  0  0  0  0  0  0
  139.4160   78.5450  221.8830 C   0  0  0  0  0  0  0  0  0  0  0  0
  139.1770   79.1520  223.1070 C   0  0  0  0  0  0  0  0  0  0  0  0
  140.2700   79.6180  223.8350 C   0  0  0  0  0  0  0  0  0  0  0  0
  141.5280   79.4860  223.3680 N   0  0  0  0  0  0  0  0  0  0  0  0
  141.7980   78.9030  222.1850 C   0  0  0  0  0  0  0  0  0  0  0  0
  140.2140   71.6180  223.5450 C   0  0  0  0  0  0  0  0  0  0  0  0
  139.5220   70.4490  223.3910 C   0  0  0  0  0  0  0  0  0  0  0  0
  139.2990   69.5650  224.4530 C   0  0  0  0  0  0  0  0  0  0  0  0
  139.8030   69.8970  225.6900 C   0  0  0  0  0  0  0  0  0  0  0  0
  139.6290   69.0780  226.7940 C   0  0  0  0  0  0  0  0  0  0  0  0
  140.1570   69.4570  228.0260 C   0  0  0  0  0  0  0  0  0  0  0  0
  139.9650   68.6280  229.0830 F   0  0  0  0  0  0  0  0  0  0  0  0
  140.8570   70.6520  228.1530 C   0  0  0  0  0  0  0  0  0  0  0  0
  141.0350   71.4750  227.0540 C   0  0  0  0  0  0  0  0  0  0  0  0
  140.5020   71.0790  225.8390 C   0  0  0  0  0  0  0  0  0  0  0  0
  140.6860   71.8910  224.7880 N   0  0  0  0  0  0  0  0  0  0  0  0
  138.8040   73.7990  223.0300 H   0  0  0  0  0  0  0  0  0  0  0  0
  139.9184   74.0346  220.3277 H   0  0  0  0  0  0  0  0  0  0  0  0
  138.7754   75.1839  221.2755 H   0  0  0  0  0  0  0  0  0  0  0  0
  143.4263   76.1446  219.8644 H   0  0  0  0  0  0  0  0  0  0  0  0
  142.3506   74.8016  219.3291 H   0  0  0  0  0  0  0  0  0  0  0  0
  143.0665   76.1307  217.3925 H   0  0  0  0  0  0  0  0  0  0  0  0
  141.2830   76.3425  217.7005 H   0  0  0  0  0  0  0  0  0  0  0  0
  143.4958   78.2891  217.8147 H   0  0  0  0  0  0  0  0  0  0  0  0
  141.7500   78.4909  217.4100 H   0  0  0  0  0  0  0  0  0  0  0  0
  143.1091   78.4158  220.0895 H   0  0  0  0  0  0  0  0  0  0  0  0
  141.9291   79.6059  219.4072 H   0  0  0  0  0  0  0  0  0  0  0  0
  140.1599   77.8309  219.4899 H   0  0  0  0  0  0  0  0  0  0  0  0
  138.5865   78.1607  221.2713 H   0  0  0  0  0  0  0  0  0  0  0  0
  138.1527   79.2625  223.4925 H   0  0  0  0  0  0  0  0  0  0  0  0
  140.1035   80.1024  224.8085 H   0  0  0  0  0  0  0  0  0  0  0  0
  142.8303   78.8033  221.8183 H   0  0  0  0  0  0  0  0  0  0  0  0
  139.1263   70.1940  222.3968 H   0  0  0  0  0  0  0  0  0  0  0  0
  138.7369   68.6314  224.3033 H   0  0  0  0  0  0  0  0  0  0  0  0
  139.0759   68.1320  226.6979 H   0  0  0  0  0  0  0  0  0  0  0  0
  141.2705   70.9442  229.1296 H   0  0  0  0  0  0  0  0  0  0  0  0
  141.5873   72.4220  227.1440 H   0  0  0  0  0  0  0  0  0  0  0  0
  1  2  2  0
  2  3  1  0
  3  4  1  0
  4  5  1  0
  5  6  2  0
  5  7  1  0
  7  8  1  0
  8  9  1  0
  9 10  1  0
 10 11  1  0
 11 12  1  0
 12 13  1  0
 13 14  2  0
 14 15  1  0
 15 16  2  0
 16 17  1  0
 17 18  2  0
  2 19  1  0
 19 20  2  0
 20 21  1  0
 21 22  2  0
 22 23  1  0
 23 24  2  0
 24 25  1  0
 24 26  1  0
 26 27  2  0
 27 28  1  0
 28 29  2  0
 12  7  1  0
 18 13  1  0
 29 19  1  0
 28 22  1  0
  3 30  1  0
  4 31  1  0
  4 32  1  0
  8 33  1  0
  8 34  1  0
  9 35  1  0
  9 36  1  0
 10 37  1  0
 10 38  1  0
 11 39  1  0
 11 40  1  0
 12 41  1  6
 14 42  1  0
 15 43  1  0
 16 44  1  0
 18 45  1  0
 20 46  1  0
 21 47  1  0
 23 48  1  0
 26 49  1  0
 27 50  1  0
M  END
>  <smiles>  (29) 
O=C(NCC(=O)N1CCCCC1c1cccnc1)c1ccc2cc(F)ccc2n1

>  <score_type>  (29) 
oracle

>  <origin>  (29) 
autodockgpu

>  <m_score__min__energy>  (29) 
-8.4299999999999997

>  <m_primary>  (29) 
energy

>  <rmsd>  (29) 
2.0346362720293834

>  <m_score__min__rmsd>  (29) 
2.0346362720293834

>  <meeko>  (29) 
{"free_energy": -8.3, "intermolecular_energy": -9.79, "internal_energy": -1.2, "cluster_size": 22, "cluster_id": 2, "rank_in_cluster": 11}

>  <energy>  (29) 
-8.35

>  <cluster_rmsd>  (29) 
0.26

>  <cluster>  (29) 
2

$$$$

     RDKit          3D

 50 53  0  0  0  0  0  0  0  0999 V2000
  141.1810   72.0450  221.2550 O   0  0  0  0  0  0  0  0  0  0  0  0
  140.4430   72.4190  222.2300 C   0  0  0  0  0  0  0  0  0  0  0  0
  139.7940   73.7020  222.2130 N   0  0  0  0  0  0  0  0  0  0  0  0
  139.9390   74.6050  221.1140 C   0  0  0  0  0  0  0  0  0  0  0  0
  140.9710   75.6260  221.1520 C   0  0  0  0  0  0  0  0  0  0  0  0
  141.4430   75.8530  222.3440 O   0  0  0  0  0  0  0  0  0  0  0  0
  141.5390   76.4050  220.1390 N   0  0  0  0  0  0  0  0  0  0  0  0
  142.5250   76.0010  219.1620 C   0  0  0  0  0  0  0  0  0  0  0  0
  142.2600   76.6970  217.8200 C   0  0  0  0  0  0  0  0  0  0  0  0
  142.3770   78.1810  217.9040 C   0  0  0  0  0  0  0  0  0  0  0  0
  142.1960   78.6390  219.3090 C   0  0  0  0  0  0  0  0  0  0  0  0
  141.1180   77.8210  220.0240 C   0  0  2  0  0  0  0  0  0  0  0  0
  140.8730   78.4130  221.3770 C   0  0  0  0  0  0  0  0  0  0  0  0
  141.9120   78.9750  222.1000 C   0  0  0  0  0  0  0  0  0  0  0  0
  141.6290   79.5100  223.3480 C   0  0  0  0  0  0  0  0  0  0  0  0
  140.3140   79.4510  223.8060 C   0  0  0  0  0  0  0  0  0  0  0  0
  139.3390   78.8920  223.0600 N   0  0  0  0  0  0  0  0  0  0  0  0
  139.5760   78.3630  221.8460 C   0  0  0  0  0  0  0  0  0  0  0  0
  140.2360   71.5610  223.3890 C   0  0  0  0  0  0  0  0  0  0  0  0
  139.5720   70.3690  223.2950 C   0  0  0  0  0  0  0  0  0  0  0  0
  139.3660   69.5370  224.4010 C   0  0  0  0  0  0  0  0  0  0  0  0
  139.8560   69.9460  225.6210 C   0  0  0  0  0  0  0  0  0  0  0  0
  139.6960   69.1820  226.7660 C   0  0  0  0  0  0  0  0  0  0  0  0
  140.2100   69.6380  227.9780 C   0  0  0  0  0  0  0  0  0  0  0  0
  140.0320   68.8610  229.0760 F   0  0  0  0  0  0  0  0  0  0  0  0
  140.8800   70.8540  228.0440 C   0  0  0  0  0  0  0  0  0  0  0  0
  141.0440   71.6220  226.9030 C   0  0  0  0  0  0  0  0  0  0  0  0
  140.5260   71.1500  225.7100 C   0  0  0  0  0  0  0  0  0  0  0  0
  140.6960   71.9100  224.6180 N   0  0  0  0  0  0  0  0  0  0  0  0
  139.1940   73.9710  223.0470 H   0  0  0  0  0  0  0  0  0  0  0  0
  140.1297   73.9920  220.2207 H   0  0  0  0  0  0  0  0  0  0  0  0
  139.0046   75.1850  221.1346 H   0  0  0  0  0  0  0  0  0  0  0  0
  143.5271   76.2766  219.5222 H   0  0  0  0  0  0  0  0  0  0  0  0
  142.4626   74.9121  219.0193 H   0  0  0  0  0  0  0  0  0  0  0  0
  142.9890   76.3284  217.0833 H   0  0  0  0  0  0  0  0  0  0  0  0
  141.2265   76.4631  217.5248 H   0  0  0  0  0  0  0  0  0  0  0  0
  143.3723   78.4864  217.5490 H   0  0  0  0  0  0  0  0  0  0  0  0
  141.5953   78.6358  217.2778 H   0  0  0  0  0  0  0  0  0  0  0  0
  143.1481   78.5267  219.8483 H   0  0  0  0  0  0  0  0  0  0  0  0
  141.8804   79.6926  219.2937 H   0  0  0  0  0  0  0  0  0  0  0  0
  140.1849   77.8501  219.4422 H   0  0  0  0  0  0  0  0  0  0  0  0
  142.9346   78.9965  221.6952 H   0  0  0  0  0  0  0  0  0  0  0  0
  142.4205   79.9681  223.9593 H   0  0  0  0  0  0  0  0  0  0  0  0
  140.0668   79.8677  224.7935 H   0  0  0  0  0  0  0  0  0  0  0  0
  138.7692   77.9093  221.2516 H   0  0  0  0  0  0  0  0  0  0  0  0
  139.1860   70.0530  222.3146 H   0  0  0  0  0  0  0  0  0  0  0  0
  138.8278   68.5831  224.2987 H   0  0  0  0  0  0  0  0  0  0  0  0
  139.1654   68.2196  226.7182 H   0  0  0  0  0  0  0  0  0  0  0  0
  141.2812   71.2075  229.0053 H   0  0  0  0  0  0  0  0  0  0  0  0
  141.5739   72.5851  226.9444 H   0  0  0  0  0  0  0  0  0  0  0  0
  1  2  2  0
  2  3  1  0
  3  4  1  0
  4  5  1  0
  5  6  2  0
  5  7  1  0
  7  8  1  0
  8  9  1  0
  9 10  1  0
 10 11  1  0
 11 12  1  0
 12 13  1  0
 13 14  2  0
 14 15  1  0
 15 16  2  0
 16 17  1  0
 17 18  2  0
  2 19  1  0
 19 20  2  0
 20 21  1  0
 21 22  2  0
 22 23  1  0
 23 24  2  0
 24 25  1  0
 24 26  1  0
 26 27  2  0
 27 28  1  0
 28 29  2  0
 12  7  1  0
 18 13  1  0
 29 19  1  0
 28 22  1  0
  3 30  1  0
  4 31  1  0
  4 32  1  0
  8 33  1  0
  8 34  1  0
  9 35  1  0
  9 36  1  0
 10 37  1  0
 10 38  1  0
 11 39  1  0
 11 40  1  0
 12 41  1  6
 14 42  1  0
 15 43  1  0
 16 44  1  0
 18 45  1  0
 20 46  1  0
 21 47  1  0
 23 48  1  0
 26 49  1  0
 27 50  1  0
M  END
>  <smiles>  (30) 
O=C(NCC(=O)N1CCCCC1c1cccnc1)c1ccc2cc(F)ccc2n1

>  <score_type>  (30) 
oracle

>  <origin>  (30) 
autodockgpu

>  <m_score__min__energy>  (30) 
-8.4299999999999997

>  <m_primary>  (30) 
energy

>  <rmsd>  (30) 
2.0440142802621724

>  <m_score__min__rmsd>  (30) 
2.0440142802621724

>  <meeko>  (30) 
{"free_energy": -8.35, "intermolecular_energy": -9.85, "internal_energy": -1.24, "cluster_size": 22, "cluster_id": 2, "rank_in_cluster": 5}

>  <energy>  (30) 
-8.34

>  <cluster_rmsd>  (30) 
0.1

>  <cluster>  (30) 
2

$$$$

     RDKit          3D

 50 53  0  0  0  0  0  0  0  0999 V2000
  139.8280   73.6290  222.3930 O   0  0  0  0  0  0  0  0  0  0  0  0
  140.0780   72.3820  222.2650 C   0  0  0  0  0  0  0  0  0  0  0  0
  140.3770   71.8190  220.9760 N   0  0  0  0  0  0  0  0  0  0  0  0
  140.4110   72.6210  219.7930 C   0  0  0  0  0  0  0  0  0  0  0  0
  141.6870   72.9600  219.1900 C   0  0  0  0  0  0  0  0  0  0  0  0
  141.5940   73.3720  217.9580 O   0  0  0  0  0  0  0  0  0  0  0  0
  142.9900   72.9190  219.6970 N   0  0  0  0  0  0  0  0  0  0  0  0
  143.7070   71.7680  220.1990 C   0  0  0  0  0  0  0  0  0  0  0  0
  145.1950   71.8700  219.8370 C   0  0  0  0  0  0  0  0  0  0  0  0
  145.8640   73.0490  220.4580 C   0  0  0  0  0  0  0  0  0  0  0  0
  144.8590   74.0880  220.8160 C   0  0  0  0  0  0  0  0  0  0  0  0
  143.7600   74.1850  219.7570 C   0  0  2  0  0  0  0  0  0  0  0  0
  142.8610   75.3360  220.0870 C   0  0  0  0  0  0  0  0  0  0  0  0
  142.9030   76.5000  219.3370 C   0  0  0  0  0  0  0  0  0  0  0  0
  142.0480   77.5350  219.6870 C   0  0  0  0  0  0  0  0  0  0  0  0
  141.1950   77.3460  220.7730 C   0  0  0  0  0  0  0  0  0  0  0  0
  141.1950   76.1910  221.4690 N   0  0  0  0  0  0  0  0  0  0  0  0
  142.0110   75.1660  221.1600 C   0  0  0  0  0  0  0  0  0  0  0  0
  140.0690   71.4900  223.4180 C   0  0  0  0  0  0  0  0  0  0  0  0
  139.5770   70.2170  223.3410 C   0  0  0  0  0  0  0  0  0  0  0  0
  139.5620   69.3520  224.4410 C   0  0  0  0  0  0  0  0  0  0  0  0
  140.0670   69.8140  225.6360 C   0  0  0  0  0  0  0  0  0  0  0  0
  140.0910   69.0220  226.7730 C   0  0  0  0  0  0  0  0  0  0  0  0
  140.6110   69.5340  227.9600 C   0  0  0  0  0  0  0  0  0  0  0  0
  140.6160   68.7280  229.0510 F   0  0  0  0  0  0  0  0  0  0  0  0
  141.1050   70.8330  228.0080 C   0  0  0  0  0  0  0  0  0  0  0  0
  141.0850   71.6290  226.8750 C   0  0  0  0  0  0  0  0  0  0  0  0
  140.5630   71.1010  225.7070 C   0  0  0  0  0  0  0  0  0  0  0  0
  140.5530   71.8890  224.6220 N   0  0  0  0  0  0  0  0  0  0  0  0
  140.5740   70.7770  220.9180 H   0  0  0  0  0  0  0  0  0  0  0  0
  139.8289   72.0860  219.0282 H   0  0  0  0  0  0  0  0  0  0  0  0
  140.0215   73.5926  220.1312 H   0  0  0  0  0  0  0  0  0  0  0  0
  143.6016   71.7232  221.2930 H   0  0  0  0  0  0  0  0  0  0  0  0
  143.2887   70.8583  219.7434 H   0  0  0  0  0  0  0  0  0  0  0  0
  145.7032   70.9569  220.1806 H   0  0  0  0  0  0  0  0  0  0  0  0
  145.2616   71.9897  218.7456 H   0  0  0  0  0  0  0  0  0  0  0  0
  146.3930   72.7280  221.3674 H   0  0  0  0  0  0  0  0  0  0  0  0
  146.5764   73.4756  219.7366 H   0  0  0  0  0  0  0  0  0  0  0  0
  144.4033   73.8279  221.7828 H   0  0  0  0  0  0  0  0  0  0  0  0
  145.3704   75.0600  220.8763 H   0  0  0  0  0  0  0  0  0  0  0  0
  144.2140   74.3530  218.7693 H   0  0  0  0  0  0  0  0  0  0  0  0
  143.5949   76.6008  218.4878 H   0  0  0  0  0  0  0  0  0  0  0  0
  142.0434   78.4792  219.1227 H   0  0  0  0  0  0  0  0  0  0  0  0
  140.5092   78.1539  221.0678 H   0  0  0  0  0  0  0  0  0  0  0  0
  142.0004   74.2311  221.7395 H   0  0  0  0  0  0  0  0  0  0  0  0
  139.1786   69.8597  222.3800 H   0  0  0  0  0  0  0  0  0  0  0  0
  139.1585   68.3324  224.3536 H   0  0  0  0  0  0  0  0  0  0  0  0
  139.7013   67.9939  226.7385 H   0  0  0  0  0  0  0  0  0  0  0  0
  141.5131   71.2297  228.9493 H   0  0  0  0  0  0  0  0  0  0  0  0
  141.4750   72.6572  226.9027 H   0  0  0  0  0  0  0  0  0  0  0  0
  1  2  2  0
  2  3  1  0
  3  4  1  0
  4  5  1  0
  5  6  2  0
  5  7  1  0
  7  8  1  0
  8  9  1  0
  9 10  1  0
 10 11  1  0
 11 12  1  0
 12 13  1  0
 13 14  2  0
 14 15  1  0
 15 16  2  0
 16 17  1  0
 17 18  2  0
  2 19  1  0
 19 20  2  0
 20 21  1  0
 21 22  2  0
 22 23  1  0
 23 24  2  0
 24 25  1  0
 24 26  1  0
 26 27  2  0
 27 28  1  0
 28 29  2  0
 12  7  1  0
 18 13  1  0
 29 19  1  0
 28 22  1  0
  3 30  1  0
  4 31  1  0
  4 32  1  0
  8 33  1  0
  8 34  1  0
  9 35  1  0
  9 36  1  0
 10 37  1  0
 10 38  1  0
 11 39  1  0
 11 40  1  0
 12 41  1  6
 14 42  1  0
 15 43  1  0
 16 44  1  0
 18 45  1  0
 20 46  1  0
 21 47  1  0
 23 48  1  0
 26 49  1  0
 27 50  1  0
M  END
>  <smiles>  (31) 
O=C(NCC(=O)N1CCCCC1c1cccnc1)c1ccc2cc(F)ccc2n1

>  <score_type>  (31) 
oracle

>  <origin>  (31) 
autodockgpu

>  <m_score__min__energy>  (31) 
-8.4299999999999997

>  <m_primary>  (31) 
energy

>  <rmsd>  (31) 
3.6657295363896387

>  <m_score__min__rmsd>  (31) 
3.6657295363896387

>  <meeko>  (31) 
{"free_energy": -7.91, "intermolecular_energy": -9.4, "internal_energy": -1.4, "cluster_size": 3, "cluster_id": 3, "rank_in_cluster": 2}

>  <energy>  (31) 
-8.33

>  <cluster_rmsd>  (31) 
0.14

>  <cluster>  (31) 
2

$$$$

     RDKit          3D

 50 53  0  0  0  0  0  0  0  0999 V2000
  141.4630   72.6120  221.8360 O   0  0  0  0  0  0  0  0  0  0  0  0
  140.4160   72.6350  222.5690 C   0  0  0  0  0  0  0  0  0  0  0  0
  139.3900   73.6210  222.3550 N   0  0  0  0  0  0  0  0  0  0  0  0
  139.4930   74.6040  221.3230 C   0  0  0  0  0  0  0  0  0  0  0  0
  140.5150   75.6320  221.4060 C   0  0  0  0  0  0  0  0  0  0  0  0
  140.7980   75.9950  222.6250 O   0  0  0  0  0  0  0  0  0  0  0  0
  141.2390   76.2990  220.4130 N   0  0  0  0  0  0  0  0  0  0  0  0
  142.2470   75.7500  219.5350 C   0  0  0  0  0  0  0  0  0  0  0  0
  142.1610   76.4070  218.1510 C   0  0  0  0  0  0  0  0  0  0  0  0
  142.4310   77.8720  218.1870 C   0  0  0  0  0  0  0  0  0  0  0  0
  142.1940   78.4120  219.5540 C   0  0  0  0  0  0  0  0  0  0  0  0
  140.9830   77.7450  220.2110 C   0  0  2  0  0  0  0  0  0  0  0  0
  140.7010   78.4220  221.5170 C   0  0  0  0  0  0  0  0  0  0  0  0
  141.7390   78.8020  222.3520 C   0  0  0  0  0  0  0  0  0  0  0  0
  141.4210   79.4260  223.5490 C   0  0  0  0  0  0  0  0  0  0  0  0
  140.0750   79.6350  223.8450 C   0  0  0  0  0  0  0  0  0  0  0  0
  139.1040   79.2450  222.9950 N   0  0  0  0  0  0  0  0  0  0  0  0
  139.3740   78.6370  221.8250 C   0  0  0  0  0  0  0  0  0  0  0  0
  140.2250   71.6690  223.6420 C   0  0  0  0  0  0  0  0  0  0  0  0
  139.5730   70.4840  223.4390 C   0  0  0  0  0  0  0  0  0  0  0  0
  139.3830   69.5490  224.4610 C   0  0  0  0  0  0  0  0  0  0  0  0
  139.8780   69.8440  225.7110 C   0  0  0  0  0  0  0  0  0  0  0  0
  139.7340   68.9730  226.7790 C   0  0  0  0  0  0  0  0  0  0  0  0
  140.2530   69.3160  228.0260 C   0  0  0  0  0  0  0  0  0  0  0  0
  140.0910   68.4370  229.0460 F   0  0  0  0  0  0  0  0  0  0  0  0
  140.9120   70.5280  228.2040 C   0  0  0  0  0  0  0  0  0  0  0  0
  141.0590   71.4030  227.1410 C   0  0  0  0  0  0  0  0  0  0  0  0
  140.5370   71.0420  225.9110 C   0  0  0  0  0  0  0  0  0  0  0  0
  140.6910   71.9040  224.8960 N   0  0  0  0  0  0  0  0  0  0  0  0
  138.5400   73.6050  222.9920 H   0  0  0  0  0  0  0  0  0  0  0  0
  139.6629   74.0610  220.3816 H   0  0  0  0  0  0  0  0  0  0  0  0
  138.5539   75.1695  221.4143 H   0  0  0  0  0  0  0  0  0  0  0  0
  143.2426   75.9361  219.9641 H   0  0  0  0  0  0  0  0  0  0  0  0
  142.0792   74.6680  219.4291 H   0  0  0  0  0  0  0  0  0  0  0  0
  142.8993   75.9301  217.4896 H   0  0  0  0  0  0  0  0  0  0  0  0
  141.1333   76.2696  217.7836 H   0  0  0  0  0  0  0  0  0  0  0  0
  143.4777   78.0544  217.9021 H   0  0  0  0  0  0  0  0  0  0  0  0
  141.7531   78.3763  217.4826 H   0  0  0  0  0  0  0  0  0  0  0  0
  143.0848   78.2268  220.1722 H   0  0  0  0  0  0  0  0  0  0  0  0
  141.9955   79.4909  219.4725 H   0  0  0  0  0  0  0  0  0  0  0  0
  140.1051   77.8443  219.5556 H   0  0  0  0  0  0  0  0  0  0  0  0
  142.7864   78.6140  222.0733 H   0  0  0  0  0  0  0  0  0  0  0  0
  142.2093   79.7472  224.2457 H   0  0  0  0  0  0  0  0  0  0  0  0
  139.8000   80.1272  224.7895 H   0  0  0  0  0  0  0  0  0  0  0  0
  138.5697   78.3246  221.1428 H   0  0  0  0  0  0  0  0  0  0  0  0
  139.1839   70.2583  222.4351 H   0  0  0  0  0  0  0  0  0  0  0  0
  138.8527   68.6041  224.2714 H   0  0  0  0  0  0  0  0  0  0  0  0
  139.2119   68.0144  226.6430 H   0  0  0  0  0  0  0  0  0  0  0  0
  141.3174   70.7920  229.1919 H   0  0  0  0  0  0  0  0  0  0  0  0
  141.5790   72.3635  227.2712 H   0  0  0  0  0  0  0  0  0  0  0  0
  1  2  2  0
  2  3  1  0
  3  4  1  0
  4  5  1  0
  5  6  2  0
  5  7  1  0
  7  8  1  0
  8  9  1  0
  9 10  1  0
 10 11  1  0
 11 12  1  0
 12 13  1  0
 13 14  2  0
 14 15  1  0
 15 16  2  0
 16 17  1  0
 17 18  2  0
  2 19  1  0
 19 20  2  0
 20 21  1  0
 21 22  2  0
 22 23  1  0
 23 24  2  0
 24 25  1  0
 24 26  1  0
 26 27  2  0
 27 28  1  0
 28 29  2  0
 12  7  1  0
 18 13  1  0
 29 19  1  0
 28 22  1  0
  3 30  1  0
  4 31  1  0
  4 32  1  0
  8 33  1  0
  8 34  1  0
  9 35  1  0
  9 36  1  0
 10 37  1  0
 10 38  1  0
 11 39  1  0
 11 40  1  0
 12 41  1  6
 14 42  1  0
 15 43  1  0
 16 44  1  0
 18 45  1  0
 20 46  1  0
 21 47  1  0
 23 48  1  0
 26 49  1  0
 27 50  1  0
M  END
>  <smiles>  (32) 
O=C(NCC(=O)N1CCCCC1c1cccnc1)c1ccc2cc(F)ccc2n1

>  <score_type>  (32) 
oracle

>  <origin>  (32) 
autodockgpu

>  <m_score__min__energy>  (32) 
-8.4299999999999997

>  <m_primary>  (32) 
energy

>  <rmsd>  (32) 
1.9757266773000148

>  <m_score__min__rmsd>  (32) 
1.9757266773000148

>  <meeko>  (32) 
{"free_energy": -8.35, "intermolecular_energy": -9.84, "internal_energy": -1.13, "cluster_size": 22, "cluster_id": 2, "rank_in_cluster": 7}

>  <energy>  (32) 
-8.33

>  <cluster_rmsd>  (32) 
0.25

>  <cluster>  (32) 
2

$$$$

     RDKit          3D

 50 53  0  0  0  0  0  0  0  0999 V2000
  140.8410   71.8150  221.0300 O   0  0  0  0  0  0  0  0  0  0  0  0
  140.3490   72.2970  222.1070 C   0  0  0  0  0  0  0  0  0  0  0  0
  139.9600   73.6800  222.1840 N   0  0  0  0  0  0  0  0  0  0  0  0
  140.1010   74.5660  221.0710 C   0  0  0  0  0  0  0  0  0  0  0  0
  141.0410   75.6700  221.1440 C   0  0  0  0  0  0  0  0  0  0  0  0
  141.4220   75.9580  222.3550 O   0  0  0  0  0  0  0  0  0  0  0  0
  141.6010   76.4750  220.1460 N   0  0  0  0  0  0  0  0  0  0  0  0
  142.6180   76.1110  219.1850 C   0  0  0  0  0  0  0  0  0  0  0  0
  142.3540   76.8080  217.8430 C   0  0  0  0  0  0  0  0  0  0  0  0
  142.4200   78.2950  217.9390 C   0  0  0  0  0  0  0  0  0  0  0  0
  142.1980   78.7360  219.3440 C   0  0  0  0  0  0  0  0  0  0  0  0
  141.1350   77.8770  220.0330 C   0  0  2  0  0  0  0  0  0  0  0  0
  140.8460   78.4510  221.3860 C   0  0  0  0  0  0  0  0  0  0  0  0
  141.8680   78.9650  222.1670 C   0  0  0  0  0  0  0  0  0  0  0  0
  141.5430   79.4850  223.4120 C   0  0  0  0  0  0  0  0  0  0  0  0
  140.2070   79.4600  223.8070 C   0  0  0  0  0  0  0  0  0  0  0  0
  139.2500   78.9480  223.0060 N   0  0  0  0  0  0  0  0  0  0  0  0
  139.5280   78.4350  221.7930 C   0  0  0  0  0  0  0  0  0  0  0  0
  140.1660   71.4660  223.2890 C   0  0  0  0  0  0  0  0  0  0  0  0
  139.5820   70.2310  223.2190 C   0  0  0  0  0  0  0  0  0  0  0  0
  139.4000   69.4240  224.3470 C   0  0  0  0  0  0  0  0  0  0  0  0
  139.8300   69.9040  225.5640 C   0  0  0  0  0  0  0  0  0  0  0  0
  139.6880   69.1690  226.7310 C   0  0  0  0  0  0  0  0  0  0  0  0
  140.1380   69.6970  227.9390 C   0  0  0  0  0  0  0  0  0  0  0  0
  139.9810   68.9460  229.0580 F   0  0  0  0  0  0  0  0  0  0  0  0
  140.7270   70.9560  227.9800 C   0  0  0  0  0  0  0  0  0  0  0  0
  140.8720   71.6950  226.8180 C   0  0  0  0  0  0  0  0  0  0  0  0
  140.4180   71.1520  225.6290 C   0  0  0  0  0  0  0  0  0  0  0  0
  140.5680   71.8850  224.5160 N   0  0  0  0  0  0  0  0  0  0  0  0
  139.5600   74.0370  223.1010 H   0  0  0  0  0  0  0  0  0  0  0  0
  140.3984   73.9505  220.2092 H   0  0  0  0  0  0  0  0  0  0  0  0
  139.1228   75.0662  221.0168 H   0  0  0  0  0  0  0  0  0  0  0  0
  143.6036   76.4172  219.5656 H   0  0  0  0  0  0  0  0  0  0  0  0
  142.5952   75.0217  219.0339 H   0  0  0  0  0  0  0  0  0  0  0  0
  143.1079   76.4692  217.1172 H   0  0  0  0  0  0  0  0  0  0  0  0
  141.3342   76.5423  217.5277 H   0  0  0  0  0  0  0  0  0  0  0  0
  143.4109   78.6360  217.6046 H   0  0  0  0  0  0  0  0  0  0  0  0
  141.6355   78.7284  217.3013 H   0  0  0  0  0  0  0  0  0  0  0  0
  143.1433   78.6514  219.9001 H   0  0  0  0  0  0  0  0  0  0  0  0
  141.8477   79.7786  219.3303 H   0  0  0  0  0  0  0  0  0  0  0  0
  140.2121   77.8790  219.4344 H   0  0  0  0  0  0  0  0  0  0  0  0
  142.9085   78.9611  221.8103 H   0  0  0  0  0  0  0  0  0  0  0  0
  142.3188   79.9053  224.0689 H   0  0  0  0  0  0  0  0  0  0  0  0
  139.9274   79.8654  224.7906 H   0  0  0  0  0  0  0  0  0  0  0  0
  138.7362   78.0198  221.1522 H   0  0  0  0  0  0  0  0  0  0  0  0
  139.2434   69.8592  222.2407 H   0  0  0  0  0  0  0  0  0  0  0  0
  138.9269   68.4344  224.2643 H   0  0  0  0  0  0  0  0  0  0  0  0
  139.2219   68.1730  226.7031 H   0  0  0  0  0  0  0  0  0  0  0  0
  141.0787   71.3660  228.9382 H   0  0  0  0  0  0  0  0  0  0  0  0
  141.3376   72.6914  226.8396 H   0  0  0  0  0  0  0  0  0  0  0  0
  1  2  2  0
  2  3  1  0
  3  4  1  0
  4  5  1  0
  5  6  2  0
  5  7  1  0
  7  8  1  0
  8  9  1  0
  9 10  1  0
 10 11  1  0
 11 12  1  0
 12 13  1  0
 13 14  2  0
 14 15  1  0
 15 16  2  0
 16 17  1  0
 17 18  2  0
  2 19  1  0
 19 20  2  0
 20 21  1  0
 21 22  2  0
 22 23  1  0
 23 24  2  0
 24 25  1  0
 24 26  1  0
 26 27  2  0
 27 28  1  0
 28 29  2  0
 12  7  1  0
 18 13  1  0
 29 19  1  0
 28 22  1  0
  3 30  1  0
  4 31  1  0
  4 32  1  0
  8 33  1  0
  8 34  1  0
  9 35  1  0
  9 36  1  0
 10 37  1  0
 10 38  1  0
 11 39  1  0
 11 40  1  0
 12 41  1  6
 14 42  1  0
 15 43  1  0
 16 44  1  0
 18 45  1  0
 20 46  1  0
 21 47  1  0
 23 48  1  0
 26 49  1  0
 27 50  1  0
M  END
>  <smiles>  (33) 
O=C(NCC(=O)N1CCCCC1c1cccnc1)c1ccc2cc(F)ccc2n1

>  <score_type>  (33) 
oracle

>  <origin>  (33) 
autodockgpu

>  <m_score__min__energy>  (33) 
-8.4299999999999997

>  <m_primary>  (33) 
energy

>  <rmsd>  (33) 
2.082217829991298

>  <m_score__min__rmsd>  (33) 
2.082217829991298

>  <meeko>  (33) 
{"free_energy": -8.24, "intermolecular_energy": -9.73, "internal_energy": -1.31, "cluster_size": 22, "cluster_id": 2, "rank_in_cluster": 17}

>  <energy>  (33) 
-8.3

>  <cluster_rmsd>  (33) 
0.52

>  <cluster>  (33) 
2

$$$$

     RDKit          3D

 50 53  0  0  0  0  0  0  0  0999 V2000
  141.1490   72.0210  221.2650 O   0  0  0  0  0  0  0  0  0  0  0  0
  140.4140   72.3820  222.2460 C   0  0  0  0  0  0  0  0  0  0  0  0
  139.7350   73.6500  222.2300 N   0  0  0  0  0  0  0  0  0  0  0  0
  139.8490   74.5510  221.1270 C   0  0  0  0  0  0  0  0  0  0  0  0
  140.8680   75.5860  221.1440 C   0  0  0  0  0  0  0  0  0  0  0  0
  141.4400   75.7420  222.3030 O   0  0  0  0  0  0  0  0  0  0  0  0
  141.3350   76.4390  220.1390 N   0  0  0  0  0  0  0  0  0  0  0  0
  140.5900   77.4450  219.4160 C   0  0  0  0  0  0  0  0  0  0  0  0
  141.4830   78.6570  219.1190 C   0  0  0  0  0  0  0  0  0  0  0  0
  142.6410   78.3230  218.2420 C   0  0  0  0  0  0  0  0  0  0  0  0
  142.9400   76.8650  218.3080 C   0  0  0  0  0  0  0  0  0  0  0  0
  142.7540   76.3250  219.7270 C   0  0  2  0  0  0  0  0  0  0  0  0
  143.2060   74.8980  219.7700 C   0  0  0  0  0  0  0  0  0  0  0  0
  144.2670   74.5200  220.5760 C   0  0  0  0  0  0  0  0  0  0  0  0
  144.6430   73.1840  220.5790 C   0  0  0  0  0  0  0  0  0  0  0  0
  143.9330   72.2990  219.7700 C   0  0  0  0  0  0  0  0  0  0  0  0
  142.9060   72.7210  219.0050 N   0  0  0  0  0  0  0  0  0  0  0  0
  142.5130   74.0080  218.9760 C   0  0  0  0  0  0  0  0  0  0  0  0
  140.2370   71.5240  223.4100 C   0  0  0  0  0  0  0  0  0  0  0  0
  139.6010   70.3160  223.3270 C   0  0  0  0  0  0  0  0  0  0  0  0
  139.4250   69.4840  224.4380 C   0  0  0  0  0  0  0  0  0  0  0  0
  139.9170   69.9100  225.6510 C   0  0  0  0  0  0  0  0  0  0  0  0
  139.7850   69.1460  226.8010 C   0  0  0  0  0  0  0  0  0  0  0  0
  140.2990   69.6190  228.0060 C   0  0  0  0  0  0  0  0  0  0  0  0
  140.1500   68.8430  229.1090 F   0  0  0  0  0  0  0  0  0  0  0  0
  140.9420   70.8510  228.0610 C   0  0  0  0  0  0  0  0  0  0  0  0
  141.0770   71.6190  226.9160 C   0  0  0  0  0  0  0  0  0  0  0  0
  140.5590   71.1300  225.7290 C   0  0  0  0  0  0  0  0  0  0  0  0
  140.7000   71.8890  224.6330 N   0  0  0  0  0  0  0  0  0  0  0  0
  139.1380   73.9090  223.0700 H   0  0  0  0  0  0  0  0  0  0  0  0
  140.0323   73.9379  220.2323 H   0  0  0  0  0  0  0  0  0  0  0  0
  138.9075   75.1187  221.1625 H   0  0  0  0  0  0  0  0  0  0  0  0
  140.2297   77.0186  218.4682 H   0  0  0  0  0  0  0  0  0  0  0  0
  139.7376   77.7702  220.0306 H   0  0  0  0  0  0  0  0  0  0  0  0
  140.8756   79.4268  218.6204 H   0  0  0  0  0  0  0  0  0  0  0  0
  141.8871   79.0124  220.0784 H   0  0  0  0  0  0  0  0  0  0  0  0
  142.4003   78.5969  217.2042 H   0  0  0  0  0  0  0  0  0  0  0  0
  143.5225   78.8836  218.5866 H   0  0  0  0  0  0  0  0  0  0  0  0
  142.2615   76.3286  217.6283 H   0  0  0  0  0  0  0  0  0  0  0  0
  143.9881   76.7110  218.0117 H   0  0  0  0  0  0  0  0  0  0  0  0
  143.3585   76.9170  220.4299 H   0  0  0  0  0  0  0  0  0  0  0  0
  144.7968   75.2579  221.1963 H   0  0  0  0  0  0  0  0  0  0  0  0
  145.4785   72.8334  221.2028 H   0  0  0  0  0  0  0  0  0  0  0  0
  144.2157   71.2361  219.7552 H   0  0  0  0  0  0  0  0  0  0  0  0
  141.6739   74.3365  218.3452 H   0  0  0  0  0  0  0  0  0  0  0  0
  139.2139   69.9867  222.3515 H   0  0  0  0  0  0  0  0  0  0  0  0
  138.9084   68.5173  224.3449 H   0  0  0  0  0  0  0  0  0  0  0  0
  139.2768   68.1712  226.7616 H   0  0  0  0  0  0  0  0  0  0  0  0
  141.3448   71.2168  229.0170 H   0  0  0  0  0  0  0  0  0  0  0  0
  141.5840   72.5946  226.9492 H   0  0  0  0  0  0  0  0  0  0  0  0
  1  2  2  0
  2  3  1  0
  3  4  1  0
  4  5  1  0
  5  6  2  0
  5  7  1  0
  7  8  1  0
  8  9  1  0
  9 10  1  0
 10 11  1  0
 11 12  1  0
 12 13  1  0
 13 14  2  0
 14 15  1  0
 15 16  2  0
 16 17  1  0
 17 18  2  0
  2 19  1  0
 19 20  2  0
 20 21  1  0
 21 22  2  0
 22 23  1  0
 23 24  2  0
 24 25  1  0
 24 26  1  0
 26 27  2  0
 27 28  1  0
 28 29  2  0
 12  7  1  0
 18 13  1  0
 29 19  1  0
 28 22  1  0
  3 30  1  0
  4 31  1  0
  4 32  1  0
  8 33  1  0
  8 34  1  0
  9 35  1  0
  9 36  1  0
 10 37  1  0
 10 38  1  0
 11 39  1  0
 11 40  1  0
 12 41  1  1
 14 42  1  0
 15 43  1  0
 16 44  1  0
 18 45  1  0
 20 46  1  0
 21 47  1  0
 23 48  1  0
 26 49  1  0
 27 50  1  0
M  END
>  <smiles>  (34) 
O=C(NCC(=O)N1CCCCC1c1cccnc1)c1ccc2cc(F)ccc2n1

>  <score_type>  (34) 
oracle

>  <origin>  (34) 
autodockgpu

>  <m_score__min__energy>  (34) 
-8.4299999999999997

>  <m_primary>  (34) 
energy

>  <rmsd>  (34) 
2.0185390883610035

>  <m_score__min__rmsd>  (34) 
2.0185390883610035

>  <meeko>  (34) 
{"free_energy": -7.92, "intermolecular_energy": -9.41, "internal_energy": -1.67, "cluster_size": 22, "cluster_id": 1, "rank_in_cluster": 8}

>  <energy>  (34) 
-8.29

>  <cluster_rmsd>  (34) 
0.46

>  <cluster>  (34) 
2

$$$$

     RDKit          3D

 50 53  0  0  0  0  0  0  0  0999 V2000
  141.3180   72.1560  221.4120 O   0  0  0  0  0  0  0  0  0  0  0  0
  140.4510   72.4660  222.2990 C   0  0  0  0  0  0  0  0  0  0  0  0
  139.7010   73.6890  222.1980 N   0  0  0  0  0  0  0  0  0  0  0  0
  139.8860   74.6000  221.1130 C   0  0  0  0  0  0  0  0  0  0  0  0
  140.7690   75.7410  221.2720 C   0  0  0  0  0  0  0  0  0  0  0  0
  141.0630   76.0100  222.5120 O   0  0  0  0  0  0  0  0  0  0  0  0
  141.3520   76.5970  220.3320 N   0  0  0  0  0  0  0  0  0  0  0  0
  142.4710   76.3210  219.4590 C   0  0  0  0  0  0  0  0  0  0  0  0
  142.2720   77.0160  218.1050 C   0  0  0  0  0  0  0  0  0  0  0  0
  142.2210   78.5020  218.2180 C   0  0  0  0  0  0  0  0  0  0  0  0
  141.8490   78.9070  219.6020 C   0  0  0  0  0  0  0  0  0  0  0  0
  140.7970   77.9650  220.1910 C   0  0  2  0  0  0  0  0  0  0  0  0
  140.3530   78.4960  221.5180 C   0  0  0  0  0  0  0  0  0  0  0  0
  141.2770   78.9820  222.4280 C   0  0  0  0  0  0  0  0  0  0  0  0
  140.8110   79.4640  223.6430 C   0  0  0  0  0  0  0  0  0  0  0  0
  139.4380   79.4320  223.8790 C   0  0  0  0  0  0  0  0  0  0  0  0
  138.5810   78.9490  222.9570 N   0  0  0  0  0  0  0  0  0  0  0  0
  138.9960   78.4730  221.7690 C   0  0  0  0  0  0  0  0  0  0  0  0
  140.1940   71.5950  223.4380 C   0  0  0  0  0  0  0  0  0  0  0  0
  139.4280   70.4670  223.3250 C   0  0  0  0  0  0  0  0  0  0  0  0
  139.1730   69.6230  224.4110 C   0  0  0  0  0  0  0  0  0  0  0  0
  139.7210   69.9530  225.6310 C   0  0  0  0  0  0  0  0  0  0  0  0
  139.5190   69.1710  226.7580 C   0  0  0  0  0  0  0  0  0  0  0  0
  140.0930   69.5450  227.9700 C   0  0  0  0  0  0  0  0  0  0  0  0
  139.8710   68.7540  229.0500 F   0  0  0  0  0  0  0  0  0  0  0  0
  140.8670   70.6980  228.0550 C   0  0  0  0  0  0  0  0  0  0  0  0
  141.0730   71.4830  226.9330 C   0  0  0  0  0  0  0  0  0  0  0  0
  140.4930   71.0920  225.7390 C   0  0  0  0  0  0  0  0  0  0  0  0
  140.7060   71.8670  224.6650 N   0  0  0  0  0  0  0  0  0  0  0  0
  138.9940   73.9070  222.9610 H   0  0  0  0  0  0  0  0  0  0  0  0
  140.2729   74.0132  220.2668 H   0  0  0  0  0  0  0  0  0  0  0  0
  138.8938   75.0598  220.9939 H   0  0  0  0  0  0  0  0  0  0  0  0
  143.3956   76.6920  219.9253 H   0  0  0  0  0  0  0  0  0  0  0  0
  142.5408   75.2351  219.2979 H   0  0  0  0  0  0  0  0  0  0  0  0
  143.1076   76.7427  217.4439 H   0  0  0  0  0  0  0  0  0  0  0  0
  141.3048   76.6820  217.7013 H   0  0  0  0  0  0  0  0  0  0  0  0
  143.2092   78.9179  217.9723 H   0  0  0  0  0  0  0  0  0  0  0  0
  141.4636   78.8863  217.5190 H   0  0  0  0  0  0  0  0  0  0  0  0
  142.7473   78.8830  220.2364 H   0  0  0  0  0  0  0  0  0  0  0  0
  141.4262   79.9219  219.5659 H   0  0  0  0  0  0  0  0  0  0  0  0
  139.9307   77.9106  219.5153 H   0  0  0  0  0  0  0  0  0  0  0  0
  142.3518   78.9858  222.1939 H   0  0  0  0  0  0  0  0  0  0  0  0
  141.5057   79.8601  224.3984 H   0  0  0  0  0  0  0  0  0  0  0  0
  139.0460   79.8079  224.8356 H   0  0  0  0  0  0  0  0  0  0  0  0
  138.2832   78.0816  221.0283 H   0  0  0  0  0  0  0  0  0  0  0  0
  138.9971   70.2147  222.3448 H   0  0  0  0  0  0  0  0  0  0  0  0
  138.5529   68.7220  224.2942 H   0  0  0  0  0  0  0  0  0  0  0  0
  138.9077   68.2587  226.6947 H   0  0  0  0  0  0  0  0  0  0  0  0
  141.3167   70.9869  229.0164 H   0  0  0  0  0  0  0  0  0  0  0  0
  141.6836   72.3963  226.9895 H   0  0  0  0  0  0  0  0  0  0  0  0
  1  2  2  0
  2  3  1  0
  3  4  1  0
  4  5  1  0
  5  6  2  0
  5  7  1  0
  7  8  1  0
  8  9  1  0
  9 10  1  0
 10 11  1  0
 11 12  1  0
 12 13  1  0
 13 14  2  0
 14 15  1  0
 15 16  2  0
 16 17  1  0
 17 18  2  0
  2 19  1  0
 19 20  2  0
 20 21  1  0
 21 22  2  0
 22 23  1  0
 23 24  2  0
 24 25  1  0
 24 26  1  0
 26 27  2  0
 27 28  1  0
 28 29  2  0
 12  7  1  0
 18 13  1  0
 29 19  1  0
 28 22  1  0
  3 30  1  0
  4 31  1  0
  4 32  1  0
  8 33  1  0
  8 34  1  0
  9 35  1  0
  9 36  1  0
 10 37  1  0
 10 38  1  0
 11 39  1  0
 11 40  1  0
 12 41  1  6
 14 42  1  0
 15 43  1  0
 16 44  1  0
 18 45  1  0
 20 46  1  0
 21 47  1  0
 23 48  1  0
 26 49  1  0
 27 50  1  0
M  END
>  <smiles>  (35) 
O=C(NCC(=O)N1CCCCC1c1cccnc1)c1ccc2cc(F)ccc2n1

>  <score_type>  (35) 
oracle

>  <origin>  (35) 
autodockgpu

>  <m_score__min__energy>  (35) 
-8.4299999999999997

>  <m_primary>  (35) 
energy

>  <rmsd>  (35) 
2.1323480146224507

>  <m_score__min__rmsd>  (35) 
2.1323480146224507

>  <meeko>  (35) 
{"free_energy": -8.28, "intermolecular_energy": -9.77, "internal_energy": -1.21, "cluster_size": 22, "cluster_id": 2, "rank_in_cluster": 14}

>  <energy>  (35) 
-8.29

>  <cluster_rmsd>  (35) 
0.11

>  <cluster>  (35) 
2

$$$$

     RDKit          3D

 50 53  0  0  0  0  0  0  0  0999 V2000
  140.8240   71.5940  221.0380 O   0  0  0  0  0  0  0  0  0  0  0  0
  140.3210   72.0760  222.1100 C   0  0  0  0  0  0  0  0  0  0  0  0
  139.8960   73.4490  222.1700 N   0  0  0  0  0  0  0  0  0  0  0  0
  140.0110   74.3230  221.0460 C   0  0  0  0  0  0  0  0  0  0  0  0
  140.9750   75.4090  221.0740 C   0  0  0  0  0  0  0  0  0  0  0  0
  141.4180   75.6890  222.2660 O   0  0  0  0  0  0  0  0  0  0  0  0
  141.5050   76.2020  220.0510 N   0  0  0  0  0  0  0  0  0  0  0  0
  140.8090   77.1710  219.2340 C   0  0  0  0  0  0  0  0  0  0  0  0
  141.7290   78.3580  218.9190 C   0  0  0  0  0  0  0  0  0  0  0  0
  142.9290   77.9670  218.1250 C   0  0  0  0  0  0  0  0  0  0  0  0
  143.2090   76.5130  218.2870 C   0  0  0  0  0  0  0  0  0  0  0  0
  142.9420   76.0540  219.7220 C   0  0  2  0  0  0  0  0  0  0  0  0
  143.3760   74.6290  219.8680 C   0  0  0  0  0  0  0  0  0  0  0  0
  144.3960   74.2880  220.7420 C   0  0  0  0  0  0  0  0  0  0  0  0
  144.7570   72.9520  220.8390 C   0  0  0  0  0  0  0  0  0  0  0  0
  144.0740   72.0270  220.0520 C   0  0  0  0  0  0  0  0  0  0  0  0
  143.0880   72.4130  219.2170 N   0  0  0  0  0  0  0  0  0  0  0  0
  142.7100   73.7000  219.0960 C   0  0  0  0  0  0  0  0  0  0  0  0
  140.1610   71.2550  223.3030 C   0  0  0  0  0  0  0  0  0  0  0  0
  139.5810   70.0180  223.2550 C   0  0  0  0  0  0  0  0  0  0  0  0
  139.4220   69.2200  224.3930 C   0  0  0  0  0  0  0  0  0  0  0  0
  139.8710   69.7130  225.5980 C   0  0  0  0  0  0  0  0  0  0  0  0
  139.7530   68.9880  226.7730 C   0  0  0  0  0  0  0  0  0  0  0  0
  140.2230   69.5280  227.9690 C   0  0  0  0  0  0  0  0  0  0  0  0
  140.0880   68.7880  229.0970 F   0  0  0  0  0  0  0  0  0  0  0  0
  140.8090   70.7890  227.9870 C   0  0  0  0  0  0  0  0  0  0  0  0
  140.9310   71.5190  226.8160 C   0  0  0  0  0  0  0  0  0  0  0  0
  140.4570   70.9630  225.6400 C   0  0  0  0  0  0  0  0  0  0  0  0
  140.5850   71.6860  224.5180 N   0  0  0  0  0  0  0  0  0  0  0  0
  139.4870   73.8060  223.0830 H   0  0  0  0  0  0  0  0  0  0  0  0
  140.2628   73.6953  220.1785 H   0  0  0  0  0  0  0  0  0  0  0  0
  139.0414   74.8420  221.0252 H   0  0  0  0  0  0  0  0  0  0  0  0
  140.4956   76.6947  218.2933 H   0  0  0  0  0  0  0  0  0  0  0  0
  139.9280   77.5357  219.7824 H   0  0  0  0  0  0  0  0  0  0  0  0
  141.1570   79.1033  218.3468 H   0  0  0  0  0  0  0  0  0  0  0  0
  142.0851   78.7633  219.8776 H   0  0  0  0  0  0  0  0  0  0  0  0
  142.7468   78.1846  217.0622 H   0  0  0  0  0  0  0  0  0  0  0  0
  143.7966   78.5393  218.4852 H   0  0  0  0  0  0  0  0  0  0  0  0
  142.5622   75.9447  217.6024 H   0  0  0  0  0  0  0  0  0  0  0  0
  144.2697   76.3350  218.0563 H   0  0  0  0  0  0  0  0  0  0  0  0
  143.5147   76.6796  220.4225 H   0  0  0  0  0  0  0  0  0  0  0  0
  144.9056   75.0559  221.3426 H   0  0  0  0  0  0  0  0  0  0  0  0
  145.5605   72.6317  221.5186 H   0  0  0  0  0  0  0  0  0  0  0  0
  144.3441   70.9624  220.1130 H   0  0  0  0  0  0  0  0  0  0  0  0
  141.9035   73.9980  218.4099 H   0  0  0  0  0  0  0  0  0  0  0  0
  139.2264   69.6362  222.2863 H   0  0  0  0  0  0  0  0  0  0  0  0
  138.9520   68.2276  224.3273 H   0  0  0  0  0  0  0  0  0  0  0  0
  139.2902   67.9902  226.7619 H   0  0  0  0  0  0  0  0  0  0  0  0
  141.1771   71.2085  228.9349 H   0  0  0  0  0  0  0  0  0  0  0  0
  141.3936   72.5170  226.8204 H   0  0  0  0  0  0  0  0  0  0  0  0
  1  2  2  0
  2  3  1  0
  3  4  1  0
  4  5  1  0
  5  6  2  0
  5  7  1  0
  7  8  1  0
  8  9  1  0
  9 10  1  0
 10 11  1  0
 11 12  1  0
 12 13  1  0
 13 14  2  0
 14 15  1  0
 15 16  2  0
 16 17  1  0
 17 18  2  0
  2 19  1  0
 19 20  2  0
 20 21  1  0
 21 22  2  0
 22 23  1  0
 23 24  2  0
 24 25  1  0
 24 26  1  0
 26 27  2  0
 27 28  1  0
 28 29  2  0
 12  7  1  0
 18 13  1  0
 29 19  1  0
 28 22  1  0
  3 30  1  0
  4 31  1  0
  4 32  1  0
  8 33  1  0
  8 34  1  0
  9 35  1  0
  9 36  1  0
 10 37  1  0
 10 38  1  0
 11 39  1  0
 11 40  1  0
 12 41  1  1
 14 42  1  0
 15 43  1  0
 16 44  1  0
 18 45  1  0
 20 46  1  0
 21 47  1  0
 23 48  1  0
 26 49  1  0
 27 50  1  0
M  END
>  <smiles>  (36) 
O=C(NCC(=O)N1CCCCC1c1cccnc1)c1ccc2cc(F)ccc2n1

>  <score_type>  (36) 
oracle

>  <origin>  (36) 
autodockgpu

>  <m_score__min__energy>  (36) 
-8.4299999999999997

>  <m_primary>  (36) 
energy

>  <rmsd>  (36) 
1.973735694496515

>  <m_score__min__rmsd>  (36) 
1.973735694496515

>  <meeko>  (36) 
{"free_energy": -7.84, "intermolecular_energy": -9.33, "internal_energy": -1.74, "cluster_size": 22, "cluster_id": 1, "rank_in_cluster": 13}

>  <energy>  (36) 
-8.28

>  <cluster_rmsd>  (36) 
0.38

>  <cluster>  (36) 
2

$$$$

     RDKit          3D

 50 53  0  0  0  0  0  0  0  0999 V2000
  141.4080   72.3380  221.5690 O   0  0  0  0  0  0  0  0  0  0  0  0
  140.4510   72.5280  222.3950 C   0  0  0  0  0  0  0  0  0  0  0  0
  139.5650   73.6510  222.2480 N   0  0  0  0  0  0  0  0  0  0  0  0
  139.7110   74.5920  221.1830 C   0  0  0  0  0  0  0  0  0  0  0  0
  140.8360   75.5100  221.1810 C   0  0  0  0  0  0  0  0  0  0  0  0
  141.3910   75.6650  222.3490 O   0  0  0  0  0  0  0  0  0  0  0  0
  141.4210   76.2540  220.1510 N   0  0  0  0  0  0  0  0  0  0  0  0
  142.3710   75.7980  219.1610 C   0  0  0  0  0  0  0  0  0  0  0  0
  142.1140   76.4950  217.8190 C   0  0  0  0  0  0  0  0  0  0  0  0
  142.3010   77.9730  217.8880 C   0  0  0  0  0  0  0  0  0  0  0  0
  142.1650   78.4500  219.2920 C   0  0  0  0  0  0  0  0  0  0  0  0
  141.0640   77.6880  220.0320 C   0  0  2  0  0  0  0  0  0  0  0  0
  140.8710   78.3000  221.3850 C   0  0  0  0  0  0  0  0  0  0  0  0
  139.6080   78.3750  221.9500 C   0  0  0  0  0  0  0  0  0  0  0  0
  139.4860   78.9510  223.2060 C   0  0  0  0  0  0  0  0  0  0  0  0
  140.6400   79.4230  223.8290 C   0  0  0  0  0  0  0  0  0  0  0  0
  141.8460   79.3240  223.2330 N   0  0  0  0  0  0  0  0  0  0  0  0
  142.0030   78.7720  222.0160 C   0  0  0  0  0  0  0  0  0  0  0  0
  140.2250   71.6160  223.5090 C   0  0  0  0  0  0  0  0  0  0  0  0
  139.5370   70.4450  223.3540 C   0  0  0  0  0  0  0  0  0  0  0  0
  139.3130   69.5620  224.4160 C   0  0  0  0  0  0  0  0  0  0  0  0
  139.8090   69.8980  225.6550 C   0  0  0  0  0  0  0  0  0  0  0  0
  139.6320   69.0800  226.7590 C   0  0  0  0  0  0  0  0  0  0  0  0
  140.1530   69.4630  227.9940 C   0  0  0  0  0  0  0  0  0  0  0  0
  139.9580   68.6360  229.0510 F   0  0  0  0  0  0  0  0  0  0  0  0
  140.8480   70.6610  228.1210 C   0  0  0  0  0  0  0  0  0  0  0  0
  141.0290   71.4830  227.0220 C   0  0  0  0  0  0  0  0  0  0  0  0
  140.5030   71.0830  225.8050 C   0  0  0  0  0  0  0  0  0  0  0  0
  140.6890   71.8940  224.7540 N   0  0  0  0  0  0  0  0  0  0  0  0
  138.7860   73.7710  222.9610 H   0  0  0  0  0  0  0  0  0  0  0  0
  139.7720   74.0112  220.2508 H   0  0  0  0  0  0  0  0  0  0  0  0
  138.8414   75.2542  221.3065 H   0  0  0  0  0  0  0  0  0  0  0  0
  143.3907   76.0307  219.5018 H   0  0  0  0  0  0  0  0  0  0  0  0
  142.2577   74.7119  219.0286 H   0  0  0  0  0  0  0  0  0  0  0  0
  142.8115   76.0874  217.0724 H   0  0  0  0  0  0  0  0  0  0  0  0
  141.0654   76.3072  217.5447 H   0  0  0  0  0  0  0  0  0  0  0  0
  143.3033   78.2291  217.5140 H   0  0  0  0  0  0  0  0  0  0  0  0
  141.5309   78.4586  217.2707 H   0  0  0  0  0  0  0  0  0  0  0  0
  143.1202   78.2989  219.8162 H   0  0  0  0  0  0  0  0  0  0  0  0
  141.8971   79.5167  219.2726 H   0  0  0  0  0  0  0  0  0  0  0  0
  140.1231   77.7564  219.4662 H   0  0  0  0  0  0  0  0  0  0  0  0
  138.7266   77.9885  221.4173 H   0  0  0  0  0  0  0  0  0  0  0  0
  138.5051   79.0330  223.6970 H   0  0  0  0  0  0  0  0  0  0  0  0
  140.5659   79.8846  224.8247 H   0  0  0  0  0  0  0  0  0  0  0  0
  142.9938   78.7001  221.5436 H   0  0  0  0  0  0  0  0  0  0  0  0
  139.1455   70.1877  222.3588 H   0  0  0  0  0  0  0  0  0  0  0  0
  138.7561   68.6255  224.2649 H   0  0  0  0  0  0  0  0  0  0  0  0
  139.0825   68.1321  226.6615 H   0  0  0  0  0  0  0  0  0  0  0  0
  141.2556   70.9566  229.0990 H   0  0  0  0  0  0  0  0  0  0  0  0
  141.5779   72.4319  227.1133 H   0  0  0  0  0  0  0  0  0  0  0  0
  1  2  2  0
  2  3  1  0
  3  4  1  0
  4  5  1  0
  5  6  2  0
  5  7  1  0
  7  8  1  0
  8  9  1  0
  9 10  1  0
 10 11  1  0
 11 12  1  0
 12 13  1  0
 13 14  2  0
 14 15  1  0
 15 16  2  0
 16 17  1  0
 17 18  2  0
  2 19  1  0
 19 20  2  0
 20 21  1  0
 21 22  2  0
 22 23  1  0
 23 24  2  0
 24 25  1  0
 24 26  1  0
 26 27  2  0
 27 28  1  0
 28 29  2  0
 12  7  1  0
 18 13  1  0
 29 19  1  0
 28 22  1  0
  3 30  1  0
  4 31  1  0
  4 32  1  0
  8 33  1  0
  8 34  1  0
  9 35  1  0
  9 36  1  0
 10 37  1  0
 10 38  1  0
 11 39  1  0
 11 40  1  0
 12 41  1  6
 14 42  1  0
 15 43  1  0
 16 44  1  0
 18 45  1  0
 20 46  1  0
 21 47  1  0
 23 48  1  0
 26 49  1  0
 27 50  1  0
M  END
>  <smiles>  (37) 
O=C(NCC(=O)N1CCCCC1c1cccnc1)c1ccc2cc(F)ccc2n1

>  <score_type>  (37) 
oracle

>  <origin>  (37) 
autodockgpu

>  <m_score__min__energy>  (37) 
-8.4299999999999997

>  <m_primary>  (37) 
energy

>  <rmsd>  (37) 
1.9584702487950274

>  <m_score__min__rmsd>  (37) 
1.9584702487950274

>  <meeko>  (37) 
{"free_energy": -8.28, "intermolecular_energy": -9.77, "internal_energy": -1.27, "cluster_size": 22, "cluster_id": 2, "rank_in_cluster": 15}

>  <energy>  (37) 
-8.28

>  <cluster_rmsd>  (37) 
0.53

>  <cluster>  (37) 
2

$$$$

     RDKit          3D

 50 53  0  0  0  0  0  0  0  0999 V2000
  140.6060   71.4690  220.9860 O   0  0  0  0  0  0  0  0  0  0  0  0
  140.2080   71.9930  222.0820 C   0  0  0  0  0  0  0  0  0  0  0  0
  139.9050   73.3970  222.1590 N   0  0  0  0  0  0  0  0  0  0  0  0
  140.0310   74.2580  221.0250 C   0  0  0  0  0  0  0  0  0  0  0  0
  140.9160   75.4080  221.0880 C   0  0  0  0  0  0  0  0  0  0  0  0
  141.2430   75.7550  222.3000 O   0  0  0  0  0  0  0  0  0  0  0  0
  141.4710   76.2040  220.0810 N   0  0  0  0  0  0  0  0  0  0  0  0
  140.8020   77.1990  219.2720 C   0  0  0  0  0  0  0  0  0  0  0  0
  141.7480   78.3710  218.9820 C   0  0  0  0  0  0  0  0  0  0  0  0
  142.9480   77.9680  218.1940 C   0  0  0  0  0  0  0  0  0  0  0  0
  143.1990   76.5070  218.3390 C   0  0  0  0  0  0  0  0  0  0  0  0
  142.9090   76.0330  219.7650 C   0  0  2  0  0  0  0  0  0  0  0  0
  143.3130   74.5980  219.8950 C   0  0  0  0  0  0  0  0  0  0  0  0
  144.3020   74.2230  220.7890 C   0  0  0  0  0  0  0  0  0  0  0  0
  144.6370   72.8790  220.8700 C   0  0  0  0  0  0  0  0  0  0  0  0
  143.9600   71.9810  220.0470 C   0  0  0  0  0  0  0  0  0  0  0  0
  143.0030   72.4000  219.1940 N   0  0  0  0  0  0  0  0  0  0  0  0
  142.6520   73.6950  219.0880 C   0  0  0  0  0  0  0  0  0  0  0  0
  140.0460   71.1900  223.2870 C   0  0  0  0  0  0  0  0  0  0  0  0
  139.4840   69.9440  223.2530 C   0  0  0  0  0  0  0  0  0  0  0  0
  139.3220   69.1640  224.4030 C   0  0  0  0  0  0  0  0  0  0  0  0
  139.7520   69.6820  225.6040 C   0  0  0  0  0  0  0  0  0  0  0  0
  139.6310   68.9750  226.7900 C   0  0  0  0  0  0  0  0  0  0  0  0
  140.0800   69.5410  227.9810 C   0  0  0  0  0  0  0  0  0  0  0  0
  139.9430   68.8180  229.1200 F   0  0  0  0  0  0  0  0  0  0  0  0
  140.6480   70.8100  227.9850 C   0  0  0  0  0  0  0  0  0  0  0  0
  140.7730   71.5220  226.8040 C   0  0  0  0  0  0  0  0  0  0  0  0
  140.3200   70.9400  225.6320 C   0  0  0  0  0  0  0  0  0  0  0  0
  140.4500   71.6470  224.5000 N   0  0  0  0  0  0  0  0  0  0  0  0
  139.5820   73.7890  223.0910 H   0  0  0  0  0  0  0  0  0  0  0  0
  140.3781   73.6342  220.1881 H   0  0  0  0  0  0  0  0  0  0  0  0
  139.0319   74.7091  220.9343 H   0  0  0  0  0  0  0  0  0  0  0  0
  140.4872   76.7427  218.3219 H   0  0  0  0  0  0  0  0  0  0  0  0
  139.9239   77.5739  219.8184 H   0  0  0  0  0  0  0  0  0  0  0  0
  141.1963   79.1351  218.4148 H   0  0  0  0  0  0  0  0  0  0  0  0
  142.1029   78.7555  219.9496 H   0  0  0  0  0  0  0  0  0  0  0  0
  142.7801   78.2031  217.1326 H   0  0  0  0  0  0  0  0  0  0  0  0
  143.8227   78.5189  218.5700 H   0  0  0  0  0  0  0  0  0  0  0  0
  142.5487   75.9604  217.6402 H   0  0  0  0  0  0  0  0  0  0  0  0
  144.2586   76.3125  218.1167 H   0  0  0  0  0  0  0  0  0  0  0  0
  143.4869   76.6371  220.4799 H   0  0  0  0  0  0  0  0  0  0  0  0
  144.8082   74.9703  221.4177 H   0  0  0  0  0  0  0  0  0  0  0  0
  145.4158   72.5317  221.5649 H   0  0  0  0  0  0  0  0  0  0  0  0
  144.2107   70.9110  220.0939 H   0  0  0  0  0  0  0  0  0  0  0  0
  141.8698   74.0203  218.3864 H   0  0  0  0  0  0  0  0  0  0  0  0
  139.1471   69.5404  222.2868 H   0  0  0  0  0  0  0  0  0  0  0  0
  138.8641   68.1653  224.3492 H   0  0  0  0  0  0  0  0  0  0  0  0
  139.1821   67.9708  226.7907 H   0  0  0  0  0  0  0  0  0  0  0  0
  140.9994   71.2500  228.9299 H   0  0  0  0  0  0  0  0  0  0  0  0
  141.2216   72.5263  226.7970 H   0  0  0  0  0  0  0  0  0  0  0  0
  1  2  2  0
  2  3  1  0
  3  4  1  0
  4  5  1  0
  5  6  2  0
  5  7  1  0
  7  8  1  0
  8  9  1  0
  9 10  1  0
 10 11  1  0
 11 12  1  0
 12 13  1  0
 13 14  2  0
 14 15  1  0
 15 16  2  0
 16 17  1  0
 17 18  2  0
  2 19  1  0
 19 20  2  0
 20 21  1  0
 21 22  2  0
 22 23  1  0
 23 24  2  0
 24 25  1  0
 24 26  1  0
 26 27  2  0
 27 28  1  0
 28 29  2  0
 12  7  1  0
 18 13  1  0
 29 19  1  0
 28 22  1  0
  3 30  1  0
  4 31  1  0
  4 32  1  0
  8 33  1  0
  8 34  1  0
  9 35  1  0
  9 36  1  0
 10 37  1  0
 10 38  1  0
 11 39  1  0
 11 40  1  0
 12 41  1  1
 14 42  1  0
 15 43  1  0
 16 44  1  0
 18 45  1  0
 20 46  1  0
 21 47  1  0
 23 48  1  0
 26 49  1  0
 27 50  1  0
M  END
>  <smiles>  (38) 
O=C(NCC(=O)N1CCCCC1c1cccnc1)c1ccc2cc(F)ccc2n1

>  <score_type>  (38) 
oracle

>  <origin>  (38) 
autodockgpu

>  <m_score__min__energy>  (38) 
-8.4299999999999997

>  <m_primary>  (38) 
energy

>  <rmsd>  (38) 
1.9643955845354972

>  <m_score__min__rmsd>  (38) 
1.9643955845354972

>  <meeko>  (38) 
{"free_energy": -7.77, "intermolecular_energy": -9.26, "internal_energy": -1.81, "cluster_size": 22, "cluster_id": 1, "rank_in_cluster": 15}

>  <energy>  (38) 
-8.27

>  <cluster_rmsd>  (38) 
0.54

>  <cluster>  (38) 
2

$$$$

     RDKit          3D

 50 53  0  0  0  0  0  0  0  0999 V2000
  140.5840   71.8320  221.0290 O   0  0  0  0  0  0  0  0  0  0  0  0
  140.1950   72.3090  222.1500 C   0  0  0  0  0  0  0  0  0  0  0  0
  139.8790   73.7060  222.2850 N   0  0  0  0  0  0  0  0  0  0  0  0
  139.9810   74.6120  221.1850 C   0  0  0  0  0  0  0  0  0  0  0  0
  140.9830   75.6620  221.2060 C   0  0  0  0  0  0  0  0  0  0  0  0
  141.4340   75.9340  222.3970 O   0  0  0  0  0  0  0  0  0  0  0  0
  141.5410   76.4300  220.1790 N   0  0  0  0  0  0  0  0  0  0  0  0
  142.5140   76.0140  219.1940 C   0  0  0  0  0  0  0  0  0  0  0  0
  142.2350   76.6980  217.8490 C   0  0  0  0  0  0  0  0  0  0  0  0
  142.3560   78.1830  217.9170 C   0  0  0  0  0  0  0  0  0  0  0  0
  142.1930   78.6550  219.3200 C   0  0  0  0  0  0  0  0  0  0  0  0
  141.1220   77.8460  220.0560 C   0  0  2  0  0  0  0  0  0  0  0  0
  140.8950   78.4510  221.4060 C   0  0  0  0  0  0  0  0  0  0  0  0
  141.9520   78.9750  222.1310 C   0  0  0  0  0  0  0  0  0  0  0  0
  141.6850   79.5250  223.3760 C   0  0  0  0  0  0  0  0  0  0  0  0
  140.3670   79.5190  223.8290 C   0  0  0  0  0  0  0  0  0  0  0  0
  139.3740   78.9960  223.0810 N   0  0  0  0  0  0  0  0  0  0  0  0
  139.5950   78.4540  221.8690 C   0  0  0  0  0  0  0  0  0  0  0  0
  140.0580   71.4580  223.3240 C   0  0  0  0  0  0  0  0  0  0  0  0
  139.5170   70.2040  223.2470 C   0  0  0  0  0  0  0  0  0  0  0  0
  139.3800   69.3780  224.3680 C   0  0  0  0  0  0  0  0  0  0  0  0
  139.8100   69.8580  225.5840 C   0  0  0  0  0  0  0  0  0  0  0  0
  139.7110   69.1040  226.7430 C   0  0  0  0  0  0  0  0  0  0  0  0
  140.1610   69.6330  227.9520 C   0  0  0  0  0  0  0  0  0  0  0  0
  140.0460   68.8640  229.0640 F   0  0  0  0  0  0  0  0  0  0  0  0
  140.7060   70.9110  228.0000 C   0  0  0  0  0  0  0  0  0  0  0  0
  140.8080   71.6690  226.8450 C   0  0  0  0  0  0  0  0  0  0  0  0
  140.3560   71.1240  225.6560 C   0  0  0  0  0  0  0  0  0  0  0  0
  140.4640   71.8760  224.5500 N   0  0  0  0  0  0  0  0  0  0  0  0
  139.5640   74.0580  223.2370 H   0  0  0  0  0  0  0  0  0  0  0  0
  140.1751   74.0044  220.2888 H   0  0  0  0  0  0  0  0  0  0  0  0
  139.0309   75.1652  221.2212 H   0  0  0  0  0  0  0  0  0  0  0  0
  143.5212   76.2900  219.5396 H   0  0  0  0  0  0  0  0  0  0  0  0
  142.4467   74.9240  219.0622 H   0  0  0  0  0  0  0  0  0  0  0  0
  142.9546   76.3208  217.1074 H   0  0  0  0  0  0  0  0  0  0  0  0
  141.1975   76.4638  217.5685 H   0  0  0  0  0  0  0  0  0  0  0  0
  143.3475   78.4829  217.5469 H   0  0  0  0  0  0  0  0  0  0  0  0
  141.5677   78.6334  217.2959 H   0  0  0  0  0  0  0  0  0  0  0  0
  143.1514   78.5460  219.8488 H   0  0  0  0  0  0  0  0  0  0  0  0
  141.8793   79.7091  219.2984 H   0  0  0  0  0  0  0  0  0  0  0  0
  140.1819   77.8719  219.4854 H   0  0  0  0  0  0  0  0  0  0  0  0
  142.9762   78.9556  221.7302 H   0  0  0  0  0  0  0  0  0  0  0  0
  142.4913   79.9541  223.9890 H   0  0  0  0  0  0  0  0  0  0  0  0
  140.1324   79.9485  224.8142 H   0  0  0  0  0  0  0  0  0  0  0  0
  138.7734   78.0310  221.2723 H   0  0  0  0  0  0  0  0  0  0  0  0
  139.1776   69.8318  222.2691 H   0  0  0  0  0  0  0  0  0  0  0  0
  138.9410   68.3733  224.2798 H   0  0  0  0  0  0  0  0  0  0  0  0
  139.2793   68.0928  226.7090 H   0  0  0  0  0  0  0  0  0  0  0  0
  141.0573   71.3216  228.9581 H   0  0  0  0  0  0  0  0  0  0  0  0
  141.2384   72.6809  226.8723 H   0  0  0  0  0  0  0  0  0  0  0  0
  1  2  2  0
  2  3  1  0
  3  4  1  0
  4  5  1  0
  5  6  2  0
  5  7  1  0
  7  8  1  0
  8  9  1  0
  9 10  1  0
 10 11  1  0
 11 12  1  0
 12 13  1  0
 13 14  2  0
 14 15  1  0
 15 16  2  0
 16 17  1  0
 17 18  2  0
  2 19  1  0
 19 20  2  0
 20 21  1  0
 21 22  2  0
 22 23  1  0
 23 24  2  0
 24 25  1  0
 24 26  1  0
 26 27  2  0
 27 28  1  0
 28 29  2  0
 12  7  1  0
 18 13  1  0
 29 19  1  0
 28 22  1  0
  3 30  1  0
  4 31  1  0
  4 32  1  0
  8 33  1  0
  8 34  1  0
  9 35  1  0
  9 36  1  0
 10 37  1  0
 10 38  1  0
 11 39  1  0
 11 40  1  0
 12 41  1  6
 14 42  1  0
 15 43  1  0
 16 44  1  0
 18 45  1  0
 20 46  1  0
 21 47  1  0
 23 48  1  0
 26 49  1  0
 27 50  1  0
M  END
>  <smiles>  (39) 
O=C(NCC(=O)N1CCCCC1c1cccnc1)c1ccc2cc(F)ccc2n1

>  <score_type>  (39) 
oracle

>  <origin>  (39) 
autodockgpu

>  <m_score__min__energy>  (39) 
-8.4299999999999997

>  <m_primary>  (39) 
energy

>  <rmsd>  (39) 
2.008448277233263

>  <m_score__min__rmsd>  (39) 
2.008448277233263

>  <meeko>  (39) 
{"free_energy": -8.17, "intermolecular_energy": -9.66, "internal_energy": -1.35, "cluster_size": 22, "cluster_id": 2, "rank_in_cluster": 20}

>  <energy>  (39) 
-8.24

>  <cluster_rmsd>  (39) 
0.36

>  <cluster>  (39) 
2

$$$$

     RDKit          3D

 50 53  0  0  0  0  0  0  0  0999 V2000
  141.4570   72.3760  221.5880 O   0  0  0  0  0  0  0  0  0  0  0  0
  140.4560   72.5310  222.3680 C   0  0  0  0  0  0  0  0  0  0  0  0
  139.5310   73.6150  222.1710 N   0  0  0  0  0  0  0  0  0  0  0  0
  139.6860   74.5530  221.1040 C   0  0  0  0  0  0  0  0  0  0  0  0
  140.7480   75.5420  221.1640 C   0  0  0  0  0  0  0  0  0  0  0  0
  141.1970   75.7610  222.3670 O   0  0  0  0  0  0  0  0  0  0  0  0
  141.3650   76.2980  220.1620 N   0  0  0  0  0  0  0  0  0  0  0  0
  142.3420   75.8510  219.1930 C   0  0  0  0  0  0  0  0  0  0  0  0
  142.1260   76.5680  217.8530 C   0  0  0  0  0  0  0  0  0  0  0  0
  142.3150   78.0440  217.9480 C   0  0  0  0  0  0  0  0  0  0  0  0
  142.1410   78.5020  219.3540 C   0  0  0  0  0  0  0  0  0  0  0  0
  141.0170   77.7340  220.0510 C   0  0  2  0  0  0  0  0  0  0  0  0
  140.7860   78.3290  221.4060 C   0  0  0  0  0  0  0  0  0  0  0  0
  141.8520   78.7630  222.1760 C   0  0  0  0  0  0  0  0  0  0  0  0
  141.5810   79.3080  223.4230 C   0  0  0  0  0  0  0  0  0  0  0  0
  140.2510   79.3870  223.8310 C   0  0  0  0  0  0  0  0  0  0  0  0
  139.2500   78.9490  223.0410 N   0  0  0  0  0  0  0  0  0  0  0  0
  139.4740   78.4150  221.8260 C   0  0  0  0  0  0  0  0  0  0  0  0
  140.2170   71.6180  223.4780 C   0  0  0  0  0  0  0  0  0  0  0  0
  139.5000   70.4640  223.3220 C   0  0  0  0  0  0  0  0  0  0  0  0
  139.2630   69.5810  224.3810 C   0  0  0  0  0  0  0  0  0  0  0  0
  139.7780   69.8980  225.6180 C   0  0  0  0  0  0  0  0  0  0  0  0
  139.5910   69.0780  226.7190 C   0  0  0  0  0  0  0  0  0  0  0  0
  140.1310   69.4410  227.9510 C   0  0  0  0  0  0  0  0  0  0  0  0
  139.9250   68.6120  229.0050 F   0  0  0  0  0  0  0  0  0  0  0  0
  140.8560   70.6220  228.0800 C   0  0  0  0  0  0  0  0  0  0  0  0
  141.0470   71.4450  226.9830 C   0  0  0  0  0  0  0  0  0  0  0  0
  140.5020   71.0650  225.7690 C   0  0  0  0  0  0  0  0  0  0  0  0
  140.6990   71.8770  224.7210 N   0  0  0  0  0  0  0  0  0  0  0  0
  138.7160   73.7060  222.8460 H   0  0  0  0  0  0  0  0  0  0  0  0
  139.8460   73.9684  220.1861 H   0  0  0  0  0  0  0  0  0  0  0  0
  138.7690   75.1581  221.1596 H   0  0  0  0  0  0  0  0  0  0  0  0
  143.3524   76.0746  219.5660 H   0  0  0  0  0  0  0  0  0  0  0  0
  142.2285   74.7673  219.0426 H   0  0  0  0  0  0  0  0  0  0  0  0
  142.8438   76.1685  217.1214 H   0  0  0  0  0  0  0  0  0  0  0  0
  141.0853   76.3874  217.5458 H   0  0  0  0  0  0  0  0  0  0  0  0
  143.3281   78.3021  217.6058 H   0  0  0  0  0  0  0  0  0  0  0  0
  141.5637   78.5405  217.3163 H   0  0  0  0  0  0  0  0  0  0  0  0
  143.0803   78.3399  219.9030 H   0  0  0  0  0  0  0  0  0  0  0  0
  141.8778   79.5700  219.3423 H   0  0  0  0  0  0  0  0  0  0  0  0
  140.0939   77.8129  219.4581 H   0  0  0  0  0  0  0  0  0  0  0  0
  142.8855   78.6780  221.8091 H   0  0  0  0  0  0  0  0  0  0  0  0
  142.3935   79.6677  224.0714 H   0  0  0  0  0  0  0  0  0  0  0  0
  140.0132   79.8148  224.8161 H   0  0  0  0  0  0  0  0  0  0  0  0
  138.6459   78.0618  221.1940 H   0  0  0  0  0  0  0  0  0  0  0  0
  139.0952   70.2213  222.3284 H   0  0  0  0  0  0  0  0  0  0  0  0
  138.6816   68.6595  224.2297 H   0  0  0  0  0  0  0  0  0  0  0  0
  139.0184   68.1439  226.6208 H   0  0  0  0  0  0  0  0  0  0  0  0
  141.2785   70.9024  229.0562 H   0  0  0  0  0  0  0  0  0  0  0  0
  141.6192   72.3800  227.0744 H   0  0  0  0  0  0  0  0  0  0  0  0
  1  2  2  0
  2  3  1  0
  3  4  1  0
  4  5  1  0
  5  6  2  0
  5  7  1  0
  7  8  1  0
  8  9  1  0
  9 10  1  0
 10 11  1  0
 11 12  1  0
 12 13  1  0
 13 14  2  0
 14 15  1  0
 15 16  2  0
 16 17  1  0
 17 18  2  0
  2 19  1  0
 19 20  2  0
 20 21  1  0
 21 22  2  0
 22 23  1  0
 23 24  2  0
 24 25  1  0
 24 26  1  0
 26 27  2  0
 27 28  1  0
 28 29  2  0
 12  7  1  0
 18 13  1  0
 29 19  1  0
 28 22  1  0
  3 30  1  0
  4 31  1  0
  4 32  1  0
  8 33  1  0
  8 34  1  0
  9 35  1  0
  9 36  1  0
 10 37  1  0
 10 38  1  0
 11 39  1  0
 11 40  1  0
 12 41  1  6
 14 42  1  0
 15 43  1  0
 16 44  1  0
 18 45  1  0
 20 46  1  0
 21 47  1  0
 23 48  1  0
 26 49  1  0
 27 50  1  0
M  END
>  <smiles>  (40) 
O=C(NCC(=O)N1CCCCC1c1cccnc1)c1ccc2cc(F)ccc2n1

>  <score_type>  (40) 
oracle

>  <origin>  (40) 
autodockgpu

>  <m_score__min__energy>  (40) 
-8.4299999999999997

>  <m_primary>  (40) 
energy

>  <rmsd>  (40) 
1.965541901709825

>  <m_score__min__rmsd>  (40) 
1.965541901709825

>  <meeko>  (40) 
{"free_energy": -8.38, "intermolecular_energy": -9.87, "internal_energy": -1.21, "cluster_size": 22, "cluster_id": 2, "rank_in_cluster": 1}

>  <energy>  (40) 
-8.23

>  <cluster_rmsd>  (40) 
0.52

>  <cluster>  (40) 
2

$$$$

     RDKit          3D

 50 53  0  0  0  0  0  0  0  0999 V2000
  139.8390   74.6240  222.0000 O   0  0  0  0  0  0  0  0  0  0  0  0
  140.0920   75.6810  221.3260 C   0  0  0  0  0  0  0  0  0  0  0  0
  140.2410   75.6250  219.8970 N   0  0  0  0  0  0  0  0  0  0  0  0
  140.1100   74.4000  219.1730 C   0  0  0  0  0  0  0  0  0  0  0  0
  141.2800   73.5730  218.9370 C   0  0  0  0  0  0  0  0  0  0  0  0
  141.2000   72.8410  217.8630 O   0  0  0  0  0  0  0  0  0  0  0  0
  142.4680   73.4250  219.6590 N   0  0  0  0  0  0  0  0  0  0  0  0
  142.7040   72.5810  220.8100 C   0  0  0  0  0  0  0  0  0  0  0  0
  144.1300   72.0170  220.7710 C   0  0  0  0  0  0  0  0  0  0  0  0
  145.1760   73.0770  220.8430 C   0  0  0  0  0  0  0  0  0  0  0  0
  144.6190   74.3880  220.4090 C   0  0  0  0  0  0  0  0  0  0  0  0
  143.6480   74.2180  219.2390 C   0  0  2  0  0  0  0  0  0  0  0  0
  143.2310   75.5690  218.7480 C   0  0  0  0  0  0  0  0  0  0  0  0
  143.2180   75.8540  217.3930 C   0  0  0  0  0  0  0  0  0  0  0  0
  142.8220   77.1220  216.9930 C   0  0  0  0  0  0  0  0  0  0  0  0
  142.4600   78.0390  217.9780 C   0  0  0  0  0  0  0  0  0  0  0  0
  142.4900   77.7090  219.2850 N   0  0  0  0  0  0  0  0  0  0  0  0
  142.8690   76.4890  219.7100 C   0  0  0  0  0  0  0  0  0  0  0  0
  140.2370   76.9740  221.9810 C   0  0  0  0  0  0  0  0  0  0  0  0
  139.1640   77.6460  222.4980 C   0  0  0  0  0  0  0  0  0  0  0  0
  139.2910   78.8880  223.1280 C   0  0  0  0  0  0  0  0  0  0  0  0
  140.5480   79.4410  223.2250 C   0  0  0  0  0  0  0  0  0  0  0  0
  140.7620   80.6670  223.8340 C   0  0  0  0  0  0  0  0  0  0  0  0
  142.0540   81.1860  223.9080 C   0  0  0  0  0  0  0  0  0  0  0  0
  142.2210   82.3890  224.5120 F   0  0  0  0  0  0  0  0  0  0  0  0
  143.1260   80.4800  223.3740 C   0  0  0  0  0  0  0  0  0  0  0  0
  142.9190   79.2540  222.7640 C   0  0  0  0  0  0  0  0  0  0  0  0
  141.6290   78.7580  222.7020 C   0  0  0  0  0  0  0  0  0  0  0  0
  141.4510   77.5690  222.1070 N   0  0  0  0  0  0  0  0  0  0  0  0
  140.4550   76.5280  219.3800 H   0  0  0  0  0  0  0  0  0  0  0  0
  139.3875   73.7800  219.7240 H   0  0  0  0  0  0  0  0  0  0  0  0
  139.8226   74.7296  218.1637 H   0  0  0  0  0  0  0  0  0  0  0  0
  142.5726   73.1732  221.7276 H   0  0  0  0  0  0  0  0  0  0  0  0
  141.9877   71.7463  220.7954 H   0  0  0  0  0  0  0  0  0  0  0  0
  144.2614   71.3359  221.6247 H   0  0  0  0  0  0  0  0  0  0  0  0
  144.2529   71.4971  219.8094 H   0  0  0  0  0  0  0  0  0  0  0  0
  145.5355   73.1614  221.8792 H   0  0  0  0  0  0  0  0  0  0  0  0
  146.0064   72.8041  220.1752 H   0  0  0  0  0  0  0  0  0  0  0  0
  144.0855   74.8483  221.2537 H   0  0  0  0  0  0  0  0  0  0  0  0
  145.4512   75.0277  220.0801 H   0  0  0  0  0  0  0  0  0  0  0  0
  144.1468   73.6751  218.4226 H   0  0  0  0  0  0  0  0  0  0  0  0
  143.5138   75.0953  216.6535 H   0  0  0  0  0  0  0  0  0  0  0  0
  142.7945   77.3960  215.9280 H   0  0  0  0  0  0  0  0  0  0  0  0
  142.1440   79.0507  217.6838 H   0  0  0  0  0  0  0  0  0  0  0  0
  142.8892   76.2362  220.7804 H   0  0  0  0  0  0  0  0  0  0  0  0
  138.1649   77.1932  222.4153 H   0  0  0  0  0  0  0  0  0  0  0  0
  138.4113   79.4084  223.5346 H   0  0  0  0  0  0  0  0  0  0  0  0
  139.9161   81.2285  224.2573 H   0  0  0  0  0  0  0  0  0  0  0  0
  144.1422   80.8966  223.4362 H   0  0  0  0  0  0  0  0  0  0  0  0
  143.7607   78.6878  222.3387 H   0  0  0  0  0  0  0  0  0  0  0  0
  1  2  2  0
  2  3  1  0
  3  4  1  0
  4  5  1  0
  5  6  2  0
  5  7  1  0
  7  8  1  0
  8  9  1  0
  9 10  1  0
 10 11  1  0
 11 12  1  0
 12 13  1  0
 13 14  2  0
 14 15  1  0
 15 16  2  0
 16 17  1  0
 17 18  2  0
  2 19  1  0
 19 20  2  0
 20 21  1  0
 21 22  2  0
 22 23  1  0
 23 24  2  0
 24 25  1  0
 24 26  1  0
 26 27  2  0
 27 28  1  0
 28 29  2  0
 12  7  1  0
 18 13  1  0
 29 19  1  0
 28 22  1  0
  3 30  1  0
  4 31  1  0
  4 32  1  0
  8 33  1  0
  8 34  1  0
  9 35  1  0
  9 36  1  0
 10 37  1  0
 10 38  1  0
 11 39  1  0
 11 40  1  0
 12 41  1  6
 14 42  1  0
 15 43  1  0
 16 44  1  0
 18 45  1  0
 20 46  1  0
 21 47  1  0
 23 48  1  0
 26 49  1  0
 27 50  1  0
M  END
>  <smiles>  (41) 
O=C(NCC(=O)N1CCCCC1c1cccnc1)c1ccc2cc(F)ccc2n1

>  <score_type>  (41) 
oracle

>  <origin>  (41) 
autodockgpu

>  <m_score__min__energy>  (41) 
-8.4299999999999997

>  <m_primary>  (41) 
energy

>  <rmsd>  (41) 
7.777746577304641

>  <m_score__min__rmsd>  (41) 
7.777746577304641

>  <meeko>  (41) 
{"free_energy": -6.78, "intermolecular_energy": -8.27, "internal_energy": -2.4, "cluster_size": 1, "cluster_id": 5, "rank_in_cluster": 1}

>  <energy>  (41) 
-8.22

>  <cluster_rmsd>  (41) 
0.56

>  <cluster>  (41) 
2

$$$$

     RDKit          3D

 50 53  0  0  0  0  0  0  0  0999 V2000
  141.4270   72.5740  221.6340 O   0  0  0  0  0  0  0  0  0  0  0  0
  140.4120   72.6750  222.4040 C   0  0  0  0  0  0  0  0  0  0  0  0
  139.4600   73.7390  222.2330 N   0  0  0  0  0  0  0  0  0  0  0  0
  139.6030   74.7190  221.2020 C   0  0  0  0  0  0  0  0  0  0  0  0
  140.7810   75.5680  221.1740 C   0  0  0  0  0  0  0  0  0  0  0  0
  141.3800   75.6760  222.3250 O   0  0  0  0  0  0  0  0  0  0  0  0
  141.3770   76.2880  220.1330 N   0  0  0  0  0  0  0  0  0  0  0  0
  142.2870   75.7940  219.1240 C   0  0  0  0  0  0  0  0  0  0  0  0
  142.0330   76.5040  217.7880 C   0  0  0  0  0  0  0  0  0  0  0  0
  142.2840   77.9720  217.8540 C   0  0  0  0  0  0  0  0  0  0  0  0
  142.1970   78.4520  219.2610 C   0  0  0  0  0  0  0  0  0  0  0  0
  141.0790   77.7360  220.0220 C   0  0  2  0  0  0  0  0  0  0  0  0
  140.9380   78.3540  221.3790 C   0  0  0  0  0  0  0  0  0  0  0  0
  139.6970   78.4420  221.9870 C   0  0  0  0  0  0  0  0  0  0  0  0
  139.6230   79.0230  223.2450 C   0  0  0  0  0  0  0  0  0  0  0  0
  140.8020   79.4860  223.8260 C   0  0  0  0  0  0  0  0  0  0  0  0
  141.9860   79.3740  223.1890 N   0  0  0  0  0  0  0  0  0  0  0  0
  142.0960   78.8170  221.9690 C   0  0  0  0  0  0  0  0  0  0  0  0
  140.1840   71.7170  223.4780 C   0  0  0  0  0  0  0  0  0  0  0  0
  139.4770   70.5640  223.2790 C   0  0  0  0  0  0  0  0  0  0  0  0
  139.2510   69.6370  224.3030 C   0  0  0  0  0  0  0  0  0  0  0  0
  139.7670   69.9110  225.5500 C   0  0  0  0  0  0  0  0  0  0  0  0
  139.5900   69.0460  226.6190 C   0  0  0  0  0  0  0  0  0  0  0  0
  140.1300   69.3660  227.8630 C   0  0  0  0  0  0  0  0  0  0  0  0
  139.9340   68.4950  228.8840 F   0  0  0  0  0  0  0  0  0  0  0  0
  140.8440   70.5470  228.0360 C   0  0  0  0  0  0  0  0  0  0  0  0
  141.0250   71.4140  226.9720 C   0  0  0  0  0  0  0  0  0  0  0  0
  140.4800   71.0770  225.7460 C   0  0  0  0  0  0  0  0  0  0  0  0
  140.6670   71.9320  224.7290 N   0  0  0  0  0  0  0  0  0  0  0  0
  138.6350   73.7850  222.8990 H   0  0  0  0  0  0  0  0  0  0  0  0
  139.5756   74.1799  220.2436 H   0  0  0  0  0  0  0  0  0  0  0  0
  138.7837   75.4246  221.4043 H   0  0  0  0  0  0  0  0  0  0  0  0
  143.3222   75.9826  219.4446 H   0  0  0  0  0  0  0  0  0  0  0  0
  142.1253   74.7139  218.9928 H   0  0  0  0  0  0  0  0  0  0  0  0
  142.6973   76.0683  217.0272 H   0  0  0  0  0  0  0  0  0  0  0  0
  140.9720   76.3617  217.5352 H   0  0  0  0  0  0  0  0  0  0  0  0
  143.2884   78.1858  217.4598 H   0  0  0  0  0  0  0  0  0  0  0  0
  141.5229   78.4910  217.2528 H   0  0  0  0  0  0  0  0  0  0  0  0
  143.1551   78.2592  219.7658 H   0  0  0  0  0  0  0  0  0  0  0  0
  141.9751   79.5293  219.2483 H   0  0  0  0  0  0  0  0  0  0  0  0
  140.1311   77.8449  219.4746 H   0  0  0  0  0  0  0  0  0  0  0  0
  138.7944   78.0617  221.4864 H   0  0  0  0  0  0  0  0  0  0  0  0
  138.6603   79.1155  223.7691 H   0  0  0  0  0  0  0  0  0  0  0  0
  140.7667   79.9513  224.8221 H   0  0  0  0  0  0  0  0  0  0  0  0
  143.0692   78.7342  221.4629 H   0  0  0  0  0  0  0  0  0  0  0  0
  139.0710   70.3573  222.2778 H   0  0  0  0  0  0  0  0  0  0  0  0
  138.6780   68.7166  224.1171 H   0  0  0  0  0  0  0  0  0  0  0  0
  139.0257   68.1112  226.4856 H   0  0  0  0  0  0  0  0  0  0  0  0
  141.2663   70.7929  229.0215 H   0  0  0  0  0  0  0  0  0  0  0  0
  141.5894   72.3497  227.0986 H   0  0  0  0  0  0  0  0  0  0  0  0
  1  2  2  0
  2  3  1  0
  3  4  1  0
  4  5  1  0
  5  6  2  0
  5  7  1  0
  7  8  1  0
  8  9  1  0
  9 10  1  0
 10 11  1  0
 11 12  1  0
 12 13  1  0
 13 14  2  0
 14 15  1  0
 15 16  2  0
 16 17  1  0
 17 18  2  0
  2 19  1  0
 19 20  2  0
 20 21  1  0
 21 22  2  0
 22 23  1  0
 23 24  2  0
 24 25  1  0
 24 26  1  0
 26 27  2  0
 27 28  1  0
 28 29  2  0
 12  7  1  0
 18 13  1  0
 29 19  1  0
 28 22  1  0
  3 30  1  0
  4 31  1  0
  4 32  1  0
  8 33  1  0
  8 34  1  0
  9 35  1  0
  9 36  1  0
 10 37  1  0
 10 38  1  0
 11 39  1  0
 11 40  1  0
 12 41  1  6
 14 42  1  0
 15 43  1  0
 16 44  1  0
 18 45  1  0
 20 46  1  0
 21 47  1  0
 23 48  1  0
 26 49  1  0
 27 50  1  0
M  END
>  <smiles>  (42) 
O=C(NCC(=O)N1CCCCC1c1cccnc1)c1ccc2cc(F)ccc2n1

>  <score_type>  (42) 
oracle

>  <origin>  (42) 
autodockgpu

>  <m_score__min__energy>  (42) 
-8.4299999999999997

>  <m_primary>  (42) 
energy

>  <rmsd>  (42) 
1.9522200427158347

>  <m_score__min__rmsd>  (42) 
1.9522200427158347

>  <meeko>  (42) 
{"free_energy": -8.22, "intermolecular_energy": -9.71, "internal_energy": -1.26, "cluster_size": 22, "cluster_id": 2, "rank_in_cluster": 19}

>  <energy>  (42) 
-8.17

>  <cluster_rmsd>  (42) 
0.37

>  <cluster>  (42) 
2

$$$$

     RDKit          3D

 50 53  0  0  0  0  0  0  0  0999 V2000
  140.8370   71.5760  221.0050 O   0  0  0  0  0  0  0  0  0  0  0  0
  140.3550   72.0900  222.0720 C   0  0  0  0  0  0  0  0  0  0  0  0
  139.9860   73.4790  222.1180 N   0  0  0  0  0  0  0  0  0  0  0  0
  140.1380   74.3370  220.9850 C   0  0  0  0  0  0  0  0  0  0  0  0
  140.8140   75.6130  221.1320 C   0  0  0  0  0  0  0  0  0  0  0  0
  141.0080   75.9660  222.3710 O   0  0  0  0  0  0  0  0  0  0  0  0
  141.2870   76.5250  220.1830 N   0  0  0  0  0  0  0  0  0  0  0  0
  140.5500   77.5860  219.5340 C   0  0  0  0  0  0  0  0  0  0  0  0
  141.4590   78.8030  219.3100 C   0  0  0  0  0  0  0  0  0  0  0  0
  142.6050   78.5110  218.4020 C   0  0  0  0  0  0  0  0  0  0  0  0
  142.8840   77.0480  218.3690 C   0  0  0  0  0  0  0  0  0  0  0  0
  142.7010   76.4180  219.7520 C   0  0  2  0  0  0  0  0  0  0  0  0
  143.1320   74.9850  219.6970 C   0  0  0  0  0  0  0  0  0  0  0  0
  144.0930   74.5050  220.5710 C   0  0  0  0  0  0  0  0  0  0  0  0
  144.4540   73.1680  220.4770 C   0  0  0  0  0  0  0  0  0  0  0  0
  143.8300   72.3850  219.5090 C   0  0  0  0  0  0  0  0  0  0  0  0
  142.8990   72.9040  218.6830 N   0  0  0  0  0  0  0  0  0  0  0  0
  142.5230   74.1950  218.7440 C   0  0  0  0  0  0  0  0  0  0  0  0
  140.1620   71.2890  223.2730 C   0  0  0  0  0  0  0  0  0  0  0  0
  139.5370   70.0730  223.2370 C   0  0  0  0  0  0  0  0  0  0  0  0
  139.3450   69.2950  224.3840 C   0  0  0  0  0  0  0  0  0  0  0  0
  139.8090   69.7840  225.5840 C   0  0  0  0  0  0  0  0  0  0  0  0
  139.6600   69.0770  226.7680 C   0  0  0  0  0  0  0  0  0  0  0  0
  140.1460   69.6130  227.9580 C   0  0  0  0  0  0  0  0  0  0  0  0
  139.9800   68.8910  229.0950 F   0  0  0  0  0  0  0  0  0  0  0  0
  140.7770   70.8530  227.9650 C   0  0  0  0  0  0  0  0  0  0  0  0
  140.9290   71.5640  226.7870 C   0  0  0  0  0  0  0  0  0  0  0  0
  140.4390   71.0120  225.6150 C   0  0  0  0  0  0  0  0  0  0  0  0
  140.5970   71.7180  224.4860 N   0  0  0  0  0  0  0  0  0  0  0  0
  139.5940   73.8630  223.0270 H   0  0  0  0  0  0  0  0  0  0  0  0
  140.6946   73.7672  220.2264 H   0  0  0  0  0  0  0  0  0  0  0  0
  139.1042   74.6227  220.7409 H   0  0  0  0  0  0  0  0  0  0  0  0
  140.1765   77.2279  218.5633 H   0  0  0  0  0  0  0  0  0  0  0  0
  139.7064   77.8813  220.1752 H   0  0  0  0  0  0  0  0  0  0  0  0
  140.8592   79.6129  218.8691 H   0  0  0  0  0  0  0  0  0  0  0  0
  141.8760   79.0883  220.2871 H   0  0  0  0  0  0  0  0  0  0  0  0
  142.3595   78.8558  217.3867 H   0  0  0  0  0  0  0  0  0  0  0  0
  143.4972   79.0353  218.7748 H   0  0  0  0  0  0  0  0  0  0  0  0
  142.1929   76.5668  217.6613 H   0  0  0  0  0  0  0  0  0  0  0  0
  143.9274   76.8995  218.0540 H   0  0  0  0  0  0  0  0  0  0  0  0
  143.3198   76.9536  220.4870 H   0  0  0  0  0  0  0  0  0  0  0  0
  144.5573   75.1648  221.3188 H   0  0  0  0  0  0  0  0  0  0  0  0
  145.2121   72.7387  221.1486 H   0  0  0  0  0  0  0  0  0  0  0  0
  144.1017   71.3231  219.4165 H   0  0  0  0  0  0  0  0  0  0  0  0
  141.7620   74.6030  218.0625 H   0  0  0  0  0  0  0  0  0  0  0  0
  139.1721   69.6929  222.2714 H   0  0  0  0  0  0  0  0  0  0  0  0
  138.8378   68.3205  224.3283 H   0  0  0  0  0  0  0  0  0  0  0  0
  139.1601   68.0972  226.7671 H   0  0  0  0  0  0  0  0  0  0  0  0
  141.1563   71.2697  228.9097 H   0  0  0  0  0  0  0  0  0  0  0  0
  141.4274   72.5446  226.7819 H   0  0  0  0  0  0  0  0  0  0  0  0
  1  2  2  0
  2  3  1  0
  3  4  1  0
  4  5  1  0
  5  6  2  0
  5  7  1  0
  7  8  1  0
  8  9  1  0
  9 10  1  0
 10 11  1  0
 11 12  1  0
 12 13  1  0
 13 14  2  0
 14 15  1  0
 15 16  2  0
 16 17  1  0
 17 18  2  0
  2 19  1  0
 19 20  2  0
 20 21  1  0
 21 22  2  0
 22 23  1  0
 23 24  2  0
 24 25  1  0
 24 26  1  0
 26 27  2  0
 27 28  1  0
 28 29  2  0
 12  7  1  0
 18 13  1  0
 29 19  1  0
 28 22  1  0
  3 30  1  0
  4 31  1  0
  4 32  1  0
  8 33  1  0
  8 34  1  0
  9 35  1  0
  9 36  1  0
 10 37  1  0
 10 38  1  0
 11 39  1  0
 11 40  1  0
 12 41  1  1
 14 42  1  0
 15 43  1  0
 16 44  1  0
 18 45  1  0
 20 46  1  0
 21 47  1  0
 23 48  1  0
 26 49  1  0
 27 50  1  0
M  END
>  <smiles>  (43) 
O=C(NCC(=O)N1CCCCC1c1cccnc1)c1ccc2cc(F)ccc2n1

>  <score_type>  (43) 
oracle

>  <origin>  (43) 
autodockgpu

>  <m_score__min__energy>  (43) 
-8.4299999999999997

>  <m_primary>  (43) 
energy

>  <rmsd>  (43) 
2.0353666486681496

>  <m_score__min__rmsd>  (43) 
2.0353666486681496

>  <meeko>  (43) 
{"free_energy": -7.74, "intermolecular_energy": -9.23, "internal_energy": -1.8, "cluster_size": 22, "cluster_id": 1, "rank_in_cluster": 17}

>  <energy>  (43) 
-8.16

>  <cluster_rmsd>  (43) 
0.62

>  <cluster>  (43) 
2

$$$$

     RDKit          3D

 50 53  0  0  0  0  0  0  0  0999 V2000
  139.6270   73.5380  222.4270 O   0  0  0  0  0  0  0  0  0  0  0  0
  140.1960   72.3940  222.3900 C   0  0  0  0  0  0  0  0  0  0  0  0
  140.9280   71.9730  221.2260 N   0  0  0  0  0  0  0  0  0  0  0  0
  141.0540   72.8080  220.0730 C   0  0  0  0  0  0  0  0  0  0  0  0
  141.6320   74.1340  220.2030 C   0  0  0  0  0  0  0  0  0  0  0  0
  141.8760   74.4830  221.4340 O   0  0  0  0  0  0  0  0  0  0  0  0
  141.9660   75.0960  219.2440 N   0  0  0  0  0  0  0  0  0  0  0  0
  141.1040   75.6780  218.2390 C   0  0  0  0  0  0  0  0  0  0  0  0
  141.4670   77.1530  218.0190 C   0  0  0  0  0  0  0  0  0  0  0  0
  142.8530   77.3380  217.5000 C   0  0  0  0  0  0  0  0  0  0  0  0
  143.6910   76.1500  217.8210 C   0  0  0  0  0  0  0  0  0  0  0  0
  143.3600   75.5960  219.2080 C   0  0  2  0  0  0  0  0  0  0  0  0
  144.3250   74.5000  219.5400 C   0  0  0  0  0  0  0  0  0  0  0  0
  144.7960   74.3430  220.8330 C   0  0  0  0  0  0  0  0  0  0  0  0
  145.6870   73.3100  221.0860 C   0  0  0  0  0  0  0  0  0  0  0  0
  146.0600   72.4890  220.0230 C   0  0  0  0  0  0  0  0  0  0  0  0
  145.5700   72.6860  218.7820 N   0  0  0  0  0  0  0  0  0  0  0  0
  144.7040   73.6770  218.5000 C   0  0  0  0  0  0  0  0  0  0  0  0
  140.1220   71.4800  223.5220 C   0  0  0  0  0  0  0  0  0  0  0  0
  139.5660   70.2360  223.4100 C   0  0  0  0  0  0  0  0  0  0  0  0
  139.4890   69.3500  224.4900 C   0  0  0  0  0  0  0  0  0  0  0  0
  139.9980   69.7590  225.7020 C   0  0  0  0  0  0  0  0  0  0  0  0
  139.9630   68.9430  226.8220 C   0  0  0  0  0  0  0  0  0  0  0  0
  140.4900   69.4010  228.0270 C   0  0  0  0  0  0  0  0  0  0  0  0
  140.4370   68.5730  229.1000 F   0  0  0  0  0  0  0  0  0  0  0  0
  141.0500   70.6710  228.1110 C   0  0  0  0  0  0  0  0  0  0  0  0
  141.0890   71.4910  226.9960 C   0  0  0  0  0  0  0  0  0  0  0  0
  140.5590   71.0160  225.8090 C   0  0  0  0  0  0  0  0  0  0  0  0
  140.6070   71.8270  224.7420 N   0  0  0  0  0  0  0  0  0  0  0  0
  141.3800   71.0130  221.2390 H   0  0  0  0  0  0  0  0  0  0  0  0
  141.6741   72.2596  219.3486 H   0  0  0  0  0  0  0  0  0  0  0  0
  140.0108   73.0107  219.7891 H   0  0  0  0  0  0  0  0  0  0  0  0
  141.2258   75.1289  217.2937 H   0  0  0  0  0  0  0  0  0  0  0  0
  140.0602   75.6122  218.5797 H   0  0  0  0  0  0  0  0  0  0  0  0
  140.7604   77.5842  217.2946 H   0  0  0  0  0  0  0  0  0  0  0  0
  141.4100   77.6564  218.9954 H   0  0  0  0  0  0  0  0  0  0  0  0
  142.8165   77.4714  216.4087 H   0  0  0  0  0  0  0  0  0  0  0  0
  143.2961   78.2257  217.9751 H   0  0  0  0  0  0  0  0  0  0  0  0
  143.5073   75.3681  217.0694 H   0  0  0  0  0  0  0  0  0  0  0  0
  144.7472   76.4570  217.8123 H   0  0  0  0  0  0  0  0  0  0  0  0
  143.4509   76.3971  219.9563 H   0  0  0  0  0  0  0  0  0  0  0  0
  144.4723   75.0193  221.6379 H   0  0  0  0  0  0  0  0  0  0  0  0
  146.0877   73.1436  222.0968 H   0  0  0  0  0  0  0  0  0  0  0  0
  146.7671   71.6651  220.1996 H   0  0  0  0  0  0  0  0  0  0  0  0
  144.3145   73.8245  217.4819 H   0  0  0  0  0  0  0  0  0  0  0  0
  139.1647   69.9204  222.4356 H   0  0  0  0  0  0  0  0  0  0  0  0
  139.0347   68.3549  224.3741 H   0  0  0  0  0  0  0  0  0  0  0  0
  139.5207   67.9378  226.7593 H   0  0  0  0  0  0  0  0  0  0  0  0
  141.4635   71.0255  229.0667 H   0  0  0  0  0  0  0  0  0  0  0  0
  141.5310   72.4967  227.0523 H   0  0  0  0  0  0  0  0  0  0  0  0
  1  2  2  0
  2  3  1  0
  3  4  1  0
  4  5  1  0
  5  6  2  0
  5  7  1  0
  7  8  1  0
  8  9  1  0
  9 10  1  0
 10 11  1  0
 11 12  1  0
 12 13  1  0
 13 14  2  0
 14 15  1  0
 15 16  2  0
 16 17  1  0
 17 18  2  0
  2 19  1  0
 19 20  2  0
 20 21  1  0
 21 22  2  0
 22 23  1  0
 23 24  2  0
 24 25  1  0
 24 26  1  0
 26 27  2  0
 27 28  1  0
 28 29  2  0
 12  7  1  0
 18 13  1  0
 29 19  1  0
 28 22  1  0
  3 30  1  0
  4 31  1  0
  4 32  1  0
  8 33  1  0
  8 34  1  0
  9 35  1  0
  9 36  1  0
 10 37  1  0
 10 38  1  0
 11 39  1  0
 11 40  1  0
 12 41  1  1
 14 42  1  0
 15 43  1  0
 16 44  1  0
 18 45  1  0
 20 46  1  0
 21 47  1  0
 23 48  1  0
 26 49  1  0
 27 50  1  0
M  END
>  <smiles>  (44) 
O=C(NCC(=O)N1CCCCC1c1cccnc1)c1ccc2cc(F)ccc2n1

>  <score_type>  (44) 
oracle

>  <origin>  (44) 
autodockgpu

>  <m_score__min__energy>  (44) 
-8.4299999999999997

>  <m_primary>  (44) 
energy

>  <rmsd>  (44) 
2.2504478162058854

>  <m_score__min__rmsd>  (44) 
2.2504478162058854

>  <meeko>  (44) 
{"free_energy": -8.38, "intermolecular_energy": -9.88, "internal_energy": -1.19, "cluster_size": 22, "cluster_id": 1, "rank_in_cluster": 2}

>  <energy>  (44) 
-8.12

>  <cluster_rmsd>  (44) 
0.62

>  <cluster>  (44) 
2

$$$$

     RDKit          3D

 50 53  0  0  0  0  0  0  0  0999 V2000
  141.3270   72.4280  221.5270 O   0  0  0  0  0  0  0  0  0  0  0  0
  140.3780   72.5950  222.3680 C   0  0  0  0  0  0  0  0  0  0  0  0
  139.4910   73.7220  222.2620 N   0  0  0  0  0  0  0  0  0  0  0  0
  139.6250   74.6920  221.2210 C   0  0  0  0  0  0  0  0  0  0  0  0
  140.7890   75.5590  221.1900 C   0  0  0  0  0  0  0  0  0  0  0  0
  141.4190   75.6360  222.3270 O   0  0  0  0  0  0  0  0  0  0  0  0
  141.3450   76.3240  220.1590 N   0  0  0  0  0  0  0  0  0  0  0  0
  142.3040   75.9000  219.1630 C   0  0  0  0  0  0  0  0  0  0  0  0
  142.0190   76.5920  217.8240 C   0  0  0  0  0  0  0  0  0  0  0  0
  142.1580   78.0750  217.8950 C   0  0  0  0  0  0  0  0  0  0  0  0
  142.0140   78.5440  219.3010 C   0  0  0  0  0  0  0  0  0  0  0  0
  140.9420   77.7450  220.0450 C   0  0  2  0  0  0  0  0  0  0  0  0
  140.7340   78.3480  221.4000 C   0  0  0  0  0  0  0  0  0  0  0  0
  141.8160   78.7670  222.1570 C   0  0  0  0  0  0  0  0  0  0  0  0
  141.5660   79.3200  223.4050 C   0  0  0  0  0  0  0  0  0  0  0  0
  140.2420   79.4220  223.8270 C   0  0  0  0  0  0  0  0  0  0  0  0
  139.2260   78.9990  223.0480 N   0  0  0  0  0  0  0  0  0  0  0  0
  139.4290   78.4570  221.8320 C   0  0  0  0  0  0  0  0  0  0  0  0
  140.1650   71.6540  223.4590 C   0  0  0  0  0  0  0  0  0  0  0  0
  139.4580   70.4960  223.2850 C   0  0  0  0  0  0  0  0  0  0  0  0
  139.2450   69.5850  224.3250 C   0  0  0  0  0  0  0  0  0  0  0  0
  139.7750   69.8770  225.5620 C   0  0  0  0  0  0  0  0  0  0  0  0
  139.6110   69.0280  226.6450 C   0  0  0  0  0  0  0  0  0  0  0  0
  140.1660   69.3670  227.8780 C   0  0  0  0  0  0  0  0  0  0  0  0
  139.9830   68.5110  228.9140 F   0  0  0  0  0  0  0  0  0  0  0  0
  140.8790   70.5520  228.0260 C   0  0  0  0  0  0  0  0  0  0  0  0
  141.0470   71.4040  226.9470 C   0  0  0  0  0  0  0  0  0  0  0  0
  140.4880   71.0470  225.7320 C   0  0  0  0  0  0  0  0  0  0  0  0
  140.6620   71.8870  224.7010 N   0  0  0  0  0  0  0  0  0  0  0  0
  138.7200   73.8220  222.9860 H   0  0  0  0  0  0  0  0  0  0  0  0
  139.6121   74.1415  220.2687 H   0  0  0  0  0  0  0  0  0  0  0  0
  138.7936   75.3869  221.4104 H   0  0  0  0  0  0  0  0  0  0  0  0
  143.3176   76.1633  219.4995 H   0  0  0  0  0  0  0  0  0  0  0  0
  142.2237   74.8112  219.0283 H   0  0  0  0  0  0  0  0  0  0  0  0
  142.7262   76.2089  217.0736 H   0  0  0  0  0  0  0  0  0  0  0  0
  140.9757   76.3712  217.5543 H   0  0  0  0  0  0  0  0  0  0  0  0
  143.1493   78.3645  217.5163 H   0  0  0  0  0  0  0  0  0  0  0  0
  141.3694   78.5367  217.2827 H   0  0  0  0  0  0  0  0  0  0  0  0
  142.9763   78.4227  219.8198 H   0  0  0  0  0  0  0  0  0  0  0  0
  141.7116   79.6015  219.2857 H   0  0  0  0  0  0  0  0  0  0  0  0
  139.9970   77.7840  219.4834 H   0  0  0  0  0  0  0  0  0  0  0  0
  142.8441   78.6643  221.7795 H   0  0  0  0  0  0  0  0  0  0  0  0
  142.3909   79.6684  224.0439 H   0  0  0  0  0  0  0  0  0  0  0  0
  140.0216   79.8555  224.8137 H   0  0  0  0  0  0  0  0  0  0  0  0
  138.5889   78.1155  221.2094 H   0  0  0  0  0  0  0  0  0  0  0  0
  139.0419   70.2731  222.2914 H   0  0  0  0  0  0  0  0  0  0  0  0
  138.6705   68.6617  224.1594 H   0  0  0  0  0  0  0  0  0  0  0  0
  139.0456   68.0912  226.5322 H   0  0  0  0  0  0  0  0  0  0  0  0
  141.3109   70.8134  229.0033 H   0  0  0  0  0  0  0  0  0  0  0  0
  141.6113   72.3422  227.0531 H   0  0  0  0  0  0  0  0  0  0  0  0
  1  2  2  0
  2  3  1  0
  3  4  1  0
  4  5  1  0
  5  6  2  0
  5  7  1  0
  7  8  1  0
  8  9  1  0
  9 10  1  0
 10 11  1  0
 11 12  1  0
 12 13  1  0
 13 14  2  0
 14 15  1  0
 15 16  2  0
 16 17  1  0
 17 18  2  0
  2 19  1  0
 19 20  2  0
 20 21  1  0
 21 22  2  0
 22 23  1  0
 23 24  2  0
 24 25  1  0
 24 26  1  0
 26 27  2  0
 27 28  1  0
 28 29  2  0
 12  7  1  0
 18 13  1  0
 29 19  1  0
 28 22  1  0
  3 30  1  0
  4 31  1  0
  4 32  1  0
  8 33  1  0
  8 34  1  0
  9 35  1  0
  9 36  1  0
 10 37  1  0
 10 38  1  0
 11 39  1  0
 11 40  1  0
 12 41  1  6
 14 42  1  0
 15 43  1  0
 16 44  1  0
 18 45  1  0
 20 46  1  0
 21 47  1  0
 23 48  1  0
 26 49  1  0
 27 50  1  0
M  END
>  <smiles>  (45) 
O=C(NCC(=O)N1CCCCC1c1cccnc1)c1ccc2cc(F)ccc2n1

>  <score_type>  (45) 
oracle

>  <origin>  (45) 
autodockgpu

>  <m_score__min__energy>  (45) 
-8.4299999999999997

>  <m_primary>  (45) 
energy

>  <rmsd>  (45) 
1.9484348887130363

>  <m_score__min__rmsd>  (45) 
1.9484348887130363

>  <meeko>  (45) 
{"free_energy": -8.29, "intermolecular_energy": -9.78, "internal_energy": -1.3, "cluster_size": 22, "cluster_id": 2, "rank_in_cluster": 13}

>  <energy>  (45) 
-7.96

>  <cluster_rmsd>  (45) 
0.0

>  <cluster>  (45) 
3

$$$$

     RDKit          3D

 50 53  0  0  0  0  0  0  0  0999 V2000
  141.4930   72.0330  221.3910 O   0  0  0  0  0  0  0  0  0  0  0  0
  140.5720   72.3420  222.2210 C   0  0  0  0  0  0  0  0  0  0  0  0
  139.7770   73.5260  222.0310 N   0  0  0  0  0  0  0  0  0  0  0  0
  139.9770   74.3960  220.9150 C   0  0  0  0  0  0  0  0  0  0  0  0
  140.8940   75.5160  221.0310 C   0  0  0  0  0  0  0  0  0  0  0  0
  141.3780   75.6790  222.2290 O   0  0  0  0  0  0  0  0  0  0  0  0
  141.3420   76.4460  220.0870 N   0  0  0  0  0  0  0  0  0  0  0  0
  140.5710   77.4740  219.4250 C   0  0  0  0  0  0  0  0  0  0  0  0
  141.4290   78.7280  219.2130 C   0  0  0  0  0  0  0  0  0  0  0  0
  142.6020   78.4850  218.3240 C   0  0  0  0  0  0  0  0  0  0  0  0
  142.9440   77.0360  218.2990 C   0  0  0  0  0  0  0  0  0  0  0  0
  142.7660   76.4000  219.6790 C   0  0  2  0  0  0  0  0  0  0  0  0
  143.2590   74.9870  219.6340 C   0  0  0  0  0  0  0  0  0  0  0  0
  144.2840   74.5720  220.4680 C   0  0  0  0  0  0  0  0  0  0  0  0
  144.7010   73.2510  220.3860 C   0  0  0  0  0  0  0  0  0  0  0  0
  144.0670   72.4170  219.4680 C   0  0  0  0  0  0  0  0  0  0  0  0
  143.0730   72.8730  218.6790 N   0  0  0  0  0  0  0  0  0  0  0  0
  142.6410   74.1470  218.7310 C   0  0  0  0  0  0  0  0  0  0  0  0
  140.2950   71.5100  223.3850 C   0  0  0  0  0  0  0  0  0  0  0  0
  139.5720   70.3530  223.2890 C   0  0  0  0  0  0  0  0  0  0  0  0
  139.2990   69.5460  224.3980 C   0  0  0  0  0  0  0  0  0  0  0  0
  139.7840   69.9430  225.6240 C   0  0  0  0  0  0  0  0  0  0  0  0
  139.5590   69.2020  226.7730 C   0  0  0  0  0  0  0  0  0  0  0  0
  140.0700   69.6450  227.9920 C   0  0  0  0  0  0  0  0  0  0  0  0
  139.8280   68.8920  229.0940 F   0  0  0  0  0  0  0  0  0  0  0  0
  140.8010   70.8260  228.0600 C   0  0  0  0  0  0  0  0  0  0  0  0
  141.0290   71.5710  226.9150 C   0  0  0  0  0  0  0  0  0  0  0  0
  140.5130   71.1130  225.7150 C   0  0  0  0  0  0  0  0  0  0  0  0
  140.7450   71.8500  224.6190 N   0  0  0  0  0  0  0  0  0  0  0  0
  139.0250   73.7450  222.7490 H   0  0  0  0  0  0  0  0  0  0  0  0
  140.3393   73.7718  220.0849 H   0  0  0  0  0  0  0  0  0  0  0  0
  138.9971   74.8794  220.7883 H   0  0  0  0  0  0  0  0  0  0  0  0
  140.2284   77.0992  218.4492 H   0  0  0  0  0  0  0  0  0  0  0  0
  139.7061   77.7336  220.0531 H   0  0  0  0  0  0  0  0  0  0  0  0
  140.8017   79.5102  218.7605 H   0  0  0  0  0  0  0  0  0  0  0  0
  141.8172   79.0325  220.1961 H   0  0  0  0  0  0  0  0  0  0  0  0
  142.3586   78.8175  217.3041 H   0  0  0  0  0  0  0  0  0  0  0  0
  143.4645   79.0482  218.7099 H   0  0  0  0  0  0  0  0  0  0  0  0
  142.2859   76.5247  217.5810 H   0  0  0  0  0  0  0  0  0  0  0  0
  143.9981   76.9327  218.0019 H   0  0  0  0  0  0  0  0  0  0  0  0
  143.3494   76.9627  220.4226 H   0  0  0  0  0  0  0  0  0  0  0  0
  144.7545   75.2703  221.1758 H   0  0  0  0  0  0  0  0  0  0  0  0
  145.5100   72.8729  221.0283 H   0  0  0  0  0  0  0  0  0  0  0  0
  144.3831   71.3667  219.3851 H   0  0  0  0  0  0  0  0  0  0  0  0
  141.8288   74.5034  218.0803 H   0  0  0  0  0  0  0  0  0  0  0  0
  139.1914   70.0461  222.3036 H   0  0  0  0  0  0  0  0  0  0  0  0
  138.7136   68.6206  224.2939 H   0  0  0  0  0  0  0  0  0  0  0  0
  138.9797   68.2682  226.7235 H   0  0  0  0  0  0  0  0  0  0  0  0
  141.1993   71.1695  229.0261 H   0  0  0  0  0  0  0  0  0  0  0  0
  141.6072   72.5058  226.9582 H   0  0  0  0  0  0  0  0  0  0  0  0
  1  2  2  0
  2  3  1  0
  3  4  1  0
  4  5  1  0
  5  6  2  0
  5  7  1  0
  7  8  1  0
  8  9  1  0
  9 10  1  0
 10 11  1  0
 11 12  1  0
 12 13  1  0
 13 14  2  0
 14 15  1  0
 15 16  2  0
 16 17  1  0
 17 18  2  0
  2 19  1  0
 19 20  2  0
 20 21  1  0
 21 22  2  0
 22 23  1  0
 23 24  2  0
 24 25  1  0
 24 26  1  0
 26 27  2  0
 27 28  1  0
 28 29  2  0
 12  7  1  0
 18 13  1  0
 29 19  1  0
 28 22  1  0
  3 30  1  0
  4 31  1  0
  4 32  1  0
  8 33  1  0
  8 34  1  0
  9 35  1  0
  9 36  1  0
 10 37  1  0
 10 38  1  0
 11 39  1  0
 11 40  1  0
 12 41  1  1
 14 42  1  0
 15 43  1  0
 16 44  1  0
 18 45  1  0
 20 46  1  0
 21 47  1  0
 23 48  1  0
 26 49  1  0
 27 50  1  0
M  END
>  <smiles>  (46) 
O=C(NCC(=O)N1CCCCC1c1cccnc1)c1ccc2cc(F)ccc2n1

>  <score_type>  (46) 
oracle

>  <origin>  (46) 
autodockgpu

>  <m_score__min__energy>  (46) 
-8.4299999999999997

>  <m_primary>  (46) 
energy

>  <rmsd>  (46) 
2.0639767886942737

>  <m_score__min__rmsd>  (46) 
2.0639767886942737

>  <meeko>  (46) 
{"free_energy": -7.94, "intermolecular_energy": -9.43, "internal_energy": -1.62, "cluster_size": 22, "cluster_id": 1, "rank_in_cluster": 4}

>  <energy>  (46) 
-7.91

>  <cluster_rmsd>  (46) 
0.12

>  <cluster>  (46) 
3

$$$$

     RDKit          3D

 50 53  0  0  0  0  0  0  0  0999 V2000
  140.3580   71.4440  220.9620 O   0  0  0  0  0  0  0  0  0  0  0  0
  140.0770   71.9640  222.0960 C   0  0  0  0  0  0  0  0  0  0  0  0
  139.8530   73.3800  222.2200 N   0  0  0  0  0  0  0  0  0  0  0  0
  139.9290   74.2570  221.0950 C   0  0  0  0  0  0  0  0  0  0  0  0
  140.8330   75.3920  221.1260 C   0  0  0  0  0  0  0  0  0  0  0  0
  141.1590   75.7730  222.3280 O   0  0  0  0  0  0  0  0  0  0  0  0
  141.4090   76.1450  220.0970 N   0  0  0  0  0  0  0  0  0  0  0  0
  140.7640   77.1250  219.2520 C   0  0  0  0  0  0  0  0  0  0  0  0
  141.7340   78.2690  218.9300 C   0  0  0  0  0  0  0  0  0  0  0  0
  142.9300   77.8170  218.1620 C   0  0  0  0  0  0  0  0  0  0  0  0
  143.1510   76.3570  218.3550 C   0  0  0  0  0  0  0  0  0  0  0  0
  142.8450   75.9360  219.7940 C   0  0  2  0  0  0  0  0  0  0  0  0
  143.2200   74.4970  219.9730 C   0  0  0  0  0  0  0  0  0  0  0  0
  142.5280   73.5000  219.3050 C   0  0  0  0  0  0  0  0  0  0  0  0
  142.9190   72.1840  219.5060 C   0  0  0  0  0  0  0  0  0  0  0  0
  143.9860   71.9390  220.3690 C   0  0  0  0  0  0  0  0  0  0  0  0
  144.6260   72.9490  220.9930 N   0  0  0  0  0  0  0  0  0  0  0  0
  144.2750   74.2370  220.8230 C   0  0  0  0  0  0  0  0  0  0  0  0
  139.9750   71.1450  223.2960 C   0  0  0  0  0  0  0  0  0  0  0  0
  139.4390   69.8870  223.2670 C   0  0  0  0  0  0  0  0  0  0  0  0
  139.3350   69.0910  224.4130 C   0  0  0  0  0  0  0  0  0  0  0  0
  139.7920   69.6060  225.6040 C   0  0  0  0  0  0  0  0  0  0  0  0
  139.7270   68.8840  226.7860 C   0  0  0  0  0  0  0  0  0  0  0  0
  140.2030   69.4490  227.9680 C   0  0  0  0  0  0  0  0  0  0  0  0
  140.1200   68.7100  229.1030 F   0  0  0  0  0  0  0  0  0  0  0  0
  140.7410   70.7300  227.9670 C   0  0  0  0  0  0  0  0  0  0  0  0
  140.8100   71.4570  226.7900 C   0  0  0  0  0  0  0  0  0  0  0  0
  140.3320   70.8770  225.6280 C   0  0  0  0  0  0  0  0  0  0  0  0
  140.4080   71.5990  224.5000 N   0  0  0  0  0  0  0  0  0  0  0  0
  139.6260   73.7670  223.1830 H   0  0  0  0  0  0  0  0  0  0  0  0
  140.2193   73.6419  220.2305 H   0  0  0  0  0  0  0  0  0  0  0  0
  138.9335   74.7241  221.0675 H   0  0  0  0  0  0  0  0  0  0  0  0
  140.4462   76.6439  218.3153 H   0  0  0  0  0  0  0  0  0  0  0  0
  139.8900   77.5340  219.7801 H   0  0  0  0  0  0  0  0  0  0  0  0
  141.2001   79.0249  218.3354 H   0  0  0  0  0  0  0  0  0  0  0  0
  142.0912   78.6781  219.8866 H   0  0  0  0  0  0  0  0  0  0  0  0
  142.7723   78.0212  217.0927 H   0  0  0  0  0  0  0  0  0  0  0  0
  143.8136   78.3622  218.5253 H   0  0  0  0  0  0  0  0  0  0  0  0
  142.4929   75.8011  217.6710 H   0  0  0  0  0  0  0  0  0  0  0  0
  144.2073   76.1340  218.1442 H   0  0  0  0  0  0  0  0  0  0  0  0
  143.4314   76.5522  220.4915 H   0  0  0  0  0  0  0  0  0  0  0  0
  141.6917   73.7449  218.6338 H   0  0  0  0  0  0  0  0  0  0  0  0
  142.4013   71.3568  218.9983 H   0  0  0  0  0  0  0  0  0  0  0  0
  144.3119   70.9031  220.5443 H   0  0  0  0  0  0  0  0  0  0  0  0
  144.8072   75.0488  221.3404 H   0  0  0  0  0  0  0  0  0  0  0  0
  139.0768   69.4868  222.3086 H   0  0  0  0  0  0  0  0  0  0  0  0
  138.9001   68.0819  224.3630 H   0  0  0  0  0  0  0  0  0  0  0  0
  139.3016   67.8696  226.7909 H   0  0  0  0  0  0  0  0  0  0  0  0
  141.1136   71.1685  228.9045 H   0  0  0  0  0  0  0  0  0  0  0  0
  141.2348   72.4716  226.7792 H   0  0  0  0  0  0  0  0  0  0  0  0
  1  2  2  0
  2  3  1  0
  3  4  1  0
  4  5  1  0
  5  6  2  0
  5  7  1  0
  7  8  1  0
  8  9  1  0
  9 10  1  0
 10 11  1  0
 11 12  1  0
 12 13  1  0
 13 14  2  0
 14 15  1  0
 15 16  2  0
 16 17  1  0
 17 18  2  0
  2 19  1  0
 19 20  2  0
 20 21  1  0
 21 22  2  0
 22 23  1  0
 23 24  2  0
 24 25  1  0
 24 26  1  0
 26 27  2  0
 27 28  1  0
 28 29  2  0
 12  7  1  0
 18 13  1  0
 29 19  1  0
 28 22  1  0
  3 30  1  0
  4 31  1  0
  4 32  1  0
  8 33  1  0
  8 34  1  0
  9 35  1  0
  9 36  1  0
 10 37  1  0
 10 38  1  0
 11 39  1  0
 11 40  1  0
 12 41  1  1
 14 42  1  0
 15 43  1  0
 16 44  1  0
 18 45  1  0
 20 46  1  0
 21 47  1  0
 23 48  1  0
 26 49  1  0
 27 50  1  0
M  END
>  <smiles>  (47) 
O=C(NCC(=O)N1CCCCC1c1cccnc1)c1ccc2cc(F)ccc2n1

>  <score_type>  (47) 
oracle

>  <origin>  (47) 
autodockgpu

>  <m_score__min__energy>  (47) 
-8.4299999999999997

>  <m_primary>  (47) 
energy

>  <rmsd>  (47) 
1.9026256117706974

>  <m_score__min__rmsd>  (47) 
1.9026256117706974

>  <meeko>  (47) 
{"free_energy": -7.62, "intermolecular_energy": -9.11, "internal_energy": -1.84, "cluster_size": 22, "cluster_id": 1, "rank_in_cluster": 20}

>  <energy>  (47) 
-7.9

>  <cluster_rmsd>  (47) 
0.19

>  <cluster>  (47) 
3

$$$$

     RDKit          3D

 50 53  0  0  0  0  0  0  0  0999 V2000
  140.8210   71.6450  221.0750 O   0  0  0  0  0  0  0  0  0  0  0  0
  140.2840   72.1120  222.1380 C   0  0  0  0  0  0  0  0  0  0  0  0
  139.8250   73.4740  222.1930 N   0  0  0  0  0  0  0  0  0  0  0  0
  139.9430   74.3540  221.0730 C   0  0  0  0  0  0  0  0  0  0  0  0
  140.9550   75.3950  221.0790 C   0  0  0  0  0  0  0  0  0  0  0  0
  141.4370   75.6540  222.2610 O   0  0  0  0  0  0  0  0  0  0  0  0
  141.4960   76.1650  220.0440 N   0  0  0  0  0  0  0  0  0  0  0  0
  140.8170   77.1380  219.2180 C   0  0  0  0  0  0  0  0  0  0  0  0
  141.7590   78.3030  218.8850 C   0  0  0  0  0  0  0  0  0  0  0  0
  142.9480   77.8780  218.0920 C   0  0  0  0  0  0  0  0  0  0  0  0
  143.2000   76.4210  218.2710 C   0  0  0  0  0  0  0  0  0  0  0  0
  142.9290   75.9850  219.7120 C   0  0  2  0  0  0  0  0  0  0  0  0
  143.3360   74.5530  219.8740 C   0  0  0  0  0  0  0  0  0  0  0  0
  142.7240   73.5590  219.1280 C   0  0  0  0  0  0  0  0  0  0  0  0
  143.1400   72.2490  219.3170 C   0  0  0  0  0  0  0  0  0  0  0  0
  144.1490   72.0060  220.2470 C   0  0  0  0  0  0  0  0  0  0  0  0
  144.7120   73.0130  220.9460 N   0  0  0  0  0  0  0  0  0  0  0  0
  144.3340   74.2960  220.7900 C   0  0  0  0  0  0  0  0  0  0  0  0
  140.1190   71.2840  223.3250 C   0  0  0  0  0  0  0  0  0  0  0  0
  139.5580   70.0380  223.2640 C   0  0  0  0  0  0  0  0  0  0  0  0
  139.3940   69.2340  224.3970 C   0  0  0  0  0  0  0  0  0  0  0  0
  139.8180   69.7280  225.6100 C   0  0  0  0  0  0  0  0  0  0  0  0
  139.6930   68.9970  226.7800 C   0  0  0  0  0  0  0  0  0  0  0  0
  140.1370   69.5400  227.9850 C   0  0  0  0  0  0  0  0  0  0  0  0
  139.9960   68.7930  229.1090 F   0  0  0  0  0  0  0  0  0  0  0  0
  140.7030   70.8090  228.0170 C   0  0  0  0  0  0  0  0  0  0  0  0
  140.8320   71.5450  226.8510 C   0  0  0  0  0  0  0  0  0  0  0  0
  140.3840   70.9870  225.6660 C   0  0  0  0  0  0  0  0  0  0  0  0
  140.5180   71.7170  224.5490 N   0  0  0  0  0  0  0  0  0  0  0  0
  139.3890   73.8190  223.0980 H   0  0  0  0  0  0  0  0  0  0  0  0
  140.1381   73.7247  220.1922 H   0  0  0  0  0  0  0  0  0  0  0  0
  138.9976   74.9161  221.0885 H   0  0  0  0  0  0  0  0  0  0  0  0
  140.4905   76.6568  218.2842 H   0  0  0  0  0  0  0  0  0  0  0  0
  139.9459   77.5271  219.7656 H   0  0  0  0  0  0  0  0  0  0  0  0
  141.1998   79.0521  218.3053 H   0  0  0  0  0  0  0  0  0  0  0  0
  142.1263   78.7136  219.8371 H   0  0  0  0  0  0  0  0  0  0  0  0
  142.7663   78.0859  217.0272 H   0  0  0  0  0  0  0  0  0  0  0  0
  143.8281   78.4372  218.4424 H   0  0  0  0  0  0  0  0  0  0  0  0
  142.5399   75.8572  217.5955 H   0  0  0  0  0  0  0  0  0  0  0  0
  144.2562   76.2194  218.0392 H   0  0  0  0  0  0  0  0  0  0  0  0
  143.5160   76.6079  220.4030 H   0  0  0  0  0  0  0  0  0  0  0  0
  141.9304   73.8016  218.4060 H   0  0  0  0  0  0  0  0  0  0  0  0
  142.6856   71.4244  218.7481 H   0  0  0  0  0  0  0  0  0  0  0  0
  144.4925   70.9745  220.4141 H   0  0  0  0  0  0  0  0  0  0  0  0
  144.8020   75.1055  221.3693 H   0  0  0  0  0  0  0  0  0  0  0  0
  139.2237   69.6543  222.2888 H   0  0  0  0  0  0  0  0  0  0  0  0
  138.9391   68.2354  224.3208 H   0  0  0  0  0  0  0  0  0  0  0  0
  139.2454   67.9924  226.7585 H   0  0  0  0  0  0  0  0  0  0  0  0
  141.0498   71.2303  228.9721 H   0  0  0  0  0  0  0  0  0  0  0  0
  141.2800   72.5495  226.8661 H   0  0  0  0  0  0  0  0  0  0  0  0
  1  2  2  0
  2  3  1  0
  3  4  1  0
  4  5  1  0
  5  6  2  0
  5  7  1  0
  7  8  1  0
  8  9  1  0
  9 10  1  0
 10 11  1  0
 11 12  1  0
 12 13  1  0
 13 14  2  0
 14 15  1  0
 15 16  2  0
 16 17  1  0
 17 18  2  0
  2 19  1  0
 19 20  2  0
 20 21  1  0
 21 22  2  0
 22 23  1  0
 23 24  2  0
 24 25  1  0
 24 26  1  0
 26 27  2  0
 27 28  1  0
 28 29  2  0
 12  7  1  0
 18 13  1  0
 29 19  1  0
 28 22  1  0
  3 30  1  0
  4 31  1  0
  4 32  1  0
  8 33  1  0
  8 34  1  0
  9 35  1  0
  9 36  1  0
 10 37  1  0
 10 38  1  0
 11 39  1  0
 11 40  1  0
 12 41  1  1
 14 42  1  0
 15 43  1  0
 16 44  1  0
 18 45  1  0
 20 46  1  0
 21 47  1  0
 23 48  1  0
 26 49  1  0
 27 50  1  0
M  END
>  <smiles>  (48) 
O=C(NCC(=O)N1CCCCC1c1cccnc1)c1ccc2cc(F)ccc2n1

>  <score_type>  (48) 
oracle

>  <origin>  (48) 
autodockgpu

>  <m_score__min__energy>  (48) 
-8.4299999999999997

>  <m_primary>  (48) 
energy

>  <rmsd>  (48) 
1.9631903056676145

>  <m_score__min__rmsd>  (48) 
1.9631903056676145

>  <meeko>  (48) 
{"free_energy": -7.68, "intermolecular_energy": -9.17, "internal_energy": -1.77, "cluster_size": 22, "cluster_id": 1, "rank_in_cluster": 18}

>  <energy>  (48) 
-7.96

>  <cluster_rmsd>  (48) 
0.0

>  <cluster>  (48) 
4

$$$$

     RDKit          3D

 50 53  0  0  0  0  0  0  0  0999 V2000
  139.9490   73.6720  222.4280 O   0  0  0  0  0  0  0  0  0  0  0  0
  140.1000   72.4120  222.2780 C   0  0  0  0  0  0  0  0  0  0  0  0
  140.2900   71.8440  220.9700 N   0  0  0  0  0  0  0  0  0  0  0  0
  140.3220   72.6560  219.7940 C   0  0  0  0  0  0  0  0  0  0  0  0
  141.5980   73.0250  219.2080 C   0  0  0  0  0  0  0  0  0  0  0  0
  141.5060   73.4800  217.9910 O   0  0  0  0  0  0  0  0  0  0  0  0
  142.9000   72.9730  219.7170 N   0  0  0  0  0  0  0  0  0  0  0  0
  143.6050   71.8180  220.2240 C   0  0  0  0  0  0  0  0  0  0  0  0
  145.0940   71.9050  219.8650 C   0  0  0  0  0  0  0  0  0  0  0  0
  145.7720   73.0800  220.4840 C   0  0  0  0  0  0  0  0  0  0  0  0
  144.7760   74.1290  220.8370 C   0  0  0  0  0  0  0  0  0  0  0  0
  143.6800   74.2320  219.7750 C   0  0  2  0  0  0  0  0  0  0  0  0
  142.7910   75.3920  220.1000 C   0  0  0  0  0  0  0  0  0  0  0  0
  142.8260   76.5430  219.3310 C   0  0  0  0  0  0  0  0  0  0  0  0
  141.9800   77.5880  219.6760 C   0  0  0  0  0  0  0  0  0  0  0  0
  141.1440   77.4210  220.7780 C   0  0  0  0  0  0  0  0  0  0  0  0
  141.1500   76.2770  221.4930 N   0  0  0  0  0  0  0  0  0  0  0  0
  141.9570   75.2430  221.1890 C   0  0  0  0  0  0  0  0  0  0  0  0
  140.0850   71.5100  223.4220 C   0  0  0  0  0  0  0  0  0  0  0  0
  139.6000   70.2340  223.3290 C   0  0  0  0  0  0  0  0  0  0  0  0
  139.5810   69.3590  224.4200 C   0  0  0  0  0  0  0  0  0  0  0  0
  140.0720   69.8120  225.6240 C   0  0  0  0  0  0  0  0  0  0  0  0
  140.0890   69.0100  226.7540 C   0  0  0  0  0  0  0  0  0  0  0  0
  140.5960   69.5140  227.9510 C   0  0  0  0  0  0  0  0  0  0  0  0
  140.5960   68.6980  229.0340 F   0  0  0  0  0  0  0  0  0  0  0  0
  141.0820   70.8150  228.0150 C   0  0  0  0  0  0  0  0  0  0  0  0
  141.0680   71.6210  226.8900 C   0  0  0  0  0  0  0  0  0  0  0  0
  140.5600   71.1010  225.7120 C   0  0  0  0  0  0  0  0  0  0  0  0
  140.5560   71.8990  224.6340 N   0  0  0  0  0  0  0  0  0  0  0  0
  140.4070   70.7910  220.8930 H   0  0  0  0  0  0  0  0  0  0  0  0
  139.7593   72.1160  219.0183 H   0  0  0  0  0  0  0  0  0  0  0  0
  139.9101   73.6171  220.1357 H   0  0  0  0  0  0  0  0  0  0  0  0
  143.4969   71.7779  221.3179 H   0  0  0  0  0  0  0  0  0  0  0  0
  143.1794   70.9107  219.7705 H   0  0  0  0  0  0  0  0  0  0  0  0
  145.5931   70.9884  220.2126 H   0  0  0  0  0  0  0  0  0  0  0  0
  145.1643   72.0203  218.7733 H   0  0  0  0  0  0  0  0  0  0  0  0
  146.2963   72.7570  221.3954 H   0  0  0  0  0  0  0  0  0  0  0  0
  146.4894   73.4982  219.7626 H   0  0  0  0  0  0  0  0  0  0  0  0
  144.3161   73.8761  221.8037 H   0  0  0  0  0  0  0  0  0  0  0  0
  145.2958   75.0967  220.8957 H   0  0  0  0  0  0  0  0  0  0  0  0
  144.1369   74.3928  218.7874 H   0  0  0  0  0  0  0  0  0  0  0  0
  143.5057   76.6269  218.4702 H   0  0  0  0  0  0  0  0  0  0  0  0
  141.9699   78.5222  219.0954 H   0  0  0  0  0  0  0  0  0  0  0  0
  140.4667   78.2369  221.0704 H   0  0  0  0  0  0  0  0  0  0  0  0
  141.9516   74.3179  221.7841 H   0  0  0  0  0  0  0  0  0  0  0  0
  139.2111   69.8837  222.3615 H   0  0  0  0  0  0  0  0  0  0  0  0
  139.1849   68.3378  224.3190 H   0  0  0  0  0  0  0  0  0  0  0  0
  139.7043   67.9806  226.7068 H   0  0  0  0  0  0  0  0  0  0  0  0
  141.4793   71.2053  228.9636 H   0  0  0  0  0  0  0  0  0  0  0  0
  141.4517   72.6511  226.9310 H   0  0  0  0  0  0  0  0  0  0  0  0
  1  2  2  0
  2  3  1  0
  3  4  1  0
  4  5  1  0
  5  6  2  0
  5  7  1  0
  7  8  1  0
  8  9  1  0
  9 10  1  0
 10 11  1  0
 11 12  1  0
 12 13  1  0
 13 14  2  0
 14 15  1  0
 15 16  2  0
 16 17  1  0
 17 18  2  0
  2 19  1  0
 19 20  2  0
 20 21  1  0
 21 22  2  0
 22 23  1  0
 23 24  2  0
 24 25  1  0
 24 26  1  0
 26 27  2  0
 27 28  1  0
 28 29  2  0
 12  7  1  0
 18 13  1  0
 29 19  1  0
 28 22  1  0
  3 30  1  0
  4 31  1  0
  4 32  1  0
  8 33  1  0
  8 34  1  0
  9 35  1  0
  9 36  1  0
 10 37  1  0
 10 38  1  0
 11 39  1  0
 11 40  1  0
 12 41  1  6
 14 42  1  0
 15 43  1  0
 16 44  1  0
 18 45  1  0
 20 46  1  0
 21 47  1  0
 23 48  1  0
 26 49  1  0
 27 50  1  0
M  END
>  <smiles>  (49) 
O=C(NCC(=O)N1CCCCC1c1cccnc1)c1ccc2cc(F)ccc2n1

>  <score_type>  (49) 
oracle

>  <origin>  (49) 
autodockgpu

>  <m_score__min__energy>  (49) 
-8.4299999999999997

>  <m_primary>  (49) 
energy

>  <rmsd>  (49) 
3.6129237435278188

>  <m_score__min__rmsd>  (49) 
3.6129237435278188

>  <meeko>  (49) 
{"free_energy": -7.9, "intermolecular_energy": -9.39, "internal_energy": -1.42, "cluster_size": 3, "cluster_id": 3, "rank_in_cluster": 3}

>  <energy>  (49) 
-7.81

>  <cluster_rmsd>  (49) 
1.19

>  <cluster>  (49) 
4

$$$$

     RDKit          3D

 50 53  0  0  0  0  0  0  0  0999 V2000
  139.6140   73.5360  222.4940 O   0  0  0  0  0  0  0  0  0  0  0  0
  140.1900   72.3960  222.4500 C   0  0  0  0  0  0  0  0  0  0  0  0
  140.9220   71.9870  221.2820 N   0  0  0  0  0  0  0  0  0  0  0  0
  141.0400   72.8290  220.1330 C   0  0  0  0  0  0  0  0  0  0  0  0
  141.6150   74.1550  220.2680 C   0  0  0  0  0  0  0  0  0  0  0  0
  141.8430   74.5070  221.5010 O   0  0  0  0  0  0  0  0  0  0  0  0
  141.9610   75.1150  219.3110 N   0  0  0  0  0  0  0  0  0  0  0  0
  141.0980   75.7380  218.3330 C   0  0  0  0  0  0  0  0  0  0  0  0
  141.5070   77.2020  218.1190 C   0  0  0  0  0  0  0  0  0  0  0  0
  142.8870   77.3440  217.5710 C   0  0  0  0  0  0  0  0  0  0  0  0
  143.6900   76.1230  217.8600 C   0  0  0  0  0  0  0  0  0  0  0  0
  143.3710   75.5660  219.2490 C   0  0  2  0  0  0  0  0  0  0  0  0
  144.3040   74.4340  219.5470 C   0  0  0  0  0  0  0  0  0  0  0  0
  144.7050   74.1750  220.8480 C   0  0  0  0  0  0  0  0  0  0  0  0
  145.5700   73.1130  221.0680 C   0  0  0  0  0  0  0  0  0  0  0  0
  145.9870   72.3660  219.9680 C   0  0  0  0  0  0  0  0  0  0  0  0
  145.5650   72.6610  218.7220 N   0  0  0  0  0  0  0  0  0  0  0  0
  144.7270   73.6830  218.4700 C   0  0  0  0  0  0  0  0  0  0  0  0
  140.1260   71.4750  223.5770 C   0  0  0  0  0  0  0  0  0  0  0  0
  139.5910   70.2230  223.4560 C   0  0  0  0  0  0  0  0  0  0  0  0
  139.5230   69.3300  224.5310 C   0  0  0  0  0  0  0  0  0  0  0  0
  140.0170   69.7420  225.7480 C   0  0  0  0  0  0  0  0  0  0  0  0
  139.9890   68.9200  226.8640 C   0  0  0  0  0  0  0  0  0  0  0  0
  140.5020   69.3810  228.0750 C   0  0  0  0  0  0  0  0  0  0  0  0
  140.4550   68.5470  229.1430 F   0  0  0  0  0  0  0  0  0  0  0  0
  141.0390   70.6600  228.1680 C   0  0  0  0  0  0  0  0  0  0  0  0
  141.0710   71.4860  227.0580 C   0  0  0  0  0  0  0  0  0  0  0  0
  140.5560   71.0080  225.8650 C   0  0  0  0  0  0  0  0  0  0  0  0
  140.5970   71.8240  224.8020 N   0  0  0  0  0  0  0  0  0  0  0  0
  141.3810   71.0290  221.2890 H   0  0  0  0  0  0  0  0  0  0  0  0
  141.6578   72.2865  219.4023 H   0  0  0  0  0  0  0  0  0  0  0  0
  139.9949   73.0306  219.8553 H   0  0  0  0  0  0  0  0  0  0  0  0
  141.1787   75.1954  217.3795 H   0  0  0  0  0  0  0  0  0  0  0  0
  140.0608   75.7054  218.6979 H   0  0  0  0  0  0  0  0  0  0  0  0
  140.8001   77.6647  217.4146 H   0  0  0  0  0  0  0  0  0  0  0  0
  141.4888   77.6972  219.1011 H   0  0  0  0  0  0  0  0  0  0  0  0
  142.8310   77.4915  216.4824 H   0  0  0  0  0  0  0  0  0  0  0  0
  143.3716   78.2098  218.0459 H   0  0  0  0  0  0  0  0  0  0  0  0
  143.4615   75.3564  217.1050 H   0  0  0  0  0  0  0  0  0  0  0  0
  144.7561   76.3923  217.8295 H   0  0  0  0  0  0  0  0  0  0  0  0
  143.5067   76.3545  220.0038 H   0  0  0  0  0  0  0  0  0  0  0  0
  144.3472   74.7946  221.6835 H   0  0  0  0  0  0  0  0  0  0  0  0
  145.9171   72.8674  222.0825 H   0  0  0  0  0  0  0  0  0  0  0  0
  146.6733   71.5198  220.1192 H   0  0  0  0  0  0  0  0  0  0  0  0
  144.3928   73.9104  217.4470 H   0  0  0  0  0  0  0  0  0  0  0  0
  139.1997   69.9060  222.4780 H   0  0  0  0  0  0  0  0  0  0  0  0
  139.0873   68.3276  224.4072 H   0  0  0  0  0  0  0  0  0  0  0  0
  139.5636   67.9080  226.7939 H   0  0  0  0  0  0  0  0  0  0  0  0
  141.4402   71.0170  229.1280 H   0  0  0  0  0  0  0  0  0  0  0  0
  141.4957   72.4987  227.1221 H   0  0  0  0  0  0  0  0  0  0  0  0
  1  2  2  0
  2  3  1  0
  3  4  1  0
  4  5  1  0
  5  6  2  0
  5  7  1  0
  7  8  1  0
  8  9  1  0
  9 10  1  0
 10 11  1  0
 11 12  1  0
 12 13  1  0
 13 14  2  0
 14 15  1  0
 15 16  2  0
 16 17  1  0
 17 18  2  0
  2 19  1  0
 19 20  2  0
 20 21  1  0
 21 22  2  0
 22 23  1  0
 23 24  2  0
 24 25  1  0
 24 26  1  0
 26 27  2  0
 27 28  1  0
 28 29  2  0
 12  7  1  0
 18 13  1  0
 29 19  1  0
 28 22  1  0
  3 30  1  0
  4 31  1  0
  4 32  1  0
  8 33  1  0
  8 34  1  0
  9 35  1  0
  9 36  1  0
 10 37  1  0
 10 38  1  0
 11 39  1  0
 11 40  1  0
 12 41  1  1
 14 42  1  0
 15 43  1  0
 16 44  1  0
 18 45  1  0
 20 46  1  0
 21 47  1  0
 23 48  1  0
 26 49  1  0
 27 50  1  0
M  END
>  <smiles>  (50) 
O=C(NCC(=O)N1CCCCC1c1cccnc1)c1ccc2cc(F)ccc2n1

>  <score_type>  (50) 
oracle

>  <origin>  (50) 
autodockgpu

>  <m_score__min__energy>  (50) 
-8.4299999999999997

>  <m_primary>  (50) 
energy

>  <rmsd>  (50) 
2.250979049578815

>  <m_score__min__rmsd>  (50) 
2.250979049578815

>  <meeko>  (50) 
{"free_energy": -8.43, "intermolecular_energy": -9.92, "internal_energy": -1.16, "cluster_size": 22, "cluster_id": 1, "rank_in_cluster": 1}

>  <energy>  (50) 
-6.78

>  <cluster_rmsd>  (50) 
0.0

>  <cluster>  (50) 
5

$$$$

     RDKit          3D

 50 53  0  0  0  0  0  0  0  0999 V2000
  139.0970   74.9500  221.4460 O   0  0  0  0  0  0  0  0  0  0  0  0
  140.3360   75.1840  221.5860 C   0  0  0  0  0  0  0  0  0  0  0  0
  140.6820   76.4900  222.1470 N   0  0  0  0  0  0  0  0  0  0  0  0
  139.5970   77.3280  222.4620 C   0  0  0  0  0  0  0  0  0  0  0  0
  139.6520   78.7610  222.2100 C   0  0  0  0  0  0  0  0  0  0  0  0
  138.6150   79.1980  221.5330 O   0  0  0  0  0  0  0  0  0  0  0  0
  140.5790   79.7410  222.5460 N   0  0  0  0  0  0  0  0  0  0  0  0
  140.4420   80.7390  223.6100 C   0  0  0  0  0  0  0  0  0  0  0  0
  141.7850   81.4300  223.8200 C   0  0  0  0  0  0  0  0  0  0  0  0
  142.9580   80.5190  223.8300 C   0  0  0  0  0  0  0  0  0  0  0  0
  142.9020   79.4320  222.7380 C   0  0  0  0  0  0  0  0  0  0  0  0
  141.8510   79.8750  221.8010 C   0  0  1  0  0  0  0  0  0  0  0  0
  141.8050   79.3210  220.4680 C   0  0  0  0  0  0  0  0  0  0  0  0
  142.2060   77.9870  220.2910 C   0  0  0  0  0  0  0  0  0  0  0  0
  142.1610   77.4630  219.0200 C   0  0  0  0  0  0  0  0  0  0  0  0
  141.7310   78.2280  217.9420 C   0  0  0  0  0  0  0  0  0  0  0  0
  141.3490   79.5110  218.1360 N   0  0  0  0  0  0  0  0  0  0  0  0
  141.3770   80.0760  219.3730 C   0  0  0  0  0  0  0  0  0  0  0  0
  141.3720   74.2500  221.2280 C   0  0  0  0  0  0  0  0  0  0  0  0
  141.0440   72.9270  221.0880 C   0  0  0  0  0  0  0  0  0  0  0  0
  142.0370   72.0480  220.7480 C   0  0  0  0  0  0  0  0  0  0  0  0
  143.3230   72.4720  220.5520 C   0  0  0  0  0  0  0  0  0  0  0  0
  144.3700   71.6440  220.2080 C   0  0  0  0  0  0  0  0  0  0  0  0
  145.6470   72.0740  220.0140 C   0  0  0  0  0  0  0  0  0  0  0  0
  146.6590   71.2460  219.6780 F   0  0  0  0  0  0  0  0  0  0  0  0
  145.9560   73.4180  220.1610 C   0  0  0  0  0  0  0  0  0  0  0  0
  144.9150   74.2520  220.5040 C   0  0  0  0  0  0  0  0  0  0  0  0
  143.6220   73.8150  220.7010 C   0  0  0  0  0  0  0  0  0  0  0  0
  142.6350   74.6670  221.0350 N   0  0  0  0  0  0  0  0  0  0  0  0
  141.6960   76.6270  222.2500 H   0  0  0  0  0  0  0  0  0  0  0  0
  138.7336   76.9453  221.8980 H   0  0  0  0  0  0  0  0  0  0  0  0
  139.5677   77.2791  223.5605 H   0  0  0  0  0  0  0  0  0  0  0  0
  139.6854   81.4836  223.3217 H   0  0  0  0  0  0  0  0  0  0  0  0
  140.1280   80.2468  224.5423 H   0  0  0  0  0  0  0  0  0  0  0  0
  141.9251   82.1598  223.0090 H   0  0  0  0  0  0  0  0  0  0  0  0
  141.7432   81.8928  224.8170 H   0  0  0  0  0  0  0  0  0  0  0  0
  143.8667   81.1197  223.6770 H   0  0  0  0  0  0  0  0  0  0  0  0
  142.9580   80.0023  224.8011 H   0  0  0  0  0  0  0  0  0  0  0  0
  143.8703   79.3540  222.2220 H   0  0  0  0  0  0  0  0  0  0  0  0
  142.6845   78.4391  223.1585 H   0  0  0  0  0  0  0  0  0  0  0  0
  142.0904   80.9094  221.5135 H   0  0  0  0  0  0  0  0  0  0  0  0
  142.5458   77.3795  221.1428 H   0  0  0  0  0  0  0  0  0  0  0  0
  142.4706   76.4206  218.8538 H   0  0  0  0  0  0  0  0  0  0  0  0
  141.7014   77.7908  216.9330 H   0  0  0  0  0  0  0  0  0  0  0  0
  141.0644   81.1216  219.5105 H   0  0  0  0  0  0  0  0  0  0  0  0
  140.0117   72.5808  221.2444 H   0  0  0  0  0  0  0  0  0  0  0  0
  141.7965   70.9811  220.6302 H   0  0  0  0  0  0  0  0  0  0  0  0
  144.1611   70.5713  220.0827 H   0  0  0  0  0  0  0  0  0  0  0  0
  146.9776   73.7975  220.0117 H   0  0  0  0  0  0  0  0  0  0  0  0
  145.1264   75.3244  220.6274 H   0  0  0  0  0  0  0  0  0  0  0  0
  1  2  2  0
  2  3  1  0
  3  4  1  0
  4  5  1  0
  5  6  2  0
  5  7  1  0
  7  8  1  0
  8  9  1  0
  9 10  1  0
 10 11  1  0
 11 12  1  0
 12 13  1  0
 13 14  2  0
 14 15  1  0
 15 16  2  0
 16 17  1  0
 17 18  2  0
  2 19  1  0
 19 20  2  0
 20 21  1  0
 21 22  2  0
 22 23  1  0
 23 24  2  0
 24 25  1  0
 24 26  1  0
 26 27  2  0
 27 28  1  0
 28 29  2  0
 12  7  1  0
 18 13  1  0
 29 19  1  0
 28 22  1  0
  3 30  1  0
  4 31  1  0
  4 32  1  0
  8 33  1  0
  8 34  1  0
  9 35  1  0
  9 36  1  0
 10 37  1  0
 10 38  1  0
 11 39  1  0
 11 40  1  0
 12 41  1  6
 14 42  1  0
 15 43  1  0
 16 44  1  0
 18 45  1  0
 20 46  1  0
 21 47  1  0
 23 48  1  0
 26 49  1  0
 27 50  1  0
M  END
>  <smiles>  (51) 
O=C(NCC(=O)N1CCCCC1c1cccnc1)c1ccc2cc(F)ccc2n1

>  <score_type>  (51) 
oracle

>  <origin>  (51) 
autodockgpu

>  <m_score__min__energy>  (51) 
-8.6300000000000008

>  <m_primary>  (51) 
energy

>  <rmsd>  (51) 
6.728844988110752

>  <m_score__min__rmsd>  (51) 
6.728844988110752

>  <meeko>  (51) 
{"free_energy": -7.1, "intermolecular_energy": -8.59, "internal_energy": -2.04, "cluster_size": 8, "cluster_id": 3, "rank_in_cluster": 5}

>  <energy>  (51) 
-8.63

>  <cluster_rmsd>  (51) 
0.0

>  <cluster>  (51) 
1

$$$$

     RDKit          3D

 50 53  0  0  0  0  0  0  0  0999 V2000
  139.7990   73.4680  222.3420 O   0  0  0  0  0  0  0  0  0  0  0  0
  140.1980   72.2650  222.3360 C   0  0  0  0  0  0  0  0  0  0  0  0
  140.7560   71.7810  221.0730 N   0  0  0  0  0  0  0  0  0  0  0  0
  140.7810   72.7120  220.0180 C   0  0  0  0  0  0  0  0  0  0  0  0
  141.6420   73.8850  220.0670 C   0  0  0  0  0  0  0  0  0  0  0  0
  142.2330   74.0330  221.2310 O   0  0  0  0  0  0  0  0  0  0  0  0
  141.9550   74.8630  219.1310 N   0  0  0  0  0  0  0  0  0  0  0  0
  141.0120   75.5560  218.2490 C   0  0  0  0  0  0  0  0  0  0  0  0
  141.7210   76.7320  217.5880 C   0  0  0  0  0  0  0  0  0  0  0  0
  142.5800   77.5330  218.4980 C   0  0  0  0  0  0  0  0  0  0  0  0
  143.4190   76.6730  219.4650 C   0  0  0  0  0  0  0  0  0  0  0  0
  143.3540   75.3020  218.9240 C   0  0  1  0  0  0  0  0  0  0  0  0
  144.3360   74.3260  219.3360 C   0  0  0  0  0  0  0  0  0  0  0  0
  144.9320   74.4790  220.5970 C   0  0  0  0  0  0  0  0  0  0  0  0
  145.8670   73.5470  220.9860 C   0  0  0  0  0  0  0  0  0  0  0  0
  146.2120   72.4860  220.1570 C   0  0  0  0  0  0  0  0  0  0  0  0
  145.6240   72.3580  218.9450 N   0  0  0  0  0  0  0  0  0  0  0  0
  144.6950   73.2540  218.5140 C   0  0  0  0  0  0  0  0  0  0  0  0
  140.1260   71.3920  223.4790 C   0  0  0  0  0  0  0  0  0  0  0  0
  139.5630   70.1530  223.3240 C   0  0  0  0  0  0  0  0  0  0  0  0
  139.5000   69.3310  224.4180 C   0  0  0  0  0  0  0  0  0  0  0  0
  139.9840   69.7300  225.6340 C   0  0  0  0  0  0  0  0  0  0  0  0
  139.9540   68.9560  226.7740 C   0  0  0  0  0  0  0  0  0  0  0  0
  140.4380   69.3600  227.9800 C   0  0  0  0  0  0  0  0  0  0  0  0
  140.3980   68.5870  229.0860 F   0  0  0  0  0  0  0  0  0  0  0  0
  141.0040   70.6190  228.1130 C   0  0  0  0  0  0  0  0  0  0  0  0
  141.0380   71.3990  226.9790 C   0  0  0  0  0  0  0  0  0  0  0  0
  140.5470   70.9880  225.7570 C   0  0  0  0  0  0  0  0  0  0  0  0
  140.6020   71.7840  224.6730 N   0  0  0  0  0  0  0  0  0  0  0  0
  141.0740   70.8050  221.1210 H   0  0  0  0  0  0  0  0  0  0  0  0
  141.0676   72.1525  219.1153 H   0  0  0  0  0  0  0  0  0  0  0  0
  139.7739   73.1521  220.0630 H   0  0  0  0  0  0  0  0  0  0  0  0
  140.6517   74.8612  217.4760 H   0  0  0  0  0  0  0  0  0  0  0  0
  140.1556   75.9209  218.8350 H   0  0  0  0  0  0  0  0  0  0  0  0
  142.3533   76.3391  216.7782 H   0  0  0  0  0  0  0  0  0  0  0  0
  140.9309   77.4095  217.2319 H   0  0  0  0  0  0  0  0  0  0  0  0
  143.2650   78.1390  217.8869 H   0  0  0  0  0  0  0  0  0  0  0  0
  141.9111   78.1532  219.1128 H   0  0  0  0  0  0  0  0  0  0  0  0
  144.4599   77.0276  219.4916 H   0  0  0  0  0  0  0  0  0  0  0  0
  143.0382   76.7254  220.4956 H   0  0  0  0  0  0  0  0  0  0  0  0
  143.6492   75.3592  217.8659 H   0  0  0  0  0  0  0  0  0  0  0  0
  144.6603   75.3180  221.2544 H   0  0  0  0  0  0  0  0  0  0  0  0
  146.3495   73.6434  221.9698 H   0  0  0  0  0  0  0  0  0  0  0  0
  146.9619   71.7515  220.4857 H   0  0  0  0  0  0  0  0  0  0  0  0
  144.2293   73.1354  217.5245 H   0  0  0  0  0  0  0  0  0  0  0  0
  139.1725   69.8273  222.3486 H   0  0  0  0  0  0  0  0  0  0  0  0
  139.0519   68.3315  224.3170 H   0  0  0  0  0  0  0  0  0  0  0  0
  139.5121   67.9510  226.7048 H   0  0  0  0  0  0  0  0  0  0  0  0
  141.4045   70.9755  229.0735 H   0  0  0  0  0  0  0  0  0  0  0  0
  141.4803   72.4036  227.0512 H   0  0  0  0  0  0  0  0  0  0  0  0
  1  2  2  0
  2  3  1  0
  3  4  1  0
  4  5  1  0
  5  6  2  0
  5  7  1  0
  7  8  1  0
  8  9  1  0
  9 10  1  0
 10 11  1  0
 11 12  1  0
 12 13  1  0
 13 14  2  0
 14 15  1  0
 15 16  2  0
 16 17  1  0
 17 18  2  0
  2 19  1  0
 19 20  2  0
 20 21  1  0
 21 22  2  0
 22 23  1  0
 23 24  2  0
 24 25  1  0
 24 26  1  0
 26 27  2  0
 27 28  1  0
 28 29  2  0
 12  7  1  0
 18 13  1  0
 29 19  1  0
 28 22  1  0
  3 30  1  0
  4 31  1  0
  4 32  1  0
  8 33  1  0
  8 34  1  0
  9 35  1  0
  9 36  1  0
 10 37  1  0
 10 38  1  0
 11 39  1  0
 11 40  1  0
 12 41  1  6
 14 42  1  0
 15 43  1  0
 16 44  1  0
 18 45  1  0
 20 46  1  0
 21 47  1  0
 23 48  1  0
 26 49  1  0
 27 50  1  0
M  END
>  <smiles>  (52) 
O=C(NCC(=O)N1CCCCC1c1cccnc1)c1ccc2cc(F)ccc2n1

>  <score_type>  (52) 
oracle

>  <origin>  (52) 
autodockgpu

>  <m_score__min__energy>  (52) 
-8.6300000000000008

>  <m_primary>  (52) 
energy

>  <rmsd>  (52) 
2.282095686981841

>  <m_score__min__rmsd>  (52) 
2.282095686981841

>  <meeko>  (52) 
{"free_energy": -8.45, "intermolecular_energy": -9.94, "internal_energy": -1.16, "cluster_size": 16, "cluster_id": 2, "rank_in_cluster": 1}

>  <energy>  (52) 
-8.61

>  <cluster_rmsd>  (52) 
0.02

>  <cluster>  (52) 
1

$$$$

     RDKit          3D

 50 53  0  0  0  0  0  0  0  0999 V2000
  141.4200   72.6730  221.5960 O   0  0  0  0  0  0  0  0  0  0  0  0
  140.4700   72.7160  222.4350 C   0  0  0  0  0  0  0  0  0  0  0  0
  139.5650   73.8600  222.3190 N   0  0  0  0  0  0  0  0  0  0  0  0
  139.8610   74.7730  221.2900 C   0  0  0  0  0  0  0  0  0  0  0  0
  140.8770   75.8010  221.4620 C   0  0  0  0  0  0  0  0  0  0  0  0
  140.9690   76.2220  222.7020 O   0  0  0  0  0  0  0  0  0  0  0  0
  141.7560   76.4140  220.5760 N   0  0  0  0  0  0  0  0  0  0  0  0
  142.7210   75.7400  219.7030 C   0  0  0  0  0  0  0  0  0  0  0  0
  143.2800   76.7480  218.7060 C   0  0  0  0  0  0  0  0  0  0  0  0
  142.2670   77.6510  218.1010 C   0  0  0  0  0  0  0  0  0  0  0  0
  141.2310   78.1800  219.1140 C   0  0  0  0  0  0  0  0  0  0  0  0
  141.8020   77.8880  220.4430 C   0  0  1  0  0  0  0  0  0  0  0  0
  141.3050   78.5910  221.6030 C   0  0  0  0  0  0  0  0  0  0  0  0
  139.9240   78.8220  221.6940 C   0  0  0  0  0  0  0  0  0  0  0  0
  139.4550   79.4930  222.8000 C   0  0  0  0  0  0  0  0  0  0  0  0
  140.3200   79.9290  223.7980 C   0  0  0  0  0  0  0  0  0  0  0  0
  141.6470   79.6940  223.6880 N   0  0  0  0  0  0  0  0  0  0  0  0
  142.1610   79.0360  222.6140 C   0  0  0  0  0  0  0  0  0  0  0  0
  140.2570   71.7230  223.4560 C   0  0  0  0  0  0  0  0  0  0  0  0
  139.5690   70.5840  223.1300 C   0  0  0  0  0  0  0  0  0  0  0  0
  139.3720   69.6470  224.1080 C   0  0  0  0  0  0  0  0  0  0  0  0
  139.8480   69.8350  225.3780 C   0  0  0  0  0  0  0  0  0  0  0  0
  139.6870   68.9350  226.4090 C   0  0  0  0  0  0  0  0  0  0  0  0
  140.1640   69.1300  227.6690 C   0  0  0  0  0  0  0  0  0  0  0  0
  139.9950   68.2360  228.6660 F   0  0  0  0  0  0  0  0  0  0  0  0
  140.8580   70.2910  227.9750 C   0  0  0  0  0  0  0  0  0  0  0  0
  141.0230   71.1950  226.9510 C   0  0  0  0  0  0  0  0  0  0  0  0
  140.5390   70.9960  225.6740 C   0  0  0  0  0  0  0  0  0  0  0  0
  140.7250   71.9080  224.7020 N   0  0  0  0  0  0  0  0  0  0  0  0
  138.8070   73.8450  223.0140 H   0  0  0  0  0  0  0  0  0  0  0  0
  140.1684   74.1735  220.4205 H   0  0  0  0  0  0  0  0  0  0  0  0
  138.9346   75.3618  221.2188 H   0  0  0  0  0  0  0  0  0  0  0  0
  143.5411   75.3279  220.3093 H   0  0  0  0  0  0  0  0  0  0  0  0
  142.2233   74.9212  219.1628 H   0  0  0  0  0  0  0  0  0  0  0  0
  144.0242   77.3683  219.2269 H   0  0  0  0  0  0  0  0  0  0  0  0
  143.7071   76.1622  217.8787 H   0  0  0  0  0  0  0  0  0  0  0  0
  142.7888   78.5108  217.6555 H   0  0  0  0  0  0  0  0  0  0  0  0
  141.7161   77.0634  217.3518 H   0  0  0  0  0  0  0  0  0  0  0  0
  141.0856   79.2629  218.9865 H   0  0  0  0  0  0  0  0  0  0  0  0
  140.2465   77.7086  218.9779 H   0  0  0  0  0  0  0  0  0  0  0  0
  142.8204   78.3036  220.4534 H   0  0  0  0  0  0  0  0  0  0  0  0
  139.2380   78.4776  220.9061 H   0  0  0  0  0  0  0  0  0  0  0  0
  138.3767   79.6880  222.8965 H   0  0  0  0  0  0  0  0  0  0  0  0
  139.9256   80.4637  224.6747 H   0  0  0  0  0  0  0  0  0  0  0  0
  143.2437   78.8554  222.5418 H   0  0  0  0  0  0  0  0  0  0  0  0
  139.1857   70.4270  222.1110 H   0  0  0  0  0  0  0  0  0  0  0  0
  138.8208   68.7255  223.8692 H   0  0  0  0  0  0  0  0  0  0  0  0
  139.1403   68.0033  226.2014 H   0  0  0  0  0  0  0  0  0  0  0  0
  141.2556   70.4792  228.9832 H   0  0  0  0  0  0  0  0  0  0  0  0
  141.5698   72.1260  227.1614 H   0  0  0  0  0  0  0  0  0  0  0  0
  1  2  2  0
  2  3  1  0
  3  4  1  0
  4  5  1  0
  5  6  2  0
  5  7  1  0
  7  8  1  0
  8  9  1  0
  9 10  1  0
 10 11  1  0
 11 12  1  0
 12 13  1  0
 13 14  2  0
 14 15  1  0
 15 16  2  0
 16 17  1  0
 17 18  2  0
  2 19  1  0
 19 20  2  0
 20 21  1  0
 21 22  2  0
 22 23  1  0
 23 24  2  0
 24 25  1  0
 24 26  1  0
 26 27  2  0
 27 28  1  0
 28 29  2  0
 12  7  1  0
 18 13  1  0
 29 19  1  0
 28 22  1  0
  3 30  1  0
  4 31  1  0
  4 32  1  0
  8 33  1  0
  8 34  1  0
  9 35  1  0
  9 36  1  0
 10 37  1  0
 10 38  1  0
 11 39  1  0
 11 40  1  0
 12 41  1  6
 14 42  1  0
 15 43  1  0
 16 44  1  0
 18 45  1  0
 20 46  1  0
 21 47  1  0
 23 48  1  0
 26 49  1  0
 27 50  1  0
M  END
>  <smiles>  (53) 
O=C(NCC(=O)N1CCCCC1c1cccnc1)c1ccc2cc(F)ccc2n1

>  <score_type>  (53) 
oracle

>  <origin>  (53) 
autodockgpu

>  <m_score__min__energy>  (53) 
-8.6300000000000008

>  <m_primary>  (53) 
energy

>  <rmsd>  (53) 
2.123455295767061

>  <m_score__min__rmsd>  (53) 
2.123455295767061

>  <meeko>  (53) 
{"free_energy": -8.5, "intermolecular_energy": -9.99, "internal_energy": -1.1, "cluster_size": 19, "cluster_id": 1, "rank_in_cluster": 14}

>  <energy>  (53) 
-8.6

>  <cluster_rmsd>  (53) 
0.06

>  <cluster>  (53) 
1

$$$$

     RDKit          3D

 50 53  0  0  0  0  0  0  0  0999 V2000
  142.1930   78.2360  217.9850 O   0  0  0  0  0  0  0  0  0  0  0  0
  141.9700   77.1630  218.6230 C   0  0  0  0  0  0  0  0  0  0  0  0
  140.7500   77.1390  219.4300 N   0  0  0  0  0  0  0  0  0  0  0  0
  139.9720   78.3110  219.3990 C   0  0  0  0  0  0  0  0  0  0  0  0
  140.1640   79.3710  220.3780 C   0  0  0  0  0  0  0  0  0  0  0  0
  139.2810   80.3360  220.2630 O   0  0  0  0  0  0  0  0  0  0  0  0
  141.0910   79.5530  221.3990 N   0  0  0  0  0  0  0  0  0  0  0  0
  142.1940   80.5170  221.4090 C   0  0  0  0  0  0  0  0  0  0  0  0
  142.7870   80.5790  222.8120 C   0  0  0  0  0  0  0  0  0  0  0  0
  141.7870   80.6140  223.9100 C   0  0  0  0  0  0  0  0  0  0  0  0
  140.6090   79.6420  223.6980 C   0  0  0  0  0  0  0  0  0  0  0  0
  141.0460   78.7270  222.6260 C   0  0  1  0  0  0  0  0  0  0  0  0
  140.3730   77.4610  222.4510 C   0  0  0  0  0  0  0  0  0  0  0  0
  138.9830   77.4200  222.6380 C   0  0  0  0  0  0  0  0  0  0  0  0
  138.3450   76.2120  222.4710 C   0  0  0  0  0  0  0  0  0  0  0  0
  139.0530   75.0670  222.1250 C   0  0  0  0  0  0  0  0  0  0  0  0
  140.3920   75.1310  221.9490 N   0  0  0  0  0  0  0  0  0  0  0  0
  141.0700   76.3010  222.1050 C   0  0  0  0  0  0  0  0  0  0  0  0
  142.8380   76.0150  218.5850 C   0  0  0  0  0  0  0  0  0  0  0  0
  143.2310   75.5290  217.3660 C   0  0  0  0  0  0  0  0  0  0  0  0
  144.0550   74.4360  217.3420 C   0  0  0  0  0  0  0  0  0  0  0  0
  144.4800   73.8420  218.4990 C   0  0  0  0  0  0  0  0  0  0  0  0
  145.3110   72.7420  218.5490 C   0  0  0  0  0  0  0  0  0  0  0  0
  145.7290   72.1580  219.7040 C   0  0  0  0  0  0  0  0  0  0  0  0
  146.5420   71.0810  219.7320 F   0  0  0  0  0  0  0  0  0  0  0  0
  145.3190   72.6680  220.9270 C   0  0  0  0  0  0  0  0  0  0  0  0
  144.4900   73.7660  220.8860 C   0  0  0  0  0  0  0  0  0  0  0  0
  144.0670   74.3580  219.7140 C   0  0  0  0  0  0  0  0  0  0  0  0
  143.2560   75.4320  219.7220 N   0  0  0  0  0  0  0  0  0  0  0  0
  140.6090   76.2460  219.9190 H   0  0  0  0  0  0  0  0  0  0  0  0
  140.1340   78.7664  218.4109 H   0  0  0  0  0  0  0  0  0  0  0  0
  138.9670   77.9375  219.6450 H   0  0  0  0  0  0  0  0  0  0  0  0
  142.9682   80.1989  220.6952 H   0  0  0  0  0  0  0  0  0  0  0  0
  141.8215   81.5106  221.1190 H   0  0  0  0  0  0  0  0  0  0  0  0
  143.4213   79.6917  222.9549 H   0  0  0  0  0  0  0  0  0  0  0  0
  143.3448   81.5253  222.8709 H   0  0  0  0  0  0  0  0  0  0  0  0
  142.2925   80.3490  224.8503 H   0  0  0  0  0  0  0  0  0  0  0  0
  141.3680   81.6308  223.9347 H   0  0  0  0  0  0  0  0  0  0  0  0
  140.4010   79.0818  224.6215 H   0  0  0  0  0  0  0  0  0  0  0  0
  139.6829   80.1725  223.4316 H   0  0  0  0  0  0  0  0  0  0  0  0
  142.0245   78.3234  222.9254 H   0  0  0  0  0  0  0  0  0  0  0  0
  138.4205   78.3254  222.9097 H   0  0  0  0  0  0  0  0  0  0  0  0
  137.2560   76.1516  222.6138 H   0  0  0  0  0  0  0  0  0  0  0  0
  138.5250   74.1108  221.9946 H   0  0  0  0  0  0  0  0  0  0  0  0
  142.1599   76.3328  221.9595 H   0  0  0  0  0  0  0  0  0  0  0  0
  142.8940   76.0036  216.4327 H   0  0  0  0  0  0  0  0  0  0  0  0
  144.3816   74.0276  216.3742 H   0  0  0  0  0  0  0  0  0  0  0  0
  145.6563   72.3113  217.5975 H   0  0  0  0  0  0  0  0  0  0  0  0
  145.6392   72.2190  221.8788 H   0  0  0  0  0  0  0  0  0  0  0  0
  144.1463   74.1945  221.8390 H   0  0  0  0  0  0  0  0  0  0  0  0
  1  2  2  0
  2  3  1  0
  3  4  1  0
  4  5  1  0
  5  6  2  0
  5  7  1  0
  7  8  1  0
  8  9  1  0
  9 10  1  0
 10 11  1  0
 11 12  1  0
 12 13  1  0
 13 14  2  0
 14 15  1  0
 15 16  2  0
 16 17  1  0
 17 18  2  0
  2 19  1  0
 19 20  2  0
 20 21  1  0
 21 22  2  0
 22 23  1  0
 23 24  2  0
 24 25  1  0
 24 26  1  0
 26 27  2  0
 27 28  1  0
 28 29  2  0
 12  7  1  0
 18 13  1  0
 29 19  1  0
 28 22  1  0
  3 30  1  0
  4 31  1  0
  4 32  1  0
  8 33  1  0
  8 34  1  0
  9 35  1  0
  9 36  1  0
 10 37  1  0
 10 38  1  0
 11 39  1  0
 11 40  1  0
 12 41  1  1
 14 42  1  0
 15 43  1  0
 16 44  1  0
 18 45  1  0
 20 46  1  0
 21 47  1  0
 23 48  1  0
 26 49  1  0
 27 50  1  0
M  END
>  <smiles>  (54) 
O=C(NCC(=O)N1CCCCC1c1cccnc1)c1ccc2cc(F)ccc2n1

>  <score_type>  (54) 
oracle

>  <origin>  (54) 
autodockgpu

>  <m_score__min__energy>  (54) 
-8.6300000000000008

>  <m_primary>  (54) 
energy

>  <rmsd>  (54) 
7.727381938951987

>  <m_score__min__rmsd>  (54) 
7.727381938951987

>  <meeko>  (54) 
{"free_energy": -6.53, "intermolecular_energy": -8.02, "internal_energy": -2.31, "cluster_size": 2, "cluster_id": 4, "rank_in_cluster": 2}

>  <energy>  (54) 
-8.58

>  <cluster_rmsd>  (54) 
0.06

>  <cluster>  (54) 
1

$$$$

     RDKit          3D

 50 53  0  0  0  0  0  0  0  0999 V2000
  140.5050   77.0560  218.5540 O   0  0  0  0  0  0  0  0  0  0  0  0
  141.6890   77.0180  219.0080 C   0  0  0  0  0  0  0  0  0  0  0  0
  142.2130   78.2790  219.5350 N   0  0  0  0  0  0  0  0  0  0  0  0
  141.3390   79.3790  219.4740 C   0  0  0  0  0  0  0  0  0  0  0  0
  140.1650   79.4590  220.3310 C   0  0  0  0  0  0  0  0  0  0  0  0
  139.5520   80.6170  220.2470 O   0  0  0  0  0  0  0  0  0  0  0  0
  139.5770   78.5550  221.2090 N   0  0  0  0  0  0  0  0  0  0  0  0
  138.3190   77.8340  221.0020 C   0  0  0  0  0  0  0  0  0  0  0  0
  138.1840   76.7510  222.0650 C   0  0  0  0  0  0  0  0  0  0  0  0
  139.4250   75.9770  222.3260 C   0  0  0  0  0  0  0  0  0  0  0  0
  140.6940   76.8520  222.3850 C   0  0  0  0  0  0  0  0  0  0  0  0
  140.2050   78.2390  222.5120 C   0  0  1  0  0  0  0  0  0  0  0  0
  141.0980   79.2670  222.9920 C   0  0  0  0  0  0  0  0  0  0  0  0
  142.4610   79.1610  222.6760 C   0  0  0  0  0  0  0  0  0  0  0  0
  143.3090   80.1420  223.1350 C   0  0  0  0  0  0  0  0  0  0  0  0
  142.8320   81.2090  223.8890 C   0  0  0  0  0  0  0  0  0  0  0  0
  141.5140   81.2920  224.1810 N   0  0  0  0  0  0  0  0  0  0  0  0
  140.6350   80.3450  223.7510 C   0  0  0  0  0  0  0  0  0  0  0  0
  142.5030   75.8310  219.0240 C   0  0  0  0  0  0  0  0  0  0  0  0
  142.2120   74.8240  218.1420 C   0  0  0  0  0  0  0  0  0  0  0  0
  142.9920   73.6990  218.1660 C   0  0  0  0  0  0  0  0  0  0  0  0
  144.0350   73.5780  219.0430 C   0  0  0  0  0  0  0  0  0  0  0  0
  144.8610   72.4760  219.1210 C   0  0  0  0  0  0  0  0  0  0  0  0
  145.8970   72.3640  219.9970 C   0  0  0  0  0  0  0  0  0  0  0  0
  146.6930   71.2760  220.0580 F   0  0  0  0  0  0  0  0  0  0  0  0
  146.1730   73.3970  220.8800 C   0  0  0  0  0  0  0  0  0  0  0  0
  145.3530   74.5000  220.8090 C   0  0  0  0  0  0  0  0  0  0  0  0
  144.3030   74.6130  219.9210 C   0  0  0  0  0  0  0  0  0  0  0  0
  143.5280   75.7120  219.8850 N   0  0  0  0  0  0  0  0  0  0  0  0
  143.1710   78.1940  219.9000 H   0  0  0  0  0  0  0  0  0  0  0  0
  141.9450   80.2709  219.6917 H   0  0  0  0  0  0  0  0  0  0  0  0
  140.8971   79.2781  218.4717 H   0  0  0  0  0  0  0  0  0  0  0  0
  137.4752   78.5352  221.0814 H   0  0  0  0  0  0  0  0  0  0  0  0
  138.3155   77.3746  220.0025 H   0  0  0  0  0  0  0  0  0  0  0  0
  137.8757   77.2310  223.0055 H   0  0  0  0  0  0  0  0  0  0  0  0
  137.4448   76.0318  221.6826 H   0  0  0  0  0  0  0  0  0  0  0  0
  139.3152   75.4572  223.2892 H   0  0  0  0  0  0  0  0  0  0  0  0
  139.5528   75.2772  221.4870 H   0  0  0  0  0  0  0  0  0  0  0  0
  141.3099   76.5794  223.2547 H   0  0  0  0  0  0  0  0  0  0  0  0
  141.3253   76.7196  221.4940 H   0  0  0  0  0  0  0  0  0  0  0  0
  139.5028   78.2579  223.3585 H   0  0  0  0  0  0  0  0  0  0  0  0
  142.8401   78.3185  222.0790 H   0  0  0  0  0  0  0  0  0  0  0  0
  144.3823   80.0816  222.9018 H   0  0  0  0  0  0  0  0  0  0  0  0
  143.5255   81.9840  224.2472 H   0  0  0  0  0  0  0  0  0  0  0  0
  139.5667   80.4282  223.9997 H   0  0  0  0  0  0  0  0  0  0  0  0
  141.3750   74.9167  217.4342 H   0  0  0  0  0  0  0  0  0  0  0  0
  142.7761   72.8773  217.4673 H   0  0  0  0  0  0  0  0  0  0  0  0
  144.6712   71.6378  218.4345 H   0  0  0  0  0  0  0  0  0  0  0  0
  147.0033   73.3380  221.5991 H   0  0  0  0  0  0  0  0  0  0  0  0
  145.5450   75.3364  221.4971 H   0  0  0  0  0  0  0  0  0  0  0  0
  1  2  2  0
  2  3  1  0
  3  4  1  0
  4  5  1  0
  5  6  2  0
  5  7  1  0
  7  8  1  0
  8  9  1  0
  9 10  1  0
 10 11  1  0
 11 12  1  0
 12 13  1  0
 13 14  2  0
 14 15  1  0
 15 16  2  0
 16 17  1  0
 17 18  2  0
  2 19  1  0
 19 20  2  0
 20 21  1  0
 21 22  2  0
 22 23  1  0
 23 24  2  0
 24 25  1  0
 24 26  1  0
 26 27  2  0
 27 28  1  0
 28 29  2  0
 12  7  1  0
 18 13  1  0
 29 19  1  0
 28 22  1  0
  3 30  1  0
  4 31  1  0
  4 32  1  0
  8 33  1  0
  8 34  1  0
  9 35  1  0
  9 36  1  0
 10 37  1  0
 10 38  1  0
 11 39  1  0
 11 40  1  0
 12 41  1  1
 14 42  1  0
 15 43  1  0
 16 44  1  0
 18 45  1  0
 20 46  1  0
 21 47  1  0
 23 48  1  0
 26 49  1  0
 27 50  1  0
M  END
>  <smiles>  (55) 
O=C(NCC(=O)N1CCCCC1c1cccnc1)c1ccc2cc(F)ccc2n1

>  <score_type>  (55) 
oracle

>  <origin>  (55) 
autodockgpu

>  <m_score__min__energy>  (55) 
-8.6300000000000008

>  <m_primary>  (55) 
energy

>  <rmsd>  (55) 
7.186605751988643

>  <m_score__min__rmsd>  (55) 
7.186605751988643

>  <meeko>  (55) 
{"free_energy": -6.81, "intermolecular_energy": -8.3, "internal_energy": -2.3, "cluster_size": 4, "cluster_id": 6, "rank_in_cluster": 1}

>  <energy>  (55) 
-8.57

>  <cluster_rmsd>  (55) 
0.08

>  <cluster>  (55) 
1

$$$$

     RDKit          3D

 50 53  0  0  0  0  0  0  0  0999 V2000
  141.4490   72.6670  221.6130 O   0  0  0  0  0  0  0  0  0  0  0  0
  140.4950   72.7000  222.4470 C   0  0  0  0  0  0  0  0  0  0  0  0
  139.5820   73.8370  222.3330 N   0  0  0  0  0  0  0  0  0  0  0  0
  139.8750   74.7570  221.3100 C   0  0  0  0  0  0  0  0  0  0  0  0
  140.9270   75.7520  221.4680 C   0  0  0  0  0  0  0  0  0  0  0  0
  141.0750   76.1410  222.7130 O   0  0  0  0  0  0  0  0  0  0  0  0
  141.7920   76.3590  220.5650 N   0  0  0  0  0  0  0  0  0  0  0  0
  142.7640   75.6820  219.7020 C   0  0  0  0  0  0  0  0  0  0  0  0
  143.3010   76.6780  218.6810 C   0  0  0  0  0  0  0  0  0  0  0  0
  142.2720   77.5520  218.0620 C   0  0  0  0  0  0  0  0  0  0  0  0
  141.2330   78.0850  219.0680 C   0  0  0  0  0  0  0  0  0  0  0  0
  141.8140   77.8300  220.4010 C   0  0  1  0  0  0  0  0  0  0  0  0
  141.3110   78.5500  221.5480 C   0  0  0  0  0  0  0  0  0  0  0  0
  142.2380   79.0330  222.4840 C   0  0  0  0  0  0  0  0  0  0  0  0
  141.7560   79.7180  223.5750 C   0  0  0  0  0  0  0  0  0  0  0  0
  140.3920   79.9280  223.7470 C   0  0  0  0  0  0  0  0  0  0  0  0
  139.5170   79.4540  222.8310 N   0  0  0  0  0  0  0  0  0  0  0  0
  139.9440   78.7690  221.7350 C   0  0  0  0  0  0  0  0  0  0  0  0
  140.2850   71.6990  223.4620 C   0  0  0  0  0  0  0  0  0  0  0  0
  139.6050   70.5580  223.1280 C   0  0  0  0  0  0  0  0  0  0  0  0
  139.4110   69.6140  224.1000 C   0  0  0  0  0  0  0  0  0  0  0  0
  139.8810   69.7990  225.3720 C   0  0  0  0  0  0  0  0  0  0  0  0
  139.7230   68.8910  226.3980 C   0  0  0  0  0  0  0  0  0  0  0  0
  140.1950   69.0830  227.6600 C   0  0  0  0  0  0  0  0  0  0  0  0
  140.0290   68.1820  228.6520 F   0  0  0  0  0  0  0  0  0  0  0  0
  140.8810   70.2460  227.9750 C   0  0  0  0  0  0  0  0  0  0  0  0
  141.0440   71.1570  226.9560 C   0  0  0  0  0  0  0  0  0  0  0  0
  140.5650   70.9620  225.6770 C   0  0  0  0  0  0  0  0  0  0  0  0
  140.7480   71.8810  224.7110 N   0  0  0  0  0  0  0  0  0  0  0  0
  138.8210   73.8120  223.0240 H   0  0  0  0  0  0  0  0  0  0  0  0
  140.1387   74.1629  220.4226 H   0  0  0  0  0  0  0  0  0  0  0  0
  138.9650   75.3741  221.2750 H   0  0  0  0  0  0  0  0  0  0  0  0
  143.5938   75.2967  220.3128 H   0  0  0  0  0  0  0  0  0  0  0  0
  142.2779   74.8432  219.1822 H   0  0  0  0  0  0  0  0  0  0  0  0
  144.0377   77.3209  219.1850 H   0  0  0  0  0  0  0  0  0  0  0  0
  143.7323   76.0812  217.8638 H   0  0  0  0  0  0  0  0  0  0  0  0
  142.7784   78.4105  217.5966 H   0  0  0  0  0  0  0  0  0  0  0  0
  141.7274   76.9408  217.3273 H   0  0  0  0  0  0  0  0  0  0  0  0
  141.0698   79.1625  218.9187 H   0  0  0  0  0  0  0  0  0  0  0  0
  140.2558   77.5949  218.9463 H   0  0  0  0  0  0  0  0  0  0  0  0
  142.8258   78.2615  220.3986 H   0  0  0  0  0  0  0  0  0  0  0  0
  143.3173   78.8688  222.3494 H   0  0  0  0  0  0  0  0  0  0  0  0
  142.4615   80.1064  224.3243 H   0  0  0  0  0  0  0  0  0  0  0  0
  140.0256   80.4784  224.6261 H   0  0  0  0  0  0  0  0  0  0  0  0
  139.2173   78.3903  221.0012 H   0  0  0  0  0  0  0  0  0  0  0  0
  139.2253   70.4045  222.1071 H   0  0  0  0  0  0  0  0  0  0  0  0
  138.8674   68.6898  223.8543 H   0  0  0  0  0  0  0  0  0  0  0  0
  139.1837   67.9565  226.1837 H   0  0  0  0  0  0  0  0  0  0  0  0
  141.2741   70.4309  228.9856 H   0  0  0  0  0  0  0  0  0  0  0  0
  141.5849   72.0899  227.1730 H   0  0  0  0  0  0  0  0  0  0  0  0
  1  2  2  0
  2  3  1  0
  3  4  1  0
  4  5  1  0
  5  6  2  0
  5  7  1  0
  7  8  1  0
  8  9  1  0
  9 10  1  0
 10 11  1  0
 11 12  1  0
 12 13  1  0
 13 14  2  0
 14 15  1  0
 15 16  2  0
 16 17  1  0
 17 18  2  0
  2 19  1  0
 19 20  2  0
 20 21  1  0
 21 22  2  0
 22 23  1  0
 23 24  2  0
 24 25  1  0
 24 26  1  0
 26 27  2  0
 27 28  1  0
 28 29  2  0
 12  7  1  0
 18 13  1  0
 29 19  1  0
 28 22  1  0
  3 30  1  0
  4 31  1  0
  4 32  1  0
  8 33  1  0
  8 34  1  0
  9 35  1  0
  9 36  1  0
 10 37  1  0
 10 38  1  0
 11 39  1  0
 11 40  1  0
 12 41  1  6
 14 42  1  0
 15 43  1  0
 16 44  1  0
 18 45  1  0
 20 46  1  0
 21 47  1  0
 23 48  1  0
 26 49  1  0
 27 50  1  0
M  END
>  <smiles>  (56) 
O=C(NCC(=O)N1CCCCC1c1cccnc1)c1ccc2cc(F)ccc2n1

>  <score_type>  (56) 
oracle

>  <origin>  (56) 
autodockgpu

>  <m_score__min__energy>  (56) 
-8.6300000000000008

>  <m_primary>  (56) 
energy

>  <rmsd>  (56) 
2.116000583364931

>  <m_score__min__rmsd>  (56) 
2.116000583364931

>  <meeko>  (56) 
{"free_energy": -8.57, "intermolecular_energy": -10.06, "internal_energy": -1.17, "cluster_size": 19, "cluster_id": 1, "rank_in_cluster": 5}

>  <energy>  (56) 
-8.56

>  <cluster_rmsd>  (56) 
0.09

>  <cluster>  (56) 
1

$$$$

     RDKit          3D

 50 53  0  0  0  0  0  0  0  0999 V2000
  140.1610   71.1250  221.1380 O   0  0  0  0  0  0  0  0  0  0  0  0
  139.9420   71.6280  222.2810 C   0  0  0  0  0  0  0  0  0  0  0  0
  139.7490   73.0780  222.3170 N   0  0  0  0  0  0  0  0  0  0  0  0
  139.8300   73.7370  221.0760 C   0  0  0  0  0  0  0  0  0  0  0  0
  140.6960   74.8930  220.8910 C   0  0  0  0  0  0  0  0  0  0  0  0
  141.2230   75.3190  222.0160 O   0  0  0  0  0  0  0  0  0  0  0  0
  141.0660   75.6220  219.7660 N   0  0  0  0  0  0  0  0  0  0  0  0
  140.1790   76.4240  218.9190 C   0  0  0  0  0  0  0  0  0  0  0  0
  141.0240   77.2700  217.9750 C   0  0  0  0  0  0  0  0  0  0  0  0
  142.2020   77.9190  218.6050 C   0  0  0  0  0  0  0  0  0  0  0  0
  142.9640   76.9970  219.5780 C   0  0  0  0  0  0  0  0  0  0  0  0
  142.4690   75.6360  219.2940 C   0  0  1  0  0  0  0  0  0  0  0  0
  143.2380   74.4920  219.7250 C   0  0  0  0  0  0  0  0  0  0  0  0
  142.7770   73.2140  219.3760 C   0  0  0  0  0  0  0  0  0  0  0  0
  143.5120   72.1270  219.7890 C   0  0  0  0  0  0  0  0  0  0  0  0
  144.6790   72.2880  220.5290 C   0  0  0  0  0  0  0  0  0  0  0  0
  145.1050   73.5290  220.8530 N   0  0  0  0  0  0  0  0  0  0  0  0
  144.4120   74.6360  220.4700 C   0  0  0  0  0  0  0  0  0  0  0  0
  139.8790   70.8570  223.4960 C   0  0  0  0  0  0  0  0  0  0  0  0
  139.2900   69.6210  223.4590 C   0  0  0  0  0  0  0  0  0  0  0  0
  139.2350   68.8980  224.6200 C   0  0  0  0  0  0  0  0  0  0  0  0
  139.7530   69.3890  225.7870 C   0  0  0  0  0  0  0  0  0  0  0  0
  139.7330   68.7150  226.9900 C   0  0  0  0  0  0  0  0  0  0  0  0
  140.2520   69.2110  228.1470 C   0  0  0  0  0  0  0  0  0  0  0  0
  140.2220   68.5360  229.3150 F   0  0  0  0  0  0  0  0  0  0  0  0
  140.8450   70.4650  228.1600 C   0  0  0  0  0  0  0  0  0  0  0  0
  140.8680   71.1440  226.9620 C   0  0  0  0  0  0  0  0  0  0  0  0
  140.3430   70.6400  225.7910 C   0  0  0  0  0  0  0  0  0  0  0  0
  140.3890   71.3400  224.6420 N   0  0  0  0  0  0  0  0  0  0  0  0
  139.5650   73.4360  223.2630 H   0  0  0  0  0  0  0  0  0  0  0  0
  140.1551   72.9835  220.3435 H   0  0  0  0  0  0  0  0  0  0  0  0
  138.8249   74.1708  220.9688 H   0  0  0  0  0  0  0  0  0  0  0  0
  139.5271   75.7586  218.3340 H   0  0  0  0  0  0  0  0  0  0  0  0
  139.5571   77.0783  219.5477 H   0  0  0  0  0  0  0  0  0  0  0  0
  141.3844   76.6206  217.1636 H   0  0  0  0  0  0  0  0  0  0  0  0
  140.3735   78.0843  217.6232 H   0  0  0  0  0  0  0  0  0  0  0  0
  142.8935   78.2334  217.8094 H   0  0  0  0  0  0  0  0  0  0  0  0
  141.8273   78.7705  219.1920 H   0  0  0  0  0  0  0  0  0  0  0  0
  144.0474   77.0582  219.3979 H   0  0  0  0  0  0  0  0  0  0  0  0
  142.7989   77.2825  220.6274 H   0  0  0  0  0  0  0  0  0  0  0  0
  142.5758   75.4747  218.2112 H   0  0  0  0  0  0  0  0  0  0  0  0
  141.8553   73.0849  218.7896 H   0  0  0  0  0  0  0  0  0  0  0  0
  143.1713   71.1137  219.5298 H   0  0  0  0  0  0  0  0  0  0  0  0
  145.2540   71.4068  220.8498 H   0  0  0  0  0  0  0  0  0  0  0  0
  144.7735   75.6378  220.7450 H   0  0  0  0  0  0  0  0  0  0  0  0
  138.8731   69.2208  222.5230 H   0  0  0  0  0  0  0  0  0  0  0  0
  138.7654   67.9033  224.6145 H   0  0  0  0  0  0  0  0  0  0  0  0
  139.2703   67.7174  227.0164 H   0  0  0  0  0  0  0  0  0  0  0  0
  141.2738   70.8939  229.0777 H   0  0  0  0  0  0  0  0  0  0  0  0
  141.3300   72.1420  226.9382 H   0  0  0  0  0  0  0  0  0  0  0  0
  1  2  2  0
  2  3  1  0
  3  4  1  0
  4  5  1  0
  5  6  2  0
  5  7  1  0
  7  8  1  0
  8  9  1  0
  9 10  1  0
 10 11  1  0
 11 12  1  0
 12 13  1  0
 13 14  2  0
 14 15  1  0
 15 16  2  0
 16 17  1  0
 17 18  2  0
  2 19  1  0
 19 20  2  0
 20 21  1  0
 21 22  2  0
 22 23  1  0
 23 24  2  0
 24 25  1  0
 24 26  1  0
 26 27  2  0
 27 28  1  0
 28 29  2  0
 12  7  1  0
 18 13  1  0
 29 19  1  0
 28 22  1  0
  3 30  1  0
  4 31  1  0
  4 32  1  0
  8 33  1  0
  8 34  1  0
  9 35  1  0
  9 36  1  0
 10 37  1  0
 10 38  1  0
 11 39  1  0
 11 40  1  0
 12 41  1  6
 14 42  1  0
 15 43  1  0
 16 44  1  0
 18 45  1  0
 20 46  1  0
 21 47  1  0
 23 48  1  0
 26 49  1  0
 27 50  1  0
M  END
>  <smiles>  (57) 
O=C(NCC(=O)N1CCCCC1c1cccnc1)c1ccc2cc(F)ccc2n1

>  <score_type>  (57) 
oracle

>  <origin>  (57) 
autodockgpu

>  <m_score__min__energy>  (57) 
-8.6300000000000008

>  <m_primary>  (57) 
energy

>  <rmsd>  (57) 
1.7014155084090283

>  <m_score__min__rmsd>  (57) 
1.7014155084090283

>  <meeko>  (57) 
{"free_energy": -7.55, "intermolecular_energy": -9.04, "internal_energy": -1.66, "cluster_size": 16, "cluster_id": 2, "rank_in_cluster": 14}

>  <energy>  (57) 
-8.56

>  <cluster_rmsd>  (57) 
0.08

>  <cluster>  (57) 
1

$$$$

     RDKit          3D

 50 53  0  0  0  0  0  0  0  0999 V2000
  139.8330   73.7720  222.5730 O   0  0  0  0  0  0  0  0  0  0  0  0
  140.2590   72.5850  222.4410 C   0  0  0  0  0  0  0  0  0  0  0  0
  140.8580   72.2590  221.1470 N   0  0  0  0  0  0  0  0  0  0  0  0
  140.8880   73.3050  220.2050 C   0  0  0  0  0  0  0  0  0  0  0  0
  141.7320   73.2300  219.0210 C   0  0  0  0  0  0  0  0  0  0  0  0
  142.1330   72.0080  218.7590 O   0  0  0  0  0  0  0  0  0  0  0  0
  142.1870   74.1930  218.1270 N   0  0  0  0  0  0  0  0  0  0  0  0
  141.4910   74.6620  216.9260 C   0  0  0  0  0  0  0  0  0  0  0  0
  142.1980   75.9030  216.3940 C   0  0  0  0  0  0  0  0  0  0  0  0
  142.5900   76.8890  217.4330 C   0  0  0  0  0  0  0  0  0  0  0  0
  143.1850   76.2440  218.7000 C   0  0  0  0  0  0  0  0  0  0  0  0
  143.4980   74.8530  218.3180 C   0  0  1  0  0  0  0  0  0  0  0  0
  144.4240   74.0850  219.1190 C   0  0  0  0  0  0  0  0  0  0  0  0
  144.5750   74.4320  220.4700 C   0  0  0  0  0  0  0  0  0  0  0  0
  145.4580   73.6990  221.2290 C   0  0  0  0  0  0  0  0  0  0  0  0
  146.1780   72.6450  220.6770 C   0  0  0  0  0  0  0  0  0  0  0  0
  146.0160   72.3290  219.3720 N   0  0  0  0  0  0  0  0  0  0  0  0
  145.1560   73.0240  218.5790 C   0  0  0  0  0  0  0  0  0  0  0  0
  140.1790   71.5870  223.4760 C   0  0  0  0  0  0  0  0  0  0  0  0
  139.6370   70.3670  223.1700 C   0  0  0  0  0  0  0  0  0  0  0  0
  139.5660   69.4250  224.1610 C   0  0  0  0  0  0  0  0  0  0  0  0
  140.0230   69.6880  225.4240 C   0  0  0  0  0  0  0  0  0  0  0  0
  139.9830   68.7890  226.4680 C   0  0  0  0  0  0  0  0  0  0  0  0
  140.4410   69.0590  227.7210 C   0  0  0  0  0  0  0  0  0  0  0  0
  140.3930   68.1640  228.7310 F   0  0  0  0  0  0  0  0  0  0  0  0
  140.9870   70.3010  228.0070 C   0  0  0  0  0  0  0  0  0  0  0  0
  141.0300   71.2050  226.9700 C   0  0  0  0  0  0  0  0  0  0  0  0
  140.5660   70.9310  225.7000 C   0  0  0  0  0  0  0  0  0  0  0  0
  140.6290   71.8460  224.7160 N   0  0  0  0  0  0  0  0  0  0  0  0
  141.1980   71.2900  221.0930 H   0  0  0  0  0  0  0  0  0  0  0  0
  139.8561   73.4299  219.8449 H   0  0  0  0  0  0  0  0  0  0  0  0
  141.3464   74.1271  220.7743 H   0  0  0  0  0  0  0  0  0  0  0  0
  141.5053   73.8728  216.1599 H   0  0  0  0  0  0  0  0  0  0  0  0
  140.4475   74.9068  217.1736 H   0  0  0  0  0  0  0  0  0  0  0  0
  143.1084   75.5794  215.8683 H   0  0  0  0  0  0  0  0  0  0  0  0
  141.4770   76.4135  215.7385 H   0  0  0  0  0  0  0  0  0  0  0  0
  143.3408   77.5682  217.0028 H   0  0  0  0  0  0  0  0  0  0  0  0
  141.6751   77.4178  217.7385 H   0  0  0  0  0  0  0  0  0  0  0  0
  144.0982   76.7735  219.0095 H   0  0  0  0  0  0  0  0  0  0  0  0
  142.4878   76.2892  219.5496 H   0  0  0  0  0  0  0  0  0  0  0  0
  144.1086   74.8996  217.4042 H   0  0  0  0  0  0  0  0  0  0  0  0
  144.0051   75.2643  220.9088 H   0  0  0  0  0  0  0  0  0  0  0  0
  145.5968   73.9510  222.2907 H   0  0  0  0  0  0  0  0  0  0  0  0
  146.8779   72.0694  221.3006 H   0  0  0  0  0  0  0  0  0  0  0  0
  145.0377   72.7525  217.5196 H   0  0  0  0  0  0  0  0  0  0  0  0
  139.2690   70.1500  222.1563 H   0  0  0  0  0  0  0  0  0  0  0  0
  139.1336   68.4384  223.9380 H   0  0  0  0  0  0  0  0  0  0  0  0
  139.5553   67.7937  226.2771 H   0  0  0  0  0  0  0  0  0  0  0  0
  141.3656   70.5505  229.0092 H   0  0  0  0  0  0  0  0  0  0  0  0
  141.4574   72.1997  227.1644 H   0  0  0  0  0  0  0  0  0  0  0  0
  1  2  2  0
  2  3  1  0
  3  4  1  0
  4  5  1  0
  5  6  2  0
  5  7  1  0
  7  8  1  0
  8  9  1  0
  9 10  1  0
 10 11  1  0
 11 12  1  0
 12 13  1  0
 13 14  2  0
 14 15  1  0
 15 16  2  0
 16 17  1  0
 17 18  2  0
  2 19  1  0
 19 20  2  0
 20 21  1  0
 21 22  2  0
 22 23  1  0
 23 24  2  0
 24 25  1  0
 24 26  1  0
 26 27  2  0
 27 28  1  0
 28 29  2  0
 12  7  1  0
 18 13  1  0
 29 19  1  0
 28 22  1  0
  3 30  1  0
  4 31  1  0
  4 32  1  0
  8 33  1  0
  8 34  1  0
  9 35  1  0
  9 36  1  0
 10 37  1  0
 10 38  1  0
 11 39  1  0
 11 40  1  0
 12 41  1  6
 14 42  1  0
 15 43  1  0
 16 44  1  0
 18 45  1  0
 20 46  1  0
 21 47  1  0
 23 48  1  0
 26 49  1  0
 27 50  1  0
M  END
>  <smiles>  (58) 
O=C(NCC(=O)N1CCCCC1c1cccnc1)c1ccc2cc(F)ccc2n1

>  <score_type>  (58) 
oracle

>  <origin>  (58) 
autodockgpu

>  <m_score__min__energy>  (58) 
-8.6300000000000008

>  <m_primary>  (58) 
energy

>  <rmsd>  (58) 
2.551778576635433

>  <m_score__min__rmsd>  (58) 
2.551778576635433

>  <meeko>  (58) 
{"free_energy": -7.99, "intermolecular_energy": -9.48, "internal_energy": -1.48, "cluster_size": 16, "cluster_id": 2, "rank_in_cluster": 3}

>  <energy>  (58) 
-8.54

>  <cluster_rmsd>  (58) 
0.12

>  <cluster>  (58) 
1

$$$$

     RDKit          3D

 50 53  0  0  0  0  0  0  0  0999 V2000
  140.2310   71.2860  221.0250 O   0  0  0  0  0  0  0  0  0  0  0  0
  139.9750   71.7610  222.1720 C   0  0  0  0  0  0  0  0  0  0  0  0
  139.7240   73.2010  222.2290 N   0  0  0  0  0  0  0  0  0  0  0  0
  139.7980   73.8840  221.0010 C   0  0  0  0  0  0  0  0  0  0  0  0
  140.6810   75.0280  220.8260 C   0  0  0  0  0  0  0  0  0  0  0  0
  141.1070   75.5200  221.9660 O   0  0  0  0  0  0  0  0  0  0  0  0
  141.1530   75.6890  219.6980 N   0  0  0  0  0  0  0  0  0  0  0  0
  140.3950   76.6130  218.8500 C   0  0  0  0  0  0  0  0  0  0  0  0
  141.3550   77.3190  217.9000 C   0  0  0  0  0  0  0  0  0  0  0  0
  142.6190   77.7850  218.5250 C   0  0  0  0  0  0  0  0  0  0  0  0
  143.2370   76.7620  219.5000 C   0  0  0  0  0  0  0  0  0  0  0  0
  142.5410   75.4900  219.2220 C   0  0  1  0  0  0  0  0  0  0  0  0
  143.1320   74.2460  219.6560 C   0  0  0  0  0  0  0  0  0  0  0  0
  144.2830   74.3030  220.4550 C   0  0  0  0  0  0  0  0  0  0  0  0
  144.8430   73.1150  220.8670 C   0  0  0  0  0  0  0  0  0  0  0  0
  144.2860   71.8940  220.5030 C   0  0  0  0  0  0  0  0  0  0  0  0
  143.1750   71.8630  219.7330 N   0  0  0  0  0  0  0  0  0  0  0  0
  142.5850   73.0100  219.2990 C   0  0  0  0  0  0  0  0  0  0  0  0
  139.9230   70.9670  223.3730 C   0  0  0  0  0  0  0  0  0  0  0  0
  139.3150   69.7420  223.3240 C   0  0  0  0  0  0  0  0  0  0  0  0
  139.2710   68.9960  224.4720 C   0  0  0  0  0  0  0  0  0  0  0  0
  139.8200   69.4560  225.6380 C   0  0  0  0  0  0  0  0  0  0  0  0
  139.8130   68.7600  226.8280 C   0  0  0  0  0  0  0  0  0  0  0  0
  140.3620   69.2250  227.9830 C   0  0  0  0  0  0  0  0  0  0  0  0
  140.3450   68.5270  229.1390 F   0  0  0  0  0  0  0  0  0  0  0  0
  140.9740   70.4690  228.0090 C   0  0  0  0  0  0  0  0  0  0  0  0
  140.9850   71.1710  226.8250 C   0  0  0  0  0  0  0  0  0  0  0  0
  140.4290   70.6990  225.6540 C   0  0  0  0  0  0  0  0  0  0  0  0
  140.4630   71.4200  224.5180 N   0  0  0  0  0  0  0  0  0  0  0  0
  139.5110   73.5350  223.1780 H   0  0  0  0  0  0  0  0  0  0  0  0
  140.0986   73.1403  220.2483 H   0  0  0  0  0  0  0  0  0  0  0  0
  138.7992   74.3375  220.9186 H   0  0  0  0  0  0  0  0  0  0  0  0
  139.6482   76.0517  218.2693 H   0  0  0  0  0  0  0  0  0  0  0  0
  139.8815   77.3560  219.4779 H   0  0  0  0  0  0  0  0  0  0  0  0
  141.6110   76.6200  217.0902 H   0  0  0  0  0  0  0  0  0  0  0  0
  140.8336   78.2206  217.5462 H   0  0  0  0  0  0  0  0  0  0  0  0
  143.3476   77.9891  217.7266 H   0  0  0  0  0  0  0  0  0  0  0  0
  142.3781   78.6848  219.1100 H   0  0  0  0  0  0  0  0  0  0  0  0
  144.3167   76.6586  219.3168 H   0  0  0  0  0  0  0  0  0  0  0  0
  143.1207   77.0727  220.5488 H   0  0  0  0  0  0  0  0  0  0  0  0
  142.6167   75.3103  218.1394 H   0  0  0  0  0  0  0  0  0  0  0  0
  144.7250   75.2680  220.7438 H   0  0  0  0  0  0  0  0  0  0  0  0
  145.7462   73.1318  221.4947 H   0  0  0  0  0  0  0  0  0  0  0  0
  144.7485   70.9549  220.8409 H   0  0  0  0  0  0  0  0  0  0  0  0
  141.6830   72.9648  218.6710 H   0  0  0  0  0  0  0  0  0  0  0  0
  138.8739   69.3668  222.3888 H   0  0  0  0  0  0  0  0  0  0  0  0
  138.7854   68.0091  224.4563 H   0  0  0  0  0  0  0  0  0  0  0  0
  139.3350   67.7694  226.8448 H   0  0  0  0  0  0  0  0  0  0  0  0
  141.4264   70.8732  228.9266 H   0  0  0  0  0  0  0  0  0  0  0  0
  141.4629   72.1617  226.8118 H   0  0  0  0  0  0  0  0  0  0  0  0
  1  2  2  0
  2  3  1  0
  3  4  1  0
  4  5  1  0
  5  6  2  0
  5  7  1  0
  7  8  1  0
  8  9  1  0
  9 10  1  0
 10 11  1  0
 11 12  1  0
 12 13  1  0
 13 14  2  0
 14 15  1  0
 15 16  2  0
 16 17  1  0
 17 18  2  0
  2 19  1  0
 19 20  2  0
 20 21  1  0
 21 22  2  0
 22 23  1  0
 23 24  2  0
 24 25  1  0
 24 26  1  0
 26 27  2  0
 27 28  1  0
 28 29  2  0
 12  7  1  0
 18 13  1  0
 29 19  1  0
 28 22  1  0
  3 30  1  0
  4 31  1  0
  4 32  1  0
  8 33  1  0
  8 34  1  0
  9 35  1  0
  9 36  1  0
 10 37  1  0
 10 38  1  0
 11 39  1  0
 11 40  1  0
 12 41  1  6
 14 42  1  0
 15 43  1  0
 16 44  1  0
 18 45  1  0
 20 46  1  0
 21 47  1  0
 23 48  1  0
 26 49  1  0
 27 50  1  0
M  END
>  <smiles>  (59) 
O=C(NCC(=O)N1CCCCC1c1cccnc1)c1ccc2cc(F)ccc2n1

>  <score_type>  (59) 
oracle

>  <origin>  (59) 
autodockgpu

>  <m_score__min__energy>  (59) 
-8.6300000000000008

>  <m_primary>  (59) 
energy

>  <rmsd>  (59) 
1.791410516672874

>  <m_score__min__rmsd>  (59) 
1.791410516672874

>  <meeko>  (59) 
{"free_energy": -7.67, "intermolecular_energy": -9.16, "internal_energy": -1.74, "cluster_size": 16, "cluster_id": 2, "rank_in_cluster": 11}

>  <energy>  (59) 
-8.54

>  <cluster_rmsd>  (59) 
0.13

>  <cluster>  (59) 
1

$$$$

     RDKit          3D

 50 53  0  0  0  0  0  0  0  0999 V2000
  139.1530   71.2310  221.0820 O   0  0  0  0  0  0  0  0  0  0  0  0
  139.2810   71.7340  222.2390 C   0  0  0  0  0  0  0  0  0  0  0  0
  139.1720   73.1910  222.3210 N   0  0  0  0  0  0  0  0  0  0  0  0
  138.9370   73.8560  221.1030 C   0  0  0  0  0  0  0  0  0  0  0  0
  140.0330   74.4250  220.3310 C   0  0  0  0  0  0  0  0  0  0  0  0
  139.6190   75.1120  219.2910 O   0  0  0  0  0  0  0  0  0  0  0  0
  141.4140   74.3800  220.4820 N   0  0  0  0  0  0  0  0  0  0  0  0
  142.2370   73.1740  220.6040 C   0  0  0  0  0  0  0  0  0  0  0  0
  143.7060   73.5590  220.4720 C   0  0  0  0  0  0  0  0  0  0  0  0
  144.0010   74.5280  219.3860 C   0  0  0  0  0  0  0  0  0  0  0  0
  142.9740   75.6740  219.2890 C   0  0  0  0  0  0  0  0  0  0  0  0
  142.2140   75.6240  220.5540 C   0  0  1  0  0  0  0  0  0  0  0  0
  141.4570   76.7790  220.9760 C   0  0  0  0  0  0  0  0  0  0  0  0
  141.0120   76.8280  222.3060 C   0  0  0  0  0  0  0  0  0  0  0  0
  140.2910   77.9300  222.7040 C   0  0  0  0  0  0  0  0  0  0  0  0
  140.0100   78.9650  221.8190 C   0  0  0  0  0  0  0  0  0  0  0  0
  140.4490   78.8960  220.5420 N   0  0  0  0  0  0  0  0  0  0  0  0
  141.1650   77.8270  220.0980 C   0  0  0  0  0  0  0  0  0  0  0  0
  139.5210   70.9560  223.4270 C   0  0  0  0  0  0  0  0  0  0  0  0
  139.2070   69.6240  223.4140 C   0  0  0  0  0  0  0  0  0  0  0  0
  139.4380   68.8940  224.5490 C   0  0  0  0  0  0  0  0  0  0  0  0
  139.9690   69.4750  225.6690 C   0  0  0  0  0  0  0  0  0  0  0  0
  140.2290   68.8010  226.8440 C   0  0  0  0  0  0  0  0  0  0  0  0
  140.7580   69.3860  227.9530 C   0  0  0  0  0  0  0  0  0  0  0  0
  141.0050   68.7100  229.0950 F   0  0  0  0  0  0  0  0  0  0  0  0
  141.0690   70.7380  227.9430 C   0  0  0  0  0  0  0  0  0  0  0  0
  140.8130   71.4170  226.7740 C   0  0  0  0  0  0  0  0  0  0  0  0
  140.2770   70.8230  225.6500 C   0  0  0  0  0  0  0  0  0  0  0  0
  140.0430   71.5270  224.5270 N   0  0  0  0  0  0  0  0  0  0  0  0
  139.2730   73.5490  223.2790 H   0  0  0  0  0  0  0  0  0  0  0  0
  138.4344   73.1323  220.4444 H   0  0  0  0  0  0  0  0  0  0  0  0
  138.3786   74.7488  221.4209 H   0  0  0  0  0  0  0  0  0  0  0  0
  142.0648   72.7080  221.5854 H   0  0  0  0  0  0  0  0  0  0  0  0
  141.9680   72.4593  219.8123 H   0  0  0  0  0  0  0  0  0  0  0  0
  144.0301   74.0035  221.4245 H   0  0  0  0  0  0  0  0  0  0  0  0
  144.2464   72.6352  220.2178 H   0  0  0  0  0  0  0  0  0  0  0  0
  144.9939   74.9647  219.5692 H   0  0  0  0  0  0  0  0  0  0  0  0
  143.9580   73.9736  218.4369 H   0  0  0  0  0  0  0  0  0  0  0  0
  143.4857   76.6422  219.1849 H   0  0  0  0  0  0  0  0  0  0  0  0
  142.3188   75.5645  218.4122 H   0  0  0  0  0  0  0  0  0  0  0  0
  142.9484   75.6325  221.3729 H   0  0  0  0  0  0  0  0  0  0  0  0
  141.2328   76.0108  223.0084 H   0  0  0  0  0  0  0  0  0  0  0  0
  139.9303   77.9935  223.7412 H   0  0  0  0  0  0  0  0  0  0  0  0
  139.4320   79.8377  222.1569 H   0  0  0  0  0  0  0  0  0  0  0  0
  141.5117   77.7879  219.0548 H   0  0  0  0  0  0  0  0  0  0  0  0
  138.7807   69.1528  222.5161 H   0  0  0  0  0  0  0  0  0  0  0  0
  139.1926   67.8218  224.5611 H   0  0  0  0  0  0  0  0  0  0  0  0
  139.9949   67.7271  226.8872 H   0  0  0  0  0  0  0  0  0  0  0  0
  141.4974   71.2404  228.8228 H   0  0  0  0  0  0  0  0  0  0  0  0
  141.0483   72.4908  226.7334 H   0  0  0  0  0  0  0  0  0  0  0  0
  1  2  2  0
  2  3  1  0
  3  4  1  0
  4  5  1  0
  5  6  2  0
  5  7  1  0
  7  8  1  0
  8  9  1  0
  9 10  1  0
 10 11  1  0
 11 12  1  0
 12 13  1  0
 13 14  2  0
 14 15  1  0
 15 16  2  0
 16 17  1  0
 17 18  2  0
  2 19  1  0
 19 20  2  0
 20 21  1  0
 21 22  2  0
 22 23  1  0
 23 24  2  0
 24 25  1  0
 24 26  1  0
 26 27  2  0
 27 28  1  0
 28 29  2  0
 12  7  1  0
 18 13  1  0
 29 19  1  0
 28 22  1  0
  3 30  1  0
  4 31  1  0
  4 32  1  0
  8 33  1  0
  8 34  1  0
  9 35  1  0
  9 36  1  0
 10 37  1  0
 10 38  1  0
 11 39  1  0
 11 40  1  0
 12 41  1  1
 14 42  1  0
 15 43  1  0
 16 44  1  0
 18 45  1  0
 20 46  1  0
 21 47  1  0
 23 48  1  0
 26 49  1  0
 27 50  1  0
M  END
>  <smiles>  (60) 
O=C(NCC(=O)N1CCCCC1c1cccnc1)c1ccc2cc(F)ccc2n1

>  <score_type>  (60) 
oracle

>  <origin>  (60) 
autodockgpu

>  <m_score__min__energy>  (60) 
-8.6300000000000008

>  <m_primary>  (60) 
energy

>  <rmsd>  (60) 
2.239736349759427

>  <m_score__min__rmsd>  (60) 
2.239736349759427

>  <meeko>  (60) 
{"free_energy": -7.24, "intermolecular_energy": -8.73, "internal_energy": -1.77, "cluster_size": 19, "cluster_id": 1, "rank_in_cluster": 19}

>  <energy>  (60) 
-8.53

>  <cluster_rmsd>  (60) 
0.15

>  <cluster>  (60) 
1

$$$$

     RDKit          3D

 50 53  0  0  0  0  0  0  0  0999 V2000
  140.4250   71.8530  221.0690 O   0  0  0  0  0  0  0  0  0  0  0  0
  140.0270   72.2430  222.2070 C   0  0  0  0  0  0  0  0  0  0  0  0
  139.5590   73.6280  222.2830 N   0  0  0  0  0  0  0  0  0  0  0  0
  139.6090   74.3570  221.0810 C   0  0  0  0  0  0  0  0  0  0  0  0
  140.7820   75.1430  220.7240 C   0  0  0  0  0  0  0  0  0  0  0  0
  141.5670   75.3800  221.7500 O   0  0  0  0  0  0  0  0  0  0  0  0
  141.2230   75.6810  219.5210 N   0  0  0  0  0  0  0  0  0  0  0  0
  140.4110   76.4130  218.5450 C   0  0  0  0  0  0  0  0  0  0  0  0
  141.3310   77.0620  217.5180 C   0  0  0  0  0  0  0  0  0  0  0  0
  142.5370   77.7150  218.0870 C   0  0  0  0  0  0  0  0  0  0  0  0
  143.2150   76.8910  219.2010 C   0  0  0  0  0  0  0  0  0  0  0  0
  142.6340   75.5390  219.0930 C   0  0  1  0  0  0  0  0  0  0  0  0
  143.3150   74.4200  219.7010 C   0  0  0  0  0  0  0  0  0  0  0  0
  142.7790   73.1370  219.5110 C   0  0  0  0  0  0  0  0  0  0  0  0
  143.4310   72.0730  220.0920 C   0  0  0  0  0  0  0  0  0  0  0  0
  144.5860   72.2610  220.8440 C   0  0  0  0  0  0  0  0  0  0  0  0
  145.0840   73.5070  221.0130 N   0  0  0  0  0  0  0  0  0  0  0  0
  144.4750   74.5910  220.4600 C   0  0  0  0  0  0  0  0  0  0  0  0
  140.0170   71.4090  223.3810 C   0  0  0  0  0  0  0  0  0  0  0  0
  139.5620   70.1220  223.2680 C   0  0  0  0  0  0  0  0  0  0  0  0
  139.5570   69.3380  224.3900 C   0  0  0  0  0  0  0  0  0  0  0  0
  139.9940   69.8190  225.5940 C   0  0  0  0  0  0  0  0  0  0  0  0
  140.0180   69.0860  226.7620 C   0  0  0  0  0  0  0  0  0  0  0  0
  140.4540   69.5730  227.9550 C   0  0  0  0  0  0  0  0  0  0  0  0
  140.4690   68.8390  229.0880 F   0  0  0  0  0  0  0  0  0  0  0  0
  140.9110   70.8800  228.0460 C   0  0  0  0  0  0  0  0  0  0  0  0
  140.8900   71.6180  226.8840 C   0  0  0  0  0  0  0  0  0  0  0  0
  140.4480   71.1240  225.6750 C   0  0  0  0  0  0  0  0  0  0  0  0
  140.4470   71.8820  224.5640 N   0  0  0  0  0  0  0  0  0  0  0  0
  139.2370   73.8920  223.2230 H   0  0  0  0  0  0  0  0  0  0  0  0
  139.4619   73.6298  220.2689 H   0  0  0  0  0  0  0  0  0  0  0  0
  138.8411   75.1291  221.2366 H   0  0  0  0  0  0  0  0  0  0  0  0
  139.7268   75.7163  218.0385 H   0  0  0  0  0  0  0  0  0  0  0  0
  139.8234   77.1882  219.0586 H   0  0  0  0  0  0  0  0  0  0  0  0
  141.6628   76.2833  216.8154 H   0  0  0  0  0  0  0  0  0  0  0  0
  140.7449   77.8592  217.0373 H   0  0  0  0  0  0  0  0  0  0  0  0
  143.2644   77.8696  217.2765 H   0  0  0  0  0  0  0  0  0  0  0  0
  142.2090   78.6625  218.5394 H   0  0  0  0  0  0  0  0  0  0  0  0
  144.3035   76.8562  219.0464 H   0  0  0  0  0  0  0  0  0  0  0  0
  143.0489   77.3307  220.1955 H   0  0  0  0  0  0  0  0  0  0  0  0
  142.7506   75.2218  218.0462 H   0  0  0  0  0  0  0  0  0  0  0  0
  141.8661   72.9863  218.9162 H   0  0  0  0  0  0  0  0  0  0  0  0
  143.0318   71.0566  219.9593 H   0  0  0  0  0  0  0  0  0  0  0  0
  145.0932   71.3981  221.3002 H   0  0  0  0  0  0  0  0  0  0  0  0
  144.8942   75.5969  220.6100 H   0  0  0  0  0  0  0  0  0  0  0  0
  139.2104   69.7294  222.3025 H   0  0  0  0  0  0  0  0  0  0  0  0
  139.1948   68.3015  224.3224 H   0  0  0  0  0  0  0  0  0  0  0  0
  139.6634   68.0453  226.7268 H   0  0  0  0  0  0  0  0  0  0  0  0
  141.2706   71.3036  228.9953 H   0  0  0  0  0  0  0  0  0  0  0  0
  141.2452   72.6584  226.9222 H   0  0  0  0  0  0  0  0  0  0  0  0
  1  2  2  0
  2  3  1  0
  3  4  1  0
  4  5  1  0
  5  6  2  0
  5  7  1  0
  7  8  1  0
  8  9  1  0
  9 10  1  0
 10 11  1  0
 11 12  1  0
 12 13  1  0
 13 14  2  0
 14 15  1  0
 15 16  2  0
 16 17  1  0
 17 18  2  0
  2 19  1  0
 19 20  2  0
 20 21  1  0
 21 22  2  0
 22 23  1  0
 23 24  2  0
 24 25  1  0
 24 26  1  0
 26 27  2  0
 27 28  1  0
 28 29  2  0
 12  7  1  0
 18 13  1  0
 29 19  1  0
 28 22  1  0
  3 30  1  0
  4 31  1  0
  4 32  1  0
  8 33  1  0
  8 34  1  0
  9 35  1  0
  9 36  1  0
 10 37  1  0
 10 38  1  0
 11 39  1  0
 11 40  1  0
 12 41  1  6
 14 42  1  0
 15 43  1  0
 16 44  1  0
 18 45  1  0
 20 46  1  0
 21 47  1  0
 23 48  1  0
 26 49  1  0
 27 50  1  0
M  END
>  <smiles>  (61) 
O=C(NCC(=O)N1CCCCC1c1cccnc1)c1ccc2cc(F)ccc2n1

>  <score_type>  (61) 
oracle

>  <origin>  (61) 
autodockgpu

>  <m_score__min__energy>  (61) 
-8.6300000000000008

>  <m_primary>  (61) 
energy

>  <rmsd>  (61) 
1.7916831232254653

>  <m_score__min__rmsd>  (61) 
1.7916831232254653

>  <meeko>  (61) 
{"free_energy": -7.57, "intermolecular_energy": -9.06, "internal_energy": -1.69, "cluster_size": 16, "cluster_id": 2, "rank_in_cluster": 13}

>  <energy>  (61) 
-8.53

>  <cluster_rmsd>  (61) 
0.14

>  <cluster>  (61) 
1

$$$$

     RDKit          3D

 50 53  0  0  0  0  0  0  0  0999 V2000
  140.2230   73.9590  222.3310 O   0  0  0  0  0  0  0  0  0  0  0  0
  140.2810   72.7120  222.1080 C   0  0  0  0  0  0  0  0  0  0  0  0
  140.4730   72.3200  220.7110 N   0  0  0  0  0  0  0  0  0  0  0  0
  140.5700   73.3760  219.7860 C   0  0  0  0  0  0  0  0  0  0  0  0
  141.6360   73.4170  218.7960 C   0  0  0  0  0  0  0  0  0  0  0  0
  142.2280   72.2550  218.6390 O   0  0  0  0  0  0  0  0  0  0  0  0
  142.1400   74.4360  217.9960 N   0  0  0  0  0  0  0  0  0  0  0  0
  141.5040   74.9990  216.8020 C   0  0  0  0  0  0  0  0  0  0  0  0
  142.2460   76.2670  216.3950 C   0  0  0  0  0  0  0  0  0  0  0  0
  142.5980   77.1710  217.5200 C   0  0  0  0  0  0  0  0  0  0  0  0
  143.1280   76.4280  218.7620 C   0  0  0  0  0  0  0  0  0  0  0  0
  143.4470   75.0650  218.2950 C   0  0  1  0  0  0  0  0  0  0  0  0
  144.3280   74.2300  219.0780 C   0  0  0  0  0  0  0  0  0  0  0  0
  144.3680   74.4300  220.4660 C   0  0  0  0  0  0  0  0  0  0  0  0
  145.2090   73.6340  221.2090 C   0  0  0  0  0  0  0  0  0  0  0  0
  145.9950   72.6590  220.6050 C   0  0  0  0  0  0  0  0  0  0  0  0
  145.9400   72.4840  219.2650 N   0  0  0  0  0  0  0  0  0  0  0  0
  145.1250   73.2470  218.4860 C   0  0  0  0  0  0  0  0  0  0  0  0
  140.1700   71.7090  223.1350 C   0  0  0  0  0  0  0  0  0  0  0  0
  139.5730   70.5160  222.8250 C   0  0  0  0  0  0  0  0  0  0  0  0
  139.4730   69.5690  223.8090 C   0  0  0  0  0  0  0  0  0  0  0  0
  139.9550   69.8020  225.0690 C   0  0  0  0  0  0  0  0  0  0  0  0
  139.8880   68.8950  226.1050 C   0  0  0  0  0  0  0  0  0  0  0  0
  140.3710   69.1340  227.3550 C   0  0  0  0  0  0  0  0  0  0  0  0
  140.2960   68.2330  228.3580 F   0  0  0  0  0  0  0  0  0  0  0  0
  140.9720   70.3500  227.6460 C   0  0  0  0  0  0  0  0  0  0  0  0
  141.0420   71.2600  226.6160 C   0  0  0  0  0  0  0  0  0  0  0  0
  140.5530   71.0170  225.3490 C   0  0  0  0  0  0  0  0  0  0  0  0
  140.6440   71.9370  224.3720 N   0  0  0  0  0  0  0  0  0  0  0  0
  140.5240   71.3010  220.5830 H   0  0  0  0  0  0  0  0  0  0  0  0
  139.6236   73.3870  219.2254 H   0  0  0  0  0  0  0  0  0  0  0  0
  140.8077   74.2362  220.4291 H   0  0  0  0  0  0  0  0  0  0  0  0
  141.5468   74.2674  215.9817 H   0  0  0  0  0  0  0  0  0  0  0  0
  140.4523   75.2375  217.0188 H   0  0  0  0  0  0  0  0  0  0  0  0
  143.1771   75.9713  215.8894 H   0  0  0  0  0  0  0  0  0  0  0  0
  141.5606   76.8322  215.7464 H   0  0  0  0  0  0  0  0  0  0  0  0
  143.3738   77.8705  217.1751 H   0  0  0  0  0  0  0  0  0  0  0  0
  141.6749   77.6879  217.8212 H   0  0  0  0  0  0  0  0  0  0  0  0
  144.0302   76.9228  219.1509 H   0  0  0  0  0  0  0  0  0  0  0  0
  142.3918   76.4192  219.5793 H   0  0  0  0  0  0  0  0  0  0  0  0
  144.1008   75.1709  217.4167 H   0  0  0  0  0  0  0  0  0  0  0  0
  143.7458   75.1999  220.9457 H   0  0  0  0  0  0  0  0  0  0  0  0
  145.2604   73.7713  222.2992 H   0  0  0  0  0  0  0  0  0  0  0  0
  146.6603   72.0311  221.2158 H   0  0  0  0  0  0  0  0  0  0  0  0
  145.0942   73.0906  217.3976 H   0  0  0  0  0  0  0  0  0  0  0  0
  139.1847   70.3239  221.8139 H   0  0  0  0  0  0  0  0  0  0  0  0
  138.9968   68.6035  223.5830 H   0  0  0  0  0  0  0  0  0  0  0  0
  139.4164   67.9206  225.9100 H   0  0  0  0  0  0  0  0  0  0  0  0
  141.3711   70.5747  228.6461 H   0  0  0  0  0  0  0  0  0  0  0  0
  141.5135   72.2340  226.8136 H   0  0  0  0  0  0  0  0  0  0  0  0
  1  2  2  0
  2  3  1  0
  3  4  1  0
  4  5  1  0
  5  6  2  0
  5  7  1  0
  7  8  1  0
  8  9  1  0
  9 10  1  0
 10 11  1  0
 11 12  1  0
 12 13  1  0
 13 14  2  0
 14 15  1  0
 15 16  2  0
 16 17  1  0
 17 18  2  0
  2 19  1  0
 19 20  2  0
 20 21  1  0
 21 22  2  0
 22 23  1  0
 23 24  2  0
 24 25  1  0
 24 26  1  0
 26 27  2  0
 27 28  1  0
 28 29  2  0
 12  7  1  0
 18 13  1  0
 29 19  1  0
 28 22  1  0
  3 30  1  0
  4 31  1  0
  4 32  1  0
  8 33  1  0
  8 34  1  0
  9 35  1  0
  9 36  1  0
 10 37  1  0
 10 38  1  0
 11 39  1  0
 11 40  1  0
 12 41  1  6
 14 42  1  0
 15 43  1  0
 16 44  1  0
 18 45  1  0
 20 46  1  0
 21 47  1  0
 23 48  1  0
 26 49  1  0
 27 50  1  0
M  END
>  <smiles>  (62) 
O=C(NCC(=O)N1CCCCC1c1cccnc1)c1ccc2cc(F)ccc2n1

>  <score_type>  (62) 
oracle

>  <origin>  (62) 
autodockgpu

>  <m_score__min__energy>  (62) 
-8.6300000000000008

>  <m_primary>  (62) 
energy

>  <rmsd>  (62) 
2.540502962585405

>  <m_score__min__rmsd>  (62) 
2.540502962585405

>  <meeko>  (62) 
{"free_energy": -7.83, "intermolecular_energy": -9.32, "internal_energy": -1.44, "cluster_size": 16, "cluster_id": 2, "rank_in_cluster": 4}

>  <energy>  (62) 
-8.52

>  <cluster_rmsd>  (62) 
0.12

>  <cluster>  (62) 
1

$$$$

     RDKit          3D

 50 53  0  0  0  0  0  0  0  0999 V2000
  141.3760   72.5350  221.5610 O   0  0  0  0  0  0  0  0  0  0  0  0
  140.4640   72.6360  222.4360 C   0  0  0  0  0  0  0  0  0  0  0  0
  139.6200   73.8280  222.3480 N   0  0  0  0  0  0  0  0  0  0  0  0
  139.9250   74.7180  221.3010 C   0  0  0  0  0  0  0  0  0  0  0  0
  140.9220   75.7650  221.4680 C   0  0  0  0  0  0  0  0  0  0  0  0
  141.0200   76.1790  222.7100 O   0  0  0  0  0  0  0  0  0  0  0  0
  141.7780   76.4010  220.5760 N   0  0  0  0  0  0  0  0  0  0  0  0
  142.7600   75.7540  219.7020 C   0  0  0  0  0  0  0  0  0  0  0  0
  143.2830   76.7760  218.6990 C   0  0  0  0  0  0  0  0  0  0  0  0
  142.2410   77.6450  218.0950 C   0  0  0  0  0  0  0  0  0  0  0  0
  141.1930   78.1450  219.1110 C   0  0  0  0  0  0  0  0  0  0  0  0
  141.7790   77.8750  220.4390 C   0  0  1  0  0  0  0  0  0  0  0  0
  141.2650   78.5670  221.5980 C   0  0  0  0  0  0  0  0  0  0  0  0
  142.1810   79.0010  222.5690 C   0  0  0  0  0  0  0  0  0  0  0  0
  141.6880   79.6590  223.6720 C   0  0  0  0  0  0  0  0  0  0  0  0
  140.3250   79.8900  223.8220 C   0  0  0  0  0  0  0  0  0  0  0  0
  139.4610   79.4640  222.8720 N   0  0  0  0  0  0  0  0  0  0  0  0
  139.8990   78.8070  221.7640 C   0  0  0  0  0  0  0  0  0  0  0  0
  140.2360   71.6600  223.4710 C   0  0  0  0  0  0  0  0  0  0  0  0
  139.5320   70.5270  223.1610 C   0  0  0  0  0  0  0  0  0  0  0  0
  139.3210   69.6070  224.1530 C   0  0  0  0  0  0  0  0  0  0  0  0
  139.7990   69.8070  225.4200 C   0  0  0  0  0  0  0  0  0  0  0  0
  139.6240   68.9240  226.4640 C   0  0  0  0  0  0  0  0  0  0  0  0
  140.1030   69.1310  227.7210 C   0  0  0  0  0  0  0  0  0  0  0  0
  139.9210   68.2540  228.7310 F   0  0  0  0  0  0  0  0  0  0  0  0
  140.8140   70.2860  228.0110 C   0  0  0  0  0  0  0  0  0  0  0  0
  140.9920   71.1720  226.9740 C   0  0  0  0  0  0  0  0  0  0  0  0
  140.5070   70.9620  225.7000 C   0  0  0  0  0  0  0  0  0  0  0  0
  140.7060   71.8570  224.7150 N   0  0  0  0  0  0  0  0  0  0  0  0
  138.8890   73.8580  223.0710 H   0  0  0  0  0  0  0  0  0  0  0  0
  140.2601   74.1005  220.4546 H   0  0  0  0  0  0  0  0  0  0  0  0
  138.9919   75.2905  221.1934 H   0  0  0  0  0  0  0  0  0  0  0  0
  143.5950   75.3701  220.3065 H   0  0  0  0  0  0  0  0  0  0  0  0
  142.2865   74.9176  219.1670 H   0  0  0  0  0  0  0  0  0  0  0  0
  144.0097   77.4209  219.2148 H   0  0  0  0  0  0  0  0  0  0  0  0
  143.7242   76.2006  217.8718 H   0  0  0  0  0  0  0  0  0  0  0  0
  142.7344   78.5190  217.6448 H   0  0  0  0  0  0  0  0  0  0  0  0
  141.7058   77.0386  217.3495 H   0  0  0  0  0  0  0  0  0  0  0  0
  141.0134   79.2224  218.9808 H   0  0  0  0  0  0  0  0  0  0  0  0
  140.2230   77.6429  218.9807 H   0  0  0  0  0  0  0  0  0  0  0  0
  142.7847   78.3205  220.4450 H   0  0  0  0  0  0  0  0  0  0  0  0
  143.2597   78.8206  222.4516 H   0  0  0  0  0  0  0  0  0  0  0  0
  142.3841   80.0084  224.4487 H   0  0  0  0  0  0  0  0  0  0  0  0
  139.9500   80.4180  224.7112 H   0  0  0  0  0  0  0  0  0  0  0  0
  139.1813   78.4667  221.0031 H   0  0  0  0  0  0  0  0  0  0  0  0
  139.1470   70.3607  222.1441 H   0  0  0  0  0  0  0  0  0  0  0  0
  138.7568   68.6900  223.9275 H   0  0  0  0  0  0  0  0  0  0  0  0
  139.0641   67.9973  226.2697 H   0  0  0  0  0  0  0  0  0  0  0  0
  141.2141   70.4830  229.0165 H   0  0  0  0  0  0  0  0  0  0  0  0
  141.5515   72.0983  227.1715 H   0  0  0  0  0  0  0  0  0  0  0  0
  1  2  2  0
  2  3  1  0
  3  4  1  0
  4  5  1  0
  5  6  2  0
  5  7  1  0
  7  8  1  0
  8  9  1  0
  9 10  1  0
 10 11  1  0
 11 12  1  0
 12 13  1  0
 13 14  2  0
 14 15  1  0
 15 16  2  0
 16 17  1  0
 17 18  2  0
  2 19  1  0
 19 20  2  0
 20 21  1  0
 21 22  2  0
 22 23  1  0
 23 24  2  0
 24 25  1  0
 24 26  1  0
 26 27  2  0
 27 28  1  0
 28 29  2  0
 12  7  1  0
 18 13  1  0
 29 19  1  0
 28 22  1  0
  3 30  1  0
  4 31  1  0
  4 32  1  0
  8 33  1  0
  8 34  1  0
  9 35  1  0
  9 36  1  0
 10 37  1  0
 10 38  1  0
 11 39  1  0
 11 40  1  0
 12 41  1  6
 14 42  1  0
 15 43  1  0
 16 44  1  0
 18 45  1  0
 20 46  1  0
 21 47  1  0
 23 48  1  0
 26 49  1  0
 27 50  1  0
M  END
>  <smiles>  (63) 
O=C(NCC(=O)N1CCCCC1c1cccnc1)c1ccc2cc(F)ccc2n1

>  <score_type>  (63) 
oracle

>  <origin>  (63) 
autodockgpu

>  <m_score__min__energy>  (63) 
-8.6300000000000008

>  <m_primary>  (63) 
energy

>  <rmsd>  (63) 
2.1191125546922374

>  <m_score__min__rmsd>  (63) 
2.1191125546922374

>  <meeko>  (63) 
{"free_energy": -8.61, "intermolecular_energy": -10.1, "internal_energy": -1.13, "cluster_size": 19, "cluster_id": 1, "rank_in_cluster": 2}

>  <energy>  (63) 
-8.5

>  <cluster_rmsd>  (63) 
0.49

>  <cluster>  (63) 
1

$$$$

     RDKit          3D

 50 53  0  0  0  0  0  0  0  0999 V2000
  141.3580   72.4100  221.4880 O   0  0  0  0  0  0  0  0  0  0  0  0
  140.4970   72.5830  222.4020 C   0  0  0  0  0  0  0  0  0  0  0  0
  139.7180   73.8190  222.3240 N   0  0  0  0  0  0  0  0  0  0  0  0
  140.0200   74.6660  221.2420 C   0  0  0  0  0  0  0  0  0  0  0  0
  140.9590   75.7690  221.3860 C   0  0  0  0  0  0  0  0  0  0  0  0
  141.0450   76.2040  222.6220 O   0  0  0  0  0  0  0  0  0  0  0  0
  141.7710   76.4390  220.4790 N   0  0  0  0  0  0  0  0  0  0  0  0
  142.7610   75.8320  219.5840 C   0  0  0  0  0  0  0  0  0  0  0  0
  143.2220   76.8750  218.5730 C   0  0  0  0  0  0  0  0  0  0  0  0
  142.1350   77.7020  217.9910 C   0  0  0  0  0  0  0  0  0  0  0  0
  141.0880   78.1590  219.0280 C   0  0  0  0  0  0  0  0  0  0  0  0
  141.7100   77.9120  220.3430 C   0  0  1  0  0  0  0  0  0  0  0  0
  141.1930   78.5820  221.5130 C   0  0  0  0  0  0  0  0  0  0  0  0
  142.1080   79.0360  222.4750 C   0  0  0  0  0  0  0  0  0  0  0  0
  141.6110   79.6730  223.5890 C   0  0  0  0  0  0  0  0  0  0  0  0
  140.2440   79.8640  223.7580 C   0  0  0  0  0  0  0  0  0  0  0  0
  139.3810   79.4190  222.8170 N   0  0  0  0  0  0  0  0  0  0  0  0
  139.8220   78.7820  221.6990 C   0  0  0  0  0  0  0  0  0  0  0  0
  140.2660   71.6460  223.4720 C   0  0  0  0  0  0  0  0  0  0  0  0
  139.5900   70.4870  223.1950 C   0  0  0  0  0  0  0  0  0  0  0  0
  139.3760   69.6050  224.2190 C   0  0  0  0  0  0  0  0  0  0  0  0
  139.8230   69.8650  225.4860 C   0  0  0  0  0  0  0  0  0  0  0  0
  139.6440   69.0220  226.5620 C   0  0  0  0  0  0  0  0  0  0  0  0
  140.0930   69.2890  227.8190 C   0  0  0  0  0  0  0  0  0  0  0  0
  139.9070   68.4500  228.8600 F   0  0  0  0  0  0  0  0  0  0  0  0
  140.7760   70.4680  228.0750 C   0  0  0  0  0  0  0  0  0  0  0  0
  140.9590   71.3160  227.0060 C   0  0  0  0  0  0  0  0  0  0  0  0
  140.5040   71.0440  225.7320 C   0  0  0  0  0  0  0  0  0  0  0  0
  140.7060   71.9020  224.7160 N   0  0  0  0  0  0  0  0  0  0  0  0
  139.0270   73.9070  223.0810 H   0  0  0  0  0  0  0  0  0  0  0  0
  140.4161   74.0218  220.4432 H   0  0  0  0  0  0  0  0  0  0  0  0
  139.0654   75.1852  221.0708 H   0  0  0  0  0  0  0  0  0  0  0  0
  143.6227   75.4814  220.1710 H   0  0  0  0  0  0  0  0  0  0  0  0
  142.3110   74.9776  219.0572 H   0  0  0  0  0  0  0  0  0  0  0  0
  143.9322   77.5481  219.0756 H   0  0  0  0  0  0  0  0  0  0  0  0
  143.6690   76.3183  217.7362 H   0  0  0  0  0  0  0  0  0  0  0  0
  142.5843   78.5954  217.5327 H   0  0  0  0  0  0  0  0  0  0  0  0
  141.6099   77.0754  217.2551 H   0  0  0  0  0  0  0  0  0  0  0  0
  140.8629   79.2284  218.9029 H   0  0  0  0  0  0  0  0  0  0  0  0
  140.1365   77.6186  218.9161 H   0  0  0  0  0  0  0  0  0  0  0  0
  142.6968   78.3978  220.3284 H   0  0  0  0  0  0  0  0  0  0  0  0
  143.1898   78.8873  222.3427 H   0  0  0  0  0  0  0  0  0  0  0  0
  142.3070   80.0373  224.3590 H   0  0  0  0  0  0  0  0  0  0  0  0
  139.8656   80.3759  224.6551 H   0  0  0  0  0  0  0  0  0  0  0  0
  139.1039   78.4262  220.9455 H   0  0  0  0  0  0  0  0  0  0  0  0
  139.2295   70.2716  222.1783 H   0  0  0  0  0  0  0  0  0  0  0  0
  138.8341   68.6687  224.0199 H   0  0  0  0  0  0  0  0  0  0  0  0
  139.1062   68.0771  226.3948 H   0  0  0  0  0  0  0  0  0  0  0  0
  141.1519   70.7130  229.0793 H   0  0  0  0  0  0  0  0  0  0  0  0
  141.4964   72.2605  227.1765 H   0  0  0  0  0  0  0  0  0  0  0  0
  1  2  2  0
  2  3  1  0
  3  4  1  0
  4  5  1  0
  5  6  2  0
  5  7  1  0
  7  8  1  0
  8  9  1  0
  9 10  1  0
 10 11  1  0
 11 12  1  0
 12 13  1  0
 13 14  2  0
 14 15  1  0
 15 16  2  0
 16 17  1  0
 17 18  2  0
  2 19  1  0
 19 20  2  0
 20 21  1  0
 21 22  2  0
 22 23  1  0
 23 24  2  0
 24 25  1  0
 24 26  1  0
 26 27  2  0
 27 28  1  0
 28 29  2  0
 12  7  1  0
 18 13  1  0
 29 19  1  0
 28 22  1  0
  3 30  1  0
  4 31  1  0
  4 32  1  0
  8 33  1  0
  8 34  1  0
  9 35  1  0
  9 36  1  0
 10 37  1  0
 10 38  1  0
 11 39  1  0
 11 40  1  0
 12 41  1  6
 14 42  1  0
 15 43  1  0
 16 44  1  0
 18 45  1  0
 20 46  1  0
 21 47  1  0
 23 48  1  0
 26 49  1  0
 27 50  1  0
M  END
>  <smiles>  (64) 
O=C(NCC(=O)N1CCCCC1c1cccnc1)c1ccc2cc(F)ccc2n1

>  <score_type>  (64) 
oracle

>  <origin>  (64) 
autodockgpu

>  <m_score__min__energy>  (64) 
-8.6300000000000008

>  <m_primary>  (64) 
energy

>  <rmsd>  (64) 
2.1064565494922958

>  <m_score__min__rmsd>  (64) 
2.1064565494922958

>  <meeko>  (64) 
{"free_energy": -8.53, "intermolecular_energy": -10.02, "internal_energy": -1.1, "cluster_size": 19, "cluster_id": 1, "rank_in_cluster": 11}

>  <energy>  (64) 
-8.5

>  <cluster_rmsd>  (64) 
0.49

>  <cluster>  (64) 
1

$$$$

     RDKit          3D

 50 53  0  0  0  0  0  0  0  0999 V2000
  140.9760   77.3100  217.9780 O   0  0  0  0  0  0  0  0  0  0  0  0
  141.9300   77.1200  218.7910 C   0  0  0  0  0  0  0  0  0  0  0  0
  142.2040   78.2130  219.7250 N   0  0  0  0  0  0  0  0  0  0  0  0
  141.3730   79.3430  219.6050 C   0  0  0  0  0  0  0  0  0  0  0  0
  140.0790   79.4010  220.2700 C   0  0  0  0  0  0  0  0  0  0  0  0
  139.3870   80.4680  219.9430 O   0  0  0  0  0  0  0  0  0  0  0  0
  139.4450   78.5540  221.1730 N   0  0  0  0  0  0  0  0  0  0  0  0
  138.1390   77.9140  220.9950 C   0  0  0  0  0  0  0  0  0  0  0  0
  137.9490   76.8620  222.0810 C   0  0  0  0  0  0  0  0  0  0  0  0
  139.1400   76.0140  222.3420 C   0  0  0  0  0  0  0  0  0  0  0  0
  140.4640   76.8040  222.3680 C   0  0  0  0  0  0  0  0  0  0  0  0
  140.0680   78.2220  222.4740 C   0  0  1  0  0  0  0  0  0  0  0  0
  141.0330   79.1990  222.9230 C   0  0  0  0  0  0  0  0  0  0  0  0
  140.5540   80.3860  223.4980 C   0  0  0  0  0  0  0  0  0  0  0  0
  141.4760   81.3140  223.9240 C   0  0  0  0  0  0  0  0  0  0  0  0
  142.8410   81.0850  223.7910 C   0  0  0  0  0  0  0  0  0  0  0  0
  143.2790   79.9340  223.2330 N   0  0  0  0  0  0  0  0  0  0  0  0
  142.4080   78.9850  222.7950 C   0  0  0  0  0  0  0  0  0  0  0  0
  142.7220   75.9180  218.8290 C   0  0  0  0  0  0  0  0  0  0  0  0
  142.5250   74.9710  217.8600 C   0  0  0  0  0  0  0  0  0  0  0  0
  143.2830   73.8320  217.9060 C   0  0  0  0  0  0  0  0  0  0  0  0
  144.2160   73.6400  218.8900 C   0  0  0  0  0  0  0  0  0  0  0  0
  145.0130   72.5200  218.9960 C   0  0  0  0  0  0  0  0  0  0  0  0
  145.9380   72.3370  219.9770 C   0  0  0  0  0  0  0  0  0  0  0  0
  146.7100   71.2330  220.0640 F   0  0  0  0  0  0  0  0  0  0  0  0
  146.1220   73.3110  220.9480 C   0  0  0  0  0  0  0  0  0  0  0  0
  145.3290   74.4320  220.8490 C   0  0  0  0  0  0  0  0  0  0  0  0
  144.3920   74.6170  219.8540 C   0  0  0  0  0  0  0  0  0  0  0  0
  143.6390   75.7300  219.7950 N   0  0  0  0  0  0  0  0  0  0  0  0
  142.9780   78.0070  220.3690 H   0  0  0  0  0  0  0  0  0  0  0  0
  141.9544   80.1988  219.9787 H   0  0  0  0  0  0  0  0  0  0  0  0
  141.0953   79.3247  218.5408 H   0  0  0  0  0  0  0  0  0  0  0  0
  137.3442   78.6706  221.0715 H   0  0  0  0  0  0  0  0  0  0  0  0
  138.0907   77.4380  220.0045 H   0  0  0  0  0  0  0  0  0  0  0  0
  137.6854   77.3788  223.0156 H   0  0  0  0  0  0  0  0  0  0  0  0
  137.1598   76.1852  221.7217 H   0  0  0  0  0  0  0  0  0  0  0  0
  139.0095   75.5210  223.3167 H   0  0  0  0  0  0  0  0  0  0  0  0
  139.2104   75.2919  221.5152 H   0  0  0  0  0  0  0  0  0  0  0  0
  141.0727   76.5079  223.2351 H   0  0  0  0  0  0  0  0  0  0  0  0
  141.0734   76.6137  221.4722 H   0  0  0  0  0  0  0  0  0  0  0  0
  139.3799   78.3023  223.3285 H   0  0  0  0  0  0  0  0  0  0  0  0
  139.4746   80.5689  223.6048 H   0  0  0  0  0  0  0  0  0  0  0  0
  141.1273   82.2534  224.3777 H   0  0  0  0  0  0  0  0  0  0  0  0
  143.5629   81.8385  224.1390 H   0  0  0  0  0  0  0  0  0  0  0  0
  142.7838   78.0552  222.3430 H   0  0  0  0  0  0  0  0  0  0  0  0
  141.7782   75.1212  217.0664 H   0  0  0  0  0  0  0  0  0  0  0  0
  143.1401   73.0569  217.1387 H   0  0  0  0  0  0  0  0  0  0  0  0
  144.8940   71.7272  218.2428 H   0  0  0  0  0  0  0  0  0  0  0  0
  146.8618   73.1937  221.7536 H   0  0  0  0  0  0  0  0  0  0  0  0
  145.4492   75.2228  221.6042 H   0  0  0  0  0  0  0  0  0  0  0  0
  1  2  2  0
  2  3  1  0
  3  4  1  0
  4  5  1  0
  5  6  2  0
  5  7  1  0
  7  8  1  0
  8  9  1  0
  9 10  1  0
 10 11  1  0
 11 12  1  0
 12 13  1  0
 13 14  2  0
 14 15  1  0
 15 16  2  0
 16 17  1  0
 17 18  2  0
  2 19  1  0
 19 20  2  0
 20 21  1  0
 21 22  2  0
 22 23  1  0
 23 24  2  0
 24 25  1  0
 24 26  1  0
 26 27  2  0
 27 28  1  0
 28 29  2  0
 12  7  1  0
 18 13  1  0
 29 19  1  0
 28 22  1  0
  3 30  1  0
  4 31  1  0
  4 32  1  0
  8 33  1  0
  8 34  1  0
  9 35  1  0
  9 36  1  0
 10 37  1  0
 10 38  1  0
 11 39  1  0
 11 40  1  0
 12 41  1  1
 14 42  1  0
 15 43  1  0
 16 44  1  0
 18 45  1  0
 20 46  1  0
 21 47  1  0
 23 48  1  0
 26 49  1  0
 27 50  1  0
M  END
>  <smiles>  (65) 
O=C(NCC(=O)N1CCCCC1c1cccnc1)c1ccc2cc(F)ccc2n1

>  <score_type>  (65) 
oracle

>  <origin>  (65) 
autodockgpu

>  <m_score__min__energy>  (65) 
-8.6300000000000008

>  <m_primary>  (65) 
energy

>  <rmsd>  (65) 
7.283612237084428

>  <m_score__min__rmsd>  (65) 
7.283612237084428

>  <meeko>  (65) 
{"free_energy": -6.69, "intermolecular_energy": -8.18, "internal_energy": -2.2, "cluster_size": 4, "cluster_id": 6, "rank_in_cluster": 4}

>  <energy>  (65) 
-8.47

>  <cluster_rmsd>  (65) 
0.19

>  <cluster>  (65) 
1

$$$$

     RDKit          3D

 50 53  0  0  0  0  0  0  0  0999 V2000
  139.1340   74.8860  221.4720 O   0  0  0  0  0  0  0  0  0  0  0  0
  140.3740   75.1250  221.5830 C   0  0  0  0  0  0  0  0  0  0  0  0
  140.7280   76.4380  222.1230 N   0  0  0  0  0  0  0  0  0  0  0  0
  139.6460   77.2760  222.4520 C   0  0  0  0  0  0  0  0  0  0  0  0
  139.6890   78.7060  222.1810 C   0  0  0  0  0  0  0  0  0  0  0  0
  138.6540   79.1230  221.4900 O   0  0  0  0  0  0  0  0  0  0  0  0
  140.6040   79.6990  222.5110 N   0  0  0  0  0  0  0  0  0  0  0  0
  140.4500   80.7090  223.5620 C   0  0  0  0  0  0  0  0  0  0  0  0
  141.7840   81.4160  223.7720 C   0  0  0  0  0  0  0  0  0  0  0  0
  142.9660   80.5170  223.8010 C   0  0  0  0  0  0  0  0  0  0  0  0
  142.9290   79.4160  222.7230 C   0  0  0  0  0  0  0  0  0  0  0  0
  141.8800   79.8370  221.7730 C   0  0  1  0  0  0  0  0  0  0  0  0
  141.8490   79.2660  220.4470 C   0  0  0  0  0  0  0  0  0  0  0  0
  141.4590   80.0910  219.3810 C   0  0  0  0  0  0  0  0  0  0  0  0
  141.4300   79.5430  218.1190 C   0  0  0  0  0  0  0  0  0  0  0  0
  141.7770   78.2140  217.9040 C   0  0  0  0  0  0  0  0  0  0  0  0
  142.1500   77.4380  218.9470 N   0  0  0  0  0  0  0  0  0  0  0  0
  142.1930   77.9320  220.2140 C   0  0  0  0  0  0  0  0  0  0  0  0
  141.4060   74.1910  221.2140 C   0  0  0  0  0  0  0  0  0  0  0  0
  141.0700   72.8730  221.0490 C   0  0  0  0  0  0  0  0  0  0  0  0
  142.0590   71.9940  220.6980 C   0  0  0  0  0  0  0  0  0  0  0  0
  143.3490   72.4130  220.5150 C   0  0  0  0  0  0  0  0  0  0  0  0
  144.3930   71.5840  220.1610 C   0  0  0  0  0  0  0  0  0  0  0  0
  145.6730   72.0100  219.9810 C   0  0  0  0  0  0  0  0  0  0  0  0
  146.6810   71.1810  219.6350 F   0  0  0  0  0  0  0  0  0  0  0  0
  145.9890   73.3490  220.1530 C   0  0  0  0  0  0  0  0  0  0  0  0
  144.9530   74.1830  220.5060 C   0  0  0  0  0  0  0  0  0  0  0  0
  143.6560   73.7510  220.6890 C   0  0  0  0  0  0  0  0  0  0  0  0
  142.6730   74.6030  221.0340 N   0  0  0  0  0  0  0  0  0  0  0  0
  141.7430   76.5800  222.2040 H   0  0  0  0  0  0  0  0  0  0  0  0
  138.7719   76.8827  221.9123 H   0  0  0  0  0  0  0  0  0  0  0  0
  139.6416   77.2408  223.5514 H   0  0  0  0  0  0  0  0  0  0  0  0
  139.6878   81.4423  223.2596 H   0  0  0  0  0  0  0  0  0  0  0  0
  140.1350   80.2252  224.4983 H   0  0  0  0  0  0  0  0  0  0  0  0
  141.9221   82.1371  222.9529 H   0  0  0  0  0  0  0  0  0  0  0  0
  141.7309   81.8909  224.7628 H   0  0  0  0  0  0  0  0  0  0  0  0
  143.8695   81.1251  223.6465 H   0  0  0  0  0  0  0  0  0  0  0  0
  142.9642   80.0124  224.7784 H   0  0  0  0  0  0  0  0  0  0  0  0
  143.9017   79.3413  222.2149 H   0  0  0  0  0  0  0  0  0  0  0  0
  142.7188   78.4262  223.1544 H   0  0  0  0  0  0  0  0  0  0  0  0
  142.1109   80.8702  221.4744 H   0  0  0  0  0  0  0  0  0  0  0  0
  141.1850   81.1430  219.5489 H   0  0  0  0  0  0  0  0  0  0  0  0
  141.1270   80.1673  217.2655 H   0  0  0  0  0  0  0  0  0  0  0  0
  141.7482   77.7944  216.8876 H   0  0  0  0  0  0  0  0  0  0  0  0
  142.4968   77.2849  221.0500 H   0  0  0  0  0  0  0  0  0  0  0  0
  140.0348   72.5308  221.1945 H   0  0  0  0  0  0  0  0  0  0  0  0
  141.8123   70.9309  220.5604 H   0  0  0  0  0  0  0  0  0  0  0  0
  144.1783   70.5150  220.0155 H   0  0  0  0  0  0  0  0  0  0  0  0
  147.0135   73.7247  220.0146 H   0  0  0  0  0  0  0  0  0  0  0  0
  145.1709   75.2515  220.6500 H   0  0  0  0  0  0  0  0  0  0  0  0
  1  2  2  0
  2  3  1  0
  3  4  1  0
  4  5  1  0
  5  6  2  0
  5  7  1  0
  7  8  1  0
  8  9  1  0
  9 10  1  0
 10 11  1  0
 11 12  1  0
 12 13  1  0
 13 14  2  0
 14 15  1  0
 15 16  2  0
 16 17  1  0
 17 18  2  0
  2 19  1  0
 19 20  2  0
 20 21  1  0
 21 22  2  0
 22 23  1  0
 23 24  2  0
 24 25  1  0
 24 26  1  0
 26 27  2  0
 27 28  1  0
 28 29  2  0
 12  7  1  0
 18 13  1  0
 29 19  1  0
 28 22  1  0
  3 30  1  0
  4 31  1  0
  4 32  1  0
  8 33  1  0
  8 34  1  0
  9 35  1  0
  9 36  1  0
 10 37  1  0
 10 38  1  0
 11 39  1  0
 11 40  1  0
 12 41  1  6
 14 42  1  0
 15 43  1  0
 16 44  1  0
 18 45  1  0
 20 46  1  0
 21 47  1  0
 23 48  1  0
 26 49  1  0
 27 50  1  0
M  END
>  <smiles>  (66) 
O=C(NCC(=O)N1CCCCC1c1cccnc1)c1ccc2cc(F)ccc2n1

>  <score_type>  (66) 
oracle

>  <origin>  (66) 
autodockgpu

>  <m_score__min__energy>  (66) 
-8.6300000000000008

>  <m_primary>  (66) 
energy

>  <rmsd>  (66) 
6.714316052365875

>  <m_score__min__rmsd>  (66) 
6.714316052365875

>  <meeko>  (66) 
{"free_energy": -7.12, "intermolecular_energy": -8.61, "internal_energy": -2.0, "cluster_size": 8, "cluster_id": 3, "rank_in_cluster": 2}

>  <energy>  (66) 
-8.45

>  <cluster_rmsd>  (66) 
0.23

>  <cluster>  (66) 
1

$$$$

     RDKit          3D

 50 53  0  0  0  0  0  0  0  0999 V2000
  142.5510   78.3650  218.9250 O   0  0  0  0  0  0  0  0  0  0  0  0
  142.0470   77.2040  218.9980 C   0  0  0  0  0  0  0  0  0  0  0  0
  140.5950   77.1460  219.1680 N   0  0  0  0  0  0  0  0  0  0  0  0
  139.9350   78.3870  219.2300 C   0  0  0  0  0  0  0  0  0  0  0  0
  140.0800   79.2610  220.3850 C   0  0  0  0  0  0  0  0  0  0  0  0
  139.0650   80.0810  220.5320 O   0  0  0  0  0  0  0  0  0  0  0  0
  141.0740   79.3910  221.3490 N   0  0  0  0  0  0  0  0  0  0  0  0
  142.1890   80.3410  221.3260 C   0  0  0  0  0  0  0  0  0  0  0  0
  142.8720   80.3390  222.6890 C   0  0  0  0  0  0  0  0  0  0  0  0
  141.9460   80.3400  223.8500 C   0  0  0  0  0  0  0  0  0  0  0  0
  140.7430   79.3910  223.6770 C   0  0  0  0  0  0  0  0  0  0  0  0
  141.0970   78.5150  222.5430 C   0  0  1  0  0  0  0  0  0  0  0  0
  140.3960   77.2660  222.3610 C   0  0  0  0  0  0  0  0  0  0  0  0
  139.0030   77.2590  222.5250 C   0  0  0  0  0  0  0  0  0  0  0  0
  138.3380   76.0660  222.3520 C   0  0  0  0  0  0  0  0  0  0  0  0
  139.0250   74.9030  222.0220 C   0  0  0  0  0  0  0  0  0  0  0  0
  140.3680   74.9330  221.8690 N   0  0  0  0  0  0  0  0  0  0  0  0
  141.0700   76.0870  222.0310 C   0  0  0  0  0  0  0  0  0  0  0  0
  142.8190   75.9910  218.9220 C   0  0  0  0  0  0  0  0  0  0  0  0
  142.6470   75.1700  217.8390 C   0  0  0  0  0  0  0  0  0  0  0  0
  143.3850   74.0190  217.7780 C   0  0  0  0  0  0  0  0  0  0  0  0
  144.2730   73.6910  218.7670 C   0  0  0  0  0  0  0  0  0  0  0  0
  145.0480   72.5510  218.7690 C   0  0  0  0  0  0  0  0  0  0  0  0
  145.9280   72.2330  219.7570 C   0  0  0  0  0  0  0  0  0  0  0  0
  146.6780   71.1110  219.7410 F   0  0  0  0  0  0  0  0  0  0  0  0
  146.0860   73.0800  220.8440 C   0  0  0  0  0  0  0  0  0  0  0  0
  145.3150   74.2200  220.8490 C   0  0  0  0  0  0  0  0  0  0  0  0
  144.4230   74.5420  219.8470 C   0  0  0  0  0  0  0  0  0  0  0  0
  143.6910   75.6700  219.8940 N   0  0  0  0  0  0  0  0  0  0  0  0
  140.2340   76.1840  219.2100 H   0  0  0  0  0  0  0  0  0  0  0  0
  140.2742   78.9645  218.3574 H   0  0  0  0  0  0  0  0  0  0  0  0
  138.8763   78.0932  219.2830 H   0  0  0  0  0  0  0  0  0  0  0  0
  142.9110   80.0433  220.5514 H   0  0  0  0  0  0  0  0  0  0  0  0
  141.8127   81.3498  221.1007 H   0  0  0  0  0  0  0  0  0  0  0  0
  143.5020   79.4397  222.7546 H   0  0  0  0  0  0  0  0  0  0  0  0
  143.4451   81.2760  222.7494 H   0  0  0  0  0  0  0  0  0  0  0  0
  142.5077   80.0310  224.7439 H   0  0  0  0  0  0  0  0  0  0  0  0
  141.5436   81.3596  223.9425 H   0  0  0  0  0  0  0  0  0  0  0  0
  140.5873   78.7963  224.5892 H   0  0  0  0  0  0  0  0  0  0  0  0
  139.8092   79.9424  223.4929 H   0  0  0  0  0  0  0  0  0  0  0  0
  142.0867   78.0877  222.7620 H   0  0  0  0  0  0  0  0  0  0  0  0
  138.4583   78.1789  222.7840 H   0  0  0  0  0  0  0  0  0  0  0  0
  137.2456   76.0323  222.4769 H   0  0  0  0  0  0  0  0  0  0  0  0
  138.4763   73.9594  221.8855 H   0  0  0  0  0  0  0  0  0  0  0  0
  142.1625   76.0921  221.9029 H   0  0  0  0  0  0  0  0  0  0  0  0
  141.9357   75.4286  217.0408 H   0  0  0  0  0  0  0  0  0  0  0  0
  143.2623   73.3445  216.9178 H   0  0  0  0  0  0  0  0  0  0  0  0
  144.9492   71.8570  217.9213 H   0  0  0  0  0  0  0  0  0  0  0  0
  146.7897   72.8527  221.6583 H   0  0  0  0  0  0  0  0  0  0  0  0
  145.4154   74.9121  221.6981 H   0  0  0  0  0  0  0  0  0  0  0  0
  1  2  2  0
  2  3  1  0
  3  4  1  0
  4  5  1  0
  5  6  2  0
  5  7  1  0
  7  8  1  0
  8  9  1  0
  9 10  1  0
 10 11  1  0
 11 12  1  0
 12 13  1  0
 13 14  2  0
 14 15  1  0
 15 16  2  0
 16 17  1  0
 17 18  2  0
  2 19  1  0
 19 20  2  0
 20 21  1  0
 21 22  2  0
 22 23  1  0
 23 24  2  0
 24 25  1  0
 24 26  1  0
 26 27  2  0
 27 28  1  0
 28 29  2  0
 12  7  1  0
 18 13  1  0
 29 19  1  0
 28 22  1  0
  3 30  1  0
  4 31  1  0
  4 32  1  0
  8 33  1  0
  8 34  1  0
  9 35  1  0
  9 36  1  0
 10 37  1  0
 10 38  1  0
 11 39  1  0
 11 40  1  0
 12 41  1  1
 14 42  1  0
 15 43  1  0
 16 44  1  0
 18 45  1  0
 20 46  1  0
 21 47  1  0
 23 48  1  0
 26 49  1  0
 27 50  1  0
M  END
>  <smiles>  (67) 
O=C(NCC(=O)N1CCCCC1c1cccnc1)c1ccc2cc(F)ccc2n1

>  <score_type>  (67) 
oracle

>  <origin>  (67) 
autodockgpu

>  <m_score__min__energy>  (67) 
-8.6300000000000008

>  <m_primary>  (67) 
energy

>  <rmsd>  (67) 
7.592790618425003

>  <m_score__min__rmsd>  (67) 
7.592790618425003

>  <meeko>  (67) 
{"free_energy": -6.95, "intermolecular_energy": -8.44, "internal_energy": -2.14, "cluster_size": 2, "cluster_id": 4, "rank_in_cluster": 1}

>  <energy>  (67) 
-8.43

>  <cluster_rmsd>  (67) 
0.49

>  <cluster>  (67) 
1

$$$$

     RDKit          3D

 50 53  0  0  0  0  0  0  0  0999 V2000
  141.3320   72.2830  221.3890 O   0  0  0  0  0  0  0  0  0  0  0  0
  140.5250   72.5160  222.3390 C   0  0  0  0  0  0  0  0  0  0  0  0
  139.8250   73.7990  222.2850 N   0  0  0  0  0  0  0  0  0  0  0  0
  140.1340   74.6200  221.1840 C   0  0  0  0  0  0  0  0  0  0  0  0
  141.1090   75.6960  221.2960 C   0  0  0  0  0  0  0  0  0  0  0  0
  141.3330   76.0520  222.5390 O   0  0  0  0  0  0  0  0  0  0  0  0
  141.8380   76.4070  220.3500 N   0  0  0  0  0  0  0  0  0  0  0  0
  142.7690   75.8460  219.3680 C   0  0  0  0  0  0  0  0  0  0  0  0
  143.1340   76.9250  218.3540 C   0  0  0  0  0  0  0  0  0  0  0  0
  141.9900   77.7440  217.8780 C   0  0  0  0  0  0  0  0  0  0  0  0
  141.0150   78.1500  219.0020 C   0  0  0  0  0  0  0  0  0  0  0  0
  141.7380   77.8820  220.2600 C   0  0  1  0  0  0  0  0  0  0  0  0
  141.2960   78.5090  221.4840 C   0  0  0  0  0  0  0  0  0  0  0  0
  139.9160   78.6050  221.7170 C   0  0  0  0  0  0  0  0  0  0  0  0
  139.4990   79.2040  222.8840 C   0  0  0  0  0  0  0  0  0  0  0  0
  140.4150   79.6990  223.8050 C   0  0  0  0  0  0  0  0  0  0  0  0
  141.7410   79.5950  223.5600 N   0  0  0  0  0  0  0  0  0  0  0  0
  142.2040   79.0120  222.4200 C   0  0  0  0  0  0  0  0  0  0  0  0
  140.2810   71.6010  223.4240 C   0  0  0  0  0  0  0  0  0  0  0  0
  139.6030   70.4400  223.1640 C   0  0  0  0  0  0  0  0  0  0  0  0
  139.3760   69.5780  224.2030 C   0  0  0  0  0  0  0  0  0  0  0  0
  139.8130   69.8620  225.4690 C   0  0  0  0  0  0  0  0  0  0  0  0
  139.6210   69.0400  226.5600 C   0  0  0  0  0  0  0  0  0  0  0  0
  140.0600   69.3300  227.8150 C   0  0  0  0  0  0  0  0  0  0  0  0
  139.8610   68.5120  228.8710 F   0  0  0  0  0  0  0  0  0  0  0  0
  140.7450   70.5120  228.0540 C   0  0  0  0  0  0  0  0  0  0  0  0
  140.9410   71.3370  226.9700 C   0  0  0  0  0  0  0  0  0  0  0  0
  140.4960   71.0430  225.6980 C   0  0  0  0  0  0  0  0  0  0  0  0
  140.7110   71.8800  224.6670 N   0  0  0  0  0  0  0  0  0  0  0  0
  139.1750   73.9360  223.0700 H   0  0  0  0  0  0  0  0  0  0  0  0
  140.4967   73.9520  220.3889 H   0  0  0  0  0  0  0  0  0  0  0  0
  139.1929   75.1652  221.0196 H   0  0  0  0  0  0  0  0  0  0  0  0
  143.6786   75.4982  219.8795 H   0  0  0  0  0  0  0  0  0  0  0  0
  142.2967   74.9970  218.8522 H   0  0  0  0  0  0  0  0  0  0  0  0
  143.8671   77.5994  218.8207 H   0  0  0  0  0  0  0  0  0  0  0  0
  143.5281   76.4002  217.4712 H   0  0  0  0  0  0  0  0  0  0  0  0
  142.3862   78.6589  217.4133 H   0  0  0  0  0  0  0  0  0  0  0  0
  141.4237   77.1261  217.1656 H   0  0  0  0  0  0  0  0  0  0  0  0
  140.7599   79.2172  218.9240 H   0  0  0  0  0  0  0  0  0  0  0  0
  140.0689   77.5917  218.9458 H   0  0  0  0  0  0  0  0  0  0  0  0
  142.7110   78.3898  220.1858 H   0  0  0  0  0  0  0  0  0  0  0  0
  139.1896   78.2137  220.9895 H   0  0  0  0  0  0  0  0  0  0  0  0
  138.4224   79.2925  223.0914 H   0  0  0  0  0  0  0  0  0  0  0  0
  140.0618   80.1747  224.7318 H   0  0  0  0  0  0  0  0  0  0  0  0
  143.2861   78.9373  222.2368 H   0  0  0  0  0  0  0  0  0  0  0  0
  139.2505   70.2065  222.1485 H   0  0  0  0  0  0  0  0  0  0  0  0
  138.8325   68.6399  224.0173 H   0  0  0  0  0  0  0  0  0  0  0  0
  139.0810   68.0940  226.4064 H   0  0  0  0  0  0  0  0  0  0  0  0
  141.1121   70.7761  229.0567 H   0  0  0  0  0  0  0  0  0  0  0  0
  141.4818   72.2820  227.1265 H   0  0  0  0  0  0  0  0  0  0  0  0
  1  2  2  0
  2  3  1  0
  3  4  1  0
  4  5  1  0
  5  6  2  0
  5  7  1  0
  7  8  1  0
  8  9  1  0
  9 10  1  0
 10 11  1  0
 11 12  1  0
 12 13  1  0
 13 14  2  0
 14 15  1  0
 15 16  2  0
 16 17  1  0
 17 18  2  0
  2 19  1  0
 19 20  2  0
 20 21  1  0
 21 22  2  0
 22 23  1  0
 23 24  2  0
 24 25  1  0
 24 26  1  0
 26 27  2  0
 27 28  1  0
 28 29  2  0
 12  7  1  0
 18 13  1  0
 29 19  1  0
 28 22  1  0
  3 30  1  0
  4 31  1  0
  4 32  1  0
  8 33  1  0
  8 34  1  0
  9 35  1  0
  9 36  1  0
 10 37  1  0
 10 38  1  0
 11 39  1  0
 11 40  1  0
 12 41  1  6
 14 42  1  0
 15 43  1  0
 16 44  1  0
 18 45  1  0
 20 46  1  0
 21 47  1  0
 23 48  1  0
 26 49  1  0
 27 50  1  0
M  END
>  <smiles>  (68) 
O=C(NCC(=O)N1CCCCC1c1cccnc1)c1ccc2cc(F)ccc2n1

>  <score_type>  (68) 
oracle

>  <origin>  (68) 
autodockgpu

>  <m_score__min__energy>  (68) 
-8.6300000000000008

>  <m_primary>  (68) 
energy

>  <rmsd>  (68) 
2.085831828643464

>  <m_score__min__rmsd>  (68) 
2.085831828643464

>  <meeko>  (68) 
{"free_energy": -8.25, "intermolecular_energy": -9.74, "internal_energy": -1.15, "cluster_size": 19, "cluster_id": 1, "rank_in_cluster": 18}

>  <energy>  (68) 
-8.25

>  <cluster_rmsd>  (68) 
0.54

>  <cluster>  (68) 
1

$$$$

     RDKit          3D

 50 53  0  0  0  0  0  0  0  0999 V2000
  141.4170   72.6790  221.6310 O   0  0  0  0  0  0  0  0  0  0  0  0
  140.4530   72.7050  222.4550 C   0  0  0  0  0  0  0  0  0  0  0  0
  139.5370   73.8400  222.3330 N   0  0  0  0  0  0  0  0  0  0  0  0
  139.8380   74.7630  221.3150 C   0  0  0  0  0  0  0  0  0  0  0  0
  140.9050   75.7410  221.4750 C   0  0  0  0  0  0  0  0  0  0  0  0
  141.0490   76.1370  222.7190 O   0  0  0  0  0  0  0  0  0  0  0  0
  141.7880   76.3270  220.5750 N   0  0  0  0  0  0  0  0  0  0  0  0
  142.7610   75.6280  219.7310 C   0  0  0  0  0  0  0  0  0  0  0  0
  143.3220   76.6050  218.7050 C   0  0  0  0  0  0  0  0  0  0  0  0
  142.3120   77.4850  218.0650 C   0  0  0  0  0  0  0  0  0  0  0  0
  141.2680   78.0430  219.0530 C   0  0  0  0  0  0  0  0  0  0  0  0
  141.8310   77.7960  220.3950 C   0  0  1  0  0  0  0  0  0  0  0  0
  141.3250   78.5350  221.5270 C   0  0  0  0  0  0  0  0  0  0  0  0
  142.2460   79.0080  222.4740 C   0  0  0  0  0  0  0  0  0  0  0  0
  141.7600   79.7120  223.5520 C   0  0  0  0  0  0  0  0  0  0  0  0
  140.3980   79.9500  223.7000 C   0  0  0  0  0  0  0  0  0  0  0  0
  139.5280   79.4840  222.7750 N   0  0  0  0  0  0  0  0  0  0  0  0
  139.9590   78.7820  221.6920 C   0  0  0  0  0  0  0  0  0  0  0  0
  140.2360   71.7020  223.4650 C   0  0  0  0  0  0  0  0  0  0  0  0
  139.5560   70.5630  223.1230 C   0  0  0  0  0  0  0  0  0  0  0  0
  139.3550   69.6160  224.0910 C   0  0  0  0  0  0  0  0  0  0  0  0
  139.8180   69.7960  225.3660 C   0  0  0  0  0  0  0  0  0  0  0  0
  139.6520   68.8850  226.3890 C   0  0  0  0  0  0  0  0  0  0  0  0
  140.1160   69.0720  227.6540 C   0  0  0  0  0  0  0  0  0  0  0  0
  139.9420   68.1680  228.6420 F   0  0  0  0  0  0  0  0  0  0  0  0
  140.8020   70.2330  227.9770 C   0  0  0  0  0  0  0  0  0  0  0  0
  140.9720   71.1470  226.9620 C   0  0  0  0  0  0  0  0  0  0  0  0
  140.5010   70.9570  225.6790 C   0  0  0  0  0  0  0  0  0  0  0  0
  140.6910   71.8790  224.7180 N   0  0  0  0  0  0  0  0  0  0  0  0
  138.7680   73.8110  223.0150 H   0  0  0  0  0  0  0  0  0  0  0  0
  140.0885   74.1716  220.4220 H   0  0  0  0  0  0  0  0  0  0  0  0
  138.9369   75.3934  221.2888 H   0  0  0  0  0  0  0  0  0  0  0  0
  143.5789   75.2395  220.3556 H   0  0  0  0  0  0  0  0  0  0  0  0
  142.2702   74.7894  219.2153 H   0  0  0  0  0  0  0  0  0  0  0  0
  144.0616   77.2439  219.2098 H   0  0  0  0  0  0  0  0  0  0  0  0
  143.7542   75.9933  217.8994 H   0  0  0  0  0  0  0  0  0  0  0  0
  142.8349   78.3316  217.5961 H   0  0  0  0  0  0  0  0  0  0  0  0
  141.7678   76.8725  217.3310 H   0  0  0  0  0  0  0  0  0  0  0  0
  141.1202   79.1207  218.8895 H   0  0  0  0  0  0  0  0  0  0  0  0
  140.2859   77.5642  218.9257 H   0  0  0  0  0  0  0  0  0  0  0  0
  142.8484   78.2143  220.3995 H   0  0  0  0  0  0  0  0  0  0  0  0
  143.3239   78.8217  222.3583 H   0  0  0  0  0  0  0  0  0  0  0  0
  142.4608   80.0929  224.3094 H   0  0  0  0  0  0  0  0  0  0  0  0
  140.0287   80.5162  224.5678 H   0  0  0  0  0  0  0  0  0  0  0  0
  139.2364   78.4108  220.9503 H   0  0  0  0  0  0  0  0  0  0  0  0
  139.1820   70.4135  222.0994 H   0  0  0  0  0  0  0  0  0  0  0  0
  138.8113   68.6935  223.8392 H   0  0  0  0  0  0  0  0  0  0  0  0
  139.1124   67.9521  226.1685 H   0  0  0  0  0  0  0  0  0  0  0  0
  141.1897   70.4139  228.9904 H   0  0  0  0  0  0  0  0  0  0  0  0
  141.5122   72.0788  227.1856 H   0  0  0  0  0  0  0  0  0  0  0  0
  1  2  2  0
  2  3  1  0
  3  4  1  0
  4  5  1  0
  5  6  2  0
  5  7  1  0
  7  8  1  0
  8  9  1  0
  9 10  1  0
 10 11  1  0
 11 12  1  0
 12 13  1  0
 13 14  2  0
 14 15  1  0
 15 16  2  0
 16 17  1  0
 17 18  2  0
  2 19  1  0
 19 20  2  0
 20 21  1  0
 21 22  2  0
 22 23  1  0
 23 24  2  0
 24 25  1  0
 24 26  1  0
 26 27  2  0
 27 28  1  0
 28 29  2  0
 12  7  1  0
 18 13  1  0
 29 19  1  0
 28 22  1  0
  3 30  1  0
  4 31  1  0
  4 32  1  0
  8 33  1  0
  8 34  1  0
  9 35  1  0
  9 36  1  0
 10 37  1  0
 10 38  1  0
 11 39  1  0
 11 40  1  0
 12 41  1  6
 14 42  1  0
 15 43  1  0
 16 44  1  0
 18 45  1  0
 20 46  1  0
 21 47  1  0
 23 48  1  0
 26 49  1  0
 27 50  1  0
M  END
>  <smiles>  (69) 
O=C(NCC(=O)N1CCCCC1c1cccnc1)c1ccc2cc(F)ccc2n1

>  <score_type>  (69) 
oracle

>  <origin>  (69) 
autodockgpu

>  <m_score__min__energy>  (69) 
-8.6300000000000008

>  <m_primary>  (69) 
energy

>  <rmsd>  (69) 
2.106984483268878

>  <m_score__min__rmsd>  (69) 
2.106984483268878

>  <meeko>  (69) 
{"free_energy": -8.56, "intermolecular_energy": -10.06, "internal_energy": -1.18, "cluster_size": 19, "cluster_id": 1, "rank_in_cluster": 6}

>  <energy>  (69) 
-7.24

>  <cluster_rmsd>  (69) 
1.56

>  <cluster>  (69) 
1

$$$$

     RDKit          3D

 50 53  0  0  0  0  0  0  0  0999 V2000
  141.4370   72.6810  221.6410 O   0  0  0  0  0  0  0  0  0  0  0  0
  140.4590   72.7010  222.4480 C   0  0  0  0  0  0  0  0  0  0  0  0
  139.5280   73.8200  222.3010 N   0  0  0  0  0  0  0  0  0  0  0  0
  139.8340   74.7390  221.2800 C   0  0  0  0  0  0  0  0  0  0  0  0
  140.9000   75.7180  221.4400 C   0  0  0  0  0  0  0  0  0  0  0  0
  141.0390   76.1200  222.6820 O   0  0  0  0  0  0  0  0  0  0  0  0
  141.7870   76.2990  220.5410 N   0  0  0  0  0  0  0  0  0  0  0  0
  142.7590   75.5940  219.7000 C   0  0  0  0  0  0  0  0  0  0  0  0
  143.3260   76.5670  218.6730 C   0  0  0  0  0  0  0  0  0  0  0  0
  142.3200   77.4500  218.0300 C   0  0  0  0  0  0  0  0  0  0  0  0
  141.2770   78.0140  219.0150 C   0  0  0  0  0  0  0  0  0  0  0  0
  141.8370   77.7670  220.3580 C   0  0  1  0  0  0  0  0  0  0  0  0
  141.3310   78.5100  221.4890 C   0  0  0  0  0  0  0  0  0  0  0  0
  142.2540   78.9950  222.4280 C   0  0  0  0  0  0  0  0  0  0  0  0
  141.7690   79.7020  223.5040 C   0  0  0  0  0  0  0  0  0  0  0  0
  140.4060   79.9320  223.6580 C   0  0  0  0  0  0  0  0  0  0  0  0
  139.5350   79.4550  222.7400 N   0  0  0  0  0  0  0  0  0  0  0  0
  139.9650   78.7490  221.6590 C   0  0  0  0  0  0  0  0  0  0  0  0
  140.2390   71.7030  223.4630 C   0  0  0  0  0  0  0  0  0  0  0  0
  139.5310   70.5770  223.1340 C   0  0  0  0  0  0  0  0  0  0  0  0
  139.3280   69.6350  224.1070 C   0  0  0  0  0  0  0  0  0  0  0  0
  139.8160   69.8070  225.3740 C   0  0  0  0  0  0  0  0  0  0  0  0
  139.6500   68.9010  226.4000 C   0  0  0  0  0  0  0  0  0  0  0  0
  140.1390   69.0790  227.6570 C   0  0  0  0  0  0  0  0  0  0  0  0
  139.9650   68.1790  228.6480 F   0  0  0  0  0  0  0  0  0  0  0  0
  140.8540   70.2260  227.9670 C   0  0  0  0  0  0  0  0  0  0  0  0
  141.0240   71.1360  226.9480 C   0  0  0  0  0  0  0  0  0  0  0  0
  140.5280   70.9550  225.6740 C   0  0  0  0  0  0  0  0  0  0  0  0
  140.7200   71.8710  224.7070 N   0  0  0  0  0  0  0  0  0  0  0  0
  138.7490   73.7850  222.9700 H   0  0  0  0  0  0  0  0  0  0  0  0
  140.0886   74.1436  220.3908 H   0  0  0  0  0  0  0  0  0  0  0  0
  138.9331   75.3693  221.2474 H   0  0  0  0  0  0  0  0  0  0  0  0
  143.5741   75.2034  220.3269 H   0  0  0  0  0  0  0  0  0  0  0  0
  142.2658   74.7564  219.1851 H   0  0  0  0  0  0  0  0  0  0  0  0
  144.0674   77.2038  219.1778 H   0  0  0  0  0  0  0  0  0  0  0  0
  143.7573   75.9523  217.8692 H   0  0  0  0  0  0  0  0  0  0  0  0
  142.8469   78.2936  217.5602 H   0  0  0  0  0  0  0  0  0  0  0  0
  141.7744   76.8380  217.2967 H   0  0  0  0  0  0  0  0  0  0  0  0
  141.1339   79.0920  218.8494 H   0  0  0  0  0  0  0  0  0  0  0  0
  140.2930   77.5393  218.8871 H   0  0  0  0  0  0  0  0  0  0  0  0
  142.8561   78.1810  220.3627 H   0  0  0  0  0  0  0  0  0  0  0  0
  143.3325   78.8154  222.3075 H   0  0  0  0  0  0  0  0  0  0  0  0
  142.4713   80.0921  224.2554 H   0  0  0  0  0  0  0  0  0  0  0  0
  140.0373   80.5006  224.5245 H   0  0  0  0  0  0  0  0  0  0  0  0
  139.2412   78.3686  220.9232 H   0  0  0  0  0  0  0  0  0  0  0  0
  139.1368   70.4338  222.1171 H   0  0  0  0  0  0  0  0  0  0  0  0
  138.7622   68.7231  223.8657 H   0  0  0  0  0  0  0  0  0  0  0  0
  139.0884   67.9789  226.1895 H   0  0  0  0  0  0  0  0  0  0  0  0
  141.2634   70.3995  228.9731 H   0  0  0  0  0  0  0  0  0  0  0  0
  141.5858   72.0573  227.1616 H   0  0  0  0  0  0  0  0  0  0  0  0
  1  2  2  0
  2  3  1  0
  3  4  1  0
  4  5  1  0
  5  6  2  0
  5  7  1  0
  7  8  1  0
  8  9  1  0
  9 10  1  0
 10 11  1  0
 11 12  1  0
 12 13  1  0
 13 14  2  0
 14 15  1  0
 15 16  2  0
 16 17  1  0
 17 18  2  0
  2 19  1  0
 19 20  2  0
 20 21  1  0
 21 22  2  0
 22 23  1  0
 23 24  2  0
 24 25  1  0
 24 26  1  0
 26 27  2  0
 27 28  1  0
 28 29  2  0
 12  7  1  0
 18 13  1  0
 29 19  1  0
 28 22  1  0
  3 30  1  0
  4 31  1  0
  4 32  1  0
  8 33  1  0
  8 34  1  0
  9 35  1  0
  9 36  1  0
 10 37  1  0
 10 38  1  0
 11 39  1  0
 11 40  1  0
 12 41  1  6
 14 42  1  0
 15 43  1  0
 16 44  1  0
 18 45  1  0
 20 46  1  0
 21 47  1  0
 23 48  1  0
 26 49  1  0
 27 50  1  0
M  END
>  <smiles>  (70) 
O=C(NCC(=O)N1CCCCC1c1cccnc1)c1ccc2cc(F)ccc2n1

>  <score_type>  (70) 
oracle

>  <origin>  (70) 
autodockgpu

>  <m_score__min__energy>  (70) 
-8.6300000000000008

>  <m_primary>  (70) 
energy

>  <rmsd>  (70) 
2.095314134611347

>  <m_score__min__rmsd>  (70) 
2.095314134611347

>  <meeko>  (70) 
{"free_energy": -8.54, "intermolecular_energy": -10.03, "internal_energy": -1.17, "cluster_size": 19, "cluster_id": 1, "rank_in_cluster": 8}

>  <energy>  (70) 
-8.45

>  <cluster_rmsd>  (70) 
0.0

>  <cluster>  (70) 
2

$$$$

     RDKit          3D

 50 53  0  0  0  0  0  0  0  0999 V2000
  141.4080   72.3570  221.5260 O   0  0  0  0  0  0  0  0  0  0  0  0
  140.5350   72.5280  222.4290 C   0  0  0  0  0  0  0  0  0  0  0  0
  139.7520   73.7610  222.3390 N   0  0  0  0  0  0  0  0  0  0  0  0
  140.0640   74.6060  221.2590 C   0  0  0  0  0  0  0  0  0  0  0  0
  140.9990   75.7120  221.4120 C   0  0  0  0  0  0  0  0  0  0  0  0
  141.0820   76.1400  222.6500 O   0  0  0  0  0  0  0  0  0  0  0  0
  141.8110   76.3900  220.5090 N   0  0  0  0  0  0  0  0  0  0  0  0
  142.7980   75.7910  219.6080 C   0  0  0  0  0  0  0  0  0  0  0  0
  143.2600   76.8430  218.6060 C   0  0  0  0  0  0  0  0  0  0  0  0
  142.1720   77.6770  218.0340 C   0  0  0  0  0  0  0  0  0  0  0  0
  141.1280   78.1250  219.0760 C   0  0  0  0  0  0  0  0  0  0  0  0
  141.7510   77.8640  220.3880 C   0  0  1  0  0  0  0  0  0  0  0  0
  141.2360   78.5240  221.5660 C   0  0  0  0  0  0  0  0  0  0  0  0
  142.1550   78.9890  222.5190 C   0  0  0  0  0  0  0  0  0  0  0  0
  141.6600   79.6160  223.6390 C   0  0  0  0  0  0  0  0  0  0  0  0
  140.2920   79.7860  223.8230 C   0  0  0  0  0  0  0  0  0  0  0  0
  139.4260   79.3300  222.8910 N   0  0  0  0  0  0  0  0  0  0  0  0
  139.8650   78.7020  221.7660 C   0  0  0  0  0  0  0  0  0  0  0  0
  140.2960   71.5920  223.4980 C   0  0  0  0  0  0  0  0  0  0  0  0
  139.5840   70.4540  223.2260 C   0  0  0  0  0  0  0  0  0  0  0  0
  139.3620   69.5720  224.2490 C   0  0  0  0  0  0  0  0  0  0  0  0
  139.8360   69.8140  225.5100 C   0  0  0  0  0  0  0  0  0  0  0  0
  139.6510   68.9700  226.5850 C   0  0  0  0  0  0  0  0  0  0  0  0
  140.1270   69.2190  227.8360 C   0  0  0  0  0  0  0  0  0  0  0  0
  139.9340   68.3800  228.8760 F   0  0  0  0  0  0  0  0  0  0  0  0
  140.8460   70.3770  228.0870 C   0  0  0  0  0  0  0  0  0  0  0  0
  141.0350   71.2250  227.0190 C   0  0  0  0  0  0  0  0  0  0  0  0
  140.5530   70.9730  225.7520 C   0  0  0  0  0  0  0  0  0  0  0  0
  140.7630   71.8300  224.7360 N   0  0  0  0  0  0  0  0  0  0  0  0
  139.0520   73.8480  223.0870 H   0  0  0  0  0  0  0  0  0  0  0  0
  140.4709   73.9612  220.4661 H   0  0  0  0  0  0  0  0  0  0  0  0
  139.1102   75.1222  221.0753 H   0  0  0  0  0  0  0  0  0  0  0  0
  143.6598   75.4334  220.1907 H   0  0  0  0  0  0  0  0  0  0  0  0
  142.3458   74.9426  219.0734 H   0  0  0  0  0  0  0  0  0  0  0  0
  143.9720   77.5102  219.1138 H   0  0  0  0  0  0  0  0  0  0  0  0
  143.7058   76.2942  217.7634 H   0  0  0  0  0  0  0  0  0  0  0  0
  142.6213   78.5742  217.5834 H   0  0  0  0  0  0  0  0  0  0  0  0
  141.6448   77.0576  217.2935 H   0  0  0  0  0  0  0  0  0  0  0  0
  140.9045   79.1960  218.9617 H   0  0  0  0  0  0  0  0  0  0  0  0
  140.1755   77.5871  218.9599 H   0  0  0  0  0  0  0  0  0  0  0  0
  142.7384   78.3487  220.3776 H   0  0  0  0  0  0  0  0  0  0  0  0
  143.2374   78.8563  222.3750 H   0  0  0  0  0  0  0  0  0  0  0  0
  142.3584   79.9894  224.4024 H   0  0  0  0  0  0  0  0  0  0  0  0
  139.9157   80.2905  224.7251 H   0  0  0  0  0  0  0  0  0  0  0  0
  139.1447   78.3370  221.0191 H   0  0  0  0  0  0  0  0  0  0  0  0
  139.2014   70.2545  222.2142 H   0  0  0  0  0  0  0  0  0  0  0  0
  138.7921   68.6516  224.0540 H   0  0  0  0  0  0  0  0  0  0  0  0
  139.0854   68.0407  226.4220 H   0  0  0  0  0  0  0  0  0  0  0  0
  141.2444   70.6063  229.0863 H   0  0  0  0  0  0  0  0  0  0  0  0
  141.6010   72.1534  227.1854 H   0  0  0  0  0  0  0  0  0  0  0  0
  1  2  2  0
  2  3  1  0
  3  4  1  0
  4  5  1  0
  5  6  2  0
  5  7  1  0
  7  8  1  0
  8  9  1  0
  9 10  1  0
 10 11  1  0
 11 12  1  0
 12 13  1  0
 13 14  2  0
 14 15  1  0
 15 16  2  0
 16 17  1  0
 17 18  2  0
  2 19  1  0
 19 20  2  0
 20 21  1  0
 21 22  2  0
 22 23  1  0
 23 24  2  0
 24 25  1  0
 24 26  1  0
 26 27  2  0
 27 28  1  0
 28 29  2  0
 12  7  1  0
 18 13  1  0
 29 19  1  0
 28 22  1  0
  3 30  1  0
  4 31  1  0
  4 32  1  0
  8 33  1  0
  8 34  1  0
  9 35  1  0
  9 36  1  0
 10 37  1  0
 10 38  1  0
 11 39  1  0
 11 40  1  0
 12 41  1  6
 14 42  1  0
 15 43  1  0
 16 44  1  0
 18 45  1  0
 20 46  1  0
 21 47  1  0
 23 48  1  0
 26 49  1  0
 27 50  1  0
M  END
>  <smiles>  (71) 
O=C(NCC(=O)N1CCCCC1c1cccnc1)c1ccc2cc(F)ccc2n1

>  <score_type>  (71) 
oracle

>  <origin>  (71) 
autodockgpu

>  <m_score__min__energy>  (71) 
-8.6300000000000008

>  <m_primary>  (71) 
energy

>  <rmsd>  (71) 
2.114122857457164

>  <m_score__min__rmsd>  (71) 
2.114122857457164

>  <meeko>  (71) 
{"free_energy": -8.54, "intermolecular_energy": -10.03, "internal_energy": -1.08, "cluster_size": 19, "cluster_id": 1, "rank_in_cluster": 9}

>  <energy>  (71) 
-8.15

>  <cluster_rmsd>  (71) 
0.68

>  <cluster>  (71) 
2

$$$$

     RDKit          3D

 50 53  0  0  0  0  0  0  0  0999 V2000
  141.4500   72.6760  221.6450 O   0  0  0  0  0  0  0  0  0  0  0  0
  140.4760   72.6970  222.4560 C   0  0  0  0  0  0  0  0  0  0  0  0
  139.5510   73.8220  222.3190 N   0  0  0  0  0  0  0  0  0  0  0  0
  139.8570   74.7450  221.3020 C   0  0  0  0  0  0  0  0  0  0  0  0
  140.9130   75.7320  221.4710 C   0  0  0  0  0  0  0  0  0  0  0  0
  141.0650   76.1040  222.7210 O   0  0  0  0  0  0  0  0  0  0  0  0
  141.7800   76.3470  220.5750 N   0  0  0  0  0  0  0  0  0  0  0  0
  142.7610   75.6780  219.7160 C   0  0  0  0  0  0  0  0  0  0  0  0
  143.2990   76.6790  218.7010 C   0  0  0  0  0  0  0  0  0  0  0  0
  142.2680   77.5490  218.0790 C   0  0  0  0  0  0  0  0  0  0  0  0
  141.2200   78.0740  219.0810 C   0  0  0  0  0  0  0  0  0  0  0  0
  141.7960   77.8190  220.4160 C   0  0  1  0  0  0  0  0  0  0  0  0
  141.2820   78.5330  221.5610 C   0  0  0  0  0  0  0  0  0  0  0  0
  142.2010   79.0170  222.5050 C   0  0  0  0  0  0  0  0  0  0  0  0
  141.7090   79.6970  223.5950 C   0  0  0  0  0  0  0  0  0  0  0  0
  140.3430   79.8990  223.7590 C   0  0  0  0  0  0  0  0  0  0  0  0
  139.4760   79.4230  222.8370 N   0  0  0  0  0  0  0  0  0  0  0  0
  139.9130   78.7440  221.7420 C   0  0  0  0  0  0  0  0  0  0  0  0
  140.2550   71.6940  223.4670 C   0  0  0  0  0  0  0  0  0  0  0  0
  139.5730   70.5570  223.1250 C   0  0  0  0  0  0  0  0  0  0  0  0
  139.3680   69.6120  224.0930 C   0  0  0  0  0  0  0  0  0  0  0  0
  139.8310   69.7900  225.3690 C   0  0  0  0  0  0  0  0  0  0  0  0
  139.6610   68.8810  226.3920 C   0  0  0  0  0  0  0  0  0  0  0  0
  140.1260   69.0670  227.6570 C   0  0  0  0  0  0  0  0  0  0  0  0
  139.9490   68.1640  228.6460 F   0  0  0  0  0  0  0  0  0  0  0  0
  140.8150   70.2260  227.9800 C   0  0  0  0  0  0  0  0  0  0  0  0
  140.9880   71.1390  226.9650 C   0  0  0  0  0  0  0  0  0  0  0  0
  140.5170   70.9500  225.6820 C   0  0  0  0  0  0  0  0  0  0  0  0
  140.7110   71.8700  224.7190 N   0  0  0  0  0  0  0  0  0  0  0  0
  138.7740   73.7880  222.9920 H   0  0  0  0  0  0  0  0  0  0  0  0
  140.1230   74.1531  220.4138 H   0  0  0  0  0  0  0  0  0  0  0  0
  138.9512   75.3680  221.2640 H   0  0  0  0  0  0  0  0  0  0  0  0
  143.5891   75.2956  220.3309 H   0  0  0  0  0  0  0  0  0  0  0  0
  142.2824   74.8383  219.1908 H   0  0  0  0  0  0  0  0  0  0  0  0
  144.0295   77.3244  219.2107 H   0  0  0  0  0  0  0  0  0  0  0  0
  143.7388   76.0871  217.8848 H   0  0  0  0  0  0  0  0  0  0  0  0
  142.7720   78.4115  217.6185 H   0  0  0  0  0  0  0  0  0  0  0  0
  141.7307   76.9363  217.3402 H   0  0  0  0  0  0  0  0  0  0  0  0
  141.0513   79.1509  218.9334 H   0  0  0  0  0  0  0  0  0  0  0  0
  140.2461   77.5790  218.9530 H   0  0  0  0  0  0  0  0  0  0  0  0
  142.8058   78.2551  220.4214 H   0  0  0  0  0  0  0  0  0  0  0  0
  143.2818   78.8574  222.3772 H   0  0  0  0  0  0  0  0  0  0  0  0
  142.4078   80.0875  224.3494 H   0  0  0  0  0  0  0  0  0  0  0  0
  139.9684   80.4451  224.6373 H   0  0  0  0  0  0  0  0  0  0  0  0
  139.1923   78.3633  221.0033 H   0  0  0  0  0  0  0  0  0  0  0  0
  139.2004   70.4075  222.1009 H   0  0  0  0  0  0  0  0  0  0  0  0
  138.8207   68.6916  223.8412 H   0  0  0  0  0  0  0  0  0  0  0  0
  139.1172   67.9504  226.1722 H   0  0  0  0  0  0  0  0  0  0  0  0
  141.2027   70.4061  228.9935 H   0  0  0  0  0  0  0  0  0  0  0  0
  141.5309   72.0693  227.1885 H   0  0  0  0  0  0  0  0  0  0  0  0
  1  2  2  0
  2  3  1  0
  3  4  1  0
  4  5  1  0
  5  6  2  0
  5  7  1  0
  7  8  1  0
  8  9  1  0
  9 10  1  0
 10 11  1  0
 11 12  1  0
 12 13  1  0
 13 14  2  0
 14 15  1  0
 15 16  2  0
 16 17  1  0
 17 18  2  0
  2 19  1  0
 19 20  2  0
 20 21  1  0
 21 22  2  0
 22 23  1  0
 23 24  2  0
 24 25  1  0
 24 26  1  0
 26 27  2  0
 27 28  1  0
 28 29  2  0
 12  7  1  0
 18 13  1  0
 29 19  1  0
 28 22  1  0
  3 30  1  0
  4 31  1  0
  4 32  1  0
  8 33  1  0
  8 34  1  0
  9 35  1  0
  9 36  1  0
 10 37  1  0
 10 38  1  0
 11 39  1  0
 11 40  1  0
 12 41  1  6
 14 42  1  0
 15 43  1  0
 16 44  1  0
 18 45  1  0
 20 46  1  0
 21 47  1  0
 23 48  1  0
 26 49  1  0
 27 50  1  0
M  END
>  <smiles>  (72) 
O=C(NCC(=O)N1CCCCC1c1cccnc1)c1ccc2cc(F)ccc2n1

>  <score_type>  (72) 
oracle

>  <origin>  (72) 
autodockgpu

>  <m_score__min__energy>  (72) 
-8.6300000000000008

>  <m_primary>  (72) 
energy

>  <rmsd>  (72) 
2.1124841608185028

>  <m_score__min__rmsd>  (72) 
2.1124841608185028

>  <meeko>  (72) 
{"free_energy": -8.56, "intermolecular_energy": -10.05, "internal_energy": -1.18, "cluster_size": 19, "cluster_id": 1, "rank_in_cluster": 7}

>  <energy>  (72) 
-7.99

>  <cluster_rmsd>  (72) 
0.9

>  <cluster>  (72) 
2

$$$$

     RDKit          3D

 50 53  0  0  0  0  0  0  0  0999 V2000
  140.0600   71.4340  221.0190 O   0  0  0  0  0  0  0  0  0  0  0  0
  139.9020   71.8870  222.1920 C   0  0  0  0  0  0  0  0  0  0  0  0
  139.7120   73.3340  222.3000 N   0  0  0  0  0  0  0  0  0  0  0  0
  139.7290   74.0460  221.0860 C   0  0  0  0  0  0  0  0  0  0  0  0
  140.6650   75.1380  220.8650 C   0  0  0  0  0  0  0  0  0  0  0  0
  141.1440   75.6310  221.9840 O   0  0  0  0  0  0  0  0  0  0  0  0
  141.1430   75.7500  219.7120 N   0  0  0  0  0  0  0  0  0  0  0  0
  140.3990   76.6600  218.8370 C   0  0  0  0  0  0  0  0  0  0  0  0
  141.3670   77.3120  217.8570 C   0  0  0  0  0  0  0  0  0  0  0  0
  142.6450   77.7720  218.4580 C   0  0  0  0  0  0  0  0  0  0  0  0
  143.2470   76.7700  219.4640 C   0  0  0  0  0  0  0  0  0  0  0  0
  142.5230   75.5050  219.2340 C   0  0  1  0  0  0  0  0  0  0  0  0
  143.0900   74.2630  219.7060 C   0  0  0  0  0  0  0  0  0  0  0  0
  142.4360   73.0680  219.3720 C   0  0  0  0  0  0  0  0  0  0  0  0
  142.9780   71.8870  219.8250 C   0  0  0  0  0  0  0  0  0  0  0  0
  144.1400   71.8760  220.5890 C   0  0  0  0  0  0  0  0  0  0  0  0
  144.7530   73.0400  220.8990 N   0  0  0  0  0  0  0  0  0  0  0  0
  144.2560   74.2350  220.4760 C   0  0  0  0  0  0  0  0  0  0  0  0
  139.9010   71.0650  223.3750 C   0  0  0  0  0  0  0  0  0  0  0  0
  139.3980   69.7940  223.2900 C   0  0  0  0  0  0  0  0  0  0  0  0
  139.4020   69.0220  224.4210 C   0  0  0  0  0  0  0  0  0  0  0  0
  139.8950   69.4990  225.6040 C   0  0  0  0  0  0  0  0  0  0  0  0
  139.9320   68.7780  226.7790 C   0  0  0  0  0  0  0  0  0  0  0  0
  140.4240   69.2600  227.9520 C   0  0  0  0  0  0  0  0  0  0  0  0
  140.4500   68.5380  229.0920 F   0  0  0  0  0  0  0  0  0  0  0  0
  140.9290   70.5500  228.0130 C   0  0  0  0  0  0  0  0  0  0  0  0
  140.8970   71.2780  226.8450 C   0  0  0  0  0  0  0  0  0  0  0  0
  140.3970   70.7880  225.6560 C   0  0  0  0  0  0  0  0  0  0  0  0
  140.3860   71.5350  224.5370 N   0  0  0  0  0  0  0  0  0  0  0  0
  139.5780   73.6510  223.2690 H   0  0  0  0  0  0  0  0  0  0  0  0
  139.9197   73.3069  220.2939 H   0  0  0  0  0  0  0  0  0  0  0  0
  138.7576   74.5619  221.0974 H   0  0  0  0  0  0  0  0  0  0  0  0
  139.6365   76.0950  218.2808 H   0  0  0  0  0  0  0  0  0  0  0  0
  139.9058   77.4352  219.4419 H   0  0  0  0  0  0  0  0  0  0  0  0
  141.6025   76.5801  217.0703 H   0  0  0  0  0  0  0  0  0  0  0  0
  140.8624   78.2118  217.4751 H   0  0  0  0  0  0  0  0  0  0  0  0
  143.3725   77.9326  217.6487 H   0  0  0  0  0  0  0  0  0  0  0  0
  142.4276   78.6966  219.0127 H   0  0  0  0  0  0  0  0  0  0  0  0
  144.3231   76.6373  219.2786 H   0  0  0  0  0  0  0  0  0  0  0  0
  143.1436   77.1188  220.5021 H   0  0  0  0  0  0  0  0  0  0  0  0
  142.5881   75.2872  218.1577 H   0  0  0  0  0  0  0  0  0  0  0  0
  141.5178   73.0746  218.7664 H   0  0  0  0  0  0  0  0  0  0  0  0
  142.4838   70.9356  219.5786 H   0  0  0  0  0  0  0  0  0  0  0  0
  144.5594   70.9217  220.9404 H   0  0  0  0  0  0  0  0  0  0  0  0
  144.7688   75.1721  220.7386 H   0  0  0  0  0  0  0  0  0  0  0  0
  139.0022   69.4045  222.3405 H   0  0  0  0  0  0  0  0  0  0  0  0
  139.0010   67.9986  224.3771 H   0  0  0  0  0  0  0  0  0  0  0  0
  139.5397   67.7504  226.7669 H   0  0  0  0  0  0  0  0  0  0  0  0
  141.3339   70.9696  228.9457 H   0  0  0  0  0  0  0  0  0  0  0  0
  141.2910   72.3049  226.8605 H   0  0  0  0  0  0  0  0  0  0  0  0
  1  2  2  0
  2  3  1  0
  3  4  1  0
  4  5  1  0
  5  6  2  0
  5  7  1  0
  7  8  1  0
  8  9  1  0
  9 10  1  0
 10 11  1  0
 11 12  1  0
 12 13  1  0
 13 14  2  0
 14 15  1  0
 15 16  2  0
 16 17  1  0
 17 18  2  0
  2 19  1  0
 19 20  2  0
 20 21  1  0
 21 22  2  0
 22 23  1  0
 23 24  2  0
 24 25  1  0
 24 26  1  0
 26 27  2  0
 27 28  1  0
 28 29  2  0
 12  7  1  0
 18 13  1  0
 29 19  1  0
 28 22  1  0
  3 30  1  0
  4 31  1  0
  4 32  1  0
  8 33  1  0
  8 34  1  0
  9 35  1  0
  9 36  1  0
 10 37  1  0
 10 38  1  0
 11 39  1  0
 11 40  1  0
 12 41  1  6
 14 42  1  0
 15 43  1  0
 16 44  1  0
 18 45  1  0
 20 46  1  0
 21 47  1  0
 23 48  1  0
 26 49  1  0
 27 50  1  0
M  END
>  <smiles>  (73) 
O=C(NCC(=O)N1CCCCC1c1cccnc1)c1ccc2cc(F)ccc2n1

>  <score_type>  (73) 
oracle

>  <origin>  (73) 
autodockgpu

>  <m_score__min__energy>  (73) 
-8.6300000000000008

>  <m_primary>  (73) 
energy

>  <rmsd>  (73) 
1.7858011738337856

>  <m_score__min__rmsd>  (73) 
1.7858011738337856

>  <meeko>  (73) 
{"free_energy": -7.48, "intermolecular_energy": -8.97, "internal_energy": -1.83, "cluster_size": 16, "cluster_id": 2, "rank_in_cluster": 15}

>  <energy>  (73) 
-7.83

>  <cluster_rmsd>  (73) 
0.96

>  <cluster>  (73) 
2

$$$$

     RDKit          3D

 50 53  0  0  0  0  0  0  0  0999 V2000
  139.1740   74.8470  221.4120 O   0  0  0  0  0  0  0  0  0  0  0  0
  140.4140   75.0550  221.5720 C   0  0  0  0  0  0  0  0  0  0  0  0
  140.7750   76.3310  222.1900 N   0  0  0  0  0  0  0  0  0  0  0  0
  139.7000   77.1720  222.5310 C   0  0  0  0  0  0  0  0  0  0  0  0
  139.7150   78.5890  222.1960 C   0  0  0  0  0  0  0  0  0  0  0  0
  138.6990   78.9440  221.4430 O   0  0  0  0  0  0  0  0  0  0  0  0
  140.5860   79.6230  222.5170 N   0  0  0  0  0  0  0  0  0  0  0  0
  140.3880   80.6360  223.5580 C   0  0  0  0  0  0  0  0  0  0  0  0
  141.6900   81.4000  223.7630 C   0  0  0  0  0  0  0  0  0  0  0  0
  142.9100   80.5530  223.8030 C   0  0  0  0  0  0  0  0  0  0  0  0
  142.9210   79.4410  222.7350 C   0  0  0  0  0  0  0  0  0  0  0  0
  141.8570   79.8080  221.7800 C   0  0  1  0  0  0  0  0  0  0  0  0
  141.8520   79.2230  220.4590 C   0  0  0  0  0  0  0  0  0  0  0  0
  141.4780   80.0350  219.3780 C   0  0  0  0  0  0  0  0  0  0  0  0
  141.4750   79.4750  218.1210 C   0  0  0  0  0  0  0  0  0  0  0  0
  141.8310   78.1450  217.9260 C   0  0  0  0  0  0  0  0  0  0  0  0
  142.1870   77.3810  218.9830 N   0  0  0  0  0  0  0  0  0  0  0  0
  142.2060   77.8880  220.2460 C   0  0  0  0  0  0  0  0  0  0  0  0
  141.4390   74.1200  221.1850 C   0  0  0  0  0  0  0  0  0  0  0  0
  141.0940   72.8090  220.9950 C   0  0  0  0  0  0  0  0  0  0  0  0
  142.0760   71.9290  220.6280 C   0  0  0  0  0  0  0  0  0  0  0  0
  143.3690   72.3420  220.4530 C   0  0  0  0  0  0  0  0  0  0  0  0
  144.4070   71.5120  220.0830 C   0  0  0  0  0  0  0  0  0  0  0  0
  145.6900   71.9320  219.9100 C   0  0  0  0  0  0  0  0  0  0  0  0
  146.6920   71.1030  219.5480 F   0  0  0  0  0  0  0  0  0  0  0  0
  146.0160   73.2650  220.1080 C   0  0  0  0  0  0  0  0  0  0  0  0
  144.9860   74.1000  220.4770 C   0  0  0  0  0  0  0  0  0  0  0  0
  143.6850   73.6740  220.6520 C   0  0  0  0  0  0  0  0  0  0  0  0
  142.7090   74.5270  221.0130 N   0  0  0  0  0  0  0  0  0  0  0  0
  141.7900   76.4480  222.3080 H   0  0  0  0  0  0  0  0  0  0  0  0
  138.8069   76.7472  222.0494 H   0  0  0  0  0  0  0  0  0  0  0  0
  139.7452   77.1851  223.6300 H   0  0  0  0  0  0  0  0  0  0  0  0
  139.5963   81.3337  223.2474 H   0  0  0  0  0  0  0  0  0  0  0  0
  140.0920   80.1484  224.4985 H   0  0  0  0  0  0  0  0  0  0  0  0
  141.7990   82.1182  222.9370 H   0  0  0  0  0  0  0  0  0  0  0  0
  141.6146   81.8810  224.7494 H   0  0  0  0  0  0  0  0  0  0  0  0
  143.7870   81.1976  223.6437 H   0  0  0  0  0  0  0  0  0  0  0  0
  142.9291   80.0587  224.7855 H   0  0  0  0  0  0  0  0  0  0  0  0
  143.8968   79.4026  222.2287 H   0  0  0  0  0  0  0  0  0  0  0  0
  142.7519   78.4474  223.1756 H   0  0  0  0  0  0  0  0  0  0  0  0
  142.0451   80.8473  221.4725 H   0  0  0  0  0  0  0  0  0  0  0  0
  141.1957   81.0872  219.5305 H   0  0  0  0  0  0  0  0  0  0  0  0
  141.1861   80.0898  217.2558 H   0  0  0  0  0  0  0  0  0  0  0  0
  141.8229   77.7153  216.9134 H   0  0  0  0  0  0  0  0  0  0  0  0
  142.4982   77.2509  221.0938 H   0  0  0  0  0  0  0  0  0  0  0  0
  140.0561   72.4720  221.1334 H   0  0  0  0  0  0  0  0  0  0  0  0
  141.8213   70.8705  220.4709 H   0  0  0  0  0  0  0  0  0  0  0  0
  144.1845   70.4475  219.9180 H   0  0  0  0  0  0  0  0  0  0  0  0
  147.0434   73.6356  219.9771 H   0  0  0  0  0  0  0  0  0  0  0  0
  145.2118   75.1640  220.6413 H   0  0  0  0  0  0  0  0  0  0  0  0
  1  2  2  0
  2  3  1  0
  3  4  1  0
  4  5  1  0
  5  6  2  0
  5  7  1  0
  7  8  1  0
  8  9  1  0
  9 10  1  0
 10 11  1  0
 11 12  1  0
 12 13  1  0
 13 14  2  0
 14 15  1  0
 15 16  2  0
 16 17  1  0
 17 18  2  0
  2 19  1  0
 19 20  2  0
 20 21  1  0
 21 22  2  0
 22 23  1  0
 23 24  2  0
 24 25  1  0
 24 26  1  0
 26 27  2  0
 27 28  1  0
 28 29  2  0
 12  7  1  0
 18 13  1  0
 29 19  1  0
 28 22  1  0
  3 30  1  0
  4 31  1  0
  4 32  1  0
  8 33  1  0
  8 34  1  0
  9 35  1  0
  9 36  1  0
 10 37  1  0
 10 38  1  0
 11 39  1  0
 11 40  1  0
 12 41  1  6
 14 42  1  0
 15 43  1  0
 16 44  1  0
 18 45  1  0
 20 46  1  0
 21 47  1  0
 23 48  1  0
 26 49  1  0
 27 50  1  0
M  END
>  <smiles>  (74) 
O=C(NCC(=O)N1CCCCC1c1cccnc1)c1ccc2cc(F)ccc2n1

>  <score_type>  (74) 
oracle

>  <origin>  (74) 
autodockgpu

>  <m_score__min__energy>  (74) 
-8.6300000000000008

>  <m_primary>  (74) 
energy

>  <rmsd>  (74) 
6.704043970814879

>  <m_score__min__rmsd>  (74) 
6.704043970814879

>  <meeko>  (74) 
{"free_energy": -7.1, "intermolecular_energy": -8.59, "internal_energy": -2.01, "cluster_size": 8, "cluster_id": 3, "rank_in_cluster": 3}

>  <energy>  (74) 
-7.8

>  <cluster_rmsd>  (74) 
1.41

>  <cluster>  (74) 
2

$$$$

     RDKit          3D

 50 53  0  0  0  0  0  0  0  0999 V2000
  141.4840   72.6610  221.6580 O   0  0  0  0  0  0  0  0  0  0  0  0
  140.5150   72.7150  222.4740 C   0  0  0  0  0  0  0  0  0  0  0  0
  139.6120   73.8570  222.3220 N   0  0  0  0  0  0  0  0  0  0  0  0
  139.9320   74.7560  221.2870 C   0  0  0  0  0  0  0  0  0  0  0  0
  140.9570   75.7750  221.4620 C   0  0  0  0  0  0  0  0  0  0  0  0
  141.0870   76.1550  222.7120 O   0  0  0  0  0  0  0  0  0  0  0  0
  141.8130   76.4120  220.5710 N   0  0  0  0  0  0  0  0  0  0  0  0
  142.7900   75.7660  219.6910 C   0  0  0  0  0  0  0  0  0  0  0  0
  143.3140   76.7910  218.6920 C   0  0  0  0  0  0  0  0  0  0  0  0
  142.2740   77.6680  218.0960 C   0  0  0  0  0  0  0  0  0  0  0  0
  141.2320   78.1660  219.1170 C   0  0  0  0  0  0  0  0  0  0  0  0
  141.8200   77.8870  220.4420 C   0  0  1  0  0  0  0  0  0  0  0  0
  141.3130   78.5750  221.6060 C   0  0  0  0  0  0  0  0  0  0  0  0
  139.9260   78.7640  221.7120 C   0  0  0  0  0  0  0  0  0  0  0  0
  139.4470   79.4200  222.8220 C   0  0  0  0  0  0  0  0  0  0  0  0
  140.3080   79.8810  223.8120 C   0  0  0  0  0  0  0  0  0  0  0  0
  141.6410   79.6870  223.6900 N   0  0  0  0  0  0  0  0  0  0  0  0
  142.1640   79.0450  222.6100 C   0  0  0  0  0  0  0  0  0  0  0  0
  140.2780   71.7350  223.5020 C   0  0  0  0  0  0  0  0  0  0  0  0
  139.5350   70.6270  223.1940 C   0  0  0  0  0  0  0  0  0  0  0  0
  139.3160   69.7030  224.1800 C   0  0  0  0  0  0  0  0  0  0  0  0
  139.8240   69.8740  225.4390 C   0  0  0  0  0  0  0  0  0  0  0  0
  139.6440   68.9840  226.4770 C   0  0  0  0  0  0  0  0  0  0  0  0
  140.1530   69.1620  227.7260 C   0  0  0  0  0  0  0  0  0  0  0  0
  139.9650   68.2790  228.7300 F   0  0  0  0  0  0  0  0  0  0  0  0
  140.9040   70.2920  228.0150 C   0  0  0  0  0  0  0  0  0  0  0  0
  141.0880   71.1850  226.9840 C   0  0  0  0  0  0  0  0  0  0  0  0
  140.5720   71.0040  225.7170 C   0  0  0  0  0  0  0  0  0  0  0  0
  140.7780   71.9040  224.7390 N   0  0  0  0  0  0  0  0  0  0  0  0
  138.8380   73.8510  222.9980 H   0  0  0  0  0  0  0  0  0  0  0  0
  140.2446   74.1439  220.4282 H   0  0  0  0  0  0  0  0  0  0  0  0
  139.0131   75.3539  221.1968 H   0  0  0  0  0  0  0  0  0  0  0  0
  143.6252   75.3758  220.2911 H   0  0  0  0  0  0  0  0  0  0  0  0
  142.3118   74.9342  219.1529 H   0  0  0  0  0  0  0  0  0  0  0  0
  144.0452   77.4299  219.2089 H   0  0  0  0  0  0  0  0  0  0  0  0
  143.7497   76.2180  217.8602 H   0  0  0  0  0  0  0  0  0  0  0  0
  142.7699   78.5425  217.6495 H   0  0  0  0  0  0  0  0  0  0  0  0
  141.7341   77.0683  217.3484 H   0  0  0  0  0  0  0  0  0  0  0  0
  141.0562   79.2448  218.9930 H   0  0  0  0  0  0  0  0  0  0  0  0
  140.2599   77.6679  218.9868 H   0  0  0  0  0  0  0  0  0  0  0  0
  142.8274   78.3288  220.4478 H   0  0  0  0  0  0  0  0  0  0  0  0
  139.2430   78.3986  220.9310 H   0  0  0  0  0  0  0  0  0  0  0  0
  138.3643   79.5828  222.9285 H   0  0  0  0  0  0  0  0  0  0  0  0
  139.9056   80.4026  224.6929 H   0  0  0  0  0  0  0  0  0  0  0  0
  143.2509   78.8968  222.5277 H   0  0  0  0  0  0  0  0  0  0  0  0
  139.1257   70.4834  222.1831 H   0  0  0  0  0  0  0  0  0  0  0  0
  138.7202   68.8059  223.9559 H   0  0  0  0  0  0  0  0  0  0  0  0
  139.0537   68.0762  226.2835 H   0  0  0  0  0  0  0  0  0  0  0  0
  141.3296   70.4650  229.0145 H   0  0  0  0  0  0  0  0  0  0  0  0
  141.6783   72.0921  227.1806 H   0  0  0  0  0  0  0  0  0  0  0  0
  1  2  2  0
  2  3  1  0
  3  4  1  0
  4  5  1  0
  5  6  2  0
  5  7  1  0
  7  8  1  0
  8  9  1  0
  9 10  1  0
 10 11  1  0
 11 12  1  0
 12 13  1  0
 13 14  2  0
 14 15  1  0
 15 16  2  0
 16 17  1  0
 17 18  2  0
  2 19  1  0
 19 20  2  0
 20 21  1  0
 21 22  2  0
 22 23  1  0
 23 24  2  0
 24 25  1  0
 24 26  1  0
 26 27  2  0
 27 28  1  0
 28 29  2  0
 12  7  1  0
 18 13  1  0
 29 19  1  0
 28 22  1  0
  3 30  1  0
  4 31  1  0
  4 32  1  0
  8 33  1  0
  8 34  1  0
  9 35  1  0
  9 36  1  0
 10 37  1  0
 10 38  1  0
 11 39  1  0
 11 40  1  0
 12 41  1  6
 14 42  1  0
 15 43  1  0
 16 44  1  0
 18 45  1  0
 20 46  1  0
 21 47  1  0
 23 48  1  0
 26 49  1  0
 27 50  1  0
M  END
>  <smiles>  (75) 
O=C(NCC(=O)N1CCCCC1c1cccnc1)c1ccc2cc(F)ccc2n1

>  <score_type>  (75) 
oracle

>  <origin>  (75) 
autodockgpu

>  <m_score__min__energy>  (75) 
-8.6300000000000008

>  <m_primary>  (75) 
energy

>  <rmsd>  (75) 
2.155727194393558

>  <m_score__min__rmsd>  (75) 
2.155727194393558

>  <meeko>  (75) 
{"free_energy": -8.43, "intermolecular_energy": -9.92, "internal_energy": -1.15, "cluster_size": 19, "cluster_id": 1, "rank_in_cluster": 17}

>  <energy>  (75) 
-7.77

>  <cluster_rmsd>  (75) 
1.4

>  <cluster>  (75) 
2

$$$$

     RDKit          3D

 50 53  0  0  0  0  0  0  0  0999 V2000
  141.4300   72.5630  221.5950 O   0  0  0  0  0  0  0  0  0  0  0  0
  140.5040   72.6540  222.4570 C   0  0  0  0  0  0  0  0  0  0  0  0
  139.6440   73.8340  222.3510 N   0  0  0  0  0  0  0  0  0  0  0  0
  139.9510   74.7230  221.3050 C   0  0  0  0  0  0  0  0  0  0  0  0
  140.9530   75.7660  221.4710 C   0  0  0  0  0  0  0  0  0  0  0  0
  141.0540   76.1810  222.7130 O   0  0  0  0  0  0  0  0  0  0  0  0
  141.8120   76.3970  220.5780 N   0  0  0  0  0  0  0  0  0  0  0  0
  142.7870   75.7440  219.7010 C   0  0  0  0  0  0  0  0  0  0  0  0
  143.3150   76.7630  218.6980 C   0  0  0  0  0  0  0  0  0  0  0  0
  142.2790   77.6420  218.0990 C   0  0  0  0  0  0  0  0  0  0  0  0
  141.2380   78.1480  219.1170 C   0  0  0  0  0  0  0  0  0  0  0  0
  141.8240   77.8710  220.4430 C   0  0  1  0  0  0  0  0  0  0  0  0
  141.3180   78.5650  221.6050 C   0  0  0  0  0  0  0  0  0  0  0  0
  139.9350   78.7810  221.6960 C   0  0  0  0  0  0  0  0  0  0  0  0
  139.4570   79.4430  222.8040 C   0  0  0  0  0  0  0  0  0  0  0  0
  140.3170   79.8840  223.8040 C   0  0  0  0  0  0  0  0  0  0  0  0
  141.6460   79.6640  223.6950 N   0  0  0  0  0  0  0  0  0  0  0  0
  142.1680   79.0160  222.6180 C   0  0  0  0  0  0  0  0  0  0  0  0
  140.2760   71.6800  223.4930 C   0  0  0  0  0  0  0  0  0  0  0  0
  139.5840   70.5400  223.1820 C   0  0  0  0  0  0  0  0  0  0  0  0
  139.3730   69.6220  224.1740 C   0  0  0  0  0  0  0  0  0  0  0  0
  139.8390   69.8300  225.4440 C   0  0  0  0  0  0  0  0  0  0  0  0
  139.6640   68.9480  226.4900 C   0  0  0  0  0  0  0  0  0  0  0  0
  140.1310   69.1630  227.7500 C   0  0  0  0  0  0  0  0  0  0  0  0
  139.9490   68.2870  228.7610 F   0  0  0  0  0  0  0  0  0  0  0  0
  140.8310   70.3240  228.0420 C   0  0  0  0  0  0  0  0  0  0  0  0
  141.0090   71.2090  227.0030 C   0  0  0  0  0  0  0  0  0  0  0  0
  140.5360   70.9910  225.7260 C   0  0  0  0  0  0  0  0  0  0  0  0
  140.7350   71.8850  224.7400 N   0  0  0  0  0  0  0  0  0  0  0  0
  138.9040   73.8560  223.0640 H   0  0  0  0  0  0  0  0  0  0  0  0
  140.2821   74.1048  220.4575 H   0  0  0  0  0  0  0  0  0  0  0  0
  139.0202   75.2996  221.1997 H   0  0  0  0  0  0  0  0  0  0  0  0
  143.6206   75.3534  220.3030 H   0  0  0  0  0  0  0  0  0  0  0  0
  142.3060   74.9118  219.1662 H   0  0  0  0  0  0  0  0  0  0  0  0
  144.0490   77.4007  219.2123 H   0  0  0  0  0  0  0  0  0  0  0  0
  143.7479   76.1850  217.8683 H   0  0  0  0  0  0  0  0  0  0  0  0
  142.7787   78.5130  217.6500 H   0  0  0  0  0  0  0  0  0  0  0  0
  141.7370   77.0415  217.3535 H   0  0  0  0  0  0  0  0  0  0  0  0
  141.0668   79.2270  218.9891 H   0  0  0  0  0  0  0  0  0  0  0  0
  140.2638   77.6539  218.9876 H   0  0  0  0  0  0  0  0  0  0  0  0
  142.8331   78.3090  220.4470 H   0  0  0  0  0  0  0  0  0  0  0  0
  139.2535   78.4321  220.9062 H   0  0  0  0  0  0  0  0  0  0  0  0
  138.3767   79.6263  222.9002 H   0  0  0  0  0  0  0  0  0  0  0  0
  139.9161   80.4111  224.6823 H   0  0  0  0  0  0  0  0  0  0  0  0
  143.2527   78.8483  222.5455 H   0  0  0  0  0  0  0  0  0  0  0  0
  139.2082   70.3672  222.1627 H   0  0  0  0  0  0  0  0  0  0  0  0
  138.8185   68.6995  223.9468 H   0  0  0  0  0  0  0  0  0  0  0  0
  139.1144   68.0155  226.2940 H   0  0  0  0  0  0  0  0  0  0  0  0
  141.2228   70.5267  229.0497 H   0  0  0  0  0  0  0  0  0  0  0  0
  141.5585   72.1409  227.2020 H   0  0  0  0  0  0  0  0  0  0  0  0
  1  2  2  0
  2  3  1  0
  3  4  1  0
  4  5  1  0
  5  6  2  0
  5  7  1  0
  7  8  1  0
  8  9  1  0
  9 10  1  0
 10 11  1  0
 11 12  1  0
 12 13  1  0
 13 14  2  0
 14 15  1  0
 15 16  2  0
 16 17  1  0
 17 18  2  0
  2 19  1  0
 19 20  2  0
 20 21  1  0
 21 22  2  0
 22 23  1  0
 23 24  2  0
 24 25  1  0
 24 26  1  0
 26 27  2  0
 27 28  1  0
 28 29  2  0
 12  7  1  0
 18 13  1  0
 29 19  1  0
 28 22  1  0
  3 30  1  0
  4 31  1  0
  4 32  1  0
  8 33  1  0
  8 34  1  0
  9 35  1  0
  9 36  1  0
 10 37  1  0
 10 38  1  0
 11 39  1  0
 11 40  1  0
 12 41  1  6
 14 42  1  0
 15 43  1  0
 16 44  1  0
 18 45  1  0
 20 46  1  0
 21 47  1  0
 23 48  1  0
 26 49  1  0
 27 50  1  0
M  END
>  <smiles>  (76) 
O=C(NCC(=O)N1CCCCC1c1cccnc1)c1ccc2cc(F)ccc2n1

>  <score_type>  (76) 
oracle

>  <origin>  (76) 
autodockgpu

>  <m_score__min__energy>  (76) 
-8.6300000000000008

>  <m_primary>  (76) 
energy

>  <rmsd>  (76) 
2.13739036730208

>  <m_score__min__rmsd>  (76) 
2.13739036730208

>  <meeko>  (76) 
{"free_energy": -8.5, "intermolecular_energy": -9.99, "internal_energy": -1.11, "cluster_size": 19, "cluster_id": 1, "rank_in_cluster": 13}

>  <energy>  (76) 
-7.72

>  <cluster_rmsd>  (76) 
1.42

>  <cluster>  (76) 
2

$$$$

     RDKit          3D

 50 53  0  0  0  0  0  0  0  0999 V2000
  140.5270   71.6810  221.1110 O   0  0  0  0  0  0  0  0  0  0  0  0
  140.0910   72.0530  222.2420 C   0  0  0  0  0  0  0  0  0  0  0  0
  139.5900   73.4260  222.3160 N   0  0  0  0  0  0  0  0  0  0  0  0
  139.6530   74.1650  221.1200 C   0  0  0  0  0  0  0  0  0  0  0  0
  140.7480   75.0890  220.8610 C   0  0  0  0  0  0  0  0  0  0  0  0
  141.4450   75.3650  221.9390 O   0  0  0  0  0  0  0  0  0  0  0  0
  141.1900   75.7250  219.7070 N   0  0  0  0  0  0  0  0  0  0  0  0
  140.4070   76.6210  218.8530 C   0  0  0  0  0  0  0  0  0  0  0  0
  141.3410   77.3100  217.8650 C   0  0  0  0  0  0  0  0  0  0  0  0
  142.6140   77.8010  218.4500 C   0  0  0  0  0  0  0  0  0  0  0  0
  143.2610   76.8070  219.4370 C   0  0  0  0  0  0  0  0  0  0  0  0
  142.5690   75.5240  219.2060 C   0  0  1  0  0  0  0  0  0  0  0  0
  143.1780   74.2950  219.6570 C   0  0  0  0  0  0  0  0  0  0  0  0
  144.3270   74.3810  220.4590 C   0  0  0  0  0  0  0  0  0  0  0  0
  144.9040   73.2080  220.8870 C   0  0  0  0  0  0  0  0  0  0  0  0
  144.3680   71.9730  220.5380 C   0  0  0  0  0  0  0  0  0  0  0  0
  143.2600   71.9140  219.7650 N   0  0  0  0  0  0  0  0  0  0  0  0
  142.6520   73.0460  219.3150 C   0  0  0  0  0  0  0  0  0  0  0  0
  140.0720   71.2100  223.4100 C   0  0  0  0  0  0  0  0  0  0  0  0
  139.5530   69.9480  223.2990 C   0  0  0  0  0  0  0  0  0  0  0  0
  139.5390   69.1550  224.4150 C   0  0  0  0  0  0  0  0  0  0  0  0
  140.0300   69.6050  225.6110 C   0  0  0  0  0  0  0  0  0  0  0  0
  140.0490   68.8620  226.7720 C   0  0  0  0  0  0  0  0  0  0  0  0
  140.5400   69.3170  227.9570 C   0  0  0  0  0  0  0  0  0  0  0  0
  140.5490   68.5740  229.0840 F   0  0  0  0  0  0  0  0  0  0  0  0
  141.0620   70.5990  228.0450 C   0  0  0  0  0  0  0  0  0  0  0  0
  141.0460   71.3470  226.8900 C   0  0  0  0  0  0  0  0  0  0  0  0
  140.5490   70.8850  225.6890 C   0  0  0  0  0  0  0  0  0  0  0  0
  140.5550   71.6520  224.5840 N   0  0  0  0  0  0  0  0  0  0  0  0
  139.2390   73.6760  223.2490 H   0  0  0  0  0  0  0  0  0  0  0  0
  139.6637   73.4314  220.3004 H   0  0  0  0  0  0  0  0  0  0  0  0
  138.7874   74.8380  221.2082 H   0  0  0  0  0  0  0  0  0  0  0  0
  139.6526   76.0395  218.3027 H   0  0  0  0  0  0  0  0  0  0  0  0
  139.9009   77.3757  219.4729 H   0  0  0  0  0  0  0  0  0  0  0  0
  141.5851   76.5926  217.0677 H   0  0  0  0  0  0  0  0  0  0  0  0
  140.8049   78.1986  217.5004 H   0  0  0  0  0  0  0  0  0  0  0  0
  143.3235   77.9902  217.6310 H   0  0  0  0  0  0  0  0  0  0  0  0
  142.3789   78.7137  219.0172 H   0  0  0  0  0  0  0  0  0  0  0  0
  144.3373   76.7066  219.2330 H   0  0  0  0  0  0  0  0  0  0  0  0
  143.1651   77.1431  220.4800 H   0  0  0  0  0  0  0  0  0  0  0  0
  142.6232   75.3183  218.1268 H   0  0  0  0  0  0  0  0  0  0  0  0
  144.7528   75.3565  220.7366 H   0  0  0  0  0  0  0  0  0  0  0  0
  145.8053   73.2474  221.5164 H   0  0  0  0  0  0  0  0  0  0  0  0
  144.8444   71.0461  220.8900 H   0  0  0  0  0  0  0  0  0  0  0  0
  141.7521   72.9780  218.6860 H   0  0  0  0  0  0  0  0  0  0  0  0
  139.1582   69.5814  222.3400 H   0  0  0  0  0  0  0  0  0  0  0  0
  139.1257   68.1377  224.3494 H   0  0  0  0  0  0  0  0  0  0  0  0
  139.6430   67.8402  226.7387 H   0  0  0  0  0  0  0  0  0  0  0  0
  141.4670   70.9965  228.9873 H   0  0  0  0  0  0  0  0  0  0  0  0
  141.4516   72.3688  226.9265 H   0  0  0  0  0  0  0  0  0  0  0  0
  1  2  2  0
  2  3  1  0
  3  4  1  0
  4  5  1  0
  5  6  2  0
  5  7  1  0
  7  8  1  0
  8  9  1  0
  9 10  1  0
 10 11  1  0
 11 12  1  0
 12 13  1  0
 13 14  2  0
 14 15  1  0
 15 16  2  0
 16 17  1  0
 17 18  2  0
  2 19  1  0
 19 20  2  0
 20 21  1  0
 21 22  2  0
 22 23  1  0
 23 24  2  0
 24 25  1  0
 24 26  1  0
 26 27  2  0
 27 28  1  0
 28 29  2  0
 12  7  1  0
 18 13  1  0
 29 19  1  0
 28 22  1  0
  3 30  1  0
  4 31  1  0
  4 32  1  0
  8 33  1  0
  8 34  1  0
  9 35  1  0
  9 36  1  0
 10 37  1  0
 10 38  1  0
 11 39  1  0
 11 40  1  0
 12 41  1  6
 14 42  1  0
 15 43  1  0
 16 44  1  0
 18 45  1  0
 20 46  1  0
 21 47  1  0
 23 48  1  0
 26 49  1  0
 27 50  1  0
M  END
>  <smiles>  (77) 
O=C(NCC(=O)N1CCCCC1c1cccnc1)c1ccc2cc(F)ccc2n1

>  <score_type>  (77) 
oracle

>  <origin>  (77) 
autodockgpu

>  <m_score__min__energy>  (77) 
-8.6300000000000008

>  <m_primary>  (77) 
energy

>  <rmsd>  (77) 
1.8172631405123048

>  <m_score__min__rmsd>  (77) 
1.8172631405123048

>  <meeko>  (77) 
{"free_energy": -7.72, "intermolecular_energy": -9.21, "internal_energy": -1.72, "cluster_size": 16, "cluster_id": 2, "rank_in_cluster": 7}

>  <energy>  (77) 
-7.7

>  <cluster_rmsd>  (77) 
1.43

>  <cluster>  (77) 
2

$$$$

     RDKit          3D

 50 53  0  0  0  0  0  0  0  0999 V2000
  141.3770   72.3790  221.4830 O   0  0  0  0  0  0  0  0  0  0  0  0
  140.5210   72.5610  222.4000 C   0  0  0  0  0  0  0  0  0  0  0  0
  139.7470   73.8010  222.3170 N   0  0  0  0  0  0  0  0  0  0  0  0
  140.0500   74.6390  221.2280 C   0  0  0  0  0  0  0  0  0  0  0  0
  140.9970   75.7370  221.3610 C   0  0  0  0  0  0  0  0  0  0  0  0
  141.1510   76.1270  222.6060 O   0  0  0  0  0  0  0  0  0  0  0  0
  141.7600   76.4390  220.4360 N   0  0  0  0  0  0  0  0  0  0  0  0
  142.7300   75.8700  219.4960 C   0  0  0  0  0  0  0  0  0  0  0  0
  143.1310   76.9380  218.4860 C   0  0  0  0  0  0  0  0  0  0  0  0
  142.0040   77.7480  217.9570 C   0  0  0  0  0  0  0  0  0  0  0  0
  140.9860   78.1650  219.0380 C   0  0  0  0  0  0  0  0  0  0  0  0
  141.6610   77.9120  220.3260 C   0  0  1  0  0  0  0  0  0  0  0  0
  141.1710   78.5520  221.5250 C   0  0  0  0  0  0  0  0  0  0  0  0
  142.1110   79.0390  222.4460 C   0  0  0  0  0  0  0  0  0  0  0  0
  141.6410   79.6480  223.5870 C   0  0  0  0  0  0  0  0  0  0  0  0
  140.2770   79.7790  223.8210 C   0  0  0  0  0  0  0  0  0  0  0  0
  139.3890   79.3030  222.9190 N   0  0  0  0  0  0  0  0  0  0  0  0
  139.8040   78.6920  221.7760 C   0  0  0  0  0  0  0  0  0  0  0  0
  140.2890   71.6320  223.4760 C   0  0  0  0  0  0  0  0  0  0  0  0
  139.6070   70.4750  223.2090 C   0  0  0  0  0  0  0  0  0  0  0  0
  139.3930   69.6000  224.2390 C   0  0  0  0  0  0  0  0  0  0  0  0
  139.8460   69.8660  225.5030 C   0  0  0  0  0  0  0  0  0  0  0  0
  139.6660   69.0310  226.5850 C   0  0  0  0  0  0  0  0  0  0  0  0
  140.1210   69.3040  227.8380 C   0  0  0  0  0  0  0  0  0  0  0  0
  139.9340   68.4720  228.8860 F   0  0  0  0  0  0  0  0  0  0  0  0
  140.8100   70.4820  228.0850 C   0  0  0  0  0  0  0  0  0  0  0  0
  140.9930   71.3210  227.0100 C   0  0  0  0  0  0  0  0  0  0  0  0
  140.5320   71.0440  225.7390 C   0  0  0  0  0  0  0  0  0  0  0  0
  140.7350   71.8950  224.7170 N   0  0  0  0  0  0  0  0  0  0  0  0
  139.0600   73.8980  223.0760 H   0  0  0  0  0  0  0  0  0  0  0  0
  140.4386   73.9871  220.4318 H   0  0  0  0  0  0  0  0  0  0  0  0
  139.0981   75.1632  221.0572 H   0  0  0  0  0  0  0  0  0  0  0  0
  143.6201   75.5302  220.0458 H   0  0  0  0  0  0  0  0  0  0  0  0
  142.2798   75.0143  218.9715 H   0  0  0  0  0  0  0  0  0  0  0  0
  143.8435   77.6198  218.9733 H   0  0  0  0  0  0  0  0  0  0  0  0
  143.5607   76.4049  217.6251 H   0  0  0  0  0  0  0  0  0  0  0  0
  142.4155   78.6583  217.4965 H   0  0  0  0  0  0  0  0  0  0  0  0
  141.4666   77.1199  217.2313 H   0  0  0  0  0  0  0  0  0  0  0  0
  140.7328   79.2308  218.9383 H   0  0  0  0  0  0  0  0  0  0  0  0
  140.0432   77.6049  218.9518 H   0  0  0  0  0  0  0  0  0  0  0  0
  142.6356   78.4204  220.2838 H   0  0  0  0  0  0  0  0  0  0  0  0
  143.1906   78.9371  222.2615 H   0  0  0  0  0  0  0  0  0  0  0  0
  142.3565   80.0376  224.3261 H   0  0  0  0  0  0  0  0  0  0  0  0
  139.9204   80.2693  224.7388 H   0  0  0  0  0  0  0  0  0  0  0  0
  139.0671   78.3105  221.0538 H   0  0  0  0  0  0  0  0  0  0  0  0
  139.2415   70.2552  222.1951 H   0  0  0  0  0  0  0  0  0  0  0  0
  138.8464   68.6648  224.0476 H   0  0  0  0  0  0  0  0  0  0  0  0
  139.1223   68.0881  226.4260 H   0  0  0  0  0  0  0  0  0  0  0  0
  141.1898   70.7321  229.0866 H   0  0  0  0  0  0  0  0  0  0  0  0
  141.5362   72.2636  227.1724 H   0  0  0  0  0  0  0  0  0  0  0  0
  1  2  2  0
  2  3  1  0
  3  4  1  0
  4  5  1  0
  5  6  2  0
  5  7  1  0
  7  8  1  0
  8  9  1  0
  9 10  1  0
 10 11  1  0
 11 12  1  0
 12 13  1  0
 13 14  2  0
 14 15  1  0
 15 16  2  0
 16 17  1  0
 17 18  2  0
  2 19  1  0
 19 20  2  0
 20 21  1  0
 21 22  2  0
 22 23  1  0
 23 24  2  0
 24 25  1  0
 24 26  1  0
 26 27  2  0
 27 28  1  0
 28 29  2  0
 12  7  1  0
 18 13  1  0
 29 19  1  0
 28 22  1  0
  3 30  1  0
  4 31  1  0
  4 32  1  0
  8 33  1  0
  8 34  1  0
  9 35  1  0
  9 36  1  0
 10 37  1  0
 10 38  1  0
 11 39  1  0
 11 40  1  0
 12 41  1  6
 14 42  1  0
 15 43  1  0
 16 44  1  0
 18 45  1  0
 20 46  1  0
 21 47  1  0
 23 48  1  0
 26 49  1  0
 27 50  1  0
M  END
>  <smiles>  (78) 
O=C(NCC(=O)N1CCCCC1c1cccnc1)c1ccc2cc(F)ccc2n1

>  <score_type>  (78) 
oracle

>  <origin>  (78) 
autodockgpu

>  <m_score__min__energy>  (78) 
-8.6300000000000008

>  <m_primary>  (78) 
energy

>  <rmsd>  (78) 
2.0911059092991238

>  <m_score__min__rmsd>  (78) 
2.0911059092991238

>  <meeko>  (78) 
{"free_energy": -8.47, "intermolecular_energy": -9.96, "internal_energy": -1.14, "cluster_size": 19, "cluster_id": 1, "rank_in_cluster": 15}

>  <energy>  (78) 
-7.69

>  <cluster_rmsd>  (78) 
1.42

>  <cluster>  (78) 
2

$$$$

     RDKit          3D

 50 53  0  0  0  0  0  0  0  0999 V2000
  141.3260   72.3840  221.4360 O   0  0  0  0  0  0  0  0  0  0  0  0
  140.4910   72.5730  222.3710 C   0  0  0  0  0  0  0  0  0  0  0  0
  139.7430   73.8300  222.3200 N   0  0  0  0  0  0  0  0  0  0  0  0
  140.0440   74.6760  221.2360 C   0  0  0  0  0  0  0  0  0  0  0  0
  140.9690   75.7910  221.3850 C   0  0  0  0  0  0  0  0  0  0  0  0
  141.0600   76.2140  222.6240 O   0  0  0  0  0  0  0  0  0  0  0  0
  141.7630   76.4830  220.4770 N   0  0  0  0  0  0  0  0  0  0  0  0
  142.7380   75.8980  219.5530 C   0  0  0  0  0  0  0  0  0  0  0  0
  143.1790   76.9620  218.5550 C   0  0  0  0  0  0  0  0  0  0  0  0
  142.0790   77.7990  218.0100 C   0  0  0  0  0  0  0  0  0  0  0  0
  141.0500   78.2310  219.0740 C   0  0  0  0  0  0  0  0  0  0  0  0
  141.6960   77.9580  220.3730 C   0  0  1  0  0  0  0  0  0  0  0  0
  141.1980   78.6020  221.5660 C   0  0  0  0  0  0  0  0  0  0  0  0
  142.1290   79.0420  222.5190 C   0  0  0  0  0  0  0  0  0  0  0  0
  141.6510   79.6550  223.6540 C   0  0  0  0  0  0  0  0  0  0  0  0
  140.2860   79.8350  223.8530 C   0  0  0  0  0  0  0  0  0  0  0  0
  139.4070   79.4020  222.9210 N   0  0  0  0  0  0  0  0  0  0  0  0
  139.8300   78.7890  221.7820 C   0  0  0  0  0  0  0  0  0  0  0  0
  140.2590   71.6340  223.4390 C   0  0  0  0  0  0  0  0  0  0  0  0
  139.5840   70.4760  223.1600 C   0  0  0  0  0  0  0  0  0  0  0  0
  139.3690   69.5910  224.1820 C   0  0  0  0  0  0  0  0  0  0  0  0
  139.8150   69.8500  225.4500 C   0  0  0  0  0  0  0  0  0  0  0  0
  139.6340   69.0050  226.5250 C   0  0  0  0  0  0  0  0  0  0  0  0
  140.0820   69.2710  227.7820 C   0  0  0  0  0  0  0  0  0  0  0  0
  139.8940   68.4300  228.8220 F   0  0  0  0  0  0  0  0  0  0  0  0
  140.7640   70.4500  228.0410 C   0  0  0  0  0  0  0  0  0  0  0  0
  140.9480   71.2990  226.9740 C   0  0  0  0  0  0  0  0  0  0  0  0
  140.4940   71.0290  225.6990 C   0  0  0  0  0  0  0  0  0  0  0  0
  140.6980   71.8890  224.6840 N   0  0  0  0  0  0  0  0  0  0  0  0
  139.0730   73.9310  223.0920 H   0  0  0  0  0  0  0  0  0  0  0  0
  140.4550   74.0334  220.4434 H   0  0  0  0  0  0  0  0  0  0  0  0
  139.0848   75.1823  221.0527 H   0  0  0  0  0  0  0  0  0  0  0  0
  143.6108   75.5381  220.1176 H   0  0  0  0  0  0  0  0  0  0  0  0
  142.2805   75.0535  219.0168 H   0  0  0  0  0  0  0  0  0  0  0  0
  143.8974   77.6261  219.0579 H   0  0  0  0  0  0  0  0  0  0  0  0
  143.6116   76.4234  217.6990 H   0  0  0  0  0  0  0  0  0  0  0  0
  142.5181   78.7031  217.5629 H   0  0  0  0  0  0  0  0  0  0  0  0
  141.5422   77.1866  217.2705 H   0  0  0  0  0  0  0  0  0  0  0  0
  140.8202   79.3022  218.9754 H   0  0  0  0  0  0  0  0  0  0  0  0
  140.0979   77.6905  218.9675 H   0  0  0  0  0  0  0  0  0  0  0  0
  142.6812   78.4467  220.3512 H   0  0  0  0  0  0  0  0  0  0  0  0
  143.2088   78.9010  222.3633 H   0  0  0  0  0  0  0  0  0  0  0  0
  142.3600   80.0088  224.4170 H   0  0  0  0  0  0  0  0  0  0  0  0
  139.9225   80.3284  224.7664 H   0  0  0  0  0  0  0  0  0  0  0  0
  139.0996   78.4428  221.0359 H   0  0  0  0  0  0  0  0  0  0  0  0
  139.2243   70.2626  222.1426 H   0  0  0  0  0  0  0  0  0  0  0  0
  138.8280   68.6547  223.9806 H   0  0  0  0  0  0  0  0  0  0  0  0
  139.0959   68.0606  226.3562 H   0  0  0  0  0  0  0  0  0  0  0  0
  141.1382   70.6937  229.0463 H   0  0  0  0  0  0  0  0  0  0  0  0
  141.4855   72.2431  227.1464 H   0  0  0  0  0  0  0  0  0  0  0  0
  1  2  2  0
  2  3  1  0
  3  4  1  0
  4  5  1  0
  5  6  2  0
  5  7  1  0
  7  8  1  0
  8  9  1  0
  9 10  1  0
 10 11  1  0
 11 12  1  0
 12 13  1  0
 13 14  2  0
 14 15  1  0
 15 16  2  0
 16 17  1  0
 17 18  2  0
  2 19  1  0
 19 20  2  0
 20 21  1  0
 21 22  2  0
 22 23  1  0
 23 24  2  0
 24 25  1  0
 24 26  1  0
 26 27  2  0
 27 28  1  0
 28 29  2  0
 12  7  1  0
 18 13  1  0
 29 19  1  0
 28 22  1  0
  3 30  1  0
  4 31  1  0
  4 32  1  0
  8 33  1  0
  8 34  1  0
  9 35  1  0
  9 36  1  0
 10 37  1  0
 10 38  1  0
 11 39  1  0
 11 40  1  0
 12 41  1  6
 14 42  1  0
 15 43  1  0
 16 44  1  0
 18 45  1  0
 20 46  1  0
 21 47  1  0
 23 48  1  0
 26 49  1  0
 27 50  1  0
M  END
>  <smiles>  (79) 
O=C(NCC(=O)N1CCCCC1c1cccnc1)c1ccc2cc(F)ccc2n1

>  <score_type>  (79) 
oracle

>  <origin>  (79) 
autodockgpu

>  <m_score__min__energy>  (79) 
-8.6300000000000008

>  <m_primary>  (79) 
energy

>  <rmsd>  (79) 
2.112078795790432

>  <m_score__min__rmsd>  (79) 
2.112078795790432

>  <meeko>  (79) 
{"free_energy": -8.53, "intermolecular_energy": -10.02, "internal_energy": -1.08, "cluster_size": 19, "cluster_id": 1, "rank_in_cluster": 10}

>  <energy>  (79) 
-7.68

>  <cluster_rmsd>  (79) 
1.42

>  <cluster>  (79) 
2

$$$$

     RDKit          3D

 50 53  0  0  0  0  0  0  0  0999 V2000
  139.1770   74.5250  221.7570 O   0  0  0  0  0  0  0  0  0  0  0  0
  140.4130   74.7970  221.6680 C   0  0  0  0  0  0  0  0  0  0  0  0
  140.8000   76.1550  222.0500 N   0  0  0  0  0  0  0  0  0  0  0  0
  139.7520   76.9950  222.4710 C   0  0  0  0  0  0  0  0  0  0  0  0
  139.7350   78.4100  222.1290 C   0  0  0  0  0  0  0  0  0  0  0  0
  138.7510   78.7250  221.3190 O   0  0  0  0  0  0  0  0  0  0  0  0
  140.5500   79.4760  222.4930 N   0  0  0  0  0  0  0  0  0  0  0  0
  140.2990   80.4320  223.5750 C   0  0  0  0  0  0  0  0  0  0  0  0
  141.5590   81.2570  223.8120 C   0  0  0  0  0  0  0  0  0  0  0  0
  142.8230   80.4760  223.8150 C   0  0  0  0  0  0  0  0  0  0  0  0
  142.8910   79.4120  222.7020 C   0  0  0  0  0  0  0  0  0  0  0  0
  141.8060   79.7600  221.7630 C   0  0  1  0  0  0  0  0  0  0  0  0
  141.8300   79.2310  220.4200 C   0  0  0  0  0  0  0  0  0  0  0  0
  142.2040   77.8910  220.2420 C   0  0  0  0  0  0  0  0  0  0  0  0
  142.2250   77.3910  218.9610 C   0  0  0  0  0  0  0  0  0  0  0  0
  141.8860   78.1880  217.8720 C   0  0  0  0  0  0  0  0  0  0  0  0
  141.5290   79.4770  218.0670 N   0  0  0  0  0  0  0  0  0  0  0  0
  141.4930   80.0190  219.3150 C   0  0  0  0  0  0  0  0  0  0  0  0
  141.4090   73.8570  221.2220 C   0  0  0  0  0  0  0  0  0  0  0  0
  141.0400   72.5520  221.0300 C   0  0  0  0  0  0  0  0  0  0  0  0
  141.9950   71.6670  220.6070 C   0  0  0  0  0  0  0  0  0  0  0  0
  143.2840   72.0690  220.3790 C   0  0  0  0  0  0  0  0  0  0  0  0
  144.2940   71.2330  219.9520 C   0  0  0  0  0  0  0  0  0  0  0  0
  145.5730   71.6420  219.7270 C   0  0  0  0  0  0  0  0  0  0  0  0
  146.5480   70.8070  219.3090 F   0  0  0  0  0  0  0  0  0  0  0  0
  145.9220   72.9680  219.9270 C   0  0  0  0  0  0  0  0  0  0  0  0
  144.9190   73.8090  220.3540 C   0  0  0  0  0  0  0  0  0  0  0  0
  143.6230   73.3950  220.5810 C   0  0  0  0  0  0  0  0  0  0  0  0
  142.6740   74.2520  220.9980 N   0  0  0  0  0  0  0  0  0  0  0  0
  141.8110   76.3230  221.9710 H   0  0  0  0  0  0  0  0  0  0  0  0
  138.8251   76.5648  222.0638 H   0  0  0  0  0  0  0  0  0  0  0  0
  139.8845   77.0142  223.5628 H   0  0  0  0  0  0  0  0  0  0  0  0
  139.4699   81.0979  223.2936 H   0  0  0  0  0  0  0  0  0  0  0  0
  140.0315   79.8904  224.4943 H   0  0  0  0  0  0  0  0  0  0  0  0
  141.6266   82.0146  223.0174 H   0  0  0  0  0  0  0  0  0  0  0  0
  141.4606   81.6912  224.8179 H   0  0  0  0  0  0  0  0  0  0  0  0
  143.6634   81.1732  223.6820 H   0  0  0  0  0  0  0  0  0  0  0  0
  142.8714   79.9426  224.7758 H   0  0  0  0  0  0  0  0  0  0  0  0
  143.8661   79.4475  222.1942 H   0  0  0  0  0  0  0  0  0  0  0  0
  142.7767   78.3934  223.1011 H   0  0  0  0  0  0  0  0  0  0  0  0
  141.9355   80.8196  221.4977 H   0  0  0  0  0  0  0  0  0  0  0  0
  142.4725   77.2589  221.1013 H   0  0  0  0  0  0  0  0  0  0  0  0
  142.5148   76.3430  218.7945 H   0  0  0  0  0  0  0  0  0  0  0  0
  141.9085   77.7700  216.8547 H   0  0  0  0  0  0  0  0  0  0  0  0
  141.2006   81.0703  219.4535 H   0  0  0  0  0  0  0  0  0  0  0  0
  140.0056   72.2243  221.2106 H   0  0  0  0  0  0  0  0  0  0  0  0
  141.7218   70.6135  220.4473 H   0  0  0  0  0  0  0  0  0  0  0  0
  144.0522   70.1733  219.7832 H   0  0  0  0  0  0  0  0  0  0  0  0
  146.9463   73.3296  219.7538 H   0  0  0  0  0  0  0  0  0  0  0  0
  145.1644   74.8678  220.5232 H   0  0  0  0  0  0  0  0  0  0  0  0
  1  2  2  0
  2  3  1  0
  3  4  1  0
  4  5  1  0
  5  6  2  0
  5  7  1  0
  7  8  1  0
  8  9  1  0
  9 10  1  0
 10 11  1  0
 11 12  1  0
 12 13  1  0
 13 14  2  0
 14 15  1  0
 15 16  2  0
 16 17  1  0
 17 18  2  0
  2 19  1  0
 19 20  2  0
 20 21  1  0
 21 22  2  0
 22 23  1  0
 23 24  2  0
 24 25  1  0
 24 26  1  0
 26 27  2  0
 27 28  1  0
 28 29  2  0
 12  7  1  0
 18 13  1  0
 29 19  1  0
 28 22  1  0
  3 30  1  0
  4 31  1  0
  4 32  1  0
  8 33  1  0
  8 34  1  0
  9 35  1  0
  9 36  1  0
 10 37  1  0
 10 38  1  0
 11 39  1  0
 11 40  1  0
 12 41  1  6
 14 42  1  0
 15 43  1  0
 16 44  1  0
 18 45  1  0
 20 46  1  0
 21 47  1  0
 23 48  1  0
 26 49  1  0
 27 50  1  0
M  END
>  <smiles>  (80) 
O=C(NCC(=O)N1CCCCC1c1cccnc1)c1ccc2cc(F)ccc2n1

>  <score_type>  (80) 
oracle

>  <origin>  (80) 
autodockgpu

>  <m_score__min__energy>  (80) 
-8.6300000000000008

>  <m_primary>  (80) 
energy

>  <rmsd>  (80) 
6.621958866746622

>  <m_score__min__rmsd>  (80) 
6.621958866746622

>  <meeko>  (80) 
{"free_energy": -7.17, "intermolecular_energy": -8.66, "internal_energy": -1.94, "cluster_size": 8, "cluster_id": 3, "rank_in_cluster": 1}

>  <energy>  (80) 
-7.67

>  <cluster_rmsd>  (80) 
1.43

>  <cluster>  (80) 
2

$$$$

     RDKit          3D

 50 53  0  0  0  0  0  0  0  0999 V2000
  141.3770   72.5410  221.5720 O   0  0  0  0  0  0  0  0  0  0  0  0
  140.4600   72.6350  222.4430 C   0  0  0  0  0  0  0  0  0  0  0  0
  139.6080   73.8210  222.3500 N   0  0  0  0  0  0  0  0  0  0  0  0
  139.9110   74.7130  221.3040 C   0  0  0  0  0  0  0  0  0  0  0  0
  140.9060   75.7620  221.4720 C   0  0  0  0  0  0  0  0  0  0  0  0
  140.9850   76.1950  222.7090 O   0  0  0  0  0  0  0  0  0  0  0  0
  141.7770   76.3840  220.5850 N   0  0  0  0  0  0  0  0  0  0  0  0
  142.7560   75.7220  219.7190 C   0  0  0  0  0  0  0  0  0  0  0  0
  143.3000   76.7340  218.7180 C   0  0  0  0  0  0  0  0  0  0  0  0
  142.2740   77.6160  218.1040 C   0  0  0  0  0  0  0  0  0  0  0  0
  141.2270   78.1320  219.1110 C   0  0  0  0  0  0  0  0  0  0  0  0
  141.7990   77.8580  220.4440 C   0  0  1  0  0  0  0  0  0  0  0  0
  141.2870   78.5600  221.5980 C   0  0  0  0  0  0  0  0  0  0  0  0
  142.2020   78.9930  222.5690 C   0  0  0  0  0  0  0  0  0  0  0  0
  141.7110   79.6600  223.6670 C   0  0  0  0  0  0  0  0  0  0  0  0
  140.3490   79.9010  223.8110 C   0  0  0  0  0  0  0  0  0  0  0  0
  139.4850   79.4750  222.8620 N   0  0  0  0  0  0  0  0  0  0  0  0
  139.9210   78.8090  221.7590 C   0  0  0  0  0  0  0  0  0  0  0  0
  140.2350   71.6590  223.4770 C   0  0  0  0  0  0  0  0  0  0  0  0
  139.5380   70.5220  223.1670 C   0  0  0  0  0  0  0  0  0  0  0  0
  139.3300   69.6010  224.1580 C   0  0  0  0  0  0  0  0  0  0  0  0
  139.8030   69.8040  225.4260 C   0  0  0  0  0  0  0  0  0  0  0  0
  139.6310   68.9200  226.4700 C   0  0  0  0  0  0  0  0  0  0  0  0
  140.1060   69.1300  227.7280 C   0  0  0  0  0  0  0  0  0  0  0  0
  139.9270   68.2520  228.7380 F   0  0  0  0  0  0  0  0  0  0  0  0
  140.8100   70.2880  228.0200 C   0  0  0  0  0  0  0  0  0  0  0  0
  140.9860   71.1760  226.9820 C   0  0  0  0  0  0  0  0  0  0  0  0
  140.5050   70.9630  225.7070 C   0  0  0  0  0  0  0  0  0  0  0  0
  140.7010   71.8590  224.7230 N   0  0  0  0  0  0  0  0  0  0  0  0
  138.8750   73.8470  223.0710 H   0  0  0  0  0  0  0  0  0  0  0  0
  140.2471   74.0973  220.4567 H   0  0  0  0  0  0  0  0  0  0  0  0
  138.9767   75.2837  221.1975 H   0  0  0  0  0  0  0  0  0  0  0  0
  143.5814   75.3278  220.3300 H   0  0  0  0  0  0  0  0  0  0  0  0
  142.2745   74.8914  219.1821 H   0  0  0  0  0  0  0  0  0  0  0  0
  144.0315   77.3702  219.2377 H   0  0  0  0  0  0  0  0  0  0  0  0
  143.7394   76.1506  217.8954 H   0  0  0  0  0  0  0  0  0  0  0  0
  142.7824   78.4821  217.6553 H   0  0  0  0  0  0  0  0  0  0  0  0
  141.7359   77.0155  217.3558 H   0  0  0  0  0  0  0  0  0  0  0  0
  141.0629   79.2114  218.9768 H   0  0  0  0  0  0  0  0  0  0  0  0
  140.2516   77.6420  218.9751 H   0  0  0  0  0  0  0  0  0  0  0  0
  142.8103   78.2906  220.4559 H   0  0  0  0  0  0  0  0  0  0  0  0
  143.2798   78.8047  222.4557 H   0  0  0  0  0  0  0  0  0  0  0  0
  142.4071   80.0086  224.4441 H   0  0  0  0  0  0  0  0  0  0  0  0
  139.9750   80.4374  224.6956 H   0  0  0  0  0  0  0  0  0  0  0  0
  139.2030   78.4685  220.9984 H   0  0  0  0  0  0  0  0  0  0  0  0
  139.1557   70.3533  222.1495 H   0  0  0  0  0  0  0  0  0  0  0  0
  138.7722   68.6805  223.9309 H   0  0  0  0  0  0  0  0  0  0  0  0
  139.0771   67.9900  226.2746 H   0  0  0  0  0  0  0  0  0  0  0  0
  141.2067   70.4869  229.0265 H   0  0  0  0  0  0  0  0  0  0  0  0
  141.5401   72.1053  227.1806 H   0  0  0  0  0  0  0  0  0  0  0  0
  1  2  2  0
  2  3  1  0
  3  4  1  0
  4  5  1  0
  5  6  2  0
  5  7  1  0
  7  8  1  0
  8  9  1  0
  9 10  1  0
 10 11  1  0
 11 12  1  0
 12 13  1  0
 13 14  2  0
 14 15  1  0
 15 16  2  0
 16 17  1  0
 17 18  2  0
  2 19  1  0
 19 20  2  0
 20 21  1  0
 21 22  2  0
 22 23  1  0
 23 24  2  0
 24 25  1  0
 24 26  1  0
 26 27  2  0
 27 28  1  0
 28 29  2  0
 12  7  1  0
 18 13  1  0
 29 19  1  0
 28 22  1  0
  3 30  1  0
  4 31  1  0
  4 32  1  0
  8 33  1  0
  8 34  1  0
  9 35  1  0
  9 36  1  0
 10 37  1  0
 10 38  1  0
 11 39  1  0
 11 40  1  0
 12 41  1  6
 14 42  1  0
 15 43  1  0
 16 44  1  0
 18 45  1  0
 20 46  1  0
 21 47  1  0
 23 48  1  0
 26 49  1  0
 27 50  1  0
M  END
>  <smiles>  (81) 
O=C(NCC(=O)N1CCCCC1c1cccnc1)c1ccc2cc(F)ccc2n1

>  <score_type>  (81) 
oracle

>  <origin>  (81) 
autodockgpu

>  <m_score__min__energy>  (81) 
-8.6300000000000008

>  <m_primary>  (81) 
energy

>  <rmsd>  (81) 
2.1157473179488666

>  <m_score__min__rmsd>  (81) 
2.1157473179488666

>  <meeko>  (81) 
{"free_energy": -8.63, "intermolecular_energy": -10.13, "internal_energy": -1.1, "cluster_size": 19, "cluster_id": 1, "rank_in_cluster": 1}

>  <energy>  (81) 
-7.62

>  <cluster_rmsd>  (81) 
1.5

>  <cluster>  (81) 
2

$$$$

     RDKit          3D

 50 53  0  0  0  0  0  0  0  0999 V2000
  140.0500   71.6700  221.0300 O   0  0  0  0  0  0  0  0  0  0  0  0
  139.8960   72.1050  222.2110 C   0  0  0  0  0  0  0  0  0  0  0  0
  139.6830   73.5470  222.3400 N   0  0  0  0  0  0  0  0  0  0  0  0
  139.6760   74.2750  221.1360 C   0  0  0  0  0  0  0  0  0  0  0  0
  140.6980   75.2730  220.8520 C   0  0  0  0  0  0  0  0  0  0  0  0
  141.2490   75.7600  221.9400 O   0  0  0  0  0  0  0  0  0  0  0  0
  141.1940   75.8010  219.6650 N   0  0  0  0  0  0  0  0  0  0  0  0
  140.4760   76.6790  218.7370 C   0  0  0  0  0  0  0  0  0  0  0  0
  141.4640   77.2440  217.7230 C   0  0  0  0  0  0  0  0  0  0  0  0
  142.7550   77.7010  218.2980 C   0  0  0  0  0  0  0  0  0  0  0  0
  143.3270   76.7430  219.3620 C   0  0  0  0  0  0  0  0  0  0  0  0
  142.5660   75.4880  219.2060 C   0  0  1  0  0  0  0  0  0  0  0  0
  143.0960   74.2600  219.7520 C   0  0  0  0  0  0  0  0  0  0  0  0
  144.3040   74.3200  220.4630 C   0  0  0  0  0  0  0  0  0  0  0  0
  144.8050   73.1480  220.9820 C   0  0  0  0  0  0  0  0  0  0  0  0
  144.1370   71.9410  220.8090 C   0  0  0  0  0  0  0  0  0  0  0  0
  142.9740   71.9080  220.1200 N   0  0  0  0  0  0  0  0  0  0  0  0
  142.4380   73.0390  219.5860 C   0  0  0  0  0  0  0  0  0  0  0  0
  139.9210   71.2670  223.3820 C   0  0  0  0  0  0  0  0  0  0  0  0
  139.4920   69.9720  223.2720 C   0  0  0  0  0  0  0  0  0  0  0  0
  139.5190   69.1850  224.3910 C   0  0  0  0  0  0  0  0  0  0  0  0
  139.9630   69.6720  225.5900 C   0  0  0  0  0  0  0  0  0  0  0  0
  140.0190   68.9370  226.7550 C   0  0  0  0  0  0  0  0  0  0  0  0
  140.4630   69.4290  227.9440 C   0  0  0  0  0  0  0  0  0  0  0  0
  140.5100   68.6930  229.0740 F   0  0  0  0  0  0  0  0  0  0  0  0
  140.8940   70.7440  228.0320 C   0  0  0  0  0  0  0  0  0  0  0  0
  140.8410   71.4850  226.8730 C   0  0  0  0  0  0  0  0  0  0  0  0
  140.3910   70.9850  225.6690 C   0  0  0  0  0  0  0  0  0  0  0  0
  140.3580   71.7470  224.5600 N   0  0  0  0  0  0  0  0  0  0  0  0
  139.5530   73.8490  223.3150 H   0  0  0  0  0  0  0  0  0  0  0  0
  139.7286   73.5350  220.3239 H   0  0  0  0  0  0  0  0  0  0  0  0
  138.7651   74.8845  221.2297 H   0  0  0  0  0  0  0  0  0  0  0  0
  139.6979   76.1044  218.2131 H   0  0  0  0  0  0  0  0  0  0  0  0
  140.0039   77.5018  219.2940 H   0  0  0  0  0  0  0  0  0  0  0  0
  141.6782   76.4606  216.9811 H   0  0  0  0  0  0  0  0  0  0  0  0
  140.9863   78.1347  217.2888 H   0  0  0  0  0  0  0  0  0  0  0  0
  143.4869   77.7922  217.4819 H   0  0  0  0  0  0  0  0  0  0  0  0
  142.5650   78.6628  218.7969 H   0  0  0  0  0  0  0  0  0  0  0  0
  144.3987   76.5680  219.1865 H   0  0  0  0  0  0  0  0  0  0  0  0
  143.2338   77.1554  220.3775 H   0  0  0  0  0  0  0  0  0  0  0  0
  142.6254   75.2049  218.1447 H   0  0  0  0  0  0  0  0  0  0  0  0
  144.8341   75.2739  220.6013 H   0  0  0  0  0  0  0  0  0  0  0  0
  145.7506   73.1665  221.5436 H   0  0  0  0  0  0  0  0  0  0  0  0
  144.5537   71.0149  221.2317 H   0  0  0  0  0  0  0  0  0  0  0  0
  141.4919   72.9921  219.0268 H   0  0  0  0  0  0  0  0  0  0  0  0
  139.1353   69.5747  222.3103 H   0  0  0  0  0  0  0  0  0  0  0  0
  139.1774   68.1414  224.3254 H   0  0  0  0  0  0  0  0  0  0  0  0
  139.6846   67.8896  226.7217 H   0  0  0  0  0  0  0  0  0  0  0  0
  141.2587   71.1722  228.9773 H   0  0  0  0  0  0  0  0  0  0  0  0
  141.1756   72.5323  226.9091 H   0  0  0  0  0  0  0  0  0  0  0  0
  1  2  2  0
  2  3  1  0
  3  4  1  0
  4  5  1  0
  5  6  2  0
  5  7  1  0
  7  8  1  0
  8  9  1  0
  9 10  1  0
 10 11  1  0
 11 12  1  0
 12 13  1  0
 13 14  2  0
 14 15  1  0
 15 16  2  0
 16 17  1  0
 17 18  2  0
  2 19  1  0
 19 20  2  0
 20 21  1  0
 21 22  2  0
 22 23  1  0
 23 24  2  0
 24 25  1  0
 24 26  1  0
 26 27  2  0
 27 28  1  0
 28 29  2  0
 12  7  1  0
 18 13  1  0
 29 19  1  0
 28 22  1  0
  3 30  1  0
  4 31  1  0
  4 32  1  0
  8 33  1  0
  8 34  1  0
  9 35  1  0
  9 36  1  0
 10 37  1  0
 10 38  1  0
 11 39  1  0
 11 40  1  0
 12 41  1  6
 14 42  1  0
 15 43  1  0
 16 44  1  0
 18 45  1  0
 20 46  1  0
 21 47  1  0
 23 48  1  0
 26 49  1  0
 27 50  1  0
M  END
>  <smiles>  (82) 
O=C(NCC(=O)N1CCCCC1c1cccnc1)c1ccc2cc(F)ccc2n1

>  <score_type>  (82) 
oracle

>  <origin>  (82) 
autodockgpu

>  <m_score__min__energy>  (82) 
-8.6300000000000008

>  <m_primary>  (82) 
energy

>  <rmsd>  (82) 
1.8259014450806907

>  <m_score__min__rmsd>  (82) 
1.8259014450806907

>  <meeko>  (82) 
{"free_energy": -7.62, "intermolecular_energy": -9.11, "internal_energy": -1.83, "cluster_size": 16, "cluster_id": 2, "rank_in_cluster": 12}

>  <energy>  (82) 
-7.57

>  <cluster_rmsd>  (82) 
1.45

>  <cluster>  (82) 
2

$$$$

     RDKit          3D

 50 53  0  0  0  0  0  0  0  0999 V2000
  139.1010   75.0540  221.3060 O   0  0  0  0  0  0  0  0  0  0  0  0
  140.3320   75.2350  221.5490 C   0  0  0  0  0  0  0  0  0  0  0  0
  140.6750   76.4910  222.2170 N   0  0  0  0  0  0  0  0  0  0  0  0
  139.5950   77.3450  222.5080 C   0  0  0  0  0  0  0  0  0  0  0  0
  139.6530   78.7670  222.2000 C   0  0  0  0  0  0  0  0  0  0  0  0
  138.6190   79.1790  221.5040 O   0  0  0  0  0  0  0  0  0  0  0  0
  140.5810   79.7580  222.5000 N   0  0  0  0  0  0  0  0  0  0  0  0
  140.4400   80.8010  223.5190 C   0  0  0  0  0  0  0  0  0  0  0  0
  141.7830   81.4960  223.7090 C   0  0  0  0  0  0  0  0  0  0  0  0
  142.9540   80.5830  223.7670 C   0  0  0  0  0  0  0  0  0  0  0  0
  142.9020   79.4500  222.7220 C   0  0  0  0  0  0  0  0  0  0  0  0
  141.8590   79.8550  221.7600 C   0  0  1  0  0  0  0  0  0  0  0  0
  141.8210   79.2440  220.4510 C   0  0  0  0  0  0  0  0  0  0  0  0
  141.4040   80.0300  219.3660 C   0  0  0  0  0  0  0  0  0  0  0  0
  141.3680   79.4440  218.1220 C   0  0  0  0  0  0  0  0  0  0  0  0
  141.7350   78.1150  217.9420 C   0  0  0  0  0  0  0  0  0  0  0  0
  142.1340   77.3770  219.0020 N   0  0  0  0  0  0  0  0  0  0  0  0
  142.1850   77.9100  220.2540 C   0  0  0  0  0  0  0  0  0  0  0  0
  141.3630   74.2900  221.2070 C   0  0  0  0  0  0  0  0  0  0  0  0
  141.0310   72.9660  221.0990 C   0  0  0  0  0  0  0  0  0  0  0  0
  142.0190   72.0760  220.7740 C   0  0  0  0  0  0  0  0  0  0  0  0
  143.3050   72.4920  220.5600 C   0  0  0  0  0  0  0  0  0  0  0  0
  144.3480   71.6530  220.2300 C   0  0  0  0  0  0  0  0  0  0  0  0
  145.6250   72.0740  220.0180 C   0  0  0  0  0  0  0  0  0  0  0  0
  146.6320   71.2360  219.6950 F   0  0  0  0  0  0  0  0  0  0  0  0
  145.9380   73.4200  220.1320 C   0  0  0  0  0  0  0  0  0  0  0  0
  144.9020   74.2650  220.4630 C   0  0  0  0  0  0  0  0  0  0  0  0
  143.6090   73.8370  220.6770 C   0  0  0  0  0  0  0  0  0  0  0  0
  142.6270   74.6990  220.9970 N   0  0  0  0  0  0  0  0  0  0  0  0
  141.6820   76.5870  222.4020 H   0  0  0  0  0  0  0  0  0  0  0  0
  138.7258   76.9439  221.9662 H   0  0  0  0  0  0  0  0  0  0  0  0
  139.5744   77.3388  223.6078 H   0  0  0  0  0  0  0  0  0  0  0  0
  139.6880   81.5349  223.1935 H   0  0  0  0  0  0  0  0  0  0  0  0
  140.1179   80.3502  224.4692 H   0  0  0  0  0  0  0  0  0  0  0  0
  141.9313   82.1899  222.8684 H   0  0  0  0  0  0  0  0  0  0  0  0
  141.7352   82.0010  224.6851 H   0  0  0  0  0  0  0  0  0  0  0  0
  143.8655   81.1742  223.5947 H   0  0  0  0  0  0  0  0  0  0  0  0
  142.9462   80.1088  224.7595 H   0  0  0  0  0  0  0  0  0  0  0  0
  143.8735   79.3473  222.2164 H   0  0  0  0  0  0  0  0  0  0  0  0
  142.6787   78.4767  223.1833 H   0  0  0  0  0  0  0  0  0  0  0  0
  142.1038   80.8756  221.4307 H   0  0  0  0  0  0  0  0  0  0  0  0
  141.1149   81.0821  219.5059 H   0  0  0  0  0  0  0  0  0  0  0  0
  141.0432   80.0372  217.2544 H   0  0  0  0  0  0  0  0  0  0  0  0
  141.7007   77.6649  216.9389 H   0  0  0  0  0  0  0  0  0  0  0  0
  142.5108   77.2938  221.1050 H   0  0  0  0  0  0  0  0  0  0  0  0
  139.9985   72.6268  221.2688 H   0  0  0  0  0  0  0  0  0  0  0  0
  141.7748   71.0073  220.6832 H   0  0  0  0  0  0  0  0  0  0  0  0
  144.1354   70.5782  220.1321 H   0  0  0  0  0  0  0  0  0  0  0  0
  146.9595   73.7931  219.9668 H   0  0  0  0  0  0  0  0  0  0  0  0
  145.1178   75.3391  220.5619 H   0  0  0  0  0  0  0  0  0  0  0  0
  1  2  2  0
  2  3  1  0
  3  4  1  0
  4  5  1  0
  5  6  2  0
  5  7  1  0
  7  8  1  0
  8  9  1  0
  9 10  1  0
 10 11  1  0
 11 12  1  0
 12 13  1  0
 13 14  2  0
 14 15  1  0
 15 16  2  0
 16 17  1  0
 17 18  2  0
  2 19  1  0
 19 20  2  0
 20 21  1  0
 21 22  2  0
 22 23  1  0
 23 24  2  0
 24 25  1  0
 24 26  1  0
 26 27  2  0
 27 28  1  0
 28 29  2  0
 12  7  1  0
 18 13  1  0
 29 19  1  0
 28 22  1  0
  3 30  1  0
  4 31  1  0
  4 32  1  0
  8 33  1  0
  8 34  1  0
  9 35  1  0
  9 36  1  0
 10 37  1  0
 10 38  1  0
 11 39  1  0
 11 40  1  0
 12 41  1  6
 14 42  1  0
 15 43  1  0
 16 44  1  0
 18 45  1  0
 20 46  1  0
 21 47  1  0
 23 48  1  0
 26 49  1  0
 27 50  1  0
M  END
>  <smiles>  (83) 
O=C(NCC(=O)N1CCCCC1c1cccnc1)c1ccc2cc(F)ccc2n1

>  <score_type>  (83) 
oracle

>  <origin>  (83) 
autodockgpu

>  <m_score__min__energy>  (83) 
-8.6300000000000008

>  <m_primary>  (83) 
energy

>  <rmsd>  (83) 
6.726403650762858

>  <m_score__min__rmsd>  (83) 
6.726403650762858

>  <meeko>  (83) 
{"free_energy": -7.07, "intermolecular_energy": -8.56, "internal_energy": -2.03, "cluster_size": 8, "cluster_id": 3, "rank_in_cluster": 7}

>  <energy>  (83) 
-7.55

>  <cluster_rmsd>  (83) 
1.42

>  <cluster>  (83) 
2

$$$$

     RDKit          3D

 50 53  0  0  0  0  0  0  0  0999 V2000
  139.1520   75.1020  221.0550 O   0  0  0  0  0  0  0  0  0  0  0  0
  140.3610   75.2160  221.4200 C   0  0  0  0  0  0  0  0  0  0  0  0
  140.6800   76.3940  222.2270 N   0  0  0  0  0  0  0  0  0  0  0  0
  139.6030   77.2580  222.4990 C   0  0  0  0  0  0  0  0  0  0  0  0
  139.6730   78.6760  222.1770 C   0  0  0  0  0  0  0  0  0  0  0  0
  138.6720   79.0780  221.4280 O   0  0  0  0  0  0  0  0  0  0  0  0
  140.5850   79.6720  222.5070 N   0  0  0  0  0  0  0  0  0  0  0  0
  140.4280   80.6800  223.5600 C   0  0  0  0  0  0  0  0  0  0  0  0
  141.7600   81.3910  223.7700 C   0  0  0  0  0  0  0  0  0  0  0  0
  142.9460   80.4970  223.7960 C   0  0  0  0  0  0  0  0  0  0  0  0
  142.9110   79.3980  222.7160 C   0  0  0  0  0  0  0  0  0  0  0  0
  141.8590   79.8160  221.7680 C   0  0  1  0  0  0  0  0  0  0  0  0
  141.8290   79.2470  220.4410 C   0  0  0  0  0  0  0  0  0  0  0  0
  142.2000   77.9020  220.2890 C   0  0  0  0  0  0  0  0  0  0  0  0
  142.1700   77.3640  219.0230 C   0  0  0  0  0  0  0  0  0  0  0  0
  141.7820   78.1270  217.9270 C   0  0  0  0  0  0  0  0  0  0  0  0
  141.4280   79.4200  218.0970 N   0  0  0  0  0  0  0  0  0  0  0  0
  141.4430   80.0000  219.3290 C   0  0  0  0  0  0  0  0  0  0  0  0
  141.3910   74.2670  221.0840 C   0  0  0  0  0  0  0  0  0  0  0  0
  141.0450   72.9520  220.9240 C   0  0  0  0  0  0  0  0  0  0  0  0
  142.0330   72.0580  220.6050 C   0  0  0  0  0  0  0  0  0  0  0  0
  143.3310   72.4620  220.4480 C   0  0  0  0  0  0  0  0  0  0  0  0
  144.3730   71.6180  220.1260 C   0  0  0  0  0  0  0  0  0  0  0  0
  145.6620   72.0290  219.9710 C   0  0  0  0  0  0  0  0  0  0  0  0
  146.6690   71.1860  219.6570 F   0  0  0  0  0  0  0  0  0  0  0  0
  145.9890   73.3660  220.1380 C   0  0  0  0  0  0  0  0  0  0  0  0
  144.9530   74.2140  220.4590 C   0  0  0  0  0  0  0  0  0  0  0  0
  143.6480   73.7980  220.6160 C   0  0  0  0  0  0  0  0  0  0  0  0
  142.6670   74.6640  220.9290 N   0  0  0  0  0  0  0  0  0  0  0  0
  141.6680   76.4360  222.5060 H   0  0  0  0  0  0  0  0  0  0  0  0
  138.7362   76.8569  221.9532 H   0  0  0  0  0  0  0  0  0  0  0  0
  139.5723   77.2635  223.5986 H   0  0  0  0  0  0  0  0  0  0  0  0
  139.6632   81.4112  223.2593 H   0  0  0  0  0  0  0  0  0  0  0  0
  140.1150   80.1938  224.4958 H   0  0  0  0  0  0  0  0  0  0  0  0
  141.8945   82.1142  222.9522 H   0  0  0  0  0  0  0  0  0  0  0  0
  141.7061   81.8628  224.7622 H   0  0  0  0  0  0  0  0  0  0  0  0
  143.8468   81.1090  223.6410 H   0  0  0  0  0  0  0  0  0  0  0  0
  142.9485   79.9910  224.7727 H   0  0  0  0  0  0  0  0  0  0  0  0
  143.8832   79.3278  222.2062 H   0  0  0  0  0  0  0  0  0  0  0  0
  142.7047   78.4069  223.1463 H   0  0  0  0  0  0  0  0  0  0  0  0
  142.0850   80.8506  221.4707 H   0  0  0  0  0  0  0  0  0  0  0  0
  142.5053   77.2967  221.1552 H   0  0  0  0  0  0  0  0  0  0  0  0
  142.4578   76.3126  218.8753 H   0  0  0  0  0  0  0  0  0  0  0  0
  141.7633   77.6785  216.9228 H   0  0  0  0  0  0  0  0  0  0  0  0
  141.1531   81.0544  219.4480 H   0  0  0  0  0  0  0  0  0  0  0  0
  140.0029   72.6225  221.0481 H   0  0  0  0  0  0  0  0  0  0  0  0
  141.7782   70.9961  220.4727 H   0  0  0  0  0  0  0  0  0  0  0  0
  144.1498   70.5500  219.9862 H   0  0  0  0  0  0  0  0  0  0  0  0
  147.0205   73.7296  220.0204 H   0  0  0  0  0  0  0  0  0  0  0  0
  145.1788   75.2816  220.5978 H   0  0  0  0  0  0  0  0  0  0  0  0
  1  2  2  0
  2  3  1  0
  3  4  1  0
  4  5  1  0
  5  6  2  0
  5  7  1  0
  7  8  1  0
  8  9  1  0
  9 10  1  0
 10 11  1  0
 11 12  1  0
 12 13  1  0
 13 14  2  0
 14 15  1  0
 15 16  2  0
 16 17  1  0
 17 18  2  0
  2 19  1  0
 19 20  2  0
 20 21  1  0
 21 22  2  0
 22 23  1  0
 23 24  2  0
 24 25  1  0
 24 26  1  0
 26 27  2  0
 27 28  1  0
 28 29  2  0
 12  7  1  0
 18 13  1  0
 29 19  1  0
 28 22  1  0
  3 30  1  0
  4 31  1  0
  4 32  1  0
  8 33  1  0
  8 34  1  0
  9 35  1  0
  9 36  1  0
 10 37  1  0
 10 38  1  0
 11 39  1  0
 11 40  1  0
 12 41  1  6
 14 42  1  0
 15 43  1  0
 16 44  1  0
 18 45  1  0
 20 46  1  0
 21 47  1  0
 23 48  1  0
 26 49  1  0
 27 50  1  0
M  END
>  <smiles>  (84) 
O=C(NCC(=O)N1CCCCC1c1cccnc1)c1ccc2cc(F)ccc2n1

>  <score_type>  (84) 
oracle

>  <origin>  (84) 
autodockgpu

>  <m_score__min__energy>  (84) 
-8.6300000000000008

>  <m_primary>  (84) 
energy

>  <rmsd>  (84) 
6.725139138328517

>  <m_score__min__rmsd>  (84) 
6.725139138328517

>  <meeko>  (84) 
{"free_energy": -7.06, "intermolecular_energy": -8.56, "internal_energy": -2.07, "cluster_size": 8, "cluster_id": 3, "rank_in_cluster": 8}

>  <energy>  (84) 
-7.48

>  <cluster_rmsd>  (84) 
1.5

>  <cluster>  (84) 
2

$$$$

     RDKit          3D

 50 53  0  0  0  0  0  0  0  0999 V2000
  139.9350   73.0610  222.8740 O   0  0  0  0  0  0  0  0  0  0  0  0
  140.2140   71.8400  223.0690 C   0  0  0  0  0  0  0  0  0  0  0  0
  140.3320   71.0100  221.8690 N   0  0  0  0  0  0  0  0  0  0  0  0
  140.1190   71.6700  220.6450 C   0  0  0  0  0  0  0  0  0  0  0  0
  141.2060   72.3530  219.9570 C   0  0  0  0  0  0  0  0  0  0  0  0
  140.9370   72.5940  218.6950 O   0  0  0  0  0  0  0  0  0  0  0  0
  142.4560   72.7940  220.3770 N   0  0  0  0  0  0  0  0  0  0  0  0
  143.5750   71.9510  220.8060 C   0  0  0  0  0  0  0  0  0  0  0  0
  144.8310   72.8090  220.9130 C   0  0  0  0  0  0  0  0  0  0  0  0
  145.0320   73.7610  219.7910 C   0  0  0  0  0  0  0  0  0  0  0  0
  143.7380   74.4780  219.3540 C   0  0  0  0  0  0  0  0  0  0  0  0
  142.7730   74.2380  220.4440 C   0  0  1  0  0  0  0  0  0  0  0  0
  141.6080   75.0840  220.5640 C   0  0  0  0  0  0  0  0  0  0  0  0
  141.1550   75.4080  221.8520 C   0  0  0  0  0  0  0  0  0  0  0  0
  140.0450   76.2130  221.9620 C   0  0  0  0  0  0  0  0  0  0  0  0
  139.3910   76.6940  220.8320 C   0  0  0  0  0  0  0  0  0  0  0  0
  139.8450   76.3690  219.6010 N   0  0  0  0  0  0  0  0  0  0  0  0
  140.9380   75.5740  219.4400 C   0  0  0  0  0  0  0  0  0  0  0  0
  140.4130   71.2620  224.3730 C   0  0  0  0  0  0  0  0  0  0  0  0
  140.7080   72.0940  225.4210 C   0  0  0  0  0  0  0  0  0  0  0  0
  140.8950   71.5340  226.6560 C   0  0  0  0  0  0  0  0  0  0  0  0
  140.7920   70.1820  226.8460 C   0  0  0  0  0  0  0  0  0  0  0  0
  140.9670   69.5530  228.0600 C   0  0  0  0  0  0  0  0  0  0  0  0
  140.8610   68.2080  228.2390 C   0  0  0  0  0  0  0  0  0  0  0  0
  141.0370   67.6100  229.4370 F   0  0  0  0  0  0  0  0  0  0  0  0
  140.5610   67.3860  227.1640 C   0  0  0  0  0  0  0  0  0  0  0  0
  140.3850   68.0070  225.9480 C   0  0  0  0  0  0  0  0  0  0  0  0
  140.4920   69.3700  225.7670 C   0  0  0  0  0  0  0  0  0  0  0  0
  140.3110   69.9350  224.5590 N   0  0  0  0  0  0  0  0  0  0  0  0
  140.5700   70.0320  222.0790 H   0  0  0  0  0  0  0  0  0  0  0  0
  139.7340   70.9133  219.9456 H   0  0  0  0  0  0  0  0  0  0  0  0
  139.4578   72.5007  220.9325 H   0  0  0  0  0  0  0  0  0  0  0  0
  143.3473   71.5068  221.7862 H   0  0  0  0  0  0  0  0  0  0  0  0
  143.7361   71.1464  220.0734 H   0  0  0  0  0  0  0  0  0  0  0  0
  144.7716   73.3878  221.8465 H   0  0  0  0  0  0  0  0  0  0  0  0
  145.6837   72.1146  220.8866 H   0  0  0  0  0  0  0  0  0  0  0  0
  145.7621   74.5212  220.1058 H   0  0  0  0  0  0  0  0  0  0  0  0
  145.3849   73.1758  218.9290 H   0  0  0  0  0  0  0  0  0  0  0  0
  143.9181   75.5560  219.2292 H   0  0  0  0  0  0  0  0  0  0  0  0
  143.3676   74.1034  218.3884 H   0  0  0  0  0  0  0  0  0  0  0  0
  143.2628   74.5421  221.3808 H   0  0  0  0  0  0  0  0  0  0  0  0
  141.6717   75.0298  222.7464 H   0  0  0  0  0  0  0  0  0  0  0  0
  139.6681   76.4810  222.9601 H   0  0  0  0  0  0  0  0  0  0  0  0
  138.5057   77.3379  220.9403 H   0  0  0  0  0  0  0  0  0  0  0  0
  141.2920   75.3186  218.4303 H   0  0  0  0  0  0  0  0  0  0  0  0
  140.7921   73.1809  225.2741 H   0  0  0  0  0  0  0  0  0  0  0  0
  141.1326   72.1826  227.5121 H   0  0  0  0  0  0  0  0  0  0  0  0
  141.2063   70.1746  228.9354 H   0  0  0  0  0  0  0  0  0  0  0  0
  140.4685   66.2957  227.2765 H   0  0  0  0  0  0  0  0  0  0  0  0
  140.1463   67.3828  225.0743 H   0  0  0  0  0  0  0  0  0  0  0  0
  1  2  2  0
  2  3  1  0
  3  4  1  0
  4  5  1  0
  5  6  2  0
  5  7  1  0
  7  8  1  0
  8  9  1  0
  9 10  1  0
 10 11  1  0
 11 12  1  0
 12 13  1  0
 13 14  2  0
 14 15  1  0
 15 16  2  0
 16 17  1  0
 17 18  2  0
  2 19  1  0
 19 20  2  0
 20 21  1  0
 21 22  2  0
 22 23  1  0
 23 24  2  0
 24 25  1  0
 24 26  1  0
 26 27  2  0
 27 28  1  0
 28 29  2  0
 12  7  1  0
 18 13  1  0
 29 19  1  0
 28 22  1  0
  3 30  1  0
  4 31  1  0
  4 32  1  0
  8 33  1  0
  8 34  1  0
  9 35  1  0
  9 36  1  0
 10 37  1  0
 10 38  1  0
 11 39  1  0
 11 40  1  0
 12 41  1  1
 14 42  1  0
 15 43  1  0
 16 44  1  0
 18 45  1  0
 20 46  1  0
 21 47  1  0
 23 48  1  0
 26 49  1  0
 27 50  1  0
M  END
>  <smiles>  (85) 
O=C(NCC(=O)N1CCCCC1c1cccnc1)c1ccc2cc(F)ccc2n1

>  <score_type>  (85) 
oracle

>  <origin>  (85) 
autodockgpu

>  <m_score__min__energy>  (85) 
-8.6300000000000008

>  <m_primary>  (85) 
energy

>  <rmsd>  (85) 
3.992414018632978

>  <m_score__min__rmsd>  (85) 
3.992414018632978

>  <meeko>  (85) 
{"free_energy": -6.94, "intermolecular_energy": -8.44, "internal_energy": -2.0, "cluster_size": 1, "cluster_id": 5, "rank_in_cluster": 1}

>  <energy>  (85) 
-7.43

>  <cluster_rmsd>  (85) 
1.52

>  <cluster>  (85) 
2

$$$$

     RDKit          3D

 50 53  0  0  0  0  0  0  0  0999 V2000
  140.1630   71.6300  221.0520 O   0  0  0  0  0  0  0  0  0  0  0  0
  139.9700   72.0650  222.2270 C   0  0  0  0  0  0  0  0  0  0  0  0
  139.7260   73.5020  222.3470 N   0  0  0  0  0  0  0  0  0  0  0  0
  139.7350   74.2270  221.1410 C   0  0  0  0  0  0  0  0  0  0  0  0
  140.7970   75.1760  220.8390 C   0  0  0  0  0  0  0  0  0  0  0  0
  141.4300   75.5890  221.9130 O   0  0  0  0  0  0  0  0  0  0  0  0
  141.2630   75.7200  219.6480 N   0  0  0  0  0  0  0  0  0  0  0  0
  140.5020   76.5590  218.7180 C   0  0  0  0  0  0  0  0  0  0  0  0
  141.4570   77.1630  217.6960 C   0  0  0  0  0  0  0  0  0  0  0  0
  142.7270   77.6840  218.2630 C   0  0  0  0  0  0  0  0  0  0  0  0
  143.3490   76.7600  219.3300 C   0  0  0  0  0  0  0  0  0  0  0  0
  142.6470   75.4700  219.1840 C   0  0  1  0  0  0  0  0  0  0  0  0
  143.2360   74.2720  219.7350 C   0  0  0  0  0  0  0  0  0  0  0  0
  144.4360   74.3940  220.4520 C   0  0  0  0  0  0  0  0  0  0  0  0
  144.9940   73.2500  220.9750 C   0  0  0  0  0  0  0  0  0  0  0  0
  144.3900   72.0100  220.8000 C   0  0  0  0  0  0  0  0  0  0  0  0
  143.2340   71.9170  220.1050 N   0  0  0  0  0  0  0  0  0  0  0  0
  142.6420   73.0180  219.5670 C   0  0  0  0  0  0  0  0  0  0  0  0
  139.9820   71.2300  223.4010 C   0  0  0  0  0  0  0  0  0  0  0  0
  139.5160   69.9470  223.2990 C   0  0  0  0  0  0  0  0  0  0  0  0
  139.5310   69.1630  224.4210 C   0  0  0  0  0  0  0  0  0  0  0  0
  139.9990   69.6420  225.6150 C   0  0  0  0  0  0  0  0  0  0  0  0
  140.0440   68.9090  226.7820 C   0  0  0  0  0  0  0  0  0  0  0  0
  140.5110   69.3930  227.9650 C   0  0  0  0  0  0  0  0  0  0  0  0
  140.5470   68.6600  229.0980 F   0  0  0  0  0  0  0  0  0  0  0  0
  140.9790   70.6970  228.0450 C   0  0  0  0  0  0  0  0  0  0  0  0
  140.9370   71.4350  226.8840 C   0  0  0  0  0  0  0  0  0  0  0  0
  140.4630   70.9430  225.6850 C   0  0  0  0  0  0  0  0  0  0  0  0
  140.4420   71.7020  224.5740 N   0  0  0  0  0  0  0  0  0  0  0  0
  139.5650   73.8040  223.3170 H   0  0  0  0  0  0  0  0  0  0  0  0
  139.7416   73.4835  220.3304 H   0  0  0  0  0  0  0  0  0  0  0  0
  138.8547   74.8782  221.2464 H   0  0  0  0  0  0  0  0  0  0  0  0
  139.7487   75.9463  218.2011 H   0  0  0  0  0  0  0  0  0  0  0  0
  139.9962   77.3628  219.2730 H   0  0  0  0  0  0  0  0  0  0  0  0
  141.7050   76.3858  216.9581 H   0  0  0  0  0  0  0  0  0  0  0  0
  140.9359   78.0269  217.2576 H   0  0  0  0  0  0  0  0  0  0  0  0
  143.4503   77.8055  217.4432 H   0  0  0  0  0  0  0  0  0  0  0  0
  142.4931   78.6382  218.7578 H   0  0  0  0  0  0  0  0  0  0  0  0
  144.4270   76.6347  219.1503 H   0  0  0  0  0  0  0  0  0  0  0  0
  143.2416   77.1733  220.3438 H   0  0  0  0  0  0  0  0  0  0  0  0
  142.7152   75.1850  218.1238 H   0  0  0  0  0  0  0  0  0  0  0  0
  144.9159   75.3739  220.5917 H   0  0  0  0  0  0  0  0  0  0  0  0
  145.9345   73.3178  221.5415 H   0  0  0  0  0  0  0  0  0  0  0  0
  144.8515   71.1069  221.2259 H   0  0  0  0  0  0  0  0  0  0  0  0
  141.7022   72.9216  219.0036 H   0  0  0  0  0  0  0  0  0  0  0  0
  139.1399   69.5567  222.3418 H   0  0  0  0  0  0  0  0  0  0  0  0
  139.1602   68.1291  224.3621 H   0  0  0  0  0  0  0  0  0  0  0  0
  139.6808   67.8711  226.7551 H   0  0  0  0  0  0  0  0  0  0  0  0
  141.3629   71.1182  228.9858 H   0  0  0  0  0  0  0  0  0  0  0  0
  141.3008   72.4727  226.9134 H   0  0  0  0  0  0  0  0  0  0  0  0
  1  2  2  0
  2  3  1  0
  3  4  1  0
  4  5  1  0
  5  6  2  0
  5  7  1  0
  7  8  1  0
  8  9  1  0
  9 10  1  0
 10 11  1  0
 11 12  1  0
 12 13  1  0
 13 14  2  0
 14 15  1  0
 15 16  2  0
 16 17  1  0
 17 18  2  0
  2 19  1  0
 19 20  2  0
 20 21  1  0
 21 22  2  0
 22 23  1  0
 23 24  2  0
 24 25  1  0
 24 26  1  0
 26 27  2  0
 27 28  1  0
 28 29  2  0
 12  7  1  0
 18 13  1  0
 29 19  1  0
 28 22  1  0
  3 30  1  0
  4 31  1  0
  4 32  1  0
  8 33  1  0
  8 34  1  0
  9 35  1  0
  9 36  1  0
 10 37  1  0
 10 38  1  0
 11 39  1  0
 11 40  1  0
 12 41  1  6
 14 42  1  0
 15 43  1  0
 16 44  1  0
 18 45  1  0
 20 46  1  0
 21 47  1  0
 23 48  1  0
 26 49  1  0
 27 50  1  0
M  END
>  <smiles>  (86) 
O=C(NCC(=O)N1CCCCC1c1cccnc1)c1ccc2cc(F)ccc2n1

>  <score_type>  (86) 
oracle

>  <origin>  (86) 
autodockgpu

>  <m_score__min__energy>  (86) 
-8.6300000000000008

>  <m_primary>  (86) 
energy

>  <rmsd>  (86) 
1.8272539996989214

>  <m_score__min__rmsd>  (86) 
1.8272539996989214

>  <meeko>  (86) 
{"free_energy": -7.68, "intermolecular_energy": -9.17, "internal_energy": -1.78, "cluster_size": 16, "cluster_id": 2, "rank_in_cluster": 10}

>  <energy>  (86) 
-7.17

>  <cluster_rmsd>  (86) 
0.0

>  <cluster>  (86) 
3

$$$$

     RDKit          3D

 50 53  0  0  0  0  0  0  0  0999 V2000
  141.4320   72.6320  221.6030 O   0  0  0  0  0  0  0  0  0  0  0  0
  140.4850   72.6830  222.4450 C   0  0  0  0  0  0  0  0  0  0  0  0
  139.5930   73.8380  222.3360 N   0  0  0  0  0  0  0  0  0  0  0  0
  139.8950   74.7510  221.3090 C   0  0  0  0  0  0  0  0  0  0  0  0
  140.9370   75.7550  221.4750 C   0  0  0  0  0  0  0  0  0  0  0  0
  141.0750   76.1430  222.7210 O   0  0  0  0  0  0  0  0  0  0  0  0
  141.8010   76.3720  220.5770 N   0  0  0  0  0  0  0  0  0  0  0  0
  142.7720   75.7040  219.7060 C   0  0  0  0  0  0  0  0  0  0  0  0
  143.3090   76.7100  218.6950 C   0  0  0  0  0  0  0  0  0  0  0  0
  142.2790   77.5910  218.0870 C   0  0  0  0  0  0  0  0  0  0  0  0
  141.2410   78.1140  219.1000 C   0  0  0  0  0  0  0  0  0  0  0  0
  141.8240   77.8450  220.4290 C   0  0  1  0  0  0  0  0  0  0  0  0
  141.3230   78.5520  221.5840 C   0  0  0  0  0  0  0  0  0  0  0  0
  142.2510   79.0200  222.5270 C   0  0  0  0  0  0  0  0  0  0  0  0
  141.7690   79.6940  223.6260 C   0  0  0  0  0  0  0  0  0  0  0  0
  140.4060   79.9060  223.7990 C   0  0  0  0  0  0  0  0  0  0  0  0
  139.5300   79.4460  222.8770 N   0  0  0  0  0  0  0  0  0  0  0  0
  139.9560   78.7730  221.7740 C   0  0  0  0  0  0  0  0  0  0  0  0
  140.2640   71.6890  223.4620 C   0  0  0  0  0  0  0  0  0  0  0  0
  139.5700   70.5550  223.1320 C   0  0  0  0  0  0  0  0  0  0  0  0
  139.3650   69.6170  224.1080 C   0  0  0  0  0  0  0  0  0  0  0  0
  139.8390   69.7990  225.3780 C   0  0  0  0  0  0  0  0  0  0  0  0
  139.6710   68.8960  226.4070 C   0  0  0  0  0  0  0  0  0  0  0  0
  140.1470   69.0850  227.6680 C   0  0  0  0  0  0  0  0  0  0  0  0
  139.9710   68.1890  228.6630 F   0  0  0  0  0  0  0  0  0  0  0  0
  140.8480   70.2400  227.9790 C   0  0  0  0  0  0  0  0  0  0  0  0
  141.0210   71.1460  226.9570 C   0  0  0  0  0  0  0  0  0  0  0  0
  140.5380   70.9540  225.6790 C   0  0  0  0  0  0  0  0  0  0  0  0
  140.7310   71.8680  224.7100 N   0  0  0  0  0  0  0  0  0  0  0  0
  138.8370   73.8290  223.0330 H   0  0  0  0  0  0  0  0  0  0  0  0
  140.1771   74.1510  220.4313 H   0  0  0  0  0  0  0  0  0  0  0  0
  138.9811   75.3606  221.2535 H   0  0  0  0  0  0  0  0  0  0  0  0
  143.6020   75.3119  220.3121 H   0  0  0  0  0  0  0  0  0  0  0  0
  142.2848   74.8713  219.1776 H   0  0  0  0  0  0  0  0  0  0  0  0
  144.0468   77.3470  219.2047 H   0  0  0  0  0  0  0  0  0  0  0  0
  143.7396   76.1220  217.8711 H   0  0  0  0  0  0  0  0  0  0  0  0
  142.7850   78.4542  217.6300 H   0  0  0  0  0  0  0  0  0  0  0  0
  141.7331   76.9874  217.3470 H   0  0  0  0  0  0  0  0  0  0  0  0
  141.0778   79.1930  218.9621 H   0  0  0  0  0  0  0  0  0  0  0  0
  140.2634   77.6256  218.9746 H   0  0  0  0  0  0  0  0  0  0  0  0
  142.8359   78.2764  220.4297 H   0  0  0  0  0  0  0  0  0  0  0  0
  143.3299   78.8534  222.3920 H   0  0  0  0  0  0  0  0  0  0  0  0
  142.4746   80.0715  224.3807 H   0  0  0  0  0  0  0  0  0  0  0  0
  140.0406   80.4470  224.6843 H   0  0  0  0  0  0  0  0  0  0  0  0
  139.2285   78.4048  221.0357 H   0  0  0  0  0  0  0  0  0  0  0  0
  139.1882   70.4023  222.1117 H   0  0  0  0  0  0  0  0  0  0  0  0
  138.8085   68.6995  223.8662 H   0  0  0  0  0  0  0  0  0  0  0  0
  139.1195   67.9679  226.1959 H   0  0  0  0  0  0  0  0  0  0  0  0
  141.2448   70.4227  228.9885 H   0  0  0  0  0  0  0  0  0  0  0  0
  141.5739   72.0726  227.1708 H   0  0  0  0  0  0  0  0  0  0  0  0
  1  2  2  0
  2  3  1  0
  3  4  1  0
  4  5  1  0
  5  6  2  0
  5  7  1  0
  7  8  1  0
  8  9  1  0
  9 10  1  0
 10 11  1  0
 11 12  1  0
 12 13  1  0
 13 14  2  0
 14 15  1  0
 15 16  2  0
 16 17  1  0
 17 18  2  0
  2 19  1  0
 19 20  2  0
 20 21  1  0
 21 22  2  0
 22 23  1  0
 23 24  2  0
 24 25  1  0
 24 26  1  0
 26 27  2  0
 27 28  1  0
 28 29  2  0
 12  7  1  0
 18 13  1  0
 29 19  1  0
 28 22  1  0
  3 30  1  0
  4 31  1  0
  4 32  1  0
  8 33  1  0
  8 34  1  0
  9 35  1  0
  9 36  1  0
 10 37  1  0
 10 38  1  0
 11 39  1  0
 11 40  1  0
 12 41  1  6
 14 42  1  0
 15 43  1  0
 16 44  1  0
 18 45  1  0
 20 46  1  0
 21 47  1  0
 23 48  1  0
 26 49  1  0
 27 50  1  0
M  END
>  <smiles>  (87) 
O=C(NCC(=O)N1CCCCC1c1cccnc1)c1ccc2cc(F)ccc2n1

>  <score_type>  (87) 
oracle

>  <origin>  (87) 
autodockgpu

>  <m_score__min__energy>  (87) 
-8.6300000000000008

>  <m_primary>  (87) 
energy

>  <rmsd>  (87) 
2.12494430144129

>  <m_score__min__rmsd>  (87) 
2.12494430144129

>  <meeko>  (87) 
{"free_energy": -8.6, "intermolecular_energy": -10.09, "internal_energy": -1.16, "cluster_size": 19, "cluster_id": 1, "rank_in_cluster": 3}

>  <energy>  (87) 
-7.12

>  <cluster_rmsd>  (87) 
0.58

>  <cluster>  (87) 
3

$$$$

     RDKit          3D

 50 53  0  0  0  0  0  0  0  0999 V2000
  139.1380   74.8970  221.4160 O   0  0  0  0  0  0  0  0  0  0  0  0
  140.3800   75.0700  221.6070 C   0  0  0  0  0  0  0  0  0  0  0  0
  140.7580   76.3170  222.2720 N   0  0  0  0  0  0  0  0  0  0  0  0
  139.6960   77.1730  222.6180 C   0  0  0  0  0  0  0  0  0  0  0  0
  139.7210   78.5860  222.2710 C   0  0  0  0  0  0  0  0  0  0  0  0
  138.7060   78.9430  221.5180 O   0  0  0  0  0  0  0  0  0  0  0  0
  140.6030   79.6160  222.5810 N   0  0  0  0  0  0  0  0  0  0  0  0
  140.4280   80.6240  223.6300 C   0  0  0  0  0  0  0  0  0  0  0  0
  141.7370   81.3830  223.8140 C   0  0  0  0  0  0  0  0  0  0  0  0
  142.9530   80.5310  223.8270 C   0  0  0  0  0  0  0  0  0  0  0  0
  142.9400   79.4240  222.7540 C   0  0  0  0  0  0  0  0  0  0  0  0
  141.8600   79.7990  221.8200 C   0  0  1  0  0  0  0  0  0  0  0  0
  141.8280   79.2210  220.4970 C   0  0  0  0  0  0  0  0  0  0  0  0
  142.2040   77.8770  220.3540 C   0  0  0  0  0  0  0  0  0  0  0  0
  142.1730   77.3300  219.0920 C   0  0  0  0  0  0  0  0  0  0  0  0
  141.7800   78.0830  217.9910 C   0  0  0  0  0  0  0  0  0  0  0  0
  141.4220   79.3770  218.1530 N   0  0  0  0  0  0  0  0  0  0  0  0
  141.4370   79.9640  219.3810 C   0  0  0  0  0  0  0  0  0  0  0  0
  141.3900   74.1240  221.2100 C   0  0  0  0  0  0  0  0  0  0  0  0
  141.0290   72.8160  221.0260 C   0  0  0  0  0  0  0  0  0  0  0  0
  141.9970   71.9250  220.6490 C   0  0  0  0  0  0  0  0  0  0  0  0
  143.2930   72.3240  220.4590 C   0  0  0  0  0  0  0  0  0  0  0  0
  144.3170   71.4820  220.0790 C   0  0  0  0  0  0  0  0  0  0  0  0
  145.6020   71.8880  219.8910 C   0  0  0  0  0  0  0  0  0  0  0  0
  146.5920   71.0480  219.5200 F   0  0  0  0  0  0  0  0  0  0  0  0
  145.9450   73.2180  220.0830 C   0  0  0  0  0  0  0  0  0  0  0  0
  144.9280   74.0640  220.4620 C   0  0  0  0  0  0  0  0  0  0  0  0
  143.6250   73.6530  220.6520 C   0  0  0  0  0  0  0  0  0  0  0  0
  142.6620   74.5160  221.0220 N   0  0  0  0  0  0  0  0  0  0  0  0
  141.7730   76.4060  222.4130 H   0  0  0  0  0  0  0  0  0  0  0  0
  138.7929   76.7535  222.1506 H   0  0  0  0  0  0  0  0  0  0  0  0
  139.7554   77.1956  223.7162 H   0  0  0  0  0  0  0  0  0  0  0  0
  139.6329   81.3258  223.3378 H   0  0  0  0  0  0  0  0  0  0  0  0
  140.1480   80.1329  224.5736 H   0  0  0  0  0  0  0  0  0  0  0  0
  141.8333   82.1045  222.9893 H   0  0  0  0  0  0  0  0  0  0  0  0
  141.6822   81.8605  224.8035 H   0  0  0  0  0  0  0  0  0  0  0  0
  143.8296   81.1727  223.6545 H   0  0  0  0  0  0  0  0  0  0  0  0
  142.9877   80.0317  224.8065 H   0  0  0  0  0  0  0  0  0  0  0  0
  143.9062   79.3843  222.2297 H   0  0  0  0  0  0  0  0  0  0  0  0
  142.7750   78.4291  223.1933 H   0  0  0  0  0  0  0  0  0  0  0  0
  142.0464   80.8384  221.5121 H   0  0  0  0  0  0  0  0  0  0  0  0
  142.5139   77.2792  221.2238 H   0  0  0  0  0  0  0  0  0  0  0  0
  142.4642   76.2786  218.9515 H   0  0  0  0  0  0  0  0  0  0  0  0
  141.7603   77.6270  216.9902 H   0  0  0  0  0  0  0  0  0  0  0  0
  141.1427   81.0179  219.4938 H   0  0  0  0  0  0  0  0  0  0  0  0
  139.9893   72.4903  221.1771 H   0  0  0  0  0  0  0  0  0  0  0  0
  141.7290   70.8692  220.4958 H   0  0  0  0  0  0  0  0  0  0  0  0
  144.0810   70.4197  219.9184 H   0  0  0  0  0  0  0  0  0  0  0  0
  146.9748   73.5774  219.9400 H   0  0  0  0  0  0  0  0  0  0  0  0
  145.1671   75.1257  220.6222 H   0  0  0  0  0  0  0  0  0  0  0  0
  1  2  2  0
  2  3  1  0
  3  4  1  0
  4  5  1  0
  5  6  2  0
  5  7  1  0
  7  8  1  0
  8  9  1  0
  9 10  1  0
 10 11  1  0
 11 12  1  0
 12 13  1  0
 13 14  2  0
 14 15  1  0
 15 16  2  0
 16 17  1  0
 17 18  2  0
  2 19  1  0
 19 20  2  0
 20 21  1  0
 21 22  2  0
 22 23  1  0
 23 24  2  0
 24 25  1  0
 24 26  1  0
 26 27  2  0
 27 28  1  0
 28 29  2  0
 12  7  1  0
 18 13  1  0
 29 19  1  0
 28 22  1  0
  3 30  1  0
  4 31  1  0
  4 32  1  0
  8 33  1  0
  8 34  1  0
  9 35  1  0
  9 36  1  0
 10 37  1  0
 10 38  1  0
 11 39  1  0
 11 40  1  0
 12 41  1  6
 14 42  1  0
 15 43  1  0
 16 44  1  0
 18 45  1  0
 20 46  1  0
 21 47  1  0
 23 48  1  0
 26 49  1  0
 27 50  1  0
M  END
>  <smiles>  (88) 
O=C(NCC(=O)N1CCCCC1c1cccnc1)c1ccc2cc(F)ccc2n1

>  <score_type>  (88) 
oracle

>  <origin>  (88) 
autodockgpu

>  <m_score__min__energy>  (88) 
-8.6300000000000008

>  <m_primary>  (88) 
energy

>  <rmsd>  (88) 
6.695845246230159

>  <m_score__min__rmsd>  (88) 
6.695845246230159

>  <meeko>  (88) 
{"free_energy": -7.09, "intermolecular_energy": -8.58, "internal_energy": -2.04, "cluster_size": 8, "cluster_id": 3, "rank_in_cluster": 6}

>  <energy>  (88) 
-7.1

>  <cluster_rmsd>  (88) 
0.56

>  <cluster>  (88) 
3

$$$$

     RDKit          3D

 50 53  0  0  0  0  0  0  0  0999 V2000
  140.5390   71.5930  221.1150 O   0  0  0  0  0  0  0  0  0  0  0  0
  140.0890   71.9730  222.2380 C   0  0  0  0  0  0  0  0  0  0  0  0
  139.5920   73.3480  222.2970 N   0  0  0  0  0  0  0  0  0  0  0  0
  139.6730   74.0810  221.0990 C   0  0  0  0  0  0  0  0  0  0  0  0
  140.7580   75.0220  220.8630 C   0  0  0  0  0  0  0  0  0  0  0  0
  141.4410   75.2950  221.9510 O   0  0  0  0  0  0  0  0  0  0  0  0
  141.2040   75.6780  219.7210 N   0  0  0  0  0  0  0  0  0  0  0  0
  140.4190   76.5810  218.8750 C   0  0  0  0  0  0  0  0  0  0  0  0
  141.3550   77.2920  217.9040 C   0  0  0  0  0  0  0  0  0  0  0  0
  142.6200   77.7840  218.5060 C   0  0  0  0  0  0  0  0  0  0  0  0
  143.2670   76.7820  219.4820 C   0  0  0  0  0  0  0  0  0  0  0  0
  142.5880   75.4960  219.2280 C   0  0  1  0  0  0  0  0  0  0  0  0
  143.2040   74.2650  219.6660 C   0  0  0  0  0  0  0  0  0  0  0  0
  144.3720   74.3490  220.4390 C   0  0  0  0  0  0  0  0  0  0  0  0
  144.9560   73.1740  220.8550 C   0  0  0  0  0  0  0  0  0  0  0  0
  144.4070   71.9410  220.5210 C   0  0  0  0  0  0  0  0  0  0  0  0
  143.2810   71.8850  219.7740 N   0  0  0  0  0  0  0  0  0  0  0  0
  142.6660   73.0180  219.3380 C   0  0  0  0  0  0  0  0  0  0  0  0
  140.0510   71.1360  223.4090 C   0  0  0  0  0  0  0  0  0  0  0  0
  139.5070   69.8840  223.3040 C   0  0  0  0  0  0  0  0  0  0  0  0
  139.4760   69.0970  224.4240 C   0  0  0  0  0  0  0  0  0  0  0  0
  139.9740   69.5430  225.6180 C   0  0  0  0  0  0  0  0  0  0  0  0
  139.9750   68.8060  226.7830 C   0  0  0  0  0  0  0  0  0  0  0  0
  140.4730   69.2570  227.9670 C   0  0  0  0  0  0  0  0  0  0  0  0
  140.4650   68.5190  229.0980 F   0  0  0  0  0  0  0  0  0  0  0  0
  141.0200   70.5290  228.0500 C   0  0  0  0  0  0  0  0  0  0  0  0
  141.0210   71.2710  226.8910 C   0  0  0  0  0  0  0  0  0  0  0  0
  140.5170   70.8130  225.6910 C   0  0  0  0  0  0  0  0  0  0  0  0
  140.5410   71.5750  224.5820 N   0  0  0  0  0  0  0  0  0  0  0  0
  139.2290   73.6040  223.2250 H   0  0  0  0  0  0  0  0  0  0  0  0
  139.7175   73.3431  220.2844 H   0  0  0  0  0  0  0  0  0  0  0  0
  138.7939   74.7392  221.1607 H   0  0  0  0  0  0  0  0  0  0  0  0
  139.6730   76.0021  218.3108 H   0  0  0  0  0  0  0  0  0  0  0  0
  139.9023   77.3221  219.5025 H   0  0  0  0  0  0  0  0  0  0  0  0
  141.6106   76.5885  217.0979 H   0  0  0  0  0  0  0  0  0  0  0  0
  140.8147   78.1817  217.5485 H   0  0  0  0  0  0  0  0  0  0  0  0
  143.3340   77.9908  217.6952 H   0  0  0  0  0  0  0  0  0  0  0  0
  142.3733   78.6862  219.0850 H   0  0  0  0  0  0  0  0  0  0  0  0
  144.3455   76.6937  219.2846 H   0  0  0  0  0  0  0  0  0  0  0  0
  143.1599   77.1022  220.5289 H   0  0  0  0  0  0  0  0  0  0  0  0
  142.6529   75.3062  218.1464 H   0  0  0  0  0  0  0  0  0  0  0  0
  144.8075   75.3237  220.7043 H   0  0  0  0  0  0  0  0  0  0  0  0
  145.8726   73.2111  221.4620 H   0  0  0  0  0  0  0  0  0  0  0  0
  144.8876   71.0128  220.8637 H   0  0  0  0  0  0  0  0  0  0  0  0
  141.7509   72.9524  218.7311 H   0  0  0  0  0  0  0  0  0  0  0  0
  139.1060   69.5204  222.3464 H   0  0  0  0  0  0  0  0  0  0  0  0
  139.0428   68.0877  224.3629 H   0  0  0  0  0  0  0  0  0  0  0  0
  139.5478   67.7928  226.7542 H   0  0  0  0  0  0  0  0  0  0  0  0
  141.4307   70.9232  228.9912 H   0  0  0  0  0  0  0  0  0  0  0  0
  141.4469   72.2847  226.9230 H   0  0  0  0  0  0  0  0  0  0  0  0
  1  2  2  0
  2  3  1  0
  3  4  1  0
  4  5  1  0
  5  6  2  0
  5  7  1  0
  7  8  1  0
  8  9  1  0
  9 10  1  0
 10 11  1  0
 11 12  1  0
 12 13  1  0
 13 14  2  0
 14 15  1  0
 15 16  2  0
 16 17  1  0
 17 18  2  0
  2 19  1  0
 19 20  2  0
 20 21  1  0
 21 22  2  0
 22 23  1  0
 23 24  2  0
 24 25  1  0
 24 26  1  0
 26 27  2  0
 27 28  1  0
 28 29  2  0
 12  7  1  0
 18 13  1  0
 29 19  1  0
 28 22  1  0
  3 30  1  0
  4 31  1  0
  4 32  1  0
  8 33  1  0
  8 34  1  0
  9 35  1  0
  9 36  1  0
 10 37  1  0
 10 38  1  0
 11 39  1  0
 11 40  1  0
 12 41  1  6
 14 42  1  0
 15 43  1  0
 16 44  1  0
 18 45  1  0
 20 46  1  0
 21 47  1  0
 23 48  1  0
 26 49  1  0
 27 50  1  0
M  END
>  <smiles>  (89) 
O=C(NCC(=O)N1CCCCC1c1cccnc1)c1ccc2cc(F)ccc2n1

>  <score_type>  (89) 
oracle

>  <origin>  (89) 
autodockgpu

>  <m_score__min__energy>  (89) 
-8.6300000000000008

>  <m_primary>  (89) 
energy

>  <rmsd>  (89) 
1.8117796621696354

>  <m_score__min__rmsd>  (89) 
1.8117796621696354

>  <meeko>  (89) 
{"free_energy": -7.77, "intermolecular_energy": -9.26, "internal_energy": -1.69, "cluster_size": 16, "cluster_id": 2, "rank_in_cluster": 6}

>  <energy>  (89) 
-7.1

>  <cluster_rmsd>  (89) 
0.33

>  <cluster>  (89) 
3

$$$$

     RDKit          3D

 50 53  0  0  0  0  0  0  0  0999 V2000
  140.2480   71.7000  221.0680 O   0  0  0  0  0  0  0  0  0  0  0  0
  139.9860   72.1170  222.2370 C   0  0  0  0  0  0  0  0  0  0  0  0
  139.6620   73.5390  222.3520 N   0  0  0  0  0  0  0  0  0  0  0  0
  139.6800   74.2710  221.1500 C   0  0  0  0  0  0  0  0  0  0  0  0
  140.7710   75.1820  220.8380 C   0  0  0  0  0  0  0  0  0  0  0  0
  141.4440   75.5530  221.9030 O   0  0  0  0  0  0  0  0  0  0  0  0
  141.2310   75.7270  219.6440 N   0  0  0  0  0  0  0  0  0  0  0  0
  140.4570   76.5440  218.7060 C   0  0  0  0  0  0  0  0  0  0  0  0
  141.4040   77.1600  217.6830 C   0  0  0  0  0  0  0  0  0  0  0  0
  142.6620   77.7080  218.2510 C   0  0  0  0  0  0  0  0  0  0  0  0
  143.2970   76.8030  219.3260 C   0  0  0  0  0  0  0  0  0  0  0  0
  142.6200   75.4990  219.1860 C   0  0  1  0  0  0  0  0  0  0  0  0
  143.2300   74.3160  219.7470 C   0  0  0  0  0  0  0  0  0  0  0  0
  144.4310   74.4640  220.4580 C   0  0  0  0  0  0  0  0  0  0  0  0
  145.0090   73.3350  220.9910 C   0  0  0  0  0  0  0  0  0  0  0  0
  144.4230   72.0840  220.8320 C   0  0  0  0  0  0  0  0  0  0  0  0
  143.2660   71.9650  220.1430 N   0  0  0  0  0  0  0  0  0  0  0  0
  142.6550   73.0520  219.5960 C   0  0  0  0  0  0  0  0  0  0  0  0
  139.9960   71.2780  223.4070 C   0  0  0  0  0  0  0  0  0  0  0  0
  139.5460   69.9890  223.2950 C   0  0  0  0  0  0  0  0  0  0  0  0
  139.5590   69.2010  224.4140 C   0  0  0  0  0  0  0  0  0  0  0  0
  140.0100   69.6800  225.6140 C   0  0  0  0  0  0  0  0  0  0  0  0
  140.0530   68.9420  226.7780 C   0  0  0  0  0  0  0  0  0  0  0  0
  140.5030   69.4270  227.9680 C   0  0  0  0  0  0  0  0  0  0  0  0
  140.5360   68.6880  229.0980 F   0  0  0  0  0  0  0  0  0  0  0  0
  140.9550   70.7350  228.0580 C   0  0  0  0  0  0  0  0  0  0  0  0
  140.9160   71.4780  226.8990 C   0  0  0  0  0  0  0  0  0  0  0  0
  140.4590   70.9860  225.6940 C   0  0  0  0  0  0  0  0  0  0  0  0
  140.4400   71.7490  224.5860 N   0  0  0  0  0  0  0  0  0  0  0  0
  139.4480   73.8260  223.3160 H   0  0  0  0  0  0  0  0  0  0  0  0
  139.6475   73.5329  220.3350 H   0  0  0  0  0  0  0  0  0  0  0  0
  138.8258   74.9532  221.2722 H   0  0  0  0  0  0  0  0  0  0  0  0
  139.7179   75.9129  218.1907 H   0  0  0  0  0  0  0  0  0  0  0  0
  139.9331   77.3413  219.2536 H   0  0  0  0  0  0  0  0  0  0  0  0
  141.6689   76.3833  216.9505 H   0  0  0  0  0  0  0  0  0  0  0  0
  140.8682   78.0113  217.2377 H   0  0  0  0  0  0  0  0  0  0  0  0
  143.3859   77.8375  217.4330 H   0  0  0  0  0  0  0  0  0  0  0  0
  142.4087   78.6609  218.7387 H   0  0  0  0  0  0  0  0  0  0  0  0
  144.3778   76.6969  219.1511 H   0  0  0  0  0  0  0  0  0  0  0  0
  143.1779   77.2207  220.3366 H   0  0  0  0  0  0  0  0  0  0  0  0
  142.6965   75.2074  218.1281 H   0  0  0  0  0  0  0  0  0  0  0  0
  144.8961   75.4527  220.5852 H   0  0  0  0  0  0  0  0  0  0  0  0
  145.9508   73.4234  221.5525 H   0  0  0  0  0  0  0  0  0  0  0  0
  144.9000   71.1929  221.2661 H   0  0  0  0  0  0  0  0  0  0  0  0
  141.7140   72.9354  219.0384 H   0  0  0  0  0  0  0  0  0  0  0  0
  139.1843   69.5981  222.3325 H   0  0  0  0  0  0  0  0  0  0  0  0
  139.2002   68.1633  224.3475 H   0  0  0  0  0  0  0  0  0  0  0  0
  139.7030   67.8997  226.7431 H   0  0  0  0  0  0  0  0  0  0  0  0
  141.3248   71.1565  229.0043 H   0  0  0  0  0  0  0  0  0  0  0  0
  141.2681   72.5195  226.9362 H   0  0  0  0  0  0  0  0  0  0  0  0
  1  2  2  0
  2  3  1  0
  3  4  1  0
  4  5  1  0
  5  6  2  0
  5  7  1  0
  7  8  1  0
  8  9  1  0
  9 10  1  0
 10 11  1  0
 11 12  1  0
 12 13  1  0
 13 14  2  0
 14 15  1  0
 15 16  2  0
 16 17  1  0
 17 18  2  0
  2 19  1  0
 19 20  2  0
 20 21  1  0
 21 22  2  0
 22 23  1  0
 23 24  2  0
 24 25  1  0
 24 26  1  0
 26 27  2  0
 27 28  1  0
 28 29  2  0
 12  7  1  0
 18 13  1  0
 29 19  1  0
 28 22  1  0
  3 30  1  0
  4 31  1  0
  4 32  1  0
  8 33  1  0
  8 34  1  0
  9 35  1  0
  9 36  1  0
 10 37  1  0
 10 38  1  0
 11 39  1  0
 11 40  1  0
 12 41  1  6
 14 42  1  0
 15 43  1  0
 16 44  1  0
 18 45  1  0
 20 46  1  0
 21 47  1  0
 23 48  1  0
 26 49  1  0
 27 50  1  0
M  END
>  <smiles>  (90) 
O=C(NCC(=O)N1CCCCC1c1cccnc1)c1ccc2cc(F)ccc2n1

>  <score_type>  (90) 
oracle

>  <origin>  (90) 
autodockgpu

>  <m_score__min__energy>  (90) 
-8.6300000000000008

>  <m_primary>  (90) 
energy

>  <rmsd>  (90) 
1.8115890170366244

>  <m_score__min__rmsd>  (90) 
1.8115890170366244

>  <meeko>  (90) 
{"free_energy": -7.7, "intermolecular_energy": -9.19, "internal_energy": -1.75, "cluster_size": 16, "cluster_id": 2, "rank_in_cluster": 8}

>  <energy>  (90) 
-7.1

>  <cluster_rmsd>  (90) 
0.37

>  <cluster>  (90) 
3

$$$$

     RDKit          3D

 50 53  0  0  0  0  0  0  0  0999 V2000
  140.5620   77.0520  218.4900 O   0  0  0  0  0  0  0  0  0  0  0  0
  141.7130   76.9900  219.0190 C   0  0  0  0  0  0  0  0  0  0  0  0
  142.2000   78.2220  219.6400 N   0  0  0  0  0  0  0  0  0  0  0  0
  141.3300   79.3270  219.5740 C   0  0  0  0  0  0  0  0  0  0  0  0
  140.0320   79.3050  220.2330 C   0  0  0  0  0  0  0  0  0  0  0  0
  139.2780   80.3290  219.9050 O   0  0  0  0  0  0  0  0  0  0  0  0
  139.4460   78.4180  221.1290 N   0  0  0  0  0  0  0  0  0  0  0  0
  138.2140   77.6540  220.9170 C   0  0  0  0  0  0  0  0  0  0  0  0
  138.0810   76.6080  222.0180 C   0  0  0  0  0  0  0  0  0  0  0  0
  139.3360   75.8820  222.3410 C   0  0  0  0  0  0  0  0  0  0  0  0
  140.5770   76.7940  222.4000 C   0  0  0  0  0  0  0  0  0  0  0  0
  140.0460   78.1700  222.4600 C   0  0  1  0  0  0  0  0  0  0  0  0
  140.8960   79.2420  222.9230 C   0  0  0  0  0  0  0  0  0  0  0  0
  142.2830   79.1030  222.7640 C   0  0  0  0  0  0  0  0  0  0  0  0
  143.0900   80.1260  223.2070 C   0  0  0  0  0  0  0  0  0  0  0  0
  142.5490   81.2650  223.7920 C   0  0  0  0  0  0  0  0  0  0  0  0
  141.2090   81.3780  223.9350 N   0  0  0  0  0  0  0  0  0  0  0  0
  140.3690   80.3930  223.5140 C   0  0  0  0  0  0  0  0  0  0  0  0
  142.5250   75.8010  219.0310 C   0  0  0  0  0  0  0  0  0  0  0  0
  142.2430   74.8050  218.1350 C   0  0  0  0  0  0  0  0  0  0  0  0
  143.0220   73.6790  218.1560 C   0  0  0  0  0  0  0  0  0  0  0  0
  144.0550   73.5470  219.0440 C   0  0  0  0  0  0  0  0  0  0  0  0
  144.8780   72.4430  219.1190 C   0  0  0  0  0  0  0  0  0  0  0  0
  145.9040   72.3210  220.0050 C   0  0  0  0  0  0  0  0  0  0  0  0
  146.6990   71.2310  220.0640 F   0  0  0  0  0  0  0  0  0  0  0  0
  146.1710   73.3430  220.9030 C   0  0  0  0  0  0  0  0  0  0  0  0
  145.3530   74.4480  220.8340 C   0  0  0  0  0  0  0  0  0  0  0  0
  144.3140   74.5720  219.9350 C   0  0  0  0  0  0  0  0  0  0  0  0
  143.5400   75.6730  219.9030 N   0  0  0  0  0  0  0  0  0  0  0  0
  143.1310   78.1180  220.0630 H   0  0  0  0  0  0  0  0  0  0  0  0
  141.8792   80.1819  219.9954 H   0  0  0  0  0  0  0  0  0  0  0  0
  141.0576   79.3545  218.5086 H   0  0  0  0  0  0  0  0  0  0  0  0
  137.3493   78.3332  220.9476 H   0  0  0  0  0  0  0  0  0  0  0  0
  138.2496   77.1575  219.9361 H   0  0  0  0  0  0  0  0  0  0  0  0
  137.7335   77.1140  222.9308 H   0  0  0  0  0  0  0  0  0  0  0  0
  137.3733   75.8531  221.6447 H   0  0  0  0  0  0  0  0  0  0  0  0
  139.2146   75.3957  223.3202 H   0  0  0  0  0  0  0  0  0  0  0  0
  139.5066   75.1560  221.5324 H   0  0  0  0  0  0  0  0  0  0  0  0
  141.1758   76.5726  223.2958 H   0  0  0  0  0  0  0  0  0  0  0  0
  141.2365   76.6462  221.5321 H   0  0  0  0  0  0  0  0  0  0  0  0
  139.3207   78.2000  223.2865 H   0  0  0  0  0  0  0  0  0  0  0  0
  142.7126   78.2033  222.2992 H   0  0  0  0  0  0  0  0  0  0  0  0
  144.1811   80.0409  223.0963 H   0  0  0  0  0  0  0  0  0  0  0  0
  143.2099   82.0733  224.1382 H   0  0  0  0  0  0  0  0  0  0  0  0
  139.2816   80.5027  223.6384 H   0  0  0  0  0  0  0  0  0  0  0  0
  141.4144   74.9064  217.4187 H   0  0  0  0  0  0  0  0  0  0  0  0
  142.8136   72.8653  217.4458 H   0  0  0  0  0  0  0  0  0  0  0  0
  144.6945   71.6122  218.4218 H   0  0  0  0  0  0  0  0  0  0  0  0
  146.9924   73.2746  221.6315 H   0  0  0  0  0  0  0  0  0  0  0  0
  145.5377   75.2767  221.5333 H   0  0  0  0  0  0  0  0  0  0  0  0
  1  2  2  0
  2  3  1  0
  3  4  1  0
  4  5  1  0
  5  6  2  0
  5  7  1  0
  7  8  1  0
  8  9  1  0
  9 10  1  0
 10 11  1  0
 11 12  1  0
 12 13  1  0
 13 14  2  0
 14 15  1  0
 15 16  2  0
 16 17  1  0
 17 18  2  0
  2 19  1  0
 19 20  2  0
 20 21  1  0
 21 22  2  0
 22 23  1  0
 23 24  2  0
 24 25  1  0
 24 26  1  0
 26 27  2  0
 27 28  1  0
 28 29  2  0
 12  7  1  0
 18 13  1  0
 29 19  1  0
 28 22  1  0
  3 30  1  0
  4 31  1  0
  4 32  1  0
  8 33  1  0
  8 34  1  0
  9 35  1  0
  9 36  1  0
 10 37  1  0
 10 38  1  0
 11 39  1  0
 11 40  1  0
 12 41  1  1
 14 42  1  0
 15 43  1  0
 16 44  1  0
 18 45  1  0
 20 46  1  0
 21 47  1  0
 23 48  1  0
 26 49  1  0
 27 50  1  0
M  END
>  <smiles>  (91) 
O=C(NCC(=O)N1CCCCC1c1cccnc1)c1ccc2cc(F)ccc2n1

>  <score_type>  (91) 
oracle

>  <origin>  (91) 
autodockgpu

>  <m_score__min__energy>  (91) 
-8.6300000000000008

>  <m_primary>  (91) 
energy

>  <rmsd>  (91) 
7.156451894822222

>  <m_score__min__rmsd>  (91) 
7.156451894822222

>  <meeko>  (91) 
{"free_energy": -6.79, "intermolecular_energy": -8.28, "internal_energy": -2.26, "cluster_size": 4, "cluster_id": 6, "rank_in_cluster": 3}

>  <energy>  (91) 
-7.09

>  <cluster_rmsd>  (91) 
0.26

>  <cluster>  (91) 
3

$$$$

     RDKit          3D

 50 53  0  0  0  0  0  0  0  0999 V2000
  139.6570   73.7650  222.4180 O   0  0  0  0  0  0  0  0  0  0  0  0
  140.0720   72.5730  222.2940 C   0  0  0  0  0  0  0  0  0  0  0  0
  140.5600   72.1990  220.9650 N   0  0  0  0  0  0  0  0  0  0  0  0
  140.5080   73.2100  219.9870 C   0  0  0  0  0  0  0  0  0  0  0  0
  141.6540   73.4960  219.1370 C   0  0  0  0  0  0  0  0  0  0  0  0
  142.3710   72.4280  218.8740 O   0  0  0  0  0  0  0  0  0  0  0  0
  142.1270   74.6670  218.5570 N   0  0  0  0  0  0  0  0  0  0  0  0
  141.4210   75.5010  217.5800 C   0  0  0  0  0  0  0  0  0  0  0  0
  142.1680   76.8200  217.4200 C   0  0  0  0  0  0  0  0  0  0  0  0
  142.6300   77.4320  218.6910 C   0  0  0  0  0  0  0  0  0  0  0  0
  143.2290   76.4140  219.6820 C   0  0  0  0  0  0  0  0  0  0  0  0
  143.4710   75.1940  218.8880 C   0  0  1  0  0  0  0  0  0  0  0  0
  144.3830   74.1890  219.3840 C   0  0  0  0  0  0  0  0  0  0  0  0
  144.5340   74.0620  220.7730 C   0  0  0  0  0  0  0  0  0  0  0  0
  145.4040   73.1040  221.2420 C   0  0  0  0  0  0  0  0  0  0  0  0
  146.1110   72.2850  220.3680 C   0  0  0  0  0  0  0  0  0  0  0  0
  145.9480   72.4260  219.0330 N   0  0  0  0  0  0  0  0  0  0  0  0
  145.1010   73.3590  218.5190 C   0  0  0  0  0  0  0  0  0  0  0  0
  140.0820   71.6130  223.3670 C   0  0  0  0  0  0  0  0  0  0  0  0
  139.6140   70.3490  223.1210 C   0  0  0  0  0  0  0  0  0  0  0  0
  139.6280   69.4450  224.1490 C   0  0  0  0  0  0  0  0  0  0  0  0
  140.0950   69.7870  225.3890 C   0  0  0  0  0  0  0  0  0  0  0  0
  140.1380   68.9280  226.4670 C   0  0  0  0  0  0  0  0  0  0  0  0
  140.6050   69.2760  227.6970 C   0  0  0  0  0  0  0  0  0  0  0  0
  140.6390   68.4200  228.7400 F   0  0  0  0  0  0  0  0  0  0  0  0
  141.0740   70.5620  227.9220 C   0  0  0  0  0  0  0  0  0  0  0  0
  141.0340   71.4250  226.8510 C   0  0  0  0  0  0  0  0  0  0  0  0
  140.5610   71.0710  225.6040 C   0  0  0  0  0  0  0  0  0  0  0  0
  140.5410   71.9490  224.5850 N   0  0  0  0  0  0  0  0  0  0  0  0
  140.8940   71.2280  220.9190 H   0  0  0  0  0  0  0  0  0  0  0  0
  139.6776   72.9503  219.3139 H   0  0  0  0  0  0  0  0  0  0  0  0
  140.4240   74.1248  220.5920 H   0  0  0  0  0  0  0  0  0  0  0  0
  141.3806   74.9804  216.6118 H   0  0  0  0  0  0  0  0  0  0  0  0
  140.3961   75.6949  217.9292 H   0  0  0  0  0  0  0  0  0  0  0  0
  143.0493   76.6395  216.7869 H   0  0  0  0  0  0  0  0  0  0  0  0
  141.4531   77.5289  216.9769 H   0  0  0  0  0  0  0  0  0  0  0  0
  143.3986   78.1832  218.4565 H   0  0  0  0  0  0  0  0  0  0  0  0
  141.7477   77.8750  219.1761 H   0  0  0  0  0  0  0  0  0  0  0  0
  144.1721   76.7939  220.1018 H   0  0  0  0  0  0  0  0  0  0  0  0
  142.5564   76.2239  220.5314 H   0  0  0  0  0  0  0  0  0  0  0  0
  144.0595   75.4942  218.0085 H   0  0  0  0  0  0  0  0  0  0  0  0
  143.9745   74.7079  221.4657 H   0  0  0  0  0  0  0  0  0  0  0  0
  145.5425   72.9841  222.3266 H   0  0  0  0  0  0  0  0  0  0  0  0
  146.8011   71.5243  220.7618 H   0  0  0  0  0  0  0  0  0  0  0  0
  144.9824   73.4591  217.4300 H   0  0  0  0  0  0  0  0  0  0  0  0
  139.2378   70.0686  222.1261 H   0  0  0  0  0  0  0  0  0  0  0  0
  139.2568   68.4243  223.9749 H   0  0  0  0  0  0  0  0  0  0  0  0
  139.7731   67.9002  226.3241 H   0  0  0  0  0  0  0  0  0  0  0  0
  141.4575   70.8752  228.9043 H   0  0  0  0  0  0  0  0  0  0  0  0
  141.3987   72.4525  226.9968 H   0  0  0  0  0  0  0  0  0  0  0  0
  1  2  2  0
  2  3  1  0
  3  4  1  0
  4  5  1  0
  5  6  2  0
  5  7  1  0
  7  8  1  0
  8  9  1  0
  9 10  1  0
 10 11  1  0
 11 12  1  0
 12 13  1  0
 13 14  2  0
 14 15  1  0
 15 16  2  0
 16 17  1  0
 17 18  2  0
  2 19  1  0
 19 20  2  0
 20 21  1  0
 21 22  2  0
 22 23  1  0
 23 24  2  0
 24 25  1  0
 24 26  1  0
 26 27  2  0
 27 28  1  0
 28 29  2  0
 12  7  1  0
 18 13  1  0
 29 19  1  0
 28 22  1  0
  3 30  1  0
  4 31  1  0
  4 32  1  0
  8 33  1  0
  8 34  1  0
  9 35  1  0
  9 36  1  0
 10 37  1  0
 10 38  1  0
 11 39  1  0
 11 40  1  0
 12 41  1  6
 14 42  1  0
 15 43  1  0
 16 44  1  0
 18 45  1  0
 20 46  1  0
 21 47  1  0
 23 48  1  0
 26 49  1  0
 27 50  1  0
M  END
>  <smiles>  (92) 
O=C(NCC(=O)N1CCCCC1c1cccnc1)c1ccc2cc(F)ccc2n1

>  <score_type>  (92) 
oracle

>  <origin>  (92) 
autodockgpu

>  <m_score__min__energy>  (92) 
-8.6300000000000008

>  <m_primary>  (92) 
energy

>  <rmsd>  (92) 
2.456915973341056

>  <m_score__min__rmsd>  (92) 
2.456915973341056

>  <meeko>  (92) 
{"free_energy": -8.15, "intermolecular_energy": -9.65, "internal_energy": -1.28, "cluster_size": 16, "cluster_id": 2, "rank_in_cluster": 2}

>  <energy>  (92) 
-7.07

>  <cluster_rmsd>  (92) 
0.63

>  <cluster>  (92) 
3

$$$$

     RDKit          3D

 50 53  0  0  0  0  0  0  0  0999 V2000
  140.8660   71.8200  221.2550 O   0  0  0  0  0  0  0  0  0  0  0  0
  140.1710   72.0910  222.2800 C   0  0  0  0  0  0  0  0  0  0  0  0
  139.4140   73.3420  222.2290 N   0  0  0  0  0  0  0  0  0  0  0  0
  139.5500   74.0920  221.0460 C   0  0  0  0  0  0  0  0  0  0  0  0
  140.6990   74.9600  220.8310 C   0  0  0  0  0  0  0  0  0  0  0  0
  141.4320   75.1100  221.9110 O   0  0  0  0  0  0  0  0  0  0  0  0
  141.1620   75.6500  219.7170 N   0  0  0  0  0  0  0  0  0  0  0  0
  140.3930   76.5830  218.8900 C   0  0  0  0  0  0  0  0  0  0  0  0
  141.3440   77.3200  217.9540 C   0  0  0  0  0  0  0  0  0  0  0  0
  142.6040   77.7860  218.5880 C   0  0  0  0  0  0  0  0  0  0  0  0
  143.2340   76.7480  219.5390 C   0  0  0  0  0  0  0  0  0  0  0  0
  142.5510   75.4760  219.2350 C   0  0  1  0  0  0  0  0  0  0  0  0
  143.1550   74.2280  219.6410 C   0  0  0  0  0  0  0  0  0  0  0  0
  144.2850   74.2790  220.4710 C   0  0  0  0  0  0  0  0  0  0  0  0
  144.8580   73.0890  220.8550 C   0  0  0  0  0  0  0  0  0  0  0  0
  144.3350   71.8710  220.4360 C   0  0  0  0  0  0  0  0  0  0  0  0
  143.2450   71.8460  219.6360 N   0  0  0  0  0  0  0  0  0  0  0  0
  142.6420   72.9960  219.2280 C   0  0  0  0  0  0  0  0  0  0  0  0
  140.1020   71.2480  223.4460 C   0  0  0  0  0  0  0  0  0  0  0  0
  139.5150   70.0160  223.3310 C   0  0  0  0  0  0  0  0  0  0  0  0
  139.4540   69.2230  224.4460 C   0  0  0  0  0  0  0  0  0  0  0  0
  139.9650   69.6430  225.6440 C   0  0  0  0  0  0  0  0  0  0  0  0
  139.9390   68.8980  226.8030 C   0  0  0  0  0  0  0  0  0  0  0  0
  140.4500   69.3230  227.9910 C   0  0  0  0  0  0  0  0  0  0  0  0
  140.4150   68.5780  229.1160 F   0  0  0  0  0  0  0  0  0  0  0  0
  141.0420   70.5740  228.0830 C   0  0  0  0  0  0  0  0  0  0  0  0
  141.0710   71.3250  226.9290 C   0  0  0  0  0  0  0  0  0  0  0  0
  140.5530   70.8930  225.7260 C   0  0  0  0  0  0  0  0  0  0  0  0
  140.6050   71.6610  224.6220 N   0  0  0  0  0  0  0  0  0  0  0  0
  138.8590   73.5110  223.0780 H   0  0  0  0  0  0  0  0  0  0  0  0
  139.5456   73.3695  220.2166 H   0  0  0  0  0  0  0  0  0  0  0  0
  138.7188   74.8087  221.1197 H   0  0  0  0  0  0  0  0  0  0  0  0
  139.6518   76.0259  218.2982 H   0  0  0  0  0  0  0  0  0  0  0  0
  139.8721   77.3066  219.5342 H   0  0  0  0  0  0  0  0  0  0  0  0
  141.6064   76.6415  217.1289 H   0  0  0  0  0  0  0  0  0  0  0  0
  140.8124   78.2233  217.6201 H   0  0  0  0  0  0  0  0  0  0  0  0
  143.3293   78.0159  217.7936 H   0  0  0  0  0  0  0  0  0  0  0  0
  142.3543   78.6700  219.1931 H   0  0  0  0  0  0  0  0  0  0  0  0
  144.3143   76.6596  219.3516 H   0  0  0  0  0  0  0  0  0  0  0  0
  143.1163   77.0345  220.5945 H   0  0  0  0  0  0  0  0  0  0  0  0
  142.6275   75.3212  218.1486 H   0  0  0  0  0  0  0  0  0  0  0  0
  144.7001   75.2415  220.8045 H   0  0  0  0  0  0  0  0  0  0  0  0
  145.7454   73.1013  221.5049 H   0  0  0  0  0  0  0  0  0  0  0  0
  144.8067   70.9297  220.7545 H   0  0  0  0  0  0  0  0  0  0  0  0
  141.7562   72.9556  218.5771 H   0  0  0  0  0  0  0  0  0  0  0  0
  139.1040   69.6730  222.3700 H   0  0  0  0  0  0  0  0  0  0  0  0
  138.9856   68.2301  224.3773 H   0  0  0  0  0  0  0  0  0  0  0  0
  139.4777   67.9001  226.7660 H   0  0  0  0  0  0  0  0  0  0  0  0
  141.4657   70.9464  229.0273 H   0  0  0  0  0  0  0  0  0  0  0  0
  141.5320   72.3229  226.9689 H   0  0  0  0  0  0  0  0  0  0  0  0
  1  2  2  0
  2  3  1  0
  3  4  1  0
  4  5  1  0
  5  6  2  0
  5  7  1  0
  7  8  1  0
  8  9  1  0
  9 10  1  0
 10 11  1  0
 11 12  1  0
 12 13  1  0
 13 14  2  0
 14 15  1  0
 15 16  2  0
 16 17  1  0
 17 18  2  0
  2 19  1  0
 19 20  2  0
 20 21  1  0
 21 22  2  0
 22 23  1  0
 23 24  2  0
 24 25  1  0
 24 26  1  0
 26 27  2  0
 27 28  1  0
 28 29  2  0
 12  7  1  0
 18 13  1  0
 29 19  1  0
 28 22  1  0
  3 30  1  0
  4 31  1  0
  4 32  1  0
  8 33  1  0
  8 34  1  0
  9 35  1  0
  9 36  1  0
 10 37  1  0
 10 38  1  0
 11 39  1  0
 11 40  1  0
 12 41  1  6
 14 42  1  0
 15 43  1  0
 16 44  1  0
 18 45  1  0
 20 46  1  0
 21 47  1  0
 23 48  1  0
 26 49  1  0
 27 50  1  0
M  END
>  <smiles>  (93) 
O=C(NCC(=O)N1CCCCC1c1cccnc1)c1ccc2cc(F)ccc2n1

>  <score_type>  (93) 
oracle

>  <origin>  (93) 
autodockgpu

>  <m_score__min__energy>  (93) 
-8.6300000000000008

>  <m_primary>  (93) 
energy

>  <rmsd>  (93) 
1.8274231196145758

>  <m_score__min__rmsd>  (93) 
1.8274231196145758

>  <meeko>  (93) 
{"free_energy": -7.8, "intermolecular_energy": -9.3, "internal_energy": -1.64, "cluster_size": 16, "cluster_id": 2, "rank_in_cluster": 5}

>  <energy>  (93) 
-7.06

>  <cluster_rmsd>  (93) 
0.37

>  <cluster>  (93) 
3

$$$$

     RDKit          3D

 50 53  0  0  0  0  0  0  0  0999 V2000
  139.1220   75.0080  221.2440 O   0  0  0  0  0  0  0  0  0  0  0  0
  140.3510   75.1700  221.5110 C   0  0  0  0  0  0  0  0  0  0  0  0
  140.6960   76.4050  222.2160 N   0  0  0  0  0  0  0  0  0  0  0  0
  139.6190   77.2620  222.5120 C   0  0  0  0  0  0  0  0  0  0  0  0
  139.6770   78.6830  222.2000 C   0  0  0  0  0  0  0  0  0  0  0  0
  138.6670   79.0830  221.4620 O   0  0  0  0  0  0  0  0  0  0  0  0
  140.5850   79.6830  222.5290 N   0  0  0  0  0  0  0  0  0  0  0  0
  140.4290   80.6850  223.5860 C   0  0  0  0  0  0  0  0  0  0  0  0
  141.7570   81.4030  223.7920 C   0  0  0  0  0  0  0  0  0  0  0  0
  142.9480   80.5150  223.8100 C   0  0  0  0  0  0  0  0  0  0  0  0
  142.9140   79.4200  222.7250 C   0  0  0  0  0  0  0  0  0  0  0  0
  141.8560   79.8360  221.7840 C   0  0  1  0  0  0  0  0  0  0  0  0
  141.8210   79.2710  220.4550 C   0  0  0  0  0  0  0  0  0  0  0  0
  142.1860   77.9260  220.2980 C   0  0  0  0  0  0  0  0  0  0  0  0
  142.1530   77.3920  219.0310 C   0  0  0  0  0  0  0  0  0  0  0  0
  141.7690   78.1600  217.9370 C   0  0  0  0  0  0  0  0  0  0  0  0
  141.4210   79.4550  218.1120 N   0  0  0  0  0  0  0  0  0  0  0  0
  141.4390   80.0290  219.3460 C   0  0  0  0  0  0  0  0  0  0  0  0
  141.3780   74.2240  221.1600 C   0  0  0  0  0  0  0  0  0  0  0  0
  141.0350   72.9060  221.0150 C   0  0  0  0  0  0  0  0  0  0  0  0
  142.0200   72.0160  220.6820 C   0  0  0  0  0  0  0  0  0  0  0  0
  143.3130   72.4240  220.4960 C   0  0  0  0  0  0  0  0  0  0  0  0
  144.3530   71.5830  220.1590 C   0  0  0  0  0  0  0  0  0  0  0  0
  145.6360   71.9980  219.9760 C   0  0  0  0  0  0  0  0  0  0  0  0
  146.6400   71.1590  219.6460 F   0  0  0  0  0  0  0  0  0  0  0  0
  145.9600   73.3380  220.1270 C   0  0  0  0  0  0  0  0  0  0  0  0
  144.9270   74.1840  220.4630 C   0  0  0  0  0  0  0  0  0  0  0  0
  143.6270   73.7630  220.6490 C   0  0  0  0  0  0  0  0  0  0  0  0
  142.6480   74.6260  220.9770 N   0  0  0  0  0  0  0  0  0  0  0  0
  141.7010   76.4860  222.4180 H   0  0  0  0  0  0  0  0  0  0  0  0
  138.7455   76.8609  221.9770 H   0  0  0  0  0  0  0  0  0  0  0  0
  139.6060   77.2588  223.6119 H   0  0  0  0  0  0  0  0  0  0  0  0
  139.6583   81.4130  223.2927 H   0  0  0  0  0  0  0  0  0  0  0  0
  140.1248   80.1927  224.5215 H   0  0  0  0  0  0  0  0  0  0  0  0
  141.8838   82.1293  222.9757 H   0  0  0  0  0  0  0  0  0  0  0  0
  141.7050   81.8722  224.7855 H   0  0  0  0  0  0  0  0  0  0  0  0
  143.8451   81.1322  223.6540 H   0  0  0  0  0  0  0  0  0  0  0  0
  142.9573   80.0051  224.7847 H   0  0  0  0  0  0  0  0  0  0  0  0
  143.8842   79.3573  222.2105 H   0  0  0  0  0  0  0  0  0  0  0  0
  142.7150   78.4260  223.1520 H   0  0  0  0  0  0  0  0  0  0  0  0
  142.0769   80.8726  221.4894 H   0  0  0  0  0  0  0  0  0  0  0  0
  142.4895   77.3166  221.1620 H   0  0  0  0  0  0  0  0  0  0  0  0
  142.4351   76.3395  218.8804 H   0  0  0  0  0  0  0  0  0  0  0  0
  141.7484   77.7149  216.9313 H   0  0  0  0  0  0  0  0  0  0  0  0
  141.1542   81.0843  219.4691 H   0  0  0  0  0  0  0  0  0  0  0  0
  139.9972   72.5722  221.1620 H   0  0  0  0  0  0  0  0  0  0  0  0
  141.7675   70.9522  220.5616 H   0  0  0  0  0  0  0  0  0  0  0  0
  144.1321   70.5131  220.0305 H   0  0  0  0  0  0  0  0  0  0  0  0
  146.9872   73.7053  219.9859 H   0  0  0  0  0  0  0  0  0  0  0  0
  145.1507   75.2535  220.5899 H   0  0  0  0  0  0  0  0  0  0  0  0
  1  2  2  0
  2  3  1  0
  3  4  1  0
  4  5  1  0
  5  6  2  0
  5  7  1  0
  7  8  1  0
  8  9  1  0
  9 10  1  0
 10 11  1  0
 11 12  1  0
 12 13  1  0
 13 14  2  0
 14 15  1  0
 15 16  2  0
 16 17  1  0
 17 18  2  0
  2 19  1  0
 19 20  2  0
 20 21  1  0
 21 22  2  0
 22 23  1  0
 23 24  2  0
 24 25  1  0
 24 26  1  0
 26 27  2  0
 27 28  1  0
 28 29  2  0
 12  7  1  0
 18 13  1  0
 29 19  1  0
 28 22  1  0
  3 30  1  0
  4 31  1  0
  4 32  1  0
  8 33  1  0
  8 34  1  0
  9 35  1  0
  9 36  1  0
 10 37  1  0
 10 38  1  0
 11 39  1  0
 11 40  1  0
 12 41  1  6
 14 42  1  0
 15 43  1  0
 16 44  1  0
 18 45  1  0
 20 46  1  0
 21 47  1  0
 23 48  1  0
 26 49  1  0
 27 50  1  0
M  END
>  <smiles>  (94) 
O=C(NCC(=O)N1CCCCC1c1cccnc1)c1ccc2cc(F)ccc2n1

>  <score_type>  (94) 
oracle

>  <origin>  (94) 
autodockgpu

>  <m_score__min__energy>  (94) 
-8.6300000000000008

>  <m_primary>  (94) 
energy

>  <rmsd>  (94) 
6.712456673084317

>  <m_score__min__rmsd>  (94) 
6.712456673084317

>  <meeko>  (94) 
{"free_energy": -7.1, "intermolecular_energy": -8.59, "internal_energy": -2.04, "cluster_size": 8, "cluster_id": 3, "rank_in_cluster": 4}

>  <energy>  (94) 
-6.95

>  <cluster_rmsd>  (94) 
0.0

>  <cluster>  (94) 
4

$$$$

     RDKit          3D

 50 53  0  0  0  0  0  0  0  0999 V2000
  140.1960   71.6750  221.0520 O   0  0  0  0  0  0  0  0  0  0  0  0
  139.9680   72.0990  222.2250 C   0  0  0  0  0  0  0  0  0  0  0  0
  139.6840   73.5300  222.3450 N   0  0  0  0  0  0  0  0  0  0  0  0
  139.6980   74.2600  221.1420 C   0  0  0  0  0  0  0  0  0  0  0  0
  140.7780   75.1870  220.8350 C   0  0  0  0  0  0  0  0  0  0  0  0
  141.4390   75.5690  221.9040 O   0  0  0  0  0  0  0  0  0  0  0  0
  141.2370   75.7370  219.6440 N   0  0  0  0  0  0  0  0  0  0  0  0
  140.4580   76.5470  218.7040 C   0  0  0  0  0  0  0  0  0  0  0  0
  141.4040   77.1730  217.6840 C   0  0  0  0  0  0  0  0  0  0  0  0
  142.6550   77.7320  218.2570 C   0  0  0  0  0  0  0  0  0  0  0  0
  143.2940   76.8330  219.3340 C   0  0  0  0  0  0  0  0  0  0  0  0
  142.6300   75.5220  219.1910 C   0  0  1  0  0  0  0  0  0  0  0  0
  143.2490   74.3450  219.7530 C   0  0  0  0  0  0  0  0  0  0  0  0
  144.4410   74.5050  220.4760 C   0  0  0  0  0  0  0  0  0  0  0  0
  145.0280   73.3810  221.0090 C   0  0  0  0  0  0  0  0  0  0  0  0
  144.4590   72.1230  220.8400 C   0  0  0  0  0  0  0  0  0  0  0  0
  143.3090   71.9930  220.1410 N   0  0  0  0  0  0  0  0  0  0  0  0
  142.6910   73.0740  219.5920 C   0  0  0  0  0  0  0  0  0  0  0  0
  139.9780   71.2610  223.3960 C   0  0  0  0  0  0  0  0  0  0  0  0
  139.5650   69.9600  223.2760 C   0  0  0  0  0  0  0  0  0  0  0  0
  139.5780   69.1730  224.3950 C   0  0  0  0  0  0  0  0  0  0  0  0
  139.9920   69.6640  225.6040 C   0  0  0  0  0  0  0  0  0  0  0  0
  140.0310   68.9280  226.7690 C   0  0  0  0  0  0  0  0  0  0  0  0
  140.4450   69.4250  227.9670 C   0  0  0  0  0  0  0  0  0  0  0  0
  140.4750   68.6880  229.0980 F   0  0  0  0  0  0  0  0  0  0  0  0
  140.8590   70.7440  228.0650 C   0  0  0  0  0  0  0  0  0  0  0  0
  140.8220   71.4860  226.9060 C   0  0  0  0  0  0  0  0  0  0  0  0
  140.4030   70.9820  225.6920 C   0  0  0  0  0  0  0  0  0  0  0  0
  140.3850   71.7440  224.5830 N   0  0  0  0  0  0  0  0  0  0  0  0
  139.4950   73.8230  223.3120 H   0  0  0  0  0  0  0  0  0  0  0  0
  139.6813   73.5202  220.3281 H   0  0  0  0  0  0  0  0  0  0  0  0
  138.8329   74.9295  221.2577 H   0  0  0  0  0  0  0  0  0  0  0  0
  139.7268   75.9092  218.1858 H   0  0  0  0  0  0  0  0  0  0  0  0
  139.9241   77.3387  219.2500 H   0  0  0  0  0  0  0  0  0  0  0  0
  141.6786   76.3993  216.9519 H   0  0  0  0  0  0  0  0  0  0  0  0
  140.8621   78.0197  217.2374 H   0  0  0  0  0  0  0  0  0  0  0  0
  143.3808   77.8681  217.4418 H   0  0  0  0  0  0  0  0  0  0  0  0
  142.3911   78.6824  218.7440 H   0  0  0  0  0  0  0  0  0  0  0  0
  144.3765   76.7373  219.1634 H   0  0  0  0  0  0  0  0  0  0  0  0
  143.1666   77.2493  220.3442 H   0  0  0  0  0  0  0  0  0  0  0  0
  142.7134   75.2311  218.1334 H   0  0  0  0  0  0  0  0  0  0  0  0
  144.8922   75.4989  220.6123 H   0  0  0  0  0  0  0  0  0  0  0  0
  145.9638   73.4787  221.5789 H   0  0  0  0  0  0  0  0  0  0  0  0
  144.9436   71.2360  221.2740 H   0  0  0  0  0  0  0  0  0  0  0  0
  141.7572   72.9480  219.0245 H   0  0  0  0  0  0  0  0  0  0  0  0
  139.2323   69.5595  222.3070 H   0  0  0  0  0  0  0  0  0  0  0  0
  139.2495   68.1257  224.3219 H   0  0  0  0  0  0  0  0  0  0  0  0
  139.7086   67.8771  226.7283 H   0  0  0  0  0  0  0  0  0  0  0  0
  141.1990   71.1751  229.0182 H   0  0  0  0  0  0  0  0  0  0  0  0
  141.1437   72.5370  226.9502 H   0  0  0  0  0  0  0  0  0  0  0  0
  1  2  2  0
  2  3  1  0
  3  4  1  0
  4  5  1  0
  5  6  2  0
  5  7  1  0
  7  8  1  0
  8  9  1  0
  9 10  1  0
 10 11  1  0
 11 12  1  0
 12 13  1  0
 13 14  2  0
 14 15  1  0
 15 16  2  0
 16 17  1  0
 17 18  2  0
  2 19  1  0
 19 20  2  0
 20 21  1  0
 21 22  2  0
 22 23  1  0
 23 24  2  0
 24 25  1  0
 24 26  1  0
 26 27  2  0
 27 28  1  0
 28 29  2  0
 12  7  1  0
 18 13  1  0
 29 19  1  0
 28 22  1  0
  3 30  1  0
  4 31  1  0
  4 32  1  0
  8 33  1  0
  8 34  1  0
  9 35  1  0
  9 36  1  0
 10 37  1  0
 10 38  1  0
 11 39  1  0
 11 40  1  0
 12 41  1  6
 14 42  1  0
 15 43  1  0
 16 44  1  0
 18 45  1  0
 20 46  1  0
 21 47  1  0
 23 48  1  0
 26 49  1  0
 27 50  1  0
M  END
>  <smiles>  (95) 
O=C(NCC(=O)N1CCCCC1c1cccnc1)c1ccc2cc(F)ccc2n1

>  <score_type>  (95) 
oracle

>  <origin>  (95) 
autodockgpu

>  <m_score__min__energy>  (95) 
-8.6300000000000008

>  <m_primary>  (95) 
energy

>  <rmsd>  (95) 
1.808939054090976

>  <m_score__min__rmsd>  (95) 
1.808939054090976

>  <meeko>  (95) 
{"free_energy": -7.69, "intermolecular_energy": -9.18, "internal_energy": -1.77, "cluster_size": 16, "cluster_id": 2, "rank_in_cluster": 9}

>  <energy>  (95) 
-6.53

>  <cluster_rmsd>  (95) 
0.48

>  <cluster>  (95) 
4

$$$$

     RDKit          3D

 50 53  0  0  0  0  0  0  0  0999 V2000
  140.4850   76.9840  218.5830 O   0  0  0  0  0  0  0  0  0  0  0  0
  141.6950   76.9690  218.9610 C   0  0  0  0  0  0  0  0  0  0  0  0
  142.2440   78.2520  219.4040 N   0  0  0  0  0  0  0  0  0  0  0  0
  141.3600   79.3460  219.3550 C   0  0  0  0  0  0  0  0  0  0  0  0
  140.2670   79.4760  220.3080 C   0  0  0  0  0  0  0  0  0  0  0  0
  139.7740   80.6920  220.3540 O   0  0  0  0  0  0  0  0  0  0  0  0
  139.6550   78.5710  221.1680 N   0  0  0  0  0  0  0  0  0  0  0  0
  138.4030   77.8490  220.9220 C   0  0  0  0  0  0  0  0  0  0  0  0
  138.2380   76.7650  221.9800 C   0  0  0  0  0  0  0  0  0  0  0  0
  139.4710   75.9920  222.2770 C   0  0  0  0  0  0  0  0  0  0  0  0
  140.7370   76.8670  222.3740 C   0  0  0  0  0  0  0  0  0  0  0  0
  140.2440   78.2530  222.4880 C   0  0  1  0  0  0  0  0  0  0  0  0
  141.1220   79.2820  222.9950 C   0  0  0  0  0  0  0  0  0  0  0  0
  142.4930   79.1790  222.7150 C   0  0  0  0  0  0  0  0  0  0  0  0
  143.3260   80.1610  223.2000 C   0  0  0  0  0  0  0  0  0  0  0  0
  142.8260   81.2250  223.9450 C   0  0  0  0  0  0  0  0  0  0  0  0
  141.5010   81.3030  224.2020 N   0  0  0  0  0  0  0  0  0  0  0  0
  140.6360   80.3570  223.7450 C   0  0  0  0  0  0  0  0  0  0  0  0
  142.5160   75.7860  218.9720 C   0  0  0  0  0  0  0  0  0  0  0  0
  142.2490   74.7940  218.0670 C   0  0  0  0  0  0  0  0  0  0  0  0
  143.0350   73.6730  218.0860 C   0  0  0  0  0  0  0  0  0  0  0  0
  144.0620   73.5430  218.9810 C   0  0  0  0  0  0  0  0  0  0  0  0
  144.8930   72.4450  219.0560 C   0  0  0  0  0  0  0  0  0  0  0  0
  145.9120   72.3240  219.9490 C   0  0  0  0  0  0  0  0  0  0  0  0
  146.7150   71.2390  220.0070 F   0  0  0  0  0  0  0  0  0  0  0  0
  146.1650   73.3420  220.8560 C   0  0  0  0  0  0  0  0  0  0  0  0
  145.3390   74.4420  220.7880 C   0  0  0  0  0  0  0  0  0  0  0  0
  144.3060   74.5640  219.8820 C   0  0  0  0  0  0  0  0  0  0  0  0
  143.5250   75.6590  219.8510 N   0  0  0  0  0  0  0  0  0  0  0  0
  143.2230   78.1860  219.7100 H   0  0  0  0  0  0  0  0  0  0  0  0
  141.9769   80.2503  219.4629 H   0  0  0  0  0  0  0  0  0  0  0  0
  140.8309   79.1841  218.4043 H   0  0  0  0  0  0  0  0  0  0  0  0
  137.5567   78.5495  220.9769 H   0  0  0  0  0  0  0  0  0  0  0  0
  138.4290   77.3910  219.9222 H   0  0  0  0  0  0  0  0  0  0  0  0
  137.9018   77.2441  222.9113 H   0  0  0  0  0  0  0  0  0  0  0  0
  137.5112   76.0453  221.5754 H   0  0  0  0  0  0  0  0  0  0  0  0
  139.3331   75.4716  223.2362 H   0  0  0  0  0  0  0  0  0  0  0  0
  139.6239   75.2931  221.4414 H   0  0  0  0  0  0  0  0  0  0  0  0
  141.3273   76.5937  223.2611 H   0  0  0  0  0  0  0  0  0  0  0  0
  141.3943   76.7358  221.5018 H   0  0  0  0  0  0  0  0  0  0  0  0
  139.5174   78.2692  223.3137 H   0  0  0  0  0  0  0  0  0  0  0  0
  142.8897   78.3390  222.1259 H   0  0  0  0  0  0  0  0  0  0  0  0
  144.4053   80.1041  222.9954 H   0  0  0  0  0  0  0  0  0  0  0  0
  143.5075   82.0009  224.3239 H   0  0  0  0  0  0  0  0  0  0  0  0
  139.5611   80.4377  223.9644 H   0  0  0  0  0  0  0  0  0  0  0  0
  141.4257   74.8948  217.3445 H   0  0  0  0  0  0  0  0  0  0  0  0
  142.8374   72.8625  217.3691 H   0  0  0  0  0  0  0  0  0  0  0  0
  144.7216   71.6176  218.3517 H   0  0  0  0  0  0  0  0  0  0  0  0
  146.9813   73.2746  221.5902 H   0  0  0  0  0  0  0  0  0  0  0  0
  145.5124   75.2675  221.4940 H   0  0  0  0  0  0  0  0  0  0  0  0
  1  2  2  0
  2  3  1  0
  3  4  1  0
  4  5  1  0
  5  6  2  0
  5  7  1  0
  7  8  1  0
  8  9  1  0
  9 10  1  0
 10 11  1  0
 11 12  1  0
 12 13  1  0
 13 14  2  0
 14 15  1  0
 15 16  2  0
 16 17  1  0
 17 18  2  0
  2 19  1  0
 19 20  2  0
 20 21  1  0
 21 22  2  0
 22 23  1  0
 23 24  2  0
 24 25  1  0
 24 26  1  0
 26 27  2  0
 27 28  1  0
 28 29  2  0
 12  7  1  0
 18 13  1  0
 29 19  1  0
 28 22  1  0
  3 30  1  0
  4 31  1  0
  4 32  1  0
  8 33  1  0
  8 34  1  0
  9 35  1  0
  9 36  1  0
 10 37  1  0
 10 38  1  0
 11 39  1  0
 11 40  1  0
 12 41  1  1
 14 42  1  0
 15 43  1  0
 16 44  1  0
 18 45  1  0
 20 46  1  0
 21 47  1  0
 23 48  1  0
 26 49  1  0
 27 50  1  0
M  END
>  <smiles>  (96) 
O=C(NCC(=O)N1CCCCC1c1cccnc1)c1ccc2cc(F)ccc2n1

>  <score_type>  (96) 
oracle

>  <origin>  (96) 
autodockgpu

>  <m_score__min__energy>  (96) 
-8.6300000000000008

>  <m_primary>  (96) 
energy

>  <rmsd>  (96) 
7.194011338329452

>  <m_score__min__rmsd>  (96) 
7.194011338329452

>  <meeko>  (96) 
{"free_energy": -6.79, "intermolecular_energy": -8.28, "internal_energy": -2.27, "cluster_size": 4, "cluster_id": 6, "rank_in_cluster": 2}

>  <energy>  (96) 
-6.94

>  <cluster_rmsd>  (96) 
0.0

>  <cluster>  (96) 
5

$$$$

     RDKit          3D

 50 53  0  0  0  0  0  0  0  0999 V2000
  141.3690   72.8790  221.6520 O   0  0  0  0  0  0  0  0  0  0  0  0
  140.3710   72.8360  222.4340 C   0  0  0  0  0  0  0  0  0  0  0  0
  139.4040   73.9260  222.3000 N   0  0  0  0  0  0  0  0  0  0  0  0
  139.7010   74.8900  221.3190 C   0  0  0  0  0  0  0  0  0  0  0  0
  140.8000   75.8300  221.4920 C   0  0  0  0  0  0  0  0  0  0  0  0
  140.9080   76.2630  222.7270 O   0  0  0  0  0  0  0  0  0  0  0  0
  141.7440   76.3470  220.6120 N   0  0  0  0  0  0  0  0  0  0  0  0
  142.7010   75.5780  219.8130 C   0  0  0  0  0  0  0  0  0  0  0  0
  143.3510   76.5020  218.7900 C   0  0  0  0  0  0  0  0  0  0  0  0
  142.4140   77.4260  218.1010 C   0  0  0  0  0  0  0  0  0  0  0  0
  141.3730   78.0610  219.0450 C   0  0  0  0  0  0  0  0  0  0  0  0
  141.8780   77.8070  220.4090 C   0  0  1  0  0  0  0  0  0  0  0  0
  141.3790   78.5960  221.5120 C   0  0  0  0  0  0  0  0  0  0  0  0
  142.2910   79.0080  222.4950 C   0  0  0  0  0  0  0  0  0  0  0  0
  141.8120   79.7590  223.5450 C   0  0  0  0  0  0  0  0  0  0  0  0
  140.4670   80.1000  223.6290 C   0  0  0  0  0  0  0  0  0  0  0  0
  139.6060   79.6910  222.6700 N   0  0  0  0  0  0  0  0  0  0  0  0
  140.0300   78.9460  221.6120 C   0  0  0  0  0  0  0  0  0  0  0  0
  140.1620   71.7970  223.4080 C   0  0  0  0  0  0  0  0  0  0  0  0
  139.4130   70.7060  223.0550 C   0  0  0  0  0  0  0  0  0  0  0  0
  139.2210   69.7240  223.9890 C   0  0  0  0  0  0  0  0  0  0  0  0
  139.7600   69.8230  225.2430 C   0  0  0  0  0  0  0  0  0  0  0  0
  139.6080   68.8730  226.2310 C   0  0  0  0  0  0  0  0  0  0  0  0
  140.1480   68.9790  227.4750 C   0  0  0  0  0  0  0  0  0  0  0  0
  139.9870   68.0370  228.4300 F   0  0  0  0  0  0  0  0  0  0  0  0
  140.9040   70.0920  227.8110 C   0  0  0  0  0  0  0  0  0  0  0  0
  141.0610   71.0450  226.8300 C   0  0  0  0  0  0  0  0  0  0  0  0
  140.5130   70.9370  225.5690 C   0  0  0  0  0  0  0  0  0  0  0  0
  140.6930   71.8940  224.6400 N   0  0  0  0  0  0  0  0  0  0  0  0
  138.6100   73.8410  222.9470 H   0  0  0  0  0  0  0  0  0  0  0  0
  139.9074   74.3368  220.3909 H   0  0  0  0  0  0  0  0  0  0  0  0
  138.8181   75.5453  221.3525 H   0  0  0  0  0  0  0  0  0  0  0  0
  143.4742   75.1546  220.4710 H   0  0  0  0  0  0  0  0  0  0  0  0
  142.1791   74.7598  219.2952 H   0  0  0  0  0  0  0  0  0  0  0  0
  144.1090   77.1073  219.3086 H   0  0  0  0  0  0  0  0  0  0  0  0
  143.7739   75.8517  218.0101 H   0  0  0  0  0  0  0  0  0  0  0  0
  142.9994   78.2323  217.6350 H   0  0  0  0  0  0  0  0  0  0  0  0
  141.8595   76.8320  217.3596 H   0  0  0  0  0  0  0  0  0  0  0  0
  141.2929   79.1422  218.8589 H   0  0  0  0  0  0  0  0  0  0  0  0
  140.3694   77.6369  218.8936 H   0  0  0  0  0  0  0  0  0  0  0  0
  142.9174   78.1656  220.4402 H   0  0  0  0  0  0  0  0  0  0  0  0
  143.3557   78.7395  222.4291 H   0  0  0  0  0  0  0  0  0  0  0  0
  142.5052   80.0947  224.3304 H   0  0  0  0  0  0  0  0  0  0  0  0
  140.1035   80.7020  224.4748 H   0  0  0  0  0  0  0  0  0  0  0  0
  139.3153   78.6219  220.8412 H   0  0  0  0  0  0  0  0  0  0  0  0
  138.9776   70.6213  222.0484 H   0  0  0  0  0  0  0  0  0  0  0  0
  138.6225   68.8391  223.7269 H   0  0  0  0  0  0  0  0  0  0  0  0
  139.0148   67.9761  225.9993 H   0  0  0  0  0  0  0  0  0  0  0  0
  141.3542   70.2072  228.8081 H   0  0  0  0  0  0  0  0  0  0  0  0
  141.6553   71.9405  227.0644 H   0  0  0  0  0  0  0  0  0  0  0  0
  1  2  2  0
  2  3  1  0
  3  4  1  0
  4  5  1  0
  5  6  2  0
  5  7  1  0
  7  8  1  0
  8  9  1  0
  9 10  1  0
 10 11  1  0
 11 12  1  0
 12 13  1  0
 13 14  2  0
 14 15  1  0
 15 16  2  0
 16 17  1  0
 17 18  2  0
  2 19  1  0
 19 20  2  0
 20 21  1  0
 21 22  2  0
 22 23  1  0
 23 24  2  0
 24 25  1  0
 24 26  1  0
 26 27  2  0
 27 28  1  0
 28 29  2  0
 12  7  1  0
 18 13  1  0
 29 19  1  0
 28 22  1  0
  3 30  1  0
  4 31  1  0
  4 32  1  0
  8 33  1  0
  8 34  1  0
  9 35  1  0
  9 36  1  0
 10 37  1  0
 10 38  1  0
 11 39  1  0
 11 40  1  0
 12 41  1  6
 14 42  1  0
 15 43  1  0
 16 44  1  0
 18 45  1  0
 20 46  1  0
 21 47  1  0
 23 48  1  0
 26 49  1  0
 27 50  1  0
M  END
>  <smiles>  (97) 
O=C(NCC(=O)N1CCCCC1c1cccnc1)c1ccc2cc(F)ccc2n1

>  <score_type>  (97) 
oracle

>  <origin>  (97) 
autodockgpu

>  <m_score__min__energy>  (97) 
-8.6300000000000008

>  <m_primary>  (97) 
energy

>  <rmsd>  (97) 
2.126749581326214

>  <m_score__min__rmsd>  (97) 
2.126749581326214

>  <meeko>  (97) 
{"free_energy": -8.45, "intermolecular_energy": -9.94, "internal_energy": -1.16, "cluster_size": 19, "cluster_id": 1, "rank_in_cluster": 16}

>  <energy>  (97) 
-6.81

>  <cluster_rmsd>  (97) 
0.0

>  <cluster>  (97) 
6

$$$$

     RDKit          3D

 50 53  0  0  0  0  0  0  0  0999 V2000
  140.0030   71.4620  221.0060 O   0  0  0  0  0  0  0  0  0  0  0  0
  139.8620   71.9040  222.1860 C   0  0  0  0  0  0  0  0  0  0  0  0
  139.6890   73.3520  222.3110 N   0  0  0  0  0  0  0  0  0  0  0  0
  139.6990   74.0760  221.1050 C   0  0  0  0  0  0  0  0  0  0  0  0
  140.6630   75.1420  220.8730 C   0  0  0  0  0  0  0  0  0  0  0  0
  141.1590   75.6300  221.9860 O   0  0  0  0  0  0  0  0  0  0  0  0
  141.1530   75.7320  219.7130 N   0  0  0  0  0  0  0  0  0  0  0  0
  140.4240   76.6410  218.8250 C   0  0  0  0  0  0  0  0  0  0  0  0
  141.4040   77.2680  217.8400 C   0  0  0  0  0  0  0  0  0  0  0  0
  142.6860   77.7180  218.4400 C   0  0  0  0  0  0  0  0  0  0  0  0
  143.2720   76.7210  219.4600 C   0  0  0  0  0  0  0  0  0  0  0  0
  142.5310   75.4630  219.2440 C   0  0  1  0  0  0  0  0  0  0  0  0
  143.0790   74.2200  219.7340 C   0  0  0  0  0  0  0  0  0  0  0  0
  142.4160   73.0280  219.4030 C   0  0  0  0  0  0  0  0  0  0  0  0
  142.9410   71.8460  219.8720 C   0  0  0  0  0  0  0  0  0  0  0  0
  144.0940   71.8300  220.6490 C   0  0  0  0  0  0  0  0  0  0  0  0
  144.7170   72.9910  220.9550 N   0  0  0  0  0  0  0  0  0  0  0  0
  144.2360   74.1860  220.5160 C   0  0  0  0  0  0  0  0  0  0  0  0
  139.8670   71.0700  223.3600 C   0  0  0  0  0  0  0  0  0  0  0  0
  139.3930   69.7890  223.2560 C   0  0  0  0  0  0  0  0  0  0  0  0
  139.4020   69.0050  224.3790 C   0  0  0  0  0  0  0  0  0  0  0  0
  139.8710   69.4810  225.5730 C   0  0  0  0  0  0  0  0  0  0  0  0
  139.9100   68.7470  226.7400 C   0  0  0  0  0  0  0  0  0  0  0  0
  140.3800   69.2280  227.9230 C   0  0  0  0  0  0  0  0  0  0  0  0
  140.4090   68.4940  229.0560 F   0  0  0  0  0  0  0  0  0  0  0  0
  140.8560   70.5280  228.0040 C   0  0  0  0  0  0  0  0  0  0  0  0
  140.8200   71.2670  226.8430 C   0  0  0  0  0  0  0  0  0  0  0  0
  140.3440   70.7790  225.6440 C   0  0  0  0  0  0  0  0  0  0  0  0
  140.3290   71.5370  224.5330 N   0  0  0  0  0  0  0  0  0  0  0  0
  139.5690   73.6600  223.2850 H   0  0  0  0  0  0  0  0  0  0  0  0
  139.8483   73.3403  220.3010 H   0  0  0  0  0  0  0  0  0  0  0  0
  138.7443   74.6209  221.1447 H   0  0  0  0  0  0  0  0  0  0  0  0
  139.6556   76.0796  218.2733 H   0  0  0  0  0  0  0  0  0  0  0  0
  139.9394   77.4300  219.4188 H   0  0  0  0  0  0  0  0  0  0  0  0
  141.6322   76.5234  217.0631 H   0  0  0  0  0  0  0  0  0  0  0  0
  140.9129   78.1696  217.4451 H   0  0  0  0  0  0  0  0  0  0  0  0
  143.4181   77.8593  217.6313 H   0  0  0  0  0  0  0  0  0  0  0  0
  142.4785   78.6517  218.9832 H   0  0  0  0  0  0  0  0  0  0  0  0
  144.3466   76.5713  219.2789 H   0  0  0  0  0  0  0  0  0  0  0  0
  143.1712   77.0843  220.4934 H   0  0  0  0  0  0  0  0  0  0  0  0
  142.5970   75.2312  218.1707 H   0  0  0  0  0  0  0  0  0  0  0  0
  141.5045   73.0386  218.7874 H   0  0  0  0  0  0  0  0  0  0  0  0
  142.4401   70.8975  219.6282 H   0  0  0  0  0  0  0  0  0  0  0  0
  144.4989   70.8747  221.0143 H   0  0  0  0  0  0  0  0  0  0  0  0
  144.7555   75.1202  220.7756 H   0  0  0  0  0  0  0  0  0  0  0  0
  139.0160   69.4012  222.2981 H   0  0  0  0  0  0  0  0  0  0  0  0
  139.0251   67.9733  224.3199 H   0  0  0  0  0  0  0  0  0  0  0  0
  139.5393   67.7117  226.7129 H   0  0  0  0  0  0  0  0  0  0  0  0
  141.2417   70.9463  228.9454 H   0  0  0  0  0  0  0  0  0  0  0  0
  141.1908   72.3022  226.8732 H   0  0  0  0  0  0  0  0  0  0  0  0
  1  2  2  0
  2  3  1  0
  3  4  1  0
  4  5  1  0
  5  6  2  0
  5  7  1  0
  7  8  1  0
  8  9  1  0
  9 10  1  0
 10 11  1  0
 11 12  1  0
 12 13  1  0
 13 14  2  0
 14 15  1  0
 15 16  2  0
 16 17  1  0
 17 18  2  0
  2 19  1  0
 19 20  2  0
 20 21  1  0
 21 22  2  0
 22 23  1  0
 23 24  2  0
 24 25  1  0
 24 26  1  0
 26 27  2  0
 27 28  1  0
 28 29  2  0
 12  7  1  0
 18 13  1  0
 29 19  1  0
 28 22  1  0
  3 30  1  0
  4 31  1  0
  4 32  1  0
  8 33  1  0
  8 34  1  0
  9 35  1  0
  9 36  1  0
 10 37  1  0
 10 38  1  0
 11 39  1  0
 11 40  1  0
 12 41  1  6
 14 42  1  0
 15 43  1  0
 16 44  1  0
 18 45  1  0
 20 46  1  0
 21 47  1  0
 23 48  1  0
 26 49  1  0
 27 50  1  0
M  END
>  <smiles>  (98) 
O=C(NCC(=O)N1CCCCC1c1cccnc1)c1ccc2cc(F)ccc2n1

>  <score_type>  (98) 
oracle

>  <origin>  (98) 
autodockgpu

>  <m_score__min__energy>  (98) 
-8.6300000000000008

>  <m_primary>  (98) 
energy

>  <rmsd>  (98) 
1.7850711754270354

>  <m_score__min__rmsd>  (98) 
1.7850711754270354

>  <meeko>  (98) 
{"free_energy": -7.43, "intermolecular_energy": -8.92, "internal_energy": -1.85, "cluster_size": 16, "cluster_id": 2, "rank_in_cluster": 16}

>  <energy>  (98) 
-6.79

>  <cluster_rmsd>  (98) 
0.1

>  <cluster>  (98) 
6

$$$$

     RDKit          3D

 50 53  0  0  0  0  0  0  0  0999 V2000
  141.4050   72.5790  221.5780 O   0  0  0  0  0  0  0  0  0  0  0  0
  140.4870   72.6770  222.4470 C   0  0  0  0  0  0  0  0  0  0  0  0
  139.6360   73.8630  222.3490 N   0  0  0  0  0  0  0  0  0  0  0  0
  139.9410   74.7510  221.3010 C   0  0  0  0  0  0  0  0  0  0  0  0
  140.9470   75.7910  221.4620 C   0  0  0  0  0  0  0  0  0  0  0  0
  141.0570   76.2040  222.7040 O   0  0  0  0  0  0  0  0  0  0  0  0
  141.8010   76.4220  220.5650 N   0  0  0  0  0  0  0  0  0  0  0  0
  142.7900   75.7710  219.7020 C   0  0  0  0  0  0  0  0  0  0  0  0
  143.3100   76.7830  218.6880 C   0  0  0  0  0  0  0  0  0  0  0  0
  142.2640   77.6380  218.0700 C   0  0  0  0  0  0  0  0  0  0  0  0
  141.2100   78.1440  219.0760 C   0  0  0  0  0  0  0  0  0  0  0  0
  141.7930   77.8940  220.4090 C   0  0  1  0  0  0  0  0  0  0  0  0
  141.2720   78.5970  221.5580 C   0  0  0  0  0  0  0  0  0  0  0  0
  142.1790   79.0280  222.5380 C   0  0  0  0  0  0  0  0  0  0  0  0
  141.6780   79.6970  223.6310 C   0  0  0  0  0  0  0  0  0  0  0  0
  140.3160   79.9400  223.7630 C   0  0  0  0  0  0  0  0  0  0  0  0
  139.4600   79.5160  222.8060 N   0  0  0  0  0  0  0  0  0  0  0  0
  139.9050   78.8490  221.7060 C   0  0  0  0  0  0  0  0  0  0  0  0
  140.2600   71.7050  223.4850 C   0  0  0  0  0  0  0  0  0  0  0  0
  139.5500   70.5740  223.1800 C   0  0  0  0  0  0  0  0  0  0  0  0
  139.3390   69.6560  224.1740 C   0  0  0  0  0  0  0  0  0  0  0  0
  139.8230   69.8560  225.4380 C   0  0  0  0  0  0  0  0  0  0  0  0
  139.6490   68.9760  226.4850 C   0  0  0  0  0  0  0  0  0  0  0  0
  140.1340   69.1830  227.7400 C   0  0  0  0  0  0  0  0  0  0  0  0
  139.9530   68.3080  228.7520 F   0  0  0  0  0  0  0  0  0  0  0  0
  140.8510   70.3350  228.0250 C   0  0  0  0  0  0  0  0  0  0  0  0
  141.0280   71.2200  226.9850 C   0  0  0  0  0  0  0  0  0  0  0  0
  140.5370   71.0090  225.7140 C   0  0  0  0  0  0  0  0  0  0  0  0
  140.7350   71.9020  224.7270 N   0  0  0  0  0  0  0  0  0  0  0  0
  138.9010   73.8920  223.0680 H   0  0  0  0  0  0  0  0  0  0  0  0
  140.2662   74.1315  220.4522 H   0  0  0  0  0  0  0  0  0  0  0  0
  139.0115   75.3305  221.1999 H   0  0  0  0  0  0  0  0  0  0  0  0
  143.6255   75.4001  220.3139 H   0  0  0  0  0  0  0  0  0  0  0  0
  142.3232   74.9254  219.1757 H   0  0  0  0  0  0  0  0  0  0  0  0
  144.0312   77.4388  219.1977 H   0  0  0  0  0  0  0  0  0  0  0  0
  143.7575   76.2000  217.8695 H   0  0  0  0  0  0  0  0  0  0  0  0
  142.7533   78.5094  217.6104 H   0  0  0  0  0  0  0  0  0  0  0  0
  141.7349   77.0188  217.3307 H   0  0  0  0  0  0  0  0  0  0  0  0
  141.0244   79.2186  218.9319 H   0  0  0  0  0  0  0  0  0  0  0  0
  140.2435   77.6344  218.9487 H   0  0  0  0  0  0  0  0  0  0  0  0
  142.7958   78.3462  220.4117 H   0  0  0  0  0  0  0  0  0  0  0  0
  143.2574   78.8369  222.4356 H   0  0  0  0  0  0  0  0  0  0  0  0
  142.3675   80.0456  224.4140 H   0  0  0  0  0  0  0  0  0  0  0  0
  139.9350   80.4764  224.6445 H   0  0  0  0  0  0  0  0  0  0  0  0
  139.1935   78.5105  220.9385 H   0  0  0  0  0  0  0  0  0  0  0  0
  139.1602   70.4078  222.1649 H   0  0  0  0  0  0  0  0  0  0  0  0
  138.7700   68.7411  223.9522 H   0  0  0  0  0  0  0  0  0  0  0  0
  139.0845   68.0513  226.2948 H   0  0  0  0  0  0  0  0  0  0  0  0
  141.2568   70.5315  229.0283 H   0  0  0  0  0  0  0  0  0  0  0  0
  141.5913   72.1448  227.1786 H   0  0  0  0  0  0  0  0  0  0  0  0
  1  2  2  0
  2  3  1  0
  3  4  1  0
  4  5  1  0
  5  6  2  0
  5  7  1  0
  7  8  1  0
  8  9  1  0
  9 10  1  0
 10 11  1  0
 11 12  1  0
 12 13  1  0
 13 14  2  0
 14 15  1  0
 15 16  2  0
 16 17  1  0
 17 18  2  0
  2 19  1  0
 19 20  2  0
 20 21  1  0
 21 22  2  0
 22 23  1  0
 23 24  2  0
 24 25  1  0
 24 26  1  0
 26 27  2  0
 27 28  1  0
 28 29  2  0
 12  7  1  0
 18 13  1  0
 29 19  1  0
 28 22  1  0
  3 30  1  0
  4 31  1  0
  4 32  1  0
  8 33  1  0
  8 34  1  0
  9 35  1  0
  9 36  1  0
 10 37  1  0
 10 38  1  0
 11 39  1  0
 11 40  1  0
 12 41  1  6
 14 42  1  0
 15 43  1  0
 16 44  1  0
 18 45  1  0
 20 46  1  0
 21 47  1  0
 23 48  1  0
 26 49  1  0
 27 50  1  0
M  END
>  <smiles>  (99) 
O=C(NCC(=O)N1CCCCC1c1cccnc1)c1ccc2cc(F)ccc2n1

>  <score_type>  (99) 
oracle

>  <origin>  (99) 
autodockgpu

>  <m_score__min__energy>  (99) 
-8.6300000000000008

>  <m_primary>  (99) 
energy

>  <rmsd>  (99) 
2.139775856475237

>  <m_score__min__rmsd>  (99) 
2.139775856475237

>  <meeko>  (99) 
{"free_energy": -8.58, "intermolecular_energy": -10.07, "internal_energy": -1.15, "cluster_size": 19, "cluster_id": 1, "rank_in_cluster": 4}

>  <energy>  (99) 
-6.79

>  <cluster_rmsd>  (99) 
0.19

>  <cluster>  (99) 
6

$$$$

     RDKit          3D

 50 53  0  0  0  0  0  0  0  0999 V2000
  141.3770   72.5820  221.5340 O   0  0  0  0  0  0  0  0  0  0  0  0
  140.4450   72.6700  222.3880 C   0  0  0  0  0  0  0  0  0  0  0  0
  139.5780   73.8430  222.2720 N   0  0  0  0  0  0  0  0  0  0  0  0
  139.8850   74.7310  221.2240 C   0  0  0  0  0  0  0  0  0  0  0  0
  140.9170   75.7460  221.3750 C   0  0  0  0  0  0  0  0  0  0  0  0
  141.0730   76.1320  222.6200 O   0  0  0  0  0  0  0  0  0  0  0  0
  141.7580   76.3770  220.4640 N   0  0  0  0  0  0  0  0  0  0  0  0
  142.7370   75.7250  219.5900 C   0  0  0  0  0  0  0  0  0  0  0  0
  143.2390   76.7370  218.5660 C   0  0  0  0  0  0  0  0  0  0  0  0
  142.1830   77.5870  217.9600 C   0  0  0  0  0  0  0  0  0  0  0  0
  141.1420   78.0930  218.9790 C   0  0  0  0  0  0  0  0  0  0  0  0
  141.7430   77.8490  220.3050 C   0  0  1  0  0  0  0  0  0  0  0  0
  141.2360   78.5530  221.4590 C   0  0  0  0  0  0  0  0  0  0  0  0
  142.1600   79.0430  222.3940 C   0  0  0  0  0  0  0  0  0  0  0  0
  141.6730   79.7140  223.4920 C   0  0  0  0  0  0  0  0  0  0  0  0
  140.3070   79.9020  223.6720 C   0  0  0  0  0  0  0  0  0  0  0  0
  139.4350   79.4220  222.7570 N   0  0  0  0  0  0  0  0  0  0  0  0
  139.8660   78.7510  221.6540 C   0  0  0  0  0  0  0  0  0  0  0  0
  140.2170   71.6990  223.4270 C   0  0  0  0  0  0  0  0  0  0  0  0
  139.5020   70.5710  223.1250 C   0  0  0  0  0  0  0  0  0  0  0  0
  139.2900   69.6540  224.1200 C   0  0  0  0  0  0  0  0  0  0  0  0
  139.7780   69.8530  225.3830 C   0  0  0  0  0  0  0  0  0  0  0  0
  139.6040   68.9740  226.4300 C   0  0  0  0  0  0  0  0  0  0  0  0
  140.0940   69.1790  227.6830 C   0  0  0  0  0  0  0  0  0  0  0  0
  139.9120   68.3050  228.6970 F   0  0  0  0  0  0  0  0  0  0  0  0
  140.8160   70.3290  227.9660 C   0  0  0  0  0  0  0  0  0  0  0  0
  140.9930   71.2120  226.9260 C   0  0  0  0  0  0  0  0  0  0  0  0
  140.4970   71.0030  225.6560 C   0  0  0  0  0  0  0  0  0  0  0  0
  140.6970   71.8950  224.6670 N   0  0  0  0  0  0  0  0  0  0  0  0
  138.8320   73.8640  222.9800 H   0  0  0  0  0  0  0  0  0  0  0  0
  140.1813   74.1101  220.3657 H   0  0  0  0  0  0  0  0  0  0  0  0
  138.9673   75.3319  221.1419 H   0  0  0  0  0  0  0  0  0  0  0  0
  143.5820   75.3586  220.1914 H   0  0  0  0  0  0  0  0  0  0  0  0
  142.2666   74.8754  219.0734 H   0  0  0  0  0  0  0  0  0  0  0  0
  143.9648   77.3965  219.0643 H   0  0  0  0  0  0  0  0  0  0  0  0
  143.6763   76.1530  217.7427 H   0  0  0  0  0  0  0  0  0  0  0  0
  142.6636   78.4583  217.4911 H   0  0  0  0  0  0  0  0  0  0  0  0
  141.6454   76.9644  217.2297 H   0  0  0  0  0  0  0  0  0  0  0  0
  140.9516   79.1667  218.8341 H   0  0  0  0  0  0  0  0  0  0  0  0
  140.1755   77.5799  218.8665 H   0  0  0  0  0  0  0  0  0  0  0  0
  142.7438   78.3054  220.2937 H   0  0  0  0  0  0  0  0  0  0  0  0
  143.2409   78.8952  222.2536 H   0  0  0  0  0  0  0  0  0  0  0  0
  142.3762   80.1085  224.2403 H   0  0  0  0  0  0  0  0  0  0  0  0
  139.9367   80.4401  224.5570 H   0  0  0  0  0  0  0  0  0  0  0  0
  139.1412   78.3671  220.9210 H   0  0  0  0  0  0  0  0  0  0  0  0
  139.1087   70.4058  222.1111 H   0  0  0  0  0  0  0  0  0  0  0  0
  138.7171   68.7411  223.9000 H   0  0  0  0  0  0  0  0  0  0  0  0
  139.0351   68.0516  226.2417 H   0  0  0  0  0  0  0  0  0  0  0  0
  141.2251   70.5245  228.9682 H   0  0  0  0  0  0  0  0  0  0  0  0
  141.5607   72.1345  227.1176 H   0  0  0  0  0  0  0  0  0  0  0  0
  1  2  2  0
  2  3  1  0
  3  4  1  0
  4  5  1  0
  5  6  2  0
  5  7  1  0
  7  8  1  0
  8  9  1  0
  9 10  1  0
 10 11  1  0
 11 12  1  0
 12 13  1  0
 13 14  2  0
 14 15  1  0
 15 16  2  0
 16 17  1  0
 17 18  2  0
  2 19  1  0
 19 20  2  0
 20 21  1  0
 21 22  2  0
 22 23  1  0
 23 24  2  0
 24 25  1  0
 24 26  1  0
 26 27  2  0
 27 28  1  0
 28 29  2  0
 12  7  1  0
 18 13  1  0
 29 19  1  0
 28 22  1  0
  3 30  1  0
  4 31  1  0
  4 32  1  0
  8 33  1  0
  8 34  1  0
  9 35  1  0
  9 36  1  0
 10 37  1  0
 10 38  1  0
 11 39  1  0
 11 40  1  0
 12 41  1  6
 14 42  1  0
 15 43  1  0
 16 44  1  0
 18 45  1  0
 20 46  1  0
 21 47  1  0
 23 48  1  0
 26 49  1  0
 27 50  1  0
M  END
>  <smiles>  (100) 
O=C(NCC(=O)N1CCCCC1c1cccnc1)c1ccc2cc(F)ccc2n1

>  <score_type>  (100) 
oracle

>  <origin>  (100) 
autodockgpu

>  <m_score__min__energy>  (100) 
-8.6300000000000008

>  <m_primary>  (100) 
energy

>  <rmsd>  (100) 
2.0836650175069313

>  <m_score__min__rmsd>  (100) 
2.0836650175069313

>  <meeko>  (100) 
{"free_energy": -8.52, "intermolecular_energy": -10.01, "internal_energy": -1.17, "cluster_size": 19, "cluster_id": 1, "rank_in_cluster": 12}

>  <energy>  (100) 
-6.69

>  <cluster_rmsd>  (100) 
0.57

>  <cluster>  (100) 
6

$$$$
