
     RDKit          3D

 51 54  0  0  0  0  0  0  0  0999 V2000
  140.0290   73.6930  222.3940 O   0  0  0  0  0  0  0  0  0  0  0  0
  140.3340   72.4740  222.3320 C   0  0  0  0  0  0  0  0  0  0  0  0
  140.7950   71.9660  221.0440 N   0  0  0  0  0  0  0  0  0  0  0  0
  140.8490   72.9080  219.9940 C   0  0  0  0  0  0  0  0  0  0  0  0
  141.8790   72.8400  218.9730 C   0  0  0  0  0  0  0  0  0  0  0  0
  141.3970   72.7070  217.7620 O   0  0  0  0  0  0  0  0  0  0  0  0
  143.2710   72.8880  219.0400 N   0  0  0  0  0  0  0  0  0  0  0  0
  144.1900   71.8250  218.6290 C   0  0  0  0  0  0  0  0  0  0  0  0
  145.5880   72.1720  219.1150 C   0  0  0  0  0  0  0  0  0  0  0  0
  145.6520   72.6810  220.5130 C   0  0  0  0  0  0  0  0  0  0  0  0
  144.5320   73.6840  220.8470 C   0  0  0  0  0  0  0  0  0  0  0  0
  143.9690   74.0910  219.5470 C   0  0  2  0  0  0  0  0  0  0  0  0
  143.2100   75.3220  219.4610 C   0  0  0  0  0  0  0  0  0  0  0  0
  143.3240   76.2240  218.4240 C   0  0  0  0  0  0  0  0  0  0  0  0
  142.5710   77.3780  218.4040 C   0  0  0  0  0  0  0  0  0  0  0  0
  141.6840   77.6740  219.4070 C   0  0  0  0  0  0  0  0  0  0  0  0
  141.5520   76.7960  220.4470 C   0  0  0  0  0  0  0  0  0  0  0  0
  140.6720   77.0960  221.4380 F   0  0  0  0  0  0  0  0  0  0  0  0
  142.3120   75.6260  220.4740 C   0  0  0  0  0  0  0  0  0  0  0  0
  140.2440   71.5840  223.4710 C   0  0  0  0  0  0  0  0  0  0  0  0
  139.6520   70.3680  223.3010 C   0  0  0  0  0  0  0  0  0  0  0  0
  139.5680   69.5200  224.3870 C   0  0  0  0  0  0  0  0  0  0  0  0
  140.0550   69.8470  225.6380 C   0  0  0  0  0  0  0  0  0  0  0  0
  139.9680   68.9950  226.7180 C   0  0  0  0  0  0  0  0  0  0  0  0
  140.4720   69.3640  227.9570 C   0  0  0  0  0  0  0  0  0  0  0  0
  141.0590   70.6100  228.0630 C   0  0  0  0  0  0  0  0  0  0  0  0
  141.1550   71.4800  226.9790 C   0  0  0  0  0  0  0  0  0  0  0  0
  140.6480   71.0920  225.7630 C   0  0  0  0  0  0  0  0  0  0  0  0
  140.7150   71.8950  224.6860 N   0  0  0  0  0  0  0  0  0  0  0  0
  141.0190   70.9630  221.0570 H   0  0  0  0  0  0  0  0  0  0  0  0
  139.8848   72.8442  219.4684 H   0  0  0  0  0  0  0  0  0  0  0  0
  141.0971   73.8405  220.5220 H   0  0  0  0  0  0  0  0  0  0  0  0
  143.8714   70.8694  219.0709 H   0  0  0  0  0  0  0  0  0  0  0  0
  144.1875   71.7314  217.5330 H   0  0  0  0  0  0  0  0  0  0  0  0
  146.2077   71.2654  219.0517 H   0  0  0  0  0  0  0  0  0  0  0  0
  145.9476   72.9877  218.4705 H   0  0  0  0  0  0  0  0  0  0  0  0
  145.5714   71.8258  221.2001 H   0  0  0  0  0  0  0  0  0  0  0  0
  146.6090   73.2120  220.6233 H   0  0  0  0  0  0  0  0  0  0  0  0
  143.7600   73.2058  221.4678 H   0  0  0  0  0  0  0  0  0  0  0  0
  144.9114   74.5457  221.4158 H   0  0  0  0  0  0  0  0  0  0  0  0
  144.7971   74.4137  218.8989 H   0  0  0  0  0  0  0  0  0  0  0  0
  144.0255   76.0195  217.6017 H   0  0  0  0  0  0  0  0  0  0  0  0
  142.6842   78.0784  217.5634 H   0  0  0  0  0  0  0  0  0  0  0  0
  141.0903   78.5995  219.3756 H   0  0  0  0  0  0  0  0  0  0  0  0
  142.1965   74.9291  221.3173 H   0  0  0  0  0  0  0  0  0  0  0  0
  139.2506   70.0694  222.3213 H   0  0  0  0  0  0  0  0  0  0  0  0
  139.0912   68.5382  224.2501 H   0  0  0  0  0  0  0  0  0  0  0  0
  139.4931   68.0103  226.5961 H   0  0  0  0  0  0  0  0  0  0  0  0
  140.4065   68.6891  228.8231 H   0  0  0  0  0  0  0  0  0  0  0  0
  141.4642   70.9258  229.0357 H   0  0  0  0  0  0  0  0  0  0  0  0
  141.6307   72.4649  227.0956 H   0  0  0  0  0  0  0  0  0  0  0  0
  1  2  2  0
  2  3  1  0
  3  4  1  0
  4  5  1  0
  5  6  2  0
  5  7  1  0
  7  8  1  0
  8  9  1  0
  9 10  1  0
 10 11  1  0
 11 12  1  0
 12 13  1  0
 13 14  2  0
 14 15  1  0
 15 16  2  0
 16 17  1  0
 17 18  1  0
 17 19  2  0
  2 20  1  0
 20 21  2  0
 21 22  1  0
 22 23  2  0
 23 24  1  0
 24 25  2  0
 25 26  1  0
 26 27  2  0
 27 28  1  0
 28 29  2  0
 12  7  1  0
 19 13  1  0
 29 20  1  0
 28 23  1  0
  3 30  1  0
  4 31  1  0
  4 32  1  0
  8 33  1  0
  8 34  1  0
  9 35  1  0
  9 36  1  0
 10 37  1  0
 10 38  1  0
 11 39  1  0
 11 40  1  0
 12 41  1  6
 14 42  1  0
 15 43  1  0
 16 44  1  0
 19 45  1  0
 21 46  1  0
 22 47  1  0
 24 48  1  0
 25 49  1  0
 26 50  1  0
 27 51  1  0
M  END
>  <smiles>  (1) 
O=C(NCC(=O)N1CCCCC1c1cccc(F)c1)c1ccc2ccccc2n1

>  <score_type>  (1) 
oracle

>  <origin>  (1) 
autodockgpu

>  <m_score__min__energy>  (1) 
-8.9299999999999997

>  <m_primary>  (1) 
energy

>  <rmsd>  (1) 
3.8096677946990667

>  <m_score__min__rmsd>  (1) 
3.8096677946990667

>  <meeko>  (1) 
{"free_energy": -7.9, "intermolecular_energy": -9.39, "internal_energy": -1.45, "cluster_size": 2, "cluster_id": 3, "rank_in_cluster": 1}

>  <energy>  (1) 
-8.93

>  <cluster_rmsd>  (1) 
0.0

>  <cluster>  (1) 
1

$$$$

     RDKit          3D

 51 54  0  0  0  0  0  0  0  0999 V2000
  139.1240   74.9680  221.8470 O   0  0  0  0  0  0  0  0  0  0  0  0
  140.2090   75.5950  221.9550 C   0  0  0  0  0  0  0  0  0  0  0  0
  141.4320   74.8790  221.6110 N   0  0  0  0  0  0  0  0  0  0  0  0
  141.2650   73.5410  221.1920 C   0  0  0  0  0  0  0  0  0  0  0  0
  142.0590   72.9850  220.1110 C   0  0  0  0  0  0  0  0  0  0  0  0
  141.3360   72.3960  219.1900 O   0  0  0  0  0  0  0  0  0  0  0  0
  143.4330   72.9580  219.8730 N   0  0  0  0  0  0  0  0  0  0  0  0
  144.2890   71.7710  219.9080 C   0  0  0  0  0  0  0  0  0  0  0  0
  145.7430   72.2160  219.8620 C   0  0  0  0  0  0  0  0  0  0  0  0
  146.0690   73.3670  220.7470 C   0  0  0  0  0  0  0  0  0  0  0  0
  145.0020   74.4770  220.7200 C   0  0  0  0  0  0  0  0  0  0  0  0
  144.1720   74.1950  219.5350 C   0  0  2  0  0  0  0  0  0  0  0  0
  143.3640   75.2560  218.9700 C   0  0  0  0  0  0  0  0  0  0  0  0
  142.7930   75.2020  217.7160 C   0  0  0  0  0  0  0  0  0  0  0  0
  142.0350   76.2490  217.2380 C   0  0  0  0  0  0  0  0  0  0  0  0
  141.8190   77.3790  217.9840 C   0  0  0  0  0  0  0  0  0  0  0  0
  142.3740   77.4580  219.2310 C   0  0  0  0  0  0  0  0  0  0  0  0
  142.1560   78.5810  219.9650 F   0  0  0  0  0  0  0  0  0  0  0  0
  143.1440   76.4020  219.7210 C   0  0  0  0  0  0  0  0  0  0  0  0
  140.2780   76.9740  222.3960 C   0  0  0  0  0  0  0  0  0  0  0  0
  139.1130   77.6280  222.6690 C   0  0  0  0  0  0  0  0  0  0  0  0
  139.1800   78.9410  223.0900 C   0  0  0  0  0  0  0  0  0  0  0  0
  140.3720   79.6220  223.2460 C   0  0  0  0  0  0  0  0  0  0  0  0
  140.4310   80.9330  223.6670 C   0  0  0  0  0  0  0  0  0  0  0  0
  141.6510   81.5800  223.8120 C   0  0  0  0  0  0  0  0  0  0  0  0
  142.7930   80.8610  223.5180 C   0  0  0  0  0  0  0  0  0  0  0  0
  142.7480   79.5350  223.0930 C   0  0  0  0  0  0  0  0  0  0  0  0
  141.5280   78.9180  222.9570 C   0  0  0  0  0  0  0  0  0  0  0  0
  141.4300   77.6400  222.5500 N   0  0  0  0  0  0  0  0  0  0  0  0
  142.2830   75.4430  221.7290 H   0  0  0  0  0  0  0  0  0  0  0  0
  141.4562   72.9123  222.0741 H   0  0  0  0  0  0  0  0  0  0  0  0
  140.2516   73.5493  220.7642 H   0  0  0  0  0  0  0  0  0  0  0  0
  144.1034   71.2081  220.8347 H   0  0  0  0  0  0  0  0  0  0  0  0
  144.0678   71.1242  219.0462 H   0  0  0  0  0  0  0  0  0  0  0  0
  146.3716   71.3645  220.1616 H   0  0  0  0  0  0  0  0  0  0  0  0
  145.9326   72.5524  218.8320 H   0  0  0  0  0  0  0  0  0  0  0  0
  146.1632   72.9982  221.7790 H   0  0  0  0  0  0  0  0  0  0  0  0
  147.0067   73.8072  220.3771 H   0  0  0  0  0  0  0  0  0  0  0  0
  144.3908   74.4454  221.6341 H   0  0  0  0  0  0  0  0  0  0  0  0
  145.4551   75.4782  220.6726 H   0  0  0  0  0  0  0  0  0  0  0  0
  144.8388   74.0761  218.6683 H   0  0  0  0  0  0  0  0  0  0  0  0
  142.9446   74.3112  217.0887 H   0  0  0  0  0  0  0  0  0  0  0  0
  141.5925   76.1764  216.2336 H   0  0  0  0  0  0  0  0  0  0  0  0
  141.2113   78.2055  217.5871 H   0  0  0  0  0  0  0  0  0  0  0  0
  143.5864   76.4799  220.7251 H   0  0  0  0  0  0  0  0  0  0  0  0
  138.1431   77.1215  222.5565 H   0  0  0  0  0  0  0  0  0  0  0  0
  138.2410   79.4695  223.3115 H   0  0  0  0  0  0  0  0  0  0  0  0
  139.4997   81.4737  223.8910 H   0  0  0  0  0  0  0  0  0  0  0  0
  141.7059   82.6259  224.1484 H   0  0  0  0  0  0  0  0  0  0  0  0
  143.7716   81.3522  223.6230 H   0  0  0  0  0  0  0  0  0  0  0  0
  143.6766   78.9895  222.8694 H   0  0  0  0  0  0  0  0  0  0  0  0
  1  2  2  0
  2  3  1  0
  3  4  1  0
  4  5  1  0
  5  6  2  0
  5  7  1  0
  7  8  1  0
  8  9  1  0
  9 10  1  0
 10 11  1  0
 11 12  1  0
 12 13  1  0
 13 14  2  0
 14 15  1  0
 15 16  2  0
 16 17  1  0
 17 18  1  0
 17 19  2  0
  2 20  1  0
 20 21  2  0
 21 22  1  0
 22 23  2  0
 23 24  1  0
 24 25  2  0
 25 26  1  0
 26 27  2  0
 27 28  1  0
 28 29  2  0
 12  7  1  0
 19 13  1  0
 29 20  1  0
 28 23  1  0
  3 30  1  0
  4 31  1  0
  4 32  1  0
  8 33  1  0
  8 34  1  0
  9 35  1  0
  9 36  1  0
 10 37  1  0
 10 38  1  0
 11 39  1  0
 11 40  1  0
 12 41  1  6
 14 42  1  0
 15 43  1  0
 16 44  1  0
 19 45  1  0
 21 46  1  0
 22 47  1  0
 24 48  1  0
 25 49  1  0
 26 50  1  0
 27 51  1  0
M  END
>  <smiles>  (2) 
O=C(NCC(=O)N1CCCCC1c1cccc(F)c1)c1ccc2ccccc2n1

>  <score_type>  (2) 
oracle

>  <origin>  (2) 
autodockgpu

>  <m_score__min__energy>  (2) 
-8.9299999999999997

>  <m_primary>  (2) 
energy

>  <rmsd>  (2) 
7.731678859585076

>  <m_score__min__rmsd>  (2) 
7.731678859585076

>  <meeko>  (2) 
{"free_energy": -7.61, "intermolecular_energy": -9.1, "internal_energy": -2.42, "cluster_size": 20, "cluster_id": 4, "rank_in_cluster": 12}

>  <energy>  (2) 
-8.82

>  <cluster_rmsd>  (2) 
0.87

>  <cluster>  (2) 
1

$$$$

     RDKit          3D

 51 54  0  0  0  0  0  0  0  0999 V2000
  141.4910   72.2760  221.7690 O   0  0  0  0  0  0  0  0  0  0  0  0
  140.5010   72.4370  222.5280 C   0  0  0  0  0  0  0  0  0  0  0  0
  139.5780   73.5170  222.2000 N   0  0  0  0  0  0  0  0  0  0  0  0
  139.8980   74.2760  221.0530 C   0  0  0  0  0  0  0  0  0  0  0  0
  140.9030   75.3230  221.0980 C   0  0  0  0  0  0  0  0  0  0  0  0
  141.4480   75.4650  222.2810 O   0  0  0  0  0  0  0  0  0  0  0  0
  141.3890   76.1980  220.1280 N   0  0  0  0  0  0  0  0  0  0  0  0
  140.9220   77.5640  219.8890 C   0  0  0  0  0  0  0  0  0  0  0  0
  141.5210   78.0650  218.5830 C   0  0  0  0  0  0  0  0  0  0  0  0
  141.4830   77.0830  217.4650 C   0  0  0  0  0  0  0  0  0  0  0  0
  141.8570   75.6530  217.8980 C   0  0  0  0  0  0  0  0  0  0  0  0
  142.4890   75.7960  219.2220 C   0  0  2  0  0  0  0  0  0  0  0  0
  143.3350   74.7310  219.7190 C   0  0  0  0  0  0  0  0  0  0  0  0
  144.4780   74.9400  220.4620 C   0  0  0  0  0  0  0  0  0  0  0  0
  145.2390   73.8800  220.9040 C   0  0  0  0  0  0  0  0  0  0  0  0
  144.8920   72.5820  220.6270 C   0  0  0  0  0  0  0  0  0  0  0  0
  143.7630   72.3470  219.8930 C   0  0  0  0  0  0  0  0  0  0  0  0
  143.4250   71.0590  219.6220 F   0  0  0  0  0  0  0  0  0  0  0  0
  142.9880   73.4160  219.4400 C   0  0  0  0  0  0  0  0  0  0  0  0
  140.2570   71.6030  223.6880 C   0  0  0  0  0  0  0  0  0  0  0  0
  139.5320   70.4610  223.5250 C   0  0  0  0  0  0  0  0  0  0  0  0
  139.3000   69.6670  224.6300 C   0  0  0  0  0  0  0  0  0  0  0  0
  139.7690   69.9760  225.8930 C   0  0  0  0  0  0  0  0  0  0  0  0
  139.5340   69.1790  226.9920 C   0  0  0  0  0  0  0  0  0  0  0  0
  140.0250   69.5280  228.2420 C   0  0  0  0  0  0  0  0  0  0  0  0
  140.7520   70.6990  228.3390 C   0  0  0  0  0  0  0  0  0  0  0  0
  140.9970   71.5130  227.2360 C   0  0  0  0  0  0  0  0  0  0  0  0
  140.5000   71.1470  226.0090 C   0  0  0  0  0  0  0  0  0  0  0  0
  140.7090   71.8980  224.9140 N   0  0  0  0  0  0  0  0  0  0  0  0
  138.7960   73.6030  222.8630 H   0  0  0  0  0  0  0  0  0  0  0  0
  140.2295   73.5589  220.2876 H   0  0  0  0  0  0  0  0  0  0  0  0
  138.9716   74.8417  220.8749 H   0  0  0  0  0  0  0  0  0  0  0  0
  139.8242   77.5727  219.8197 H   0  0  0  0  0  0  0  0  0  0  0  0
  141.2339   78.2163  220.7180 H   0  0  0  0  0  0  0  0  0  0  0  0
  140.9636   78.9607  218.2716 H   0  0  0  0  0  0  0  0  0  0  0  0
  142.5836   78.2655  218.7849 H   0  0  0  0  0  0  0  0  0  0  0  0
  140.4649   77.0669  217.0488 H   0  0  0  0  0  0  0  0  0  0  0  0
  142.2287   77.4046  216.7231 H   0  0  0  0  0  0  0  0  0  0  0  0
  140.9570   75.0244  217.9673 H   0  0  0  0  0  0  0  0  0  0  0  0
  142.5299   75.1699  217.1742 H   0  0  0  0  0  0  0  0  0  0  0  0
  143.2826   76.5538  219.1451 H   0  0  0  0  0  0  0  0  0  0  0  0
  144.7864   75.9675  220.7051 H   0  0  0  0  0  0  0  0  0  0  0  0
  146.1464   74.0792  221.4930 H   0  0  0  0  0  0  0  0  0  0  0  0
  145.5100   71.7469  220.9884 H   0  0  0  0  0  0  0  0  0  0  0  0
  142.0828   73.2121  218.8492 H   0  0  0  0  0  0  0  0  0  0  0  0
  139.1409   70.1785  222.5364 H   0  0  0  0  0  0  0  0  0  0  0  0
  138.7144   68.7450  224.4994 H   0  0  0  0  0  0  0  0  0  0  0  0
  138.9497   68.2542  226.8770 H   0  0  0  0  0  0  0  0  0  0  0  0
  139.8422   68.8957  229.1233 H   0  0  0  0  0  0  0  0  0  0  0  0
  141.1503   70.9981  229.3198 H   0  0  0  0  0  0  0  0  0  0  0  0
  141.5817   72.4382  227.3461 H   0  0  0  0  0  0  0  0  0  0  0  0
  1  2  2  0
  2  3  1  0
  3  4  1  0
  4  5  1  0
  5  6  2  0
  5  7  1  0
  7  8  1  0
  8  9  1  0
  9 10  1  0
 10 11  1  0
 11 12  1  0
 12 13  1  0
 13 14  2  0
 14 15  1  0
 15 16  2  0
 16 17  1  0
 17 18  1  0
 17 19  2  0
  2 20  1  0
 20 21  2  0
 21 22  1  0
 22 23  2  0
 23 24  1  0
 24 25  2  0
 25 26  1  0
 26 27  2  0
 27 28  1  0
 28 29  2  0
 12  7  1  0
 19 13  1  0
 29 20  1  0
 28 23  1  0
  3 30  1  0
  4 31  1  0
  4 32  1  0
  8 33  1  0
  8 34  1  0
  9 35  1  0
  9 36  1  0
 10 37  1  0
 10 38  1  0
 11 39  1  0
 11 40  1  0
 12 41  1  6
 14 42  1  0
 15 43  1  0
 16 44  1  0
 19 45  1  0
 21 46  1  0
 22 47  1  0
 24 48  1  0
 25 49  1  0
 26 50  1  0
 27 51  1  0
M  END
>  <smiles>  (3) 
O=C(NCC(=O)N1CCCCC1c1cccc(F)c1)c1ccc2ccccc2n1

>  <score_type>  (3) 
oracle

>  <origin>  (3) 
autodockgpu

>  <m_score__min__energy>  (3) 
-8.9299999999999997

>  <m_primary>  (3) 
energy

>  <rmsd>  (3) 
2.109369124237979

>  <m_score__min__rmsd>  (3) 
2.109369124237979

>  <meeko>  (3) 
{"free_energy": -8.11, "intermolecular_energy": -9.61, "internal_energy": -1.71, "cluster_size": 13, "cluster_id": 1, "rank_in_cluster": 12}

>  <energy>  (3) 
-8.72

>  <cluster_rmsd>  (3) 
0.87

>  <cluster>  (3) 
1

$$$$

     RDKit          3D

 51 54  0  0  0  0  0  0  0  0999 V2000
  141.2510   71.8610  221.4800 O   0  0  0  0  0  0  0  0  0  0  0  0
  140.5400   72.2820  222.4280 C   0  0  0  0  0  0  0  0  0  0  0  0
  139.9480   73.6070  222.2830 N   0  0  0  0  0  0  0  0  0  0  0  0
  140.2420   74.2840  221.0790 C   0  0  0  0  0  0  0  0  0  0  0  0
  140.0610   75.7200  220.9580 C   0  0  0  0  0  0  0  0  0  0  0  0
  138.9820   76.0500  220.2920 O   0  0  0  0  0  0  0  0  0  0  0  0
  140.8140   76.8020  221.4120 N   0  0  0  0  0  0  0  0  0  0  0  0
  140.6400   77.4990  222.6870 C   0  0  0  0  0  0  0  0  0  0  0  0
  141.4730   78.7700  222.6680 C   0  0  0  0  0  0  0  0  0  0  0  0
  141.3890   79.5500  221.4030 C   0  0  0  0  0  0  0  0  0  0  0  0
  141.4380   78.6690  220.1410 C   0  0  0  0  0  0  0  0  0  0  0  0
  141.9220   77.3540  220.5980 C   0  0  2  0  0  0  0  0  0  0  0  0
  142.4900   76.4360  219.6330 C   0  0  0  0  0  0  0  0  0  0  0  0
  142.3420   76.5670  218.2680 C   0  0  0  0  0  0  0  0  0  0  0  0
  142.9090   75.6560  217.4040 C   0  0  0  0  0  0  0  0  0  0  0  0
  143.6380   74.5880  217.8620 C   0  0  0  0  0  0  0  0  0  0  0  0
  143.8000   74.4350  219.2120 C   0  0  0  0  0  0  0  0  0  0  0  0
  144.5230   73.3750  219.6590 F   0  0  0  0  0  0  0  0  0  0  0  0
  143.2280   75.3540  220.0930 C   0  0  0  0  0  0  0  0  0  0  0  0
  140.2960   71.5090  223.6290 C   0  0  0  0  0  0  0  0  0  0  0  0
  139.6080   70.3370  223.5200 C   0  0  0  0  0  0  0  0  0  0  0  0
  139.3780   69.6020  224.6650 C   0  0  0  0  0  0  0  0  0  0  0  0
  139.8110   69.9970  225.9160 C   0  0  0  0  0  0  0  0  0  0  0  0
  139.5770   69.2570  227.0540 C   0  0  0  0  0  0  0  0  0  0  0  0
  140.0320   69.6920  228.2920 C   0  0  0  0  0  0  0  0  0  0  0  0
  140.7220   70.8880  228.3340 C   0  0  0  0  0  0  0  0  0  0  0  0
  140.9660   71.6450  227.1910 C   0  0  0  0  0  0  0  0  0  0  0  0
  140.5050   71.1940  225.9780 C   0  0  0  0  0  0  0  0  0  0  0  0
  140.7150   71.8870  224.8450 N   0  0  0  0  0  0  0  0  0  0  0  0
  139.3880   73.8960  223.0950 H   0  0  0  0  0  0  0  0  0  0  0  0
  141.3013   74.0841  220.8599 H   0  0  0  0  0  0  0  0  0  0  0  0
  139.4809   73.8884  220.3904 H   0  0  0  0  0  0  0  0  0  0  0  0
  139.5792   77.7543  222.8270 H   0  0  0  0  0  0  0  0  0  0  0  0
  140.9653   76.8513  223.5145 H   0  0  0  0  0  0  0  0  0  0  0  0
  141.1327   79.4150  223.4915 H   0  0  0  0  0  0  0  0  0  0  0  0
  142.5221   78.4554  222.7698 H   0  0  0  0  0  0  0  0  0  0  0  0
  140.4429   80.1112  221.4008 H   0  0  0  0  0  0  0  0  0  0  0  0
  142.2647   80.2149  221.3709 H   0  0  0  0  0  0  0  0  0  0  0  0
  140.4357   78.5769  219.6972 H   0  0  0  0  0  0  0  0  0  0  0  0
  142.0921   79.0988  219.3681 H   0  0  0  0  0  0  0  0  0  0  0  0
  142.8458   77.5085  221.1749 H   0  0  0  0  0  0  0  0  0  0  0  0
  141.7632   77.4105  217.8637 H   0  0  0  0  0  0  0  0  0  0  0  0
  142.7739   75.7882  216.3204 H   0  0  0  0  0  0  0  0  0  0  0  0
  144.0832   73.8693  217.1583 H   0  0  0  0  0  0  0  0  0  0  0  0
  143.3650   75.2179  221.1759 H   0  0  0  0  0  0  0  0  0  0  0  0
  139.2450   69.9858  222.5428 H   0  0  0  0  0  0  0  0  0  0  0  0
  138.8233   68.6562  224.5774 H   0  0  0  0  0  0  0  0  0  0  0  0
  139.0228   68.3096  226.9813 H   0  0  0  0  0  0  0  0  0  0  0  0
  139.8497   69.1061  229.2050 H   0  0  0  0  0  0  0  0  0  0  0  0
  141.0912   71.2548  229.3031 H   0  0  0  0  0  0  0  0  0  0  0  0
  141.5210   72.5923  227.2585 H   0  0  0  0  0  0  0  0  0  0  0  0
  1  2  2  0
  2  3  1  0
  3  4  1  0
  4  5  1  0
  5  6  2  0
  5  7  1  0
  7  8  1  0
  8  9  1  0
  9 10  1  0
 10 11  1  0
 11 12  1  0
 12 13  1  0
 13 14  2  0
 14 15  1  0
 15 16  2  0
 16 17  1  0
 17 18  1  0
 17 19  2  0
  2 20  1  0
 20 21  2  0
 21 22  1  0
 22 23  2  0
 23 24  1  0
 24 25  2  0
 25 26  1  0
 26 27  2  0
 27 28  1  0
 28 29  2  0
 12  7  1  0
 19 13  1  0
 29 20  1  0
 28 23  1  0
  3 30  1  0
  4 31  1  0
  4 32  1  0
  8 33  1  0
  8 34  1  0
  9 35  1  0
  9 36  1  0
 10 37  1  0
 10 38  1  0
 11 39  1  0
 11 40  1  0
 12 41  1  1
 14 42  1  0
 15 43  1  0
 16 44  1  0
 19 45  1  0
 21 46  1  0
 22 47  1  0
 24 48  1  0
 25 49  1  0
 26 50  1  0
 27 51  1  0
M  END
>  <smiles>  (4) 
O=C(NCC(=O)N1CCCCC1c1cccc(F)c1)c1ccc2ccccc2n1

>  <score_type>  (4) 
oracle

>  <origin>  (4) 
autodockgpu

>  <m_score__min__energy>  (4) 
-8.9299999999999997

>  <m_primary>  (4) 
energy

>  <rmsd>  (4) 
2.9280882935979466

>  <m_score__min__rmsd>  (4) 
2.9280882935979466

>  <meeko>  (4) 
{"free_energy": -8.25, "intermolecular_energy": -9.74, "internal_energy": -1.42, "cluster_size": 13, "cluster_id": 1, "rank_in_cluster": 9}

>  <energy>  (4) 
-8.49

>  <cluster_rmsd>  (4) 
1.13

>  <cluster>  (4) 
1

$$$$

     RDKit          3D

 51 54  0  0  0  0  0  0  0  0999 V2000
  139.1350   75.1550  221.4470 O   0  0  0  0  0  0  0  0  0  0  0  0
  140.2170   75.6900  221.8010 C   0  0  0  0  0  0  0  0  0  0  0  0
  141.4310   74.8920  221.6690 N   0  0  0  0  0  0  0  0  0  0  0  0
  141.2590   73.5900  221.1520 C   0  0  0  0  0  0  0  0  0  0  0  0
  141.9940   73.1390  219.9840 C   0  0  0  0  0  0  0  0  0  0  0  0
  141.2220   72.8830  218.9560 O   0  0  0  0  0  0  0  0  0  0  0  0
  143.3530   72.9280  219.7530 N   0  0  0  0  0  0  0  0  0  0  0  0
  144.0420   71.6380  219.7890 C   0  0  0  0  0  0  0  0  0  0  0  0
  145.5420   71.8830  219.7520 C   0  0  0  0  0  0  0  0  0  0  0  0
  146.0150   72.9780  220.6420 C   0  0  0  0  0  0  0  0  0  0  0  0
  145.1070   74.2220  220.6120 C   0  0  0  0  0  0  0  0  0  0  0  0
  144.2540   74.0560  219.4220 C   0  0  2  0  0  0  0  0  0  0  0  0
  143.5990   75.2170  218.8560 C   0  0  0  0  0  0  0  0  0  0  0  0
  143.3500   75.3780  217.5090 C   0  0  0  0  0  0  0  0  0  0  0  0
  142.7230   76.5100  217.0360 C   0  0  0  0  0  0  0  0  0  0  0  0
  142.3230   77.5160  217.8790 C   0  0  0  0  0  0  0  0  0  0  0  0
  142.5580   77.3810  219.2190 C   0  0  0  0  0  0  0  0  0  0  0  0
  142.1600   78.3810  220.0480 F   0  0  0  0  0  0  0  0  0  0  0  0
  143.1940   76.2370  219.7050 C   0  0  0  0  0  0  0  0  0  0  0  0
  140.2910   77.0400  222.3230 C   0  0  0  0  0  0  0  0  0  0  0  0
  139.1300   77.6760  222.6480 C   0  0  0  0  0  0  0  0  0  0  0  0
  139.2020   78.9610  223.1450 C   0  0  0  0  0  0  0  0  0  0  0  0
  140.3960   79.6330  223.3280 C   0  0  0  0  0  0  0  0  0  0  0  0
  140.4600   80.9170  223.8250 C   0  0  0  0  0  0  0  0  0  0  0  0
  141.6820   81.5550  223.9930 C   0  0  0  0  0  0  0  0  0  0  0  0
  142.8200   80.8550  223.6440 C   0  0  0  0  0  0  0  0  0  0  0  0
  142.7700   79.5570  223.1420 C   0  0  0  0  0  0  0  0  0  0  0  0
  141.5490   78.9480  222.9830 C   0  0  0  0  0  0  0  0  0  0  0  0
  141.4450   77.6960  222.5030 N   0  0  0  0  0  0  0  0  0  0  0  0
  142.2780   75.3820  221.9840 H   0  0  0  0  0  0  0  0  0  0  0  0
  141.5125   72.8956  221.9666 H   0  0  0  0  0  0  0  0  0  0  0  0
  140.2217   73.6135  220.7867 H   0  0  0  0  0  0  0  0  0  0  0  0
  143.7774   71.1031  220.7130 H   0  0  0  0  0  0  0  0  0  0  0  0
  143.7411   71.0291  218.9237 H   0  0  0  0  0  0  0  0  0  0  0  0
  146.0485   70.9540  220.0527 H   0  0  0  0  0  0  0  0  0  0  0  0
  145.7811   72.1928  218.7240 H   0  0  0  0  0  0  0  0  0  0  0  0
  146.0527   72.5979  221.6736 H   0  0  0  0  0  0  0  0  0  0  0  0
  147.0057   73.2886  220.2785 H   0  0  0  0  0  0  0  0  0  0  0  0
  144.4918   74.2713  221.5225 H   0  0  0  0  0  0  0  0  0  0  0  0
  145.6908   75.1533  220.5698 H   0  0  0  0  0  0  0  0  0  0  0  0
  144.9036   73.8500  218.5586 H   0  0  0  0  0  0  0  0  0  0  0  0
  143.6561   74.5921  216.8029 H   0  0  0  0  0  0  0  0  0  0  0  0
  142.5386   76.6097  215.9562 H   0  0  0  0  0  0  0  0  0  0  0  0
  141.8233   78.4131  217.4846 H   0  0  0  0  0  0  0  0  0  0  0  0
  143.3781   76.1422  220.7853 H   0  0  0  0  0  0  0  0  0  0  0  0
  138.1587   77.1765  222.5171 H   0  0  0  0  0  0  0  0  0  0  0  0
  138.2655   79.4747  223.4079 H   0  0  0  0  0  0  0  0  0  0  0  0
  139.5315   81.4430  224.0919 H   0  0  0  0  0  0  0  0  0  0  0  0
  141.7412   82.5795  224.3892 H   0  0  0  0  0  0  0  0  0  0  0  0
  143.7999   81.3394  223.7668 H   0  0  0  0  0  0  0  0  0  0  0  0
  143.6962   79.0263  222.8763 H   0  0  0  0  0  0  0  0  0  0  0  0
  1  2  2  0
  2  3  1  0
  3  4  1  0
  4  5  1  0
  5  6  2  0
  5  7  1  0
  7  8  1  0
  8  9  1  0
  9 10  1  0
 10 11  1  0
 11 12  1  0
 12 13  1  0
 13 14  2  0
 14 15  1  0
 15 16  2  0
 16 17  1  0
 17 18  1  0
 17 19  2  0
  2 20  1  0
 20 21  2  0
 21 22  1  0
 22 23  2  0
 23 24  1  0
 24 25  2  0
 25 26  1  0
 26 27  2  0
 27 28  1  0
 28 29  2  0
 12  7  1  0
 19 13  1  0
 29 20  1  0
 28 23  1  0
  3 30  1  0
  4 31  1  0
  4 32  1  0
  8 33  1  0
  8 34  1  0
  9 35  1  0
  9 36  1  0
 10 37  1  0
 10 38  1  0
 11 39  1  0
 11 40  1  0
 12 41  1  6
 14 42  1  0
 15 43  1  0
 16 44  1  0
 19 45  1  0
 21 46  1  0
 22 47  1  0
 24 48  1  0
 25 49  1  0
 26 50  1  0
 27 51  1  0
M  END
>  <smiles>  (5) 
O=C(NCC(=O)N1CCCCC1c1cccc(F)c1)c1ccc2ccccc2n1

>  <score_type>  (5) 
oracle

>  <origin>  (5) 
autodockgpu

>  <m_score__min__energy>  (5) 
-8.9299999999999997

>  <m_primary>  (5) 
energy

>  <rmsd>  (5) 
7.728358038078982

>  <m_score__min__rmsd>  (5) 
7.728358038078982

>  <meeko>  (5) 
{"free_energy": -7.65, "intermolecular_energy": -9.14, "internal_energy": -2.31, "cluster_size": 20, "cluster_id": 4, "rank_in_cluster": 4}

>  <energy>  (5) 
-8.45

>  <cluster_rmsd>  (5) 
1.14

>  <cluster>  (5) 
1

$$$$

     RDKit          3D

 51 54  0  0  0  0  0  0  0  0999 V2000
  139.4810   73.5040  222.3150 O   0  0  0  0  0  0  0  0  0  0  0  0
  140.2940   72.5610  222.4940 C   0  0  0  0  0  0  0  0  0  0  0  0
  141.3860   72.4310  221.5360 N   0  0  0  0  0  0  0  0  0  0  0  0
  141.4140   73.3880  220.4990 C   0  0  0  0  0  0  0  0  0  0  0  0
  141.7410   74.7780  220.7630 C   0  0  0  0  0  0  0  0  0  0  0  0
  141.4650   75.1480  221.9890 O   0  0  0  0  0  0  0  0  0  0  0  0
  142.2860   75.7820  219.9640 N   0  0  0  0  0  0  0  0  0  0  0  0
  141.7710   77.1450  219.8240 C   0  0  0  0  0  0  0  0  0  0  0  0
  142.4880   77.8220  218.6660 C   0  0  0  0  0  0  0  0  0  0  0  0
  142.6380   76.9780  217.4490 C   0  0  0  0  0  0  0  0  0  0  0  0
  143.0410   75.5250  217.7610 C   0  0  0  0  0  0  0  0  0  0  0  0
  143.5050   75.5390  219.1600 C   0  0  2  0  0  0  0  0  0  0  0  0
  144.3470   74.4600  219.6350 C   0  0  0  0  0  0  0  0  0  0  0  0
  145.0950   74.5210  220.7920 C   0  0  0  0  0  0  0  0  0  0  0  0
  145.8760   73.4570  221.1870 C   0  0  0  0  0  0  0  0  0  0  0  0
  145.9420   72.3020  220.4510 C   0  0  0  0  0  0  0  0  0  0  0  0
  145.2110   72.2150  219.2990 C   0  0  0  0  0  0  0  0  0  0  0  0
  145.2810   71.0680  218.5740 F   0  0  0  0  0  0  0  0  0  0  0  0
  144.4170   73.2900  218.8930 C   0  0  0  0  0  0  0  0  0  0  0  0
  140.1810   71.6250  223.5940 C   0  0  0  0  0  0  0  0  0  0  0  0
  139.5870   70.4190  223.3650 C   0  0  0  0  0  0  0  0  0  0  0  0
  139.4810   69.5290  224.4130 C   0  0  0  0  0  0  0  0  0  0  0  0
  139.9480   69.8020  225.6850 C   0  0  0  0  0  0  0  0  0  0  0  0
  139.8390   68.9080  226.7280 C   0  0  0  0  0  0  0  0  0  0  0  0
  140.3230   69.2230  227.9900 C   0  0  0  0  0  0  0  0  0  0  0  0
  140.9130   70.4610  228.1560 C   0  0  0  0  0  0  0  0  0  0  0  0
  141.0310   71.3740  227.1110 C   0  0  0  0  0  0  0  0  0  0  0  0
  140.5430   71.0390  225.8710 C   0  0  0  0  0  0  0  0  0  0  0  0
  140.6320   71.8840  224.8290 N   0  0  0  0  0  0  0  0  0  0  0  0
  142.0090   71.6370  221.7320 H   0  0  0  0  0  0  0  0  0  0  0  0
  142.1500   73.0293  219.7644 H   0  0  0  0  0  0  0  0  0  0  0  0
  140.3574   73.4447  220.1985 H   0  0  0  0  0  0  0  0  0  0  0  0
  140.6902   77.1131  219.6220 H   0  0  0  0  0  0  0  0  0  0  0  0
  141.9452   77.7082  220.7527 H   0  0  0  0  0  0  0  0  0  0  0  0
  141.9197   78.7227  218.3905 H   0  0  0  0  0  0  0  0  0  0  0  0
  143.5063   78.0438  219.0179 H   0  0  0  0  0  0  0  0  0  0  0  0
  141.6782   76.9664  216.9118 H   0  0  0  0  0  0  0  0  0  0  0  0
  143.4457   77.4175  216.8454 H   0  0  0  0  0  0  0  0  0  0  0  0
  142.1770   74.8535  217.6488 H   0  0  0  0  0  0  0  0  0  0  0  0
  143.8201   75.1605  217.0754 H   0  0  0  0  0  0  0  0  0  0  0  0
  144.2566   76.3352  219.2654 H   0  0  0  0  0  0  0  0  0  0  0  0
  145.0677   75.4319  221.4081 H   0  0  0  0  0  0  0  0  0  0  0  0
  146.4608   73.5360  222.1153 H   0  0  0  0  0  0  0  0  0  0  0  0
  146.5708   71.4619  220.7810 H   0  0  0  0  0  0  0  0  0  0  0  0
  143.8340   73.2070  217.9639 H   0  0  0  0  0  0  0  0  0  0  0  0
  139.2013   70.1621  222.3674 H   0  0  0  0  0  0  0  0  0  0  0  0
  139.0023   68.5561  224.2280 H   0  0  0  0  0  0  0  0  0  0  0  0
  139.3620   67.9315  226.5580 H   0  0  0  0  0  0  0  0  0  0  0  0
  140.2399   68.5136  228.8266 H   0  0  0  0  0  0  0  0  0  0  0  0
  141.3029   70.7350  229.1474 H   0  0  0  0  0  0  0  0  0  0  0  0
  141.5088   72.3509  227.2762 H   0  0  0  0  0  0  0  0  0  0  0  0
  1  2  2  0
  2  3  1  0
  3  4  1  0
  4  5  1  0
  5  6  2  0
  5  7  1  0
  7  8  1  0
  8  9  1  0
  9 10  1  0
 10 11  1  0
 11 12  1  0
 12 13  1  0
 13 14  2  0
 14 15  1  0
 15 16  2  0
 16 17  1  0
 17 18  1  0
 17 19  2  0
  2 20  1  0
 20 21  2  0
 21 22  1  0
 22 23  2  0
 23 24  1  0
 24 25  2  0
 25 26  1  0
 26 27  2  0
 27 28  1  0
 28 29  2  0
 12  7  1  0
 19 13  1  0
 29 20  1  0
 28 23  1  0
  3 30  1  0
  4 31  1  0
  4 32  1  0
  8 33  1  0
  8 34  1  0
  9 35  1  0
  9 36  1  0
 10 37  1  0
 10 38  1  0
 11 39  1  0
 11 40  1  0
 12 41  1  6
 14 42  1  0
 15 43  1  0
 16 44  1  0
 19 45  1  0
 21 46  1  0
 22 47  1  0
 24 48  1  0
 25 49  1  0
 26 50  1  0
 27 51  1  0
M  END
>  <smiles>  (6) 
O=C(NCC(=O)N1CCCCC1c1cccc(F)c1)c1ccc2ccccc2n1

>  <score_type>  (6) 
oracle

>  <origin>  (6) 
autodockgpu

>  <m_score__min__energy>  (6) 
-8.9299999999999997

>  <m_primary>  (6) 
energy

>  <rmsd>  (6) 
2.593082598527144

>  <m_score__min__rmsd>  (6) 
2.593082598527144

>  <meeko>  (6) 
{"free_energy": -8.72, "intermolecular_energy": -10.22, "internal_energy": -1.32, "cluster_size": 13, "cluster_id": 1, "rank_in_cluster": 3}

>  <energy>  (6) 
-8.45

>  <cluster_rmsd>  (6) 
1.12

>  <cluster>  (6) 
1

$$$$

     RDKit          3D

 51 54  0  0  0  0  0  0  0  0999 V2000
  140.5970   77.0730  218.4740 O   0  0  0  0  0  0  0  0  0  0  0  0
  141.7260   77.0420  219.0290 C   0  0  0  0  0  0  0  0  0  0  0  0
  142.2470   78.3000  219.5530 N   0  0  0  0  0  0  0  0  0  0  0  0
  141.4190   79.4300  219.3790 C   0  0  0  0  0  0  0  0  0  0  0  0
  140.6580   79.9860  220.4830 C   0  0  0  0  0  0  0  0  0  0  0  0
  139.4030   80.2150  220.1810 O   0  0  0  0  0  0  0  0  0  0  0  0
  141.0080   80.3200  221.7910 N   0  0  0  0  0  0  0  0  0  0  0  0
  141.2880   81.6670  222.2900 C   0  0  0  0  0  0  0  0  0  0  0  0
  141.8870   81.5580  223.6830 C   0  0  0  0  0  0  0  0  0  0  0  0
  142.9260   80.5020  223.8320 C   0  0  0  0  0  0  0  0  0  0  0  0
  142.5590   79.1830  223.1280 C   0  0  0  0  0  0  0  0  0  0  0  0
  141.1170   79.2800  222.8390 C   0  0  2  0  0  0  0  0  0  0  0  0
  140.3660   78.0690  222.5820 C   0  0  0  0  0  0  0  0  0  0  0  0
  138.9900   77.9910  222.6430 C   0  0  0  0  0  0  0  0  0  0  0  0
  138.3360   76.8050  222.3870 C   0  0  0  0  0  0  0  0  0  0  0  0
  139.0220   75.6620  222.0640 C   0  0  0  0  0  0  0  0  0  0  0  0
  140.3870   75.7120  221.9960 C   0  0  0  0  0  0  0  0  0  0  0  0
  141.0600   74.5770  221.6750 F   0  0  0  0  0  0  0  0  0  0  0  0
  141.0560   76.9100  222.2550 C   0  0  0  0  0  0  0  0  0  0  0  0
  142.5020   75.8260  219.1610 C   0  0  0  0  0  0  0  0  0  0  0  0
  142.0850   74.7130  218.4940 C   0  0  0  0  0  0  0  0  0  0  0  0
  142.8260   73.5560  218.6200 C   0  0  0  0  0  0  0  0  0  0  0  0
  143.9700   73.4730  219.3900 C   0  0  0  0  0  0  0  0  0  0  0  0
  144.7050   72.3130  219.5110 C   0  0  0  0  0  0  0  0  0  0  0  0
  145.8500   72.2750  220.2950 C   0  0  0  0  0  0  0  0  0  0  0  0
  146.2180   73.4370  220.9450 C   0  0  0  0  0  0  0  0  0  0  0  0
  145.4850   74.6160  220.8300 C   0  0  0  0  0  0  0  0  0  0  0  0
  144.3550   74.6280  220.0490 C   0  0  0  0  0  0  0  0  0  0  0  0
  143.6120   75.7400  219.9050 N   0  0  0  0  0  0  0  0  0  0  0  0
  143.1750   78.2090  219.9850 H   0  0  0  0  0  0  0  0  0  0  0  0
  142.0686   80.2378  219.0110 H   0  0  0  0  0  0  0  0  0  0  0  0
  140.6300   79.0469  218.7151 H   0  0  0  0  0  0  0  0  0  0  0  0
  142.0007   82.1691  221.6192 H   0  0  0  0  0  0  0  0  0  0  0  0
  140.3577   82.2528  222.3277 H   0  0  0  0  0  0  0  0  0  0  0  0
  142.3435   82.5262  223.9365 H   0  0  0  0  0  0  0  0  0  0  0  0
  141.0620   81.2796  224.3553 H   0  0  0  0  0  0  0  0  0  0  0  0
  143.8678   80.8759  223.4039 H   0  0  0  0  0  0  0  0  0  0  0  0
  143.0169   80.2836  224.9063 H   0  0  0  0  0  0  0  0  0  0  0  0
  143.1316   79.0726  222.1953 H   0  0  0  0  0  0  0  0  0  0  0  0
  142.7925   78.3080  223.7524 H   0  0  0  0  0  0  0  0  0  0  0  0
  140.5959   79.5495  223.7695 H   0  0  0  0  0  0  0  0  0  0  0  0
  138.4067   78.8877  222.8995 H   0  0  0  0  0  0  0  0  0  0  0  0
  137.2379   76.7744  222.4430 H   0  0  0  0  0  0  0  0  0  0  0  0
  138.4847   74.7233  221.8635 H   0  0  0  0  0  0  0  0  0  0  0  0
  142.1543   76.9357  222.1986 H   0  0  0  0  0  0  0  0  0  0  0  0
  141.1793   74.7366  217.8701 H   0  0  0  0  0  0  0  0  0  0  0  0
  142.4900   72.6573  218.0820 H   0  0  0  0  0  0  0  0  0  0  0  0
  144.3802   71.4062  218.9797 H   0  0  0  0  0  0  0  0  0  0  0  0
  146.4424   71.3536  220.3949 H   0  0  0  0  0  0  0  0  0  0  0  0
  147.1201   73.4311  221.5745 H   0  0  0  0  0  0  0  0  0  0  0  0
  145.8070   75.5258  221.3579 H   0  0  0  0  0  0  0  0  0  0  0  0
  1  2  2  0
  2  3  1  0
  3  4  1  0
  4  5  1  0
  5  6  2  0
  5  7  1  0
  7  8  1  0
  8  9  1  0
  9 10  1  0
 10 11  1  0
 11 12  1  0
 12 13  1  0
 13 14  2  0
 14 15  1  0
 15 16  2  0
 16 17  1  0
 17 18  1  0
 17 19  2  0
  2 20  1  0
 20 21  2  0
 21 22  1  0
 22 23  2  0
 23 24  1  0
 24 25  2  0
 25 26  1  0
 26 27  2  0
 27 28  1  0
 28 29  2  0
 12  7  1  0
 19 13  1  0
 29 20  1  0
 28 23  1  0
  3 30  1  0
  4 31  1  0
  4 32  1  0
  8 33  1  0
  8 34  1  0
  9 35  1  0
  9 36  1  0
 10 37  1  0
 10 38  1  0
 11 39  1  0
 11 40  1  0
 12 41  1  1
 14 42  1  0
 15 43  1  0
 16 44  1  0
 19 45  1  0
 21 46  1  0
 22 47  1  0
 24 48  1  0
 25 49  1  0
 26 50  1  0
 27 51  1  0
M  END
>  <smiles>  (7) 
O=C(NCC(=O)N1CCCCC1c1cccc(F)c1)c1ccc2ccccc2n1

>  <score_type>  (7) 
oracle

>  <origin>  (7) 
autodockgpu

>  <m_score__min__energy>  (7) 
-8.9299999999999997

>  <m_primary>  (7) 
energy

>  <rmsd>  (7) 
7.623339270616443

>  <m_score__min__rmsd>  (7) 
7.623339270616443

>  <meeko>  (7) 
{"free_energy": -7.35, "intermolecular_energy": -8.84, "internal_energy": -2.63, "cluster_size": 13, "cluster_id": 5, "rank_in_cluster": 4}

>  <energy>  (7) 
-8.37

>  <cluster_rmsd>  (7) 
1.17

>  <cluster>  (7) 
1

$$$$

     RDKit          3D

 51 54  0  0  0  0  0  0  0  0999 V2000
  140.5380   77.0340  219.0460 O   0  0  0  0  0  0  0  0  0  0  0  0
  141.7890   77.0320  219.1750 C   0  0  0  0  0  0  0  0  0  0  0  0
  142.4530   78.3270  219.2660 N   0  0  0  0  0  0  0  0  0  0  0  0
  141.6120   79.4580  219.1980 C   0  0  0  0  0  0  0  0  0  0  0  0
  140.7680   79.8390  220.3160 C   0  0  0  0  0  0  0  0  0  0  0  0
  139.4900   79.8280  220.0250 O   0  0  0  0  0  0  0  0  0  0  0  0
  141.0590   80.2120  221.6280 N   0  0  0  0  0  0  0  0  0  0  0  0
  141.2860   81.5770  222.1040 C   0  0  0  0  0  0  0  0  0  0  0  0
  141.8340   81.5160  223.5210 C   0  0  0  0  0  0  0  0  0  0  0  0
  142.8930   80.4920  223.7350 C   0  0  0  0  0  0  0  0  0  0  0  0
  142.5860   79.1470  223.0500 C   0  0  0  0  0  0  0  0  0  0  0  0
  141.1540   79.2010  222.7050 C   0  0  2  0  0  0  0  0  0  0  0  0
  140.4430   77.9650  222.4490 C   0  0  0  0  0  0  0  0  0  0  0  0
  141.0630   76.7560  222.2130 C   0  0  0  0  0  0  0  0  0  0  0  0
  140.3250   75.6160  221.9760 C   0  0  0  0  0  0  0  0  0  0  0  0
  138.9540   75.6380  221.9650 C   0  0  0  0  0  0  0  0  0  0  0  0
  138.3140   76.8240  222.1970 C   0  0  0  0  0  0  0  0  0  0  0  0
  136.9560   76.8370  222.1850 F   0  0  0  0  0  0  0  0  0  0  0  0
  139.0550   77.9820  222.4370 C   0  0  0  0  0  0  0  0  0  0  0  0
  142.5690   75.8120  219.2350 C   0  0  0  0  0  0  0  0  0  0  0  0
  142.1580   74.7400  218.5000 C   0  0  0  0  0  0  0  0  0  0  0  0
  142.9020   73.5800  218.5580 C   0  0  0  0  0  0  0  0  0  0  0  0
  144.0430   73.4530  219.3270 C   0  0  0  0  0  0  0  0  0  0  0  0
  144.7810   72.2900  219.3800 C   0  0  0  0  0  0  0  0  0  0  0  0
  145.9220   72.2070  220.1660 C   0  0  0  0  0  0  0  0  0  0  0  0
  146.2840   73.3280  220.8870 C   0  0  0  0  0  0  0  0  0  0  0  0
  145.5470   74.5100  220.8420 C   0  0  0  0  0  0  0  0  0  0  0  0
  144.4210   74.5670  220.0570 C   0  0  0  0  0  0  0  0  0  0  0  0
  143.6760   75.6830  219.9790 N   0  0  0  0  0  0  0  0  0  0  0  0
  143.4750   78.2560  219.3610 H   0  0  0  0  0  0  0  0  0  0  0  0
  142.2648   80.3194  218.9932 H   0  0  0  0  0  0  0  0  0  0  0  0
  140.8773   79.1632  218.4342 H   0  0  0  0  0  0  0  0  0  0  0  0
  142.0110   82.0816  221.4484 H   0  0  0  0  0  0  0  0  0  0  0  0
  140.3407   82.1394  222.0923 H   0  0  0  0  0  0  0  0  0  0  0  0
  142.2555   82.5016  223.7680 H   0  0  0  0  0  0  0  0  0  0  0  0
  140.9912   81.2311  224.1679 H   0  0  0  0  0  0  0  0  0  0  0  0
  143.8406   80.8803  223.3334 H   0  0  0  0  0  0  0  0  0  0  0  0
  142.9489   80.3018  224.8170 H   0  0  0  0  0  0  0  0  0  0  0  0
  143.1963   79.0292  222.1424 H   0  0  0  0  0  0  0  0  0  0  0  0
  142.8173   78.2930  223.7036 H   0  0  0  0  0  0  0  0  0  0  0  0
  140.5923   79.4798  223.6087 H   0  0  0  0  0  0  0  0  0  0  0  0
  142.1616   76.7005  222.2139 H   0  0  0  0  0  0  0  0  0  0  0  0
  140.8483   74.6662  221.7913 H   0  0  0  0  0  0  0  0  0  0  0  0
  138.3801   74.7194  221.7732 H   0  0  0  0  0  0  0  0  0  0  0  0
  138.5273   78.9295  222.6208 H   0  0  0  0  0  0  0  0  0  0  0  0
  141.2544   74.7987  217.8754 H   0  0  0  0  0  0  0  0  0  0  0  0
  142.5714   72.7152  217.9640 H   0  0  0  0  0  0  0  0  0  0  0  0
  144.4617   71.4168  218.7921 H   0  0  0  0  0  0  0  0  0  0  0  0
  146.5161   71.2824  220.2129 H   0  0  0  0  0  0  0  0  0  0  0  0
  147.1842   73.2865  221.5179 H   0  0  0  0  0  0  0  0  0  0  0  0
  145.8628   75.3860  221.4275 H   0  0  0  0  0  0  0  0  0  0  0  0
  1  2  2  0
  2  3  1  0
  3  4  1  0
  4  5  1  0
  5  6  2  0
  5  7  1  0
  7  8  1  0
  8  9  1  0
  9 10  1  0
 10 11  1  0
 11 12  1  0
 12 13  1  0
 13 14  2  0
 14 15  1  0
 15 16  2  0
 16 17  1  0
 17 18  1  0
 17 19  2  0
  2 20  1  0
 20 21  2  0
 21 22  1  0
 22 23  2  0
 23 24  1  0
 24 25  2  0
 25 26  1  0
 26 27  2  0
 27 28  1  0
 28 29  2  0
 12  7  1  0
 19 13  1  0
 29 20  1  0
 28 23  1  0
  3 30  1  0
  4 31  1  0
  4 32  1  0
  8 33  1  0
  8 34  1  0
  9 35  1  0
  9 36  1  0
 10 37  1  0
 10 38  1  0
 11 39  1  0
 11 40  1  0
 12 41  1  1
 14 42  1  0
 15 43  1  0
 16 44  1  0
 19 45  1  0
 21 46  1  0
 22 47  1  0
 24 48  1  0
 25 49  1  0
 26 50  1  0
 27 51  1  0
M  END
>  <smiles>  (8) 
O=C(NCC(=O)N1CCCCC1c1cccc(F)c1)c1ccc2ccccc2n1

>  <score_type>  (8) 
oracle

>  <origin>  (8) 
autodockgpu

>  <m_score__min__energy>  (8) 
-8.9299999999999997

>  <m_primary>  (8) 
energy

>  <rmsd>  (8) 
7.632519952646804

>  <m_score__min__rmsd>  (8) 
7.632519952646804

>  <meeko>  (8) 
{"free_energy": -7.3, "intermolecular_energy": -8.79, "internal_energy": -2.42, "cluster_size": 13, "cluster_id": 5, "rank_in_cluster": 9}

>  <energy>  (8) 
-8.37

>  <cluster_rmsd>  (8) 
1.2

>  <cluster>  (8) 
1

$$$$

     RDKit          3D

 51 54  0  0  0  0  0  0  0  0999 V2000
  139.0850   75.2690  221.1780 O   0  0  0  0  0  0  0  0  0  0  0  0
  140.1660   75.7260  221.6300 C   0  0  0  0  0  0  0  0  0  0  0  0
  141.3350   74.8560  221.5730 N   0  0  0  0  0  0  0  0  0  0  0  0
  141.1250   73.5780  221.0110 C   0  0  0  0  0  0  0  0  0  0  0  0
  141.9800   73.0690  219.9540 C   0  0  0  0  0  0  0  0  0  0  0  0
  141.3110   72.5180  218.9700 O   0  0  0  0  0  0  0  0  0  0  0  0
  143.3650   73.0550  219.7910 N   0  0  0  0  0  0  0  0  0  0  0  0
  144.2190   71.8670  219.7880 C   0  0  0  0  0  0  0  0  0  0  0  0
  145.6720   72.3090  219.8550 C   0  0  0  0  0  0  0  0  0  0  0  0
  145.9480   73.3940  220.8370 C   0  0  0  0  0  0  0  0  0  0  0  0
  144.8820   74.5060  220.8300 C   0  0  0  0  0  0  0  0  0  0  0  0
  144.1200   74.3110  219.5840 C   0  0  2  0  0  0  0  0  0  0  0  0
  143.3440   75.4130  219.0520 C   0  0  0  0  0  0  0  0  0  0  0  0
  143.0990   76.5830  219.7400 C   0  0  0  0  0  0  0  0  0  0  0  0
  142.3500   77.5920  219.1740 C   0  0  0  0  0  0  0  0  0  0  0  0
  141.8220   77.4760  217.9140 C   0  0  0  0  0  0  0  0  0  0  0  0
  142.0500   76.3250  217.2110 C   0  0  0  0  0  0  0  0  0  0  0  0
  141.5240   76.2160  215.9630 F   0  0  0  0  0  0  0  0  0  0  0  0
  142.8070   75.2980  217.7770 C   0  0  0  0  0  0  0  0  0  0  0  0
  140.2820   77.0580  222.1900 C   0  0  0  0  0  0  0  0  0  0  0  0
  139.1510   77.6780  222.6310 C   0  0  0  0  0  0  0  0  0  0  0  0
  139.2640   78.9460  223.1650 C   0  0  0  0  0  0  0  0  0  0  0  0
  140.4680   79.6160  223.2720 C   0  0  0  0  0  0  0  0  0  0  0  0
  140.5720   80.8820  223.8060 C   0  0  0  0  0  0  0  0  0  0  0  0
  141.8030   81.5180  223.8950 C   0  0  0  0  0  0  0  0  0  0  0  0
  142.9090   80.8340  223.4290 C   0  0  0  0  0  0  0  0  0  0  0  0
  142.8180   79.5540  222.8880 C   0  0  0  0  0  0  0  0  0  0  0  0
  141.5890   78.9460  222.8100 C   0  0  0  0  0  0  0  0  0  0  0  0
  141.4470   77.7120  222.2960 N   0  0  0  0  0  0  0  0  0  0  0  0
  142.1830   75.2830  221.9660 H   0  0  0  0  0  0  0  0  0  0  0  0
  141.1932   72.8584  221.8401 H   0  0  0  0  0  0  0  0  0  0  0  0
  140.1588   73.6984  220.4991 H   0  0  0  0  0  0  0  0  0  0  0  0
  143.9827   71.2395  220.6600 H   0  0  0  0  0  0  0  0  0  0  0  0
  144.0470   71.2849  218.8706 H   0  0  0  0  0  0  0  0  0  0  0  0
  146.2833   71.4362  220.1280 H   0  0  0  0  0  0  0  0  0  0  0  0
  145.9184   72.7172  218.8637 H   0  0  0  0  0  0  0  0  0  0  0  0
  145.9859   72.9526  221.8439 H   0  0  0  0  0  0  0  0  0  0  0  0
  146.9043   73.8568  220.5518 H   0  0  0  0  0  0  0  0  0  0  0  0
  144.2210   74.4108  221.7041 H   0  0  0  0  0  0  0  0  0  0  0  0
  145.3353   75.5070  220.8794 H   0  0  0  0  0  0  0  0  0  0  0  0
  144.8337   74.2513  218.7491 H   0  0  0  0  0  0  0  0  0  0  0  0
  143.5066   76.7125  220.7535 H   0  0  0  0  0  0  0  0  0  0  0  0
  142.1713   78.5135  219.7475 H   0  0  0  0  0  0  0  0  0  0  0  0
  141.2272   78.2918  217.4774 H   0  0  0  0  0  0  0  0  0  0  0  0
  142.9819   74.3777  217.2004 H   0  0  0  0  0  0  0  0  0  0  0  0
  138.1724   77.1803  222.5631 H   0  0  0  0  0  0  0  0  0  0  0  0
  138.3523   79.4470  223.5224 H   0  0  0  0  0  0  0  0  0  0  0  0
  139.6683   81.3953  224.1663 H   0  0  0  0  0  0  0  0  0  0  0  0
  141.8941   82.5283  224.3205 H   0  0  0  0  0  0  0  0  0  0  0  0
  143.8956   81.3170  223.4873 H   0  0  0  0  0  0  0  0  0  0  0  0
  143.7192   79.0364  222.5276 H   0  0  0  0  0  0  0  0  0  0  0  0
  1  2  2  0
  2  3  1  0
  3  4  1  0
  4  5  1  0
  5  6  2  0
  5  7  1  0
  7  8  1  0
  8  9  1  0
  9 10  1  0
 10 11  1  0
 11 12  1  0
 12 13  1  0
 13 14  2  0
 14 15  1  0
 15 16  2  0
 16 17  1  0
 17 18  1  0
 17 19  2  0
  2 20  1  0
 20 21  2  0
 21 22  1  0
 22 23  2  0
 23 24  1  0
 24 25  2  0
 25 26  1  0
 26 27  2  0
 27 28  1  0
 28 29  2  0
 12  7  1  0
 19 13  1  0
 29 20  1  0
 28 23  1  0
  3 30  1  0
  4 31  1  0
  4 32  1  0
  8 33  1  0
  8 34  1  0
  9 35  1  0
  9 36  1  0
 10 37  1  0
 10 38  1  0
 11 39  1  0
 11 40  1  0
 12 41  1  6
 14 42  1  0
 15 43  1  0
 16 44  1  0
 19 45  1  0
 21 46  1  0
 22 47  1  0
 24 48  1  0
 25 49  1  0
 26 50  1  0
 27 51  1  0
M  END
>  <smiles>  (9) 
O=C(NCC(=O)N1CCCCC1c1cccc(F)c1)c1ccc2ccccc2n1

>  <score_type>  (9) 
oracle

>  <origin>  (9) 
autodockgpu

>  <m_score__min__energy>  (9) 
-8.9299999999999997

>  <m_primary>  (9) 
energy

>  <rmsd>  (9) 
7.7098811574556

>  <m_score__min__rmsd>  (9) 
7.7098811574556

>  <meeko>  (9) 
{"free_energy": -7.43, "intermolecular_energy": -8.92, "internal_energy": -2.39, "cluster_size": 20, "cluster_id": 4, "rank_in_cluster": 20}

>  <energy>  (9) 
-8.25

>  <cluster_rmsd>  (9) 
1.95

>  <cluster>  (9) 
1

$$$$

     RDKit          3D

 51 54  0  0  0  0  0  0  0  0999 V2000
  141.5720   72.3070  221.7870 O   0  0  0  0  0  0  0  0  0  0  0  0
  140.5570   72.4940  222.5060 C   0  0  0  0  0  0  0  0  0  0  0  0
  139.6800   73.6030  222.1470 N   0  0  0  0  0  0  0  0  0  0  0  0
  140.0700   74.3570  221.0190 C   0  0  0  0  0  0  0  0  0  0  0  0
  141.0290   75.4410  221.1310 C   0  0  0  0  0  0  0  0  0  0  0  0
  141.4440   75.6380  222.3590 O   0  0  0  0  0  0  0  0  0  0  0  0
  141.5840   76.3050  220.1880 N   0  0  0  0  0  0  0  0  0  0  0  0
  141.2630   77.7240  220.0260 C   0  0  0  0  0  0  0  0  0  0  0  0
  141.8790   78.2200  218.7270 C   0  0  0  0  0  0  0  0  0  0  0  0
  141.7050   77.3030  217.5670 C   0  0  0  0  0  0  0  0  0  0  0  0
  141.9320   75.8220  217.9220 C   0  0  0  0  0  0  0  0  0  0  0  0
  142.6090   75.8310  219.2310 C   0  0  2  0  0  0  0  0  0  0  0  0
  143.3450   74.6580  219.6530 C   0  0  0  0  0  0  0  0  0  0  0  0
  142.9980   73.3680  219.3090 C   0  0  0  0  0  0  0  0  0  0  0  0
  143.7430   72.2940  219.7450 C   0  0  0  0  0  0  0  0  0  0  0  0
  144.8530   72.4630  220.5350 C   0  0  0  0  0  0  0  0  0  0  0  0
  145.2180   73.7310  220.8900 C   0  0  0  0  0  0  0  0  0  0  0  0
  146.3180   73.8910  221.6720 F   0  0  0  0  0  0  0  0  0  0  0  0
  144.4680   74.8240  220.4520 C   0  0  0  0  0  0  0  0  0  0  0  0
  140.2400   71.6610  223.6490 C   0  0  0  0  0  0  0  0  0  0  0  0
  139.4100   70.5950  223.4670 C   0  0  0  0  0  0  0  0  0  0  0  0
  139.1100   69.8030  224.5560 C   0  0  0  0  0  0  0  0  0  0  0  0
  139.6100   70.0400  225.8220 C   0  0  0  0  0  0  0  0  0  0  0  0
  139.3060   69.2450  226.9050 C   0  0  0  0  0  0  0  0  0  0  0  0
  139.8320   69.5200  228.1600 C   0  0  0  0  0  0  0  0  0  0  0  0
  140.6650   70.6150  228.2770 C   0  0  0  0  0  0  0  0  0  0  0  0
  140.9810   71.4270  227.1910 C   0  0  0  0  0  0  0  0  0  0  0  0
  140.4480   71.1350  225.9590 C   0  0  0  0  0  0  0  0  0  0  0  0
  140.7220   71.8870  224.8780 N   0  0  0  0  0  0  0  0  0  0  0  0
  138.8750   73.7080  222.7770 H   0  0  0  0  0  0  0  0  0  0  0  0
  140.4915   73.6419  220.2972 H   0  0  0  0  0  0  0  0  0  0  0  0
  139.1426   74.8855  220.7532 H   0  0  0  0  0  0  0  0  0  0  0  0
  140.1713   77.8546  219.9911 H   0  0  0  0  0  0  0  0  0  0  0  0
  141.6656   78.2977  220.8738 H   0  0  0  0  0  0  0  0  0  0  0  0
  141.4150   79.1847  218.4740 H   0  0  0  0  0  0  0  0  0  0  0  0
  142.9620   78.2946  218.9049 H   0  0  0  0  0  0  0  0  0  0  0  0
  140.6807   77.4168  217.1825 H   0  0  0  0  0  0  0  0  0  0  0  0
  142.4619   77.5782  216.8178 H   0  0  0  0  0  0  0  0  0  0  0  0
  140.9710   75.2911  217.9897 H   0  0  0  0  0  0  0  0  0  0  0  0
  142.5298   75.3055  217.1566 H   0  0  0  0  0  0  0  0  0  0  0  0
  143.4784   76.5015  219.1637 H   0  0  0  0  0  0  0  0  0  0  0  0
  142.1141   73.1943  218.6777 H   0  0  0  0  0  0  0  0  0  0  0  0
  143.4413   71.2772  219.4532 H   0  0  0  0  0  0  0  0  0  0  0  0
  145.4368   71.5951  220.8754 H   0  0  0  0  0  0  0  0  0  0  0  0
  144.7736   75.8389  220.7464 H   0  0  0  0  0  0  0  0  0  0  0  0
  138.9895   70.3717  222.4754 H   0  0  0  0  0  0  0  0  0  0  0  0
  138.4411   68.9421  224.4095 H   0  0  0  0  0  0  0  0  0  0  0  0
  138.6378   68.3811  226.7738 H   0  0  0  0  0  0  0  0  0  0  0  0
  139.5940   68.8890  229.0290 H   0  0  0  0  0  0  0  0  0  0  0  0
  141.0935   70.8539  229.2615 H   0  0  0  0  0  0  0  0  0  0  0  0
  141.6491   72.2916  227.3179 H   0  0  0  0  0  0  0  0  0  0  0  0
  1  2  2  0
  2  3  1  0
  3  4  1  0
  4  5  1  0
  5  6  2  0
  5  7  1  0
  7  8  1  0
  8  9  1  0
  9 10  1  0
 10 11  1  0
 11 12  1  0
 12 13  1  0
 13 14  2  0
 14 15  1  0
 15 16  2  0
 16 17  1  0
 17 18  1  0
 17 19  2  0
  2 20  1  0
 20 21  2  0
 21 22  1  0
 22 23  2  0
 23 24  1  0
 24 25  2  0
 25 26  1  0
 26 27  2  0
 27 28  1  0
 28 29  2  0
 12  7  1  0
 19 13  1  0
 29 20  1  0
 28 23  1  0
  3 30  1  0
  4 31  1  0
  4 32  1  0
  8 33  1  0
  8 34  1  0
  9 35  1  0
  9 36  1  0
 10 37  1  0
 10 38  1  0
 11 39  1  0
 11 40  1  0
 12 41  1  6
 14 42  1  0
 15 43  1  0
 16 44  1  0
 19 45  1  0
 21 46  1  0
 22 47  1  0
 24 48  1  0
 25 49  1  0
 26 50  1  0
 27 51  1  0
M  END
>  <smiles>  (10) 
O=C(NCC(=O)N1CCCCC1c1cccc(F)c1)c1ccc2ccccc2n1

>  <score_type>  (10) 
oracle

>  <origin>  (10) 
autodockgpu

>  <m_score__min__energy>  (10) 
-8.9299999999999997

>  <m_primary>  (10) 
energy

>  <rmsd>  (10) 
2.2510606859697235

>  <m_score__min__rmsd>  (10) 
2.2510606859697235

>  <meeko>  (10) 
{"free_energy": -8.37, "intermolecular_energy": -9.86, "internal_energy": -1.71, "cluster_size": 13, "cluster_id": 1, "rank_in_cluster": 8}

>  <energy>  (10) 
-8.21

>  <cluster_rmsd>  (10) 
1.43

>  <cluster>  (10) 
1

$$$$

     RDKit          3D

 51 54  0  0  0  0  0  0  0  0999 V2000
  139.1370   74.9940  221.7810 O   0  0  0  0  0  0  0  0  0  0  0  0
  140.2250   75.6100  221.9230 C   0  0  0  0  0  0  0  0  0  0  0  0
  141.4500   74.8830  221.6120 N   0  0  0  0  0  0  0  0  0  0  0  0
  141.2820   73.5480  221.1820 C   0  0  0  0  0  0  0  0  0  0  0  0
  142.1060   72.9870  220.1260 C   0  0  0  0  0  0  0  0  0  0  0  0
  141.4090   72.3890  219.1910 O   0  0  0  0  0  0  0  0  0  0  0  0
  143.4860   72.9640  219.9240 N   0  0  0  0  0  0  0  0  0  0  0  0
  144.3450   71.7810  219.9840 C   0  0  0  0  0  0  0  0  0  0  0  0
  145.7970   72.2300  219.9740 C   0  0  0  0  0  0  0  0  0  0  0  0
  146.0970   73.3860  220.8630 C   0  0  0  0  0  0  0  0  0  0  0  0
  145.0270   74.4930  220.8040 C   0  0  0  0  0  0  0  0  0  0  0  0
  144.2290   74.2030  219.5990 C   0  0  2  0  0  0  0  0  0  0  0  0
  143.4330   75.2590  219.0090 C   0  0  0  0  0  0  0  0  0  0  0  0
  142.8920   75.1970  217.7420 C   0  0  0  0  0  0  0  0  0  0  0  0
  142.1430   76.2390  217.2410 C   0  0  0  0  0  0  0  0  0  0  0  0
  141.9060   77.3730  217.9760 C   0  0  0  0  0  0  0  0  0  0  0  0
  142.4310   77.4600  219.2360 C   0  0  0  0  0  0  0  0  0  0  0  0
  142.1930   78.5850  219.9580 F   0  0  0  0  0  0  0  0  0  0  0  0
  143.1910   76.4080  219.7500 C   0  0  0  0  0  0  0  0  0  0  0  0
  140.2940   76.9860  222.3720 C   0  0  0  0  0  0  0  0  0  0  0  0
  139.1300   77.6400  222.6480 C   0  0  0  0  0  0  0  0  0  0  0  0
  139.1980   78.9490  223.0770 C   0  0  0  0  0  0  0  0  0  0  0  0
  140.3900   79.6290  223.2390 C   0  0  0  0  0  0  0  0  0  0  0  0
  140.4500   80.9380  223.6680 C   0  0  0  0  0  0  0  0  0  0  0  0
  141.6700   81.5820  223.8170 C   0  0  0  0  0  0  0  0  0  0  0  0
  142.8120   80.8640  223.5210 C   0  0  0  0  0  0  0  0  0  0  0  0
  142.7660   79.5410  223.0870 C   0  0  0  0  0  0  0  0  0  0  0  0
  141.5460   78.9250  222.9460 C   0  0  0  0  0  0  0  0  0  0  0  0
  141.4470   77.6500  222.5320 N   0  0  0  0  0  0  0  0  0  0  0  0
  142.3030   75.4380  221.7570 H   0  0  0  0  0  0  0  0  0  0  0  0
  141.4361   72.9138  222.0675 H   0  0  0  0  0  0  0  0  0  0  0  0
  140.2838   73.5694  220.7204 H   0  0  0  0  0  0  0  0  0  0  0  0
  144.1377   71.2199  220.9071 H   0  0  0  0  0  0  0  0  0  0  0  0
  144.1483   71.1316  219.1182 H   0  0  0  0  0  0  0  0  0  0  0  0
  146.4202   71.3816  220.2931 H   0  0  0  0  0  0  0  0  0  0  0  0
  146.0120   72.5632  218.9480 H   0  0  0  0  0  0  0  0  0  0  0  0
  146.1658   73.0216  221.8986 H   0  0  0  0  0  0  0  0  0  0  0  0
  147.0427   73.8277  220.5157 H   0  0  0  0  0  0  0  0  0  0  0  0
  144.3925   74.4631  221.7021 H   0  0  0  0  0  0  0  0  0  0  0  0
  145.4777   75.4956  220.7644 H   0  0  0  0  0  0  0  0  0  0  0  0
  144.9174   74.0825  218.7495 H   0  0  0  0  0  0  0  0  0  0  0  0
  143.0608   74.3034  217.1231 H   0  0  0  0  0  0  0  0  0  0  0  0
  141.7247   76.1599  216.2267 H   0  0  0  0  0  0  0  0  0  0  0  0
  141.3058   78.1958  217.5603 H   0  0  0  0  0  0  0  0  0  0  0  0
  143.6074   76.4911  220.7647 H   0  0  0  0  0  0  0  0  0  0  0  0
  138.1595   77.1355  222.5313 H   0  0  0  0  0  0  0  0  0  0  0  0
  138.2591   79.4766  223.3007 H   0  0  0  0  0  0  0  0  0  0  0  0
  139.5192   81.4785  223.8949 H   0  0  0  0  0  0  0  0  0  0  0  0
  141.7255   82.6262  224.1584 H   0  0  0  0  0  0  0  0  0  0  0  0
  143.7910   81.3533  223.6316 H   0  0  0  0  0  0  0  0  0  0  0  0
  143.6945   78.9965  222.8601 H   0  0  0  0  0  0  0  0  0  0  0  0
  1  2  2  0
  2  3  1  0
  3  4  1  0
  4  5  1  0
  5  6  2  0
  5  7  1  0
  7  8  1  0
  8  9  1  0
  9 10  1  0
 10 11  1  0
 11 12  1  0
 12 13  1  0
 13 14  2  0
 14 15  1  0
 15 16  2  0
 16 17  1  0
 17 18  1  0
 17 19  2  0
  2 20  1  0
 20 21  2  0
 21 22  1  0
 22 23  2  0
 23 24  1  0
 24 25  2  0
 25 26  1  0
 26 27  2  0
 27 28  1  0
 28 29  2  0
 12  7  1  0
 19 13  1  0
 29 20  1  0
 28 23  1  0
  3 30  1  0
  4 31  1  0
  4 32  1  0
  8 33  1  0
  8 34  1  0
  9 35  1  0
  9 36  1  0
 10 37  1  0
 10 38  1  0
 11 39  1  0
 11 40  1  0
 12 41  1  6
 14 42  1  0
 15 43  1  0
 16 44  1  0
 19 45  1  0
 21 46  1  0
 22 47  1  0
 24 48  1  0
 25 49  1  0
 26 50  1  0
 27 51  1  0
M  END
>  <smiles>  (11) 
O=C(NCC(=O)N1CCCCC1c1cccc(F)c1)c1ccc2ccccc2n1

>  <score_type>  (11) 
oracle

>  <origin>  (11) 
autodockgpu

>  <m_score__min__energy>  (11) 
-8.9299999999999997

>  <m_primary>  (11) 
energy

>  <rmsd>  (11) 
7.752467960945289

>  <m_score__min__rmsd>  (11) 
7.752467960945289

>  <meeko>  (11) 
{"free_energy": -7.63, "intermolecular_energy": -9.13, "internal_energy": -2.42, "cluster_size": 20, "cluster_id": 4, "rank_in_cluster": 7}

>  <energy>  (11) 
-8.16

>  <cluster_rmsd>  (11) 
1.5

>  <cluster>  (11) 
1

$$$$

     RDKit          3D

 51 54  0  0  0  0  0  0  0  0999 V2000
  139.1250   75.0390  221.7020 O   0  0  0  0  0  0  0  0  0  0  0  0
  140.2190   75.6330  221.8810 C   0  0  0  0  0  0  0  0  0  0  0  0
  141.4390   74.8850  221.5980 N   0  0  0  0  0  0  0  0  0  0  0  0
  141.2590   73.5590  221.1490 C   0  0  0  0  0  0  0  0  0  0  0  0
  142.0840   73.0020  220.0920 C   0  0  0  0  0  0  0  0  0  0  0  0
  141.3880   72.4170  219.1490 O   0  0  0  0  0  0  0  0  0  0  0  0
  143.4640   72.9710  219.8960 N   0  0  0  0  0  0  0  0  0  0  0  0
  144.3170   71.7840  219.9640 C   0  0  0  0  0  0  0  0  0  0  0  0
  145.7720   72.2260  219.9590 C   0  0  0  0  0  0  0  0  0  0  0  0
  146.0740   73.3820  220.8470 C   0  0  0  0  0  0  0  0  0  0  0  0
  145.0100   74.4940  220.7810 C   0  0  0  0  0  0  0  0  0  0  0  0
  144.2160   74.2050  219.5730 C   0  0  2  0  0  0  0  0  0  0  0  0
  143.4270   75.2640  218.9770 C   0  0  0  0  0  0  0  0  0  0  0  0
  142.8940   75.2030  217.7070 C   0  0  0  0  0  0  0  0  0  0  0  0
  142.1520   76.2480  217.2000 C   0  0  0  0  0  0  0  0  0  0  0  0
  141.9160   77.3840  217.9320 C   0  0  0  0  0  0  0  0  0  0  0  0
  142.4340   77.4690  219.1950 C   0  0  0  0  0  0  0  0  0  0  0  0
  142.1960   78.5970  219.9150 F   0  0  0  0  0  0  0  0  0  0  0  0
  143.1870   76.4150  219.7150 C   0  0  0  0  0  0  0  0  0  0  0  0
  140.3020   77.0020  222.3470 C   0  0  0  0  0  0  0  0  0  0  0  0
  139.1440   77.6580  222.6460 C   0  0  0  0  0  0  0  0  0  0  0  0
  139.2240   78.9620  223.0900 C   0  0  0  0  0  0  0  0  0  0  0  0
  140.4220   79.6340  223.2450 C   0  0  0  0  0  0  0  0  0  0  0  0
  140.4940   80.9370  223.6890 C   0  0  0  0  0  0  0  0  0  0  0  0
  141.7190   81.5740  223.8310 C   0  0  0  0  0  0  0  0  0  0  0  0
  142.8540   80.8540  223.5100 C   0  0  0  0  0  0  0  0  0  0  0  0
  142.7950   79.5370  223.0610 C   0  0  0  0  0  0  0  0  0  0  0  0
  141.5700   78.9290  222.9290 C   0  0  0  0  0  0  0  0  0  0  0  0
  141.4590   77.6590  222.4990 N   0  0  0  0  0  0  0  0  0  0  0  0
  142.2980   75.4230  221.7730 H   0  0  0  0  0  0  0  0  0  0  0  0
  141.3989   72.9113  222.0271 H   0  0  0  0  0  0  0  0  0  0  0  0
  140.2649   73.5988  220.6798 H   0  0  0  0  0  0  0  0  0  0  0  0
  144.1028   71.2271  220.8882 H   0  0  0  0  0  0  0  0  0  0  0  0
  144.1210   71.1326  219.0996 H   0  0  0  0  0  0  0  0  0  0  0  0
  146.3897   71.3751  220.2822 H   0  0  0  0  0  0  0  0  0  0  0  0
  145.9929   72.5562  218.9332 H   0  0  0  0  0  0  0  0  0  0  0  0
  146.1364   73.0193  221.8836 H   0  0  0  0  0  0  0  0  0  0  0  0
  147.0235   73.8182  220.5032 H   0  0  0  0  0  0  0  0  0  0  0  0
  144.3714   74.4692  221.6763 H   0  0  0  0  0  0  0  0  0  0  0  0
  145.4657   75.4944  220.7413 H   0  0  0  0  0  0  0  0  0  0  0  0
  144.9091   74.0788  218.7282 H   0  0  0  0  0  0  0  0  0  0  0  0
  143.0632   74.3082  217.0900 H   0  0  0  0  0  0  0  0  0  0  0  0
  141.7389   76.1692  216.1836 H   0  0  0  0  0  0  0  0  0  0  0  0
  141.3225   78.2094  217.5119 H   0  0  0  0  0  0  0  0  0  0  0  0
  143.5991   76.4982  220.7315 H   0  0  0  0  0  0  0  0  0  0  0  0
  138.1697   77.1594  222.5358 H   0  0  0  0  0  0  0  0  0  0  0  0
  138.2907   79.4916  223.3319 H   0  0  0  0  0  0  0  0  0  0  0  0
  139.5687   81.4790  223.9339 H   0  0  0  0  0  0  0  0  0  0  0  0
  141.7839   82.6132  224.1858 H   0  0  0  0  0  0  0  0  0  0  0  0
  143.8368   81.3372  223.6125 H   0  0  0  0  0  0  0  0  0  0  0  0
  143.7174   78.9905  222.8152 H   0  0  0  0  0  0  0  0  0  0  0  0
  1  2  2  0
  2  3  1  0
  3  4  1  0
  4  5  1  0
  5  6  2  0
  5  7  1  0
  7  8  1  0
  8  9  1  0
  9 10  1  0
 10 11  1  0
 11 12  1  0
 12 13  1  0
 13 14  2  0
 14 15  1  0
 15 16  2  0
 16 17  1  0
 17 18  1  0
 17 19  2  0
  2 20  1  0
 20 21  2  0
 21 22  1  0
 22 23  2  0
 23 24  1  0
 24 25  2  0
 25 26  1  0
 26 27  2  0
 27 28  1  0
 28 29  2  0
 12  7  1  0
 19 13  1  0
 29 20  1  0
 28 23  1  0
  3 30  1  0
  4 31  1  0
  4 32  1  0
  8 33  1  0
  8 34  1  0
  9 35  1  0
  9 36  1  0
 10 37  1  0
 10 38  1  0
 11 39  1  0
 11 40  1  0
 12 41  1  6
 14 42  1  0
 15 43  1  0
 16 44  1  0
 19 45  1  0
 21 46  1  0
 22 47  1  0
 24 48  1  0
 25 49  1  0
 26 50  1  0
 27 51  1  0
M  END
>  <smiles>  (12) 
O=C(NCC(=O)N1CCCCC1c1cccc(F)c1)c1ccc2ccccc2n1

>  <score_type>  (12) 
oracle

>  <origin>  (12) 
autodockgpu

>  <m_score__min__energy>  (12) 
-8.9299999999999997

>  <m_primary>  (12) 
energy

>  <rmsd>  (12) 
7.749996068542751

>  <m_score__min__rmsd>  (12) 
7.749996068542751

>  <meeko>  (12) 
{"free_energy": -7.62, "intermolecular_energy": -9.11, "internal_energy": -2.44, "cluster_size": 20, "cluster_id": 4, "rank_in_cluster": 9}

>  <energy>  (12) 
-8.11

>  <cluster_rmsd>  (12) 
1.51

>  <cluster>  (12) 
1

$$$$

     RDKit          3D

 51 54  0  0  0  0  0  0  0  0999 V2000
  141.3190   71.9160  221.5180 O   0  0  0  0  0  0  0  0  0  0  0  0
  140.5690   72.3250  222.4420 C   0  0  0  0  0  0  0  0  0  0  0  0
  139.9870   73.6540  222.2910 N   0  0  0  0  0  0  0  0  0  0  0  0
  140.3330   74.3480  221.1120 C   0  0  0  0  0  0  0  0  0  0  0  0
  141.1710   75.5330  221.1520 C   0  0  0  0  0  0  0  0  0  0  0  0
  141.4250   75.9440  222.3700 O   0  0  0  0  0  0  0  0  0  0  0  0
  141.7480   76.3090  220.1470 N   0  0  0  0  0  0  0  0  0  0  0  0
  141.4890   77.7270  219.8990 C   0  0  0  0  0  0  0  0  0  0  0  0
  142.1050   78.1110  218.5620 C   0  0  0  0  0  0  0  0  0  0  0  0
  141.8710   77.1310  217.4660 C   0  0  0  0  0  0  0  0  0  0  0  0
  142.0350   75.6670  217.9120 C   0  0  0  0  0  0  0  0  0  0  0  0
  142.7350   75.7280  219.2080 C   0  0  2  0  0  0  0  0  0  0  0  0
  143.4240   74.5500  219.6940 C   0  0  0  0  0  0  0  0  0  0  0  0
  143.0140   73.2590  219.4380 C   0  0  0  0  0  0  0  0  0  0  0  0
  143.7170   72.1820  219.9330 C   0  0  0  0  0  0  0  0  0  0  0  0
  144.8450   72.3490  220.6940 C   0  0  0  0  0  0  0  0  0  0  0  0
  145.2740   73.6190  220.9630 C   0  0  0  0  0  0  0  0  0  0  0  0
  146.3920   73.7770  221.7180 F   0  0  0  0  0  0  0  0  0  0  0  0
  144.5660   74.7150  220.4660 C   0  0  0  0  0  0  0  0  0  0  0  0
  140.2730   71.5350  223.6200 C   0  0  0  0  0  0  0  0  0  0  0  0
  139.5660   70.3790  223.4670 C   0  0  0  0  0  0  0  0  0  0  0  0
  139.2860   69.6270  224.5900 C   0  0  0  0  0  0  0  0  0  0  0  0
  139.6870   69.9910  225.8610 C   0  0  0  0  0  0  0  0  0  0  0  0
  139.4030   69.2350  226.9770 C   0  0  0  0  0  0  0  0  0  0  0  0
  139.8260   69.6380  228.2360 C   0  0  0  0  0  0  0  0  0  0  0  0
  140.5370   70.8190  228.3230 C   0  0  0  0  0  0  0  0  0  0  0  0
  140.8320   71.5930  227.2020 C   0  0  0  0  0  0  0  0  0  0  0  0
  140.4010   71.1730  225.9670 C   0  0  0  0  0  0  0  0  0  0  0  0
  140.6590   71.8820  224.8550 N   0  0  0  0  0  0  0  0  0  0  0  0
  139.3930   73.9320  223.0830 H   0  0  0  0  0  0  0  0  0  0  0  0
  140.8490   73.6237  220.4646 H   0  0  0  0  0  0  0  0  0  0  0  0
  139.3650   74.7517  220.7803 H   0  0  0  0  0  0  0  0  0  0  0  0
  140.4039   77.9053  219.8710 H   0  0  0  0  0  0  0  0  0  0  0  0
  141.9314   78.3340  220.7026 H   0  0  0  0  0  0  0  0  0  0  0  0
  141.6803   79.0778  218.2539 H   0  0  0  0  0  0  0  0  0  0  0  0
  143.1930   78.1475  218.7197 H   0  0  0  0  0  0  0  0  0  0  0  0
  140.8471   77.2681  217.0880 H   0  0  0  0  0  0  0  0  0  0  0  0
  142.6283   77.3220  216.6914 H   0  0  0  0  0  0  0  0  0  0  0  0
  141.0517   75.1877  218.0280 H   0  0  0  0  0  0  0  0  0  0  0  0
  142.5942   75.0746  217.1728 H   0  0  0  0  0  0  0  0  0  0  0  0
  143.6329   76.3516  219.0860 H   0  0  0  0  0  0  0  0  0  0  0  0
  142.1135   73.0862  218.8304 H   0  0  0  0  0  0  0  0  0  0  0  0
  143.3645   71.1637  219.7121 H   0  0  0  0  0  0  0  0  0  0  0  0
  145.3944   71.4780  221.0807 H   0  0  0  0  0  0  0  0  0  0  0  0
  144.9209   75.7316  220.6911 H   0  0  0  0  0  0  0  0  0  0  0  0
  139.2270   70.0536  222.4724 H   0  0  0  0  0  0  0  0  0  0  0  0
  138.7167   68.6938  224.4672 H   0  0  0  0  0  0  0  0  0  0  0  0
  138.8337   68.3000  226.8690 H   0  0  0  0  0  0  0  0  0  0  0  0
  139.6033   69.0390  229.1313 H   0  0  0  0  0  0  0  0  0  0  0  0
  140.8820   71.1602  229.3102 H   0  0  0  0  0  0  0  0  0  0  0  0
  141.4024   72.5279  227.3048 H   0  0  0  0  0  0  0  0  0  0  0  0
  1  2  2  0
  2  3  1  0
  3  4  1  0
  4  5  1  0
  5  6  2  0
  5  7  1  0
  7  8  1  0
  8  9  1  0
  9 10  1  0
 10 11  1  0
 11 12  1  0
 12 13  1  0
 13 14  2  0
 14 15  1  0
 15 16  2  0
 16 17  1  0
 17 18  1  0
 17 19  2  0
  2 20  1  0
 20 21  2  0
 21 22  1  0
 22 23  2  0
 23 24  1  0
 24 25  2  0
 25 26  1  0
 26 27  2  0
 27 28  1  0
 28 29  2  0
 12  7  1  0
 19 13  1  0
 29 20  1  0
 28 23  1  0
  3 30  1  0
  4 31  1  0
  4 32  1  0
  8 33  1  0
  8 34  1  0
  9 35  1  0
  9 36  1  0
 10 37  1  0
 10 38  1  0
 11 39  1  0
 11 40  1  0
 12 41  1  6
 14 42  1  0
 15 43  1  0
 16 44  1  0
 19 45  1  0
 21 46  1  0
 22 47  1  0
 24 48  1  0
 25 49  1  0
 26 50  1  0
 27 51  1  0
M  END
>  <smiles>  (13) 
O=C(NCC(=O)N1CCCCC1c1cccc(F)c1)c1ccc2ccccc2n1

>  <score_type>  (13) 
oracle

>  <origin>  (13) 
autodockgpu

>  <m_score__min__energy>  (13) 
-8.9299999999999997

>  <m_primary>  (13) 
energy

>  <rmsd>  (13) 
2.2898714859796967

>  <m_score__min__rmsd>  (13) 
2.2898714859796967

>  <meeko>  (13) 
{"free_energy": -8.45, "intermolecular_energy": -9.94, "internal_energy": -1.7, "cluster_size": 13, "cluster_id": 1, "rank_in_cluster": 5}

>  <energy>  (13) 
-7.91

>  <cluster_rmsd>  (13) 
1.86

>  <cluster>  (13) 
1

$$$$

     RDKit          3D

 51 54  0  0  0  0  0  0  0  0999 V2000
  139.1430   75.1040  221.4710 O   0  0  0  0  0  0  0  0  0  0  0  0
  140.2270   75.6520  221.7960 C   0  0  0  0  0  0  0  0  0  0  0  0
  141.4460   74.8650  221.6420 N   0  0  0  0  0  0  0  0  0  0  0  0
  141.2750   73.5560  221.1400 C   0  0  0  0  0  0  0  0  0  0  0  0
  142.0180   73.0890  219.9840 C   0  0  0  0  0  0  0  0  0  0  0  0
  141.2500   72.7610  218.9750 O   0  0  0  0  0  0  0  0  0  0  0  0
  143.3830   72.9230  219.7500 N   0  0  0  0  0  0  0  0  0  0  0  0
  144.1120   71.6540  219.7700 C   0  0  0  0  0  0  0  0  0  0  0  0
  145.6040   71.9460  219.7350 C   0  0  0  0  0  0  0  0  0  0  0  0
  146.0430   73.0450  220.6380 C   0  0  0  0  0  0  0  0  0  0  0  0
  145.0970   74.2600  220.6240 C   0  0  0  0  0  0  0  0  0  0  0  0
  144.2480   74.0820  219.4330 C   0  0  2  0  0  0  0  0  0  0  0  0
  143.5570   75.2290  218.8810 C   0  0  0  0  0  0  0  0  0  0  0  0
  143.2180   75.3550  217.5500 C   0  0  0  0  0  0  0  0  0  0  0  0
  142.5600   76.4750  217.0900 C   0  0  0  0  0  0  0  0  0  0  0  0
  142.2180   77.5030  217.9310 C   0  0  0  0  0  0  0  0  0  0  0  0
  142.5420   77.4030  219.2550 C   0  0  0  0  0  0  0  0  0  0  0  0
  142.2000   78.4260  220.0820 F   0  0  0  0  0  0  0  0  0  0  0  0
  143.2090   76.2720  219.7280 C   0  0  0  0  0  0  0  0  0  0  0  0
  140.3010   77.0070  222.3040 C   0  0  0  0  0  0  0  0  0  0  0  0
  139.1390   77.6490  222.6140 C   0  0  0  0  0  0  0  0  0  0  0  0
  139.2100   78.9390  223.0980 C   0  0  0  0  0  0  0  0  0  0  0  0
  140.4040   79.6110  223.2830 C   0  0  0  0  0  0  0  0  0  0  0  0
  140.4670   80.8990  223.7680 C   0  0  0  0  0  0  0  0  0  0  0  0
  141.6890   81.5360  223.9380 C   0  0  0  0  0  0  0  0  0  0  0  0
  142.8290   80.8300  223.6050 C   0  0  0  0  0  0  0  0  0  0  0  0
  142.7790   79.5270  223.1150 C   0  0  0  0  0  0  0  0  0  0  0  0
  141.5580   78.9190  222.9540 C   0  0  0  0  0  0  0  0  0  0  0  0
  141.4550   77.6630  222.4860 N   0  0  0  0  0  0  0  0  0  0  0  0
  142.2950   75.3650  221.9340 H   0  0  0  0  0  0  0  0  0  0  0  0
  141.5206   72.8715  221.9653 H   0  0  0  0  0  0  0  0  0  0  0  0
  140.2406   73.5768  220.7665 H   0  0  0  0  0  0  0  0  0  0  0  0
  143.8650   71.1001  220.6877 H   0  0  0  0  0  0  0  0  0  0  0  0
  143.8293   71.0465  218.8977 H   0  0  0  0  0  0  0  0  0  0  0  0
  146.1395   71.0298  220.0245 H   0  0  0  0  0  0  0  0  0  0  0  0
  145.8328   72.2749  218.7105 H   0  0  0  0  0  0  0  0  0  0  0  0
  146.0936   72.6539  221.6649 H   0  0  0  0  0  0  0  0  0  0  0  0
  147.0228   73.3911  220.2773 H   0  0  0  0  0  0  0  0  0  0  0  0
  144.4818   74.2791  221.5357 H   0  0  0  0  0  0  0  0  0  0  0  0
  145.6515   75.2095  220.5925 H   0  0  0  0  0  0  0  0  0  0  0  0
  144.9031   73.9066  218.5669 H   0  0  0  0  0  0  0  0  0  0  0  0
  143.4765   74.5503  216.8459 H   0  0  0  0  0  0  0  0  0  0  0  0
  142.3029   76.5462  216.0228 H   0  0  0  0  0  0  0  0  0  0  0  0
  141.6933   78.3905  217.5475 H   0  0  0  0  0  0  0  0  0  0  0  0
  143.4646   76.2057  220.7958 H   0  0  0  0  0  0  0  0  0  0  0  0
  138.1676   77.1502  222.4813 H   0  0  0  0  0  0  0  0  0  0  0  0
  138.2726   79.4572  223.3485 H   0  0  0  0  0  0  0  0  0  0  0  0
  139.5378   81.4292  224.0237 H   0  0  0  0  0  0  0  0  0  0  0  0
  141.7473   82.5646  224.3235 H   0  0  0  0  0  0  0  0  0  0  0  0
  143.8091   81.3132  223.7311 H   0  0  0  0  0  0  0  0  0  0  0  0
  143.7056   78.9918  222.8603 H   0  0  0  0  0  0  0  0  0  0  0  0
  1  2  2  0
  2  3  1  0
  3  4  1  0
  4  5  1  0
  5  6  2  0
  5  7  1  0
  7  8  1  0
  8  9  1  0
  9 10  1  0
 10 11  1  0
 11 12  1  0
 12 13  1  0
 13 14  2  0
 14 15  1  0
 15 16  2  0
 16 17  1  0
 17 18  1  0
 17 19  2  0
  2 20  1  0
 20 21  2  0
 21 22  1  0
 22 23  2  0
 23 24  1  0
 24 25  2  0
 25 26  1  0
 26 27  2  0
 27 28  1  0
 28 29  2  0
 12  7  1  0
 19 13  1  0
 29 20  1  0
 28 23  1  0
  3 30  1  0
  4 31  1  0
  4 32  1  0
  8 33  1  0
  8 34  1  0
  9 35  1  0
  9 36  1  0
 10 37  1  0
 10 38  1  0
 11 39  1  0
 11 40  1  0
 12 41  1  6
 14 42  1  0
 15 43  1  0
 16 44  1  0
 19 45  1  0
 21 46  1  0
 22 47  1  0
 24 48  1  0
 25 49  1  0
 26 50  1  0
 27 51  1  0
M  END
>  <smiles>  (14) 
O=C(NCC(=O)N1CCCCC1c1cccc(F)c1)c1ccc2ccccc2n1

>  <score_type>  (14) 
oracle

>  <origin>  (14) 
autodockgpu

>  <m_score__min__energy>  (14) 
-8.9299999999999997

>  <m_primary>  (14) 
energy

>  <rmsd>  (14) 
7.723818236874628

>  <m_score__min__rmsd>  (14) 
7.723818236874628

>  <meeko>  (14) 
{"free_energy": -7.64, "intermolecular_energy": -9.13, "internal_energy": -2.35, "cluster_size": 20, "cluster_id": 4, "rank_in_cluster": 6}

>  <energy>  (14) 
-8.53

>  <cluster_rmsd>  (14) 
0.0

>  <cluster>  (14) 
2

$$$$

     RDKit          3D

 51 54  0  0  0  0  0  0  0  0999 V2000
  139.2070   74.9180  221.8620 O   0  0  0  0  0  0  0  0  0  0  0  0
  140.2780   75.5720  221.9580 C   0  0  0  0  0  0  0  0  0  0  0  0
  141.5130   74.8880  221.5930 N   0  0  0  0  0  0  0  0  0  0  0  0
  141.3740   73.5490  221.1660 C   0  0  0  0  0  0  0  0  0  0  0  0
  142.2120   73.0020  220.1140 C   0  0  0  0  0  0  0  0  0  0  0  0
  141.5280   72.4300  219.1550 O   0  0  0  0  0  0  0  0  0  0  0  0
  143.5950   72.9700  219.9370 N   0  0  0  0  0  0  0  0  0  0  0  0
  144.4470   71.7840  220.0300 C   0  0  0  0  0  0  0  0  0  0  0  0
  145.9020   72.2260  220.0390 C   0  0  0  0  0  0  0  0  0  0  0  0
  146.1910   73.3930  220.9180 C   0  0  0  0  0  0  0  0  0  0  0  0
  145.1280   74.5030  220.8250 C   0  0  0  0  0  0  0  0  0  0  0  0
  144.3500   74.2010  219.6100 C   0  0  2  0  0  0  0  0  0  0  0  0
  143.5700   75.2530  218.9920 C   0  0  0  0  0  0  0  0  0  0  0  0
  143.1100   75.2060  217.6920 C   0  0  0  0  0  0  0  0  0  0  0  0
  142.3720   76.2430  217.1650 C   0  0  0  0  0  0  0  0  0  0  0  0
  142.0660   77.3560  217.9060 C   0  0  0  0  0  0  0  0  0  0  0  0
  142.5090   77.4270  219.1970 C   0  0  0  0  0  0  0  0  0  0  0  0
  142.2020   78.5330  219.9250 F   0  0  0  0  0  0  0  0  0  0  0  0
  143.2580   76.3810  219.7380 C   0  0  0  0  0  0  0  0  0  0  0  0
  140.3180   76.9480  222.4090 C   0  0  0  0  0  0  0  0  0  0  0  0
  139.1410   77.5730  222.6970 C   0  0  0  0  0  0  0  0  0  0  0  0
  139.1810   78.8840  223.1270 C   0  0  0  0  0  0  0  0  0  0  0  0
  140.3580   79.5920  223.2770 C   0  0  0  0  0  0  0  0  0  0  0  0
  140.3900   80.9020  223.7070 C   0  0  0  0  0  0  0  0  0  0  0  0
  141.5960   81.5760  223.8450 C   0  0  0  0  0  0  0  0  0  0  0  0
  142.7520   80.8860  223.5360 C   0  0  0  0  0  0  0  0  0  0  0  0
  142.7340   79.5630  223.1010 C   0  0  0  0  0  0  0  0  0  0  0  0
  141.5280   78.9170  222.9720 C   0  0  0  0  0  0  0  0  0  0  0  0
  141.4560   77.6400  222.5570 N   0  0  0  0  0  0  0  0  0  0  0  0
  142.3520   75.4730  221.7030 H   0  0  0  0  0  0  0  0  0  0  0  0
  141.5386   72.9205  222.0536 H   0  0  0  0  0  0  0  0  0  0  0  0
  140.3770   73.5490  220.7012 H   0  0  0  0  0  0  0  0  0  0  0  0
  144.2207   71.2379  220.9577 H   0  0  0  0  0  0  0  0  0  0  0  0
  144.2624   71.1226  219.1707 H   0  0  0  0  0  0  0  0  0  0  0  0
  146.5155   71.3792  220.3805 H   0  0  0  0  0  0  0  0  0  0  0  0
  146.1372   72.5436  219.0125 H   0  0  0  0  0  0  0  0  0  0  0  0
  146.2394   73.0422  221.9595 H   0  0  0  0  0  0  0  0  0  0  0  0
  147.1447   73.8260  220.5819 H   0  0  0  0  0  0  0  0  0  0  0  0
  144.4775   74.4879  221.7119 H   0  0  0  0  0  0  0  0  0  0  0  0
  145.5843   75.5029  220.7799 H   0  0  0  0  0  0  0  0  0  0  0  0
  145.0532   74.0660  218.7750 H   0  0  0  0  0  0  0  0  0  0  0  0
  143.3356   74.3287  217.0680 H   0  0  0  0  0  0  0  0  0  0  0  0
  142.0197   76.1769  216.1250 H   0  0  0  0  0  0  0  0  0  0  0  0
  141.4757   78.1753  217.4698 H   0  0  0  0  0  0  0  0  0  0  0  0
  143.6086   76.4521  220.7782 H   0  0  0  0  0  0  0  0  0  0  0  0
  138.1821   77.0449  222.5892 H   0  0  0  0  0  0  0  0  0  0  0  0
  138.2319   79.3885  223.3611 H   0  0  0  0  0  0  0  0  0  0  0  0
  139.4485   81.4192  223.9436 H   0  0  0  0  0  0  0  0  0  0  0  0
  141.6296   82.6207  224.1877 H   0  0  0  0  0  0  0  0  0  0  0  0
  143.7199   81.3989  223.6369 H   0  0  0  0  0  0  0  0  0  0  0  0
  143.6732   79.0419  222.8637 H   0  0  0  0  0  0  0  0  0  0  0  0
  1  2  2  0
  2  3  1  0
  3  4  1  0
  4  5  1  0
  5  6  2  0
  5  7  1  0
  7  8  1  0
  8  9  1  0
  9 10  1  0
 10 11  1  0
 11 12  1  0
 12 13  1  0
 13 14  2  0
 14 15  1  0
 15 16  2  0
 16 17  1  0
 17 18  1  0
 17 19  2  0
  2 20  1  0
 20 21  2  0
 21 22  1  0
 22 23  2  0
 23 24  1  0
 24 25  2  0
 25 26  1  0
 26 27  2  0
 27 28  1  0
 28 29  2  0
 12  7  1  0
 19 13  1  0
 29 20  1  0
 28 23  1  0
  3 30  1  0
  4 31  1  0
  4 32  1  0
  8 33  1  0
  8 34  1  0
  9 35  1  0
  9 36  1  0
 10 37  1  0
 10 38  1  0
 11 39  1  0
 11 40  1  0
 12 41  1  6
 14 42  1  0
 15 43  1  0
 16 44  1  0
 19 45  1  0
 21 46  1  0
 22 47  1  0
 24 48  1  0
 25 49  1  0
 26 50  1  0
 27 51  1  0
M  END
>  <smiles>  (15) 
O=C(NCC(=O)N1CCCCC1c1cccc(F)c1)c1ccc2ccccc2n1

>  <score_type>  (15) 
oracle

>  <origin>  (15) 
autodockgpu

>  <m_score__min__energy>  (15) 
-8.9299999999999997

>  <m_primary>  (15) 
energy

>  <rmsd>  (15) 
7.763493183401101

>  <m_score__min__rmsd>  (15) 
7.763493183401101

>  <meeko>  (15) 
{"free_energy": -7.72, "intermolecular_energy": -9.21, "internal_energy": -2.36, "cluster_size": 20, "cluster_id": 4, "rank_in_cluster": 1}

>  <energy>  (15) 
-8.53

>  <cluster_rmsd>  (15) 
0.09

>  <cluster>  (15) 
2

$$$$

     RDKit          3D

 51 54  0  0  0  0  0  0  0  0999 V2000
  139.1110   75.0290  221.6680 O   0  0  0  0  0  0  0  0  0  0  0  0
  140.2060   75.6120  221.8780 C   0  0  0  0  0  0  0  0  0  0  0  0
  141.4260   74.8500  221.6310 N   0  0  0  0  0  0  0  0  0  0  0  0
  141.2440   73.5250  221.1790 C   0  0  0  0  0  0  0  0  0  0  0  0
  142.0010   73.0020  220.0560 C   0  0  0  0  0  0  0  0  0  0  0  0
  141.2420   72.5590  219.0840 O   0  0  0  0  0  0  0  0  0  0  0  0
  143.3710   72.8810  219.8210 N   0  0  0  0  0  0  0  0  0  0  0  0
  144.1290   71.6300  219.7730 C   0  0  0  0  0  0  0  0  0  0  0  0
  145.6130   71.9580  219.7640 C   0  0  0  0  0  0  0  0  0  0  0  0
  146.0230   73.0130  220.7310 C   0  0  0  0  0  0  0  0  0  0  0  0
  145.0490   74.2050  220.7800 C   0  0  0  0  0  0  0  0  0  0  0  0
  144.2100   74.0760  219.5750 C   0  0  2  0  0  0  0  0  0  0  0  0
  143.4950   75.2360  219.0850 C   0  0  0  0  0  0  0  0  0  0  0  0
  143.2840   76.3790  219.8280 C   0  0  0  0  0  0  0  0  0  0  0  0
  142.5940   77.4490  219.3000 C   0  0  0  0  0  0  0  0  0  0  0  0
  142.0920   77.4210  218.0230 C   0  0  0  0  0  0  0  0  0  0  0  0
  142.2880   76.2990  217.2660 C   0  0  0  0  0  0  0  0  0  0  0  0
  141.7890   76.2790  216.0020 F   0  0  0  0  0  0  0  0  0  0  0  0
  142.9860   75.2120  217.7940 C   0  0  0  0  0  0  0  0  0  0  0  0
  140.2900   76.9810  222.3450 C   0  0  0  0  0  0  0  0  0  0  0  0
  139.1330   77.6410  222.6330 C   0  0  0  0  0  0  0  0  0  0  0  0
  139.2140   78.9450  223.0780 C   0  0  0  0  0  0  0  0  0  0  0  0
  140.4130   79.6120  223.2440 C   0  0  0  0  0  0  0  0  0  0  0  0
  140.4860   80.9150  223.6890 C   0  0  0  0  0  0  0  0  0  0  0  0
  141.7120   81.5460  223.8420 C   0  0  0  0  0  0  0  0  0  0  0  0
  142.8470   80.8220  223.5310 C   0  0  0  0  0  0  0  0  0  0  0  0
  142.7870   79.5050  223.0820 C   0  0  0  0  0  0  0  0  0  0  0  0
  141.5610   78.9020  222.9380 C   0  0  0  0  0  0  0  0  0  0  0  0
  141.4490   77.6320  222.5070 N   0  0  0  0  0  0  0  0  0  0  0  0
  142.2850   75.3790  221.8300 H   0  0  0  0  0  0  0  0  0  0  0  0
  141.4645   72.8706  222.0352 H   0  0  0  0  0  0  0  0  0  0  0  0
  140.2166   73.5450  220.7865 H   0  0  0  0  0  0  0  0  0  0  0  0
  143.8906   71.0189  220.6560 H   0  0  0  0  0  0  0  0  0  0  0  0
  143.8647   71.0668  218.8658 H   0  0  0  0  0  0  0  0  0  0  0  0
  146.1684   71.0392  220.0035 H   0  0  0  0  0  0  0  0  0  0  0  0
  145.8381   72.3511  218.7616 H   0  0  0  0  0  0  0  0  0  0  0  0
  146.0777   72.5651  221.7342 H   0  0  0  0  0  0  0  0  0  0  0  0
  146.9967   73.4009  220.3971 H   0  0  0  0  0  0  0  0  0  0  0  0
  144.4289   74.1580  221.6873 H   0  0  0  0  0  0  0  0  0  0  0  0
  145.5816   75.1671  220.8061 H   0  0  0  0  0  0  0  0  0  0  0  0
  144.8729   73.9660  218.7041 H   0  0  0  0  0  0  0  0  0  0  0  0
  143.6717   76.4373  220.8558 H   0  0  0  0  0  0  0  0  0  0  0  0
  142.4420   78.3469  219.9170 H   0  0  0  0  0  0  0  0  0  0  0  0
  141.5432   78.2834  217.6166 H   0  0  0  0  0  0  0  0  0  0  0  0
  143.1361   74.3164  217.1733 H   0  0  0  0  0  0  0  0  0  0  0  0
  138.1578   77.1463  222.5136 H   0  0  0  0  0  0  0  0  0  0  0  0
  138.2807   79.4783  223.3114 H   0  0  0  0  0  0  0  0  0  0  0  0
  139.5608   81.4609  223.9256 H   0  0  0  0  0  0  0  0  0  0  0  0
  141.7781   82.5847  224.1979 H   0  0  0  0  0  0  0  0  0  0  0  0
  143.8307   81.3017  223.6417 H   0  0  0  0  0  0  0  0  0  0  0  0
  143.7096   78.9546  222.8457 H   0  0  0  0  0  0  0  0  0  0  0  0
  1  2  2  0
  2  3  1  0
  3  4  1  0
  4  5  1  0
  5  6  2  0
  5  7  1  0
  7  8  1  0
  8  9  1  0
  9 10  1  0
 10 11  1  0
 11 12  1  0
 12 13  1  0
 13 14  2  0
 14 15  1  0
 15 16  2  0
 16 17  1  0
 17 18  1  0
 17 19  2  0
  2 20  1  0
 20 21  2  0
 21 22  1  0
 22 23  2  0
 23 24  1  0
 24 25  2  0
 25 26  1  0
 26 27  2  0
 27 28  1  0
 28 29  2  0
 12  7  1  0
 19 13  1  0
 29 20  1  0
 28 23  1  0
  3 30  1  0
  4 31  1  0
  4 32  1  0
  8 33  1  0
  8 34  1  0
  9 35  1  0
  9 36  1  0
 10 37  1  0
 10 38  1  0
 11 39  1  0
 11 40  1  0
 12 41  1  6
 14 42  1  0
 15 43  1  0
 16 44  1  0
 19 45  1  0
 21 46  1  0
 22 47  1  0
 24 48  1  0
 25 49  1  0
 26 50  1  0
 27 51  1  0
M  END
>  <smiles>  (16) 
O=C(NCC(=O)N1CCCCC1c1cccc(F)c1)c1ccc2ccccc2n1

>  <score_type>  (16) 
oracle

>  <origin>  (16) 
autodockgpu

>  <m_score__min__energy>  (16) 
-8.9299999999999997

>  <m_primary>  (16) 
energy

>  <rmsd>  (16) 
7.733391689836602

>  <m_score__min__rmsd>  (16) 
7.733391689836602

>  <meeko>  (16) 
{"free_energy": -7.63, "intermolecular_energy": -9.12, "internal_energy": -2.33, "cluster_size": 20, "cluster_id": 4, "rank_in_cluster": 8}

>  <energy>  (16) 
-7.9

>  <cluster_rmsd>  (16) 
0.0

>  <cluster>  (16) 
3

$$$$

     RDKit          3D

 51 54  0  0  0  0  0  0  0  0999 V2000
  139.1040   75.0780  221.6680 O   0  0  0  0  0  0  0  0  0  0  0  0
  140.2010   75.6570  221.8790 C   0  0  0  0  0  0  0  0  0  0  0  0
  141.4180   74.8890  221.6390 N   0  0  0  0  0  0  0  0  0  0  0  0
  141.2320   73.5630  221.1910 C   0  0  0  0  0  0  0  0  0  0  0  0
  142.0050   73.0240  220.0870 C   0  0  0  0  0  0  0  0  0  0  0  0
  141.2640   72.4660  219.1620 O   0  0  0  0  0  0  0  0  0  0  0  0
  143.3760   72.9890  219.8300 N   0  0  0  0  0  0  0  0  0  0  0  0
  144.2230   71.7960  219.8440 C   0  0  0  0  0  0  0  0  0  0  0  0
  145.6790   72.2300  219.7810 C   0  0  0  0  0  0  0  0  0  0  0  0
  146.0270   73.3730  220.6690 C   0  0  0  0  0  0  0  0  0  0  0  0
  144.9680   74.4910  220.6640 C   0  0  0  0  0  0  0  0  0  0  0  0
  144.1190   74.2230  219.4890 C   0  0  2  0  0  0  0  0  0  0  0  0
  143.3120   75.2940  218.9420 C   0  0  0  0  0  0  0  0  0  0  0  0
  142.7090   75.2450  217.7030 C   0  0  0  0  0  0  0  0  0  0  0  0
  141.9530   76.3010  217.2420 C   0  0  0  0  0  0  0  0  0  0  0  0
  141.7700   77.4360  217.9920 C   0  0  0  0  0  0  0  0  0  0  0  0
  142.3570   77.5090  219.2240 C   0  0  0  0  0  0  0  0  0  0  0  0
  142.1730   78.6350  219.9610 F   0  0  0  0  0  0  0  0  0  0  0  0
  143.1250   76.4430  219.6970 C   0  0  0  0  0  0  0  0  0  0  0  0
  140.2890   77.0280  222.3390 C   0  0  0  0  0  0  0  0  0  0  0  0
  139.1340   77.6950  222.6200 C   0  0  0  0  0  0  0  0  0  0  0  0
  139.2190   79.0000  223.0590 C   0  0  0  0  0  0  0  0  0  0  0  0
  140.4210   79.6620  223.2280 C   0  0  0  0  0  0  0  0  0  0  0  0
  140.4980   80.9660  223.6670 C   0  0  0  0  0  0  0  0  0  0  0  0
  141.7270   81.5930  223.8230 C   0  0  0  0  0  0  0  0  0  0  0  0
  142.8590   80.8610  223.5200 C   0  0  0  0  0  0  0  0  0  0  0  0
  142.7950   79.5430  223.0760 C   0  0  0  0  0  0  0  0  0  0  0  0
  141.5670   78.9450  222.9300 C   0  0  0  0  0  0  0  0  0  0  0  0
  141.4510   77.6740  222.5050 N   0  0  0  0  0  0  0  0  0  0  0  0
  142.2790   75.4150  221.8380 H   0  0  0  0  0  0  0  0  0  0  0  0
  141.4286   72.9120  222.0556 H   0  0  0  0  0  0  0  0  0  0  0  0
  140.2133   73.5921  220.7769 H   0  0  0  0  0  0  0  0  0  0  0  0
  144.0461   71.2274  220.7689 H   0  0  0  0  0  0  0  0  0  0  0  0
  143.9849   71.1576  218.9804 H   0  0  0  0  0  0  0  0  0  0  0  0
  146.3049   71.3716  220.0664 H   0  0  0  0  0  0  0  0  0  0  0  0
  145.8566   72.5721  218.7507 H   0  0  0  0  0  0  0  0  0  0  0  0
  146.1331   72.9969  221.6972 H   0  0  0  0  0  0  0  0  0  0  0  0
  146.9630   73.8084  220.2889 H   0  0  0  0  0  0  0  0  0  0  0  0
  144.3696   74.4580  221.5864 H   0  0  0  0  0  0  0  0  0  0  0  0
  145.4280   75.4891  220.6164 H   0  0  0  0  0  0  0  0  0  0  0  0
  144.7717   74.1046  218.6115 H   0  0  0  0  0  0  0  0  0  0  0  0
  142.8330   74.3511  217.0741 H   0  0  0  0  0  0  0  0  0  0  0  0
  141.4849   76.2327  216.2489 H   0  0  0  0  0  0  0  0  0  0  0  0
  141.1632   78.2698  217.6092 H   0  0  0  0  0  0  0  0  0  0  0  0
  143.5921   76.5158  220.6902 H   0  0  0  0  0  0  0  0  0  0  0  0
  138.1570   77.2042  222.4995 H   0  0  0  0  0  0  0  0  0  0  0  0
  138.2871   79.5390  223.2851 H   0  0  0  0  0  0  0  0  0  0  0  0
  139.5742   81.5171  223.8968 H   0  0  0  0  0  0  0  0  0  0  0  0
  141.7968   82.6330  224.1745 H   0  0  0  0  0  0  0  0  0  0  0  0
  143.8447   81.3359  223.6335 H   0  0  0  0  0  0  0  0  0  0  0  0
  143.7160   78.9876  222.8451 H   0  0  0  0  0  0  0  0  0  0  0  0
  1  2  2  0
  2  3  1  0
  3  4  1  0
  4  5  1  0
  5  6  2  0
  5  7  1  0
  7  8  1  0
  8  9  1  0
  9 10  1  0
 10 11  1  0
 11 12  1  0
 12 13  1  0
 13 14  2  0
 14 15  1  0
 15 16  2  0
 16 17  1  0
 17 18  1  0
 17 19  2  0
  2 20  1  0
 20 21  2  0
 21 22  1  0
 22 23  2  0
 23 24  1  0
 24 25  2  0
 25 26  1  0
 26 27  2  0
 27 28  1  0
 28 29  2  0
 12  7  1  0
 19 13  1  0
 29 20  1  0
 28 23  1  0
  3 30  1  0
  4 31  1  0
  4 32  1  0
  8 33  1  0
  8 34  1  0
  9 35  1  0
  9 36  1  0
 10 37  1  0
 10 38  1  0
 11 39  1  0
 11 40  1  0
 12 41  1  6
 14 42  1  0
 15 43  1  0
 16 44  1  0
 19 45  1  0
 21 46  1  0
 22 47  1  0
 24 48  1  0
 25 49  1  0
 26 50  1  0
 27 51  1  0
M  END
>  <smiles>  (17) 
O=C(NCC(=O)N1CCCCC1c1cccc(F)c1)c1ccc2ccccc2n1

>  <score_type>  (17) 
oracle

>  <origin>  (17) 
autodockgpu

>  <m_score__min__energy>  (17) 
-8.9299999999999997

>  <m_primary>  (17) 
energy

>  <rmsd>  (17) 
7.733448421263996

>  <m_score__min__rmsd>  (17) 
7.733448421263996

>  <meeko>  (17) 
{"free_energy": -7.55, "intermolecular_energy": -9.05, "internal_energy": -2.48, "cluster_size": 20, "cluster_id": 4, "rank_in_cluster": 15}

>  <energy>  (17) 
-7.59

>  <cluster_rmsd>  (17) 
1.15

>  <cluster>  (17) 
3

$$$$

     RDKit          3D

 51 54  0  0  0  0  0  0  0  0999 V2000
  140.5260   77.0830  218.6360 O   0  0  0  0  0  0  0  0  0  0  0  0
  141.7050   77.0620  219.0740 C   0  0  0  0  0  0  0  0  0  0  0  0
  142.2860   78.3350  219.4880 N   0  0  0  0  0  0  0  0  0  0  0  0
  141.4530   79.4660  219.3510 C   0  0  0  0  0  0  0  0  0  0  0  0
  140.6760   79.9710  220.4680 C   0  0  0  0  0  0  0  0  0  0  0  0
  139.4070   80.1360  220.1820 O   0  0  0  0  0  0  0  0  0  0  0  0
  141.0230   80.3130  221.7750 N   0  0  0  0  0  0  0  0  0  0  0  0
  141.3010   81.6630  222.2660 C   0  0  0  0  0  0  0  0  0  0  0  0
  141.8960   81.5620  223.6620 C   0  0  0  0  0  0  0  0  0  0  0  0
  142.9360   80.5080  223.8190 C   0  0  0  0  0  0  0  0  0  0  0  0
  142.5710   79.1840  223.1230 C   0  0  0  0  0  0  0  0  0  0  0  0
  141.1300   79.2800  222.8300 C   0  0  2  0  0  0  0  0  0  0  0  0
  140.3790   78.0670  222.5780 C   0  0  0  0  0  0  0  0  0  0  0  0
  139.0040   77.9880  222.6390 C   0  0  0  0  0  0  0  0  0  0  0  0
  138.3510   76.8010  222.3880 C   0  0  0  0  0  0  0  0  0  0  0  0
  139.0380   75.6560  222.0700 C   0  0  0  0  0  0  0  0  0  0  0  0
  140.4030   75.7080  222.0030 C   0  0  0  0  0  0  0  0  0  0  0  0
  141.0760   74.5710  221.6870 F   0  0  0  0  0  0  0  0  0  0  0  0
  141.0700   76.9070  222.2560 C   0  0  0  0  0  0  0  0  0  0  0  0
  142.4830   75.8440  219.1780 C   0  0  0  0  0  0  0  0  0  0  0  0
  142.0730   74.7490  218.4770 C   0  0  0  0  0  0  0  0  0  0  0  0
  142.8140   73.5900  218.5770 C   0  0  0  0  0  0  0  0  0  0  0  0
  143.9520   73.4870  219.3540 C   0  0  0  0  0  0  0  0  0  0  0  0
  144.6880   72.3260  219.4480 C   0  0  0  0  0  0  0  0  0  0  0  0
  145.8270   72.2670  220.2400 C   0  0  0  0  0  0  0  0  0  0  0  0
  146.1870   73.4110  220.9250 C   0  0  0  0  0  0  0  0  0  0  0  0
  145.4530   74.5910  220.8380 C   0  0  0  0  0  0  0  0  0  0  0  0
  144.3300   74.6240  220.0480 C   0  0  0  0  0  0  0  0  0  0  0  0
  143.5870   75.7390  219.9300 N   0  0  0  0  0  0  0  0  0  0  0  0
  143.2530   78.2520  219.8270 H   0  0  0  0  0  0  0  0  0  0  0  0
  142.1015   80.2923  219.0244 H   0  0  0  0  0  0  0  0  0  0  0  0
  140.6742   79.1062  218.6625 H   0  0  0  0  0  0  0  0  0  0  0  0
  142.0156   82.1612  221.5943 H   0  0  0  0  0  0  0  0  0  0  0  0
  140.3707   82.2492  222.2969 H   0  0  0  0  0  0  0  0  0  0  0  0
  142.3504   82.5320  223.9120 H   0  0  0  0  0  0  0  0  0  0  0  0
  141.0695   81.2861  224.3334 H   0  0  0  0  0  0  0  0  0  0  0  0
  143.8779   80.8801  223.3896 H   0  0  0  0  0  0  0  0  0  0  0  0
  143.0260   80.2967  224.8947 H   0  0  0  0  0  0  0  0  0  0  0  0
  143.1459   79.0671  222.1925 H   0  0  0  0  0  0  0  0  0  0  0  0
  142.8030   78.3130  223.7535 H   0  0  0  0  0  0  0  0  0  0  0  0
  140.6076   79.5561  223.7579 H   0  0  0  0  0  0  0  0  0  0  0  0
  138.4200   78.8853  222.8916 H   0  0  0  0  0  0  0  0  0  0  0  0
  137.2528   76.7702  222.4438 H   0  0  0  0  0  0  0  0  0  0  0  0
  138.5017   74.7160  221.8731 H   0  0  0  0  0  0  0  0  0  0  0  0
  142.1682   76.9337  222.1990 H   0  0  0  0  0  0  0  0  0  0  0  0
  141.1725   74.7889  217.8465 H   0  0  0  0  0  0  0  0  0  0  0  0
  142.4835   72.7062  218.0117 H   0  0  0  0  0  0  0  0  0  0  0  0
  144.3692   71.4343  218.8884 H   0  0  0  0  0  0  0  0  0  0  0  0
  146.4202   71.3440  220.3189 H   0  0  0  0  0  0  0  0  0  0  0  0
  147.0842   73.3892  221.5610 H   0  0  0  0  0  0  0  0  0  0  0  0
  145.7686   75.4855  221.3950 H   0  0  0  0  0  0  0  0  0  0  0  0
  1  2  2  0
  2  3  1  0
  3  4  1  0
  4  5  1  0
  5  6  2  0
  5  7  1  0
  7  8  1  0
  8  9  1  0
  9 10  1  0
 10 11  1  0
 11 12  1  0
 12 13  1  0
 13 14  2  0
 14 15  1  0
 15 16  2  0
 16 17  1  0
 17 18  1  0
 17 19  2  0
  2 20  1  0
 20 21  2  0
 21 22  1  0
 22 23  2  0
 23 24  1  0
 24 25  2  0
 25 26  1  0
 26 27  2  0
 27 28  1  0
 28 29  2  0
 12  7  1  0
 19 13  1  0
 29 20  1  0
 28 23  1  0
  3 30  1  0
  4 31  1  0
  4 32  1  0
  8 33  1  0
  8 34  1  0
  9 35  1  0
  9 36  1  0
 10 37  1  0
 10 38  1  0
 11 39  1  0
 11 40  1  0
 12 41  1  1
 14 42  1  0
 15 43  1  0
 16 44  1  0
 19 45  1  0
 21 46  1  0
 22 47  1  0
 24 48  1  0
 25 49  1  0
 26 50  1  0
 27 51  1  0
M  END
>  <smiles>  (18) 
O=C(NCC(=O)N1CCCCC1c1cccc(F)c1)c1ccc2ccccc2n1

>  <score_type>  (18) 
oracle

>  <origin>  (18) 
autodockgpu

>  <m_score__min__energy>  (18) 
-8.9299999999999997

>  <m_primary>  (18) 
energy

>  <rmsd>  (18) 
7.635037908903581

>  <m_score__min__rmsd>  (18) 
7.635037908903581

>  <meeko>  (18) 
{"free_energy": -7.36, "intermolecular_energy": -8.85, "internal_energy": -2.63, "cluster_size": 13, "cluster_id": 5, "rank_in_cluster": 2}

>  <energy>  (18) 
-7.72

>  <cluster_rmsd>  (18) 
0.0

>  <cluster>  (18) 
4

$$$$

     RDKit          3D

 51 54  0  0  0  0  0  0  0  0999 V2000
  140.6190   77.1950  218.3480 O   0  0  0  0  0  0  0  0  0  0  0  0
  141.6630   77.1200  219.0460 C   0  0  0  0  0  0  0  0  0  0  0  0
  142.1290   78.3460  219.6850 N   0  0  0  0  0  0  0  0  0  0  0  0
  141.3490   79.4990  219.4480 C   0  0  0  0  0  0  0  0  0  0  0  0
  140.6980   80.2060  220.5360 C   0  0  0  0  0  0  0  0  0  0  0  0
  139.5230   80.6860  220.2090 O   0  0  0  0  0  0  0  0  0  0  0  0
  141.0870   80.4700  221.8490 N   0  0  0  0  0  0  0  0  0  0  0  0
  141.4090   81.7850  222.4030 C   0  0  0  0  0  0  0  0  0  0  0  0
  142.0370   81.5970  223.7750 C   0  0  0  0  0  0  0  0  0  0  0  0
  143.0550   80.5140  223.8490 C   0  0  0  0  0  0  0  0  0  0  0  0
  142.6420   79.2370  223.0940 C   0  0  0  0  0  0  0  0  0  0  0  0
  141.1960   79.3800  222.8450 C   0  0  2  0  0  0  0  0  0  0  0  0
  140.4110   78.1990  222.5490 C   0  0  0  0  0  0  0  0  0  0  0  0
  139.0330   78.1890  222.4820 C   0  0  0  0  0  0  0  0  0  0  0  0
  138.3470   77.0290  222.1970 C   0  0  0  0  0  0  0  0  0  0  0  0
  139.0010   75.8450  221.9690 C   0  0  0  0  0  0  0  0  0  0  0  0
  140.3670   75.8270  222.0300 C   0  0  0  0  0  0  0  0  0  0  0  0
  141.0080   74.6510  221.8030 F   0  0  0  0  0  0  0  0  0  0  0  0
  141.0680   76.9990  222.3190 C   0  0  0  0  0  0  0  0  0  0  0  0
  142.3970   75.8840  219.2300 C   0  0  0  0  0  0  0  0  0  0  0  0
  141.9030   74.7450  218.6690 C   0  0  0  0  0  0  0  0  0  0  0  0
  142.6030   73.5690  218.8450 C   0  0  0  0  0  0  0  0  0  0  0  0
  143.7810   73.4920  219.5630 C   0  0  0  0  0  0  0  0  0  0  0  0
  144.4740   72.3140  219.7350 C   0  0  0  0  0  0  0  0  0  0  0  0
  145.6550   72.2830  220.4640 C   0  0  0  0  0  0  0  0  0  0  0  0
  146.1010   73.4720  221.0080 C   0  0  0  0  0  0  0  0  0  0  0  0
  145.4100   74.6700  220.8420 C   0  0  0  0  0  0  0  0  0  0  0  0
  144.2440   74.6740  220.1160 C   0  0  0  0  0  0  0  0  0  0  0  0
  143.5390   75.8040  219.9260 N   0  0  0  0  0  0  0  0  0  0  0  0
  142.9900   78.2200  220.2320 H   0  0  0  0  0  0  0  0  0  0  0  0
  142.0109   80.2268  218.9558 H   0  0  0  0  0  0  0  0  0  0  0  0
  140.4965   79.0978  218.8803 H   0  0  0  0  0  0  0  0  0  0  0  0
  142.1176   82.3025  221.7396 H   0  0  0  0  0  0  0  0  0  0  0  0
  140.4936   82.3888  222.4900 H   0  0  0  0  0  0  0  0  0  0  0  0
  142.5204   82.5421  224.0631 H   0  0  0  0  0  0  0  0  0  0  0  0
  141.2216   81.3042  224.4528 H   0  0  0  0  0  0  0  0  0  0  0  0
  143.9943   80.8876  223.4153 H   0  0  0  0  0  0  0  0  0  0  0  0
  143.1666   80.2437  224.9094 H   0  0  0  0  0  0  0  0  0  0  0  0
  143.1902   79.1575  222.1436 H   0  0  0  0  0  0  0  0  0  0  0  0
  142.8699   78.3287  223.6711 H   0  0  0  0  0  0  0  0  0  0  0  0
  140.7035   79.6173  223.7996 H   0  0  0  0  0  0  0  0  0  0  0  0
  138.4745   79.1201  222.6586 H   0  0  0  0  0  0  0  0  0  0  0  0
  137.2482   77.0527  222.1512 H   0  0  0  0  0  0  0  0  0  0  0  0
  138.4377   74.9280  221.7415 H   0  0  0  0  0  0  0  0  0  0  0  0
  142.1666   76.9704  222.3654 H   0  0  0  0  0  0  0  0  0  0  0  0
  140.9682   74.7625  218.0895 H   0  0  0  0  0  0  0  0  0  0  0  0
  142.2043   72.6492  218.3922 H   0  0  0  0  0  0  0  0  0  0  0  0
  144.0867   71.3861  219.2890 H   0  0  0  0  0  0  0  0  0  0  0  0
  146.2149   71.3465  220.6033 H   0  0  0  0  0  0  0  0  0  0  0  0
  147.0332   73.4727  221.5919 H   0  0  0  0  0  0  0  0  0  0  0  0
  145.7930   75.6005  221.2864 H   0  0  0  0  0  0  0  0  0  0  0  0
  1  2  2  0
  2  3  1  0
  3  4  1  0
  4  5  1  0
  5  6  2  0
  5  7  1  0
  7  8  1  0
  8  9  1  0
  9 10  1  0
 10 11  1  0
 11 12  1  0
 12 13  1  0
 13 14  2  0
 14 15  1  0
 15 16  2  0
 16 17  1  0
 17 18  1  0
 17 19  2  0
  2 20  1  0
 20 21  2  0
 21 22  1  0
 22 23  2  0
 23 24  1  0
 24 25  2  0
 25 26  1  0
 26 27  2  0
 27 28  1  0
 28 29  2  0
 12  7  1  0
 19 13  1  0
 29 20  1  0
 28 23  1  0
  3 30  1  0
  4 31  1  0
  4 32  1  0
  8 33  1  0
  8 34  1  0
  9 35  1  0
  9 36  1  0
 10 37  1  0
 10 38  1  0
 11 39  1  0
 11 40  1  0
 12 41  1  1
 14 42  1  0
 15 43  1  0
 16 44  1  0
 19 45  1  0
 21 46  1  0
 22 47  1  0
 24 48  1  0
 25 49  1  0
 26 50  1  0
 27 51  1  0
M  END
>  <smiles>  (19) 
O=C(NCC(=O)N1CCCCC1c1cccc(F)c1)c1ccc2ccccc2n1

>  <score_type>  (19) 
oracle

>  <origin>  (19) 
autodockgpu

>  <m_score__min__energy>  (19) 
-8.9299999999999997

>  <m_primary>  (19) 
energy

>  <rmsd>  (19) 
7.593530021997397

>  <m_score__min__rmsd>  (19) 
7.593530021997397

>  <meeko>  (19) 
{"free_energy": -7.24, "intermolecular_energy": -8.73, "internal_energy": -2.65, "cluster_size": 13, "cluster_id": 5, "rank_in_cluster": 11}

>  <energy>  (19) 
-7.7

>  <cluster_rmsd>  (19) 
0.88

>  <cluster>  (19) 
4

$$$$

     RDKit          3D

 51 54  0  0  0  0  0  0  0  0999 V2000
  140.2870   77.2220  218.6860 O   0  0  0  0  0  0  0  0  0  0  0  0
  141.4380   77.1750  219.1920 C   0  0  0  0  0  0  0  0  0  0  0  0
  142.0060   78.4270  219.6770 N   0  0  0  0  0  0  0  0  0  0  0  0
  141.1950   79.5730  219.5240 C   0  0  0  0  0  0  0  0  0  0  0  0
  140.5940   80.2300  220.6700 C   0  0  0  0  0  0  0  0  0  0  0  0
  139.3790   80.6620  220.4390 O   0  0  0  0  0  0  0  0  0  0  0  0
  141.0630   80.4870  221.9580 N   0  0  0  0  0  0  0  0  0  0  0  0
  141.4310   81.7980  222.4940 C   0  0  0  0  0  0  0  0  0  0  0  0
  142.1390   81.6020  223.8250 C   0  0  0  0  0  0  0  0  0  0  0  0
  143.1500   80.5090  223.8350 C   0  0  0  0  0  0  0  0  0  0  0  0
  142.6800   79.2380  223.1040 C   0  0  0  0  0  0  0  0  0  0  0  0
  141.2230   79.3940  222.9430 C   0  0  2  0  0  0  0  0  0  0  0  0
  140.4110   78.2210  222.6940 C   0  0  0  0  0  0  0  0  0  0  0  0
  139.0320   78.2250  222.7080 C   0  0  0  0  0  0  0  0  0  0  0  0
  138.3180   77.0710  222.4630 C   0  0  0  0  0  0  0  0  0  0  0  0
  138.9460   75.8810  222.1970 C   0  0  0  0  0  0  0  0  0  0  0  0
  140.3130   75.8500  222.1770 C   0  0  0  0  0  0  0  0  0  0  0  0
  140.9280   74.6680  221.9140 F   0  0  0  0  0  0  0  0  0  0  0  0
  141.0420   77.0150  222.4260 C   0  0  0  0  0  0  0  0  0  0  0  0
  142.1950   75.9440  219.3060 C   0  0  0  0  0  0  0  0  0  0  0  0
  141.7090   74.8240  218.7010 C   0  0  0  0  0  0  0  0  0  0  0  0
  142.4310   73.6530  218.8090 C   0  0  0  0  0  0  0  0  0  0  0  0
  143.6230   73.5630  219.5030 C   0  0  0  0  0  0  0  0  0  0  0  0
  144.3390   72.3900  219.6070 C   0  0  0  0  0  0  0  0  0  0  0  0
  145.5330   72.3460  220.3140 C   0  0  0  0  0  0  0  0  0  0  0  0
  145.9690   73.5160  220.9050 C   0  0  0  0  0  0  0  0  0  0  0  0
  145.2560   74.7080  220.8070 C   0  0  0  0  0  0  0  0  0  0  0  0
  144.0770   74.7270  220.1020 C   0  0  0  0  0  0  0  0  0  0  0  0
  143.3510   75.8520  219.9770 N   0  0  0  0  0  0  0  0  0  0  0  0
  142.9510   78.3230  220.0700 H   0  0  0  0  0  0  0  0  0  0  0  0
  141.8164   80.3293  219.0221 H   0  0  0  0  0  0  0  0  0  0  0  0
  140.3190   79.1758  218.9903 H   0  0  0  0  0  0  0  0  0  0  0  0
  142.1031   82.3100  221.7896 H   0  0  0  0  0  0  0  0  0  0  0  0
  140.5282   82.4099  222.6375 H   0  0  0  0  0  0  0  0  0  0  0  0
  142.6477   82.5421  224.0846 H   0  0  0  0  0  0  0  0  0  0  0  0
  141.3637   81.3158  224.5510 H   0  0  0  0  0  0  0  0  0  0  0  0
  144.0647   80.8750  223.3459 H   0  0  0  0  0  0  0  0  0  0  0  0
  143.3233   80.2351  224.8862 H   0  0  0  0  0  0  0  0  0  0  0  0
  143.1689   79.1559  222.1221 H   0  0  0  0  0  0  0  0  0  0  0  0
  142.9339   78.3264  223.6649 H   0  0  0  0  0  0  0  0  0  0  0  0
  140.7916   79.6333  223.9261 H   0  0  0  0  0  0  0  0  0  0  0  0
  138.4943   79.1615  222.9174 H   0  0  0  0  0  0  0  0  0  0  0  0
  137.2187   77.1056  222.4813 H   0  0  0  0  0  0  0  0  0  0  0  0
  138.3615   74.9694  222.0036 H   0  0  0  0  0  0  0  0  0  0  0  0
  142.1412   76.9754  222.4092 H   0  0  0  0  0  0  0  0  0  0  0  0
  140.7634   74.8526  218.1397 H   0  0  0  0  0  0  0  0  0  0  0  0
  142.0396   72.7488  218.3199 H   0  0  0  0  0  0  0  0  0  0  0  0
  143.9598   71.4774  219.1239 H   0  0  0  0  0  0  0  0  0  0  0  0
  146.1106   71.4138  220.4004 H   0  0  0  0  0  0  0  0  0  0  0  0
  146.9114   73.5056  221.4723 H   0  0  0  0  0  0  0  0  0  0  0  0
  145.6320   75.6230  221.2880 H   0  0  0  0  0  0  0  0  0  0  0  0
  1  2  2  0
  2  3  1  0
  3  4  1  0
  4  5  1  0
  5  6  2  0
  5  7  1  0
  7  8  1  0
  8  9  1  0
  9 10  1  0
 10 11  1  0
 11 12  1  0
 12 13  1  0
 13 14  2  0
 14 15  1  0
 15 16  2  0
 16 17  1  0
 17 18  1  0
 17 19  2  0
  2 20  1  0
 20 21  2  0
 21 22  1  0
 22 23  2  0
 23 24  1  0
 24 25  2  0
 25 26  1  0
 26 27  2  0
 27 28  1  0
 28 29  2  0
 12  7  1  0
 19 13  1  0
 29 20  1  0
 28 23  1  0
  3 30  1  0
  4 31  1  0
  4 32  1  0
  8 33  1  0
  8 34  1  0
  9 35  1  0
  9 36  1  0
 10 37  1  0
 10 38  1  0
 11 39  1  0
 11 40  1  0
 12 41  1  1
 14 42  1  0
 15 43  1  0
 16 44  1  0
 19 45  1  0
 21 46  1  0
 22 47  1  0
 24 48  1  0
 25 49  1  0
 26 50  1  0
 27 51  1  0
M  END
>  <smiles>  (20) 
O=C(NCC(=O)N1CCCCC1c1cccc(F)c1)c1ccc2ccccc2n1

>  <score_type>  (20) 
oracle

>  <origin>  (20) 
autodockgpu

>  <m_score__min__energy>  (20) 
-8.9299999999999997

>  <m_primary>  (20) 
energy

>  <rmsd>  (20) 
7.6010164428542115

>  <m_score__min__rmsd>  (20) 
7.6010164428542115

>  <meeko>  (20) 
{"free_energy": -7.12, "intermolecular_energy": -8.61, "internal_energy": -2.69, "cluster_size": 13, "cluster_id": 5, "rank_in_cluster": 12}

>  <energy>  (20) 
-7.68

>  <cluster_rmsd>  (20) 
0.89

>  <cluster>  (20) 
4

$$$$

     RDKit          3D

 51 54  0  0  0  0  0  0  0  0999 V2000
  139.1020   75.1830  221.4090 O   0  0  0  0  0  0  0  0  0  0  0  0
  140.1940   75.7110  221.7430 C   0  0  0  0  0  0  0  0  0  0  0  0
  141.4000   74.9070  221.5820 N   0  0  0  0  0  0  0  0  0  0  0  0
  141.2110   73.6080  221.0640 C   0  0  0  0  0  0  0  0  0  0  0  0
  142.0340   73.1000  219.9820 C   0  0  0  0  0  0  0  0  0  0  0  0
  141.3350   72.6210  218.9820 O   0  0  0  0  0  0  0  0  0  0  0  0
  143.4160   73.0250  219.8090 N   0  0  0  0  0  0  0  0  0  0  0  0
  144.2210   71.8030  219.8260 C   0  0  0  0  0  0  0  0  0  0  0  0
  145.6920   72.1870  219.8710 C   0  0  0  0  0  0  0  0  0  0  0  0
  146.0200   73.2810  220.8260 C   0  0  0  0  0  0  0  0  0  0  0  0
  145.0010   74.4360  220.8020 C   0  0  0  0  0  0  0  0  0  0  0  0
  144.2200   74.2450  219.5670 C   0  0  2  0  0  0  0  0  0  0  0  0
  143.4850   75.3640  219.0160 C   0  0  0  0  0  0  0  0  0  0  0  0
  143.1850   76.5100  219.7230 C   0  0  0  0  0  0  0  0  0  0  0  0
  142.4810   77.5390  219.1380 C   0  0  0  0  0  0  0  0  0  0  0  0
  142.0520   77.4670  217.8370 C   0  0  0  0  0  0  0  0  0  0  0  0
  142.3360   76.3430  217.1130 C   0  0  0  0  0  0  0  0  0  0  0  0
  141.9080   76.2780  215.8250 F   0  0  0  0  0  0  0  0  0  0  0  0
  143.0490   75.2960  217.7000 C   0  0  0  0  0  0  0  0  0  0  0  0
  140.2860   77.0580  222.2680 C   0  0  0  0  0  0  0  0  0  0  0  0
  139.1370   77.6940  222.6350 C   0  0  0  0  0  0  0  0  0  0  0  0
  139.2270   78.9770  223.1350 C   0  0  0  0  0  0  0  0  0  0  0  0
  140.4260   79.6470  223.2800 C   0  0  0  0  0  0  0  0  0  0  0  0
  140.5080   80.9290  223.7810 C   0  0  0  0  0  0  0  0  0  0  0  0
  141.7350   81.5650  223.9110 C   0  0  0  0  0  0  0  0  0  0  0  0
  142.8610   80.8660  223.5200 C   0  0  0  0  0  0  0  0  0  0  0  0
  142.7920   79.5710  223.0140 C   0  0  0  0  0  0  0  0  0  0  0  0
  141.5660   78.9630  222.8940 C   0  0  0  0  0  0  0  0  0  0  0  0
  141.4460   77.7130  222.4110 N   0  0  0  0  0  0  0  0  0  0  0  0
  142.2560   75.3910  221.8810 H   0  0  0  0  0  0  0  0  0  0  0  0
  141.3431   72.9144  221.9075 H   0  0  0  0  0  0  0  0  0  0  0  0
  140.2187   73.6806  220.5948 H   0  0  0  0  0  0  0  0  0  0  0  0
  143.9674   71.2053  220.7140 H   0  0  0  0  0  0  0  0  0  0  0  0
  144.0170   71.2079  218.9236 H   0  0  0  0  0  0  0  0  0  0  0  0
  146.2701   71.2964  220.1585 H   0  0  0  0  0  0  0  0  0  0  0  0
  145.9460   72.5626  218.8688 H   0  0  0  0  0  0  0  0  0  0  0  0
  146.0478   72.8608  221.8422 H   0  0  0  0  0  0  0  0  0  0  0  0
  146.9921   73.6975  220.5233 H   0  0  0  0  0  0  0  0  0  0  0  0
  144.3446   74.3882  221.6834 H   0  0  0  0  0  0  0  0  0  0  0  0
  145.4960   75.4181  220.8245 H   0  0  0  0  0  0  0  0  0  0  0  0
  144.9234   74.1386  218.7280 H   0  0  0  0  0  0  0  0  0  0  0  0
  143.5128   76.6032  220.7689 H   0  0  0  0  0  0  0  0  0  0  0  0
  142.2574   78.4401  219.7280 H   0  0  0  0  0  0  0  0  0  0  0  0
  141.4903   78.2978  217.3851 H   0  0  0  0  0  0  0  0  0  0  0  0
  143.2702   74.3969  217.1062 H   0  0  0  0  0  0  0  0  0  0  0  0
  138.1613   77.1960  222.5348 H   0  0  0  0  0  0  0  0  0  0  0  0
  138.3005   79.4901  223.4320 H   0  0  0  0  0  0  0  0  0  0  0  0
  139.5895   81.4544  224.0815 H   0  0  0  0  0  0  0  0  0  0  0  0
  141.8082   82.5873  224.3104 H   0  0  0  0  0  0  0  0  0  0  0  0
  143.8450   81.3491  223.6117 H   0  0  0  0  0  0  0  0  0  0  0  0
  143.7080   79.0410  222.7139 H   0  0  0  0  0  0  0  0  0  0  0  0
  1  2  2  0
  2  3  1  0
  3  4  1  0
  4  5  1  0
  5  6  2  0
  5  7  1  0
  7  8  1  0
  8  9  1  0
  9 10  1  0
 10 11  1  0
 11 12  1  0
 12 13  1  0
 13 14  2  0
 14 15  1  0
 15 16  2  0
 16 17  1  0
 17 18  1  0
 17 19  2  0
  2 20  1  0
 20 21  2  0
 21 22  1  0
 22 23  2  0
 23 24  1  0
 24 25  2  0
 25 26  1  0
 26 27  2  0
 27 28  1  0
 28 29  2  0
 12  7  1  0
 19 13  1  0
 29 20  1  0
 28 23  1  0
  3 30  1  0
  4 31  1  0
  4 32  1  0
  8 33  1  0
  8 34  1  0
  9 35  1  0
  9 36  1  0
 10 37  1  0
 10 38  1  0
 11 39  1  0
 11 40  1  0
 12 41  1  6
 14 42  1  0
 15 43  1  0
 16 44  1  0
 19 45  1  0
 21 46  1  0
 22 47  1  0
 24 48  1  0
 25 49  1  0
 26 50  1  0
 27 51  1  0
M  END
>  <smiles>  (21) 
O=C(NCC(=O)N1CCCCC1c1cccc(F)c1)c1ccc2ccccc2n1

>  <score_type>  (21) 
oracle

>  <origin>  (21) 
autodockgpu

>  <m_score__min__energy>  (21) 
-8.9299999999999997

>  <m_primary>  (21) 
energy

>  <rmsd>  (21) 
7.74057984936345

>  <m_score__min__rmsd>  (21) 
7.74057984936345

>  <meeko>  (21) 
{"free_energy": -7.57, "intermolecular_energy": -9.06, "internal_energy": -2.33, "cluster_size": 20, "cluster_id": 4, "rank_in_cluster": 14}

>  <energy>  (21) 
-7.65

>  <cluster_rmsd>  (21) 
0.29

>  <cluster>  (21) 
4

$$$$

     RDKit          3D

 51 54  0  0  0  0  0  0  0  0999 V2000
  141.2490   71.8670  221.4620 O   0  0  0  0  0  0  0  0  0  0  0  0
  140.5750   72.3080  222.4280 C   0  0  0  0  0  0  0  0  0  0  0  0
  140.0650   73.6700  222.3200 N   0  0  0  0  0  0  0  0  0  0  0  0
  140.3880   74.3570  221.1290 C   0  0  0  0  0  0  0  0  0  0  0  0
  141.2050   75.5570  221.1480 C   0  0  0  0  0  0  0  0  0  0  0  0
  141.4270   76.0100  222.3570 O   0  0  0  0  0  0  0  0  0  0  0  0
  141.7890   76.3110  220.1310 N   0  0  0  0  0  0  0  0  0  0  0  0
  141.5370   77.7260  219.8550 C   0  0  0  0  0  0  0  0  0  0  0  0
  142.1590   78.0810  218.5140 C   0  0  0  0  0  0  0  0  0  0  0  0
  141.9230   77.0830  217.4350 C   0  0  0  0  0  0  0  0  0  0  0  0
  142.0800   75.6260  217.9090 C   0  0  0  0  0  0  0  0  0  0  0  0
  142.7750   75.7080  219.2060 C   0  0  2  0  0  0  0  0  0  0  0  0
  143.4580   74.5370  219.7160 C   0  0  0  0  0  0  0  0  0  0  0  0
  143.0320   73.2430  219.4970 C   0  0  0  0  0  0  0  0  0  0  0  0
  143.7290   72.1720  220.0130 C   0  0  0  0  0  0  0  0  0  0  0  0
  144.8660   72.3470  220.7600 C   0  0  0  0  0  0  0  0  0  0  0  0
  145.3090   73.6200  220.9920 C   0  0  0  0  0  0  0  0  0  0  0  0
  146.4360   73.7860  221.7330 F   0  0  0  0  0  0  0  0  0  0  0  0
  144.6080   74.7090  220.4730 C   0  0  0  0  0  0  0  0  0  0  0  0
  140.2960   71.5230  223.6130 C   0  0  0  0  0  0  0  0  0  0  0  0
  139.6110   70.3530  223.4720 C   0  0  0  0  0  0  0  0  0  0  0  0
  139.3470   69.6060  224.6020 C   0  0  0  0  0  0  0  0  0  0  0  0
  139.7430   69.9890  225.8690 C   0  0  0  0  0  0  0  0  0  0  0  0
  139.4760   69.2370  226.9930 C   0  0  0  0  0  0  0  0  0  0  0  0
  139.8940   69.6590  228.2470 C   0  0  0  0  0  0  0  0  0  0  0  0
  140.5830   70.8550  228.3220 C   0  0  0  0  0  0  0  0  0  0  0  0
  140.8600   71.6230  227.1940 C   0  0  0  0  0  0  0  0  0  0  0  0
  140.4350   71.1840  225.9640 C   0  0  0  0  0  0  0  0  0  0  0  0
  140.6780   71.8890  224.8440 N   0  0  0  0  0  0  0  0  0  0  0  0
  139.5310   73.9740  223.1440 H   0  0  0  0  0  0  0  0  0  0  0  0
  140.9110   73.6346  220.4851 H   0  0  0  0  0  0  0  0  0  0  0  0
  139.4100   74.7395  220.8016 H   0  0  0  0  0  0  0  0  0  0  0  0
  140.4528   77.9086  219.8198 H   0  0  0  0  0  0  0  0  0  0  0  0
  141.9791   78.3464  220.6484 H   0  0  0  0  0  0  0  0  0  0  0  0
  141.7412   79.0445  218.1869 H   0  0  0  0  0  0  0  0  0  0  0  0
  143.2467   78.1132  218.6749 H   0  0  0  0  0  0  0  0  0  0  0  0
  140.9006   77.2176  217.0523 H   0  0  0  0  0  0  0  0  0  0  0  0
  142.6821   77.2569  216.6581 H   0  0  0  0  0  0  0  0  0  0  0  0
  141.0945   75.1525  218.0299 H   0  0  0  0  0  0  0  0  0  0  0  0
  142.6400   75.0182  217.1830 H   0  0  0  0  0  0  0  0  0  0  0  0
  143.6757   76.3257  219.0749 H   0  0  0  0  0  0  0  0  0  0  0  0
  142.1239   73.0639  218.9026 H   0  0  0  0  0  0  0  0  0  0  0  0
  143.3647   71.1520  219.8212 H   0  0  0  0  0  0  0  0  0  0  0  0
  145.4105   71.4810  221.1643 H   0  0  0  0  0  0  0  0  0  0  0  0
  144.9755   75.7272  220.6685 H   0  0  0  0  0  0  0  0  0  0  0  0
  139.2765   70.0123  222.4810 H   0  0  0  0  0  0  0  0  0  0  0  0
  138.7953   68.6611  224.4886 H   0  0  0  0  0  0  0  0  0  0  0  0
  138.9245   68.2903  226.8946 H   0  0  0  0  0  0  0  0  0  0  0  0
  139.6848   69.0638  229.1481 H   0  0  0  0  0  0  0  0  0  0  0  0
  140.9237   71.2118  229.3052 H   0  0  0  0  0  0  0  0  0  0  0  0
  141.4124   72.5697  227.2869 H   0  0  0  0  0  0  0  0  0  0  0  0
  1  2  2  0
  2  3  1  0
  3  4  1  0
  4  5  1  0
  5  6  2  0
  5  7  1  0
  7  8  1  0
  8  9  1  0
  9 10  1  0
 10 11  1  0
 11 12  1  0
 12 13  1  0
 13 14  2  0
 14 15  1  0
 15 16  2  0
 16 17  1  0
 17 18  1  0
 17 19  2  0
  2 20  1  0
 20 21  2  0
 21 22  1  0
 22 23  2  0
 23 24  1  0
 24 25  2  0
 25 26  1  0
 26 27  2  0
 27 28  1  0
 28 29  2  0
 12  7  1  0
 19 13  1  0
 29 20  1  0
 28 23  1  0
  3 30  1  0
  4 31  1  0
  4 32  1  0
  8 33  1  0
  8 34  1  0
  9 35  1  0
  9 36  1  0
 10 37  1  0
 10 38  1  0
 11 39  1  0
 11 40  1  0
 12 41  1  6
 14 42  1  0
 15 43  1  0
 16 44  1  0
 19 45  1  0
 21 46  1  0
 22 47  1  0
 24 48  1  0
 25 49  1  0
 26 50  1  0
 27 51  1  0
M  END
>  <smiles>  (22) 
O=C(NCC(=O)N1CCCCC1c1cccc(F)c1)c1ccc2ccccc2n1

>  <score_type>  (22) 
oracle

>  <origin>  (22) 
autodockgpu

>  <m_score__min__energy>  (22) 
-8.9299999999999997

>  <m_primary>  (22) 
energy

>  <rmsd>  (22) 
2.3028380159370525

>  <m_score__min__rmsd>  (22) 
2.3028380159370525

>  <meeko>  (22) 
{"free_energy": -8.45, "intermolecular_energy": -9.94, "internal_energy": -1.72, "cluster_size": 13, "cluster_id": 1, "rank_in_cluster": 6}

>  <energy>  (22) 
-7.65

>  <cluster_rmsd>  (22) 
0.29

>  <cluster>  (22) 
4

$$$$

     RDKit          3D

 51 54  0  0  0  0  0  0  0  0999 V2000
  139.1110   75.0380  221.6570 O   0  0  0  0  0  0  0  0  0  0  0  0
  140.2070   75.6280  221.8400 C   0  0  0  0  0  0  0  0  0  0  0  0
  141.4250   74.8790  221.5510 N   0  0  0  0  0  0  0  0  0  0  0  0
  141.2410   73.5560  221.0930 C   0  0  0  0  0  0  0  0  0  0  0  0
  141.9930   73.0370  219.9650 C   0  0  0  0  0  0  0  0  0  0  0  0
  141.2320   72.6490  218.9710 O   0  0  0  0  0  0  0  0  0  0  0  0
  143.3610   72.8740  219.7430 N   0  0  0  0  0  0  0  0  0  0  0  0
  144.0830   71.6020  219.7220 C   0  0  0  0  0  0  0  0  0  0  0  0
  145.5770   71.8880  219.7190 C   0  0  0  0  0  0  0  0  0  0  0  0
  146.0090   72.9470  220.6720 C   0  0  0  0  0  0  0  0  0  0  0  0
  145.0680   74.1660  220.6940 C   0  0  0  0  0  0  0  0  0  0  0  0
  144.2350   74.0410  219.4850 C   0  0  2  0  0  0  0  0  0  0  0  0
  143.5570   75.2130  218.9700 C   0  0  0  0  0  0  0  0  0  0  0  0
  143.2930   76.3390  219.7200 C   0  0  0  0  0  0  0  0  0  0  0  0
  142.6420   77.4210  219.1680 C   0  0  0  0  0  0  0  0  0  0  0  0
  142.2340   77.4220  217.8580 C   0  0  0  0  0  0  0  0  0  0  0  0
  142.4840   76.3170  217.0920 C   0  0  0  0  0  0  0  0  0  0  0  0
  142.0770   76.3250  215.7960 F   0  0  0  0  0  0  0  0  0  0  0  0
  143.1420   75.2170  217.6460 C   0  0  0  0  0  0  0  0  0  0  0  0
  140.2930   76.9940  222.3150 C   0  0  0  0  0  0  0  0  0  0  0  0
  139.1380   77.6470  222.6300 C   0  0  0  0  0  0  0  0  0  0  0  0
  139.2220   78.9480  223.0830 C   0  0  0  0  0  0  0  0  0  0  0  0
  140.4210   79.6190  223.2310 C   0  0  0  0  0  0  0  0  0  0  0  0
  140.4960   80.9190  223.6850 C   0  0  0  0  0  0  0  0  0  0  0  0
  141.7220   81.5550  223.8190 C   0  0  0  0  0  0  0  0  0  0  0  0
  142.8540   80.8380  223.4830 C   0  0  0  0  0  0  0  0  0  0  0  0
  142.7920   79.5240  223.0240 C   0  0  0  0  0  0  0  0  0  0  0  0
  141.5660   78.9160  222.8990 C   0  0  0  0  0  0  0  0  0  0  0  0
  141.4520   77.6500  222.4610 N   0  0  0  0  0  0  0  0  0  0  0  0
  142.2850   75.4130  221.7290 H   0  0  0  0  0  0  0  0  0  0  0  0
  141.4643   72.8976  221.9454 H   0  0  0  0  0  0  0  0  0  0  0  0
  140.2124   73.5791  220.7037 H   0  0  0  0  0  0  0  0  0  0  0  0
  143.8209   71.0130  220.6133 H   0  0  0  0  0  0  0  0  0  0  0  0
  143.8093   71.0310  218.8225 H   0  0  0  0  0  0  0  0  0  0  0  0
  146.1045   70.9581  219.9778 H   0  0  0  0  0  0  0  0  0  0  0  0
  145.8208   72.2576  218.7120 H   0  0  0  0  0  0  0  0  0  0  0  0
  146.0439   72.5143  221.6827 H   0  0  0  0  0  0  0  0  0  0  0  0
  146.9955   73.3023  220.3396 H   0  0  0  0  0  0  0  0  0  0  0  0
  144.4400   74.1508  221.5970 H   0  0  0  0  0  0  0  0  0  0  0  0
  145.6269   75.1133  220.7088 H   0  0  0  0  0  0  0  0  0  0  0  0
  144.9011   73.8982  218.6213 H   0  0  0  0  0  0  0  0  0  0  0  0
  143.6063   76.3744  220.7738 H   0  0  0  0  0  0  0  0  0  0  0  0
  142.4448   78.3048  219.7925 H   0  0  0  0  0  0  0  0  0  0  0  0
  141.7161   78.2942  217.4324 H   0  0  0  0  0  0  0  0  0  0  0  0
  143.3356   74.3342  217.0190 H   0  0  0  0  0  0  0  0  0  0  0  0
  138.1629   77.1488  222.5256 H   0  0  0  0  0  0  0  0  0  0  0  0
  138.2910   79.4755  223.3381 H   0  0  0  0  0  0  0  0  0  0  0  0
  139.5729   81.4582  223.9440 H   0  0  0  0  0  0  0  0  0  0  0  0
  141.7900   82.5920  224.1795 H   0  0  0  0  0  0  0  0  0  0  0  0
  143.8375   81.3208  223.5812 H   0  0  0  0  0  0  0  0  0  0  0  0
  143.7125   78.9803  222.7650 H   0  0  0  0  0  0  0  0  0  0  0  0
  1  2  2  0
  2  3  1  0
  3  4  1  0
  4  5  1  0
  5  6  2  0
  5  7  1  0
  7  8  1  0
  8  9  1  0
  9 10  1  0
 10 11  1  0
 11 12  1  0
 12 13  1  0
 13 14  2  0
 14 15  1  0
 15 16  2  0
 16 17  1  0
 17 18  1  0
 17 19  2  0
  2 20  1  0
 20 21  2  0
 21 22  1  0
 22 23  2  0
 23 24  1  0
 24 25  2  0
 25 26  1  0
 26 27  2  0
 27 28  1  0
 28 29  2  0
 12  7  1  0
 19 13  1  0
 29 20  1  0
 28 23  1  0
  3 30  1  0
  4 31  1  0
  4 32  1  0
  8 33  1  0
  8 34  1  0
  9 35  1  0
  9 36  1  0
 10 37  1  0
 10 38  1  0
 11 39  1  0
 11 40  1  0
 12 41  1  6
 14 42  1  0
 15 43  1  0
 16 44  1  0
 19 45  1  0
 21 46  1  0
 22 47  1  0
 24 48  1  0
 25 49  1  0
 26 50  1  0
 27 51  1  0
M  END
>  <smiles>  (23) 
O=C(NCC(=O)N1CCCCC1c1cccc(F)c1)c1ccc2ccccc2n1

>  <score_type>  (23) 
oracle

>  <origin>  (23) 
autodockgpu

>  <m_score__min__energy>  (23) 
-8.9299999999999997

>  <m_primary>  (23) 
energy

>  <rmsd>  (23) 
7.7432410008123576

>  <m_score__min__rmsd>  (23) 
7.7432410008123576

>  <meeko>  (23) 
{"free_energy": -7.68, "intermolecular_energy": -9.17, "internal_energy": -2.27, "cluster_size": 20, "cluster_id": 4, "rank_in_cluster": 3}

>  <energy>  (23) 
-7.64

>  <cluster_rmsd>  (23) 
0.25

>  <cluster>  (23) 
4

$$$$

     RDKit          3D

 51 54  0  0  0  0  0  0  0  0999 V2000
  139.0870   75.0390  221.5640 O   0  0  0  0  0  0  0  0  0  0  0  0
  140.1870   75.5840  221.8410 C   0  0  0  0  0  0  0  0  0  0  0  0
  141.3930   74.7850  221.6600 N   0  0  0  0  0  0  0  0  0  0  0  0
  141.1950   73.4680  221.1890 C   0  0  0  0  0  0  0  0  0  0  0  0
  142.0110   72.9190  220.1210 C   0  0  0  0  0  0  0  0  0  0  0  0
  141.3110   72.2910  219.2080 O   0  0  0  0  0  0  0  0  0  0  0  0
  143.3860   72.9320  219.8880 N   0  0  0  0  0  0  0  0  0  0  0  0
  144.2720   71.7680  219.9020 C   0  0  0  0  0  0  0  0  0  0  0  0
  145.7140   72.2500  219.8710 C   0  0  0  0  0  0  0  0  0  0  0  0
  146.0070   73.3920  220.7810 C   0  0  0  0  0  0  0  0  0  0  0  0
  144.9120   74.4740  220.7730 C   0  0  0  0  0  0  0  0  0  0  0  0
  144.0940   74.1950  219.5790 C   0  0  2  0  0  0  0  0  0  0  0  0
  143.2610   75.2460  219.0320 C   0  0  0  0  0  0  0  0  0  0  0  0
  142.5970   75.1520  217.8270 C   0  0  0  0  0  0  0  0  0  0  0  0
  141.8200   76.1920  217.3640 C   0  0  0  0  0  0  0  0  0  0  0  0
  141.6770   77.3550  218.0770 C   0  0  0  0  0  0  0  0  0  0  0  0
  142.3250   77.4740  219.2750 C   0  0  0  0  0  0  0  0  0  0  0  0
  142.1790   78.6290  219.9760 F   0  0  0  0  0  0  0  0  0  0  0  0
  143.1150   76.4250  219.7500 C   0  0  0  0  0  0  0  0  0  0  0  0
  140.2880   76.9480  222.3210 C   0  0  0  0  0  0  0  0  0  0  0  0
  139.1400   77.6160  222.6290 C   0  0  0  0  0  0  0  0  0  0  0  0
  139.2380   78.9140  223.0860 C   0  0  0  0  0  0  0  0  0  0  0  0
  140.4440   79.5680  223.2460 C   0  0  0  0  0  0  0  0  0  0  0  0
  140.5340   80.8650  223.7040 C   0  0  0  0  0  0  0  0  0  0  0  0
  141.7680   81.4840  223.8510 C   0  0  0  0  0  0  0  0  0  0  0  0
  142.8920   80.7520  223.5210 C   0  0  0  0  0  0  0  0  0  0  0  0
  142.8150   79.4410  223.0580 C   0  0  0  0  0  0  0  0  0  0  0  0
  141.5830   78.8510  222.9210 C   0  0  0  0  0  0  0  0  0  0  0  0
  141.4540   77.5870  222.4790 N   0  0  0  0  0  0  0  0  0  0  0  0
  142.2560   75.2830  221.9120 H   0  0  0  0  0  0  0  0  0  0  0  0
  141.3285   72.8039  222.0557 H   0  0  0  0  0  0  0  0  0  0  0  0
  140.2003   73.5279  220.7231 H   0  0  0  0  0  0  0  0  0  0  0  0
  144.0977   71.1815  220.8162 H   0  0  0  0  0  0  0  0  0  0  0  0
  144.0706   71.1342  219.0258 H   0  0  0  0  0  0  0  0  0  0  0  0
  146.3629   71.4089  220.1565 H   0  0  0  0  0  0  0  0  0  0  0  0
  145.8995   72.6112  218.8487 H   0  0  0  0  0  0  0  0  0  0  0  0
  146.1077   73.0049  221.8057 H   0  0  0  0  0  0  0  0  0  0  0  0
  146.9338   73.8641  220.4231 H   0  0  0  0  0  0  0  0  0  0  0  0
  144.2987   74.4075  221.6837 H   0  0  0  0  0  0  0  0  0  0  0  0
  145.3389   75.4875  220.7484 H   0  0  0  0  0  0  0  0  0  0  0  0
  144.7672   74.1114  218.7131 H   0  0  0  0  0  0  0  0  0  0  0  0
  142.6887   74.2345  217.2272 H   0  0  0  0  0  0  0  0  0  0  0  0
  141.3020   76.0868  216.3993 H   0  0  0  0  0  0  0  0  0  0  0  0
  141.0534   78.1756  217.6926 H   0  0  0  0  0  0  0  0  0  0  0  0
  143.6329   76.5354  220.7142 H   0  0  0  0  0  0  0  0  0  0  0  0
  138.1590   77.1315  222.5158 H   0  0  0  0  0  0  0  0  0  0  0  0
  138.3122   79.4535  223.3346 H   0  0  0  0  0  0  0  0  0  0  0  0
  139.6164   81.4166  223.9562 H   0  0  0  0  0  0  0  0  0  0  0  0
  141.8476   82.5184  224.2165 H   0  0  0  0  0  0  0  0  0  0  0  0
  143.8815   81.2206  223.6276 H   0  0  0  0  0  0  0  0  0  0  0  0
  143.7299   78.8851  222.8052 H   0  0  0  0  0  0  0  0  0  0  0  0
  1  2  2  0
  2  3  1  0
  3  4  1  0
  4  5  1  0
  5  6  2  0
  5  7  1  0
  7  8  1  0
  8  9  1  0
  9 10  1  0
 10 11  1  0
 11 12  1  0
 12 13  1  0
 13 14  2  0
 14 15  1  0
 15 16  2  0
 16 17  1  0
 17 18  1  0
 17 19  2  0
  2 20  1  0
 20 21  2  0
 21 22  1  0
 22 23  2  0
 23 24  1  0
 24 25  2  0
 25 26  1  0
 26 27  2  0
 27 28  1  0
 28 29  2  0
 12  7  1  0
 19 13  1  0
 29 20  1  0
 28 23  1  0
  3 30  1  0
  4 31  1  0
  4 32  1  0
  8 33  1  0
  8 34  1  0
  9 35  1  0
  9 36  1  0
 10 37  1  0
 10 38  1  0
 11 39  1  0
 11 40  1  0
 12 41  1  6
 14 42  1  0
 15 43  1  0
 16 44  1  0
 19 45  1  0
 21 46  1  0
 22 47  1  0
 24 48  1  0
 25 49  1  0
 26 50  1  0
 27 51  1  0
M  END
>  <smiles>  (24) 
O=C(NCC(=O)N1CCCCC1c1cccc(F)c1)c1ccc2ccccc2n1

>  <score_type>  (24) 
oracle

>  <origin>  (24) 
autodockgpu

>  <m_score__min__energy>  (24) 
-8.9299999999999997

>  <m_primary>  (24) 
energy

>  <rmsd>  (24) 
7.690280784082853

>  <m_score__min__rmsd>  (24) 
7.690280784082853

>  <meeko>  (24) 
{"free_energy": -7.47, "intermolecular_energy": -8.97, "internal_energy": -2.53, "cluster_size": 20, "cluster_id": 4, "rank_in_cluster": 19}

>  <energy>  (24) 
-7.63

>  <cluster_rmsd>  (24) 
0.11

>  <cluster>  (24) 
4

$$$$

     RDKit          3D

 51 54  0  0  0  0  0  0  0  0999 V2000
  139.1240   75.2820  221.2680 O   0  0  0  0  0  0  0  0  0  0  0  0
  140.2000   75.7730  221.6960 C   0  0  0  0  0  0  0  0  0  0  0  0
  141.3910   74.9340  221.6260 N   0  0  0  0  0  0  0  0  0  0  0  0
  141.2060   73.6450  221.0810 C   0  0  0  0  0  0  0  0  0  0  0  0
  142.0310   73.1630  219.9880 C   0  0  0  0  0  0  0  0  0  0  0  0
  141.3350   72.7790  218.9460 O   0  0  0  0  0  0  0  0  0  0  0  0
  143.4120   73.0310  219.8410 N   0  0  0  0  0  0  0  0  0  0  0  0
  144.1720   71.7840  219.9350 C   0  0  0  0  0  0  0  0  0  0  0  0
  145.6550   72.1170  219.9840 C   0  0  0  0  0  0  0  0  0  0  0  0
  146.0080   73.2480  220.8860 C   0  0  0  0  0  0  0  0  0  0  0  0
  145.0320   74.4350  220.7860 C   0  0  0  0  0  0  0  0  0  0  0  0
  144.2630   74.2070  219.5490 C   0  0  2  0  0  0  0  0  0  0  0  0
  143.5770   75.3210  218.9290 C   0  0  0  0  0  0  0  0  0  0  0  0
  143.2850   75.3920  217.5830 C   0  0  0  0  0  0  0  0  0  0  0  0
  142.6290   76.4830  217.0570 C   0  0  0  0  0  0  0  0  0  0  0  0
  142.2410   77.5370  217.8460 C   0  0  0  0  0  0  0  0  0  0  0  0
  142.5180   77.4920  219.1840 C   0  0  0  0  0  0  0  0  0  0  0  0
  142.1320   78.5390  219.9580 F   0  0  0  0  0  0  0  0  0  0  0  0
  143.1830   76.3900  219.7230 C   0  0  0  0  0  0  0  0  0  0  0  0
  140.2890   77.1130  222.2410 C   0  0  0  0  0  0  0  0  0  0  0  0
  139.1360   77.7570  222.5760 C   0  0  0  0  0  0  0  0  0  0  0  0
  139.2220   79.0320  223.0950 C   0  0  0  0  0  0  0  0  0  0  0  0
  140.4230   79.6870  223.2900 C   0  0  0  0  0  0  0  0  0  0  0  0
  140.5020   80.9610  223.8090 C   0  0  0  0  0  0  0  0  0  0  0  0
  141.7310   81.5820  223.9890 C   0  0  0  0  0  0  0  0  0  0  0  0
  142.8620   80.8750  223.6280 C   0  0  0  0  0  0  0  0  0  0  0  0
  142.7960   79.5860  223.1040 C   0  0  0  0  0  0  0  0  0  0  0  0
  141.5680   78.9940  222.9340 C   0  0  0  0  0  0  0  0  0  0  0  0
  141.4510   77.7520  222.4320 N   0  0  0  0  0  0  0  0  0  0  0  0
  142.2340   75.3890  221.9990 H   0  0  0  0  0  0  0  0  0  0  0  0
  141.3408   72.9343  221.9097 H   0  0  0  0  0  0  0  0  0  0  0  0
  140.2131   73.7235  220.6140 H   0  0  0  0  0  0  0  0  0  0  0  0
  143.8840   71.2434  220.8487 H   0  0  0  0  0  0  0  0  0  0  0  0
  143.9598   71.1500  219.0615 H   0  0  0  0  0  0  0  0  0  0  0  0
  146.1960   71.2229  220.3273 H   0  0  0  0  0  0  0  0  0  0  0  0
  145.9376   72.4294  218.9679 H   0  0  0  0  0  0  0  0  0  0  0  0
  146.0062   72.8811  221.9230 H   0  0  0  0  0  0  0  0  0  0  0  0
  146.9983   73.6139  220.5772 H   0  0  0  0  0  0  0  0  0  0  0  0
  144.3613   74.4562  221.6576 H   0  0  0  0  0  0  0  0  0  0  0  0
  145.5613   75.3991  220.7666 H   0  0  0  0  0  0  0  0  0  0  0  0
  144.9742   74.0317  218.7284 H   0  0  0  0  0  0  0  0  0  0  0  0
  143.5802   74.5655  216.9199 H   0  0  0  0  0  0  0  0  0  0  0  0
  142.4109   76.5102  215.9792 H   0  0  0  0  0  0  0  0  0  0  0  0
  141.7175   78.4008  217.4103 H   0  0  0  0  0  0  0  0  0  0  0  0
  143.4000   76.3676  220.8012 H   0  0  0  0  0  0  0  0  0  0  0  0
  138.1591   77.2713  222.4358 H   0  0  0  0  0  0  0  0  0  0  0  0
  138.2912   79.5516  223.3663 H   0  0  0  0  0  0  0  0  0  0  0  0
  139.5795   81.4931  224.0844 H   0  0  0  0  0  0  0  0  0  0  0  0
  141.8015   82.5985  224.4034 H   0  0  0  0  0  0  0  0  0  0  0  0
  143.8475   81.3458  223.7588 H   0  0  0  0  0  0  0  0  0  0  0  0
  143.7158   79.0487  222.8297 H   0  0  0  0  0  0  0  0  0  0  0  0
  1  2  2  0
  2  3  1  0
  3  4  1  0
  4  5  1  0
  5  6  2  0
  5  7  1  0
  7  8  1  0
  8  9  1  0
  9 10  1  0
 10 11  1  0
 11 12  1  0
 12 13  1  0
 13 14  2  0
 14 15  1  0
 15 16  2  0
 16 17  1  0
 17 18  1  0
 17 19  2  0
  2 20  1  0
 20 21  2  0
 21 22  1  0
 22 23  2  0
 23 24  1  0
 24 25  2  0
 25 26  1  0
 26 27  2  0
 27 28  1  0
 28 29  2  0
 12  7  1  0
 19 13  1  0
 29 20  1  0
 28 23  1  0
  3 30  1  0
  4 31  1  0
  4 32  1  0
  8 33  1  0
  8 34  1  0
  9 35  1  0
  9 36  1  0
 10 37  1  0
 10 38  1  0
 11 39  1  0
 11 40  1  0
 12 41  1  6
 14 42  1  0
 15 43  1  0
 16 44  1  0
 19 45  1  0
 21 46  1  0
 22 47  1  0
 24 48  1  0
 25 49  1  0
 26 50  1  0
 27 51  1  0
M  END
>  <smiles>  (25) 
O=C(NCC(=O)N1CCCCC1c1cccc(F)c1)c1ccc2ccccc2n1

>  <score_type>  (25) 
oracle

>  <origin>  (25) 
autodockgpu

>  <m_score__min__energy>  (25) 
-8.9299999999999997

>  <m_primary>  (25) 
energy

>  <rmsd>  (25) 
7.75775711341329

>  <m_score__min__rmsd>  (25) 
7.75775711341329

>  <meeko>  (25) 
{"free_energy": -7.61, "intermolecular_energy": -9.1, "internal_energy": -2.38, "cluster_size": 20, "cluster_id": 4, "rank_in_cluster": 11}

>  <energy>  (25) 
-7.63

>  <cluster_rmsd>  (25) 
0.86

>  <cluster>  (25) 
4

$$$$

     RDKit          3D

 51 54  0  0  0  0  0  0  0  0999 V2000
  140.6010   77.0930  218.4700 O   0  0  0  0  0  0  0  0  0  0  0  0
  141.7230   77.0620  219.0370 C   0  0  0  0  0  0  0  0  0  0  0  0
  142.2340   78.3170  219.5760 N   0  0  0  0  0  0  0  0  0  0  0  0
  141.4040   79.4470  219.4000 C   0  0  0  0  0  0  0  0  0  0  0  0
  140.6490   80.0060  220.5070 C   0  0  0  0  0  0  0  0  0  0  0  0
  139.3950   80.2410  220.2080 O   0  0  0  0  0  0  0  0  0  0  0  0
  141.0050   80.3400  221.8130 N   0  0  0  0  0  0  0  0  0  0  0  0
  141.2820   81.6870  222.3130 C   0  0  0  0  0  0  0  0  0  0  0  0
  141.8890   81.5780  223.7030 C   0  0  0  0  0  0  0  0  0  0  0  0
  142.9330   80.5270  223.8440 C   0  0  0  0  0  0  0  0  0  0  0  0
  142.5680   79.2070  223.1410 C   0  0  0  0  0  0  0  0  0  0  0  0
  141.1240   79.2990  222.8590 C   0  0  2  0  0  0  0  0  0  0  0  0
  140.3760   78.0850  222.6040 C   0  0  0  0  0  0  0  0  0  0  0  0
  139.0020   77.9980  222.6830 C   0  0  0  0  0  0  0  0  0  0  0  0
  138.3520   76.8100  222.4280 C   0  0  0  0  0  0  0  0  0  0  0  0
  139.0400   75.6730  222.0870 C   0  0  0  0  0  0  0  0  0  0  0  0
  140.4030   75.7320  222.0020 C   0  0  0  0  0  0  0  0  0  0  0  0
  141.0780   74.6030  221.6650 F   0  0  0  0  0  0  0  0  0  0  0  0
  141.0680   76.9320  222.2600 C   0  0  0  0  0  0  0  0  0  0  0  0
  142.5030   75.8480  219.1680 C   0  0  0  0  0  0  0  0  0  0  0  0
  142.0910   74.7350  218.4960 C   0  0  0  0  0  0  0  0  0  0  0  0
  142.8350   73.5800  218.6210 C   0  0  0  0  0  0  0  0  0  0  0  0
  143.9770   73.4980  219.3960 C   0  0  0  0  0  0  0  0  0  0  0  0
  144.7150   72.3400  219.5160 C   0  0  0  0  0  0  0  0  0  0  0  0
  145.8560   72.3030  220.3050 C   0  0  0  0  0  0  0  0  0  0  0  0
  146.2180   73.4640  220.9590 C   0  0  0  0  0  0  0  0  0  0  0  0
  145.4820   74.6410  220.8460 C   0  0  0  0  0  0  0  0  0  0  0  0
  144.3560   74.6520  220.0600 C   0  0  0  0  0  0  0  0  0  0  0  0
  143.6100   75.7630  219.9170 N   0  0  0  0  0  0  0  0  0  0  0  0
  143.1580   78.2270  220.0170 H   0  0  0  0  0  0  0  0  0  0  0  0
  142.0512   80.2537  219.0253 H   0  0  0  0  0  0  0  0  0  0  0  0
  140.6123   79.0622  218.7403 H   0  0  0  0  0  0  0  0  0  0  0  0
  141.9890   82.1934  221.6394 H   0  0  0  0  0  0  0  0  0  0  0  0
  140.3495   82.2688  222.3567 H   0  0  0  0  0  0  0  0  0  0  0  0
  142.3424   82.5477  223.9561 H   0  0  0  0  0  0  0  0  0  0  0  0
  141.0690   81.2946  224.3792 H   0  0  0  0  0  0  0  0  0  0  0  0
  143.8703   80.9057  223.4104 H   0  0  0  0  0  0  0  0  0  0  0  0
  143.0313   80.3078  224.9174 H   0  0  0  0  0  0  0  0  0  0  0  0
  143.1366   79.0993  222.2055 H   0  0  0  0  0  0  0  0  0  0  0  0
  142.8080   78.3324  223.7635 H   0  0  0  0  0  0  0  0  0  0  0  0
  140.6070   79.5656  223.7926 H   0  0  0  0  0  0  0  0  0  0  0  0
  138.4168   78.8893  222.9533 H   0  0  0  0  0  0  0  0  0  0  0  0
  137.2550   76.7723  222.4996 H   0  0  0  0  0  0  0  0  0  0  0  0
  138.5055   74.7328  221.8861 H   0  0  0  0  0  0  0  0  0  0  0  0
  142.1652   76.9646  222.1891 H   0  0  0  0  0  0  0  0  0  0  0  0
  141.1872   74.7577  217.8694 H   0  0  0  0  0  0  0  0  0  0  0  0
  142.5041   72.6821  218.0786 H   0  0  0  0  0  0  0  0  0  0  0  0
  144.3956   71.4342  218.9798 H   0  0  0  0  0  0  0  0  0  0  0  0
  146.4501   71.3828  220.4057 H   0  0  0  0  0  0  0  0  0  0  0  0
  147.1184   73.4591  221.5908 H   0  0  0  0  0  0  0  0  0  0  0  0
  145.7984   75.5496  221.3792 H   0  0  0  0  0  0  0  0  0  0  0  0
  1  2  2  0
  2  3  1  0
  3  4  1  0
  4  5  1  0
  5  6  2  0
  5  7  1  0
  7  8  1  0
  8  9  1  0
  9 10  1  0
 10 11  1  0
 11 12  1  0
 12 13  1  0
 13 14  2  0
 14 15  1  0
 15 16  2  0
 16 17  1  0
 17 18  1  0
 17 19  2  0
  2 20  1  0
 20 21  2  0
 21 22  1  0
 22 23  2  0
 23 24  1  0
 24 25  2  0
 25 26  1  0
 26 27  2  0
 27 28  1  0
 28 29  2  0
 12  7  1  0
 19 13  1  0
 29 20  1  0
 28 23  1  0
  3 30  1  0
  4 31  1  0
  4 32  1  0
  8 33  1  0
  8 34  1  0
  9 35  1  0
  9 36  1  0
 10 37  1  0
 10 38  1  0
 11 39  1  0
 11 40  1  0
 12 41  1  1
 14 42  1  0
 15 43  1  0
 16 44  1  0
 19 45  1  0
 21 46  1  0
 22 47  1  0
 24 48  1  0
 25 49  1  0
 26 50  1  0
 27 51  1  0
M  END
>  <smiles>  (26) 
O=C(NCC(=O)N1CCCCC1c1cccc(F)c1)c1ccc2ccccc2n1

>  <score_type>  (26) 
oracle

>  <origin>  (26) 
autodockgpu

>  <m_score__min__energy>  (26) 
-8.9299999999999997

>  <m_primary>  (26) 
energy

>  <rmsd>  (26) 
7.635906176984896

>  <m_score__min__rmsd>  (26) 
7.635906176984896

>  <meeko>  (26) 
{"free_energy": -7.35, "intermolecular_energy": -8.85, "internal_energy": -2.62, "cluster_size": 13, "cluster_id": 5, "rank_in_cluster": 3}

>  <energy>  (26) 
-7.62

>  <cluster_rmsd>  (26) 
0.13

>  <cluster>  (26) 
4

$$$$

     RDKit          3D

 51 54  0  0  0  0  0  0  0  0999 V2000
  139.4770   73.3980  222.3460 O   0  0  0  0  0  0  0  0  0  0  0  0
  140.3410   72.5160  222.5880 C   0  0  0  0  0  0  0  0  0  0  0  0
  141.4880   72.4420  221.6900 N   0  0  0  0  0  0  0  0  0  0  0  0
  141.5050   73.3780  220.6330 C   0  0  0  0  0  0  0  0  0  0  0  0
  141.6800   74.7970  220.8840 C   0  0  0  0  0  0  0  0  0  0  0  0
  141.2190   75.1750  222.0510 O   0  0  0  0  0  0  0  0  0  0  0  0
  142.2390   75.8230  220.1230 N   0  0  0  0  0  0  0  0  0  0  0  0
  141.7810   77.2120  220.0830 C   0  0  0  0  0  0  0  0  0  0  0  0
  142.4820   77.9260  218.9380 C   0  0  0  0  0  0  0  0  0  0  0  0
  142.5480   77.1500  217.6690 C   0  0  0  0  0  0  0  0  0  0  0  0
  142.8970   75.6660  217.8800 C   0  0  0  0  0  0  0  0  0  0  0  0
  143.4140   75.5770  219.2580 C   0  0  2  0  0  0  0  0  0  0  0  0
  144.2250   74.4370  219.6350 C   0  0  0  0  0  0  0  0  0  0  0  0
  144.2460   73.2450  218.9410 C   0  0  0  0  0  0  0  0  0  0  0  0
  145.0410   72.1990  219.3550 C   0  0  0  0  0  0  0  0  0  0  0  0
  145.8380   72.2990  220.4670 C   0  0  0  0  0  0  0  0  0  0  0  0
  145.8360   73.4690  221.1730 C   0  0  0  0  0  0  0  0  0  0  0  0
  146.6280   73.5610  222.2740 F   0  0  0  0  0  0  0  0  0  0  0  0
  145.0320   74.5330  220.7600 C   0  0  0  0  0  0  0  0  0  0  0  0
  140.2350   71.5980  223.7040 C   0  0  0  0  0  0  0  0  0  0  0  0
  139.6760   70.3730  223.4860 C   0  0  0  0  0  0  0  0  0  0  0  0
  139.5760   69.4990  224.5490 C   0  0  0  0  0  0  0  0  0  0  0  0
  140.0140   69.8070  225.8230 C   0  0  0  0  0  0  0  0  0  0  0  0
  139.9100   68.9290  226.8800 C   0  0  0  0  0  0  0  0  0  0  0  0
  140.3640   69.2800  228.1440 C   0  0  0  0  0  0  0  0  0  0  0  0
  140.9190   70.5360  228.2970 C   0  0  0  0  0  0  0  0  0  0  0  0
  141.0300   71.4330  227.2380 C   0  0  0  0  0  0  0  0  0  0  0  0
  140.5730   71.0620  225.9960 C   0  0  0  0  0  0  0  0  0  0  0  0
  140.6570   71.8910  224.9400 N   0  0  0  0  0  0  0  0  0  0  0  0
  142.1520   71.6970  221.9360 H   0  0  0  0  0  0  0  0  0  0  0  0
  142.3247   73.0770  219.9640 H   0  0  0  0  0  0  0  0  0  0  0  0
  140.4734   73.3285  220.2543 H   0  0  0  0  0  0  0  0  0  0  0  0
  140.6929   77.2381  219.9241 H   0  0  0  0  0  0  0  0  0  0  0  0
  142.0164   77.7108  221.0347 H   0  0  0  0  0  0  0  0  0  0  0  0
  141.9437   78.8643  218.7384 H   0  0  0  0  0  0  0  0  0  0  0  0
  143.5218   78.0841  219.2602 H   0  0  0  0  0  0  0  0  0  0  0  0
  141.5690   77.2110  217.1712 H   0  0  0  0  0  0  0  0  0  0  0  0
  143.3512   77.5900  217.0596 H   0  0  0  0  0  0  0  0  0  0  0  0
  142.0002   75.0396  217.7643 H   0  0  0  0  0  0  0  0  0  0  0  0
  143.6325   75.3102  217.1435 H   0  0  0  0  0  0  0  0  0  0  0  0
  144.2037   76.3331  219.3792 H   0  0  0  0  0  0  0  0  0  0  0  0
  143.6192   73.1282  218.0446 H   0  0  0  0  0  0  0  0  0  0  0  0
  145.0366   71.2611  218.7802 H   0  0  0  0  0  0  0  0  0  0  0  0
  146.4665   71.4538  220.7842 H   0  0  0  0  0  0  0  0  0  0  0  0
  145.0383   75.4682  221.3391 H   0  0  0  0  0  0  0  0  0  0  0  0
  139.3137   70.0888  222.4870 H   0  0  0  0  0  0  0  0  0  0  0  0
  139.1264   68.5104  224.3741 H   0  0  0  0  0  0  0  0  0  0  0  0
  139.4615   67.9374  226.7201 H   0  0  0  0  0  0  0  0  0  0  0  0
  140.2848   68.5841  228.9922 H   0  0  0  0  0  0  0  0  0  0  0  0
  141.2857   70.8375  229.2893 H   0  0  0  0  0  0  0  0  0  0  0  0
  141.4776   72.4257  227.3933 H   0  0  0  0  0  0  0  0  0  0  0  0
  1  2  2  0
  2  3  1  0
  3  4  1  0
  4  5  1  0
  5  6  2  0
  5  7  1  0
  7  8  1  0
  8  9  1  0
  9 10  1  0
 10 11  1  0
 11 12  1  0
 12 13  1  0
 13 14  2  0
 14 15  1  0
 15 16  2  0
 16 17  1  0
 17 18  1  0
 17 19  2  0
  2 20  1  0
 20 21  2  0
 21 22  1  0
 22 23  2  0
 23 24  1  0
 24 25  2  0
 25 26  1  0
 26 27  2  0
 27 28  1  0
 28 29  2  0
 12  7  1  0
 19 13  1  0
 29 20  1  0
 28 23  1  0
  3 30  1  0
  4 31  1  0
  4 32  1  0
  8 33  1  0
  8 34  1  0
  9 35  1  0
  9 36  1  0
 10 37  1  0
 10 38  1  0
 11 39  1  0
 11 40  1  0
 12 41  1  6
 14 42  1  0
 15 43  1  0
 16 44  1  0
 19 45  1  0
 21 46  1  0
 22 47  1  0
 24 48  1  0
 25 49  1  0
 26 50  1  0
 27 51  1  0
M  END
>  <smiles>  (27) 
O=C(NCC(=O)N1CCCCC1c1cccc(F)c1)c1ccc2ccccc2n1

>  <score_type>  (27) 
oracle

>  <origin>  (27) 
autodockgpu

>  <m_score__min__energy>  (27) 
-8.9299999999999997

>  <m_primary>  (27) 
energy

>  <rmsd>  (27) 
2.619751713861562

>  <m_score__min__rmsd>  (27) 
2.619751713861562

>  <meeko>  (27) 
{"free_energy": -8.93, "intermolecular_energy": -10.43, "internal_energy": -1.18, "cluster_size": 13, "cluster_id": 1, "rank_in_cluster": 1}

>  <energy>  (27) 
-7.62

>  <cluster_rmsd>  (27) 
0.33

>  <cluster>  (27) 
4

$$$$

     RDKit          3D

 51 54  0  0  0  0  0  0  0  0999 V2000
  139.2720   74.8290  222.0740 O   0  0  0  0  0  0  0  0  0  0  0  0
  140.3000   75.5470  221.9670 C   0  0  0  0  0  0  0  0  0  0  0  0
  141.4840   74.9330  221.3770 N   0  0  0  0  0  0  0  0  0  0  0  0
  141.3490   73.5840  220.9840 C   0  0  0  0  0  0  0  0  0  0  0  0
  142.1840   73.0150  219.9420 C   0  0  0  0  0  0  0  0  0  0  0  0
  141.4950   72.4820  218.9620 O   0  0  0  0  0  0  0  0  0  0  0  0
  143.5670   72.9270  219.7910 N   0  0  0  0  0  0  0  0  0  0  0  0
  144.3610   71.6980  219.8230 C   0  0  0  0  0  0  0  0  0  0  0  0
  145.8340   72.0680  219.8910 C   0  0  0  0  0  0  0  0  0  0  0  0
  146.1570   73.1610  220.8480 C   0  0  0  0  0  0  0  0  0  0  0  0
  145.1490   74.3250  220.8060 C   0  0  0  0  0  0  0  0  0  0  0  0
  144.3870   74.1380  219.5590 C   0  0  2  0  0  0  0  0  0  0  0  0
  143.6700   75.2640  218.9940 C   0  0  0  0  0  0  0  0  0  0  0  0
  143.4480   76.4480  219.6650 C   0  0  0  0  0  0  0  0  0  0  0  0
  142.7570   77.4800  219.0680 C   0  0  0  0  0  0  0  0  0  0  0  0
  142.2660   77.3730  217.7920 C   0  0  0  0  0  0  0  0  0  0  0  0
  142.4730   76.2090  217.1050 C   0  0  0  0  0  0  0  0  0  0  0  0
  141.9840   76.1100  215.8410 F   0  0  0  0  0  0  0  0  0  0  0  0
  143.1710   75.1590  217.7030 C   0  0  0  0  0  0  0  0  0  0  0  0
  140.3410   76.9280  222.4020 C   0  0  0  0  0  0  0  0  0  0  0  0
  139.1630   77.5610  222.6700 C   0  0  0  0  0  0  0  0  0  0  0  0
  139.2030   78.8760  223.0840 C   0  0  0  0  0  0  0  0  0  0  0  0
  140.3810   79.5820  223.2400 C   0  0  0  0  0  0  0  0  0  0  0  0
  140.4140   80.8960  223.6540 C   0  0  0  0  0  0  0  0  0  0  0  0
  141.6200   81.5670  223.7980 C   0  0  0  0  0  0  0  0  0  0  0  0
  142.7770   80.8690  223.5100 C   0  0  0  0  0  0  0  0  0  0  0  0
  142.7580   79.5410  223.0910 C   0  0  0  0  0  0  0  0  0  0  0  0
  141.5520   78.8990  222.9560 C   0  0  0  0  0  0  0  0  0  0  0  0
  141.4790   77.6170  222.5550 N   0  0  0  0  0  0  0  0  0  0  0  0
  142.2910   75.5680  221.3270 H   0  0  0  0  0  0  0  0  0  0  0  0
  141.5208   72.9783  221.8860 H   0  0  0  0  0  0  0  0  0  0  0  0
  140.3498   73.5683  220.5243 H   0  0  0  0  0  0  0  0  0  0  0  0
  144.0877   71.1042  220.7077 H   0  0  0  0  0  0  0  0  0  0  0  0
  144.1663   71.1036  218.9181 H   0  0  0  0  0  0  0  0  0  0  0  0
  146.3987   71.1727  220.1901 H   0  0  0  0  0  0  0  0  0  0  0  0
  146.1077   72.4386  218.8921 H   0  0  0  0  0  0  0  0  0  0  0  0
  146.1655   72.7430  221.8655 H   0  0  0  0  0  0  0  0  0  0  0  0
  147.1372   73.5681  220.5590 H   0  0  0  0  0  0  0  0  0  0  0  0
  144.4780   74.2846  221.6767 H   0  0  0  0  0  0  0  0  0  0  0  0
  145.6519   75.3029  220.8353 H   0  0  0  0  0  0  0  0  0  0  0  0
  145.1032   74.0222  218.7321 H   0  0  0  0  0  0  0  0  0  0  0  0
  143.8274   76.5703  220.6902 H   0  0  0  0  0  0  0  0  0  0  0  0
  142.5953   78.4125  219.6287 H   0  0  0  0  0  0  0  0  0  0  0  0
  141.7167   78.2068  217.3305 H   0  0  0  0  0  0  0  0  0  0  0  0
  143.3292   74.2279  217.1391 H   0  0  0  0  0  0  0  0  0  0  0  0
  138.2034   77.0350  222.5586 H   0  0  0  0  0  0  0  0  0  0  0  0
  138.2531   79.3868  223.3001 H   0  0  0  0  0  0  0  0  0  0  0  0
  139.4719   81.4198  223.8732 H   0  0  0  0  0  0  0  0  0  0  0  0
  141.6536   82.6155  224.1291 H   0  0  0  0  0  0  0  0  0  0  0  0
  143.7457   81.3794  223.6152 H   0  0  0  0  0  0  0  0  0  0  0  0
  143.6976   79.0130  222.8710 H   0  0  0  0  0  0  0  0  0  0  0  0
  1  2  2  0
  2  3  1  0
  3  4  1  0
  4  5  1  0
  5  6  2  0
  5  7  1  0
  7  8  1  0
  8  9  1  0
  9 10  1  0
 10 11  1  0
 11 12  1  0
 12 13  1  0
 13 14  2  0
 14 15  1  0
 15 16  2  0
 16 17  1  0
 17 18  1  0
 17 19  2  0
  2 20  1  0
 20 21  2  0
 21 22  1  0
 22 23  2  0
 23 24  1  0
 24 25  2  0
 25 26  1  0
 26 27  2  0
 27 28  1  0
 28 29  2  0
 12  7  1  0
 19 13  1  0
 29 20  1  0
 28 23  1  0
  3 30  1  0
  4 31  1  0
  4 32  1  0
  8 33  1  0
  8 34  1  0
  9 35  1  0
  9 36  1  0
 10 37  1  0
 10 38  1  0
 11 39  1  0
 11 40  1  0
 12 41  1  6
 14 42  1  0
 15 43  1  0
 16 44  1  0
 19 45  1  0
 21 46  1  0
 22 47  1  0
 24 48  1  0
 25 49  1  0
 26 50  1  0
 27 51  1  0
M  END
>  <smiles>  (28) 
O=C(NCC(=O)N1CCCCC1c1cccc(F)c1)c1ccc2ccccc2n1

>  <score_type>  (28) 
oracle

>  <origin>  (28) 
autodockgpu

>  <m_score__min__energy>  (28) 
-8.9299999999999997

>  <m_primary>  (28) 
energy

>  <rmsd>  (28) 
7.765372462865637

>  <m_score__min__rmsd>  (28) 
7.765372462865637

>  <meeko>  (28) 
{"free_energy": -7.7, "intermolecular_energy": -9.19, "internal_energy": -2.15, "cluster_size": 20, "cluster_id": 4, "rank_in_cluster": 2}

>  <energy>  (28) 
-7.61

>  <cluster_rmsd>  (28) 
0.25

>  <cluster>  (28) 
4

$$$$

     RDKit          3D

 51 54  0  0  0  0  0  0  0  0999 V2000
  140.4360   71.4180  221.2010 O   0  0  0  0  0  0  0  0  0  0  0  0
  140.0200   71.9710  222.2520 C   0  0  0  0  0  0  0  0  0  0  0  0
  139.5080   73.3310  222.1330 N   0  0  0  0  0  0  0  0  0  0  0  0
  139.5360   73.8890  220.8360 C   0  0  0  0  0  0  0  0  0  0  0  0
  139.6610   75.3210  220.6340 C   0  0  0  0  0  0  0  0  0  0  0  0
  138.9120   75.7720  219.6570 O   0  0  0  0  0  0  0  0  0  0  0  0
  140.4220   76.2970  221.2760 N   0  0  0  0  0  0  0  0  0  0  0  0
  139.9940   77.1120  222.4130 C   0  0  0  0  0  0  0  0  0  0  0  0
  141.0100   78.2230  222.6290 C   0  0  0  0  0  0  0  0  0  0  0  0
  141.4620   78.9020  221.3830 C   0  0  0  0  0  0  0  0  0  0  0  0
  141.7340   77.9270  220.2230 C   0  0  0  0  0  0  0  0  0  0  0  0
  141.8070   76.5920  220.8410 C   0  0  2  0  0  0  0  0  0  0  0  0
  142.4660   75.5180  220.1270 C   0  0  0  0  0  0  0  0  0  0  0  0
  142.7320   75.5440  218.7750 C   0  0  0  0  0  0  0  0  0  0  0  0
  143.3640   74.4870  218.1570 C   0  0  0  0  0  0  0  0  0  0  0  0
  143.7510   73.3720  218.8570 C   0  0  0  0  0  0  0  0  0  0  0  0
  143.4990   73.3210  220.2000 C   0  0  0  0  0  0  0  0  0  0  0  0
  143.8850   72.2140  220.8870 F   0  0  0  0  0  0  0  0  0  0  0  0
  142.8590   74.3880  220.8320 C   0  0  0  0  0  0  0  0  0  0  0  0
  140.0330   71.3130  223.5430 C   0  0  0  0  0  0  0  0  0  0  0  0
  139.5260   70.0510  223.6340 C   0  0  0  0  0  0  0  0  0  0  0  0
  139.5390   69.4250  224.8640 C   0  0  0  0  0  0  0  0  0  0  0  0
  140.0430   70.0180  226.0070 C   0  0  0  0  0  0  0  0  0  0  0  0
  140.0530   69.3870  227.2320 C   0  0  0  0  0  0  0  0  0  0  0  0
  140.5700   70.0200  228.3540 C   0  0  0  0  0  0  0  0  0  0  0  0
  141.0680   71.2980  228.1930 C   0  0  0  0  0  0  0  0  0  0  0  0
  141.0650   71.9470  226.9610 C   0  0  0  0  0  0  0  0  0  0  0  0
  140.5470   71.3000  225.8650 C   0  0  0  0  0  0  0  0  0  0  0  0
  140.5200   71.8820  224.6530 N   0  0  0  0  0  0  0  0  0  0  0  0
  139.1930   73.7290  223.0270 H   0  0  0  0  0  0  0  0  0  0  0  0
  140.3875   73.4257  220.3161 H   0  0  0  0  0  0  0  0  0  0  0  0
  138.5208   73.6834  220.4656 H   0  0  0  0  0  0  0  0  0  0  0  0
  139.0067   77.5494  222.2036 H   0  0  0  0  0  0  0  0  0  0  0  0
  139.9251   76.4875  223.3159 H   0  0  0  0  0  0  0  0  0  0  0  0
  140.5565   78.9793  223.2865 H   0  0  0  0  0  0  0  0  0  0  0  0
  141.9013   77.7491  223.0661 H   0  0  0  0  0  0  0  0  0  0  0  0
  140.6813   79.6101  221.0682 H   0  0  0  0  0  0  0  0  0  0  0  0
  142.4114   79.4076  221.6133 H   0  0  0  0  0  0  0  0  0  0  0  0
  140.9166   77.9663  219.4879 H   0  0  0  0  0  0  0  0  0  0  0  0
  142.6601   78.1796  219.6858 H   0  0  0  0  0  0  0  0  0  0  0  0
  142.5215   76.6383  221.6761 H   0  0  0  0  0  0  0  0  0  0  0  0
  142.4356   76.4210  218.1808 H   0  0  0  0  0  0  0  0  0  0  0  0
  143.5631   74.5382  217.0764 H   0  0  0  0  0  0  0  0  0  0  0  0
  144.2537   72.5363  218.3482 H   0  0  0  0  0  0  0  0  0  0  0  0
  142.6614   74.3327  221.9127 H   0  0  0  0  0  0  0  0  0  0  0  0
  139.1162   69.5436  222.7482 H   0  0  0  0  0  0  0  0  0  0  0  0
  139.1293   68.4069  224.9385 H   0  0  0  0  0  0  0  0  0  0  0  0
  139.6462   68.3690  227.3219 H   0  0  0  0  0  0  0  0  0  0  0  0
  140.5826   69.5222  229.3348 H   0  0  0  0  0  0  0  0  0  0  0  0
  141.4812   71.8212  229.0679 H   0  0  0  0  0  0  0  0  0  0  0  0
  141.4721   72.9645  226.8664 H   0  0  0  0  0  0  0  0  0  0  0  0
  1  2  2  0
  2  3  1  0
  3  4  1  0
  4  5  1  0
  5  6  2  0
  5  7  1  0
  7  8  1  0
  8  9  1  0
  9 10  1  0
 10 11  1  0
 11 12  1  0
 12 13  1  0
 13 14  2  0
 14 15  1  0
 15 16  2  0
 16 17  1  0
 17 18  1  0
 17 19  2  0
  2 20  1  0
 20 21  2  0
 21 22  1  0
 22 23  2  0
 23 24  1  0
 24 25  2  0
 25 26  1  0
 26 27  2  0
 27 28  1  0
 28 29  2  0
 12  7  1  0
 19 13  1  0
 29 20  1  0
 28 23  1  0
  3 30  1  0
  4 31  1  0
  4 32  1  0
  8 33  1  0
  8 34  1  0
  9 35  1  0
  9 36  1  0
 10 37  1  0
 10 38  1  0
 11 39  1  0
 11 40  1  0
 12 41  1  1
 14 42  1  0
 15 43  1  0
 16 44  1  0
 19 45  1  0
 21 46  1  0
 22 47  1  0
 24 48  1  0
 25 49  1  0
 26 50  1  0
 27 51  1  0
M  END
>  <smiles>  (29) 
O=C(NCC(=O)N1CCCCC1c1cccc(F)c1)c1ccc2ccccc2n1

>  <score_type>  (29) 
oracle

>  <origin>  (29) 
autodockgpu

>  <m_score__min__energy>  (29) 
-8.9299999999999997

>  <m_primary>  (29) 
energy

>  <rmsd>  (29) 
2.647272432327268

>  <m_score__min__rmsd>  (29) 
2.647272432327268

>  <meeko>  (29) 
{"free_energy": -7.91, "intermolecular_energy": -9.4, "internal_energy": -1.71, "cluster_size": 13, "cluster_id": 1, "rank_in_cluster": 13}

>  <energy>  (29) 
-7.61

>  <cluster_rmsd>  (29) 
0.16

>  <cluster>  (29) 
4

$$$$

     RDKit          3D

 51 54  0  0  0  0  0  0  0  0999 V2000
  139.1250   75.1650  221.4120 O   0  0  0  0  0  0  0  0  0  0  0  0
  140.2100   75.6930  221.7680 C   0  0  0  0  0  0  0  0  0  0  0  0
  141.4180   74.8850  221.6420 N   0  0  0  0  0  0  0  0  0  0  0  0
  141.2370   73.5820  221.1300 C   0  0  0  0  0  0  0  0  0  0  0  0
  141.9740   73.1200  219.9660 C   0  0  0  0  0  0  0  0  0  0  0  0
  141.2010   72.8280  218.9490 O   0  0  0  0  0  0  0  0  0  0  0  0
  143.3350   72.9290  219.7320 N   0  0  0  0  0  0  0  0  0  0  0  0
  144.0410   71.6480  219.7610 C   0  0  0  0  0  0  0  0  0  0  0  0
  145.5380   71.9130  219.7220 C   0  0  0  0  0  0  0  0  0  0  0  0
  145.9980   73.0120  220.6160 C   0  0  0  0  0  0  0  0  0  0  0  0
  145.0730   74.2430  220.5930 C   0  0  0  0  0  0  0  0  0  0  0  0
  144.2190   74.0700  219.4040 C   0  0  2  0  0  0  0  0  0  0  0  0
  143.5480   75.2240  218.8440 C   0  0  0  0  0  0  0  0  0  0  0  0
  143.2370   75.3590  217.5070 C   0  0  0  0  0  0  0  0  0  0  0  0
  142.5960   76.4850  217.0390 C   0  0  0  0  0  0  0  0  0  0  0  0
  142.2440   77.5120  217.8770 C   0  0  0  0  0  0  0  0  0  0  0  0
  142.5410   77.4040  219.2080 C   0  0  0  0  0  0  0  0  0  0  0  0
  142.1890   78.4250  220.0320 F   0  0  0  0  0  0  0  0  0  0  0  0
  143.1900   76.2660  219.6890 C   0  0  0  0  0  0  0  0  0  0  0  0
  140.2940   77.0440  222.2840 C   0  0  0  0  0  0  0  0  0  0  0  0
  139.1370   77.6930  222.5970 C   0  0  0  0  0  0  0  0  0  0  0  0
  139.2180   78.9800  223.0890 C   0  0  0  0  0  0  0  0  0  0  0  0
  140.4170   79.6410  223.2790 C   0  0  0  0  0  0  0  0  0  0  0  0
  140.4900   80.9260  223.7710 C   0  0  0  0  0  0  0  0  0  0  0  0
  141.7170   81.5520  223.9470 C   0  0  0  0  0  0  0  0  0  0  0  0
  142.8510   80.8390  223.6100 C   0  0  0  0  0  0  0  0  0  0  0  0
  142.7910   79.5400  223.1120 C   0  0  0  0  0  0  0  0  0  0  0  0
  141.5650   78.9420  222.9470 C   0  0  0  0  0  0  0  0  0  0  0  0
  141.4530   77.6890  222.4700 N   0  0  0  0  0  0  0  0  0  0  0  0
  142.2680   75.3690  221.9580 H   0  0  0  0  0  0  0  0  0  0  0  0
  141.4813   72.8890  221.9486 H   0  0  0  0  0  0  0  0  0  0  0  0
  140.2013   73.6121  220.7607 H   0  0  0  0  0  0  0  0  0  0  0  0
  143.7854   71.1057  220.6833 H   0  0  0  0  0  0  0  0  0  0  0  0
  143.7463   71.0389  218.8937 H   0  0  0  0  0  0  0  0  0  0  0  0
  146.0574   70.9898  220.0184 H   0  0  0  0  0  0  0  0  0  0  0  0
  145.7713   72.2294  218.6946 H   0  0  0  0  0  0  0  0  0  0  0  0
  146.0433   72.6285  221.6460 H   0  0  0  0  0  0  0  0  0  0  0  0
  146.9834   73.3379  220.2515 H   0  0  0  0  0  0  0  0  0  0  0  0
  144.4594   74.2802  221.5052 H   0  0  0  0  0  0  0  0  0  0  0  0
  145.6438   75.1824  220.5530 H   0  0  0  0  0  0  0  0  0  0  0  0
  144.8690   73.8760  218.5381 H   0  0  0  0  0  0  0  0  0  0  0  0
  143.5046   74.5561  216.8044 H   0  0  0  0  0  0  0  0  0  0  0  0
  142.3608   76.5622  215.9672 H   0  0  0  0  0  0  0  0  0  0  0  0
  141.7332   78.4046  217.4867 H   0  0  0  0  0  0  0  0  0  0  0  0
  143.4231   76.1929  220.7615 H   0  0  0  0  0  0  0  0  0  0  0  0
  138.1618   77.2027  222.4607 H   0  0  0  0  0  0  0  0  0  0  0  0
  138.2846   79.5043  223.3418 H   0  0  0  0  0  0  0  0  0  0  0  0
  139.5647   81.4627  224.0276 H   0  0  0  0  0  0  0  0  0  0  0  0
  141.7834   82.5772  224.3401 H   0  0  0  0  0  0  0  0  0  0  0  0
  143.8349   81.3135  223.7394 H   0  0  0  0  0  0  0  0  0  0  0  0
  143.7136   78.9994  222.8539 H   0  0  0  0  0  0  0  0  0  0  0  0
  1  2  2  0
  2  3  1  0
  3  4  1  0
  4  5  1  0
  5  6  2  0
  5  7  1  0
  7  8  1  0
  8  9  1  0
  9 10  1  0
 10 11  1  0
 11 12  1  0
 12 13  1  0
 13 14  2  0
 14 15  1  0
 15 16  2  0
 16 17  1  0
 17 18  1  0
 17 19  2  0
  2 20  1  0
 20 21  2  0
 21 22  1  0
 22 23  2  0
 23 24  1  0
 24 25  2  0
 25 26  1  0
 26 27  2  0
 27 28  1  0
 28 29  2  0
 12  7  1  0
 19 13  1  0
 29 20  1  0
 28 23  1  0
  3 30  1  0
  4 31  1  0
  4 32  1  0
  8 33  1  0
  8 34  1  0
  9 35  1  0
  9 36  1  0
 10 37  1  0
 10 38  1  0
 11 39  1  0
 11 40  1  0
 12 41  1  6
 14 42  1  0
 15 43  1  0
 16 44  1  0
 19 45  1  0
 21 46  1  0
 22 47  1  0
 24 48  1  0
 25 49  1  0
 26 50  1  0
 27 51  1  0
M  END
>  <smiles>  (30) 
O=C(NCC(=O)N1CCCCC1c1cccc(F)c1)c1ccc2ccccc2n1

>  <score_type>  (30) 
oracle

>  <origin>  (30) 
autodockgpu

>  <m_score__min__energy>  (30) 
-8.9299999999999997

>  <m_primary>  (30) 
energy

>  <rmsd>  (30) 
7.7284322979714695

>  <m_score__min__rmsd>  (30) 
7.7284322979714695

>  <meeko>  (30) 
{"free_energy": -7.65, "intermolecular_energy": -9.14, "internal_energy": -2.35, "cluster_size": 20, "cluster_id": 4, "rank_in_cluster": 5}

>  <energy>  (30) 
-7.57

>  <cluster_rmsd>  (30) 
0.21

>  <cluster>  (30) 
4

$$$$

     RDKit          3D

 51 54  0  0  0  0  0  0  0  0999 V2000
  139.5750   73.3970  222.3350 O   0  0  0  0  0  0  0  0  0  0  0  0
  140.4280   72.5080  222.5890 C   0  0  0  0  0  0  0  0  0  0  0  0
  141.5780   72.4110  221.6970 N   0  0  0  0  0  0  0  0  0  0  0  0
  141.6110   73.3370  220.6320 C   0  0  0  0  0  0  0  0  0  0  0  0
  141.7840   74.7580  220.8730 C   0  0  0  0  0  0  0  0  0  0  0  0
  141.3640   75.1360  222.0550 O   0  0  0  0  0  0  0  0  0  0  0  0
  142.3050   75.7870  220.0880 N   0  0  0  0  0  0  0  0  0  0  0  0
  141.7860   77.1520  220.0030 C   0  0  0  0  0  0  0  0  0  0  0  0
  142.4690   77.8640  218.8450 C   0  0  0  0  0  0  0  0  0  0  0  0
  142.5850   77.0560  217.6000 C   0  0  0  0  0  0  0  0  0  0  0  0
  142.9980   75.5950  217.8590 C   0  0  0  0  0  0  0  0  0  0  0  0
  143.5020   75.5690  219.2430 C   0  0  2  0  0  0  0  0  0  0  0  0
  144.3580   74.4790  219.6630 C   0  0  0  0  0  0  0  0  0  0  0  0
  145.0780   74.4760  220.8390 C   0  0  0  0  0  0  0  0  0  0  0  0
  145.8750   73.4040  221.1780 C   0  0  0  0  0  0  0  0  0  0  0  0
  145.9840   72.3040  220.3650 C   0  0  0  0  0  0  0  0  0  0  0  0
  145.2800   72.2820  219.1940 C   0  0  0  0  0  0  0  0  0  0  0  0
  145.3930   71.1890  218.3940 F   0  0  0  0  0  0  0  0  0  0  0  0
  144.4710   73.3640  218.8440 C   0  0  0  0  0  0  0  0  0  0  0  0
  140.3050   71.6000  223.7120 C   0  0  0  0  0  0  0  0  0  0  0  0
  139.6960   70.3970  223.5120 C   0  0  0  0  0  0  0  0  0  0  0  0
  139.5800   69.5340  224.5820 C   0  0  0  0  0  0  0  0  0  0  0  0
  140.0510   69.8320  225.8470 C   0  0  0  0  0  0  0  0  0  0  0  0
  139.9320   68.9650  226.9110 C   0  0  0  0  0  0  0  0  0  0  0  0
  140.4210   69.3060  228.1650 C   0  0  0  0  0  0  0  0  0  0  0  0
  141.0260   70.5400  228.3000 C   0  0  0  0  0  0  0  0  0  0  0  0
  141.1530   71.4260  227.2330 C   0  0  0  0  0  0  0  0  0  0  0  0
  140.6610   71.0660  226.0020 C   0  0  0  0  0  0  0  0  0  0  0  0
  140.7600   71.8840  224.9400 N   0  0  0  0  0  0  0  0  0  0  0  0
  142.2320   71.6600  221.9530 H   0  0  0  0  0  0  0  0  0  0  0  0
  142.4397   73.0292  219.9775 H   0  0  0  0  0  0  0  0  0  0  0  0
  140.5850   73.2850  220.2388 H   0  0  0  0  0  0  0  0  0  0  0  0
  140.6998   77.1247  219.8315 H   0  0  0  0  0  0  0  0  0  0  0  0
  141.9869   77.6878  220.9424 H   0  0  0  0  0  0  0  0  0  0  0  0
  141.8921   78.7712  218.6123 H   0  0  0  0  0  0  0  0  0  0  0  0
  143.4967   78.0775  219.1740 H   0  0  0  0  0  0  0  0  0  0  0  0
  141.6104   77.0583  217.0901 H   0  0  0  0  0  0  0  0  0  0  0  0
  143.3746   77.5142  216.9863 H   0  0  0  0  0  0  0  0  0  0  0  0
  142.1315   74.9257  217.7526 H   0  0  0  0  0  0  0  0  0  0  0  0
  143.7575   75.2518  217.1411 H   0  0  0  0  0  0  0  0  0  0  0  0
  144.2565   76.3623  219.3497 H   0  0  0  0  0  0  0  0  0  0  0  0
  145.0154   75.3409  221.5157 H   0  0  0  0  0  0  0  0  0  0  0  0
  146.4373   73.4308  222.1230 H   0  0  0  0  0  0  0  0  0  0  0  0
  146.6252   71.4569  220.6502 H   0  0  0  0  0  0  0  0  0  0  0  0
  143.9104   73.3325  217.8981 H   0  0  0  0  0  0  0  0  0  0  0  0
  139.3063   70.1209  222.5211 H   0  0  0  0  0  0  0  0  0  0  0  0
  139.0895   68.5627  224.4209 H   0  0  0  0  0  0  0  0  0  0  0  0
  139.4434   67.9903  226.7653 H   0  0  0  0  0  0  0  0  0  0  0  0
  140.3299   68.6188  229.0191 H   0  0  0  0  0  0  0  0  0  0  0  0
  141.4211   70.8332  229.2839 H   0  0  0  0  0  0  0  0  0  0  0  0
  141.6411   72.4016  227.3742 H   0  0  0  0  0  0  0  0  0  0  0  0
  1  2  2  0
  2  3  1  0
  3  4  1  0
  4  5  1  0
  5  6  2  0
  5  7  1  0
  7  8  1  0
  8  9  1  0
  9 10  1  0
 10 11  1  0
 11 12  1  0
 12 13  1  0
 13 14  2  0
 14 15  1  0
 15 16  2  0
 16 17  1  0
 17 18  1  0
 17 19  2  0
  2 20  1  0
 20 21  2  0
 21 22  1  0
 22 23  2  0
 23 24  1  0
 24 25  2  0
 25 26  1  0
 26 27  2  0
 27 28  1  0
 28 29  2  0
 12  7  1  0
 19 13  1  0
 29 20  1  0
 28 23  1  0
  3 30  1  0
  4 31  1  0
  4 32  1  0
  8 33  1  0
  8 34  1  0
  9 35  1  0
  9 36  1  0
 10 37  1  0
 10 38  1  0
 11 39  1  0
 11 40  1  0
 12 41  1  6
 14 42  1  0
 15 43  1  0
 16 44  1  0
 19 45  1  0
 21 46  1  0
 22 47  1  0
 24 48  1  0
 25 49  1  0
 26 50  1  0
 27 51  1  0
M  END
>  <smiles>  (31) 
O=C(NCC(=O)N1CCCCC1c1cccc(F)c1)c1ccc2ccccc2n1

>  <score_type>  (31) 
oracle

>  <origin>  (31) 
autodockgpu

>  <m_score__min__energy>  (31) 
-8.9299999999999997

>  <m_primary>  (31) 
energy

>  <rmsd>  (31) 
2.6496850375033514

>  <m_score__min__rmsd>  (31) 
2.6496850375033514

>  <meeko>  (31) 
{"free_energy": -8.82, "intermolecular_energy": -10.31, "internal_energy": -1.23, "cluster_size": 13, "cluster_id": 1, "rank_in_cluster": 2}

>  <energy>  (31) 
-7.57

>  <cluster_rmsd>  (31) 
0.88

>  <cluster>  (31) 
4

$$$$

     RDKit          3D

 51 54  0  0  0  0  0  0  0  0999 V2000
  140.5380   77.0790  218.5650 O   0  0  0  0  0  0  0  0  0  0  0  0
  141.6750   77.0460  219.1020 C   0  0  0  0  0  0  0  0  0  0  0  0
  142.2200   78.3070  219.5910 N   0  0  0  0  0  0  0  0  0  0  0  0
  141.4030   79.4440  219.4060 C   0  0  0  0  0  0  0  0  0  0  0  0
  140.6560   80.0230  220.5080 C   0  0  0  0  0  0  0  0  0  0  0  0
  139.4110   80.2940  220.2010 O   0  0  0  0  0  0  0  0  0  0  0  0
  141.0120   80.3450  221.8170 N   0  0  0  0  0  0  0  0  0  0  0  0
  141.2990   81.6860  222.3270 C   0  0  0  0  0  0  0  0  0  0  0  0
  141.9020   81.5630  223.7170 C   0  0  0  0  0  0  0  0  0  0  0  0
  142.9380   80.5020  223.8540 C   0  0  0  0  0  0  0  0  0  0  0  0
  142.5630   79.1900  223.1400 C   0  0  0  0  0  0  0  0  0  0  0  0
  141.1210   79.2960  222.8570 C   0  0  2  0  0  0  0  0  0  0  0  0
  140.3630   78.0900  222.5910 C   0  0  0  0  0  0  0  0  0  0  0  0
  138.9850   78.0260  222.6180 C   0  0  0  0  0  0  0  0  0  0  0  0
  138.3260   76.8450  222.3560 C   0  0  0  0  0  0  0  0  0  0  0  0
  139.0080   75.6920  222.0610 C   0  0  0  0  0  0  0  0  0  0  0  0
  140.3740   75.7280  222.0280 C   0  0  0  0  0  0  0  0  0  0  0  0
  141.0430   74.5820  221.7340 F   0  0  0  0  0  0  0  0  0  0  0  0
  141.0490   76.9210  222.2920 C   0  0  0  0  0  0  0  0  0  0  0  0
  142.4400   75.8230  219.2470 C   0  0  0  0  0  0  0  0  0  0  0  0
  141.9820   74.6940  218.6350 C   0  0  0  0  0  0  0  0  0  0  0  0
  142.7110   73.5310  218.7730 C   0  0  0  0  0  0  0  0  0  0  0  0
  143.8820   73.4570  219.5020 C   0  0  0  0  0  0  0  0  0  0  0  0
  144.6050   72.2910  219.6360 C   0  0  0  0  0  0  0  0  0  0  0  0
  145.7780   72.2620  220.3770 C   0  0  0  0  0  0  0  0  0  0  0  0
  146.1870   73.4400  220.9720 C   0  0  0  0  0  0  0  0  0  0  0  0
  145.4660   74.6250  220.8440 C   0  0  0  0  0  0  0  0  0  0  0  0
  144.3080   74.6280  220.1060 C   0  0  0  0  0  0  0  0  0  0  0  0
  143.5760   75.7460  219.9520 N   0  0  0  0  0  0  0  0  0  0  0  0
  143.1540   78.2140  220.0100 H   0  0  0  0  0  0  0  0  0  0  0  0
  142.0588   80.2395  219.0224 H   0  0  0  0  0  0  0  0  0  0  0  0
  140.6056   79.0612  218.7521 H   0  0  0  0  0  0  0  0  0  0  0  0
  142.0115   82.1911  221.6583 H   0  0  0  0  0  0  0  0  0  0  0  0
  140.3710   82.2748  222.3730 H   0  0  0  0  0  0  0  0  0  0  0  0
  142.3626   82.5274  223.9773 H   0  0  0  0  0  0  0  0  0  0  0  0
  141.0781   81.2816  224.3894 H   0  0  0  0  0  0  0  0  0  0  0  0
  143.8797   80.8759  223.4258 H   0  0  0  0  0  0  0  0  0  0  0  0
  143.0322   80.2746  224.9261 H   0  0  0  0  0  0  0  0  0  0  0  0
  143.1320   79.0849  222.2045 H   0  0  0  0  0  0  0  0  0  0  0  0
  142.7950   78.3087  223.7560 H   0  0  0  0  0  0  0  0  0  0  0  0
  140.6058   79.5603  223.7923 H   0  0  0  0  0  0  0  0  0  0  0  0
  138.4045   78.9306  222.8520 H   0  0  0  0  0  0  0  0  0  0  0  0
  137.2265   76.8261  222.3840 H   0  0  0  0  0  0  0  0  0  0  0  0
  138.4664   74.7570  221.8551 H   0  0  0  0  0  0  0  0  0  0  0  0
  142.1485   76.9350  222.2624 H   0  0  0  0  0  0  0  0  0  0  0  0
  141.0535   74.7101  218.0454 H   0  0  0  0  0  0  0  0  0  0  0  0
  142.3425   72.6197  218.2793 H   0  0  0  0  0  0  0  0  0  0  0  0
  144.2475   71.3716  219.1493 H   0  0  0  0  0  0  0  0  0  0  0  0
  146.3606   71.3354  220.4866 H   0  0  0  0  0  0  0  0  0  0  0  0
  147.1125   73.4422  221.5664 H   0  0  0  0  0  0  0  0  0  0  0  0
  145.8200   75.5471  221.3282 H   0  0  0  0  0  0  0  0  0  0  0  0
  1  2  2  0
  2  3  1  0
  3  4  1  0
  4  5  1  0
  5  6  2  0
  5  7  1  0
  7  8  1  0
  8  9  1  0
  9 10  1  0
 10 11  1  0
 11 12  1  0
 12 13  1  0
 13 14  2  0
 14 15  1  0
 15 16  2  0
 16 17  1  0
 17 18  1  0
 17 19  2  0
  2 20  1  0
 20 21  2  0
 21 22  1  0
 22 23  2  0
 23 24  1  0
 24 25  2  0
 25 26  1  0
 26 27  2  0
 27 28  1  0
 28 29  2  0
 12  7  1  0
 19 13  1  0
 29 20  1  0
 28 23  1  0
  3 30  1  0
  4 31  1  0
  4 32  1  0
  8 33  1  0
  8 34  1  0
  9 35  1  0
  9 36  1  0
 10 37  1  0
 10 38  1  0
 11 39  1  0
 11 40  1  0
 12 41  1  1
 14 42  1  0
 15 43  1  0
 16 44  1  0
 19 45  1  0
 21 46  1  0
 22 47  1  0
 24 48  1  0
 25 49  1  0
 26 50  1  0
 27 51  1  0
M  END
>  <smiles>  (32) 
O=C(NCC(=O)N1CCCCC1c1cccc(F)c1)c1ccc2ccccc2n1

>  <score_type>  (32) 
oracle

>  <origin>  (32) 
autodockgpu

>  <m_score__min__energy>  (32) 
-8.9299999999999997

>  <m_primary>  (32) 
energy

>  <rmsd>  (32) 
7.584091845541942

>  <m_score__min__rmsd>  (32) 
7.584091845541942

>  <meeko>  (32) 
{"free_energy": -7.33, "intermolecular_energy": -8.82, "internal_energy": -2.65, "cluster_size": 13, "cluster_id": 5, "rank_in_cluster": 6}

>  <energy>  (32) 
-7.55

>  <cluster_rmsd>  (32) 
0.22

>  <cluster>  (32) 
4

$$$$

     RDKit          3D

 51 54  0  0  0  0  0  0  0  0999 V2000
  140.5430   77.0680  218.5480 O   0  0  0  0  0  0  0  0  0  0  0  0
  141.6610   77.0360  219.1230 C   0  0  0  0  0  0  0  0  0  0  0  0
  142.1860   78.2970  219.6330 N   0  0  0  0  0  0  0  0  0  0  0  0
  141.3740   79.4330  219.4230 C   0  0  0  0  0  0  0  0  0  0  0  0
  140.6540   80.0570  220.5190 C   0  0  0  0  0  0  0  0  0  0  0  0
  139.4270   80.3950  220.2040 O   0  0  0  0  0  0  0  0  0  0  0  0
  141.0200   80.3640  221.8290 N   0  0  0  0  0  0  0  0  0  0  0  0
  141.3200   81.6990  222.3490 C   0  0  0  0  0  0  0  0  0  0  0  0
  141.9310   81.5580  223.7340 C   0  0  0  0  0  0  0  0  0  0  0  0
  142.9590   80.4890  223.8550 C   0  0  0  0  0  0  0  0  0  0  0  0
  142.5700   79.1860  223.1320 C   0  0  0  0  0  0  0  0  0  0  0  0
  141.1270   79.3050  222.8580 C   0  0  2  0  0  0  0  0  0  0  0  0
  140.3590   78.1070  222.5870 C   0  0  0  0  0  0  0  0  0  0  0  0
  138.9810   78.0670  222.5650 C   0  0  0  0  0  0  0  0  0  0  0  0
  138.3110   76.8920  222.3000 C   0  0  0  0  0  0  0  0  0  0  0  0
  138.9830   75.7230  222.0490 C   0  0  0  0  0  0  0  0  0  0  0  0
  140.3500   75.7350  222.0650 C   0  0  0  0  0  0  0  0  0  0  0  0
  141.0100   74.5740  221.8160 F   0  0  0  0  0  0  0  0  0  0  0  0
  141.0350   76.9220  222.3330 C   0  0  0  0  0  0  0  0  0  0  0  0
  142.4230   75.8150  219.2900 C   0  0  0  0  0  0  0  0  0  0  0  0
  141.9440   74.6680  218.7300 C   0  0  0  0  0  0  0  0  0  0  0  0
  142.6710   73.5060  218.8890 C   0  0  0  0  0  0  0  0  0  0  0  0
  143.8610   73.4500  219.5900 C   0  0  0  0  0  0  0  0  0  0  0  0
  144.5820   72.2860  219.7440 C   0  0  0  0  0  0  0  0  0  0  0  0
  145.7740   72.2760  220.4560 C   0  0  0  0  0  0  0  0  0  0  0  0
  146.2040   73.4720  220.9980 C   0  0  0  0  0  0  0  0  0  0  0  0
  145.4860   74.6560  220.8480 C   0  0  0  0  0  0  0  0  0  0  0  0
  144.3080   74.6400  220.1400 C   0  0  0  0  0  0  0  0  0  0  0  0
  143.5780   75.7550  219.9670 N   0  0  0  0  0  0  0  0  0  0  0  0
  143.1060   78.2060  220.0820 H   0  0  0  0  0  0  0  0  0  0  0  0
  142.0276   80.2089  218.9977 H   0  0  0  0  0  0  0  0  0  0  0  0
  140.5608   79.0339  218.7990 H   0  0  0  0  0  0  0  0  0  0  0  0
  142.0319   82.2051  221.6804 H   0  0  0  0  0  0  0  0  0  0  0  0
  140.3970   82.2946  222.4060 H   0  0  0  0  0  0  0  0  0  0  0  0
  142.4005   82.5164  224.0004 H   0  0  0  0  0  0  0  0  0  0  0  0
  141.1091   81.2760  224.4085 H   0  0  0  0  0  0  0  0  0  0  0  0
  143.9008   80.8597  223.4241 H   0  0  0  0  0  0  0  0  0  0  0  0
  143.0580   80.2514  224.9245 H   0  0  0  0  0  0  0  0  0  0  0  0
  143.1329   79.0847  222.1924 H   0  0  0  0  0  0  0  0  0  0  0  0
  142.7987   78.2978  223.7393 H   0  0  0  0  0  0  0  0  0  0  0  0
  140.6182   79.5648  223.7980 H   0  0  0  0  0  0  0  0  0  0  0  0
  138.4085   78.9854  222.7616 H   0  0  0  0  0  0  0  0  0  0  0  0
  137.2111   76.8918  222.2896 H   0  0  0  0  0  0  0  0  0  0  0  0
  138.4328   74.7939  221.8389 H   0  0  0  0  0  0  0  0  0  0  0  0
  142.1349   76.9176  222.3430 H   0  0  0  0  0  0  0  0  0  0  0  0
  141.0003   74.6688  218.1648 H   0  0  0  0  0  0  0  0  0  0  0  0
  142.2853   72.5805  218.4365 H   0  0  0  0  0  0  0  0  0  0  0  0
  144.2085   71.3528  219.2972 H   0  0  0  0  0  0  0  0  0  0  0  0
  146.3544   71.3504  220.5838 H   0  0  0  0  0  0  0  0  0  0  0  0
  147.1451   73.4897  221.5672 H   0  0  0  0  0  0  0  0  0  0  0  0
  145.8570   75.5922  221.2906 H   0  0  0  0  0  0  0  0  0  0  0  0
  1  2  2  0
  2  3  1  0
  3  4  1  0
  4  5  1  0
  5  6  2  0
  5  7  1  0
  7  8  1  0
  8  9  1  0
  9 10  1  0
 10 11  1  0
 11 12  1  0
 12 13  1  0
 13 14  2  0
 14 15  1  0
 15 16  2  0
 16 17  1  0
 17 18  1  0
 17 19  2  0
  2 20  1  0
 20 21  2  0
 21 22  1  0
 22 23  2  0
 23 24  1  0
 24 25  2  0
 25 26  1  0
 26 27  2  0
 27 28  1  0
 28 29  2  0
 12  7  1  0
 19 13  1  0
 29 20  1  0
 28 23  1  0
  3 30  1  0
  4 31  1  0
  4 32  1  0
  8 33  1  0
  8 34  1  0
  9 35  1  0
  9 36  1  0
 10 37  1  0
 10 38  1  0
 11 39  1  0
 11 40  1  0
 12 41  1  1
 14 42  1  0
 15 43  1  0
 16 44  1  0
 19 45  1  0
 21 46  1  0
 22 47  1  0
 24 48  1  0
 25 49  1  0
 26 50  1  0
 27 51  1  0
M  END
>  <smiles>  (33) 
O=C(NCC(=O)N1CCCCC1c1cccc(F)c1)c1ccc2ccccc2n1

>  <score_type>  (33) 
oracle

>  <origin>  (33) 
autodockgpu

>  <m_score__min__energy>  (33) 
-8.9299999999999997

>  <m_primary>  (33) 
energy

>  <rmsd>  (33) 
7.560092784282024

>  <m_score__min__rmsd>  (33) 
7.560092784282024

>  <meeko>  (33) 
{"free_energy": -7.29, "intermolecular_energy": -8.79, "internal_energy": -2.67, "cluster_size": 13, "cluster_id": 5, "rank_in_cluster": 10}

>  <energy>  (33) 
-7.55

>  <cluster_rmsd>  (33) 
0.88

>  <cluster>  (33) 
4

$$$$

     RDKit          3D

 51 54  0  0  0  0  0  0  0  0999 V2000
  139.1040   74.9910  221.5730 O   0  0  0  0  0  0  0  0  0  0  0  0
  140.2010   75.5520  221.8270 C   0  0  0  0  0  0  0  0  0  0  0  0
  141.4140   74.7710  221.6170 N   0  0  0  0  0  0  0  0  0  0  0  0
  141.2260   73.4530  221.1470 C   0  0  0  0  0  0  0  0  0  0  0  0
  142.0600   72.9010  220.0950 C   0  0  0  0  0  0  0  0  0  0  0  0
  141.3750   72.2740  219.1700 O   0  0  0  0  0  0  0  0  0  0  0  0
  143.4380   72.9110  219.8860 N   0  0  0  0  0  0  0  0  0  0  0  0
  144.3230   71.7460  219.9240 C   0  0  0  0  0  0  0  0  0  0  0  0
  145.7660   72.2270  219.9150 C   0  0  0  0  0  0  0  0  0  0  0  0
  146.0440   73.3740  220.8230 C   0  0  0  0  0  0  0  0  0  0  0  0
  144.9500   74.4580  220.7870 C   0  0  0  0  0  0  0  0  0  0  0  0
  144.1540   74.1710  219.5810 C   0  0  2  0  0  0  0  0  0  0  0  0
  143.3320   75.2200  219.0120 C   0  0  0  0  0  0  0  0  0  0  0  0
  142.7190   75.1330  217.7790 C   0  0  0  0  0  0  0  0  0  0  0  0
  141.9500   76.1690  217.2970 C   0  0  0  0  0  0  0  0  0  0  0  0
  141.7630   77.3210  218.0170 C   0  0  0  0  0  0  0  0  0  0  0  0
  142.3590   77.4330  219.2430 C   0  0  0  0  0  0  0  0  0  0  0  0
  142.1700   78.5770  219.9510 F   0  0  0  0  0  0  0  0  0  0  0  0
  143.1410   76.3870  219.7380 C   0  0  0  0  0  0  0  0  0  0  0  0
  140.2920   76.9160  222.3070 C   0  0  0  0  0  0  0  0  0  0  0  0
  139.1390   77.5760  222.6140 C   0  0  0  0  0  0  0  0  0  0  0  0
  139.2270   78.8750  223.0720 C   0  0  0  0  0  0  0  0  0  0  0  0
  140.4290   79.5380  223.2330 C   0  0  0  0  0  0  0  0  0  0  0  0
  140.5090   80.8350  223.6910 C   0  0  0  0  0  0  0  0  0  0  0  0
  141.7390   81.4630  223.8380 C   0  0  0  0  0  0  0  0  0  0  0  0
  142.8680   80.7390  223.5080 C   0  0  0  0  0  0  0  0  0  0  0  0
  142.8010   79.4280  223.0450 C   0  0  0  0  0  0  0  0  0  0  0  0
  141.5730   78.8280  222.9070 C   0  0  0  0  0  0  0  0  0  0  0  0
  141.4540   77.5640  222.4650 N   0  0  0  0  0  0  0  0  0  0  0  0
  142.2750   75.2830  221.8500 H   0  0  0  0  0  0  0  0  0  0  0  0
  141.3456   72.7920  222.0181 H   0  0  0  0  0  0  0  0  0  0  0  0
  140.2395   73.5107  220.6637 H   0  0  0  0  0  0  0  0  0  0  0  0
  144.1321   71.1663  220.8391 H   0  0  0  0  0  0  0  0  0  0  0  0
  144.1366   71.1060  219.0490 H   0  0  0  0  0  0  0  0  0  0  0  0
  146.4092   71.3872  220.2166 H   0  0  0  0  0  0  0  0  0  0  0  0
  145.9694   72.5820  218.8939 H   0  0  0  0  0  0  0  0  0  0  0  0
  146.1248   72.9933  221.8519 H   0  0  0  0  0  0  0  0  0  0  0  0
  146.9784   73.8423  220.4801 H   0  0  0  0  0  0  0  0  0  0  0  0
  144.3201   74.3990  221.6869 H   0  0  0  0  0  0  0  0  0  0  0  0
  145.3785   75.4708  220.7627 H   0  0  0  0  0  0  0  0  0  0  0  0
  144.8428   74.0793  218.7283 H   0  0  0  0  0  0  0  0  0  0  0  0
  142.8461   74.2240  217.1728 H   0  0  0  0  0  0  0  0  0  0  0  0
  141.4741   76.0699  216.3102 H   0  0  0  0  0  0  0  0  0  0  0  0
  141.1459   78.1388  217.6165 H   0  0  0  0  0  0  0  0  0  0  0  0
  143.6158   76.4906  220.7248 H   0  0  0  0  0  0  0  0  0  0  0  0
  138.1616   77.0846  222.4993 H   0  0  0  0  0  0  0  0  0  0  0  0
  138.2971   79.4075  223.3205 H   0  0  0  0  0  0  0  0  0  0  0  0
  139.5873   81.3798  223.9433 H   0  0  0  0  0  0  0  0  0  0  0  0
  141.8113   82.4980  224.2035 H   0  0  0  0  0  0  0  0  0  0  0  0
  143.8540   81.2148  223.6147 H   0  0  0  0  0  0  0  0  0  0  0  0
  143.7203   78.8791  222.7927 H   0  0  0  0  0  0  0  0  0  0  0  0
  1  2  2  0
  2  3  1  0
  3  4  1  0
  4  5  1  0
  5  6  2  0
  5  7  1  0
  7  8  1  0
  8  9  1  0
  9 10  1  0
 10 11  1  0
 11 12  1  0
 12 13  1  0
 13 14  2  0
 14 15  1  0
 15 16  2  0
 16 17  1  0
 17 18  1  0
 17 19  2  0
  2 20  1  0
 20 21  2  0
 21 22  1  0
 22 23  2  0
 23 24  1  0
 24 25  2  0
 25 26  1  0
 26 27  2  0
 27 28  1  0
 28 29  2  0
 12  7  1  0
 19 13  1  0
 29 20  1  0
 28 23  1  0
  3 30  1  0
  4 31  1  0
  4 32  1  0
  8 33  1  0
  8 34  1  0
  9 35  1  0
  9 36  1  0
 10 37  1  0
 10 38  1  0
 11 39  1  0
 11 40  1  0
 12 41  1  6
 14 42  1  0
 15 43  1  0
 16 44  1  0
 19 45  1  0
 21 46  1  0
 22 47  1  0
 24 48  1  0
 25 49  1  0
 26 50  1  0
 27 51  1  0
M  END
>  <smiles>  (34) 
O=C(NCC(=O)N1CCCCC1c1cccc(F)c1)c1ccc2ccccc2n1

>  <score_type>  (34) 
oracle

>  <origin>  (34) 
autodockgpu

>  <m_score__min__energy>  (34) 
-8.9299999999999997

>  <m_primary>  (34) 
energy

>  <rmsd>  (34) 
7.69350916942966

>  <m_score__min__rmsd>  (34) 
7.69350916942966

>  <meeko>  (34) 
{"free_energy": -7.5, "intermolecular_energy": -8.99, "internal_energy": -2.5, "cluster_size": 20, "cluster_id": 4, "rank_in_cluster": 18}

>  <energy>  (34) 
-7.52

>  <cluster_rmsd>  (34) 
0.22

>  <cluster>  (34) 
4

$$$$

     RDKit          3D

 51 54  0  0  0  0  0  0  0  0999 V2000
  141.2620   71.9630  221.5010 O   0  0  0  0  0  0  0  0  0  0  0  0
  140.5080   72.3300  222.4390 C   0  0  0  0  0  0  0  0  0  0  0  0
  139.8610   73.6300  222.3060 N   0  0  0  0  0  0  0  0  0  0  0  0
  140.1540   74.3470  221.1260 C   0  0  0  0  0  0  0  0  0  0  0  0
  141.0670   75.4750  221.1350 C   0  0  0  0  0  0  0  0  0  0  0  0
  141.4460   75.8220  222.3410 O   0  0  0  0  0  0  0  0  0  0  0  0
  141.6090   76.2530  220.1120 N   0  0  0  0  0  0  0  0  0  0  0  0
  141.2750   77.6470  219.8210 C   0  0  0  0  0  0  0  0  0  0  0  0
  141.8800   78.0260  218.4780 C   0  0  0  0  0  0  0  0  0  0  0  0
  141.7090   77.0040  217.4090 C   0  0  0  0  0  0  0  0  0  0  0  0
  141.9500   75.5640  217.8990 C   0  0  0  0  0  0  0  0  0  0  0  0
  142.6340   75.7010  219.1970 C   0  0  2  0  0  0  0  0  0  0  0  0
  143.3830   74.5770  219.7220 C   0  0  0  0  0  0  0  0  0  0  0  0
  143.0250   73.2590  219.5310 C   0  0  0  0  0  0  0  0  0  0  0  0
  143.7830   72.2360  220.0590 C   0  0  0  0  0  0  0  0  0  0  0  0
  144.9160   72.4860  220.7910 C   0  0  0  0  0  0  0  0  0  0  0  0
  145.2930   73.7850  220.9940 C   0  0  0  0  0  0  0  0  0  0  0  0
  146.4170   74.0250  221.7190 F   0  0  0  0  0  0  0  0  0  0  0  0
  144.5300   74.8250  220.4620 C   0  0  0  0  0  0  0  0  0  0  0  0
  140.2700   71.5200  223.6170 C   0  0  0  0  0  0  0  0  0  0  0  0
  139.6180   70.3320  223.4670 C   0  0  0  0  0  0  0  0  0  0  0  0
  139.3920   69.5610  224.5890 C   0  0  0  0  0  0  0  0  0  0  0  0
  139.7950   69.9370  225.8560 C   0  0  0  0  0  0  0  0  0  0  0  0
  139.5670   69.1620  226.9730 C   0  0  0  0  0  0  0  0  0  0  0  0
  139.9900   69.5780  228.2270 C   0  0  0  0  0  0  0  0  0  0  0  0
  140.6450   70.7920  228.3100 C   0  0  0  0  0  0  0  0  0  0  0  0
  140.8830   71.5850  227.1900 C   0  0  0  0  0  0  0  0  0  0  0  0
  140.4540   71.1510  225.9590 C   0  0  0  0  0  0  0  0  0  0  0  0
  140.6590   71.8790  224.8470 N   0  0  0  0  0  0  0  0  0  0  0  0
  139.2680   73.8750  223.1090 H   0  0  0  0  0  0  0  0  0  0  0  0
  140.5674   73.6179  220.4136 H   0  0  0  0  0  0  0  0  0  0  0  0
  139.1904   74.8226  220.8909 H   0  0  0  0  0  0  0  0  0  0  0  0
  140.1820   77.7646  219.7805 H   0  0  0  0  0  0  0  0  0  0  0  0
  141.6770   78.3001  220.6096 H   0  0  0  0  0  0  0  0  0  0  0  0
  141.4057   78.9589  218.1394 H   0  0  0  0  0  0  0  0  0  0  0  0
  142.9631   78.1264  218.6420 H   0  0  0  0  0  0  0  0  0  0  0  0
  140.6822   77.0734  217.0206 H   0  0  0  0  0  0  0  0  0  0  0  0
  142.4604   77.2145  216.6337 H   0  0  0  0  0  0  0  0  0  0  0  0
  140.9938   75.0343  218.0220 H   0  0  0  0  0  0  0  0  0  0  0  0
  142.5475   74.9826  217.1814 H   0  0  0  0  0  0  0  0  0  0  0  0
  143.4969   76.3699  219.0629 H   0  0  0  0  0  0  0  0  0  0  0  0
  142.1222   73.0209  218.9494 H   0  0  0  0  0  0  0  0  0  0  0  0
  143.4721   71.1946  219.8894 H   0  0  0  0  0  0  0  0  0  0  0  0
  145.5095   71.6582  221.2064 H   0  0  0  0  0  0  0  0  0  0  0  0
  144.8450   75.8649  220.6332 H   0  0  0  0  0  0  0  0  0  0  0  0
  139.2802   69.9962  222.4755 H   0  0  0  0  0  0  0  0  0  0  0  0
  138.8664   68.6022  224.4690 H   0  0  0  0  0  0  0  0  0  0  0  0
  139.0426   68.2007  226.8686 H   0  0  0  0  0  0  0  0  0  0  0  0
  139.8107   68.9643  229.1221 H   0  0  0  0  0  0  0  0  0  0  0  0
  140.9900   71.1438  229.2935 H   0  0  0  0  0  0  0  0  0  0  0  0
  141.4078   72.5466  227.2897 H   0  0  0  0  0  0  0  0  0  0  0  0
  1  2  2  0
  2  3  1  0
  3  4  1  0
  4  5  1  0
  5  6  2  0
  5  7  1  0
  7  8  1  0
  8  9  1  0
  9 10  1  0
 10 11  1  0
 11 12  1  0
 12 13  1  0
 13 14  2  0
 14 15  1  0
 15 16  2  0
 16 17  1  0
 17 18  1  0
 17 19  2  0
  2 20  1  0
 20 21  2  0
 21 22  1  0
 22 23  2  0
 23 24  1  0
 24 25  2  0
 25 26  1  0
 26 27  2  0
 27 28  1  0
 28 29  2  0
 12  7  1  0
 19 13  1  0
 29 20  1  0
 28 23  1  0
  3 30  1  0
  4 31  1  0
  4 32  1  0
  8 33  1  0
  8 34  1  0
  9 35  1  0
  9 36  1  0
 10 37  1  0
 10 38  1  0
 11 39  1  0
 11 40  1  0
 12 41  1  6
 14 42  1  0
 15 43  1  0
 16 44  1  0
 19 45  1  0
 21 46  1  0
 22 47  1  0
 24 48  1  0
 25 49  1  0
 26 50  1  0
 27 51  1  0
M  END
>  <smiles>  (35) 
O=C(NCC(=O)N1CCCCC1c1cccc(F)c1)c1ccc2ccccc2n1

>  <score_type>  (35) 
oracle

>  <origin>  (35) 
autodockgpu

>  <m_score__min__energy>  (35) 
-8.9299999999999997

>  <m_primary>  (35) 
energy

>  <rmsd>  (35) 
2.1918956959121694

>  <m_score__min__rmsd>  (35) 
2.1918956959121694

>  <meeko>  (35) 
{"free_energy": -8.37, "intermolecular_energy": -9.87, "internal_energy": -1.71, "cluster_size": 13, "cluster_id": 1, "rank_in_cluster": 7}

>  <energy>  (35) 
-7.5

>  <cluster_rmsd>  (35) 
0.21

>  <cluster>  (35) 
4

$$$$

     RDKit          3D

 51 54  0  0  0  0  0  0  0  0999 V2000
  139.1080   75.0880  221.5350 O   0  0  0  0  0  0  0  0  0  0  0  0
  140.2010   75.6370  221.8270 C   0  0  0  0  0  0  0  0  0  0  0  0
  141.4120   74.8410  221.6640 N   0  0  0  0  0  0  0  0  0  0  0  0
  141.2260   73.5240  221.1910 C   0  0  0  0  0  0  0  0  0  0  0  0
  142.0030   73.0040  220.0800 C   0  0  0  0  0  0  0  0  0  0  0  0
  141.2630   72.4710  219.1380 O   0  0  0  0  0  0  0  0  0  0  0  0
  143.3740   72.9650  219.8310 N   0  0  0  0  0  0  0  0  0  0  0  0
  144.2180   71.7700  219.8480 C   0  0  0  0  0  0  0  0  0  0  0  0
  145.6760   72.1990  219.7940 C   0  0  0  0  0  0  0  0  0  0  0  0
  146.0210   73.3400  220.6860 C   0  0  0  0  0  0  0  0  0  0  0  0
  144.9660   74.4610  220.6770 C   0  0  0  0  0  0  0  0  0  0  0  0
  144.1230   74.1980  219.4970 C   0  0  2  0  0  0  0  0  0  0  0  0
  143.3220   75.2720  218.9470 C   0  0  0  0  0  0  0  0  0  0  0  0
  142.7370   75.2330  217.6980 C   0  0  0  0  0  0  0  0  0  0  0  0
  141.9860   76.2910  217.2350 C   0  0  0  0  0  0  0  0  0  0  0  0
  141.7910   77.4190  217.9920 C   0  0  0  0  0  0  0  0  0  0  0  0
  142.3600   77.4830  219.2330 C   0  0  0  0  0  0  0  0  0  0  0  0
  142.1630   78.6030  219.9770 F   0  0  0  0  0  0  0  0  0  0  0  0
  143.1230   76.4150  219.7080 C   0  0  0  0  0  0  0  0  0  0  0  0
  140.2900   77.0010  222.3080 C   0  0  0  0  0  0  0  0  0  0  0  0
  139.1360   77.6630  222.6020 C   0  0  0  0  0  0  0  0  0  0  0  0
  139.2230   78.9620  223.0600 C   0  0  0  0  0  0  0  0  0  0  0  0
  140.4240   79.6220  223.2340 C   0  0  0  0  0  0  0  0  0  0  0  0
  140.5030   80.9190  223.6920 C   0  0  0  0  0  0  0  0  0  0  0  0
  141.7330   81.5440  223.8520 C   0  0  0  0  0  0  0  0  0  0  0  0
  142.8640   80.8170  223.5360 C   0  0  0  0  0  0  0  0  0  0  0  0
  142.7980   79.5050  223.0730 C   0  0  0  0  0  0  0  0  0  0  0  0
  141.5700   78.9090  222.9220 C   0  0  0  0  0  0  0  0  0  0  0  0
  141.4520   77.6450  222.4780 N   0  0  0  0  0  0  0  0  0  0  0  0
  142.2700   75.3420  221.9290 H   0  0  0  0  0  0  0  0  0  0  0  0
  141.4181   72.8569  222.0443 H   0  0  0  0  0  0  0  0  0  0  0  0
  140.2091   73.5622  220.7733 H   0  0  0  0  0  0  0  0  0  0  0  0
  144.0341   71.2006  220.7710 H   0  0  0  0  0  0  0  0  0  0  0  0
  143.9832   71.1342  218.9816 H   0  0  0  0  0  0  0  0  0  0  0  0
  146.2975   71.3384  220.0822 H   0  0  0  0  0  0  0  0  0  0  0  0
  145.8619   72.5410  218.7652 H   0  0  0  0  0  0  0  0  0  0  0  0
  146.1197   72.9618  221.7142 H   0  0  0  0  0  0  0  0  0  0  0  0
  146.9601   73.7736  220.3117 H   0  0  0  0  0  0  0  0  0  0  0  0
  144.3623   74.4283  221.5959 H   0  0  0  0  0  0  0  0  0  0  0  0
  145.4295   75.4576  220.6338 H   0  0  0  0  0  0  0  0  0  0  0  0
  144.7810   74.0799  218.6234 H   0  0  0  0  0  0  0  0  0  0  0  0
  142.8722   74.3449  217.0632 H   0  0  0  0  0  0  0  0  0  0  0  0
  141.5319   76.2303  216.2349 H   0  0  0  0  0  0  0  0  0  0  0  0
  141.1886   78.2552  217.6075 H   0  0  0  0  0  0  0  0  0  0  0  0
  143.5766   76.4810  220.7079 H   0  0  0  0  0  0  0  0  0  0  0  0
  138.1586   77.1739  222.4773 H   0  0  0  0  0  0  0  0  0  0  0  0
  138.2918   79.4972  223.2978 H   0  0  0  0  0  0  0  0  0  0  0  0
  139.5802   81.4665  223.9340 H   0  0  0  0  0  0  0  0  0  0  0  0
  141.8037   82.5793  224.2168 H   0  0  0  0  0  0  0  0  0  0  0  0
  143.8501   81.2900  223.6539 H   0  0  0  0  0  0  0  0  0  0  0  0
  143.7182   78.9530  222.8313 H   0  0  0  0  0  0  0  0  0  0  0  0
  1  2  2  0
  2  3  1  0
  3  4  1  0
  4  5  1  0
  5  6  2  0
  5  7  1  0
  7  8  1  0
  8  9  1  0
  9 10  1  0
 10 11  1  0
 11 12  1  0
 12 13  1  0
 13 14  2  0
 14 15  1  0
 15 16  2  0
 16 17  1  0
 17 18  1  0
 17 19  2  0
  2 20  1  0
 20 21  2  0
 21 22  1  0
 22 23  2  0
 23 24  1  0
 24 25  2  0
 25 26  1  0
 26 27  2  0
 27 28  1  0
 28 29  2  0
 12  7  1  0
 19 13  1  0
 29 20  1  0
 28 23  1  0
  3 30  1  0
  4 31  1  0
  4 32  1  0
  8 33  1  0
  8 34  1  0
  9 35  1  0
  9 36  1  0
 10 37  1  0
 10 38  1  0
 11 39  1  0
 11 40  1  0
 12 41  1  6
 14 42  1  0
 15 43  1  0
 16 44  1  0
 19 45  1  0
 21 46  1  0
 22 47  1  0
 24 48  1  0
 25 49  1  0
 26 50  1  0
 27 51  1  0
M  END
>  <smiles>  (36) 
O=C(NCC(=O)N1CCCCC1c1cccc(F)c1)c1ccc2ccccc2n1

>  <score_type>  (36) 
oracle

>  <origin>  (36) 
autodockgpu

>  <m_score__min__energy>  (36) 
-8.9299999999999997

>  <m_primary>  (36) 
energy

>  <rmsd>  (36) 
7.7138937924457665

>  <m_score__min__rmsd>  (36) 
7.7138937924457665

>  <meeko>  (36) 
{"free_energy": -7.52, "intermolecular_energy": -9.01, "internal_energy": -2.5, "cluster_size": 20, "cluster_id": 4, "rank_in_cluster": 17}

>  <energy>  (36) 
-7.47

>  <cluster_rmsd>  (36) 
0.25

>  <cluster>  (36) 
4

$$$$

     RDKit          3D

 51 54  0  0  0  0  0  0  0  0999 V2000
  141.0560   72.2050  221.6580 O   0  0  0  0  0  0  0  0  0  0  0  0
  140.1630   72.3320  222.5350 C   0  0  0  0  0  0  0  0  0  0  0  0
  139.1600   73.3700  222.3220 N   0  0  0  0  0  0  0  0  0  0  0  0
  139.3010   74.1300  221.1400 C   0  0  0  0  0  0  0  0  0  0  0  0
  140.4660   74.9670  220.9170 C   0  0  0  0  0  0  0  0  0  0  0  0
  141.2700   75.0190  221.9500 O   0  0  0  0  0  0  0  0  0  0  0  0
  140.8830   75.7210  219.8210 N   0  0  0  0  0  0  0  0  0  0  0  0
  140.9030   75.2760  218.4270 C   0  0  0  0  0  0  0  0  0  0  0  0
  141.6730   76.2940  217.5990 C   0  0  0  0  0  0  0  0  0  0  0  0
  142.9380   76.7720  218.2220 C   0  0  0  0  0  0  0  0  0  0  0  0
  142.8030   77.0610  219.7280 C   0  0  0  0  0  0  0  0  0  0  0  0
  141.3540   77.1150  219.9890 C   0  0  2  0  0  0  0  0  0  0  0  0
  140.8760   77.7830  221.1830 C   0  0  0  0  0  0  0  0  0  0  0  0
  139.5530   77.8090  221.5710 C   0  0  0  0  0  0  0  0  0  0  0  0
  139.1650   78.4640  222.7200 C   0  0  0  0  0  0  0  0  0  0  0  0
  140.0730   79.1120  223.5180 C   0  0  0  0  0  0  0  0  0  0  0  0
  141.3910   79.1020  223.1560 C   0  0  0  0  0  0  0  0  0  0  0  0
  142.2850   79.7460  223.9510 F   0  0  0  0  0  0  0  0  0  0  0  0
  141.7910   78.4410  221.9930 C   0  0  0  0  0  0  0  0  0  0  0  0
  140.1020   71.5000  223.7200 C   0  0  0  0  0  0  0  0  0  0  0  0
  139.5000   70.2810  223.6270 C   0  0  0  0  0  0  0  0  0  0  0  0
  139.4430   69.4890  224.7560 C   0  0  0  0  0  0  0  0  0  0  0  0
  139.9680   69.8740  225.9750 C   0  0  0  0  0  0  0  0  0  0  0  0
  139.9080   69.0770  227.0980 C   0  0  0  0  0  0  0  0  0  0  0  0
  140.4490   69.5040  228.3030 C   0  0  0  0  0  0  0  0  0  0  0  0
  141.0440   70.7500  228.3290 C   0  0  0  0  0  0  0  0  0  0  0  0
  141.1130   71.5650  227.2020 C   0  0  0  0  0  0  0  0  0  0  0  0
  140.5690   71.1200  226.0210 C   0  0  0  0  0  0  0  0  0  0  0  0
  140.6090   71.8680  224.9040 N   0  0  0  0  0  0  0  0  0  0  0  0
  138.4650   73.4280  223.0770 H   0  0  0  0  0  0  0  0  0  0  0  0
  139.2662   73.4156  220.3043 H   0  0  0  0  0  0  0  0  0  0  0  0
  138.4906   74.8680  221.2322 H   0  0  0  0  0  0  0  0  0  0  0  0
  141.3960   74.2950  218.3590 H   0  0  0  0  0  0  0  0  0  0  0  0
  139.8742   75.1870  218.0480 H   0  0  0  0  0  0  0  0  0  0  0  0
  141.9203   75.8325  216.6316 H   0  0  0  0  0  0  0  0  0  0  0  0
  141.0209   77.1747  217.5036 H   0  0  0  0  0  0  0  0  0  0  0  0
  143.7095   76.0005  218.0822 H   0  0  0  0  0  0  0  0  0  0  0  0
  143.2058   77.7192  217.7309 H   0  0  0  0  0  0  0  0  0  0  0  0
  143.2703   76.2581  220.3171 H   0  0  0  0  0  0  0  0  0  0  0  0
  143.3042   77.9985  220.0106 H   0  0  0  0  0  0  0  0  0  0  0  0
  140.9010   77.8127  219.2693 H   0  0  0  0  0  0  0  0  0  0  0  0
  138.7969   77.3000  220.9551 H   0  0  0  0  0  0  0  0  0  0  0  0
  138.1022   78.4671  223.0036 H   0  0  0  0  0  0  0  0  0  0  0  0
  139.7467   79.6299  224.4320 H   0  0  0  0  0  0  0  0  0  0  0  0
  142.8547   78.4418  221.7126 H   0  0  0  0  0  0  0  0  0  0  0  0
  139.0698   69.9365  222.6750 H   0  0  0  0  0  0  0  0  0  0  0  0
  138.9568   68.5051  224.6820 H   0  0  0  0  0  0  0  0  0  0  0  0
  139.4254   68.0903  227.0386 H   0  0  0  0  0  0  0  0  0  0  0  0
  140.4054   68.8736  229.2033 H   0  0  0  0  0  0  0  0  0  0  0  0
  141.4785   71.1112  229.2728 H   0  0  0  0  0  0  0  0  0  0  0  0
  141.5964   72.5516  227.2563 H   0  0  0  0  0  0  0  0  0  0  0  0
  1  2  2  0
  2  3  1  0
  3  4  1  0
  4  5  1  0
  5  6  2  0
  5  7  1  0
  7  8  1  0
  8  9  1  0
  9 10  1  0
 10 11  1  0
 11 12  1  0
 12 13  1  0
 13 14  2  0
 14 15  1  0
 15 16  2  0
 16 17  1  0
 17 18  1  0
 17 19  2  0
  2 20  1  0
 20 21  2  0
 21 22  1  0
 22 23  2  0
 23 24  1  0
 24 25  2  0
 25 26  1  0
 26 27  2  0
 27 28  1  0
 28 29  2  0
 12  7  1  0
 19 13  1  0
 29 20  1  0
 28 23  1  0
  3 30  1  0
  4 31  1  0
  4 32  1  0
  8 33  1  0
  8 34  1  0
  9 35  1  0
  9 36  1  0
 10 37  1  0
 10 38  1  0
 11 39  1  0
 11 40  1  0
 12 41  1  6
 14 42  1  0
 15 43  1  0
 16 44  1  0
 19 45  1  0
 21 46  1  0
 22 47  1  0
 24 48  1  0
 25 49  1  0
 26 50  1  0
 27 51  1  0
M  END
>  <smiles>  (37) 
O=C(NCC(=O)N1CCCCC1c1cccc(F)c1)c1ccc2ccccc2n1

>  <score_type>  (37) 
oracle

>  <origin>  (37) 
autodockgpu

>  <m_score__min__energy>  (37) 
-8.9299999999999997

>  <m_primary>  (37) 
energy

>  <rmsd>  (37) 
1.5445058856282696

>  <m_score__min__rmsd>  (37) 
1.5445058856282696

>  <meeko>  (37) 
{"free_energy": -8.53, "intermolecular_energy": -10.02, "internal_energy": -1.26, "cluster_size": 2, "cluster_id": 2, "rank_in_cluster": 2}

>  <energy>  (37) 
-7.43

>  <cluster_rmsd>  (37) 
0.9

>  <cluster>  (37) 
4

$$$$

     RDKit          3D

 51 54  0  0  0  0  0  0  0  0999 V2000
  141.5120   71.9780  221.5740 O   0  0  0  0  0  0  0  0  0  0  0  0
  140.6570   72.3440  222.4210 C   0  0  0  0  0  0  0  0  0  0  0  0
  140.0010   73.6280  222.1960 N   0  0  0  0  0  0  0  0  0  0  0  0
  140.4030   74.3300  221.0390 C   0  0  0  0  0  0  0  0  0  0  0  0
  141.1880   75.5480  221.1310 C   0  0  0  0  0  0  0  0  0  0  0  0
  141.3670   75.9550  222.3630 O   0  0  0  0  0  0  0  0  0  0  0  0
  141.7800   76.3580  220.1630 N   0  0  0  0  0  0  0  0  0  0  0  0
  141.5260   77.7850  219.9620 C   0  0  0  0  0  0  0  0  0  0  0  0
  142.1610   78.2150  218.6490 C   0  0  0  0  0  0  0  0  0  0  0  0
  141.9410   77.2760  217.5150 C   0  0  0  0  0  0  0  0  0  0  0  0
  142.0980   75.7960  217.9100 C   0  0  0  0  0  0  0  0  0  0  0  0
  142.7790   75.8100  219.2170 C   0  0  2  0  0  0  0  0  0  0  0  0
  143.4610   74.6150  219.6710 C   0  0  0  0  0  0  0  0  0  0  0  0
  143.0600   73.3340  219.3520 C   0  0  0  0  0  0  0  0  0  0  0  0
  143.7550   72.2390  219.8180 C   0  0  0  0  0  0  0  0  0  0  0  0
  144.8640   72.3770  220.6120 C   0  0  0  0  0  0  0  0  0  0  0  0
  145.2830   73.6360  220.9430 C   0  0  0  0  0  0  0  0  0  0  0  0
  146.3830   73.7640  221.7300 F   0  0  0  0  0  0  0  0  0  0  0  0
  144.5840   74.7500  220.4750 C   0  0  0  0  0  0  0  0  0  0  0  0
  140.3120   71.5490  223.5820 C   0  0  0  0  0  0  0  0  0  0  0  0
  139.5720   70.4190  223.3990 C   0  0  0  0  0  0  0  0  0  0  0  0
  139.2450   69.6620  224.5060 C   0  0  0  0  0  0  0  0  0  0  0  0
  139.6310   69.9970  225.7900 C   0  0  0  0  0  0  0  0  0  0  0  0
  139.3000   69.2360  226.8900 C   0  0  0  0  0  0  0  0  0  0  0  0
  139.7100   69.6090  228.1630 C   0  0  0  0  0  0  0  0  0  0  0  0
  140.4560   70.7660  228.2790 C   0  0  0  0  0  0  0  0  0  0  0  0
  140.7980   71.5440  227.1750 C   0  0  0  0  0  0  0  0  0  0  0  0
  140.3800   71.1530  225.9270 C   0  0  0  0  0  0  0  0  0  0  0  0
  140.6830   71.8690  224.8290 N   0  0  0  0  0  0  0  0  0  0  0  0
  139.3210   73.8730  222.9270 H   0  0  0  0  0  0  0  0  0  0  0  0
  140.9928   73.6242  220.4357 H   0  0  0  0  0  0  0  0  0  0  0  0
  139.4462   74.6924  220.6350 H   0  0  0  0  0  0  0  0  0  0  0  0
  140.4416   77.9660  219.9251 H   0  0  0  0  0  0  0  0  0  0  0  0
  141.9576   78.3623  220.7929 H   0  0  0  0  0  0  0  0  0  0  0  0
  141.7424   79.1932  218.3701 H   0  0  0  0  0  0  0  0  0  0  0  0
  143.2467   78.2428  218.8233 H   0  0  0  0  0  0  0  0  0  0  0  0
  140.9224   77.4280  217.1285 H   0  0  0  0  0  0  0  0  0  0  0  0
  142.7086   77.4942  216.7579 H   0  0  0  0  0  0  0  0  0  0  0  0
  141.1130   75.3136  217.9944 H   0  0  0  0  0  0  0  0  0  0  0  0
  142.6674   75.2300  217.1580 H   0  0  0  0  0  0  0  0  0  0  0  0
  143.6785   76.4370  219.1288 H   0  0  0  0  0  0  0  0  0  0  0  0
  142.1740   73.1847  218.7174 H   0  0  0  0  0  0  0  0  0  0  0  0
  143.4116   71.2299  219.5463 H   0  0  0  0  0  0  0  0  0  0  0  0
  145.4065   71.4920  220.9759 H   0  0  0  0  0  0  0  0  0  0  0  0
  144.9310   75.7571  220.7496 H   0  0  0  0  0  0  0  0  0  0  0  0
  139.2434   70.1176  222.3934 H   0  0  0  0  0  0  0  0  0  0  0  0
  138.6491   68.7491  224.3592 H   0  0  0  0  0  0  0  0  0  0  0  0
  138.7034   68.3214  226.7579 H   0  0  0  0  0  0  0  0  0  0  0  0
  139.4507   69.0061  229.0458 H   0  0  0  0  0  0  0  0  0  0  0  0
  140.7914   71.0839  229.2772 H   0  0  0  0  0  0  0  0  0  0  0  0
  141.3949   72.4592  227.3015 H   0  0  0  0  0  0  0  0  0  0  0  0
  1  2  2  0
  2  3  1  0
  3  4  1  0
  4  5  1  0
  5  6  2  0
  5  7  1  0
  7  8  1  0
  8  9  1  0
  9 10  1  0
 10 11  1  0
 11 12  1  0
 12 13  1  0
 13 14  2  0
 14 15  1  0
 15 16  2  0
 16 17  1  0
 17 18  1  0
 17 19  2  0
  2 20  1  0
 20 21  2  0
 21 22  1  0
 22 23  2  0
 23 24  1  0
 24 25  2  0
 25 26  1  0
 26 27  2  0
 27 28  1  0
 28 29  2  0
 12  7  1  0
 19 13  1  0
 29 20  1  0
 28 23  1  0
  3 30  1  0
  4 31  1  0
  4 32  1  0
  8 33  1  0
  8 34  1  0
  9 35  1  0
  9 36  1  0
 10 37  1  0
 10 38  1  0
 11 39  1  0
 11 40  1  0
 12 41  1  6
 14 42  1  0
 15 43  1  0
 16 44  1  0
 19 45  1  0
 21 46  1  0
 22 47  1  0
 24 48  1  0
 25 49  1  0
 26 50  1  0
 27 51  1  0
M  END
>  <smiles>  (38) 
O=C(NCC(=O)N1CCCCC1c1cccc(F)c1)c1ccc2ccccc2n1

>  <score_type>  (38) 
oracle

>  <origin>  (38) 
autodockgpu

>  <m_score__min__energy>  (38) 
-8.9299999999999997

>  <m_primary>  (38) 
energy

>  <rmsd>  (38) 
2.332681371272714

>  <m_score__min__rmsd>  (38) 
2.332681371272714

>  <meeko>  (38) 
{"free_energy": -8.49, "intermolecular_energy": -9.99, "internal_energy": -1.67, "cluster_size": 13, "cluster_id": 1, "rank_in_cluster": 4}

>  <energy>  (38) 
-7.39

>  <cluster_rmsd>  (38) 
0.0

>  <cluster>  (38) 
5

$$$$

     RDKit          3D

 51 54  0  0  0  0  0  0  0  0999 V2000
  141.1260   71.8240  221.4170 O   0  0  0  0  0  0  0  0  0  0  0  0
  140.5090   72.2700  222.4180 C   0  0  0  0  0  0  0  0  0  0  0  0
  140.0000   73.6350  222.3340 N   0  0  0  0  0  0  0  0  0  0  0  0
  140.2600   74.3170  221.1260 C   0  0  0  0  0  0  0  0  0  0  0  0
  141.1040   75.4980  221.0920 C   0  0  0  0  0  0  0  0  0  0  0  0
  141.4360   75.9280  222.2850 O   0  0  0  0  0  0  0  0  0  0  0  0
  141.6210   76.2530  220.0400 N   0  0  0  0  0  0  0  0  0  0  0  0
  141.2150   77.6110  219.6750 C   0  0  0  0  0  0  0  0  0  0  0  0
  141.8220   77.9570  218.3240 C   0  0  0  0  0  0  0  0  0  0  0  0
  141.7250   76.8760  217.3050 C   0  0  0  0  0  0  0  0  0  0  0  0
  142.0360   75.4770  217.8690 C   0  0  0  0  0  0  0  0  0  0  0  0
  142.6900   75.7150  219.1680 C   0  0  2  0  0  0  0  0  0  0  0  0
  143.4900   74.6620  219.7590 C   0  0  0  0  0  0  0  0  0  0  0  0
  144.6470   74.8860  220.4740 C   0  0  0  0  0  0  0  0  0  0  0  0
  145.3620   73.8360  221.0100 C   0  0  0  0  0  0  0  0  0  0  0  0
  144.9550   72.5360  220.8550 C   0  0  0  0  0  0  0  0  0  0  0  0
  143.8100   72.2870  220.1500 C   0  0  0  0  0  0  0  0  0  0  0  0
  143.4120   70.9960  220.0000 F   0  0  0  0  0  0  0  0  0  0  0  0
  143.0810   73.3440  219.6040 C   0  0  0  0  0  0  0  0  0  0  0  0
  140.2910   71.4900  223.6190 C   0  0  0  0  0  0  0  0  0  0  0  0
  139.6480   70.2930  223.5090 C   0  0  0  0  0  0  0  0  0  0  0  0
  139.4430   69.5500  224.6530 C   0  0  0  0  0  0  0  0  0  0  0  0
  139.8580   69.9620  225.9050 C   0  0  0  0  0  0  0  0  0  0  0  0
  139.6490   69.2150  227.0440 C   0  0  0  0  0  0  0  0  0  0  0  0
  140.0830   69.6680  228.2820 C   0  0  0  0  0  0  0  0  0  0  0  0
  140.7280   70.8890  228.3250 C   0  0  0  0  0  0  0  0  0  0  0  0
  140.9460   71.6540  227.1820 C   0  0  0  0  0  0  0  0  0  0  0  0
  140.5060   71.1850  225.9680 C   0  0  0  0  0  0  0  0  0  0  0  0
  140.6920   71.8850  224.8350 N   0  0  0  0  0  0  0  0  0  0  0  0
  139.5140   73.9430  223.1860 H   0  0  0  0  0  0  0  0  0  0  0  0
  140.7228   73.5843  220.4485 H   0  0  0  0  0  0  0  0  0  0  0  0
  139.2717   74.7230  220.8643 H   0  0  0  0  0  0  0  0  0  0  0  0
  140.1181   77.6648  219.6123 H   0  0  0  0  0  0  0  0  0  0  0  0
  141.5657   78.3235  220.4361 H   0  0  0  0  0  0  0  0  0  0  0  0
  141.3039   78.8449  217.9325 H   0  0  0  0  0  0  0  0  0  0  0  0
  142.8950   78.1250  218.4986 H   0  0  0  0  0  0  0  0  0  0  0  0
  140.7026   76.8694  216.8993 H   0  0  0  0  0  0  0  0  0  0  0  0
  142.4769   77.0896  216.5310 H   0  0  0  0  0  0  0  0  0  0  0  0
  141.1082   74.9019  218.0049 H   0  0  0  0  0  0  0  0  0  0  0  0
  142.6759   74.8951  217.1894 H   0  0  0  0  0  0  0  0  0  0  0  0
  143.5172   76.4231  219.0123 H   0  0  0  0  0  0  0  0  0  0  0  0
  145.0046   75.9161  220.6189 H   0  0  0  0  0  0  0  0  0  0  0  0
  146.2815   74.0465  221.5758 H   0  0  0  0  0  0  0  0  0  0  0  0
  145.5377   71.7100  221.2889 H   0  0  0  0  0  0  0  0  0  0  0  0
  142.1624   73.1286  219.0385 H   0  0  0  0  0  0  0  0  0  0  0  0
  139.3008   69.9282  222.5310 H   0  0  0  0  0  0  0  0  0  0  0  0
  138.9246   68.5838  224.5644 H   0  0  0  0  0  0  0  0  0  0  0  0
  139.1315   68.2471  226.9710 H   0  0  0  0  0  0  0  0  0  0  0  0
  139.9195   69.0768  229.1951 H   0  0  0  0  0  0  0  0  0  0  0  0
  141.0812   71.2697  229.2947 H   0  0  0  0  0  0  0  0  0  0  0  0
  141.4641   72.6219  227.2503 H   0  0  0  0  0  0  0  0  0  0  0  0
  1  2  2  0
  2  3  1  0
  3  4  1  0
  4  5  1  0
  5  6  2  0
  5  7  1  0
  7  8  1  0
  8  9  1  0
  9 10  1  0
 10 11  1  0
 11 12  1  0
 12 13  1  0
 13 14  2  0
 14 15  1  0
 15 16  2  0
 16 17  1  0
 17 18  1  0
 17 19  2  0
  2 20  1  0
 20 21  2  0
 21 22  1  0
 22 23  2  0
 23 24  1  0
 24 25  2  0
 25 26  1  0
 26 27  2  0
 27 28  1  0
 28 29  2  0
 12  7  1  0
 19 13  1  0
 29 20  1  0
 28 23  1  0
  3 30  1  0
  4 31  1  0
  4 32  1  0
  8 33  1  0
  8 34  1  0
  9 35  1  0
  9 36  1  0
 10 37  1  0
 10 38  1  0
 11 39  1  0
 11 40  1  0
 12 41  1  6
 14 42  1  0
 15 43  1  0
 16 44  1  0
 19 45  1  0
 21 46  1  0
 22 47  1  0
 24 48  1  0
 25 49  1  0
 26 50  1  0
 27 51  1  0
M  END
>  <smiles>  (39) 
O=C(NCC(=O)N1CCCCC1c1cccc(F)c1)c1ccc2ccccc2n1

>  <score_type>  (39) 
oracle

>  <origin>  (39) 
autodockgpu

>  <m_score__min__energy>  (39) 
-8.9299999999999997

>  <m_primary>  (39) 
energy

>  <rmsd>  (39) 
2.181760422295906

>  <m_score__min__rmsd>  (39) 
2.181760422295906

>  <meeko>  (39) 
{"free_energy": -8.21, "intermolecular_energy": -9.7, "internal_energy": -1.76, "cluster_size": 13, "cluster_id": 1, "rank_in_cluster": 10}

>  <energy>  (39) 
-7.36

>  <cluster_rmsd>  (39) 
0.08

>  <cluster>  (39) 
5

$$$$

     RDKit          3D

 51 54  0  0  0  0  0  0  0  0999 V2000
  140.6000   77.0290  218.6010 O   0  0  0  0  0  0  0  0  0  0  0  0
  141.7770   77.0220  219.0450 C   0  0  0  0  0  0  0  0  0  0  0  0
  142.3430   78.3020  219.4570 N   0  0  0  0  0  0  0  0  0  0  0  0
  141.4990   79.4240  219.3110 C   0  0  0  0  0  0  0  0  0  0  0  0
  140.6960   79.9130  220.4170 C   0  0  0  0  0  0  0  0  0  0  0  0
  139.4240   80.0260  220.1210 O   0  0  0  0  0  0  0  0  0  0  0  0
  141.0210   80.2830  221.7220 N   0  0  0  0  0  0  0  0  0  0  0  0
  141.2860   81.6440  222.1900 C   0  0  0  0  0  0  0  0  0  0  0  0
  141.8600   81.5740  223.5960 C   0  0  0  0  0  0  0  0  0  0  0  0
  142.9000   80.5280  223.7920 C   0  0  0  0  0  0  0  0  0  0  0  0
  142.5510   79.1880  223.1170 C   0  0  0  0  0  0  0  0  0  0  0  0
  141.1150   79.2720  222.7990 C   0  0  2  0  0  0  0  0  0  0  0  0
  140.3720   78.0510  222.5610 C   0  0  0  0  0  0  0  0  0  0  0  0
  138.9990   77.9560  222.6560 C   0  0  0  0  0  0  0  0  0  0  0  0
  138.3550   76.7620  222.4160 C   0  0  0  0  0  0  0  0  0  0  0  0
  139.0470   75.6270  222.0750 C   0  0  0  0  0  0  0  0  0  0  0  0
  140.4090   75.6950  221.9740 C   0  0  0  0  0  0  0  0  0  0  0  0
  141.0880   74.5680  221.6360 F   0  0  0  0  0  0  0  0  0  0  0  0
  141.0680   76.9010  222.2160 C   0  0  0  0  0  0  0  0  0  0  0  0
  142.5670   75.8120  219.1570 C   0  0  0  0  0  0  0  0  0  0  0  0
  142.1700   74.7100  218.4600 C   0  0  0  0  0  0  0  0  0  0  0  0
  142.9240   73.5590  218.5670 C   0  0  0  0  0  0  0  0  0  0  0  0
  144.0600   73.4710  219.3480 C   0  0  0  0  0  0  0  0  0  0  0  0
  144.8080   72.3180  219.4500 C   0  0  0  0  0  0  0  0  0  0  0  0
  145.9440   72.2740  220.2460 C   0  0  0  0  0  0  0  0  0  0  0  0
  146.2910   73.4250  220.9260 C   0  0  0  0  0  0  0  0  0  0  0  0
  145.5450   74.5980  220.8320 C   0  0  0  0  0  0  0  0  0  0  0  0
  144.4240   74.6150  220.0380 C   0  0  0  0  0  0  0  0  0  0  0  0
  143.6700   75.7220  219.9120 N   0  0  0  0  0  0  0  0  0  0  0  0
  143.3090   78.2300  219.8000 H   0  0  0  0  0  0  0  0  0  0  0  0
  142.1433   80.2598  219.0008 H   0  0  0  0  0  0  0  0  0  0  0  0
  140.7372   79.0593  218.6062 H   0  0  0  0  0  0  0  0  0  0  0  0
  142.0086   82.1317  221.5192 H   0  0  0  0  0  0  0  0  0  0  0  0
  140.3528   82.2264  222.1952 H   0  0  0  0  0  0  0  0  0  0  0  0
  142.3076   82.5506  223.8323 H   0  0  0  0  0  0  0  0  0  0  0  0
  141.0240   81.3089  224.2599 H   0  0  0  0  0  0  0  0  0  0  0  0
  143.8478   80.8947  223.3709 H   0  0  0  0  0  0  0  0  0  0  0  0
  142.9725   80.3391  224.8732 H   0  0  0  0  0  0  0  0  0  0  0  0
  143.1414   79.0546  222.1985 H   0  0  0  0  0  0  0  0  0  0  0  0
  142.7760   78.3310  223.7688 H   0  0  0  0  0  0  0  0  0  0  0  0
  140.5766   79.5648  223.7124 H   0  0  0  0  0  0  0  0  0  0  0  0
  138.4108   78.8452  222.9269 H   0  0  0  0  0  0  0  0  0  0  0  0
  137.2591   76.7173  222.4998 H   0  0  0  0  0  0  0  0  0  0  0  0
  138.5168   74.6818  221.8867 H   0  0  0  0  0  0  0  0  0  0  0  0
  142.1640   76.9410  222.1314 H   0  0  0  0  0  0  0  0  0  0  0  0
  141.2704   74.7374  217.8275 H   0  0  0  0  0  0  0  0  0  0  0  0
  142.6053   72.6696  218.0037 H   0  0  0  0  0  0  0  0  0  0  0  0
  144.5005   71.4206  218.8931 H   0  0  0  0  0  0  0  0  0  0  0  0
  146.5454   71.3570  220.3321 H   0  0  0  0  0  0  0  0  0  0  0  0
  147.1872   73.4153  221.5637 H   0  0  0  0  0  0  0  0  0  0  0  0
  145.8495   75.4982  221.3860 H   0  0  0  0  0  0  0  0  0  0  0  0
  1  2  2  0
  2  3  1  0
  3  4  1  0
  4  5  1  0
  5  6  2  0
  5  7  1  0
  7  8  1  0
  8  9  1  0
  9 10  1  0
 10 11  1  0
 11 12  1  0
 12 13  1  0
 13 14  2  0
 14 15  1  0
 15 16  2  0
 16 17  1  0
 17 18  1  0
 17 19  2  0
  2 20  1  0
 20 21  2  0
 21 22  1  0
 22 23  2  0
 23 24  1  0
 24 25  2  0
 25 26  1  0
 26 27  2  0
 27 28  1  0
 28 29  2  0
 12  7  1  0
 19 13  1  0
 29 20  1  0
 28 23  1  0
  3 30  1  0
  4 31  1  0
  4 32  1  0
  8 33  1  0
  8 34  1  0
  9 35  1  0
  9 36  1  0
 10 37  1  0
 10 38  1  0
 11 39  1  0
 11 40  1  0
 12 41  1  1
 14 42  1  0
 15 43  1  0
 16 44  1  0
 19 45  1  0
 21 46  1  0
 22 47  1  0
 24 48  1  0
 25 49  1  0
 26 50  1  0
 27 51  1  0
M  END
>  <smiles>  (40) 
O=C(NCC(=O)N1CCCCC1c1cccc(F)c1)c1ccc2ccccc2n1

>  <score_type>  (40) 
oracle

>  <origin>  (40) 
autodockgpu

>  <m_score__min__energy>  (40) 
-8.9299999999999997

>  <m_primary>  (40) 
energy

>  <rmsd>  (40) 
7.644229363111695

>  <m_score__min__rmsd>  (40) 
7.644229363111695

>  <meeko>  (40) 
{"free_energy": -7.39, "intermolecular_energy": -8.88, "internal_energy": -2.6, "cluster_size": 13, "cluster_id": 5, "rank_in_cluster": 1}

>  <energy>  (40) 
-7.35

>  <cluster_rmsd>  (40) 
0.11

>  <cluster>  (40) 
5

$$$$

     RDKit          3D

 51 54  0  0  0  0  0  0  0  0999 V2000
  140.6000   77.0890  218.3680 O   0  0  0  0  0  0  0  0  0  0  0  0
  141.6760   77.0400  219.0190 C   0  0  0  0  0  0  0  0  0  0  0  0
  142.1400   78.2780  219.6350 N   0  0  0  0  0  0  0  0  0  0  0  0
  141.3240   79.4120  219.4310 C   0  0  0  0  0  0  0  0  0  0  0  0
  140.6120   80.0360  220.5320 C   0  0  0  0  0  0  0  0  0  0  0  0
  139.3880   80.3860  220.2220 O   0  0  0  0  0  0  0  0  0  0  0  0
  140.9840   80.3320  221.8430 N   0  0  0  0  0  0  0  0  0  0  0  0
  141.2680   81.6650  222.3760 C   0  0  0  0  0  0  0  0  0  0  0  0
  141.8920   81.5170  223.7550 C   0  0  0  0  0  0  0  0  0  0  0  0
  142.9370   80.4610  223.8550 C   0  0  0  0  0  0  0  0  0  0  0  0
  142.5620   79.1620  223.1190 C   0  0  0  0  0  0  0  0  0  0  0  0
  141.1150   79.2630  222.8580 C   0  0  2  0  0  0  0  0  0  0  0  0
  140.3620   78.0570  222.5780 C   0  0  0  0  0  0  0  0  0  0  0  0
  138.9850   77.9900  222.5960 C   0  0  0  0  0  0  0  0  0  0  0  0
  138.3300   76.8090  222.3200 C   0  0  0  0  0  0  0  0  0  0  0  0
  139.0180   75.6600  222.0190 C   0  0  0  0  0  0  0  0  0  0  0  0
  140.3840   75.7000  221.9940 C   0  0  0  0  0  0  0  0  0  0  0  0
  141.0580   74.5590  221.6950 F   0  0  0  0  0  0  0  0  0  0  0  0
  141.0530   76.8930  222.2730 C   0  0  0  0  0  0  0  0  0  0  0  0
  142.4460   75.8220  219.1720 C   0  0  0  0  0  0  0  0  0  0  0  0
  142.0160   74.6970  218.5340 C   0  0  0  0  0  0  0  0  0  0  0  0
  142.7500   73.5380  218.6800 C   0  0  0  0  0  0  0  0  0  0  0  0
  143.9000   73.4640  219.4430 C   0  0  0  0  0  0  0  0  0  0  0  0
  144.6290   72.3030  219.5840 C   0  0  0  0  0  0  0  0  0  0  0  0
  145.7790   72.2750  220.3610 C   0  0  0  0  0  0  0  0  0  0  0  0
  146.1600   73.4490  220.9810 C   0  0  0  0  0  0  0  0  0  0  0  0
  145.4330   74.6300  220.8460 C   0  0  0  0  0  0  0  0  0  0  0  0
  144.2980   74.6320  220.0730 C   0  0  0  0  0  0  0  0  0  0  0  0
  143.5610   75.7450  219.9100 N   0  0  0  0  0  0  0  0  0  0  0  0
  143.0270   78.1730  220.1440 H   0  0  0  0  0  0  0  0  0  0  0  0
  141.9724   80.1887  218.9993 H   0  0  0  0  0  0  0  0  0  0  0  0
  140.5062   79.0102  218.8147 H   0  0  0  0  0  0  0  0  0  0  0  0
  141.9671   82.1894  221.7079 H   0  0  0  0  0  0  0  0  0  0  0  0
  140.3367   82.2461  222.4469 H   0  0  0  0  0  0  0  0  0  0  0  0
  142.3497   82.4790  224.0290 H   0  0  0  0  0  0  0  0  0  0  0  0
  141.0798   81.2155  224.4328 H   0  0  0  0  0  0  0  0  0  0  0  0
  143.8700   80.8509  223.4219 H   0  0  0  0  0  0  0  0  0  0  0  0
  143.0474   80.2116  224.9206 H   0  0  0  0  0  0  0  0  0  0  0  0
  143.1187   79.0809  222.1737 H   0  0  0  0  0  0  0  0  0  0  0  0
  142.8089   78.2697  223.7130 H   0  0  0  0  0  0  0  0  0  0  0  0
  140.6107   79.5038  223.8055 H   0  0  0  0  0  0  0  0  0  0  0  0
  138.4011   78.8914  222.8339 H   0  0  0  0  0  0  0  0  0  0  0  0
  137.2304   76.7868  222.3415 H   0  0  0  0  0  0  0  0  0  0  0  0
  138.4804   74.7251  221.8021 H   0  0  0  0  0  0  0  0  0  0  0  0
  142.1526   76.9107  222.2505 H   0  0  0  0  0  0  0  0  0  0  0  0
  141.1053   74.7127  217.9173 H   0  0  0  0  0  0  0  0  0  0  0  0
  142.4036   72.6299  218.1648 H   0  0  0  0  0  0  0  0  0  0  0  0
  144.2954   71.3870  219.0744 H   0  0  0  0  0  0  0  0  0  0  0  0
  146.3653   71.3518  220.4786 H   0  0  0  0  0  0  0  0  0  0  0  0
  147.0678   73.4517  221.6022 H   0  0  0  0  0  0  0  0  0  0  0  0
  145.7640   75.5489  221.3521 H   0  0  0  0  0  0  0  0  0  0  0  0
  1  2  2  0
  2  3  1  0
  3  4  1  0
  4  5  1  0
  5  6  2  0
  5  7  1  0
  7  8  1  0
  8  9  1  0
  9 10  1  0
 10 11  1  0
 11 12  1  0
 12 13  1  0
 13 14  2  0
 14 15  1  0
 15 16  2  0
 16 17  1  0
 17 18  1  0
 17 19  2  0
  2 20  1  0
 20 21  2  0
 21 22  1  0
 22 23  2  0
 23 24  1  0
 24 25  2  0
 25 26  1  0
 26 27  2  0
 27 28  1  0
 28 29  2  0
 12  7  1  0
 19 13  1  0
 29 20  1  0
 28 23  1  0
  3 30  1  0
  4 31  1  0
  4 32  1  0
  8 33  1  0
  8 34  1  0
  9 35  1  0
  9 36  1  0
 10 37  1  0
 10 38  1  0
 11 39  1  0
 11 40  1  0
 12 41  1  1
 14 42  1  0
 15 43  1  0
 16 44  1  0
 19 45  1  0
 21 46  1  0
 22 47  1  0
 24 48  1  0
 25 49  1  0
 26 50  1  0
 27 51  1  0
M  END
>  <smiles>  (41) 
O=C(NCC(=O)N1CCCCC1c1cccc(F)c1)c1ccc2ccccc2n1

>  <score_type>  (41) 
oracle

>  <origin>  (41) 
autodockgpu

>  <m_score__min__energy>  (41) 
-8.9299999999999997

>  <m_primary>  (41) 
energy

>  <rmsd>  (41) 
7.587825979743858

>  <m_score__min__rmsd>  (41) 
7.587825979743858

>  <meeko>  (41) 
{"free_energy": -7.31, "intermolecular_energy": -8.8, "internal_energy": -2.64, "cluster_size": 13, "cluster_id": 5, "rank_in_cluster": 8}

>  <energy>  (41) 
-7.35

>  <cluster_rmsd>  (41) 
0.1

>  <cluster>  (41) 
5

$$$$

     RDKit          3D

 51 54  0  0  0  0  0  0  0  0999 V2000
  139.1030   75.0620  221.5360 O   0  0  0  0  0  0  0  0  0  0  0  0
  140.2060   75.6080  221.8000 C   0  0  0  0  0  0  0  0  0  0  0  0
  141.4110   74.8120  221.5960 N   0  0  0  0  0  0  0  0  0  0  0  0
  141.2080   73.4990  221.1190 C   0  0  0  0  0  0  0  0  0  0  0  0
  141.9840   72.9710  220.0110 C   0  0  0  0  0  0  0  0  0  0  0  0
  141.2420   72.4910  219.0440 O   0  0  0  0  0  0  0  0  0  0  0  0
  143.3580   72.8780  219.7870 N   0  0  0  0  0  0  0  0  0  0  0  0
  144.1430   71.6430  219.7540 C   0  0  0  0  0  0  0  0  0  0  0  0
  145.6200   72.0030  219.7530 C   0  0  0  0  0  0  0  0  0  0  0  0
  146.0000   73.0750  220.7140 C   0  0  0  0  0  0  0  0  0  0  0  0
  145.0000   74.2450  220.7460 C   0  0  0  0  0  0  0  0  0  0  0  0
  144.1730   74.0880  219.5370 C   0  0  2  0  0  0  0  0  0  0  0  0
  143.4360   75.2290  219.0320 C   0  0  0  0  0  0  0  0  0  0  0  0
  143.2700   76.4070  219.7310 C   0  0  0  0  0  0  0  0  0  0  0  0
  142.5560   77.4550  219.1920 C   0  0  0  0  0  0  0  0  0  0  0  0
  141.9850   77.3700  217.9470 C   0  0  0  0  0  0  0  0  0  0  0  0
  142.1350   76.2140  217.2340 C   0  0  0  0  0  0  0  0  0  0  0  0
  141.5670   76.1370  216.0020 F   0  0  0  0  0  0  0  0  0  0  0  0
  142.8570   75.1480  217.7740 C   0  0  0  0  0  0  0  0  0  0  0  0
  140.3110   76.9680  222.2880 C   0  0  0  0  0  0  0  0  0  0  0  0
  139.1660   77.6340  222.6100 C   0  0  0  0  0  0  0  0  0  0  0  0
  139.2680   78.9290  223.0750 C   0  0  0  0  0  0  0  0  0  0  0  0
  140.4750   79.5830  223.2270 C   0  0  0  0  0  0  0  0  0  0  0  0
  140.5690   80.8770  223.6920 C   0  0  0  0  0  0  0  0  0  0  0  0
  141.8040   81.4960  223.8310 C   0  0  0  0  0  0  0  0  0  0  0  0
  142.9260   80.7660  223.4860 C   0  0  0  0  0  0  0  0  0  0  0  0
  142.8450   79.4580  223.0160 C   0  0  0  0  0  0  0  0  0  0  0  0
  141.6110   78.8680  222.8870 C   0  0  0  0  0  0  0  0  0  0  0  0
  141.4790   77.6070  222.4380 N   0  0  0  0  0  0  0  0  0  0  0  0
  142.2760   75.3110  221.8380 H   0  0  0  0  0  0  0  0  0  0  0  0
  141.3855   72.8270  221.9716 H   0  0  0  0  0  0  0  0  0  0  0  0
  140.1939   73.5526  220.6963 H   0  0  0  0  0  0  0  0  0  0  0  0
  143.9113   71.0336  220.6400 H   0  0  0  0  0  0  0  0  0  0  0  0
  143.8974   71.0673  218.8494 H   0  0  0  0  0  0  0  0  0  0  0  0
  146.1932   71.0985  220.0045 H   0  0  0  0  0  0  0  0  0  0  0  0
  145.8441   72.3923  218.7489 H   0  0  0  0  0  0  0  0  0  0  0  0
  146.0574   72.6369  221.7213 H   0  0  0  0  0  0  0  0  0  0  0  0
  146.9673   73.4814  220.3837 H   0  0  0  0  0  0  0  0  0  0  0  0
  144.3746   74.1918  221.6493 H   0  0  0  0  0  0  0  0  0  0  0  0
  145.5112   75.2188  220.7675 H   0  0  0  0  0  0  0  0  0  0  0  0
  144.8447   73.9849  218.6720 H   0  0  0  0  0  0  0  0  0  0  0  0
  143.7137   76.5109  220.7322 H   0  0  0  0  0  0  0  0  0  0  0  0
  142.4410   78.3817  219.7734 H   0  0  0  0  0  0  0  0  0  0  0  0
  141.4177   78.2158  217.5312 H   0  0  0  0  0  0  0  0  0  0  0  0
  142.9692   74.2233  217.1889 H   0  0  0  0  0  0  0  0  0  0  0  0
  138.1840   77.1504  222.5017 H   0  0  0  0  0  0  0  0  0  0  0  0
  138.3444   79.4660  223.3370 H   0  0  0  0  0  0  0  0  0  0  0  0
  139.6536   81.4266  223.9565 H   0  0  0  0  0  0  0  0  0  0  0  0
  141.8865   82.5284  224.2017 H   0  0  0  0  0  0  0  0  0  0  0  0
  143.9163   81.2343  223.5862 H   0  0  0  0  0  0  0  0  0  0  0  0
  143.7576   78.9039  222.7513 H   0  0  0  0  0  0  0  0  0  0  0  0
  1  2  2  0
  2  3  1  0
  3  4  1  0
  4  5  1  0
  5  6  2  0
  5  7  1  0
  7  8  1  0
  8  9  1  0
  9 10  1  0
 10 11  1  0
 11 12  1  0
 12 13  1  0
 13 14  2  0
 14 15  1  0
 15 16  2  0
 16 17  1  0
 17 18  1  0
 17 19  2  0
  2 20  1  0
 20 21  2  0
 21 22  1  0
 22 23  2  0
 23 24  1  0
 24 25  2  0
 25 26  1  0
 26 27  2  0
 27 28  1  0
 28 29  2  0
 12  7  1  0
 19 13  1  0
 29 20  1  0
 28 23  1  0
  3 30  1  0
  4 31  1  0
  4 32  1  0
  8 33  1  0
  8 34  1  0
  9 35  1  0
  9 36  1  0
 10 37  1  0
 10 38  1  0
 11 39  1  0
 11 40  1  0
 12 41  1  6
 14 42  1  0
 15 43  1  0
 16 44  1  0
 19 45  1  0
 21 46  1  0
 22 47  1  0
 24 48  1  0
 25 49  1  0
 26 50  1  0
 27 51  1  0
M  END
>  <smiles>  (42) 
O=C(NCC(=O)N1CCCCC1c1cccc(F)c1)c1ccc2ccccc2n1

>  <score_type>  (42) 
oracle

>  <origin>  (42) 
autodockgpu

>  <m_score__min__energy>  (42) 
-8.9299999999999997

>  <m_primary>  (42) 
energy

>  <rmsd>  (42) 
7.715905761633455

>  <m_score__min__rmsd>  (42) 
7.715905761633455

>  <meeko>  (42) 
{"free_energy": -7.55, "intermolecular_energy": -9.04, "internal_energy": -2.36, "cluster_size": 20, "cluster_id": 4, "rank_in_cluster": 16}

>  <energy>  (42) 
-7.34

>  <cluster_rmsd>  (42) 
0.16

>  <cluster>  (42) 
5

$$$$

     RDKit          3D

 51 54  0  0  0  0  0  0  0  0999 V2000
  140.6290   77.3540  218.2810 O   0  0  0  0  0  0  0  0  0  0  0  0
  141.6350   77.2410  219.0290 C   0  0  0  0  0  0  0  0  0  0  0  0
  142.1080   78.4480  219.6980 N   0  0  0  0  0  0  0  0  0  0  0  0
  141.3790   79.6270  219.4320 C   0  0  0  0  0  0  0  0  0  0  0  0
  140.8000   80.4140  220.5060 C   0  0  0  0  0  0  0  0  0  0  0  0
  139.7240   81.0690  220.1430 O   0  0  0  0  0  0  0  0  0  0  0  0
  141.1710   80.6030  221.8360 N   0  0  0  0  0  0  0  0  0  0  0  0
  141.5030   81.8830  222.4640 C   0  0  0  0  0  0  0  0  0  0  0  0
  142.1070   81.6140  223.8330 C   0  0  0  0  0  0  0  0  0  0  0  0
  143.1090   80.5140  223.8650 C   0  0  0  0  0  0  0  0  0  0  0  0
  142.6900   79.2850  223.0380 C   0  0  0  0  0  0  0  0  0  0  0  0
  141.2500   79.4610  222.7750 C   0  0  2  0  0  0  0  0  0  0  0  0
  140.4530   78.3090  222.4070 C   0  0  0  0  0  0  0  0  0  0  0  0
  139.1060   78.3670  222.1180 C   0  0  0  0  0  0  0  0  0  0  0  0
  138.4060   77.2310  221.7750 C   0  0  0  0  0  0  0  0  0  0  0  0
  139.0170   76.0040  221.7060 C   0  0  0  0  0  0  0  0  0  0  0  0
  140.3520   75.9190  221.9880 C   0  0  0  0  0  0  0  0  0  0  0  0
  140.9500   74.7010  221.9180 F   0  0  0  0  0  0  0  0  0  0  0  0
  141.0670   77.0660  222.3370 C   0  0  0  0  0  0  0  0  0  0  0  0
  142.3190   75.9810  219.2390 C   0  0  0  0  0  0  0  0  0  0  0  0
  141.7500   74.8430  218.7490 C   0  0  0  0  0  0  0  0  0  0  0  0
  142.4030   73.6440  218.9490 C   0  0  0  0  0  0  0  0  0  0  0  0
  143.6040   73.5430  219.6250 C   0  0  0  0  0  0  0  0  0  0  0  0
  144.2500   72.3420  219.8210 C   0  0  0  0  0  0  0  0  0  0  0  0
  145.4570   72.2860  220.5050 C   0  0  0  0  0  0  0  0  0  0  0  0
  145.9790   73.4750  220.9770 C   0  0  0  0  0  0  0  0  0  0  0  0
  145.3370   74.6960  220.7840 C   0  0  0  0  0  0  0  0  0  0  0  0
  144.1430   74.7250  220.1050 C   0  0  0  0  0  0  0  0  0  0  0  0
  143.4830   75.8770  219.8920 N   0  0  0  0  0  0  0  0  0  0  0  0
  142.9370   78.2910  220.2860 H   0  0  0  0  0  0  0  0  0  0  0  0
  142.0595   80.2975  218.8867 H   0  0  0  0  0  0  0  0  0  0  0  0
  140.4895   79.2450  218.9097 H   0  0  0  0  0  0  0  0  0  0  0  0
  142.2289   82.4242  221.8394 H   0  0  0  0  0  0  0  0  0  0  0  0
  140.5949   82.4947  222.5694 H   0  0  0  0  0  0  0  0  0  0  0  0
  142.5987   82.5356  224.1777 H   0  0  0  0  0  0  0  0  0  0  0  0
  141.2772   81.2976  224.4821 H   0  0  0  0  0  0  0  0  0  0  0  0
  144.0600   80.8961  223.4654 H   0  0  0  0  0  0  0  0  0  0  0  0
  143.2008   80.1870  224.9113 H   0  0  0  0  0  0  0  0  0  0  0  0
  143.2518   79.2475  222.0930 H   0  0  0  0  0  0  0  0  0  0  0  0
  142.8962   78.3447  223.5703 H   0  0  0  0  0  0  0  0  0  0  0  0
  140.7463   79.6547  223.7335 H   0  0  0  0  0  0  0  0  0  0  0  0
  138.5830   79.3337  222.1619 H   0  0  0  0  0  0  0  0  0  0  0  0
  137.3319   77.3093  221.5511 H   0  0  0  0  0  0  0  0  0  0  0  0
  138.4439   75.1068  221.4293 H   0  0  0  0  0  0  0  0  0  0  0  0
  142.1406   76.9830  222.5615 H   0  0  0  0  0  0  0  0  0  0  0  0
  140.7934   74.8798  218.2072 H   0  0  0  0  0  0  0  0  0  0  0  0
  141.9462   72.7256  218.5518 H   0  0  0  0  0  0  0  0  0  0  0  0
  143.8038   71.4155  219.4305 H   0  0  0  0  0  0  0  0  0  0  0  0
  145.9782   71.3307  220.6651 H   0  0  0  0  0  0  0  0  0  0  0  0
  146.9335   73.4568  221.5235 H   0  0  0  0  0  0  0  0  0  0  0  0
  145.7805   75.6255  221.1704 H   0  0  0  0  0  0  0  0  0  0  0  0
  1  2  2  0
  2  3  1  0
  3  4  1  0
  4  5  1  0
  5  6  2  0
  5  7  1  0
  7  8  1  0
  8  9  1  0
  9 10  1  0
 10 11  1  0
 11 12  1  0
 12 13  1  0
 13 14  2  0
 14 15  1  0
 15 16  2  0
 16 17  1  0
 17 18  1  0
 17 19  2  0
  2 20  1  0
 20 21  2  0
 21 22  1  0
 22 23  2  0
 23 24  1  0
 24 25  2  0
 25 26  1  0
 26 27  2  0
 27 28  1  0
 28 29  2  0
 12  7  1  0
 19 13  1  0
 29 20  1  0
 28 23  1  0
  3 30  1  0
  4 31  1  0
  4 32  1  0
  8 33  1  0
  8 34  1  0
  9 35  1  0
  9 36  1  0
 10 37  1  0
 10 38  1  0
 11 39  1  0
 11 40  1  0
 12 41  1  1
 14 42  1  0
 15 43  1  0
 16 44  1  0
 19 45  1  0
 21 46  1  0
 22 47  1  0
 24 48  1  0
 25 49  1  0
 26 50  1  0
 27 51  1  0
M  END
>  <smiles>  (43) 
O=C(NCC(=O)N1CCCCC1c1cccc(F)c1)c1ccc2ccccc2n1

>  <score_type>  (43) 
oracle

>  <origin>  (43) 
autodockgpu

>  <m_score__min__energy>  (43) 
-8.9299999999999997

>  <m_primary>  (43) 
energy

>  <rmsd>  (43) 
7.615628240476093

>  <m_score__min__rmsd>  (43) 
7.615628240476093

>  <meeko>  (43) 
{"free_energy": -7.05, "intermolecular_energy": -8.54, "internal_energy": -2.66, "cluster_size": 13, "cluster_id": 5, "rank_in_cluster": 13}

>  <energy>  (43) 
-7.33

>  <cluster_rmsd>  (43) 
0.16

>  <cluster>  (43) 
5

$$$$

     RDKit          3D

 51 54  0  0  0  0  0  0  0  0999 V2000
  140.6000   77.0170  218.4590 O   0  0  0  0  0  0  0  0  0  0  0  0
  141.7030   76.9920  219.0620 C   0  0  0  0  0  0  0  0  0  0  0  0
  142.1920   78.2520  219.6110 N   0  0  0  0  0  0  0  0  0  0  0  0
  141.3660   79.3770  219.4030 C   0  0  0  0  0  0  0  0  0  0  0  0
  140.6410   79.9940  220.5000 C   0  0  0  0  0  0  0  0  0  0  0  0
  139.4140   80.3260  220.1850 O   0  0  0  0  0  0  0  0  0  0  0  0
  141.0050   80.2980  221.8120 N   0  0  0  0  0  0  0  0  0  0  0  0
  141.2870   81.6330  222.3400 C   0  0  0  0  0  0  0  0  0  0  0  0
  141.9000   81.4920  223.7240 C   0  0  0  0  0  0  0  0  0  0  0  0
  142.9440   80.4360  223.8370 C   0  0  0  0  0  0  0  0  0  0  0  0
  142.5720   79.1330  223.1060 C   0  0  0  0  0  0  0  0  0  0  0  0
  141.1270   79.2340  222.8340 C   0  0  2  0  0  0  0  0  0  0  0  0
  140.3760   78.0270  222.5560 C   0  0  0  0  0  0  0  0  0  0  0  0
  138.9980   77.9610  222.5640 C   0  0  0  0  0  0  0  0  0  0  0  0
  138.3450   76.7790  222.2900 C   0  0  0  0  0  0  0  0  0  0  0  0
  139.0330   75.6280  222.0020 C   0  0  0  0  0  0  0  0  0  0  0  0
  140.3990   75.6660  221.9880 C   0  0  0  0  0  0  0  0  0  0  0  0
  141.0740   74.5220  221.7020 F   0  0  0  0  0  0  0  0  0  0  0  0
  141.0680   76.8600  222.2640 C   0  0  0  0  0  0  0  0  0  0  0  0
  142.4820   75.7810  219.2240 C   0  0  0  0  0  0  0  0  0  0  0  0
  142.0430   74.6400  218.6200 C   0  0  0  0  0  0  0  0  0  0  0  0
  142.7860   73.4880  218.7750 C   0  0  0  0  0  0  0  0  0  0  0  0
  143.9530   73.4360  219.5140 C   0  0  0  0  0  0  0  0  0  0  0  0
  144.6890   72.2810  219.6640 C   0  0  0  0  0  0  0  0  0  0  0  0
  145.8570   72.2740  220.4150 C   0  0  0  0  0  0  0  0  0  0  0  0
  146.2450   73.4630  221.0010 C   0  0  0  0  0  0  0  0  0  0  0  0
  145.5110   74.6370  220.8570 C   0  0  0  0  0  0  0  0  0  0  0  0
  144.3590   74.6180  220.1090 C   0  0  0  0  0  0  0  0  0  0  0  0
  143.6130   75.7250  219.9390 N   0  0  0  0  0  0  0  0  0  0  0  0
  143.1020   78.1660  220.0830 H   0  0  0  0  0  0  0  0  0  0  0  0
  142.0089   80.1603  218.9751 H   0  0  0  0  0  0  0  0  0  0  0  0
  140.5558   78.9666  218.7824 H   0  0  0  0  0  0  0  0  0  0  0  0
  141.9920   82.1527  221.6744 H   0  0  0  0  0  0  0  0  0  0  0  0
  140.3560   82.2157  222.4008 H   0  0  0  0  0  0  0  0  0  0  0  0
  142.3559   82.4552  223.9967 H   0  0  0  0  0  0  0  0  0  0  0  0
  141.0826   81.1944  224.3972 H   0  0  0  0  0  0  0  0  0  0  0  0
  143.8800   80.8226  223.4075 H   0  0  0  0  0  0  0  0  0  0  0  0
  143.0481   80.1929  224.9047 H   0  0  0  0  0  0  0  0  0  0  0  0
  143.1353   79.0455  222.1652 H   0  0  0  0  0  0  0  0  0  0  0  0
  142.8133   78.2441  223.7073 H   0  0  0  0  0  0  0  0  0  0  0  0
  140.6148   79.4810  223.7756 H   0  0  0  0  0  0  0  0  0  0  0  0
  138.4128   78.8640  222.7922 H   0  0  0  0  0  0  0  0  0  0  0  0
  137.2453   76.7580  222.3025 H   0  0  0  0  0  0  0  0  0  0  0  0
  138.4958   74.6926  221.7865 H   0  0  0  0  0  0  0  0  0  0  0  0
  142.1678   76.8761  222.2497 H   0  0  0  0  0  0  0  0  0  0  0  0
  141.1187   74.6382  218.0236 H   0  0  0  0  0  0  0  0  0  0  0  0
  142.4331   72.5673  218.2874 H   0  0  0  0  0  0  0  0  0  0  0  0
  144.3471   71.3528  219.1828 H   0  0  0  0  0  0  0  0  0  0  0  0
  146.4507   71.3563  220.5385 H   0  0  0  0  0  0  0  0  0  0  0  0
  147.1659   73.4829  221.6023 H   0  0  0  0  0  0  0  0  0  0  0  0
  145.8491   75.5678  221.3359 H   0  0  0  0  0  0  0  0  0  0  0  0
  1  2  2  0
  2  3  1  0
  3  4  1  0
  4  5  1  0
  5  6  2  0
  5  7  1  0
  7  8  1  0
  8  9  1  0
  9 10  1  0
 10 11  1  0
 11 12  1  0
 12 13  1  0
 13 14  2  0
 14 15  1  0
 15 16  2  0
 16 17  1  0
 17 18  1  0
 17 19  2  0
  2 20  1  0
 20 21  2  0
 21 22  1  0
 22 23  2  0
 23 24  1  0
 24 25  2  0
 25 26  1  0
 26 27  2  0
 27 28  1  0
 28 29  2  0
 12  7  1  0
 19 13  1  0
 29 20  1  0
 28 23  1  0
  3 30  1  0
  4 31  1  0
  4 32  1  0
  8 33  1  0
  8 34  1  0
  9 35  1  0
  9 36  1  0
 10 37  1  0
 10 38  1  0
 11 39  1  0
 11 40  1  0
 12 41  1  1
 14 42  1  0
 15 43  1  0
 16 44  1  0
 19 45  1  0
 21 46  1  0
 22 47  1  0
 24 48  1  0
 25 49  1  0
 26 50  1  0
 27 51  1  0
M  END
>  <smiles>  (44) 
O=C(NCC(=O)N1CCCCC1c1cccc(F)c1)c1ccc2ccccc2n1

>  <score_type>  (44) 
oracle

>  <origin>  (44) 
autodockgpu

>  <m_score__min__energy>  (44) 
-8.9299999999999997

>  <m_primary>  (44) 
energy

>  <rmsd>  (44) 
7.564297609726255

>  <m_score__min__rmsd>  (44) 
7.564297609726255

>  <meeko>  (44) 
{"free_energy": -7.32, "intermolecular_energy": -8.81, "internal_energy": -2.65, "cluster_size": 13, "cluster_id": 5, "rank_in_cluster": 7}

>  <energy>  (44) 
-7.32

>  <cluster_rmsd>  (44) 
0.16

>  <cluster>  (44) 
5

$$$$

     RDKit          3D

 51 54  0  0  0  0  0  0  0  0999 V2000
  139.1180   75.3010  221.2800 O   0  0  0  0  0  0  0  0  0  0  0  0
  140.1920   75.7890  221.7160 C   0  0  0  0  0  0  0  0  0  0  0  0
  141.3790   74.9440  221.6620 N   0  0  0  0  0  0  0  0  0  0  0  0
  141.1940   73.6540  221.1210 C   0  0  0  0  0  0  0  0  0  0  0  0
  141.9400   73.2090  219.9570 C   0  0  0  0  0  0  0  0  0  0  0  0
  141.1780   72.9600  218.9200 O   0  0  0  0  0  0  0  0  0  0  0  0
  143.3010   72.9980  219.7390 N   0  0  0  0  0  0  0  0  0  0  0  0
  143.9890   71.7070  219.7780 C   0  0  0  0  0  0  0  0  0  0  0  0
  145.4890   71.9510  219.7560 C   0  0  0  0  0  0  0  0  0  0  0  0
  145.9550   73.0440  220.6540 C   0  0  0  0  0  0  0  0  0  0  0  0
  145.0480   74.2880  220.6180 C   0  0  0  0  0  0  0  0  0  0  0  0
  144.2060   74.1260  219.4200 C   0  0  2  0  0  0  0  0  0  0  0  0
  143.5570   75.2890  218.8500 C   0  0  0  0  0  0  0  0  0  0  0  0
  143.2980   75.4420  217.5040 C   0  0  0  0  0  0  0  0  0  0  0  0
  142.6770   76.5760  217.0270 C   0  0  0  0  0  0  0  0  0  0  0  0
  142.2940   77.5920  217.8660 C   0  0  0  0  0  0  0  0  0  0  0  0
  142.5390   77.4650  219.2050 C   0  0  0  0  0  0  0  0  0  0  0  0
  142.1570   78.4750  220.0300 F   0  0  0  0  0  0  0  0  0  0  0  0
  143.1680   76.3190  219.6950 C   0  0  0  0  0  0  0  0  0  0  0  0
  140.2820   77.1310  222.2560 C   0  0  0  0  0  0  0  0  0  0  0  0
  139.1290   77.7770  222.5880 C   0  0  0  0  0  0  0  0  0  0  0  0
  139.2160   79.0550  223.1020 C   0  0  0  0  0  0  0  0  0  0  0  0
  140.4180   79.7090  223.2950 C   0  0  0  0  0  0  0  0  0  0  0  0
  140.4980   80.9860  223.8090 C   0  0  0  0  0  0  0  0  0  0  0  0
  141.7270   81.6060  223.9870 C   0  0  0  0  0  0  0  0  0  0  0  0
  142.8570   80.8960  223.6300 C   0  0  0  0  0  0  0  0  0  0  0  0
  142.7910   79.6060  223.1100 C   0  0  0  0  0  0  0  0  0  0  0  0
  141.5630   79.0140  222.9430 C   0  0  0  0  0  0  0  0  0  0  0  0
  141.4440   77.7700  222.4450 N   0  0  0  0  0  0  0  0  0  0  0  0
  142.2210   75.3970  222.0420 H   0  0  0  0  0  0  0  0  0  0  0  0
  141.4230   72.9424  221.9280 H   0  0  0  0  0  0  0  0  0  0  0  0
  140.1633   73.7012  220.7396 H   0  0  0  0  0  0  0  0  0  0  0  0
  143.7152   71.1697  220.6980 H   0  0  0  0  0  0  0  0  0  0  0  0
  143.6960   71.1007  218.9082 H   0  0  0  0  0  0  0  0  0  0  0  0
  145.9919   71.0208  220.0589 H   0  0  0  0  0  0  0  0  0  0  0  0
  145.7379   72.2636  218.7311 H   0  0  0  0  0  0  0  0  0  0  0  0
  145.9826   72.6614  221.6850 H   0  0  0  0  0  0  0  0  0  0  0  0
  146.9495   73.3547  220.3013 H   0  0  0  0  0  0  0  0  0  0  0  0
  144.4243   74.3355  221.5228 H   0  0  0  0  0  0  0  0  0  0  0  0
  145.6330   75.2189  220.5831 H   0  0  0  0  0  0  0  0  0  0  0  0
  144.8642   73.9220  218.5626 H   0  0  0  0  0  0  0  0  0  0  0  0
  143.5912   74.6479  216.8015 H   0  0  0  0  0  0  0  0  0  0  0  0
  142.4838   76.6689  215.9481 H   0  0  0  0  0  0  0  0  0  0  0  0
  141.7996   78.4909  217.4691 H   0  0  0  0  0  0  0  0  0  0  0  0
  143.3595   76.2304  220.7746 H   0  0  0  0  0  0  0  0  0  0  0  0
  138.1518   77.2913  222.4496 H   0  0  0  0  0  0  0  0  0  0  0  0
  138.2857   79.5770  223.3704 H   0  0  0  0  0  0  0  0  0  0  0  0
  139.5759   81.5203  224.0815 H   0  0  0  0  0  0  0  0  0  0  0  0
  141.7985   82.6243  224.3969 H   0  0  0  0  0  0  0  0  0  0  0  0
  143.8429   81.3659  223.7611 H   0  0  0  0  0  0  0  0  0  0  0  0
  143.7106   79.0679  222.8365 H   0  0  0  0  0  0  0  0  0  0  0  0
  1  2  2  0
  2  3  1  0
  3  4  1  0
  4  5  1  0
  5  6  2  0
  5  7  1  0
  7  8  1  0
  8  9  1  0
  9 10  1  0
 10 11  1  0
 11 12  1  0
 12 13  1  0
 13 14  2  0
 14 15  1  0
 15 16  2  0
 16 17  1  0
 17 18  1  0
 17 19  2  0
  2 20  1  0
 20 21  2  0
 21 22  1  0
 22 23  2  0
 23 24  1  0
 24 25  2  0
 25 26  1  0
 26 27  2  0
 27 28  1  0
 28 29  2  0
 12  7  1  0
 19 13  1  0
 29 20  1  0
 28 23  1  0
  3 30  1  0
  4 31  1  0
  4 32  1  0
  8 33  1  0
  8 34  1  0
  9 35  1  0
  9 36  1  0
 10 37  1  0
 10 38  1  0
 11 39  1  0
 11 40  1  0
 12 41  1  6
 14 42  1  0
 15 43  1  0
 16 44  1  0
 19 45  1  0
 21 46  1  0
 22 47  1  0
 24 48  1  0
 25 49  1  0
 26 50  1  0
 27 51  1  0
M  END
>  <smiles>  (45) 
O=C(NCC(=O)N1CCCCC1c1cccc(F)c1)c1ccc2ccccc2n1

>  <score_type>  (45) 
oracle

>  <origin>  (45) 
autodockgpu

>  <m_score__min__energy>  (45) 
-8.9299999999999997

>  <m_primary>  (45) 
energy

>  <rmsd>  (45) 
7.748398314595397

>  <m_score__min__rmsd>  (45) 
7.748398314595397

>  <meeko>  (45) 
{"free_energy": -7.62, "intermolecular_energy": -9.11, "internal_energy": -2.33, "cluster_size": 20, "cluster_id": 4, "rank_in_cluster": 10}

>  <energy>  (45) 
-7.31

>  <cluster_rmsd>  (45) 
0.18

>  <cluster>  (45) 
5

$$$$

     RDKit          3D

 51 54  0  0  0  0  0  0  0  0999 V2000
  141.0200   72.2100  221.6530 O   0  0  0  0  0  0  0  0  0  0  0  0
  140.1110   72.3500  222.5120 C   0  0  0  0  0  0  0  0  0  0  0  0
  139.1110   73.3820  222.2630 N   0  0  0  0  0  0  0  0  0  0  0  0
  139.2720   74.1230  221.0730 C   0  0  0  0  0  0  0  0  0  0  0  0
  140.3930   75.0280  220.8930 C   0  0  0  0  0  0  0  0  0  0  0  0
  141.1280   75.1590  221.9710 O   0  0  0  0  0  0  0  0  0  0  0  0
  140.8290   75.7770  219.8010 N   0  0  0  0  0  0  0  0  0  0  0  0
  140.8470   75.3360  218.4060 C   0  0  0  0  0  0  0  0  0  0  0  0
  141.6390   76.3410  217.5850 C   0  0  0  0  0  0  0  0  0  0  0  0
  142.9090   76.7950  218.2140 C   0  0  0  0  0  0  0  0  0  0  0  0
  142.7740   77.0820  219.7210 C   0  0  0  0  0  0  0  0  0  0  0  0
  141.3240   77.1620  219.9760 C   0  0  2  0  0  0  0  0  0  0  0  0
  140.8540   77.8340  221.1700 C   0  0  0  0  0  0  0  0  0  0  0  0
  139.5280   77.8960  221.5450 C   0  0  0  0  0  0  0  0  0  0  0  0
  139.1470   78.5530  222.6950 C   0  0  0  0  0  0  0  0  0  0  0  0
  140.0650   79.1700  223.5070 C   0  0  0  0  0  0  0  0  0  0  0  0
  141.3860   79.1240  223.1570 C   0  0  0  0  0  0  0  0  0  0  0  0
  142.2900   79.7370  223.9660 F   0  0  0  0  0  0  0  0  0  0  0  0
  141.7790   78.4600  221.9940 C   0  0  0  0  0  0  0  0  0  0  0  0
  140.0300   71.5360  223.7080 C   0  0  0  0  0  0  0  0  0  0  0  0
  139.3670   70.3470  223.6420 C   0  0  0  0  0  0  0  0  0  0  0  0
  139.2910   69.5730  224.7820 C   0  0  0  0  0  0  0  0  0  0  0  0
  139.8560   69.9470  225.9860 C   0  0  0  0  0  0  0  0  0  0  0  0
  139.7760   69.1690  227.1210 C   0  0  0  0  0  0  0  0  0  0  0  0
  140.3590   69.5830  228.3110 C   0  0  0  0  0  0  0  0  0  0  0  0
  141.0160   70.7980  228.3100 C   0  0  0  0  0  0  0  0  0  0  0  0
  141.1050   71.5940  227.1710 C   0  0  0  0  0  0  0  0  0  0  0  0
  140.5190   71.1630  226.0060 C   0  0  0  0  0  0  0  0  0  0  0  0
  140.5760   71.8940  224.8780 N   0  0  0  0  0  0  0  0  0  0  0  0
  138.4020   73.4510  223.0050 H   0  0  0  0  0  0  0  0  0  0  0  0
  139.3298   73.3896  220.2552 H   0  0  0  0  0  0  0  0  0  0  0  0
  138.4134   74.8100  221.1021 H   0  0  0  0  0  0  0  0  0  0  0  0
  141.3219   74.3462  218.3372 H   0  0  0  0  0  0  0  0  0  0  0  0
  139.8184   75.2675  218.0222 H   0  0  0  0  0  0  0  0  0  0  0  0
  141.8824   75.8772  216.6177 H   0  0  0  0  0  0  0  0  0  0  0  0
  141.0033   77.2336  217.4894 H   0  0  0  0  0  0  0  0  0  0  0  0
  143.6675   76.0107  218.0746 H   0  0  0  0  0  0  0  0  0  0  0  0
  143.1944   77.7391  217.7269 H   0  0  0  0  0  0  0  0  0  0  0  0
  143.2240   76.2688  220.3095 H   0  0  0  0  0  0  0  0  0  0  0  0
  143.2917   78.0089  220.0089 H   0  0  0  0  0  0  0  0  0  0  0  0
  140.8862   77.8703  219.2572 H   0  0  0  0  0  0  0  0  0  0  0  0
  138.7639   77.4142  220.9173 H   0  0  0  0  0  0  0  0  0  0  0  0
  138.0819   78.5835  222.9684 H   0  0  0  0  0  0  0  0  0  0  0  0
  139.7447   79.6912  224.4212 H   0  0  0  0  0  0  0  0  0  0  0  0
  142.8451   78.4322  221.7245 H   0  0  0  0  0  0  0  0  0  0  0  0
  138.9035   70.0123  222.7023 H   0  0  0  0  0  0  0  0  0  0  0  0
  138.7556   68.6135  224.7296 H   0  0  0  0  0  0  0  0  0  0  0  0
  139.2432   68.2074  227.0834 H   0  0  0  0  0  0  0  0  0  0  0  0
  140.2999   68.9668  229.2203 H   0  0  0  0  0  0  0  0  0  0  0  0
  141.4851   71.1488  229.2411 H   0  0  0  0  0  0  0  0  0  0  0  0
  141.6378   72.5558  227.2038 H   0  0  0  0  0  0  0  0  0  0  0  0
  1  2  2  0
  2  3  1  0
  3  4  1  0
  4  5  1  0
  5  6  2  0
  5  7  1  0
  7  8  1  0
  8  9  1  0
  9 10  1  0
 10 11  1  0
 11 12  1  0
 12 13  1  0
 13 14  2  0
 14 15  1  0
 15 16  2  0
 16 17  1  0
 17 18  1  0
 17 19  2  0
  2 20  1  0
 20 21  2  0
 21 22  1  0
 22 23  2  0
 23 24  1  0
 24 25  2  0
 25 26  1  0
 26 27  2  0
 27 28  1  0
 28 29  2  0
 12  7  1  0
 19 13  1  0
 29 20  1  0
 28 23  1  0
  3 30  1  0
  4 31  1  0
  4 32  1  0
  8 33  1  0
  8 34  1  0
  9 35  1  0
  9 36  1  0
 10 37  1  0
 10 38  1  0
 11 39  1  0
 11 40  1  0
 12 41  1  6
 14 42  1  0
 15 43  1  0
 16 44  1  0
 19 45  1  0
 21 46  1  0
 22 47  1  0
 24 48  1  0
 25 49  1  0
 26 50  1  0
 27 51  1  0
M  END
>  <smiles>  (46) 
O=C(NCC(=O)N1CCCCC1c1cccc(F)c1)c1ccc2ccccc2n1

>  <score_type>  (46) 
oracle

>  <origin>  (46) 
autodockgpu

>  <m_score__min__energy>  (46) 
-8.9299999999999997

>  <m_primary>  (46) 
energy

>  <rmsd>  (46) 
1.5366731834004033

>  <m_score__min__rmsd>  (46) 
1.5366731834004033

>  <meeko>  (46) 
{"free_energy": -8.53, "intermolecular_energy": -10.02, "internal_energy": -1.25, "cluster_size": 2, "cluster_id": 2, "rank_in_cluster": 1}

>  <energy>  (46) 
-7.3

>  <cluster_rmsd>  (46) 
0.88

>  <cluster>  (46) 
5

$$$$

     RDKit          3D

 51 54  0  0  0  0  0  0  0  0999 V2000
  141.4330   71.7960  221.5090 O   0  0  0  0  0  0  0  0  0  0  0  0
  140.7180   72.2570  222.4360 C   0  0  0  0  0  0  0  0  0  0  0  0
  140.2320   73.6240  222.2880 N   0  0  0  0  0  0  0  0  0  0  0  0
  140.6230   74.2930  221.1070 C   0  0  0  0  0  0  0  0  0  0  0  0
  141.1730   75.6360  221.1480 C   0  0  0  0  0  0  0  0  0  0  0  0
  141.0750   76.1980  222.3270 O   0  0  0  0  0  0  0  0  0  0  0  0
  141.7770   76.4320  220.1760 N   0  0  0  0  0  0  0  0  0  0  0  0
  141.5610   77.8670  219.9820 C   0  0  0  0  0  0  0  0  0  0  0  0
  142.1940   78.2830  218.6630 C   0  0  0  0  0  0  0  0  0  0  0  0
  141.9360   77.3540  217.5290 C   0  0  0  0  0  0  0  0  0  0  0  0
  142.0550   75.8690  217.9190 C   0  0  0  0  0  0  0  0  0  0  0  0
  142.7510   75.8590  219.2180 C   0  0  2  0  0  0  0  0  0  0  0  0
  143.4030   74.6440  219.6610 C   0  0  0  0  0  0  0  0  0  0  0  0
  144.4790   74.6200  220.5230 C   0  0  0  0  0  0  0  0  0  0  0  0
  145.0530   73.4270  220.9050 C   0  0  0  0  0  0  0  0  0  0  0  0
  144.5820   72.2230  220.4450 C   0  0  0  0  0  0  0  0  0  0  0  0
  143.5160   72.2190  219.5890 C   0  0  0  0  0  0  0  0  0  0  0  0
  143.0550   71.0240  219.1370 F   0  0  0  0  0  0  0  0  0  0  0  0
  142.9300   73.4240  219.1980 C   0  0  0  0  0  0  0  0  0  0  0  0
  140.3700   71.4890  223.6140 C   0  0  0  0  0  0  0  0  0  0  0  0
  139.6510   70.3420  223.4540 C   0  0  0  0  0  0  0  0  0  0  0  0
  139.3210   69.6110  224.5770 C   0  0  0  0  0  0  0  0  0  0  0  0
  139.6840   69.9880  225.8560 C   0  0  0  0  0  0  0  0  0  0  0  0
  139.3500   69.2530  226.9730 C   0  0  0  0  0  0  0  0  0  0  0  0
  139.7370   69.6690  228.2400 C   0  0  0  0  0  0  0  0  0  0  0  0
  140.4630   70.8400  228.3330 C   0  0  0  0  0  0  0  0  0  0  0  0
  140.8070   71.5920  227.2120 C   0  0  0  0  0  0  0  0  0  0  0  0
  140.4120   71.1600  225.9700 C   0  0  0  0  0  0  0  0  0  0  0  0
  140.7190   71.8490  224.8560 N   0  0  0  0  0  0  0  0  0  0  0  0
  139.6620   73.9440  223.0810 H   0  0  0  0  0  0  0  0  0  0  0  0
  141.3839   73.6595  220.6277 H   0  0  0  0  0  0  0  0  0  0  0  0
  139.6642   74.4434  220.5893 H   0  0  0  0  0  0  0  0  0  0  0  0
  140.4818   78.0786  219.9574 H   0  0  0  0  0  0  0  0  0  0  0  0
  142.0174   78.4294  220.8099 H   0  0  0  0  0  0  0  0  0  0  0  0
  141.7999   79.2733  218.3911 H   0  0  0  0  0  0  0  0  0  0  0  0
  143.2819   78.2799  218.8258 H   0  0  0  0  0  0  0  0  0  0  0  0
  140.9183   77.5358  217.1533 H   0  0  0  0  0  0  0  0  0  0  0  0
  142.7017   77.5525  216.7646 H   0  0  0  0  0  0  0  0  0  0  0  0
  141.0575   75.4150  218.0135 H   0  0  0  0  0  0  0  0  0  0  0  0
  142.5996   75.2893  217.1591 H   0  0  0  0  0  0  0  0  0  0  0  0
  143.6675   76.4597  219.1221 H   0  0  0  0  0  0  0  0  0  0  0  0
  144.8846   75.5660  220.9109 H   0  0  0  0  0  0  0  0  0  0  0  0
  145.9093   73.4401  221.5953 H   0  0  0  0  0  0  0  0  0  0  0  0
  145.0528   71.2797  220.7588 H   0  0  0  0  0  0  0  0  0  0  0  0
  142.0740   73.4064  218.5074 H   0  0  0  0  0  0  0  0  0  0  0  0
  139.3411   70.0069  222.4531 H   0  0  0  0  0  0  0  0  0  0  0  0
  138.7418   68.6848  224.4480 H   0  0  0  0  0  0  0  0  0  0  0  0
  138.7697   68.3254  226.8594 H   0  0  0  0  0  0  0  0  0  0  0  0
  139.4750   69.0875  229.1362 H   0  0  0  0  0  0  0  0  0  0  0  0
  140.7804   71.1909  229.3260 H   0  0  0  0  0  0  0  0  0  0  0  0
  141.3876   72.5200  227.3204 H   0  0  0  0  0  0  0  0  0  0  0  0
  1  2  2  0
  2  3  1  0
  3  4  1  0
  4  5  1  0
  5  6  2  0
  5  7  1  0
  7  8  1  0
  8  9  1  0
  9 10  1  0
 10 11  1  0
 11 12  1  0
 12 13  1  0
 13 14  2  0
 14 15  1  0
 15 16  2  0
 16 17  1  0
 17 18  1  0
 17 19  2  0
  2 20  1  0
 20 21  2  0
 21 22  1  0
 22 23  2  0
 23 24  1  0
 24 25  2  0
 25 26  1  0
 26 27  2  0
 27 28  1  0
 28 29  2  0
 12  7  1  0
 19 13  1  0
 29 20  1  0
 28 23  1  0
  3 30  1  0
  4 31  1  0
  4 32  1  0
  8 33  1  0
  8 34  1  0
  9 35  1  0
  9 36  1  0
 10 37  1  0
 10 38  1  0
 11 39  1  0
 11 40  1  0
 12 41  1  6
 14 42  1  0
 15 43  1  0
 16 44  1  0
 19 45  1  0
 21 46  1  0
 22 47  1  0
 24 48  1  0
 25 49  1  0
 26 50  1  0
 27 51  1  0
M  END
>  <smiles>  (47) 
O=C(NCC(=O)N1CCCCC1c1cccc(F)c1)c1ccc2ccccc2n1

>  <score_type>  (47) 
oracle

>  <origin>  (47) 
autodockgpu

>  <m_score__min__energy>  (47) 
-8.9299999999999997

>  <m_primary>  (47) 
energy

>  <rmsd>  (47) 
2.37557727120886

>  <m_score__min__rmsd>  (47) 
2.37557727120886

>  <meeko>  (47) 
{"free_energy": -8.16, "intermolecular_energy": -9.65, "internal_energy": -1.68, "cluster_size": 13, "cluster_id": 1, "rank_in_cluster": 11}

>  <energy>  (47) 
-7.29

>  <cluster_rmsd>  (47) 
0.21

>  <cluster>  (47) 
5

$$$$

     RDKit          3D

 51 54  0  0  0  0  0  0  0  0999 V2000
  140.5870   77.0270  218.4760 O   0  0  0  0  0  0  0  0  0  0  0  0
  141.6940   76.9970  219.0730 C   0  0  0  0  0  0  0  0  0  0  0  0
  142.1930   78.2550  219.6180 N   0  0  0  0  0  0  0  0  0  0  0  0
  141.3710   79.3840  219.4130 C   0  0  0  0  0  0  0  0  0  0  0  0
  140.6330   79.9880  220.5080 C   0  0  0  0  0  0  0  0  0  0  0  0
  139.3940   80.2810  220.1950 O   0  0  0  0  0  0  0  0  0  0  0  0
  140.9910   80.3120  221.8160 N   0  0  0  0  0  0  0  0  0  0  0  0
  141.2800   81.6550  222.3210 C   0  0  0  0  0  0  0  0  0  0  0  0
  141.8850   81.5350  223.7110 C   0  0  0  0  0  0  0  0  0  0  0  0
  142.9210   80.4740  223.8480 C   0  0  0  0  0  0  0  0  0  0  0  0
  142.5440   79.1600  223.1390 C   0  0  0  0  0  0  0  0  0  0  0  0
  141.1010   79.2660  222.8580 C   0  0  2  0  0  0  0  0  0  0  0  0
  140.3420   78.0600  222.5970 C   0  0  0  0  0  0  0  0  0  0  0  0
  138.9650   77.9950  222.6380 C   0  0  0  0  0  0  0  0  0  0  0  0
  138.3050   76.8130  222.3800 C   0  0  0  0  0  0  0  0  0  0  0  0
  138.9850   75.6620  222.0740 C   0  0  0  0  0  0  0  0  0  0  0  0
  140.3510   75.7000  222.0270 C   0  0  0  0  0  0  0  0  0  0  0  0
  141.0180   74.5550  221.7230 F   0  0  0  0  0  0  0  0  0  0  0  0
  141.0260   76.8930  222.2880 C   0  0  0  0  0  0  0  0  0  0  0  0
  142.4670   75.7820  219.2320 C   0  0  0  0  0  0  0  0  0  0  0  0
  142.0150   74.6410  218.6400 C   0  0  0  0  0  0  0  0  0  0  0  0
  142.7520   73.4850  218.7920 C   0  0  0  0  0  0  0  0  0  0  0  0
  143.9270   73.4290  219.5170 C   0  0  0  0  0  0  0  0  0  0  0  0
  144.6590   72.2710  219.6640 C   0  0  0  0  0  0  0  0  0  0  0  0
  145.8350   72.2610  220.4020 C   0  0  0  0  0  0  0  0  0  0  0  0
  146.2380   73.4510  220.9770 C   0  0  0  0  0  0  0  0  0  0  0  0
  145.5090   74.6280  220.8350 C   0  0  0  0  0  0  0  0  0  0  0  0
  144.3480   74.6130  220.1010 C   0  0  0  0  0  0  0  0  0  0  0  0
  143.6070   75.7230  219.9340 N   0  0  0  0  0  0  0  0  0  0  0  0
  143.1050   78.1650  220.0840 H   0  0  0  0  0  0  0  0  0  0  0  0
  142.0203   80.1717  219.0032 H   0  0  0  0  0  0  0  0  0  0  0  0
  140.5684   78.9828  218.7767 H   0  0  0  0  0  0  0  0  0  0  0  0
  141.9921   82.1573  221.6497 H   0  0  0  0  0  0  0  0  0  0  0  0
  140.3529   82.2454  222.3661 H   0  0  0  0  0  0  0  0  0  0  0  0
  142.3462   82.4998  223.9687 H   0  0  0  0  0  0  0  0  0  0  0  0
  141.0622   81.2555  224.3855 H   0  0  0  0  0  0  0  0  0  0  0  0
  143.8616   80.8465  223.4161 H   0  0  0  0  0  0  0  0  0  0  0  0
  143.0179   80.2496  224.9205 H   0  0  0  0  0  0  0  0  0  0  0  0
  143.1113   79.0515  222.2028 H   0  0  0  0  0  0  0  0  0  0  0  0
  142.7765   78.2806  223.7575 H   0  0  0  0  0  0  0  0  0  0  0  0
  140.5873   79.5330  223.7933 H   0  0  0  0  0  0  0  0  0  0  0  0
  138.3859   78.8984  222.8798 H   0  0  0  0  0  0  0  0  0  0  0  0
  137.2059   76.7922  222.4205 H   0  0  0  0  0  0  0  0  0  0  0  0
  138.4424   74.7270  221.8705 H   0  0  0  0  0  0  0  0  0  0  0  0
  142.1252   76.9087  222.2479 H   0  0  0  0  0  0  0  0  0  0  0  0
  141.0838   74.6417  218.0544 H   0  0  0  0  0  0  0  0  0  0  0  0
  142.3871   72.5642  218.3135 H   0  0  0  0  0  0  0  0  0  0  0  0
  144.3072   71.3425  219.1906 H   0  0  0  0  0  0  0  0  0  0  0  0
  146.4239   71.3400  220.5243 H   0  0  0  0  0  0  0  0  0  0  0  0
  147.1663   73.4687  221.5669 H   0  0  0  0  0  0  0  0  0  0  0  0
  145.8584   75.5592  221.3050 H   0  0  0  0  0  0  0  0  0  0  0  0
  1  2  2  0
  2  3  1  0
  3  4  1  0
  4  5  1  0
  5  6  2  0
  5  7  1  0
  7  8  1  0
  8  9  1  0
  9 10  1  0
 10 11  1  0
 11 12  1  0
 12 13  1  0
 13 14  2  0
 14 15  1  0
 15 16  2  0
 16 17  1  0
 17 18  1  0
 17 19  2  0
  2 20  1  0
 20 21  2  0
 21 22  1  0
 22 23  2  0
 23 24  1  0
 24 25  2  0
 25 26  1  0
 26 27  2  0
 27 28  1  0
 28 29  2  0
 12  7  1  0
 19 13  1  0
 29 20  1  0
 28 23  1  0
  3 30  1  0
  4 31  1  0
  4 32  1  0
  8 33  1  0
  8 34  1  0
  9 35  1  0
  9 36  1  0
 10 37  1  0
 10 38  1  0
 11 39  1  0
 11 40  1  0
 12 41  1  1
 14 42  1  0
 15 43  1  0
 16 44  1  0
 19 45  1  0
 21 46  1  0
 22 47  1  0
 24 48  1  0
 25 49  1  0
 26 50  1  0
 27 51  1  0
M  END
>  <smiles>  (48) 
O=C(NCC(=O)N1CCCCC1c1cccc(F)c1)c1ccc2ccccc2n1

>  <score_type>  (48) 
oracle

>  <origin>  (48) 
autodockgpu

>  <m_score__min__energy>  (48) 
-8.9299999999999997

>  <m_primary>  (48) 
energy

>  <rmsd>  (48) 
7.565676452458844

>  <m_score__min__rmsd>  (48) 
7.565676452458844

>  <meeko>  (48) 
{"free_energy": -7.34, "intermolecular_energy": -8.83, "internal_energy": -2.64, "cluster_size": 13, "cluster_id": 5, "rank_in_cluster": 5}

>  <energy>  (48) 
-7.24

>  <cluster_rmsd>  (48) 
0.3

>  <cluster>  (48) 
5

$$$$

     RDKit          3D

 51 54  0  0  0  0  0  0  0  0999 V2000
  139.8890   71.3860  221.0540 O   0  0  0  0  0  0  0  0  0  0  0  0
  140.3520   71.9210  222.0950 C   0  0  0  0  0  0  0  0  0  0  0  0
  141.0480   73.1930  221.9380 N   0  0  0  0  0  0  0  0  0  0  0  0
  141.1300   73.6930  220.6200 C   0  0  0  0  0  0  0  0  0  0  0  0
  142.0170   73.0930  219.6400 C   0  0  0  0  0  0  0  0  0  0  0  0
  141.3840   72.5980  218.6050 O   0  0  0  0  0  0  0  0  0  0  0  0
  143.4030   72.9430  219.5950 N   0  0  0  0  0  0  0  0  0  0  0  0
  144.1340   71.6760  219.6530 C   0  0  0  0  0  0  0  0  0  0  0  0
  145.6130   71.9740  219.8470 C   0  0  0  0  0  0  0  0  0  0  0  0
  145.9080   73.0240  220.8600 C   0  0  0  0  0  0  0  0  0  0  0  0
  144.9620   74.2360  220.7740 C   0  0  0  0  0  0  0  0  0  0  0  0
  144.2930   74.1190  219.4650 C   0  0  2  0  0  0  0  0  0  0  0  0
  143.6760   75.2920  218.8810 C   0  0  0  0  0  0  0  0  0  0  0  0
  143.5900   75.5190  217.5230 C   0  0  0  0  0  0  0  0  0  0  0  0
  142.9890   76.6580  217.0330 C   0  0  0  0  0  0  0  0  0  0  0  0
  142.4570   77.6070  217.8690 C   0  0  0  0  0  0  0  0  0  0  0  0
  142.5300   77.4060  219.2190 C   0  0  0  0  0  0  0  0  0  0  0  0
  142.0010   78.3490  220.0410 F   0  0  0  0  0  0  0  0  0  0  0  0
  143.1370   76.2540  219.7230 C   0  0  0  0  0  0  0  0  0  0  0  0
  140.2160   71.3280  223.4100 C   0  0  0  0  0  0  0  0  0  0  0  0
  139.5640   70.1360  223.5210 C   0  0  0  0  0  0  0  0  0  0  0  0
  139.4360   69.5720  224.7730 C   0  0  0  0  0  0  0  0  0  0  0  0
  139.9360   70.1590  225.9200 C   0  0  0  0  0  0  0  0  0  0  0  0
  139.8050   69.5890  227.1680 C   0  0  0  0  0  0  0  0  0  0  0  0
  140.3240   70.2130  228.2940 C   0  0  0  0  0  0  0  0  0  0  0  0
  140.9730   71.4190  228.1120 C   0  0  0  0  0  0  0  0  0  0  0  0
  141.1140   72.0060  226.8570 C   0  0  0  0  0  0  0  0  0  0  0  0
  140.5900   71.3690  225.7580 C   0  0  0  0  0  0  0  0  0  0  0  0
  140.7000   71.8920  224.5240 N   0  0  0  0  0  0  0  0  0  0  0  0
  141.4100   73.5730  222.8220 H   0  0  0  0  0  0  0  0  0  0  0  0
  140.1151   73.6319  220.2001 H   0  0  0  0  0  0  0  0  0  0  0  0
  141.5765   74.6872  220.7691 H   0  0  0  0  0  0  0  0  0  0  0  0
  143.7642   71.0737  220.4959 H   0  0  0  0  0  0  0  0  0  0  0  0
  143.9845   71.1142  218.7192 H   0  0  0  0  0  0  0  0  0  0  0  0
  146.1114   71.0451  220.1612 H   0  0  0  0  0  0  0  0  0  0  0  0
  145.9815   72.3585  218.8845 H   0  0  0  0  0  0  0  0  0  0  0  0
  145.8150   72.5788  221.8616 H   0  0  0  0  0  0  0  0  0  0  0  0
  146.9261   73.3906  220.6624 H   0  0  0  0  0  0  0  0  0  0  0  0
  144.2228   74.2057  221.5880 H   0  0  0  0  0  0  0  0  0  0  0  0
  145.5060   75.1871  220.8716 H   0  0  0  0  0  0  0  0  0  0  0  0
  145.0664   73.9910  218.6933 H   0  0  0  0  0  0  0  0  0  0  0  0
  144.0068   74.7809  216.8220 H   0  0  0  0  0  0  0  0  0  0  0  0
  142.9344   76.8102  215.9450 H   0  0  0  0  0  0  0  0  0  0  0  0
  141.9814   78.5111  217.4611 H   0  0  0  0  0  0  0  0  0  0  0  0
  143.1890   76.1059  220.8117 H   0  0  0  0  0  0  0  0  0  0  0  0
  139.1498   69.6359  222.6331 H   0  0  0  0  0  0  0  0  0  0  0  0
  138.9112   68.6095  224.8630 H   0  0  0  0  0  0  0  0  0  0  0  0
  139.2822   68.6269  227.2731 H   0  0  0  0  0  0  0  0  0  0  0  0
  140.2225   69.7644  229.2932 H   0  0  0  0  0  0  0  0  0  0  0  0
  141.3930   71.9335  228.9889 H   0  0  0  0  0  0  0  0  0  0  0  0
  141.6379   72.9669  226.7469 H   0  0  0  0  0  0  0  0  0  0  0  0
  1  2  2  0
  2  3  1  0
  3  4  1  0
  4  5  1  0
  5  6  2  0
  5  7  1  0
  7  8  1  0
  8  9  1  0
  9 10  1  0
 10 11  1  0
 11 12  1  0
 12 13  1  0
 13 14  2  0
 14 15  1  0
 15 16  2  0
 16 17  1  0
 17 18  1  0
 17 19  2  0
  2 20  1  0
 20 21  2  0
 21 22  1  0
 22 23  2  0
 23 24  1  0
 24 25  2  0
 25 26  1  0
 26 27  2  0
 27 28  1  0
 28 29  2  0
 12  7  1  0
 19 13  1  0
 29 20  1  0
 28 23  1  0
  3 30  1  0
  4 31  1  0
  4 32  1  0
  8 33  1  0
  8 34  1  0
  9 35  1  0
  9 36  1  0
 10 37  1  0
 10 38  1  0
 11 39  1  0
 11 40  1  0
 12 41  1  6
 14 42  1  0
 15 43  1  0
 16 44  1  0
 19 45  1  0
 21 46  1  0
 22 47  1  0
 24 48  1  0
 25 49  1  0
 26 50  1  0
 27 51  1  0
M  END
>  <smiles>  (49) 
O=C(NCC(=O)N1CCCCC1c1cccc(F)c1)c1ccc2ccccc2n1

>  <score_type>  (49) 
oracle

>  <origin>  (49) 
autodockgpu

>  <m_score__min__energy>  (49) 
-8.9299999999999997

>  <m_primary>  (49) 
energy

>  <rmsd>  (49) 
3.8367740193533346

>  <m_score__min__rmsd>  (49) 
3.8367740193533346

>  <meeko>  (49) 
{"free_energy": -7.59, "intermolecular_energy": -9.09, "internal_energy": -1.75, "cluster_size": 2, "cluster_id": 3, "rank_in_cluster": 2}

>  <energy>  (49) 
-7.12

>  <cluster_rmsd>  (49) 
0.39

>  <cluster>  (49) 
5

$$$$

     RDKit          3D

 51 54  0  0  0  0  0  0  0  0999 V2000
  139.1050   75.0560  221.7330 O   0  0  0  0  0  0  0  0  0  0  0  0
  140.2020   75.6450  221.9120 C   0  0  0  0  0  0  0  0  0  0  0  0
  141.4190   74.8900  221.6330 N   0  0  0  0  0  0  0  0  0  0  0  0
  141.2330   73.5640  221.1870 C   0  0  0  0  0  0  0  0  0  0  0  0
  142.0040   73.0240  220.0820 C   0  0  0  0  0  0  0  0  0  0  0  0
  141.2610   72.4760  219.1520 O   0  0  0  0  0  0  0  0  0  0  0  0
  143.3750   72.9780  219.8280 N   0  0  0  0  0  0  0  0  0  0  0  0
  144.2130   71.7790  219.8430 C   0  0  0  0  0  0  0  0  0  0  0  0
  145.6730   72.2020  219.7840 C   0  0  0  0  0  0  0  0  0  0  0  0
  146.0270   73.3410  220.6750 C   0  0  0  0  0  0  0  0  0  0  0  0
  144.9760   74.4670  220.6680 C   0  0  0  0  0  0  0  0  0  0  0  0
  144.1290   74.2070  219.4910 C   0  0  2  0  0  0  0  0  0  0  0  0
  143.3310   75.2850  218.9430 C   0  0  0  0  0  0  0  0  0  0  0  0
  142.7540   75.2540  217.6910 C   0  0  0  0  0  0  0  0  0  0  0  0
  142.0060   76.3150  217.2300 C   0  0  0  0  0  0  0  0  0  0  0  0
  141.8060   77.4380  217.9920 C   0  0  0  0  0  0  0  0  0  0  0  0
  142.3670   77.4940  219.2380 C   0  0  0  0  0  0  0  0  0  0  0  0
  142.1650   78.6090  219.9880 F   0  0  0  0  0  0  0  0  0  0  0  0
  143.1270   76.4220  219.7110 C   0  0  0  0  0  0  0  0  0  0  0  0
  140.2910   77.0150  222.3750 C   0  0  0  0  0  0  0  0  0  0  0  0
  139.1360   77.6850  222.6490 C   0  0  0  0  0  0  0  0  0  0  0  0
  139.2220   78.9890  223.0900 C   0  0  0  0  0  0  0  0  0  0  0  0
  140.4230   79.6490  223.2660 C   0  0  0  0  0  0  0  0  0  0  0  0
  140.5020   80.9520  223.7070 C   0  0  0  0  0  0  0  0  0  0  0  0
  141.7310   81.5750  223.8710 C   0  0  0  0  0  0  0  0  0  0  0  0
  142.8630   80.8410  223.5750 C   0  0  0  0  0  0  0  0  0  0  0  0
  142.7990   79.5240  223.1290 C   0  0  0  0  0  0  0  0  0  0  0  0
  141.5700   78.9290  222.9750 C   0  0  0  0  0  0  0  0  0  0  0  0
  141.4530   77.6590  222.5470 N   0  0  0  0  0  0  0  0  0  0  0  0
  142.2800   75.4230  221.8080 H   0  0  0  0  0  0  0  0  0  0  0  0
  141.4317   72.9141  222.0519 H   0  0  0  0  0  0  0  0  0  0  0  0
  140.2135   73.5921  220.7748 H   0  0  0  0  0  0  0  0  0  0  0  0
  144.0295   71.2110  220.7669 H   0  0  0  0  0  0  0  0  0  0  0  0
  143.9723   71.1433  218.9781 H   0  0  0  0  0  0  0  0  0  0  0  0
  146.2918   71.3385  220.0694 H   0  0  0  0  0  0  0  0  0  0  0  0
  145.8561   72.5441  218.7547 H   0  0  0  0  0  0  0  0  0  0  0  0
  146.1269   72.9626  221.7030 H   0  0  0  0  0  0  0  0  0  0  0  0
  146.9676   73.7698  220.2989 H   0  0  0  0  0  0  0  0  0  0  0  0
  144.3746   74.4374  221.5886 H   0  0  0  0  0  0  0  0  0  0  0  0
  145.4436   75.4616  220.6228 H   0  0  0  0  0  0  0  0  0  0  0  0
  144.7839   74.0848  218.6157 H   0  0  0  0  0  0  0  0  0  0  0  0
  142.8929   74.3698  217.0515 H   0  0  0  0  0  0  0  0  0  0  0  0
  141.5583   76.2604  216.2267 H   0  0  0  0  0  0  0  0  0  0  0  0
  141.2064   78.2767  217.6085 H   0  0  0  0  0  0  0  0  0  0  0  0
  143.5736   76.4806  220.7145 H   0  0  0  0  0  0  0  0  0  0  0  0
  138.1584   77.1972  222.5214 H   0  0  0  0  0  0  0  0  0  0  0  0
  138.2900   79.5293  223.3122 H   0  0  0  0  0  0  0  0  0  0  0  0
  139.5785   81.5057  223.9320 H   0  0  0  0  0  0  0  0  0  0  0  0
  141.8011   82.6146  224.2236 H   0  0  0  0  0  0  0  0  0  0  0  0
  143.8490   81.3135  223.6959 H   0  0  0  0  0  0  0  0  0  0  0  0
  143.7201   78.9669  222.9028 H   0  0  0  0  0  0  0  0  0  0  0  0
  1  2  2  0
  2  3  1  0
  3  4  1  0
  4  5  1  0
  5  6  2  0
  5  7  1  0
  7  8  1  0
  8  9  1  0
  9 10  1  0
 10 11  1  0
 11 12  1  0
 12 13  1  0
 13 14  2  0
 14 15  1  0
 15 16  2  0
 16 17  1  0
 17 18  1  0
 17 19  2  0
  2 20  1  0
 20 21  2  0
 21 22  1  0
 22 23  2  0
 23 24  1  0
 24 25  2  0
 25 26  1  0
 26 27  2  0
 27 28  1  0
 28 29  2  0
 12  7  1  0
 19 13  1  0
 29 20  1  0
 28 23  1  0
  3 30  1  0
  4 31  1  0
  4 32  1  0
  8 33  1  0
  8 34  1  0
  9 35  1  0
  9 36  1  0
 10 37  1  0
 10 38  1  0
 11 39  1  0
 11 40  1  0
 12 41  1  6
 14 42  1  0
 15 43  1  0
 16 44  1  0
 19 45  1  0
 21 46  1  0
 22 47  1  0
 24 48  1  0
 25 49  1  0
 26 50  1  0
 27 51  1  0
M  END
>  <smiles>  (50) 
O=C(NCC(=O)N1CCCCC1c1cccc(F)c1)c1ccc2ccccc2n1

>  <score_type>  (50) 
oracle

>  <origin>  (50) 
autodockgpu

>  <m_score__min__energy>  (50) 
-8.9299999999999997

>  <m_primary>  (50) 
energy

>  <rmsd>  (50) 
7.722836761318613

>  <m_score__min__rmsd>  (50) 
7.722836761318613

>  <meeko>  (50) 
{"free_energy": -7.57, "intermolecular_energy": -9.07, "internal_energy": -2.45, "cluster_size": 20, "cluster_id": 4, "rank_in_cluster": 13}

>  <energy>  (50) 
-7.05

>  <cluster_rmsd>  (50) 
0.47

>  <cluster>  (50) 
5

$$$$

     RDKit          3D

 51 54  0  0  0  0  0  0  0  0999 V2000
  140.7310   71.5320  221.2680 O   0  0  0  0  0  0  0  0  0  0  0  0
  140.3040   72.1350  222.3070 C   0  0  0  0  0  0  0  0  0  0  0  0
  139.9530   73.5180  222.2640 N   0  0  0  0  0  0  0  0  0  0  0  0
  140.0650   74.2930  221.0470 C   0  0  0  0  0  0  0  0  0  0  0  0
  140.8110   75.5690  221.2820 C   0  0  0  0  0  0  0  0  0  0  0  0
  141.0100   75.9520  222.4640 O   0  0  0  0  0  0  0  0  0  0  0  0
  141.2570   76.2830  220.1370 N   0  0  0  0  0  0  0  0  0  0  0  0
  141.1290   75.7690  218.7830 C   0  0  0  0  0  0  0  0  0  0  0  0
  142.3810   76.1180  218.0060 C   0  0  0  0  0  0  0  0  0  0  0  0
  142.6980   77.5850  218.0570 C   0  0  0  0  0  0  0  0  0  0  0  0
  141.7770   78.3240  219.0270 C   0  0  0  0  0  0  0  0  0  0  0  0
  141.8620   77.5740  220.3410 C   0  0  1  0  0  0  0  0  0  0  0  0
  141.3200   78.3490  221.4680 C   0  0  0  0  0  0  0  0  0  0  0  0
  139.9770   78.4880  221.7440 C   0  0  0  0  0  0  0  0  0  0  0  0
  139.4680   79.2060  222.7860 C   0  0  0  0  0  0  0  0  0  0  0  0
  140.3330   79.8520  223.6430 C   0  0  0  0  0  0  0  0  0  0  0  0
  141.6830   79.7490  223.4170 C   0  0  0  0  0  0  0  0  0  0  0  0
  142.5270   80.3970  224.2770 F   0  0  0  0  0  0  0  0  0  0  0  0
  142.1860   79.0120  222.3470 C   0  0  0  0  0  0  0  0  0  0  0  0
  140.1670   71.4050  223.5750 C   0  0  0  0  0  0  0  0  0  0  0  0
  139.5190   70.1890  223.5880 C   0  0  0  0  0  0  0  0  0  0  0  0
  139.3860   69.4940  224.7850 C   0  0  0  0  0  0  0  0  0  0  0  0
  139.9140   70.0510  225.9390 C   0  0  0  0  0  0  0  0  0  0  0  0
  139.7940   69.3790  227.1360 C   0  0  0  0  0  0  0  0  0  0  0  0
  140.3290   69.9480  228.2970 C   0  0  0  0  0  0  0  0  0  0  0  0
  140.9750   71.1690  228.2740 C   0  0  0  0  0  0  0  0  0  0  0  0
  141.0840   71.8250  227.0580 C   0  0  0  0  0  0  0  0  0  0  0  0
  140.5640   71.2810  225.9060 C   0  0  0  0  0  0  0  0  0  0  0  0
  140.6680   71.9210  224.7160 N   0  0  0  0  0  0  0  0  0  0  0  0
  139.6060   73.9500  223.1710 H   0  0  0  0  0  0  0  0  0  0  0  0
  140.6003   73.6988  220.2917 H   0  0  0  0  0  0  0  0  0  0  0  0
  139.0516   74.5421  220.6993 H   0  0  0  0  0  0  0  0  0  0  0  0
  141.0054   74.6764  218.8129 H   0  0  0  0  0  0  0  0  0  0  0  0
  140.2506   76.2170  218.2955 H   0  0  0  0  0  0  0  0  0  0  0  0
  143.2276   75.5590  218.4312 H   0  0  0  0  0  0  0  0  0  0  0  0
  142.2075   75.8495  216.9535 H   0  0  0  0  0  0  0  0  0  0  0  0
  143.7400   77.7143  218.3849 H   0  0  0  0  0  0  0  0  0  0  0  0
  142.5487   78.0053  217.0515 H   0  0  0  0  0  0  0  0  0  0  0  0
  142.1147   79.3627  219.1577 H   0  0  0  0  0  0  0  0  0  0  0  0
  140.7438   78.3606  218.6512 H   0  0  0  0  0  0  0  0  0  0  0  0
  142.9086   77.4187  220.6418 H   0  0  0  0  0  0  0  0  0  0  0  0
  139.2639   77.9834  221.0756 H   0  0  0  0  0  0  0  0  0  0  0  0
  138.3807   79.2688  222.9405 H   0  0  0  0  0  0  0  0  0  0  0  0
  139.9492   80.4382  224.4909 H   0  0  0  0  0  0  0  0  0  0  0  0
  143.2731   78.9502  222.1910 H   0  0  0  0  0  0  0  0  0  0  0  0
  139.1093   69.7705  222.6569 H   0  0  0  0  0  0  0  0  0  0  0  0
  138.8722   68.5219  224.8154 H   0  0  0  0  0  0  0  0  0  0  0  0
  139.2832   68.4057  227.1784 H   0  0  0  0  0  0  0  0  0  0  0  0
  140.2328   69.4099  229.2516 H   0  0  0  0  0  0  0  0  0  0  0  0
  141.3904   71.6074  229.1933 H   0  0  0  0  0  0  0  0  0  0  0  0
  141.5953   72.7979  227.0130 H   0  0  0  0  0  0  0  0  0  0  0  0
  1  2  2  0
  2  3  1  0
  3  4  1  0
  4  5  1  0
  5  6  2  0
  5  7  1  0
  7  8  1  0
  8  9  1  0
  9 10  1  0
 10 11  1  0
 11 12  1  0
 12 13  1  0
 13 14  2  0
 14 15  1  0
 15 16  2  0
 16 17  1  0
 17 18  1  0
 17 19  2  0
  2 20  1  0
 20 21  2  0
 21 22  1  0
 22 23  2  0
 23 24  1  0
 24 25  2  0
 25 26  1  0
 26 27  2  0
 27 28  1  0
 28 29  2  0
 12  7  1  0
 19 13  1  0
 29 20  1  0
 28 23  1  0
  3 30  1  0
  4 31  1  0
  4 32  1  0
  8 33  1  0
  8 34  1  0
  9 35  1  0
  9 36  1  0
 10 37  1  0
 10 38  1  0
 11 39  1  0
 11 40  1  0
 12 41  1  1
 14 42  1  0
 15 43  1  0
 16 44  1  0
 19 45  1  0
 21 46  1  0
 22 47  1  0
 24 48  1  0
 25 49  1  0
 26 50  1  0
 27 51  1  0
M  END
>  <smiles>  (51) 
O=C(NCC(=O)N1CCCCC1c1cccc(F)c1)c1ccc2ccccc2n1

>  <score_type>  (51) 
oracle

>  <origin>  (51) 
autodockgpu

>  <m_score__min__energy>  (51) 
-8.8300000000000001

>  <m_primary>  (51) 
energy

>  <rmsd>  (51) 
1.6909911506466566

>  <m_score__min__rmsd>  (51) 
1.6909911506466566

>  <meeko>  (51) 
{"free_energy": -8.82, "intermolecular_energy": -10.31, "internal_energy": -1.25, "cluster_size": 13, "cluster_id": 1, "rank_in_cluster": 2}

>  <energy>  (51) 
-8.83

>  <cluster_rmsd>  (51) 
0.0

>  <cluster>  (51) 
1

$$$$

     RDKit          3D

 51 54  0  0  0  0  0  0  0  0999 V2000
  141.2170   72.2040  221.4400 O   0  0  0  0  0  0  0  0  0  0  0  0
  140.3480   72.5250  222.3160 C   0  0  0  0  0  0  0  0  0  0  0  0
  139.5620   73.7090  222.1730 N   0  0  0  0  0  0  0  0  0  0  0  0
  139.7150   74.5910  221.0370 C   0  0  0  0  0  0  0  0  0  0  0  0
  140.8720   75.5200  221.2200 C   0  0  0  0  0  0  0  0  0  0  0  0
  141.4310   75.5850  222.3460 O   0  0  0  0  0  0  0  0  0  0  0  0
  141.2780   76.2870  220.0950 N   0  0  0  0  0  0  0  0  0  0  0  0
  141.1140   75.8310  218.7250 C   0  0  0  0  0  0  0  0  0  0  0  0
  142.3390   76.2250  217.9270 C   0  0  0  0  0  0  0  0  0  0  0  0
  142.6450   77.6910  218.0320 C   0  0  0  0  0  0  0  0  0  0  0  0
  141.7470   78.3780  219.0590 C   0  0  0  0  0  0  0  0  0  0  0  0
  141.8780   77.5740  220.3370 C   0  0  1  0  0  0  0  0  0  0  0  0
  141.3630   78.2950  221.5120 C   0  0  0  0  0  0  0  0  0  0  0  0
  140.0360   78.3370  221.8800 C   0  0  0  0  0  0  0  0  0  0  0  0
  139.5520   79.0040  222.9670 C   0  0  0  0  0  0  0  0  0  0  0  0
  140.4280   79.6970  223.7760 C   0  0  0  0  0  0  0  0  0  0  0  0
  141.7640   79.6910  223.4560 C   0  0  0  0  0  0  0  0  0  0  0  0
  142.6180   80.3840  224.2690 F   0  0  0  0  0  0  0  0  0  0  0  0
  142.2400   79.0040  222.3420 C   0  0  0  0  0  0  0  0  0  0  0  0
  140.1430   71.6730  223.4950 C   0  0  0  0  0  0  0  0  0  0  0  0
  139.3870   70.5270  223.3760 C   0  0  0  0  0  0  0  0  0  0  0  0
  139.1900   69.7160  224.4890 C   0  0  0  0  0  0  0  0  0  0  0  0
  139.7640   70.0890  225.6930 C   0  0  0  0  0  0  0  0  0  0  0  0
  139.5820   69.2990  226.8080 C   0  0  0  0  0  0  0  0  0  0  0  0
  140.1650   69.6830  228.0210 C   0  0  0  0  0  0  0  0  0  0  0  0
  140.9190   70.8350  228.1300 C   0  0  0  0  0  0  0  0  0  0  0  0
  141.0890   71.6120  226.9940 C   0  0  0  0  0  0  0  0  0  0  0  0
  140.5240   71.2510  225.7940 C   0  0  0  0  0  0  0  0  0  0  0  0
  140.6870   72.0080  224.6820 N   0  0  0  0  0  0  0  0  0  0  0  0
  138.8590   73.9090  222.9450 H   0  0  0  0  0  0  0  0  0  0  0  0
  139.8814   73.9857  220.1337 H   0  0  0  0  0  0  0  0  0  0  0  0
  138.7994   75.1930  220.9401 H   0  0  0  0  0  0  0  0  0  0  0  0
  141.0004   74.7370  218.7111 H   0  0  0  0  0  0  0  0  0  0  0  0
  140.2178   76.2915  218.2837 H   0  0  0  0  0  0  0  0  0  0  0  0
  143.2026   75.6564  218.3022 H   0  0  0  0  0  0  0  0  0  0  0  0
  142.1362   76.0003  216.8695 H   0  0  0  0  0  0  0  0  0  0  0  0
  143.6951   77.8162  218.3348 H   0  0  0  0  0  0  0  0  0  0  0  0
  142.4628   78.1528  217.0504 H   0  0  0  0  0  0  0  0  0  0  0  0
  142.0787   79.4137  219.2239 H   0  0  0  0  0  0  0  0  0  0  0  0
  140.7028   78.4194  218.7157 H   0  0  0  0  0  0  0  0  0  0  0  0
  142.9343   77.4167  220.6006 H   0  0  0  0  0  0  0  0  0  0  0  0
  139.3148   77.7935  221.2520 H   0  0  0  0  0  0  0  0  0  0  0  0
  138.4761   78.9893  223.1955 H   0  0  0  0  0  0  0  0  0  0  0  0
  140.0645   80.2431  224.6590 H   0  0  0  0  0  0  0  0  0  0  0  0
  143.3156   79.0185  222.1119 H   0  0  0  0  0  0  0  0  0  0  0  0
  138.9422   70.2553  222.4073 H   0  0  0  0  0  0  0  0  0  0  0  0
  138.5903   68.7969  224.4143 H   0  0  0  0  0  0  0  0  0  0  0  0
  138.9852   68.3771  226.7450 H   0  0  0  0  0  0  0  0  0  0  0  0
  140.0190   69.0515  228.9098 H   0  0  0  0  0  0  0  0  0  0  0  0
  141.3712   71.1274  229.0892 H   0  0  0  0  0  0  0  0  0  0  0  0
  141.6866   72.5336  227.0543 H   0  0  0  0  0  0  0  0  0  0  0  0
  1  2  2  0
  2  3  1  0
  3  4  1  0
  4  5  1  0
  5  6  2  0
  5  7  1  0
  7  8  1  0
  8  9  1  0
  9 10  1  0
 10 11  1  0
 11 12  1  0
 12 13  1  0
 13 14  2  0
 14 15  1  0
 15 16  2  0
 16 17  1  0
 17 18  1  0
 17 19  2  0
  2 20  1  0
 20 21  2  0
 21 22  1  0
 22 23  2  0
 23 24  1  0
 24 25  2  0
 25 26  1  0
 26 27  2  0
 27 28  1  0
 28 29  2  0
 12  7  1  0
 19 13  1  0
 29 20  1  0
 28 23  1  0
  3 30  1  0
  4 31  1  0
  4 32  1  0
  8 33  1  0
  8 34  1  0
  9 35  1  0
  9 36  1  0
 10 37  1  0
 10 38  1  0
 11 39  1  0
 11 40  1  0
 12 41  1  1
 14 42  1  0
 15 43  1  0
 16 44  1  0
 19 45  1  0
 21 46  1  0
 22 47  1  0
 24 48  1  0
 25 49  1  0
 26 50  1  0
 27 51  1  0
M  END
>  <smiles>  (52) 
O=C(NCC(=O)N1CCCCC1c1cccc(F)c1)c1ccc2ccccc2n1

>  <score_type>  (52) 
oracle

>  <origin>  (52) 
autodockgpu

>  <m_score__min__energy>  (52) 
-8.8300000000000001

>  <m_primary>  (52) 
energy

>  <rmsd>  (52) 
1.6966240887714739

>  <m_score__min__rmsd>  (52) 
1.6966240887714739

>  <meeko>  (52) 
{"free_energy": -8.76, "intermolecular_energy": -10.25, "internal_energy": -1.24, "cluster_size": 13, "cluster_id": 1, "rank_in_cluster": 5}

>  <energy>  (52) 
-8.82

>  <cluster_rmsd>  (52) 
0.93

>  <cluster>  (52) 
1

$$$$

     RDKit          3D

 51 54  0  0  0  0  0  0  0  0999 V2000
  140.6840   71.4240  221.1540 O   0  0  0  0  0  0  0  0  0  0  0  0
  140.3430   72.0610  222.2050 C   0  0  0  0  0  0  0  0  0  0  0  0
  140.1060   73.4690  222.1680 N   0  0  0  0  0  0  0  0  0  0  0  0
  140.2400   74.2310  220.9450 C   0  0  0  0  0  0  0  0  0  0  0  0
  140.9740   75.5130  221.1810 C   0  0  0  0  0  0  0  0  0  0  0  0
  141.1250   75.9220  222.3610 O   0  0  0  0  0  0  0  0  0  0  0  0
  141.4640   76.2020  220.0400 N   0  0  0  0  0  0  0  0  0  0  0  0
  141.1820   77.6050  219.7800 C   0  0  0  0  0  0  0  0  0  0  0  0
  140.9350   77.7880  218.2980 C   0  0  0  0  0  0  0  0  0  0  0  0
  142.0530   77.2430  217.4570 C   0  0  0  0  0  0  0  0  0  0  0  0
  143.0710   76.4820  218.3050 C   0  0  0  0  0  0  0  0  0  0  0  0
  142.2780   75.4690  219.1050 C   0  0  1  0  0  0  0  0  0  0  0  0
  143.1320   74.4280  219.6990 C   0  0  0  0  0  0  0  0  0  0  0  0
  142.8280   73.0840  219.7130 C   0  0  0  0  0  0  0  0  0  0  0  0
  143.6150   72.1150  220.2620 C   0  0  0  0  0  0  0  0  0  0  0  0
  144.8070   72.4730  220.8570 C   0  0  0  0  0  0  0  0  0  0  0  0
  145.1610   73.8000  220.8730 C   0  0  0  0  0  0  0  0  0  0  0  0
  146.3460   74.1370  221.4680 F   0  0  0  0  0  0  0  0  0  0  0  0
  144.3450   74.7770  220.3070 C   0  0  0  0  0  0  0  0  0  0  0  0
  140.1900   71.3470  223.4790 C   0  0  0  0  0  0  0  0  0  0  0  0
  139.5720   70.1150  223.4930 C   0  0  0  0  0  0  0  0  0  0  0  0
  139.4240   69.4350  224.6980 C   0  0  0  0  0  0  0  0  0  0  0  0
  139.9070   70.0210  225.8560 C   0  0  0  0  0  0  0  0  0  0  0  0
  139.7710   69.3640  227.0600 C   0  0  0  0  0  0  0  0  0  0  0  0
  140.2600   69.9630  228.2260 C   0  0  0  0  0  0  0  0  0  0  0  0
  140.8770   71.1990  228.2020 C   0  0  0  0  0  0  0  0  0  0  0  0
  141.0020   71.8400  226.9790 C   0  0  0  0  0  0  0  0  0  0  0  0
  140.5270   71.2660  225.8220 C   0  0  0  0  0  0  0  0  0  0  0  0
  140.6480   71.8910  224.6260 N   0  0  0  0  0  0  0  0  0  0  0  0
  139.8270   73.9280  223.0850 H   0  0  0  0  0  0  0  0  0  0  0  0
  140.7942   73.6312  220.2080 H   0  0  0  0  0  0  0  0  0  0  0  0
  139.2329   74.4709  220.5733 H   0  0  0  0  0  0  0  0  0  0  0  0
  140.2893   77.9131  220.3441 H   0  0  0  0  0  0  0  0  0  0  0  0
  142.0366   78.2219  220.0948 H   0  0  0  0  0  0  0  0  0  0  0  0
  140.0045   77.2669  218.0285 H   0  0  0  0  0  0  0  0  0  0  0  0
  140.8651   78.8681  218.1017 H   0  0  0  0  0  0  0  0  0  0  0  0
  141.6335   76.5601  216.7035 H   0  0  0  0  0  0  0  0  0  0  0  0
  142.5671   78.0882  216.9760 H   0  0  0  0  0  0  0  0  0  0  0  0
  143.8006   75.9716  217.6590 H   0  0  0  0  0  0  0  0  0  0  0  0
  143.6343   77.1609  218.9621 H   0  0  0  0  0  0  0  0  0  0  0  0
  141.6101   74.8857  218.4541 H   0  0  0  0  0  0  0  0  0  0  0  0
  141.8820   72.7700  219.2476 H   0  0  0  0  0  0  0  0  0  0  0  0
  143.3031   71.0606  220.2308 H   0  0  0  0  0  0  0  0  0  0  0  0
  145.4601   71.7119  221.3090 H   0  0  0  0  0  0  0  0  0  0  0  0
  144.6558   75.8317  220.3377 H   0  0  0  0  0  0  0  0  0  0  0  0
  139.1983   69.6723  222.5579 H   0  0  0  0  0  0  0  0  0  0  0  0
  138.9329   68.4512  224.7301 H   0  0  0  0  0  0  0  0  0  0  0  0
  139.2831   68.3791  227.1037 H   0  0  0  0  0  0  0  0  0  0  0  0
  140.1505   69.4368  229.1857 H   0  0  0  0  0  0  0  0  0  0  0  0
  141.2575   71.6605  229.1252 H   0  0  0  0  0  0  0  0  0  0  0  0
  141.4896   72.8250  226.9327 H   0  0  0  0  0  0  0  0  0  0  0  0
  1  2  2  0
  2  3  1  0
  3  4  1  0
  4  5  1  0
  5  6  2  0
  5  7  1  0
  7  8  1  0
  8  9  1  0
  9 10  1  0
 10 11  1  0
 11 12  1  0
 12 13  1  0
 13 14  2  0
 14 15  1  0
 15 16  2  0
 16 17  1  0
 17 18  1  0
 17 19  2  0
  2 20  1  0
 20 21  2  0
 21 22  1  0
 22 23  2  0
 23 24  1  0
 24 25  2  0
 25 26  1  0
 26 27  2  0
 27 28  1  0
 28 29  2  0
 12  7  1  0
 19 13  1  0
 29 20  1  0
 28 23  1  0
  3 30  1  0
  4 31  1  0
  4 32  1  0
  8 33  1  0
  8 34  1  0
  9 35  1  0
  9 36  1  0
 10 37  1  0
 10 38  1  0
 11 39  1  0
 11 40  1  0
 12 41  1  6
 14 42  1  0
 15 43  1  0
 16 44  1  0
 19 45  1  0
 21 46  1  0
 22 47  1  0
 24 48  1  0
 25 49  1  0
 26 50  1  0
 27 51  1  0
M  END
>  <smiles>  (53) 
O=C(NCC(=O)N1CCCCC1c1cccc(F)c1)c1ccc2ccccc2n1

>  <score_type>  (53) 
oracle

>  <origin>  (53) 
autodockgpu

>  <m_score__min__energy>  (53) 
-8.8300000000000001

>  <m_primary>  (53) 
energy

>  <rmsd>  (53) 
2.1567099178368268

>  <m_score__min__rmsd>  (53) 
2.1567099178368268

>  <meeko>  (53) 
{"free_energy": -8.32, "intermolecular_energy": -9.81, "internal_energy": -1.96, "cluster_size": 30, "cluster_id": 3, "rank_in_cluster": 19}

>  <energy>  (53) 
-8.8

>  <cluster_rmsd>  (53) 
0.07

>  <cluster>  (53) 
1

$$$$

     RDKit          3D

 51 54  0  0  0  0  0  0  0  0999 V2000
  140.8400   71.4250  221.2750 O   0  0  0  0  0  0  0  0  0  0  0  0
  140.3710   72.0500  222.2830 C   0  0  0  0  0  0  0  0  0  0  0  0
  140.0050   73.4270  222.1890 N   0  0  0  0  0  0  0  0  0  0  0  0
  140.1490   74.1710  220.9570 C   0  0  0  0  0  0  0  0  0  0  0  0
  140.9680   75.4060  221.1590 C   0  0  0  0  0  0  0  0  0  0  0  0
  141.2370   75.7750  222.3320 O   0  0  0  0  0  0  0  0  0  0  0  0
  141.3990   76.1000  219.9970 N   0  0  0  0  0  0  0  0  0  0  0  0
  140.9810   77.4570  219.6840 C   0  0  0  0  0  0  0  0  0  0  0  0
  140.7330   77.5620  218.1940 C   0  0  0  0  0  0  0  0  0  0  0  0
  141.9090   77.1010  217.3830 C   0  0  0  0  0  0  0  0  0  0  0  0
  142.9890   76.4780  218.2650 C   0  0  0  0  0  0  0  0  0  0  0  0
  142.2920   75.4190  219.0960 C   0  0  1  0  0  0  0  0  0  0  0  0
  143.2390   74.4910  219.7340 C   0  0  0  0  0  0  0  0  0  0  0  0
  144.4440   74.8660  220.2880 C   0  0  0  0  0  0  0  0  0  0  0  0
  145.3270   74.0120  220.8810 C   0  0  0  0  0  0  0  0  0  0  0  0
  145.0220   72.6680  220.9460 C   0  0  0  0  0  0  0  0  0  0  0  0
  143.8330   72.2370  220.4100 C   0  0  0  0  0  0  0  0  0  0  0  0
  143.5470   70.9010  220.4830 F   0  0  0  0  0  0  0  0  0  0  0  0
  142.9440   73.1240  219.8080 C   0  0  0  0  0  0  0  0  0  0  0  0
  140.1980   71.3530  223.5640 C   0  0  0  0  0  0  0  0  0  0  0  0
  139.5540   70.1360  223.5900 C   0  0  0  0  0  0  0  0  0  0  0  0
  139.3880   69.4720  224.8010 C   0  0  0  0  0  0  0  0  0  0  0  0
  139.8810   70.0600  225.9540 C   0  0  0  0  0  0  0  0  0  0  0  0
  139.7280   69.4190  227.1650 C   0  0  0  0  0  0  0  0  0  0  0  0
  140.2290   70.0190  228.3250 C   0  0  0  0  0  0  0  0  0  0  0  0
  140.8730   71.2400  228.2890 C   0  0  0  0  0  0  0  0  0  0  0  0
  141.0150   71.8650  227.0600 C   0  0  0  0  0  0  0  0  0  0  0  0
  140.5300   71.2900  225.9080 C   0  0  0  0  0  0  0  0  0  0  0  0
  140.6660   71.8990  224.7060 N   0  0  0  0  0  0  0  0  0  0  0  0
  139.6210   73.8780  223.0720 H   0  0  0  0  0  0  0  0  0  0  0  0
  140.6420   73.5328  220.2088 H   0  0  0  0  0  0  0  0  0  0  0  0
  139.1478   74.4713  220.6144 H   0  0  0  0  0  0  0  0  0  0  0  0
  140.0559   77.6937  220.2300 H   0  0  0  0  0  0  0  0  0  0  0  0
  141.7663   78.1672  219.9823 H   0  0  0  0  0  0  0  0  0  0  0  0
  139.8618   76.9418  217.9366 H   0  0  0  0  0  0  0  0  0  0  0  0
  140.5581   78.6219  217.9576 H   0  0  0  0  0  0  0  0  0  0  0  0
  141.5680   76.3521  216.6530 H   0  0  0  0  0  0  0  0  0  0  0  0
  142.3412   77.9756  216.8748 H   0  0  0  0  0  0  0  0  0  0  0  0
  143.7731   76.0210  217.6435 H   0  0  0  0  0  0  0  0  0  0  0  0
  143.4746   77.2331  218.9006 H   0  0  0  0  0  0  0  0  0  0  0  0
  141.6930   74.7484  218.4623 H   0  0  0  0  0  0  0  0  0  0  0  0
  144.7133   75.9318  220.2491 H   0  0  0  0  0  0  0  0  0  0  0  0
  146.2703   74.3901  221.3020 H   0  0  0  0  0  0  0  0  0  0  0  0
  145.7163   71.9567  221.4171 H   0  0  0  0  0  0  0  0  0  0  0  0
  142.0005   72.7470  219.3864 H   0  0  0  0  0  0  0  0  0  0  0  0
  139.1731   69.6916  222.6586 H   0  0  0  0  0  0  0  0  0  0  0  0
  138.8755   68.4995  224.8421 H   0  0  0  0  0  0  0  0  0  0  0  0
  139.2174   68.4461  227.2184 H   0  0  0  0  0  0  0  0  0  0  0  0
  140.1069   69.5054  229.2900 H   0  0  0  0  0  0  0  0  0  0  0  0
  141.2617   71.7028  229.2081 H   0  0  0  0  0  0  0  0  0  0  0  0
  141.5246   72.8382  227.0047 H   0  0  0  0  0  0  0  0  0  0  0  0
  1  2  2  0
  2  3  1  0
  3  4  1  0
  4  5  1  0
  5  6  2  0
  5  7  1  0
  7  8  1  0
  8  9  1  0
  9 10  1  0
 10 11  1  0
 11 12  1  0
 12 13  1  0
 13 14  2  0
 14 15  1  0
 15 16  2  0
 16 17  1  0
 17 18  1  0
 17 19  2  0
  2 20  1  0
 20 21  2  0
 21 22  1  0
 22 23  2  0
 23 24  1  0
 24 25  2  0
 25 26  1  0
 26 27  2  0
 27 28  1  0
 28 29  2  0
 12  7  1  0
 19 13  1  0
 29 20  1  0
 28 23  1  0
  3 30  1  0
  4 31  1  0
  4 32  1  0
  8 33  1  0
  8 34  1  0
  9 35  1  0
  9 36  1  0
 10 37  1  0
 10 38  1  0
 11 39  1  0
 11 40  1  0
 12 41  1  6
 14 42  1  0
 15 43  1  0
 16 44  1  0
 19 45  1  0
 21 46  1  0
 22 47  1  0
 24 48  1  0
 25 49  1  0
 26 50  1  0
 27 51  1  0
M  END
>  <smiles>  (54) 
O=C(NCC(=O)N1CCCCC1c1cccc(F)c1)c1ccc2ccccc2n1

>  <score_type>  (54) 
oracle

>  <origin>  (54) 
autodockgpu

>  <m_score__min__energy>  (54) 
-8.8300000000000001

>  <m_primary>  (54) 
energy

>  <rmsd>  (54) 
2.0889952393426583

>  <m_score__min__rmsd>  (54) 
2.0889952393426583

>  <meeko>  (54) 
{"free_energy": -8.36, "intermolecular_energy": -9.85, "internal_energy": -1.91, "cluster_size": 30, "cluster_id": 3, "rank_in_cluster": 6}

>  <energy>  (54) 
-8.77

>  <cluster_rmsd>  (54) 
0.99

>  <cluster>  (54) 
1

$$$$

     RDKit          3D

 51 54  0  0  0  0  0  0  0  0999 V2000
  140.0590   70.9530  221.0990 O   0  0  0  0  0  0  0  0  0  0  0  0
  140.3790   71.6320  222.1300 C   0  0  0  0  0  0  0  0  0  0  0  0
  140.9020   72.9560  222.0060 N   0  0  0  0  0  0  0  0  0  0  0  0
  141.0900   73.5810  220.7150 C   0  0  0  0  0  0  0  0  0  0  0  0
  141.4600   75.0230  220.8580 C   0  0  0  0  0  0  0  0  0  0  0  0
  141.4340   75.5500  222.0010 O   0  0  0  0  0  0  0  0  0  0  0  0
  141.8240   75.7240  219.6770 N   0  0  0  0  0  0  0  0  0  0  0  0
  141.2540   77.0100  219.3120 C   0  0  0  0  0  0  0  0  0  0  0  0
  141.0170   77.0340  217.8170 C   0  0  0  0  0  0  0  0  0  0  0  0
  142.2510   76.6880  217.0340 C   0  0  0  0  0  0  0  0  0  0  0  0
  143.3830   76.2270  217.9490 C   0  0  0  0  0  0  0  0  0  0  0  0
  142.8030   75.1220  218.8100 C   0  0  1  0  0  0  0  0  0  0  0  0
  143.8440   74.3340  219.4910 C   0  0  0  0  0  0  0  0  0  0  0  0
  144.6920   74.8330  220.4550 C   0  0  0  0  0  0  0  0  0  0  0  0
  145.6590   74.1090  221.0890 C   0  0  0  0  0  0  0  0  0  0  0  0
  145.8250   72.7790  220.7640 C   0  0  0  0  0  0  0  0  0  0  0  0
  145.0060   72.2280  219.8090 C   0  0  0  0  0  0  0  0  0  0  0  0
  145.1850   70.9080  219.4990 F   0  0  0  0  0  0  0  0  0  0  0  0
  144.0240   72.9830  219.1710 C   0  0  0  0  0  0  0  0  0  0  0  0
  140.2120   71.0560  223.4710 C   0  0  0  0  0  0  0  0  0  0  0  0
  139.5530   69.8540  223.6120 C   0  0  0  0  0  0  0  0  0  0  0  0
  139.3920   69.3040  224.8790 C   0  0  0  0  0  0  0  0  0  0  0  0
  139.9050   69.9860  225.9700 C   0  0  0  0  0  0  0  0  0  0  0  0
  139.7580   69.4580  227.2350 C   0  0  0  0  0  0  0  0  0  0  0  0
  140.2780   70.1540  228.3320 C   0  0  0  0  0  0  0  0  0  0  0  0
  140.9360   71.3590  228.1800 C   0  0  0  0  0  0  0  0  0  0  0  0
  141.0730   71.8690  226.8980 C   0  0  0  0  0  0  0  0  0  0  0  0
  140.5680   71.1990  225.8080 C   0  0  0  0  0  0  0  0  0  0  0  0
  140.6990   71.6960  224.5540 N   0  0  0  0  0  0  0  0  0  0  0  0
  141.1460   73.4570  222.9110 H   0  0  0  0  0  0  0  0  0  0  0  0
  141.8933   73.0567  220.1766 H   0  0  0  0  0  0  0  0  0  0  0  0
  140.1434   73.5191  220.1582 H   0  0  0  0  0  0  0  0  0  0  0  0
  140.2996   77.1542  219.8396 H   0  0  0  0  0  0  0  0  0  0  0  0
  141.9457   77.8178  219.5930 H   0  0  0  0  0  0  0  0  0  0  0  0
  140.2287   76.3066  217.5730 H   0  0  0  0  0  0  0  0  0  0  0  0
  140.7220   78.0573  217.5415 H   0  0  0  0  0  0  0  0  0  0  0  0
  142.0111   75.8800  216.3272 H   0  0  0  0  0  0  0  0  0  0  0  0
  142.5847   77.5895  216.4993 H   0  0  0  0  0  0  0  0  0  0  0  0
  144.2245   75.8446  217.3526 H   0  0  0  0  0  0  0  0  0  0  0  0
  143.7669   77.0554  218.5625 H   0  0  0  0  0  0  0  0  0  0  0  0
  142.2959   74.3642  218.1947 H   0  0  0  0  0  0  0  0  0  0  0  0
  144.5816   75.8914  220.7337 H   0  0  0  0  0  0  0  0  0  0  0  0
  146.2984   74.5802  221.8500 H   0  0  0  0  0  0  0  0  0  0  0  0
  146.5972   72.1721  221.2593 H   0  0  0  0  0  0  0  0  0  0  0  0
  143.3845   72.5134  218.4091 H   0  0  0  0  0  0  0  0  0  0  0  0
  139.1568   69.3329  222.7280 H   0  0  0  0  0  0  0  0  0  0  0  0
  138.8676   68.3463  225.0122 H   0  0  0  0  0  0  0  0  0  0  0  0
  139.2375   68.4999  227.3805 H   0  0  0  0  0  0  0  0  0  0  0  0
  140.1598   69.7310  229.3405 H   0  0  0  0  0  0  0  0  0  0  0  0
  141.3393   71.8979  229.0501 H   0  0  0  0  0  0  0  0  0  0  0  0
  141.5946   72.8261  226.7500 H   0  0  0  0  0  0  0  0  0  0  0  0
  1  2  2  0
  2  3  1  0
  3  4  1  0
  4  5  1  0
  5  6  2  0
  5  7  1  0
  7  8  1  0
  8  9  1  0
  9 10  1  0
 10 11  1  0
 11 12  1  0
 12 13  1  0
 13 14  2  0
 14 15  1  0
 15 16  2  0
 16 17  1  0
 17 18  1  0
 17 19  2  0
  2 20  1  0
 20 21  2  0
 21 22  1  0
 22 23  2  0
 23 24  1  0
 24 25  2  0
 25 26  1  0
 26 27  2  0
 27 28  1  0
 28 29  2  0
 12  7  1  0
 19 13  1  0
 29 20  1  0
 28 23  1  0
  3 30  1  0
  4 31  1  0
  4 32  1  0
  8 33  1  0
  8 34  1  0
  9 35  1  0
  9 36  1  0
 10 37  1  0
 10 38  1  0
 11 39  1  0
 11 40  1  0
 12 41  1  6
 14 42  1  0
 15 43  1  0
 16 44  1  0
 19 45  1  0
 21 46  1  0
 22 47  1  0
 24 48  1  0
 25 49  1  0
 26 50  1  0
 27 51  1  0
M  END
>  <smiles>  (55) 
O=C(NCC(=O)N1CCCCC1c1cccc(F)c1)c1ccc2ccccc2n1

>  <score_type>  (55) 
oracle

>  <origin>  (55) 
autodockgpu

>  <m_score__min__energy>  (55) 
-8.8300000000000001

>  <m_primary>  (55) 
energy

>  <rmsd>  (55) 
2.2676972677946745

>  <m_score__min__rmsd>  (55) 
2.2676972677946745

>  <meeko>  (55) 
{"free_energy": -7.81, "intermolecular_energy": -9.31, "internal_energy": -2.14, "cluster_size": 30, "cluster_id": 3, "rank_in_cluster": 28}

>  <energy>  (55) 
-8.76

>  <cluster_rmsd>  (55) 
1.02

>  <cluster>  (55) 
1

$$$$

     RDKit          3D

 51 54  0  0  0  0  0  0  0  0999 V2000
  139.3160   71.5460  221.1080 O   0  0  0  0  0  0  0  0  0  0  0  0
  139.8860   72.0250  222.1430 C   0  0  0  0  0  0  0  0  0  0  0  0
  140.5060   73.3110  222.1130 N   0  0  0  0  0  0  0  0  0  0  0  0
  140.5160   74.1220  220.9150 C   0  0  0  0  0  0  0  0  0  0  0  0
  141.1800   75.4410  221.1560 C   0  0  0  0  0  0  0  0  0  0  0  0
  141.2530   75.8810  222.3330 O   0  0  0  0  0  0  0  0  0  0  0  0
  141.6950   76.1280  220.0250 N   0  0  0  0  0  0  0  0  0  0  0  0
  141.4570   77.5410  219.7810 C   0  0  0  0  0  0  0  0  0  0  0  0
  141.2210   77.7490  218.2990 C   0  0  0  0  0  0  0  0  0  0  0  0
  142.3250   77.1790  217.4570 C   0  0  0  0  0  0  0  0  0  0  0  0
  143.3170   76.3790  218.3000 C   0  0  0  0  0  0  0  0  0  0  0  0
  142.4900   75.3810  219.0850 C   0  0  1  0  0  0  0  0  0  0  0  0
  143.3100   74.3080  219.6710 C   0  0  0  0  0  0  0  0  0  0  0  0
  143.0320   72.9640  219.5580 C   0  0  0  0  0  0  0  0  0  0  0  0
  143.7870   71.9650  220.0980 C   0  0  0  0  0  0  0  0  0  0  0  0
  144.9170   72.2920  220.8180 C   0  0  0  0  0  0  0  0  0  0  0  0
  145.2440   73.6170  220.9640 C   0  0  0  0  0  0  0  0  0  0  0  0
  146.3680   73.9230  221.6810 F   0  0  0  0  0  0  0  0  0  0  0  0
  144.4600   74.6240  220.4050 C   0  0  0  0  0  0  0  0  0  0  0  0
  139.9120   71.2520  223.3920 C   0  0  0  0  0  0  0  0  0  0  0  0
  139.3980   69.9740  223.4060 C   0  0  0  0  0  0  0  0  0  0  0  0
  139.4200   69.2370  224.5860 C   0  0  0  0  0  0  0  0  0  0  0  0
  139.9620   69.8170  225.7210 C   0  0  0  0  0  0  0  0  0  0  0  0
  139.9940   69.1050  226.9010 C   0  0  0  0  0  0  0  0  0  0  0  0
  140.5430   69.6980  228.0430 C   0  0  0  0  0  0  0  0  0  0  0  0
  141.0540   70.9800  228.0200 C   0  0  0  0  0  0  0  0  0  0  0  0
  141.0110   71.6760  226.8210 C   0  0  0  0  0  0  0  0  0  0  0  0
  140.4760   71.1100  225.6880 C   0  0  0  0  0  0  0  0  0  0  0  0
  140.4320   71.7880  224.5150 N   0  0  0  0  0  0  0  0  0  0  0  0
  140.9610   73.6410  223.0150 H   0  0  0  0  0  0  0  0  0  0  0  0
  141.0610   73.5859  220.1241 H   0  0  0  0  0  0  0  0  0  0  0  0
  139.4747   74.3079  220.6133 H   0  0  0  0  0  0  0  0  0  0  0  0
  140.5720   77.8695  220.3457 H   0  0  0  0  0  0  0  0  0  0  0  0
  142.3288   78.1278  220.1060 H   0  0  0  0  0  0  0  0  0  0  0  0
  140.2759   77.2602  218.0200 H   0  0  0  0  0  0  0  0  0  0  0  0
  141.1847   78.8328  218.1146 H   0  0  0  0  0  0  0  0  0  0  0  0
  141.8879   76.5167  216.6952 H   0  0  0  0  0  0  0  0  0  0  0  0
  142.8661   78.0134  216.9869 H   0  0  0  0  0  0  0  0  0  0  0  0
  144.0339   75.8546  217.6511 H   0  0  0  0  0  0  0  0  0  0  0  0
  143.8979   77.0332  218.9668 H   0  0  0  0  0  0  0  0  0  0  0  0
  141.8077   74.8254  218.4249 H   0  0  0  0  0  0  0  0  0  0  0  0
  142.1351   72.6751  218.9905 H   0  0  0  0  0  0  0  0  0  0  0  0
  143.4986   70.9123  219.9612 H   0  0  0  0  0  0  0  0  0  0  0  0
  145.5435   71.5068  221.2662 H   0  0  0  0  0  0  0  0  0  0  0  0
  144.7470   75.6771  220.5415 H   0  0  0  0  0  0  0  0  0  0  0  0
  138.9727   69.5387  222.4897 H   0  0  0  0  0  0  0  0  0  0  0  0
  139.0152   68.2146  224.6168 H   0  0  0  0  0  0  0  0  0  0  0  0
  139.5923   68.0819  226.9442 H   0  0  0  0  0  0  0  0  0  0  0  0
  140.5681   69.1279  228.9834 H   0  0  0  0  0  0  0  0  0  0  0  0
  141.4823   71.4358  228.9249 H   0  0  0  0  0  0  0  0  0  0  0  0
  141.4122   72.6992  226.7758 H   0  0  0  0  0  0  0  0  0  0  0  0
  1  2  2  0
  2  3  1  0
  3  4  1  0
  4  5  1  0
  5  6  2  0
  5  7  1  0
  7  8  1  0
  8  9  1  0
  9 10  1  0
 10 11  1  0
 11 12  1  0
 12 13  1  0
 13 14  2  0
 14 15  1  0
 15 16  2  0
 16 17  1  0
 17 18  1  0
 17 19  2  0
  2 20  1  0
 20 21  2  0
 21 22  1  0
 22 23  2  0
 23 24  1  0
 24 25  2  0
 25 26  1  0
 26 27  2  0
 27 28  1  0
 28 29  2  0
 12  7  1  0
 19 13  1  0
 29 20  1  0
 28 23  1  0
  3 30  1  0
  4 31  1  0
  4 32  1  0
  8 33  1  0
  8 34  1  0
  9 35  1  0
  9 36  1  0
 10 37  1  0
 10 38  1  0
 11 39  1  0
 11 40  1  0
 12 41  1  6
 14 42  1  0
 15 43  1  0
 16 44  1  0
 19 45  1  0
 21 46  1  0
 22 47  1  0
 24 48  1  0
 25 49  1  0
 26 50  1  0
 27 51  1  0
M  END
>  <smiles>  (56) 
O=C(NCC(=O)N1CCCCC1c1cccc(F)c1)c1ccc2ccccc2n1

>  <score_type>  (56) 
oracle

>  <origin>  (56) 
autodockgpu

>  <m_score__min__energy>  (56) 
-8.8300000000000001

>  <m_primary>  (56) 
energy

>  <rmsd>  (56) 
2.2167298626097405

>  <m_score__min__rmsd>  (56) 
2.2167298626097405

>  <meeko>  (56) 
{"free_energy": -7.65, "intermolecular_energy": -9.15, "internal_energy": -2.14, "cluster_size": 30, "cluster_id": 3, "rank_in_cluster": 29}

>  <energy>  (56) 
-8.73

>  <cluster_rmsd>  (56) 
0.95

>  <cluster>  (56) 
1

$$$$

     RDKit          3D

 51 54  0  0  0  0  0  0  0  0999 V2000
  141.3470   72.3740  221.5190 O   0  0  0  0  0  0  0  0  0  0  0  0
  140.3470   72.5780  222.2850 C   0  0  0  0  0  0  0  0  0  0  0  0
  139.4480   73.6620  222.0470 N   0  0  0  0  0  0  0  0  0  0  0  0
  139.6290   74.5700  220.9360 C   0  0  0  0  0  0  0  0  0  0  0  0
  140.7400   75.5370  221.1980 C   0  0  0  0  0  0  0  0  0  0  0  0
  141.2360   75.5990  222.3530 O   0  0  0  0  0  0  0  0  0  0  0  0
  141.1750   76.3410  220.1110 N   0  0  0  0  0  0  0  0  0  0  0  0
  141.0660   75.9230  218.7230 C   0  0  0  0  0  0  0  0  0  0  0  0
  142.3130   76.3560  217.9820 C   0  0  0  0  0  0  0  0  0  0  0  0
  142.5950   77.8220  218.1390 C   0  0  0  0  0  0  0  0  0  0  0  0
  141.6520   78.4680  219.1520 C   0  0  0  0  0  0  0  0  0  0  0  0
  141.7480   77.6280  220.4100 C   0  0  1  0  0  0  0  0  0  0  0  0
  141.1820   78.3080  221.5860 C   0  0  0  0  0  0  0  0  0  0  0  0
  141.9280   78.8210  222.6240 C   0  0  0  0  0  0  0  0  0  0  0  0
  141.4100   79.4520  223.7160 C   0  0  0  0  0  0  0  0  0  0  0  0
  140.0420   79.6030  223.8200 C   0  0  0  0  0  0  0  0  0  0  0  0
  139.2480   79.1100  222.8140 C   0  0  0  0  0  0  0  0  0  0  0  0
  137.8940   79.2680  222.9330 F   0  0  0  0  0  0  0  0  0  0  0  0
  139.7950   78.4680  221.7050 C   0  0  0  0  0  0  0  0  0  0  0  0
  140.1070   71.6920  223.4310 C   0  0  0  0  0  0  0  0  0  0  0  0
  139.2810   70.6000  223.2790 C   0  0  0  0  0  0  0  0  0  0  0  0
  139.0500   69.7570  224.3610 C   0  0  0  0  0  0  0  0  0  0  0  0
  139.6630   70.0450  225.5700 C   0  0  0  0  0  0  0  0  0  0  0  0
  139.4480   69.2220  226.6550 C   0  0  0  0  0  0  0  0  0  0  0  0
  140.0710   69.5200  227.8730 C   0  0  0  0  0  0  0  0  0  0  0  0
  140.8960   70.6180  228.0150 C   0  0  0  0  0  0  0  0  0  0  0  0
  141.0980   71.4290  226.9090 C   0  0  0  0  0  0  0  0  0  0  0  0
  140.4940   71.1530  225.7040 C   0  0  0  0  0  0  0  0  0  0  0  0
  140.6880   71.9440  224.6220 N   0  0  0  0  0  0  0  0  0  0  0  0
  138.6390   73.7670  222.7290 H   0  0  0  0  0  0  0  0  0  0  0  0
  139.8661   73.9882  220.0331 H   0  0  0  0  0  0  0  0  0  0  0  0
  138.6983   75.1402  220.7992 H   0  0  0  0  0  0  0  0  0  0  0  0
  140.9682   74.8285  218.6734 H   0  0  0  0  0  0  0  0  0  0  0  0
  140.1796   76.3843  218.2630 H   0  0  0  0  0  0  0  0  0  0  0  0
  143.1704   75.7881  218.3723 H   0  0  0  0  0  0  0  0  0  0  0  0
  142.1511   76.1595  216.9119 H   0  0  0  0  0  0  0  0  0  0  0  0
  143.6319   77.9518  218.4826 H   0  0  0  0  0  0  0  0  0  0  0  0
  142.4414   78.3093  217.1649 H   0  0  0  0  0  0  0  0  0  0  0  0
  141.9642   79.5023  219.3587 H   0  0  0  0  0  0  0  0  0  0  0  0
  140.6202   78.5074  218.7726 H   0  0  0  0  0  0  0  0  0  0  0  0
  142.7966   77.4760  220.7057 H   0  0  0  0  0  0  0  0  0  0  0  0
  143.0213   78.7138  222.5679 H   0  0  0  0  0  0  0  0  0  0  0  0
  142.0741   79.8360  224.5044 H   0  0  0  0  0  0  0  0  0  0  0  0
  139.5972   80.1076  224.6904 H   0  0  0  0  0  0  0  0  0  0  0  0
  139.1322   78.0833  220.9159 H   0  0  0  0  0  0  0  0  0  0  0  0
  138.8069   70.3959  222.3076 H   0  0  0  0  0  0  0  0  0  0  0  0
  138.3942   68.8798  224.2591 H   0  0  0  0  0  0  0  0  0  0  0  0
  138.7947   68.3416  226.5648 H   0  0  0  0  0  0  0  0  0  0  0  0
  139.8989   68.8630  228.7383 H   0  0  0  0  0  0  0  0  0  0  0  0
  141.3788   70.8426  228.9775 H   0  0  0  0  0  0  0  0  0  0  0  0
  141.7527   72.3086  226.9963 H   0  0  0  0  0  0  0  0  0  0  0  0
  1  2  2  0
  2  3  1  0
  3  4  1  0
  4  5  1  0
  5  6  2  0
  5  7  1  0
  7  8  1  0
  8  9  1  0
  9 10  1  0
 10 11  1  0
 11 12  1  0
 12 13  1  0
 13 14  2  0
 14 15  1  0
 15 16  2  0
 16 17  1  0
 17 18  1  0
 17 19  2  0
  2 20  1  0
 20 21  2  0
 21 22  1  0
 22 23  2  0
 23 24  1  0
 24 25  2  0
 25 26  1  0
 26 27  2  0
 27 28  1  0
 28 29  2  0
 12  7  1  0
 19 13  1  0
 29 20  1  0
 28 23  1  0
  3 30  1  0
  4 31  1  0
  4 32  1  0
  8 33  1  0
  8 34  1  0
  9 35  1  0
  9 36  1  0
 10 37  1  0
 10 38  1  0
 11 39  1  0
 11 40  1  0
 12 41  1  1
 14 42  1  0
 15 43  1  0
 16 44  1  0
 19 45  1  0
 21 46  1  0
 22 47  1  0
 24 48  1  0
 25 49  1  0
 26 50  1  0
 27 51  1  0
M  END
>  <smiles>  (57) 
O=C(NCC(=O)N1CCCCC1c1cccc(F)c1)c1ccc2ccccc2n1

>  <score_type>  (57) 
oracle

>  <origin>  (57) 
autodockgpu

>  <m_score__min__energy>  (57) 
-8.8300000000000001

>  <m_primary>  (57) 
energy

>  <rmsd>  (57) 
1.7027094509166258

>  <m_score__min__rmsd>  (57) 
1.7027094509166258

>  <meeko>  (57) 
{"free_energy": -8.61, "intermolecular_energy": -10.1, "internal_energy": -1.29, "cluster_size": 13, "cluster_id": 1, "rank_in_cluster": 9}

>  <energy>  (57) 
-8.71

>  <cluster_rmsd>  (57) 
0.3

>  <cluster>  (57) 
1

$$$$

     RDKit          3D

 51 54  0  0  0  0  0  0  0  0999 V2000
  140.8920   71.5200  221.3480 O   0  0  0  0  0  0  0  0  0  0  0  0
  140.3850   72.1090  222.3590 C   0  0  0  0  0  0  0  0  0  0  0  0
  140.0010   73.4830  222.2940 N   0  0  0  0  0  0  0  0  0  0  0  0
  140.1680   74.2630  221.0870 C   0  0  0  0  0  0  0  0  0  0  0  0
  140.6970   75.6290  221.3910 C   0  0  0  0  0  0  0  0  0  0  0  0
  140.6630   76.0470  222.5780 O   0  0  0  0  0  0  0  0  0  0  0  0
  141.2140   76.3850  220.3050 N   0  0  0  0  0  0  0  0  0  0  0  0
  141.1670   75.9250  218.9260 C   0  0  0  0  0  0  0  0  0  0  0  0
  142.4650   76.2970  218.2410 C   0  0  0  0  0  0  0  0  0  0  0  0
  142.7820   77.7600  218.3680 C   0  0  0  0  0  0  0  0  0  0  0  0
  141.8060   78.4640  219.3080 C   0  0  0  0  0  0  0  0  0  0  0  0
  141.8090   77.6640  220.5950 C   0  0  1  0  0  0  0  0  0  0  0  0
  141.2010   78.3980  221.7160 C   0  0  0  0  0  0  0  0  0  0  0  0
  141.8730   78.7690  222.8600 C   0  0  0  0  0  0  0  0  0  0  0  0
  141.3160   79.4480  223.9030 C   0  0  0  0  0  0  0  0  0  0  0  0
  139.9850   79.8040  223.8400 C   0  0  0  0  0  0  0  0  0  0  0  0
  139.2650   79.4600  222.7220 C   0  0  0  0  0  0  0  0  0  0  0  0
  137.9460   79.8210  222.6760 F   0  0  0  0  0  0  0  0  0  0  0  0
  139.8510   78.7650  221.6660 C   0  0  0  0  0  0  0  0  0  0  0  0
  140.1890   71.3740  223.6150 C   0  0  0  0  0  0  0  0  0  0  0  0
  139.5200   70.1700  223.5950 C   0  0  0  0  0  0  0  0  0  0  0  0
  139.3310   69.4690  224.7820 C   0  0  0  0  0  0  0  0  0  0  0  0
  139.8260   70.0080  225.9580 C   0  0  0  0  0  0  0  0  0  0  0  0
  139.6500   69.3300  227.1450 C   0  0  0  0  0  0  0  0  0  0  0  0
  140.1520   69.8820  228.3290 C   0  0  0  0  0  0  0  0  0  0  0  0
  140.8210   71.0910  228.3390 C   0  0  0  0  0  0  0  0  0  0  0  0
  140.9850   71.7530  227.1320 C   0  0  0  0  0  0  0  0  0  0  0  0
  140.4990   71.2270  225.9580 C   0  0  0  0  0  0  0  0  0  0  0  0
  140.6570   71.8720  224.7780 N   0  0  0  0  0  0  0  0  0  0  0  0
  139.5860   73.9030  223.1780 H   0  0  0  0  0  0  0  0  0  0  0  0
  140.8740   73.7455  220.4208 H   0  0  0  0  0  0  0  0  0  0  0  0
  139.1853   74.3708  220.6047 H   0  0  0  0  0  0  0  0  0  0  0  0
  141.0382   74.8328  218.9052 H   0  0  0  0  0  0  0  0  0  0  0  0
  140.3214   76.3968  218.4041 H   0  0  0  0  0  0  0  0  0  0  0  0
  143.2825   75.7179  218.6952 H   0  0  0  0  0  0  0  0  0  0  0  0
  142.3558   76.0697  217.1703 H   0  0  0  0  0  0  0  0  0  0  0  0
  143.8025   77.8717  218.7631 H   0  0  0  0  0  0  0  0  0  0  0  0
  142.6953   78.2199  217.3725 H   0  0  0  0  0  0  0  0  0  0  0  0
  142.1371   79.4954  219.4991 H   0  0  0  0  0  0  0  0  0  0  0  0
  140.7976   78.5189  218.8719 H   0  0  0  0  0  0  0  0  0  0  0  0
  142.8349   77.4923  220.9527 H   0  0  0  0  0  0  0  0  0  0  0  0
  142.9362   78.4977  222.9376 H   0  0  0  0  0  0  0  0  0  0  0  0
  141.9208   79.7087  224.7840 H   0  0  0  0  0  0  0  0  0  0  0  0
  139.5102   80.3517  224.6674 H   0  0  0  0  0  0  0  0  0  0  0  0
  139.2472   78.5023  220.7849 H   0  0  0  0  0  0  0  0  0  0  0  0
  139.1375   69.7652  222.6464 H   0  0  0  0  0  0  0  0  0  0  0  0
  138.7991   68.5061  224.7864 H   0  0  0  0  0  0  0  0  0  0  0  0
  139.1209   68.3658  227.1615 H   0  0  0  0  0  0  0  0  0  0  0  0
  140.0104   69.3398  229.2755 H   0  0  0  0  0  0  0  0  0  0  0  0
  141.2114   71.5151  229.2758 H   0  0  0  0  0  0  0  0  0  0  0  0
  141.5139   72.7173  227.1130 H   0  0  0  0  0  0  0  0  0  0  0  0
  1  2  2  0
  2  3  1  0
  3  4  1  0
  4  5  1  0
  5  6  2  0
  5  7  1  0
  7  8  1  0
  8  9  1  0
  9 10  1  0
 10 11  1  0
 11 12  1  0
 12 13  1  0
 13 14  2  0
 14 15  1  0
 15 16  2  0
 16 17  1  0
 17 18  1  0
 17 19  2  0
  2 20  1  0
 20 21  2  0
 21 22  1  0
 22 23  2  0
 23 24  1  0
 24 25  2  0
 25 26  1  0
 26 27  2  0
 27 28  1  0
 28 29  2  0
 12  7  1  0
 19 13  1  0
 29 20  1  0
 28 23  1  0
  3 30  1  0
  4 31  1  0
  4 32  1  0
  8 33  1  0
  8 34  1  0
  9 35  1  0
  9 36  1  0
 10 37  1  0
 10 38  1  0
 11 39  1  0
 11 40  1  0
 12 41  1  1
 14 42  1  0
 15 43  1  0
 16 44  1  0
 19 45  1  0
 21 46  1  0
 22 47  1  0
 24 48  1  0
 25 49  1  0
 26 50  1  0
 27 51  1  0
M  END
>  <smiles>  (58) 
O=C(NCC(=O)N1CCCCC1c1cccc(F)c1)c1ccc2ccccc2n1

>  <score_type>  (58) 
oracle

>  <origin>  (58) 
autodockgpu

>  <m_score__min__energy>  (58) 
-8.8300000000000001

>  <m_primary>  (58) 
energy

>  <rmsd>  (58) 
1.7819690790989908

>  <m_score__min__rmsd>  (58) 
1.7819690790989908

>  <meeko>  (58) 
{"free_energy": -8.8, "intermolecular_energy": -10.29, "internal_energy": -1.3, "cluster_size": 13, "cluster_id": 1, "rank_in_cluster": 3}

>  <energy>  (58) 
-8.65

>  <cluster_rmsd>  (58) 
0.18

>  <cluster>  (58) 
1

$$$$

     RDKit          3D

 51 54  0  0  0  0  0  0  0  0999 V2000
  140.8290   71.5590  221.3440 O   0  0  0  0  0  0  0  0  0  0  0  0
  140.3540   72.1340  222.3790 C   0  0  0  0  0  0  0  0  0  0  0  0
  139.9590   73.5060  222.3420 N   0  0  0  0  0  0  0  0  0  0  0  0
  140.0790   74.3000  221.1380 C   0  0  0  0  0  0  0  0  0  0  0  0
  140.6590   75.6470  221.4310 C   0  0  0  0  0  0  0  0  0  0  0  0
  140.6550   76.0690  222.6160 O   0  0  0  0  0  0  0  0  0  0  0  0
  141.1860   76.3820  220.3350 N   0  0  0  0  0  0  0  0  0  0  0  0
  141.1380   75.9030  218.9640 C   0  0  0  0  0  0  0  0  0  0  0  0
  142.4420   76.2530  218.2770 C   0  0  0  0  0  0  0  0  0  0  0  0
  142.7730   77.7130  218.3840 C   0  0  0  0  0  0  0  0  0  0  0  0
  141.8010   78.4410  219.3110 C   0  0  0  0  0  0  0  0  0  0  0  0
  141.7930   77.6590  220.6090 C   0  0  1  0  0  0  0  0  0  0  0  0
  141.1890   78.4150  221.7180 C   0  0  0  0  0  0  0  0  0  0  0  0
  141.8710   78.8300  222.8410 C   0  0  0  0  0  0  0  0  0  0  0  0
  141.3180   79.5300  223.8720 C   0  0  0  0  0  0  0  0  0  0  0  0
  139.9800   79.8620  223.8180 C   0  0  0  0  0  0  0  0  0  0  0  0
  139.2490   79.4750  222.7220 C   0  0  0  0  0  0  0  0  0  0  0  0
  137.9240   79.8120  222.6850 F   0  0  0  0  0  0  0  0  0  0  0  0
  139.8320   78.7590  221.6770 C   0  0  0  0  0  0  0  0  0  0  0  0
  140.2060   71.3840  223.6330 C   0  0  0  0  0  0  0  0  0  0  0  0
  139.5810   70.1570  223.6160 C   0  0  0  0  0  0  0  0  0  0  0  0
  139.4380   69.4420  224.8020 C   0  0  0  0  0  0  0  0  0  0  0  0
  139.9340   69.9920  225.9720 C   0  0  0  0  0  0  0  0  0  0  0  0
  139.8030   69.3010  227.1580 C   0  0  0  0  0  0  0  0  0  0  0  0
  140.3060   69.8630  228.3370 C   0  0  0  0  0  0  0  0  0  0  0  0
  140.9300   71.0950  228.3430 C   0  0  0  0  0  0  0  0  0  0  0  0
  141.0500   71.7710  227.1380 C   0  0  0  0  0  0  0  0  0  0  0  0
  140.5620   71.2340  225.9700 C   0  0  0  0  0  0  0  0  0  0  0  0
  140.6770   71.8920  224.7910 N   0  0  0  0  0  0  0  0  0  0  0  0
  139.5730   73.9140  223.2440 H   0  0  0  0  0  0  0  0  0  0  0  0
  140.7334   73.7752  220.4264 H   0  0  0  0  0  0  0  0  0  0  0  0
  139.0742   74.4397  220.7126 H   0  0  0  0  0  0  0  0  0  0  0  0
  140.9988   74.8119  218.9586 H   0  0  0  0  0  0  0  0  0  0  0  0
  140.2982   76.3750  218.4331 H   0  0  0  0  0  0  0  0  0  0  0  0
  143.2526   75.6723  218.7415 H   0  0  0  0  0  0  0  0  0  0  0  0
  142.3330   76.0119  217.2093 H   0  0  0  0  0  0  0  0  0  0  0  0
  143.7934   77.8200  218.7808 H   0  0  0  0  0  0  0  0  0  0  0  0
  142.6938   78.1592  217.3817 H   0  0  0  0  0  0  0  0  0  0  0  0
  142.1420   79.4717  219.4883 H   0  0  0  0  0  0  0  0  0  0  0  0
  140.7944   78.5005  218.8713 H   0  0  0  0  0  0  0  0  0  0  0  0
  142.8162   77.4819  220.9720 H   0  0  0  0  0  0  0  0  0  0  0  0
  142.9395   78.5782  222.9108 H   0  0  0  0  0  0  0  0  0  0  0  0
  141.9309   79.8263  224.7360 H   0  0  0  0  0  0  0  0  0  0  0  0
  139.5083   80.4254  224.6365 H   0  0  0  0  0  0  0  0  0  0  0  0
  139.2204   78.4616  220.8124 H   0  0  0  0  0  0  0  0  0  0  0  0
  139.1972   69.7444  222.6713 H   0  0  0  0  0  0  0  0  0  0  0  0
  138.9413   68.4605  224.8095 H   0  0  0  0  0  0  0  0  0  0  0  0
  139.3085   68.3186  227.1773 H   0  0  0  0  0  0  0  0  0  0  0  0
  140.2018   69.3098  229.2821 H   0  0  0  0  0  0  0  0  0  0  0  0
  141.3203   71.5274  229.2761 H   0  0  0  0  0  0  0  0  0  0  0  0
  141.5440   72.7536  227.1162 H   0  0  0  0  0  0  0  0  0  0  0  0
  1  2  2  0
  2  3  1  0
  3  4  1  0
  4  5  1  0
  5  6  2  0
  5  7  1  0
  7  8  1  0
  8  9  1  0
  9 10  1  0
 10 11  1  0
 11 12  1  0
 12 13  1  0
 13 14  2  0
 14 15  1  0
 15 16  2  0
 16 17  1  0
 17 18  1  0
 17 19  2  0
  2 20  1  0
 20 21  2  0
 21 22  1  0
 22 23  2  0
 23 24  1  0
 24 25  2  0
 25 26  1  0
 26 27  2  0
 27 28  1  0
 28 29  2  0
 12  7  1  0
 19 13  1  0
 29 20  1  0
 28 23  1  0
  3 30  1  0
  4 31  1  0
  4 32  1  0
  8 33  1  0
  8 34  1  0
  9 35  1  0
  9 36  1  0
 10 37  1  0
 10 38  1  0
 11 39  1  0
 11 40  1  0
 12 41  1  1
 14 42  1  0
 15 43  1  0
 16 44  1  0
 19 45  1  0
 21 46  1  0
 22 47  1  0
 24 48  1  0
 25 49  1  0
 26 50  1  0
 27 51  1  0
M  END
>  <smiles>  (59) 
O=C(NCC(=O)N1CCCCC1c1cccc(F)c1)c1ccc2ccccc2n1

>  <score_type>  (59) 
oracle

>  <origin>  (59) 
autodockgpu

>  <m_score__min__energy>  (59) 
-8.8300000000000001

>  <m_primary>  (59) 
energy

>  <rmsd>  (59) 
1.7628291128326308

>  <m_score__min__rmsd>  (59) 
1.7628291128326308

>  <meeko>  (59) 
{"free_energy": -8.83, "intermolecular_energy": -10.32, "internal_energy": -1.31, "cluster_size": 13, "cluster_id": 1, "rank_in_cluster": 1}

>  <energy>  (59) 
-8.61

>  <cluster_rmsd>  (59) 
0.5

>  <cluster>  (59) 
1

$$$$

     RDKit          3D

 51 54  0  0  0  0  0  0  0  0999 V2000
  141.4500   72.5080  221.6510 O   0  0  0  0  0  0  0  0  0  0  0  0
  140.4640   72.6300  222.4510 C   0  0  0  0  0  0  0  0  0  0  0  0
  139.5570   73.7270  222.3400 N   0  0  0  0  0  0  0  0  0  0  0  0
  139.7140   74.7430  221.3230 C   0  0  0  0  0  0  0  0  0  0  0  0
  139.9270   76.0930  221.9310 C   0  0  0  0  0  0  0  0  0  0  0  0
  141.1020   76.5300  222.0520 O   0  0  0  0  0  0  0  0  0  0  0  0
  138.7740   76.8130  222.3430 N   0  0  0  0  0  0  0  0  0  0  0  0
  137.6230   76.1770  222.9630 C   0  0  0  0  0  0  0  0  0  0  0  0
  136.3610   76.8190  222.4270 C   0  0  0  0  0  0  0  0  0  0  0  0
  136.3670   78.3130  222.5780 C   0  0  0  0  0  0  0  0  0  0  0  0
  137.7200   78.8200  223.0720 C   0  0  0  0  0  0  0  0  0  0  0  0
  138.7560   78.2380  222.1310 C   0  0  1  0  0  0  0  0  0  0  0  0
  140.0620   78.9050  222.2490 C   0  0  0  0  0  0  0  0  0  0  0  0
  140.7360   79.0950  223.4350 C   0  0  0  0  0  0  0  0  0  0  0  0
  141.9460   79.7130  223.5520 C   0  0  0  0  0  0  0  0  0  0  0  0
  142.5670   80.1960  222.4180 C   0  0  0  0  0  0  0  0  0  0  0  0
  141.9410   80.0350  221.2070 C   0  0  0  0  0  0  0  0  0  0  0  0
  142.5700   80.5200  220.0930 F   0  0  0  0  0  0  0  0  0  0  0  0
  140.7040   79.4010  221.1070 C   0  0  0  0  0  0  0  0  0  0  0  0
  140.2480   71.6310  223.5060 C   0  0  0  0  0  0  0  0  0  0  0  0
  139.5760   70.4660  223.2070 C   0  0  0  0  0  0  0  0  0  0  0  0
  139.3690   69.5180  224.2040 C   0  0  0  0  0  0  0  0  0  0  0  0
  139.8490   69.7760  225.4770 C   0  0  0  0  0  0  0  0  0  0  0  0
  139.6550   68.8490  226.4790 C   0  0  0  0  0  0  0  0  0  0  0  0
  140.1430   69.1170  227.7630 C   0  0  0  0  0  0  0  0  0  0  0  0
  140.8140   70.2880  228.0530 C   0  0  0  0  0  0  0  0  0  0  0  0
  140.9980   71.2050  227.0290 C   0  0  0  0  0  0  0  0  0  0  0  0
  140.5250   70.9590  225.7600 C   0  0  0  0  0  0  0  0  0  0  0  0
  140.7020   71.8520  224.7570 N   0  0  0  0  0  0  0  0  0  0  0  0
  138.7610   73.7590  223.0440 H   0  0  0  0  0  0  0  0  0  0  0  0
  140.5823   74.4913  220.6963 H   0  0  0  0  0  0  0  0  0  0  0  0
  138.7946   74.7752  220.7199 H   0  0  0  0  0  0  0  0  0  0  0  0
  137.6212   75.1032  222.7243 H   0  0  0  0  0  0  0  0  0  0  0  0
  137.6706   76.3025  224.0548 H   0  0  0  0  0  0  0  0  0  0  0  0
  136.2661   76.5728  221.3591 H   0  0  0  0  0  0  0  0  0  0  0  0
  135.5137   76.4276  223.0092 H   0  0  0  0  0  0  0  0  0  0  0  0
  136.1478   78.7718  221.6025 H   0  0  0  0  0  0  0  0  0  0  0  0
  135.6033   78.5880  223.3204 H   0  0  0  0  0  0  0  0  0  0  0  0
  137.7504   79.9191  223.0407 H   0  0  0  0  0  0  0  0  0  0  0  0
  137.9071   78.5170  224.1128 H   0  0  0  0  0  0  0  0  0  0  0  0
  138.4877   78.4258  221.0809 H   0  0  0  0  0  0  0  0  0  0  0  0
  140.2637   78.7208  224.3553 H   0  0  0  0  0  0  0  0  0  0  0  0
  142.4211   79.8251  224.5378 H   0  0  0  0  0  0  0  0  0  0  0  0
  143.5429   80.6993  222.4832 H   0  0  0  0  0  0  0  0  0  0  0  0
  140.2272   79.2890  220.1220 H   0  0  0  0  0  0  0  0  0  0  0  0
  139.2056   70.2866  222.1869 H   0  0  0  0  0  0  0  0  0  0  0  0
  138.8345   68.5818  223.9853 H   0  0  0  0  0  0  0  0  0  0  0  0
  139.1225   67.9091  226.2715 H   0  0  0  0  0  0  0  0  0  0  0  0
  139.9880   68.3760  228.5611 H   0  0  0  0  0  0  0  0  0  0  0  0
  141.1917   70.4879  229.0666 H   0  0  0  0  0  0  0  0  0  0  0  0
  141.5311   72.1450  227.2345 H   0  0  0  0  0  0  0  0  0  0  0  0
  1  2  2  0
  2  3  1  0
  3  4  1  0
  4  5  1  0
  5  6  2  0
  5  7  1  0
  7  8  1  0
  8  9  1  0
  9 10  1  0
 10 11  1  0
 11 12  1  0
 12 13  1  0
 13 14  2  0
 14 15  1  0
 15 16  2  0
 16 17  1  0
 17 18  1  0
 17 19  2  0
  2 20  1  0
 20 21  2  0
 21 22  1  0
 22 23  2  0
 23 24  1  0
 24 25  2  0
 25 26  1  0
 26 27  2  0
 27 28  1  0
 28 29  2  0
 12  7  1  0
 19 13  1  0
 29 20  1  0
 28 23  1  0
  3 30  1  0
  4 31  1  0
  4 32  1  0
  8 33  1  0
  8 34  1  0
  9 35  1  0
  9 36  1  0
 10 37  1  0
 10 38  1  0
 11 39  1  0
 11 40  1  0
 12 41  1  6
 14 42  1  0
 15 43  1  0
 16 44  1  0
 19 45  1  0
 21 46  1  0
 22 47  1  0
 24 48  1  0
 25 49  1  0
 26 50  1  0
 27 51  1  0
M  END
>  <smiles>  (60) 
O=C(NCC(=O)N1CCCCC1c1cccc(F)c1)c1ccc2ccccc2n1

>  <score_type>  (60) 
oracle

>  <origin>  (60) 
autodockgpu

>  <m_score__min__energy>  (60) 
-8.8300000000000001

>  <m_primary>  (60) 
energy

>  <rmsd>  (60) 
3.4138256753600915

>  <m_score__min__rmsd>  (60) 
3.4138256753600915

>  <meeko>  (60) 
{"free_energy": -8.63, "intermolecular_energy": -10.12, "internal_energy": -1.05, "cluster_size": 2, "cluster_id": 2, "rank_in_cluster": 1}

>  <energy>  (60) 
-8.61

>  <cluster_rmsd>  (60) 
0.46

>  <cluster>  (60) 
1

$$$$

     RDKit          3D

 51 54  0  0  0  0  0  0  0  0999 V2000
  140.8640   76.7780  217.8540 O   0  0  0  0  0  0  0  0  0  0  0  0
  141.8430   76.7910  218.6710 C   0  0  0  0  0  0  0  0  0  0  0  0
  142.1900   77.9780  219.3850 N   0  0  0  0  0  0  0  0  0  0  0  0
  141.4510   79.2100  219.2170 C   0  0  0  0  0  0  0  0  0  0  0  0
  140.4270   79.3830  220.2940 C   0  0  0  0  0  0  0  0  0  0  0  0
  139.2100   79.2490  220.0060 O   0  0  0  0  0  0  0  0  0  0  0  0
  140.8980   79.6940  221.5970 N   0  0  0  0  0  0  0  0  0  0  0  0
  141.0090   81.0560  222.0960 C   0  0  0  0  0  0  0  0  0  0  0  0
  142.2800   81.1780  222.9090 C   0  0  0  0  0  0  0  0  0  0  0  0
  142.3720   80.1410  223.9910 C   0  0  0  0  0  0  0  0  0  0  0  0
  141.2440   79.1160  223.8810 C   0  0  0  0  0  0  0  0  0  0  0  0
  141.2800   78.6030  222.4560 C   0  0  1  0  0  0  0  0  0  0  0  0
  140.5000   77.3670  222.2830 C   0  0  0  0  0  0  0  0  0  0  0  0
  139.1440   77.2630  222.5070 C   0  0  0  0  0  0  0  0  0  0  0  0
  138.4150   76.1220  222.3490 C   0  0  0  0  0  0  0  0  0  0  0  0
  139.0520   74.9690  221.9380 C   0  0  0  0  0  0  0  0  0  0  0  0
  140.4030   75.0130  221.6990 C   0  0  0  0  0  0  0  0  0  0  0  0
  141.0180   73.8610  221.2920 F   0  0  0  0  0  0  0  0  0  0  0  0
  141.1320   76.1890  221.8660 C   0  0  0  0  0  0  0  0  0  0  0  0
  142.6350   75.5730  218.8880 C   0  0  0  0  0  0  0  0  0  0  0  0
  142.3020   74.4220  218.2090 C   0  0  0  0  0  0  0  0  0  0  0  0
  143.0490   73.2650  218.4110 C   0  0  0  0  0  0  0  0  0  0  0  0
  144.1130   73.3070  219.2960 C   0  0  0  0  0  0  0  0  0  0  0  0
  144.8660   72.1730  219.5110 C   0  0  0  0  0  0  0  0  0  0  0  0
  145.9390   72.2230  220.4080 C   0  0  0  0  0  0  0  0  0  0  0  0
  146.2640   73.3830  221.0850 C   0  0  0  0  0  0  0  0  0  0  0  0
  145.4920   74.5110  220.8510 C   0  0  0  0  0  0  0  0  0  0  0  0
  144.4340   74.4800  219.9740 C   0  0  0  0  0  0  0  0  0  0  0  0
  143.6770   75.5810  219.7440 N   0  0  0  0  0  0  0  0  0  0  0  0
  143.0190   77.9100  220.0470 H   0  0  0  0  0  0  0  0  0  0  0  0
  142.1531   80.0561  219.2513 H   0  0  0  0  0  0  0  0  0  0  0  0
  140.9317   79.1731  218.2480 H   0  0  0  0  0  0  0  0  0  0  0  0
  141.0432   81.7577  221.2496 H   0  0  0  0  0  0  0  0  0  0  0  0
  140.1392   81.2943  222.7259 H   0  0  0  0  0  0  0  0  0  0  0  0
  143.1420   81.0626  222.2355 H   0  0  0  0  0  0  0  0  0  0  0  0
  142.2740   82.1660  223.3925 H   0  0  0  0  0  0  0  0  0  0  0  0
  143.3374   79.6207  223.9064 H   0  0  0  0  0  0  0  0  0  0  0  0
  142.2845   80.6478  224.9634 H   0  0  0  0  0  0  0  0  0  0  0  0
  141.4085   78.2899  224.5884 H   0  0  0  0  0  0  0  0  0  0  0  0
  140.2688   79.5641  224.1223 H   0  0  0  0  0  0  0  0  0  0  0  0
  142.2950   78.2853  222.1751 H   0  0  0  0  0  0  0  0  0  0  0  0
  138.6111   78.1668  222.8374 H   0  0  0  0  0  0  0  0  0  0  0  0
  137.3329   76.1204  222.5466 H   0  0  0  0  0  0  0  0  0  0  0  0
  138.4887   74.0337  221.8046 H   0  0  0  0  0  0  0  0  0  0  0  0
  142.2141   76.1919  221.6684 H   0  0  0  0  0  0  0  0  0  0  0  0
  141.4513   74.4171  217.5116 H   0  0  0  0  0  0  0  0  0  0  0  0
  142.7990   72.3357  217.8781 H   0  0  0  0  0  0  0  0  0  0  0  0
  144.6261   71.2383  218.9830 H   0  0  0  0  0  0  0  0  0  0  0  0
  146.5385   71.3166  220.5784 H   0  0  0  0  0  0  0  0  0  0  0  0
  147.1094   73.4108  221.7882 H   0  0  0  0  0  0  0  0  0  0  0  0
  145.7306   75.4474  221.3766 H   0  0  0  0  0  0  0  0  0  0  0  0
  1  2  2  0
  2  3  1  0
  3  4  1  0
  4  5  1  0
  5  6  2  0
  5  7  1  0
  7  8  1  0
  8  9  1  0
  9 10  1  0
 10 11  1  0
 11 12  1  0
 12 13  1  0
 13 14  2  0
 14 15  1  0
 15 16  2  0
 16 17  1  0
 17 18  1  0
 17 19  2  0
  2 20  1  0
 20 21  2  0
 21 22  1  0
 22 23  2  0
 23 24  1  0
 24 25  2  0
 25 26  1  0
 26 27  2  0
 27 28  1  0
 28 29  2  0
 12  7  1  0
 19 13  1  0
 29 20  1  0
 28 23  1  0
  3 30  1  0
  4 31  1  0
  4 32  1  0
  8 33  1  0
  8 34  1  0
  9 35  1  0
  9 36  1  0
 10 37  1  0
 10 38  1  0
 11 39  1  0
 11 40  1  0
 12 41  1  6
 14 42  1  0
 15 43  1  0
 16 44  1  0
 19 45  1  0
 21 46  1  0
 22 47  1  0
 24 48  1  0
 25 49  1  0
 26 50  1  0
 27 51  1  0
M  END
>  <smiles>  (61) 
O=C(NCC(=O)N1CCCCC1c1cccc(F)c1)c1ccc2ccccc2n1

>  <score_type>  (61) 
oracle

>  <origin>  (61) 
autodockgpu

>  <m_score__min__energy>  (61) 
-8.8300000000000001

>  <m_primary>  (61) 
energy

>  <rmsd>  (61) 
7.441453193164707

>  <m_score__min__rmsd>  (61) 
7.441453193164707

>  <meeko>  (61) 
{"free_energy": -7.08, "intermolecular_energy": -8.57, "internal_energy": -2.69, "cluster_size": 3, "cluster_id": 4, "rank_in_cluster": 3}

>  <energy>  (61) 
-8.58

>  <cluster_rmsd>  (61) 
0.44

>  <cluster>  (61) 
1

$$$$

     RDKit          3D

 51 54  0  0  0  0  0  0  0  0999 V2000
  140.1550   71.7750  221.0150 O   0  0  0  0  0  0  0  0  0  0  0  0
  139.9430   72.2820  222.1660 C   0  0  0  0  0  0  0  0  0  0  0  0
  139.7280   73.6850  222.3230 N   0  0  0  0  0  0  0  0  0  0  0  0
  139.7410   74.5880  221.1930 C   0  0  0  0  0  0  0  0  0  0  0  0
  140.6000   75.7830  221.4610 C   0  0  0  0  0  0  0  0  0  0  0  0
  140.7940   76.1420  222.6520 O   0  0  0  0  0  0  0  0  0  0  0  0
  141.1530   76.4540  220.3370 N   0  0  0  0  0  0  0  0  0  0  0  0
  141.0520   75.9420  218.9800 C   0  0  0  0  0  0  0  0  0  0  0  0
  142.3630   76.1910  218.2640 C   0  0  0  0  0  0  0  0  0  0  0  0
  142.7860   77.6300  218.3260 C   0  0  0  0  0  0  0  0  0  0  0  0
  141.8770   78.4420  219.2460 C   0  0  0  0  0  0  0  0  0  0  0  0
  141.8420   77.6980  220.5660 C   0  0  1  0  0  0  0  0  0  0  0  0
  141.3050   78.5200  221.6620 C   0  0  0  0  0  0  0  0  0  0  0  0
  142.0480   78.9810  222.7260 C   0  0  0  0  0  0  0  0  0  0  0  0
  141.5570   79.7430  223.7450 C   0  0  0  0  0  0  0  0  0  0  0  0
  140.2230   80.0930  223.7410 C   0  0  0  0  0  0  0  0  0  0  0  0
  139.4330   79.6600  222.7040 C   0  0  0  0  0  0  0  0  0  0  0  0
  138.1120   80.0160  222.7150 F   0  0  0  0  0  0  0  0  0  0  0  0
  139.9520   78.8820  221.6710 C   0  0  0  0  0  0  0  0  0  0  0  0
  139.9170   71.4200  223.3550 C   0  0  0  0  0  0  0  0  0  0  0  0
  139.3870   70.1530  223.2580 C   0  0  0  0  0  0  0  0  0  0  0  0
  139.3600   69.3320  224.3820 C   0  0  0  0  0  0  0  0  0  0  0  0
  139.8720   69.8190  225.5730 C   0  0  0  0  0  0  0  0  0  0  0  0
  139.8560   69.0230  226.6980 C   0  0  0  0  0  0  0  0  0  0  0  0
  140.3750   69.5230  227.8970 C   0  0  0  0  0  0  0  0  0  0  0  0
  140.9040   70.7950  227.9840 C   0  0  0  0  0  0  0  0  0  0  0  0
  140.9100   71.5770  226.8390 C   0  0  0  0  0  0  0  0  0  0  0  0
  140.4040   71.1030  225.6510 C   0  0  0  0  0  0  0  0  0  0  0  0
  140.4070   71.8650  224.5300 N   0  0  0  0  0  0  0  0  0  0  0  0
  139.5590   74.0320  223.3140 H   0  0  0  0  0  0  0  0  0  0  0  0
  140.1323   74.0556  220.3135 H   0  0  0  0  0  0  0  0  0  0  0  0
  138.7123   74.9336  221.0133 H   0  0  0  0  0  0  0  0  0  0  0  0
  140.8452   74.8620  219.0071 H   0  0  0  0  0  0  0  0  0  0  0  0
  140.2343   76.4512  218.4490 H   0  0  0  0  0  0  0  0  0  0  0  0
  143.1436   75.5731  218.7318 H   0  0  0  0  0  0  0  0  0  0  0  0
  142.2213   75.9290  217.2051 H   0  0  0  0  0  0  0  0  0  0  0  0
  143.8173   77.6833  218.7048 H   0  0  0  0  0  0  0  0  0  0  0  0
  142.7183   78.0533  217.3130 H   0  0  0  0  0  0  0  0  0  0  0  0
  142.2841   79.4539  219.3888 H   0  0  0  0  0  0  0  0  0  0  0  0
  140.8689   78.5519  218.8199 H   0  0  0  0  0  0  0  0  0  0  0  0
  142.8580   77.4678  220.9191 H   0  0  0  0  0  0  0  0  0  0  0  0
  143.1150   78.7153  222.7562 H   0  0  0  0  0  0  0  0  0  0  0  0
  142.2170   80.0744  224.5602 H   0  0  0  0  0  0  0  0  0  0  0  0
  139.8006   80.7058  224.5510 H   0  0  0  0  0  0  0  0  0  0  0  0
  139.2932   78.5492  220.8554 H   0  0  0  0  0  0  0  0  0  0  0  0
  138.9875   69.7919  222.2988 H   0  0  0  0  0  0  0  0  0  0  0  0
  138.9404   68.3168  224.3252 H   0  0  0  0  0  0  0  0  0  0  0  0
  139.4397   68.0058  226.6536 H   0  0  0  0  0  0  0  0  0  0  0  0
  140.3612   68.8860  228.7937 H   0  0  0  0  0  0  0  0  0  0  0  0
  141.3086   71.1767  228.9330 H   0  0  0  0  0  0  0  0  0  0  0  0
  141.3267   72.5942  226.8814 H   0  0  0  0  0  0  0  0  0  0  0  0
  1  2  2  0
  2  3  1  0
  3  4  1  0
  4  5  1  0
  5  6  2  0
  5  7  1  0
  7  8  1  0
  8  9  1  0
  9 10  1  0
 10 11  1  0
 11 12  1  0
 12 13  1  0
 13 14  2  0
 14 15  1  0
 15 16  2  0
 16 17  1  0
 17 18  1  0
 17 19  2  0
  2 20  1  0
 20 21  2  0
 21 22  1  0
 22 23  2  0
 23 24  1  0
 24 25  2  0
 25 26  1  0
 26 27  2  0
 27 28  1  0
 28 29  2  0
 12  7  1  0
 19 13  1  0
 29 20  1  0
 28 23  1  0
  3 30  1  0
  4 31  1  0
  4 32  1  0
  8 33  1  0
  8 34  1  0
  9 35  1  0
  9 36  1  0
 10 37  1  0
 10 38  1  0
 11 39  1  0
 11 40  1  0
 12 41  1  1
 14 42  1  0
 15 43  1  0
 16 44  1  0
 19 45  1  0
 21 46  1  0
 22 47  1  0
 24 48  1  0
 25 49  1  0
 26 50  1  0
 27 51  1  0
M  END
>  <smiles>  (62) 
O=C(NCC(=O)N1CCCCC1c1cccc(F)c1)c1ccc2ccccc2n1

>  <score_type>  (62) 
oracle

>  <origin>  (62) 
autodockgpu

>  <m_score__min__energy>  (62) 
-8.8300000000000001

>  <m_primary>  (62) 
energy

>  <rmsd>  (62) 
1.6430809149129892

>  <m_score__min__rmsd>  (62) 
1.6430809149129892

>  <meeko>  (62) 
{"free_energy": -8.54, "intermolecular_energy": -10.03, "internal_energy": -1.46, "cluster_size": 13, "cluster_id": 1, "rank_in_cluster": 12}

>  <energy>  (62) 
-8.54

>  <cluster_rmsd>  (62) 
0.35

>  <cluster>  (62) 
1

$$$$

     RDKit          3D

 51 54  0  0  0  0  0  0  0  0999 V2000
  141.2060   72.4510  221.4180 O   0  0  0  0  0  0  0  0  0  0  0  0
  140.3400   72.6670  222.3290 C   0  0  0  0  0  0  0  0  0  0  0  0
  139.4950   73.8180  222.2820 N   0  0  0  0  0  0  0  0  0  0  0  0
  139.5830   74.7830  221.2070 C   0  0  0  0  0  0  0  0  0  0  0  0
  140.6810   75.7700  221.4510 C   0  0  0  0  0  0  0  0  0  0  0  0
  141.0490   75.9940  222.6330 O   0  0  0  0  0  0  0  0  0  0  0  0
  141.2500   76.4060  220.3150 N   0  0  0  0  0  0  0  0  0  0  0  0
  141.1440   75.8660  218.9690 C   0  0  0  0  0  0  0  0  0  0  0  0
  142.4620   76.0760  218.2530 C   0  0  0  0  0  0  0  0  0  0  0  0
  142.9100   77.5080  218.2840 C   0  0  0  0  0  0  0  0  0  0  0  0
  142.0130   78.3560  219.1830 C   0  0  0  0  0  0  0  0  0  0  0  0
  141.9600   77.6410  220.5190 C   0  0  1  0  0  0  0  0  0  0  0  0
  141.4350   78.4970  221.5950 C   0  0  0  0  0  0  0  0  0  0  0  0
  142.1970   79.0240  222.6140 C   0  0  0  0  0  0  0  0  0  0  0  0
  141.7170   79.8160  223.6140 C   0  0  0  0  0  0  0  0  0  0  0  0
  140.3740   80.1310  223.6370 C   0  0  0  0  0  0  0  0  0  0  0  0
  139.5650   79.6320  222.6460 C   0  0  0  0  0  0  0  0  0  0  0  0
  138.2360   79.9530  222.6840 F   0  0  0  0  0  0  0  0  0  0  0  0
  140.0730   78.8230  221.6310 C   0  0  0  0  0  0  0  0  0  0  0  0
  140.1990   71.7260  223.4470 C   0  0  0  0  0  0  0  0  0  0  0  0
  139.5590   70.5240  223.2420 C   0  0  0  0  0  0  0  0  0  0  0  0
  139.4220   69.6290  224.2990 C   0  0  0  0  0  0  0  0  0  0  0  0
  139.9400   69.9770  225.5350 C   0  0  0  0  0  0  0  0  0  0  0  0
  139.8170   69.1050  226.5950 C   0  0  0  0  0  0  0  0  0  0  0  0
  140.3420   69.4640  227.8420 C   0  0  0  0  0  0  0  0  0  0  0  0
  140.9810   70.6720  228.0380 C   0  0  0  0  0  0  0  0  0  0  0  0
  141.0930   71.5320  226.9560 C   0  0  0  0  0  0  0  0  0  0  0  0
  140.5840   71.1970  225.7240 C   0  0  0  0  0  0  0  0  0  0  0  0
  140.6910   72.0350  224.6650 N   0  0  0  0  0  0  0  0  0  0  0  0
  138.7980   73.9290  223.0770 H   0  0  0  0  0  0  0  0  0  0  0  0
  139.7814   74.2521  220.2642 H   0  0  0  0  0  0  0  0  0  0  0  0
  138.6302   75.3300  221.1525 H   0  0  0  0  0  0  0  0  0  0  0  0
  140.9177   74.7907  219.0189 H   0  0  0  0  0  0  0  0  0  0  0  0
  140.3371   76.3776  218.4238 H   0  0  0  0  0  0  0  0  0  0  0  0
  143.2299   75.4554  218.7379 H   0  0  0  0  0  0  0  0  0  0  0  0
  142.3195   75.7926  217.1997 H   0  0  0  0  0  0  0  0  0  0  0  0
  143.9411   77.5517  218.6646 H   0  0  0  0  0  0  0  0  0  0  0  0
  142.8524   77.9097  217.2616 H   0  0  0  0  0  0  0  0  0  0  0  0
  142.4381   79.3631  219.3056 H   0  0  0  0  0  0  0  0  0  0  0  0
  141.0085   78.4751  218.7509 H   0  0  0  0  0  0  0  0  0  0  0  0
  142.9703   77.3993  220.8807 H   0  0  0  0  0  0  0  0  0  0  0  0
  143.2715   78.7885  222.6214 H   0  0  0  0  0  0  0  0  0  0  0  0
  142.3921   80.1994  224.3932 H   0  0  0  0  0  0  0  0  0  0  0  0
  139.9601   80.7683  224.4323 H   0  0  0  0  0  0  0  0  0  0  0  0
  139.3990   78.4374  220.8519 H   0  0  0  0  0  0  0  0  0  0  0  0
  139.1585   70.2728  222.2488 H   0  0  0  0  0  0  0  0  0  0  0  0
  138.9125   68.6647  224.1554 H   0  0  0  0  0  0  0  0  0  0  0  0
  139.3116   68.1370  226.4626 H   0  0  0  0  0  0  0  0  0  0  0  0
  140.2430   68.7663  228.6867 H   0  0  0  0  0  0  0  0  0  0  0  0
  141.3889   70.9440  229.0227 H   0  0  0  0  0  0  0  0  0  0  0  0
  141.5986   72.5002  227.0861 H   0  0  0  0  0  0  0  0  0  0  0  0
  1  2  2  0
  2  3  1  0
  3  4  1  0
  4  5  1  0
  5  6  2  0
  5  7  1  0
  7  8  1  0
  8  9  1  0
  9 10  1  0
 10 11  1  0
 11 12  1  0
 12 13  1  0
 13 14  2  0
 14 15  1  0
 15 16  2  0
 16 17  1  0
 17 18  1  0
 17 19  2  0
  2 20  1  0
 20 21  2  0
 21 22  1  0
 22 23  2  0
 23 24  1  0
 24 25  2  0
 25 26  1  0
 26 27  2  0
 27 28  1  0
 28 29  2  0
 12  7  1  0
 19 13  1  0
 29 20  1  0
 28 23  1  0
  3 30  1  0
  4 31  1  0
  4 32  1  0
  8 33  1  0
  8 34  1  0
  9 35  1  0
  9 36  1  0
 10 37  1  0
 10 38  1  0
 11 39  1  0
 11 40  1  0
 12 41  1  1
 14 42  1  0
 15 43  1  0
 16 44  1  0
 19 45  1  0
 21 46  1  0
 22 47  1  0
 24 48  1  0
 25 49  1  0
 26 50  1  0
 27 51  1  0
M  END
>  <smiles>  (63) 
O=C(NCC(=O)N1CCCCC1c1cccc(F)c1)c1ccc2ccccc2n1

>  <score_type>  (63) 
oracle

>  <origin>  (63) 
autodockgpu

>  <m_score__min__energy>  (63) 
-8.8300000000000001

>  <m_primary>  (63) 
energy

>  <rmsd>  (63) 
1.755753007382326

>  <m_score__min__rmsd>  (63) 
1.755753007382326

>  <meeko>  (63) 
{"free_energy": -8.61, "intermolecular_energy": -10.1, "internal_energy": -1.29, "cluster_size": 13, "cluster_id": 1, "rank_in_cluster": 10}

>  <energy>  (63) 
-8.15

>  <cluster_rmsd>  (63) 
1.11

>  <cluster>  (63) 
1

$$$$

     RDKit          3D

 51 54  0  0  0  0  0  0  0  0999 V2000
  140.8750   71.4530  221.2950 O   0  0  0  0  0  0  0  0  0  0  0  0
  140.4050   72.0790  222.3020 C   0  0  0  0  0  0  0  0  0  0  0  0
  140.0590   73.4620  222.2130 N   0  0  0  0  0  0  0  0  0  0  0  0
  140.2260   74.2100  220.9860 C   0  0  0  0  0  0  0  0  0  0  0  0
  140.9940   75.4720  221.2180 C   0  0  0  0  0  0  0  0  0  0  0  0
  141.1850   75.8630  222.3990 O   0  0  0  0  0  0  0  0  0  0  0  0
  141.4690   76.1660  220.0730 N   0  0  0  0  0  0  0  0  0  0  0  0
  141.1780   77.5680  219.8190 C   0  0  0  0  0  0  0  0  0  0  0  0
  140.9140   77.7530  218.3400 C   0  0  0  0  0  0  0  0  0  0  0  0
  142.0250   77.2130  217.4860 C   0  0  0  0  0  0  0  0  0  0  0  0
  143.0560   76.4560  218.3210 C   0  0  0  0  0  0  0  0  0  0  0  0
  142.2750   75.4370  219.1280 C   0  0  1  0  0  0  0  0  0  0  0  0
  143.1400   74.3990  219.7110 C   0  0  0  0  0  0  0  0  0  0  0  0
  142.8590   73.0500  219.6930 C   0  0  0  0  0  0  0  0  0  0  0  0
  143.6560   72.0830  220.2320 C   0  0  0  0  0  0  0  0  0  0  0  0
  144.8340   72.4490  220.8480 C   0  0  0  0  0  0  0  0  0  0  0  0
  145.1650   73.7810  220.8970 C   0  0  0  0  0  0  0  0  0  0  0  0
  146.3370   74.1260  221.5130 F   0  0  0  0  0  0  0  0  0  0  0  0
  144.3390   74.7550  220.3410 C   0  0  0  0  0  0  0  0  0  0  0  0
  140.2110   71.3780  223.5780 C   0  0  0  0  0  0  0  0  0  0  0  0
  139.5170   70.1880  223.5970 C   0  0  0  0  0  0  0  0  0  0  0  0
  139.3310   69.5200  224.8030 C   0  0  0  0  0  0  0  0  0  0  0  0
  139.8540   70.0760  225.9580 C   0  0  0  0  0  0  0  0  0  0  0  0
  139.6820   69.4310  227.1640 C   0  0  0  0  0  0  0  0  0  0  0  0
  140.2120   70.0000  228.3270 C   0  0  0  0  0  0  0  0  0  0  0  0
  140.9050   71.1940  228.2980 C   0  0  0  0  0  0  0  0  0  0  0  0
  141.0660   71.8240  227.0740 C   0  0  0  0  0  0  0  0  0  0  0  0
  140.5520   71.2800  225.9200 C   0  0  0  0  0  0  0  0  0  0  0  0
  140.7070   71.8940  224.7220 N   0  0  0  0  0  0  0  0  0  0  0  0
  139.6740   73.9140  223.0950 H   0  0  0  0  0  0  0  0  0  0  0  0
  140.7694   73.5886  220.2589 H   0  0  0  0  0  0  0  0  0  0  0  0
  139.2295   74.4759  220.6036 H   0  0  0  0  0  0  0  0  0  0  0  0
  140.2902   77.8709  220.3934 H   0  0  0  0  0  0  0  0  0  0  0  0
  142.0333   78.1880  220.1257 H   0  0  0  0  0  0  0  0  0  0  0  0
  139.9824   77.2293  218.0797 H   0  0  0  0  0  0  0  0  0  0  0  0
  140.8381   78.8332  218.1464 H   0  0  0  0  0  0  0  0  0  0  0  0
  141.5998   76.5288  216.7370 H   0  0  0  0  0  0  0  0  0  0  0  0
  142.5299   78.0609  217.0001 H   0  0  0  0  0  0  0  0  0  0  0  0
  143.7810   75.9503  217.6663 H   0  0  0  0  0  0  0  0  0  0  0  0
  143.6237   77.1362  218.9730 H   0  0  0  0  0  0  0  0  0  0  0  0
  141.6024   74.8515  218.4839 H   0  0  0  0  0  0  0  0  0  0  0  0
  141.9245   72.7299  219.2090 H   0  0  0  0  0  0  0  0  0  0  0  0
  143.3625   71.0244  220.1759 H   0  0  0  0  0  0  0  0  0  0  0  0
  145.4951   71.6897  221.2911 H   0  0  0  0  0  0  0  0  0  0  0  0
  144.6313   75.8140  220.3973 H   0  0  0  0  0  0  0  0  0  0  0  0
  139.1124   69.7686  222.6641 H   0  0  0  0  0  0  0  0  0  0  0  0
  138.7794   68.5690  224.8382 H   0  0  0  0  0  0  0  0  0  0  0  0
  139.1336   68.4786  227.2115 H   0  0  0  0  0  0  0  0  0  0  0  0
  140.0733   69.4835  229.2882 H   0  0  0  0  0  0  0  0  0  0  0  0
  141.3170   71.6322  229.2190 H   0  0  0  0  0  0  0  0  0  0  0  0
  141.6147   72.7761  227.0246 H   0  0  0  0  0  0  0  0  0  0  0  0
  1  2  2  0
  2  3  1  0
  3  4  1  0
  4  5  1  0
  5  6  2  0
  5  7  1  0
  7  8  1  0
  8  9  1  0
  9 10  1  0
 10 11  1  0
 11 12  1  0
 12 13  1  0
 13 14  2  0
 14 15  1  0
 15 16  2  0
 16 17  1  0
 17 18  1  0
 17 19  2  0
  2 20  1  0
 20 21  2  0
 21 22  1  0
 22 23  2  0
 23 24  1  0
 24 25  2  0
 25 26  1  0
 26 27  2  0
 27 28  1  0
 28 29  2  0
 12  7  1  0
 19 13  1  0
 29 20  1  0
 28 23  1  0
  3 30  1  0
  4 31  1  0
  4 32  1  0
  8 33  1  0
  8 34  1  0
  9 35  1  0
  9 36  1  0
 10 37  1  0
 10 38  1  0
 11 39  1  0
 11 40  1  0
 12 41  1  6
 14 42  1  0
 15 43  1  0
 16 44  1  0
 19 45  1  0
 21 46  1  0
 22 47  1  0
 24 48  1  0
 25 49  1  0
 26 50  1  0
 27 51  1  0
M  END
>  <smiles>  (64) 
O=C(NCC(=O)N1CCCCC1c1cccc(F)c1)c1ccc2ccccc2n1

>  <score_type>  (64) 
oracle

>  <origin>  (64) 
autodockgpu

>  <m_score__min__energy>  (64) 
-8.8300000000000001

>  <m_primary>  (64) 
energy

>  <rmsd>  (64) 
2.172499754672407

>  <m_score__min__rmsd>  (64) 
2.172499754672407

>  <meeko>  (64) 
{"free_energy": -8.41, "intermolecular_energy": -9.9, "internal_energy": -1.88, "cluster_size": 30, "cluster_id": 3, "rank_in_cluster": 3}

>  <energy>  (64) 
-8.63

>  <cluster_rmsd>  (64) 
0.0

>  <cluster>  (64) 
2

$$$$

     RDKit          3D

 51 54  0  0  0  0  0  0  0  0999 V2000
  140.7930   71.3590  221.2400 O   0  0  0  0  0  0  0  0  0  0  0  0
  140.4180   72.0150  222.2670 C   0  0  0  0  0  0  0  0  0  0  0  0
  140.1600   73.4170  222.1900 N   0  0  0  0  0  0  0  0  0  0  0  0
  140.3120   74.1520  220.9530 C   0  0  0  0  0  0  0  0  0  0  0  0
  141.0030   75.4590  221.1780 C   0  0  0  0  0  0  0  0  0  0  0  0
  141.1280   75.8900  222.3540 O   0  0  0  0  0  0  0  0  0  0  0  0
  141.4840   76.1480  220.0320 N   0  0  0  0  0  0  0  0  0  0  0  0
  141.1950   77.5490  219.7710 C   0  0  0  0  0  0  0  0  0  0  0  0
  140.9380   77.7280  218.2890 C   0  0  0  0  0  0  0  0  0  0  0  0
  142.0530   77.1840  217.4440 C   0  0  0  0  0  0  0  0  0  0  0  0
  143.0790   76.4300  218.2870 C   0  0  0  0  0  0  0  0  0  0  0  0
  142.2940   75.4150  219.0940 C   0  0  1  0  0  0  0  0  0  0  0  0
  143.1560   74.3790  219.6870 C   0  0  0  0  0  0  0  0  0  0  0  0
  142.8770   73.0300  219.6700 C   0  0  0  0  0  0  0  0  0  0  0  0
  143.6700   72.0650  220.2170 C   0  0  0  0  0  0  0  0  0  0  0  0
  144.8440   72.4340  220.8410 C   0  0  0  0  0  0  0  0  0  0  0  0
  145.1740   73.7660  220.8880 C   0  0  0  0  0  0  0  0  0  0  0  0
  146.3410   74.1140  221.5110 F   0  0  0  0  0  0  0  0  0  0  0  0
  144.3500   74.7380  220.3240 C   0  0  0  0  0  0  0  0  0  0  0  0
  140.2450   71.3290  223.5540 C   0  0  0  0  0  0  0  0  0  0  0  0
  139.6090   70.1070  223.5880 C   0  0  0  0  0  0  0  0  0  0  0  0
  139.4420   69.4530  224.8050 C   0  0  0  0  0  0  0  0  0  0  0  0
  139.9250   70.0560  225.9550 C   0  0  0  0  0  0  0  0  0  0  0  0
  139.7710   69.4250  227.1710 C   0  0  0  0  0  0  0  0  0  0  0  0
  140.2610   70.0400  228.3280 C   0  0  0  0  0  0  0  0  0  0  0  0
  140.8960   71.2660  228.2840 C   0  0  0  0  0  0  0  0  0  0  0  0
  141.0400   71.8800  227.0490 C   0  0  0  0  0  0  0  0  0  0  0  0
  140.5650   71.2910  225.9010 C   0  0  0  0  0  0  0  0  0  0  0  0
  140.7030   71.8890  224.6930 N   0  0  0  0  0  0  0  0  0  0  0  0
  139.8510   73.8940  223.0890 H   0  0  0  0  0  0  0  0  0  0  0  0
  140.9052   73.5498  220.2491 H   0  0  0  0  0  0  0  0  0  0  0  0
  139.3109   74.3547  220.5448 H   0  0  0  0  0  0  0  0  0  0  0  0
  140.3046   77.8548  220.3399 H   0  0  0  0  0  0  0  0  0  0  0  0
  142.0491   78.1699  220.0793 H   0  0  0  0  0  0  0  0  0  0  0  0
  140.0076   77.2034  218.0261 H   0  0  0  0  0  0  0  0  0  0  0  0
  140.8629   78.8072  218.0901 H   0  0  0  0  0  0  0  0  0  0  0  0
  141.6314   76.4970  216.6955 H   0  0  0  0  0  0  0  0  0  0  0  0
  142.5611   78.0298  216.9578 H   0  0  0  0  0  0  0  0  0  0  0  0
  143.8070   75.9213  217.6379 H   0  0  0  0  0  0  0  0  0  0  0  0
  143.6436   77.1126  218.9391 H   0  0  0  0  0  0  0  0  0  0  0  0
  141.6249   74.8272  218.4484 H   0  0  0  0  0  0  0  0  0  0  0  0
  141.9467   72.7079  219.1794 H   0  0  0  0  0  0  0  0  0  0  0  0
  143.3776   71.0060  220.1615 H   0  0  0  0  0  0  0  0  0  0  0  0
  145.5021   71.6765  221.2916 H   0  0  0  0  0  0  0  0  0  0  0  0
  144.6404   75.7975  220.3798 H   0  0  0  0  0  0  0  0  0  0  0  0
  139.2356   69.6513  222.6590 H   0  0  0  0  0  0  0  0  0  0  0  0
  138.9368   68.4771  224.8529 H   0  0  0  0  0  0  0  0  0  0  0  0
  139.2682   68.4485  227.2308 H   0  0  0  0  0  0  0  0  0  0  0  0
  140.1376   69.5346  229.2972 H   0  0  0  0  0  0  0  0  0  0  0  0
  141.2758   71.7407  229.2007 H   0  0  0  0  0  0  0  0  0  0  0  0
  141.5434   72.8561  226.9866 H   0  0  0  0  0  0  0  0  0  0  0  0
  1  2  2  0
  2  3  1  0
  3  4  1  0
  4  5  1  0
  5  6  2  0
  5  7  1  0
  7  8  1  0
  8  9  1  0
  9 10  1  0
 10 11  1  0
 11 12  1  0
 12 13  1  0
 13 14  2  0
 14 15  1  0
 15 16  2  0
 16 17  1  0
 17 18  1  0
 17 19  2  0
  2 20  1  0
 20 21  2  0
 21 22  1  0
 22 23  2  0
 23 24  1  0
 24 25  2  0
 25 26  1  0
 26 27  2  0
 27 28  1  0
 28 29  2  0
 12  7  1  0
 19 13  1  0
 29 20  1  0
 28 23  1  0
  3 30  1  0
  4 31  1  0
  4 32  1  0
  8 33  1  0
  8 34  1  0
  9 35  1  0
  9 36  1  0
 10 37  1  0
 10 38  1  0
 11 39  1  0
 11 40  1  0
 12 41  1  6
 14 42  1  0
 15 43  1  0
 16 44  1  0
 19 45  1  0
 21 46  1  0
 22 47  1  0
 24 48  1  0
 25 49  1  0
 26 50  1  0
 27 51  1  0
M  END
>  <smiles>  (65) 
O=C(NCC(=O)N1CCCCC1c1cccc(F)c1)c1ccc2ccccc2n1

>  <score_type>  (65) 
oracle

>  <origin>  (65) 
autodockgpu

>  <m_score__min__energy>  (65) 
-8.8300000000000001

>  <m_primary>  (65) 
energy

>  <rmsd>  (65) 
2.178001072768511

>  <m_score__min__rmsd>  (65) 
2.178001072768511

>  <meeko>  (65) 
{"free_energy": -8.36, "intermolecular_energy": -9.85, "internal_energy": -1.94, "cluster_size": 30, "cluster_id": 3, "rank_in_cluster": 7}

>  <energy>  (65) 
-8.62

>  <cluster_rmsd>  (65) 
0.08

>  <cluster>  (65) 
2

$$$$

     RDKit          3D

 51 54  0  0  0  0  0  0  0  0999 V2000
  141.4750   72.6190  221.7730 O   0  0  0  0  0  0  0  0  0  0  0  0
  140.4330   72.6650  222.5080 C   0  0  0  0  0  0  0  0  0  0  0  0
  139.4630   73.7000  222.3450 N   0  0  0  0  0  0  0  0  0  0  0  0
  139.6160   74.7360  221.3470 C   0  0  0  0  0  0  0  0  0  0  0  0
  139.8580   76.0690  221.9800 C   0  0  0  0  0  0  0  0  0  0  0  0
  141.0420   76.4640  222.1380 O   0  0  0  0  0  0  0  0  0  0  0  0
  138.7180   76.8220  222.3720 N   0  0  0  0  0  0  0  0  0  0  0  0
  137.5490   76.2230  222.9950 C   0  0  0  0  0  0  0  0  0  0  0  0
  136.3050   76.8840  222.4390 C   0  0  0  0  0  0  0  0  0  0  0  0
  136.3440   78.3790  222.5650 C   0  0  0  0  0  0  0  0  0  0  0  0
  137.7060   78.8640  223.0610 C   0  0  0  0  0  0  0  0  0  0  0  0
  138.7340   78.2430  222.1360 C   0  0  1  0  0  0  0  0  0  0  0  0
  140.0540   78.8820  222.2530 C   0  0  0  0  0  0  0  0  0  0  0  0
  140.7520   79.0220  223.4320 C   0  0  0  0  0  0  0  0  0  0  0  0
  141.9750   79.6140  223.5470 C   0  0  0  0  0  0  0  0  0  0  0  0
  142.5850   80.1210  222.4190 C   0  0  0  0  0  0  0  0  0  0  0  0
  141.9360   80.0100  221.2140 C   0  0  0  0  0  0  0  0  0  0  0  0
  142.5550   80.5190  220.1050 F   0  0  0  0  0  0  0  0  0  0  0  0
  140.6860   79.4020  221.1160 C   0  0  0  0  0  0  0  0  0  0  0  0
  140.2180   71.6430  223.5400 C   0  0  0  0  0  0  0  0  0  0  0  0
  139.5200   70.4980  223.2220 C   0  0  0  0  0  0  0  0  0  0  0  0
  139.3130   69.5270  224.1970 C   0  0  0  0  0  0  0  0  0  0  0  0
  139.8200   69.7420  225.4670 C   0  0  0  0  0  0  0  0  0  0  0  0
  139.6260   68.7920  226.4480 C   0  0  0  0  0  0  0  0  0  0  0  0
  140.1400   69.0170  227.7300 C   0  0  0  0  0  0  0  0  0  0  0  0
  140.8380   70.1690  228.0390 C   0  0  0  0  0  0  0  0  0  0  0  0
  141.0200   71.1090  227.0360 C   0  0  0  0  0  0  0  0  0  0  0  0
  140.5220   70.9050  225.7700 C   0  0  0  0  0  0  0  0  0  0  0  0
  140.6970   71.8220  224.7880 N   0  0  0  0  0  0  0  0  0  0  0  0
  138.6220   73.6700  222.9950 H   0  0  0  0  0  0  0  0  0  0  0  0
  140.4696   74.4865  220.6996 H   0  0  0  0  0  0  0  0  0  0  0  0
  138.6868   74.7935  220.7611 H   0  0  0  0  0  0  0  0  0  0  0  0
  137.5245   75.1455  222.7750 H   0  0  0  0  0  0  0  0  0  0  0  0
  137.5923   76.3665  224.0847 H   0  0  0  0  0  0  0  0  0  0  0  0
  136.2118   76.6219  221.3747 H   0  0  0  0  0  0  0  0  0  0  0  0
  135.4450   76.5216  223.0213 H   0  0  0  0  0  0  0  0  0  0  0  0
  136.1422   78.8261  221.5804 H   0  0  0  0  0  0  0  0  0  0  0  0
  135.5816   78.6837  223.2971 H   0  0  0  0  0  0  0  0  0  0  0  0
  137.7617   79.9615  223.0122 H   0  0  0  0  0  0  0  0  0  0  0  0
  137.8796   78.5745  224.1079 H   0  0  0  0  0  0  0  0  0  0  0  0
  138.4769   78.4190  221.0811 H   0  0  0  0  0  0  0  0  0  0  0  0
  140.2888   78.6272  224.3483 H   0  0  0  0  0  0  0  0  0  0  0  0
  142.4688   79.6862  224.5273 H   0  0  0  0  0  0  0  0  0  0  0  0
  143.5710   80.6043  222.4832 H   0  0  0  0  0  0  0  0  0  0  0  0
  140.1908   79.3296  220.1365 H   0  0  0  0  0  0  0  0  0  0  0  0
  139.1291   70.3526  222.2041 H   0  0  0  0  0  0  0  0  0  0  0  0
  138.7575   68.6068  223.9632 H   0  0  0  0  0  0  0  0  0  0  0  0
  139.0732   67.8675  226.2250 H   0  0  0  0  0  0  0  0  0  0  0  0
  139.9846   68.2582  228.5110 H   0  0  0  0  0  0  0  0  0  0  0  0
  141.2373   70.3353  229.0504 H   0  0  0  0  0  0  0  0  0  0  0  0
  141.5724   72.0343  227.2566 H   0  0  0  0  0  0  0  0  0  0  0  0
  1  2  2  0
  2  3  1  0
  3  4  1  0
  4  5  1  0
  5  6  2  0
  5  7  1  0
  7  8  1  0
  8  9  1  0
  9 10  1  0
 10 11  1  0
 11 12  1  0
 12 13  1  0
 13 14  2  0
 14 15  1  0
 15 16  2  0
 16 17  1  0
 17 18  1  0
 17 19  2  0
  2 20  1  0
 20 21  2  0
 21 22  1  0
 22 23  2  0
 23 24  1  0
 24 25  2  0
 25 26  1  0
 26 27  2  0
 27 28  1  0
 28 29  2  0
 12  7  1  0
 19 13  1  0
 29 20  1  0
 28 23  1  0
  3 30  1  0
  4 31  1  0
  4 32  1  0
  8 33  1  0
  8 34  1  0
  9 35  1  0
  9 36  1  0
 10 37  1  0
 10 38  1  0
 11 39  1  0
 11 40  1  0
 12 41  1  6
 14 42  1  0
 15 43  1  0
 16 44  1  0
 19 45  1  0
 21 46  1  0
 22 47  1  0
 24 48  1  0
 25 49  1  0
 26 50  1  0
 27 51  1  0
M  END
>  <smiles>  (66) 
O=C(NCC(=O)N1CCCCC1c1cccc(F)c1)c1ccc2ccccc2n1

>  <score_type>  (66) 
oracle

>  <origin>  (66) 
autodockgpu

>  <m_score__min__energy>  (66) 
-8.8300000000000001

>  <m_primary>  (66) 
energy

>  <rmsd>  (66) 
3.4306064104504497

>  <m_score__min__rmsd>  (66) 
3.4306064104504497

>  <meeko>  (66) 
{"free_energy": -8.62, "intermolecular_energy": -10.11, "internal_energy": -1.05, "cluster_size": 2, "cluster_id": 2, "rank_in_cluster": 2}

>  <energy>  (66) 
-8.56

>  <cluster_rmsd>  (66) 
0.0

>  <cluster>  (66) 
3

$$$$

     RDKit          3D

 51 54  0  0  0  0  0  0  0  0999 V2000
  140.1400   71.6520  221.0620 O   0  0  0  0  0  0  0  0  0  0  0  0
  139.9460   72.2150  222.1900 C   0  0  0  0  0  0  0  0  0  0  0  0
  139.7270   73.6230  222.2810 N   0  0  0  0  0  0  0  0  0  0  0  0
  139.7150   74.4690  221.1070 C   0  0  0  0  0  0  0  0  0  0  0  0
  140.9400   75.3240  221.0390 C   0  0  0  0  0  0  0  0  0  0  0  0
  141.7710   75.2760  221.9830 O   0  0  0  0  0  0  0  0  0  0  0  0
  141.0940   76.1540  219.8960 N   0  0  0  0  0  0  0  0  0  0  0  0
  140.7420   75.7240  218.5530 C   0  0  0  0  0  0  0  0  0  0  0  0
  141.7850   76.2420  217.5850 C   0  0  0  0  0  0  0  0  0  0  0  0
  141.9880   77.7260  217.6990 C   0  0  0  0  0  0  0  0  0  0  0  0
  141.2200   78.3060  218.8860 C   0  0  0  0  0  0  0  0  0  0  0  0
  141.6220   77.4790  220.0910 C   0  0  1  0  0  0  0  0  0  0  0  0
  141.2520   78.1210  221.3620 C   0  0  0  0  0  0  0  0  0  0  0  0
  139.9970   78.0650  221.9280 C   0  0  0  0  0  0  0  0  0  0  0  0
  139.6470   78.6580  223.1050 C   0  0  0  0  0  0  0  0  0  0  0  0
  140.5960   79.3750  223.8050 C   0  0  0  0  0  0  0  0  0  0  0  0
  141.8650   79.4650  223.2880 C   0  0  0  0  0  0  0  0  0  0  0  0
  142.7930   80.1800  223.9950 F   0  0  0  0  0  0  0  0  0  0  0  0
  142.2040   78.8530  222.0830 C   0  0  0  0  0  0  0  0  0  0  0  0
  139.9470   71.4140  223.4210 C   0  0  0  0  0  0  0  0  0  0  0  0
  139.4080   70.1460  223.4010 C   0  0  0  0  0  0  0  0  0  0  0  0
  139.4060   69.3830  224.5650 C   0  0  0  0  0  0  0  0  0  0  0  0
  139.9510   69.9250  225.7160 C   0  0  0  0  0  0  0  0  0  0  0  0
  139.9590   69.1860  226.8800 C   0  0  0  0  0  0  0  0  0  0  0  0
  140.5110   69.7420  228.0400 C   0  0  0  0  0  0  0  0  0  0  0  0
  141.0480   71.0140  228.0490 C   0  0  0  0  0  0  0  0  0  0  0  0
  141.0280   71.7380  226.8670 C   0  0  0  0  0  0  0  0  0  0  0  0
  140.4900   71.2080  225.7170 C   0  0  0  0  0  0  0  0  0  0  0  0
  140.4690   71.9130  224.5600 N   0  0  0  0  0  0  0  0  0  0  0  0
  139.5740   74.0180  223.2560 H   0  0  0  0  0  0  0  0  0  0  0  0
  139.6706   73.8349  220.2092 H   0  0  0  0  0  0  0  0  0  0  0  0
  138.8356   75.1274  221.1633 H   0  0  0  0  0  0  0  0  0  0  0  0
  140.7134   74.6251  218.5123 H   0  0  0  0  0  0  0  0  0  0  0  0
  139.7519   76.1191  218.2818 H   0  0  0  0  0  0  0  0  0  0  0  0
  142.7405   75.7381  217.7928 H   0  0  0  0  0  0  0  0  0  0  0  0
  141.4298   76.0303  216.5657 H   0  0  0  0  0  0  0  0  0  0  0  0
  143.0605   77.9310  217.8324 H   0  0  0  0  0  0  0  0  0  0  0  0
  141.6109   78.1979  216.7797 H   0  0  0  0  0  0  0  0  0  0  0  0
  141.4927   79.3607  219.0386 H   0  0  0  0  0  0  0  0  0  0  0  0
  140.1335   78.2700  218.7181 H   0  0  0  0  0  0  0  0  0  0  0  0
  142.7162   77.4027  220.1734 H   0  0  0  0  0  0  0  0  0  0  0  0
  139.2205   77.5005  221.3910 H   0  0  0  0  0  0  0  0  0  0  0  0
  138.6213   78.5660  223.4916 H   0  0  0  0  0  0  0  0  0  0  0  0
  140.3413   79.8640  224.7568 H   0  0  0  0  0  0  0  0  0  0  0  0
  143.2288   78.9456  221.6943 H   0  0  0  0  0  0  0  0  0  0  0  0
  138.9823   69.7397  222.4716 H   0  0  0  0  0  0  0  0  0  0  0  0
  138.9796   68.3690  224.5701 H   0  0  0  0  0  0  0  0  0  0  0  0
  139.5362   68.1706  226.8969 H   0  0  0  0  0  0  0  0  0  0  0  0
  140.5171   69.1508  228.9676 H   0  0  0  0  0  0  0  0  0  0  0  0
  141.4789   71.4403  228.9669 H   0  0  0  0  0  0  0  0  0  0  0  0
  141.4496   72.7538  226.8482 H   0  0  0  0  0  0  0  0  0  0  0  0
  1  2  2  0
  2  3  1  0
  3  4  1  0
  4  5  1  0
  5  6  2  0
  5  7  1  0
  7  8  1  0
  8  9  1  0
  9 10  1  0
 10 11  1  0
 11 12  1  0
 12 13  1  0
 13 14  2  0
 14 15  1  0
 15 16  2  0
 16 17  1  0
 17 18  1  0
 17 19  2  0
  2 20  1  0
 20 21  2  0
 21 22  1  0
 22 23  2  0
 23 24  1  0
 24 25  2  0
 25 26  1  0
 26 27  2  0
 27 28  1  0
 28 29  2  0
 12  7  1  0
 19 13  1  0
 29 20  1  0
 28 23  1  0
  3 30  1  0
  4 31  1  0
  4 32  1  0
  8 33  1  0
  8 34  1  0
  9 35  1  0
  9 36  1  0
 10 37  1  0
 10 38  1  0
 11 39  1  0
 11 40  1  0
 12 41  1  1
 14 42  1  0
 15 43  1  0
 16 44  1  0
 19 45  1  0
 21 46  1  0
 22 47  1  0
 24 48  1  0
 25 49  1  0
 26 50  1  0
 27 51  1  0
M  END
>  <smiles>  (67) 
O=C(NCC(=O)N1CCCCC1c1cccc(F)c1)c1ccc2ccccc2n1

>  <score_type>  (67) 
oracle

>  <origin>  (67) 
autodockgpu

>  <m_score__min__energy>  (67) 
-8.8300000000000001

>  <m_primary>  (67) 
energy

>  <rmsd>  (67) 
1.4377608240644935

>  <m_score__min__rmsd>  (67) 
1.4377608240644935

>  <meeko>  (67) 
{"free_energy": -8.15, "intermolecular_energy": -9.65, "internal_energy": -1.48, "cluster_size": 13, "cluster_id": 1, "rank_in_cluster": 13}

>  <energy>  (67) 
-8.44

>  <cluster_rmsd>  (67) 
1.27

>  <cluster>  (67) 
3

$$$$

     RDKit          3D

 51 54  0  0  0  0  0  0  0  0999 V2000
  140.7050   71.4740  221.2560 O   0  0  0  0  0  0  0  0  0  0  0  0
  140.2860   72.0750  222.3000 C   0  0  0  0  0  0  0  0  0  0  0  0
  139.9190   73.4550  222.2560 N   0  0  0  0  0  0  0  0  0  0  0  0
  140.0050   74.2270  221.0360 C   0  0  0  0  0  0  0  0  0  0  0  0
  140.9500   75.3770  221.1850 C   0  0  0  0  0  0  0  0  0  0  0  0
  141.3480   75.6950  222.3350 O   0  0  0  0  0  0  0  0  0  0  0  0
  141.3460   76.0530  220.0000 N   0  0  0  0  0  0  0  0  0  0  0  0
  140.8760   77.3850  219.6530 C   0  0  0  0  0  0  0  0  0  0  0  0
  140.6110   77.4380  218.1630 C   0  0  0  0  0  0  0  0  0  0  0  0
  141.7970   76.9980  217.3540 C   0  0  0  0  0  0  0  0  0  0  0  0
  142.9060   76.4390  218.2430 C   0  0  0  0  0  0  0  0  0  0  0  0
  142.2550   75.3790  219.1100 C   0  0  1  0  0  0  0  0  0  0  0  0
  143.2410   74.5050  219.7650 C   0  0  0  0  0  0  0  0  0  0  0  0
  144.4650   74.9260  220.2350 C   0  0  0  0  0  0  0  0  0  0  0  0
  145.3840   74.1210  220.8420 C   0  0  0  0  0  0  0  0  0  0  0  0
  145.0960   72.7830  221.0130 C   0  0  0  0  0  0  0  0  0  0  0  0
  143.8890   72.3060  220.5640 C   0  0  0  0  0  0  0  0  0  0  0  0
  143.6210   70.9770  220.7410 F   0  0  0  0  0  0  0  0  0  0  0  0
  142.9630   73.1440  219.9450 C   0  0  0  0  0  0  0  0  0  0  0  0
  140.1760   71.3490  223.5710 C   0  0  0  0  0  0  0  0  0  0  0  0
  139.5980   70.0980  223.5870 C   0  0  0  0  0  0  0  0  0  0  0  0
  139.4900   69.4060  224.7890 C   0  0  0  0  0  0  0  0  0  0  0  0
  139.9730   70.0000  225.9430 C   0  0  0  0  0  0  0  0  0  0  0  0
  139.8770   69.3310  227.1450 C   0  0  0  0  0  0  0  0  0  0  0  0
  140.3650   69.9390  228.3070 C   0  0  0  0  0  0  0  0  0  0  0  0
  140.9420   71.1930  228.2810 C   0  0  0  0  0  0  0  0  0  0  0  0
  141.0280   71.8450  227.0610 C   0  0  0  0  0  0  0  0  0  0  0  0
  140.5530   71.2650  225.9080 C   0  0  0  0  0  0  0  0  0  0  0  0
  140.6350   71.9000  224.7140 N   0  0  0  0  0  0  0  0  0  0  0  0
  139.5800   73.8850  223.1670 H   0  0  0  0  0  0  0  0  0  0  0  0
  140.3594   73.5751  220.2239 H   0  0  0  0  0  0  0  0  0  0  0  0
  139.0060   74.6264  220.8072 H   0  0  0  0  0  0  0  0  0  0  0  0
  139.9478   77.6037  220.2013 H   0  0  0  0  0  0  0  0  0  0  0  0
  141.6375   78.1314  219.9233 H   0  0  0  0  0  0  0  0  0  0  0  0
  139.7615   76.7786  217.9317 H   0  0  0  0  0  0  0  0  0  0  0  0
  140.3939   78.4834  217.8982 H   0  0  0  0  0  0  0  0  0  0  0  0
  141.4779   76.2175  216.6476 H   0  0  0  0  0  0  0  0  0  0  0  0
  142.1929   77.8735  216.8185 H   0  0  0  0  0  0  0  0  0  0  0  0
  143.7009   75.9932  217.6271 H   0  0  0  0  0  0  0  0  0  0  0  0
  143.3689   77.2287  218.8529 H   0  0  0  0  0  0  0  0  0  0  0  0
  141.6755   74.6692  218.5014 H   0  0  0  0  0  0  0  0  0  0  0  0
  144.7203   75.9889  220.1120 H   0  0  0  0  0  0  0  0  0  0  0  0
  146.3423   74.5336  221.1905 H   0  0  0  0  0  0  0  0  0  0  0  0
  145.8187   72.1113  221.4994 H   0  0  0  0  0  0  0  0  0  0  0  0
  142.0049   72.7326  219.5946 H   0  0  0  0  0  0  0  0  0  0  0  0
  139.2243   69.6493  222.6548 H   0  0  0  0  0  0  0  0  0  0  0  0
  139.0303   68.4072  224.8221 H   0  0  0  0  0  0  0  0  0  0  0  0
  139.4219   68.3306  227.1899 H   0  0  0  0  0  0  0  0  0  0  0  0
  140.2870   69.4044  229.2652 H   0  0  0  0  0  0  0  0  0  0  0  0
  141.3222   71.6607  229.2012 H   0  0  0  0  0  0  0  0  0  0  0  0
  141.4845   72.8447  227.0141 H   0  0  0  0  0  0  0  0  0  0  0  0
  1  2  2  0
  2  3  1  0
  3  4  1  0
  4  5  1  0
  5  6  2  0
  5  7  1  0
  7  8  1  0
  8  9  1  0
  9 10  1  0
 10 11  1  0
 11 12  1  0
 12 13  1  0
 13 14  2  0
 14 15  1  0
 15 16  2  0
 16 17  1  0
 17 18  1  0
 17 19  2  0
  2 20  1  0
 20 21  2  0
 21 22  1  0
 22 23  2  0
 23 24  1  0
 24 25  2  0
 25 26  1  0
 26 27  2  0
 27 28  1  0
 28 29  2  0
 12  7  1  0
 19 13  1  0
 29 20  1  0
 28 23  1  0
  3 30  1  0
  4 31  1  0
  4 32  1  0
  8 33  1  0
  8 34  1  0
  9 35  1  0
  9 36  1  0
 10 37  1  0
 10 38  1  0
 11 39  1  0
 11 40  1  0
 12 41  1  6
 14 42  1  0
 15 43  1  0
 16 44  1  0
 19 45  1  0
 21 46  1  0
 22 47  1  0
 24 48  1  0
 25 49  1  0
 26 50  1  0
 27 51  1  0
M  END
>  <smiles>  (68) 
O=C(NCC(=O)N1CCCCC1c1cccc(F)c1)c1ccc2ccccc2n1

>  <score_type>  (68) 
oracle

>  <origin>  (68) 
autodockgpu

>  <m_score__min__energy>  (68) 
-8.8300000000000001

>  <m_primary>  (68) 
energy

>  <rmsd>  (68) 
2.022918219841429

>  <m_score__min__rmsd>  (68) 
2.022918219841429

>  <meeko>  (68) 
{"free_energy": -8.31, "intermolecular_energy": -9.8, "internal_energy": -1.93, "cluster_size": 30, "cluster_id": 3, "rank_in_cluster": 21}

>  <energy>  (68) 
-8.41

>  <cluster_rmsd>  (68) 
1.26

>  <cluster>  (68) 
3

$$$$

     RDKit          3D

 51 54  0  0  0  0  0  0  0  0999 V2000
  140.7140   71.3530  221.2250 O   0  0  0  0  0  0  0  0  0  0  0  0
  140.3530   72.0050  222.2600 C   0  0  0  0  0  0  0  0  0  0  0  0
  140.0910   73.4070  222.1930 N   0  0  0  0  0  0  0  0  0  0  0  0
  140.2220   74.1470  220.9560 C   0  0  0  0  0  0  0  0  0  0  0  0
  140.9930   75.4120  221.1590 C   0  0  0  0  0  0  0  0  0  0  0  0
  141.2250   75.8050  222.3320 O   0  0  0  0  0  0  0  0  0  0  0  0
  141.4240   76.1070  219.9960 N   0  0  0  0  0  0  0  0  0  0  0  0
  141.0000   77.4610  219.6810 C   0  0  0  0  0  0  0  0  0  0  0  0
  140.7550   77.5620  218.1900 C   0  0  0  0  0  0  0  0  0  0  0  0
  141.9350   77.1050  217.3810 C   0  0  0  0  0  0  0  0  0  0  0  0
  143.0150   76.4890  218.2680 C   0  0  0  0  0  0  0  0  0  0  0  0
  142.3220   75.4280  219.0980 C   0  0  1  0  0  0  0  0  0  0  0  0
  143.2720   74.5060  219.7410 C   0  0  0  0  0  0  0  0  0  0  0  0
  144.4730   74.8870  220.2980 C   0  0  0  0  0  0  0  0  0  0  0  0
  145.3580   74.0380  220.8950 C   0  0  0  0  0  0  0  0  0  0  0  0
  145.0600   72.6930  220.9590 C   0  0  0  0  0  0  0  0  0  0  0  0
  143.8760   72.2550  220.4200 C   0  0  0  0  0  0  0  0  0  0  0  0
  143.5970   70.9180  220.4920 F   0  0  0  0  0  0  0  0  0  0  0  0
  142.9840   73.1370  219.8140 C   0  0  0  0  0  0  0  0  0  0  0  0
  140.2000   71.3130  223.5470 C   0  0  0  0  0  0  0  0  0  0  0  0
  139.6010   70.0730  223.5800 C   0  0  0  0  0  0  0  0  0  0  0  0
  139.4540   69.4140  224.7970 C   0  0  0  0  0  0  0  0  0  0  0  0
  139.9200   70.0300  225.9460 C   0  0  0  0  0  0  0  0  0  0  0  0
  139.7850   69.3940  227.1620 C   0  0  0  0  0  0  0  0  0  0  0  0
  140.2570   70.0230  228.3200 C   0  0  0  0  0  0  0  0  0  0  0  0
  140.8550   71.2670  228.2760 C   0  0  0  0  0  0  0  0  0  0  0  0
  140.9800   71.8860  227.0410 C   0  0  0  0  0  0  0  0  0  0  0  0
  140.5220   71.2830  225.8930 C   0  0  0  0  0  0  0  0  0  0  0  0
  140.6420   71.8860  224.6850 N   0  0  0  0  0  0  0  0  0  0  0  0
  139.7940   73.8790  223.0980 H   0  0  0  0  0  0  0  0  0  0  0  0
  140.7466   73.5220  220.2183 H   0  0  0  0  0  0  0  0  0  0  0  0
  139.2148   74.4077  220.5989 H   0  0  0  0  0  0  0  0  0  0  0  0
  140.0724   77.6937  220.2245 H   0  0  0  0  0  0  0  0  0  0  0  0
  141.7805   78.1759  219.9805 H   0  0  0  0  0  0  0  0  0  0  0  0
  139.8872   76.9373  217.9320 H   0  0  0  0  0  0  0  0  0  0  0  0
  140.5762   78.6209  217.9516 H   0  0  0  0  0  0  0  0  0  0  0  0
  141.5991   76.3531  216.6518 H   0  0  0  0  0  0  0  0  0  0  0  0
  142.3641   77.9799  216.8707 H   0  0  0  0  0  0  0  0  0  0  0  0
  143.8038   76.0354  217.6499 H   0  0  0  0  0  0  0  0  0  0  0  0
  143.4937   77.2479  218.9043 H   0  0  0  0  0  0  0  0  0  0  0  0
  141.7287   74.7530  218.4637 H   0  0  0  0  0  0  0  0  0  0  0  0
  144.7376   75.9540  220.2584 H   0  0  0  0  0  0  0  0  0  0  0  0
  146.2974   74.4212  221.3200 H   0  0  0  0  0  0  0  0  0  0  0  0
  145.7569   71.9857  221.4323 H   0  0  0  0  0  0  0  0  0  0  0  0
  142.0443   72.7547  219.3887 H   0  0  0  0  0  0  0  0  0  0  0  0
  139.2413   69.6068  222.6508 H   0  0  0  0  0  0  0  0  0  0  0  0
  138.9772   68.4238  224.8450 H   0  0  0  0  0  0  0  0  0  0  0  0
  139.3115   68.4029  227.2214 H   0  0  0  0  0  0  0  0  0  0  0  0
  140.1489   69.5138  229.2890 H   0  0  0  0  0  0  0  0  0  0  0  0
  141.2212   71.7524  229.1927 H   0  0  0  0  0  0  0  0  0  0  0  0
  141.4538   72.8768  226.9787 H   0  0  0  0  0  0  0  0  0  0  0  0
  1  2  2  0
  2  3  1  0
  3  4  1  0
  4  5  1  0
  5  6  2  0
  5  7  1  0
  7  8  1  0
  8  9  1  0
  9 10  1  0
 10 11  1  0
 11 12  1  0
 12 13  1  0
 13 14  2  0
 14 15  1  0
 15 16  2  0
 16 17  1  0
 17 18  1  0
 17 19  2  0
  2 20  1  0
 20 21  2  0
 21 22  1  0
 22 23  2  0
 23 24  1  0
 24 25  2  0
 25 26  1  0
 26 27  2  0
 27 28  1  0
 28 29  2  0
 12  7  1  0
 19 13  1  0
 29 20  1  0
 28 23  1  0
  3 30  1  0
  4 31  1  0
  4 32  1  0
  8 33  1  0
  8 34  1  0
  9 35  1  0
  9 36  1  0
 10 37  1  0
 10 38  1  0
 11 39  1  0
 11 40  1  0
 12 41  1  6
 14 42  1  0
 15 43  1  0
 16 44  1  0
 19 45  1  0
 21 46  1  0
 22 47  1  0
 24 48  1  0
 25 49  1  0
 26 50  1  0
 27 51  1  0
M  END
>  <smiles>  (69) 
O=C(NCC(=O)N1CCCCC1c1cccc(F)c1)c1ccc2ccccc2n1

>  <score_type>  (69) 
oracle

>  <origin>  (69) 
autodockgpu

>  <m_score__min__energy>  (69) 
-8.8300000000000001

>  <m_primary>  (69) 
energy

>  <rmsd>  (69) 
2.09544030234532

>  <m_score__min__rmsd>  (69) 
2.09544030234532

>  <meeko>  (69) 
{"free_energy": -8.28, "intermolecular_energy": -9.77, "internal_energy": -1.97, "cluster_size": 30, "cluster_id": 3, "rank_in_cluster": 23}

>  <energy>  (69) 
-8.39

>  <cluster_rmsd>  (69) 
1.26

>  <cluster>  (69) 
3

$$$$

     RDKit          3D

 51 54  0  0  0  0  0  0  0  0999 V2000
  140.9040   71.5310  221.2380 O   0  0  0  0  0  0  0  0  0  0  0  0
  140.3990   72.1220  222.2480 C   0  0  0  0  0  0  0  0  0  0  0  0
  140.0090   73.4940  222.1790 N   0  0  0  0  0  0  0  0  0  0  0  0
  140.1680   74.2700  220.9670 C   0  0  0  0  0  0  0  0  0  0  0  0
  141.0920   75.4270  221.1790 C   0  0  0  0  0  0  0  0  0  0  0  0
  141.4200   75.7400  222.3530 O   0  0  0  0  0  0  0  0  0  0  0  0
  141.5510   76.1140  220.0240 N   0  0  0  0  0  0  0  0  0  0  0  0
  141.2550   77.5140  219.7660 C   0  0  0  0  0  0  0  0  0  0  0  0
  140.9720   77.6900  218.2890 C   0  0  0  0  0  0  0  0  0  0  0  0
  142.0720   77.1470  217.4240 C   0  0  0  0  0  0  0  0  0  0  0  0
  143.1140   76.3960  218.2500 C   0  0  0  0  0  0  0  0  0  0  0  0
  142.3460   75.3810  219.0730 C   0  0  1  0  0  0  0  0  0  0  0  0
  143.2200   74.3470  219.6510 C   0  0  0  0  0  0  0  0  0  0  0  0
  142.9600   72.9950  219.6090 C   0  0  0  0  0  0  0  0  0  0  0  0
  143.7650   72.0320  220.1430 C   0  0  0  0  0  0  0  0  0  0  0  0
  144.9300   72.4060  220.7800 C   0  0  0  0  0  0  0  0  0  0  0  0
  145.2400   73.7420  220.8530 C   0  0  0  0  0  0  0  0  0  0  0  0
  146.3980   74.0960  221.4880 F   0  0  0  0  0  0  0  0  0  0  0  0
  144.4050   74.7120  220.3010 C   0  0  0  0  0  0  0  0  0  0  0  0
  140.2110   71.3920  223.5090 C   0  0  0  0  0  0  0  0  0  0  0  0
  139.5220   70.1990  223.5020 C   0  0  0  0  0  0  0  0  0  0  0  0
  139.3400   69.5040  224.6930 C   0  0  0  0  0  0  0  0  0  0  0  0
  139.8630   70.0360  225.8590 C   0  0  0  0  0  0  0  0  0  0  0  0
  139.6960   69.3630  227.0510 C   0  0  0  0  0  0  0  0  0  0  0  0
  140.2260   69.9080  228.2250 C   0  0  0  0  0  0  0  0  0  0  0  0
  140.9150   71.1060  228.2220 C   0  0  0  0  0  0  0  0  0  0  0  0
  141.0710   71.7630  227.0120 C   0  0  0  0  0  0  0  0  0  0  0  0
  140.5560   71.2430  225.8470 C   0  0  0  0  0  0  0  0  0  0  0  0
  140.7060   71.8840  224.6630 N   0  0  0  0  0  0  0  0  0  0  0  0
  139.5970   73.9170  223.0630 H   0  0  0  0  0  0  0  0  0  0  0  0
  140.5796   73.6227  220.1786 H   0  0  0  0  0  0  0  0  0  0  0  0
  139.1828   74.6619  220.6742 H   0  0  0  0  0  0  0  0  0  0  0  0
  140.3741   77.8191  220.3499 H   0  0  0  0  0  0  0  0  0  0  0  0
  142.1131   78.1370  220.0584 H   0  0  0  0  0  0  0  0  0  0  0  0
  140.0379   77.1635  218.0437 H   0  0  0  0  0  0  0  0  0  0  0  0
  140.8924   78.7690  218.0903 H   0  0  0  0  0  0  0  0  0  0  0  0
  141.6381   76.4582  216.6842 H   0  0  0  0  0  0  0  0  0  0  0  0
  142.5696   77.9927  216.9268 H   0  0  0  0  0  0  0  0  0  0  0  0
  143.8311   75.8874  217.5888 H   0  0  0  0  0  0  0  0  0  0  0  0
  143.6887   77.0809  218.8908 H   0  0  0  0  0  0  0  0  0  0  0  0
  141.6664   74.7907  218.4408 H   0  0  0  0  0  0  0  0  0  0  0  0
  142.0365   72.6683  219.1086 H   0  0  0  0  0  0  0  0  0  0  0  0
  143.4885   70.9700  220.0666 H   0  0  0  0  0  0  0  0  0  0  0  0
  145.5968   71.6500  221.2203 H   0  0  0  0  0  0  0  0  0  0  0  0
  144.6797   75.7744  220.3768 H   0  0  0  0  0  0  0  0  0  0  0  0
  139.1183   69.7986  222.5603 H   0  0  0  0  0  0  0  0  0  0  0  0
  138.7914   68.5507  224.7080 H   0  0  0  0  0  0  0  0  0  0  0  0
  139.1516   68.4075  227.0782 H   0  0  0  0  0  0  0  0  0  0  0  0
  140.0910   69.3695  229.1746 H   0  0  0  0  0  0  0  0  0  0  0  0
  141.3270   71.5252  229.1518 H   0  0  0  0  0  0  0  0  0  0  0  0
  141.6166   72.7177  226.9824 H   0  0  0  0  0  0  0  0  0  0  0  0
  1  2  2  0
  2  3  1  0
  3  4  1  0
  4  5  1  0
  5  6  2  0
  5  7  1  0
  7  8  1  0
  8  9  1  0
  9 10  1  0
 10 11  1  0
 11 12  1  0
 12 13  1  0
 13 14  2  0
 14 15  1  0
 15 16  2  0
 16 17  1  0
 17 18  1  0
 17 19  2  0
  2 20  1  0
 20 21  2  0
 21 22  1  0
 22 23  2  0
 23 24  1  0
 24 25  2  0
 25 26  1  0
 26 27  2  0
 27 28  1  0
 28 29  2  0
 12  7  1  0
 19 13  1  0
 29 20  1  0
 28 23  1  0
  3 30  1  0
  4 31  1  0
  4 32  1  0
  8 33  1  0
  8 34  1  0
  9 35  1  0
  9 36  1  0
 10 37  1  0
 10 38  1  0
 11 39  1  0
 11 40  1  0
 12 41  1  6
 14 42  1  0
 15 43  1  0
 16 44  1  0
 19 45  1  0
 21 46  1  0
 22 47  1  0
 24 48  1  0
 25 49  1  0
 26 50  1  0
 27 51  1  0
M  END
>  <smiles>  (70) 
O=C(NCC(=O)N1CCCCC1c1cccc(F)c1)c1ccc2ccccc2n1

>  <score_type>  (70) 
oracle

>  <origin>  (70) 
autodockgpu

>  <m_score__min__energy>  (70) 
-8.8300000000000001

>  <m_primary>  (70) 
energy

>  <rmsd>  (70) 
2.166432841354978

>  <m_score__min__rmsd>  (70) 
2.166432841354978

>  <meeko>  (70) 
{"free_energy": -8.35, "intermolecular_energy": -9.84, "internal_energy": -1.89, "cluster_size": 30, "cluster_id": 3, "rank_in_cluster": 11}

>  <energy>  (70) 
-8.38

>  <cluster_rmsd>  (70) 
1.21

>  <cluster>  (70) 
3

$$$$

     RDKit          3D

 51 54  0  0  0  0  0  0  0  0999 V2000
  140.7570   71.4340  221.1990 O   0  0  0  0  0  0  0  0  0  0  0  0
  140.3750   72.0700  222.2360 C   0  0  0  0  0  0  0  0  0  0  0  0
  140.1070   73.4720  222.1820 N   0  0  0  0  0  0  0  0  0  0  0  0
  140.2540   74.2280  220.9570 C   0  0  0  0  0  0  0  0  0  0  0  0
  140.9950   75.5060  221.1930 C   0  0  0  0  0  0  0  0  0  0  0  0
  141.1490   75.9140  222.3730 O   0  0  0  0  0  0  0  0  0  0  0  0
  141.4880   76.1940  220.0510 N   0  0  0  0  0  0  0  0  0  0  0  0
  141.2140   77.5980  219.7930 C   0  0  0  0  0  0  0  0  0  0  0  0
  140.9660   77.7840  218.3110 C   0  0  0  0  0  0  0  0  0  0  0  0
  142.0790   77.2320  217.4690 C   0  0  0  0  0  0  0  0  0  0  0  0
  143.0940   76.4650  218.3150 C   0  0  0  0  0  0  0  0  0  0  0  0
  142.2950   75.4550  219.1150 C   0  0  1  0  0  0  0  0  0  0  0  0
  143.1440   74.4090  219.7080 C   0  0  0  0  0  0  0  0  0  0  0  0
  142.8400   73.0650  219.7060 C   0  0  0  0  0  0  0  0  0  0  0  0
  143.6210   72.0910  220.2530 C   0  0  0  0  0  0  0  0  0  0  0  0
  144.8080   72.4430  220.8620 C   0  0  0  0  0  0  0  0  0  0  0  0
  145.1630   73.7700  220.8940 C   0  0  0  0  0  0  0  0  0  0  0  0
  146.3420   74.1010  221.5020 F   0  0  0  0  0  0  0  0  0  0  0  0
  144.3510   74.7520  220.3290 C   0  0  0  0  0  0  0  0  0  0  0  0
  140.2060   71.3620  223.5110 C   0  0  0  0  0  0  0  0  0  0  0  0
  139.5890   70.1300  223.5230 C   0  0  0  0  0  0  0  0  0  0  0  0
  139.4260   69.4550  224.7280 C   0  0  0  0  0  0  0  0  0  0  0  0
  139.8930   70.0470  225.8900 C   0  0  0  0  0  0  0  0  0  0  0  0
  139.7420   69.3950  227.0950 C   0  0  0  0  0  0  0  0  0  0  0  0
  140.2160   70.0000  228.2650 C   0  0  0  0  0  0  0  0  0  0  0  0
  140.8320   71.2360  228.2430 C   0  0  0  0  0  0  0  0  0  0  0  0
  140.9730   71.8710  227.0190 C   0  0  0  0  0  0  0  0  0  0  0  0
  140.5130   71.2920  225.8590 C   0  0  0  0  0  0  0  0  0  0  0  0
  140.6490   71.9110  224.6610 N   0  0  0  0  0  0  0  0  0  0  0  0
  139.7930   73.9310  223.0880 H   0  0  0  0  0  0  0  0  0  0  0  0
  140.8090   73.6216  220.2261 H   0  0  0  0  0  0  0  0  0  0  0  0
  139.2510   74.4730  220.5775 H   0  0  0  0  0  0  0  0  0  0  0  0
  140.3239   77.9107  220.3586 H   0  0  0  0  0  0  0  0  0  0  0  0
  142.0726   78.2096  220.1073 H   0  0  0  0  0  0  0  0  0  0  0  0
  140.0316   77.2695  218.0423 H   0  0  0  0  0  0  0  0  0  0  0  0
  140.9029   78.8646  218.1154 H   0  0  0  0  0  0  0  0  0  0  0  0
  141.6541   76.5515  216.7164 H   0  0  0  0  0  0  0  0  0  0  0  0
  142.5975   78.0741  216.9873 H   0  0  0  0  0  0  0  0  0  0  0  0
  143.8202   75.9513  217.6679 H   0  0  0  0  0  0  0  0  0  0  0  0
  143.6621   77.1400  218.9720 H   0  0  0  0  0  0  0  0  0  0  0  0
  141.6229   74.8752  218.4654 H   0  0  0  0  0  0  0  0  0  0  0  0
  141.8987   72.7557  219.2283 H   0  0  0  0  0  0  0  0  0  0  0  0
  143.3088   71.0371  220.2095 H   0  0  0  0  0  0  0  0  0  0  0  0
  145.4566   71.6773  221.3125 H   0  0  0  0  0  0  0  0  0  0  0  0
  144.6615   75.8064  220.3714 H   0  0  0  0  0  0  0  0  0  0  0  0
  139.2276   69.6830  222.5851 H   0  0  0  0  0  0  0  0  0  0  0  0
  138.9360   68.4706  224.7577 H   0  0  0  0  0  0  0  0  0  0  0  0
  139.2543   68.4099  227.1368 H   0  0  0  0  0  0  0  0  0  0  0  0
  140.0949   69.4781  229.2257 H   0  0  0  0  0  0  0  0  0  0  0  0
  141.1996   71.7024  229.1689 H   0  0  0  0  0  0  0  0  0  0  0  0
  141.4615   72.8556  226.9744 H   0  0  0  0  0  0  0  0  0  0  0  0
  1  2  2  0
  2  3  1  0
  3  4  1  0
  4  5  1  0
  5  6  2  0
  5  7  1  0
  7  8  1  0
  8  9  1  0
  9 10  1  0
 10 11  1  0
 11 12  1  0
 12 13  1  0
 13 14  2  0
 14 15  1  0
 15 16  2  0
 16 17  1  0
 17 18  1  0
 17 19  2  0
  2 20  1  0
 20 21  2  0
 21 22  1  0
 22 23  2  0
 23 24  1  0
 24 25  2  0
 25 26  1  0
 26 27  2  0
 27 28  1  0
 28 29  2  0
 12  7  1  0
 19 13  1  0
 29 20  1  0
 28 23  1  0
  3 30  1  0
  4 31  1  0
  4 32  1  0
  8 33  1  0
  8 34  1  0
  9 35  1  0
  9 36  1  0
 10 37  1  0
 10 38  1  0
 11 39  1  0
 11 40  1  0
 12 41  1  6
 14 42  1  0
 15 43  1  0
 16 44  1  0
 19 45  1  0
 21 46  1  0
 22 47  1  0
 24 48  1  0
 25 49  1  0
 26 50  1  0
 27 51  1  0
M  END
>  <smiles>  (71) 
O=C(NCC(=O)N1CCCCC1c1cccc(F)c1)c1ccc2ccccc2n1

>  <score_type>  (71) 
oracle

>  <origin>  (71) 
autodockgpu

>  <m_score__min__energy>  (71) 
-8.8300000000000001

>  <m_primary>  (71) 
energy

>  <rmsd>  (71) 
2.1753972034365425

>  <m_score__min__rmsd>  (71) 
2.1753972034365425

>  <meeko>  (71) 
{"free_energy": -8.33, "intermolecular_energy": -9.82, "internal_energy": -1.94, "cluster_size": 30, "cluster_id": 3, "rank_in_cluster": 17}

>  <energy>  (71) 
-8.36

>  <cluster_rmsd>  (71) 
1.08

>  <cluster>  (71) 
3

$$$$

     RDKit          3D

 51 54  0  0  0  0  0  0  0  0999 V2000
  140.7460   71.2790  221.2350 O   0  0  0  0  0  0  0  0  0  0  0  0
  140.4130   71.9510  222.2660 C   0  0  0  0  0  0  0  0  0  0  0  0
  140.2140   73.3630  222.1910 N   0  0  0  0  0  0  0  0  0  0  0  0
  140.3800   74.0900  220.9520 C   0  0  0  0  0  0  0  0  0  0  0  0
  141.1210   75.3720  221.1670 C   0  0  0  0  0  0  0  0  0  0  0  0
  141.2930   75.7870  222.3430 O   0  0  0  0  0  0  0  0  0  0  0  0
  141.5930   76.0540  220.0140 N   0  0  0  0  0  0  0  0  0  0  0  0
  141.1850   77.4070  219.6720 C   0  0  0  0  0  0  0  0  0  0  0  0
  140.9900   77.4950  218.1730 C   0  0  0  0  0  0  0  0  0  0  0  0
  142.1950   77.0280  217.4090 C   0  0  0  0  0  0  0  0  0  0  0  0
  143.2430   76.4160  218.3360 C   0  0  0  0  0  0  0  0  0  0  0  0
  142.5180   75.3650  219.1530 C   0  0  1  0  0  0  0  0  0  0  0  0
  143.4440   74.4450  219.8350 C   0  0  0  0  0  0  0  0  0  0  0  0
  144.6150   74.8320  220.4490 C   0  0  0  0  0  0  0  0  0  0  0  0
  145.4760   73.9860  221.0820 C   0  0  0  0  0  0  0  0  0  0  0  0
  145.1840   72.6380  221.1280 C   0  0  0  0  0  0  0  0  0  0  0  0
  144.0290   72.1950  220.5320 C   0  0  0  0  0  0  0  0  0  0  0  0
  143.7550   70.8560  220.5860 F   0  0  0  0  0  0  0  0  0  0  0  0
  143.1600   73.0750  219.8890 C   0  0  0  0  0  0  0  0  0  0  0  0
  140.2280   71.2740  223.5560 C   0  0  0  0  0  0  0  0  0  0  0  0
  139.6060   70.0450  223.5900 C   0  0  0  0  0  0  0  0  0  0  0  0
  139.4280   69.3990  224.8100 C   0  0  0  0  0  0  0  0  0  0  0  0
  139.8870   70.0160  225.9610 C   0  0  0  0  0  0  0  0  0  0  0  0
  139.7210   69.3930  227.1800 C   0  0  0  0  0  0  0  0  0  0  0  0
  140.1870   70.0230  228.3400 C   0  0  0  0  0  0  0  0  0  0  0  0
  140.8090   71.2560  228.2950 C   0  0  0  0  0  0  0  0  0  0  0  0
  140.9640   71.8620  227.0580 C   0  0  0  0  0  0  0  0  0  0  0  0
  140.5130   71.2580  225.9070 C   0  0  0  0  0  0  0  0  0  0  0  0
  140.6620   71.8480  224.6970 N   0  0  0  0  0  0  0  0  0  0  0  0
  139.9380   73.8530  223.0940 H   0  0  0  0  0  0  0  0  0  0  0  0
  140.9434   73.4654  220.2431 H   0  0  0  0  0  0  0  0  0  0  0  0
  139.3827   74.3288  220.5541 H   0  0  0  0  0  0  0  0  0  0  0  0
  140.2408   77.6483  220.1822 H   0  0  0  0  0  0  0  0  0  0  0  0
  141.9582   78.1217  219.9904 H   0  0  0  0  0  0  0  0  0  0  0  0
  140.1297   76.8699  217.8917 H   0  0  0  0  0  0  0  0  0  0  0  0
  140.8216   78.5519  217.9189 H   0  0  0  0  0  0  0  0  0  0  0  0
  141.8815   76.2711  216.6749 H   0  0  0  0  0  0  0  0  0  0  0  0
  142.6440   77.8979  216.9073 H   0  0  0  0  0  0  0  0  0  0  0  0
  144.0494   75.9534  217.7481 H   0  0  0  0  0  0  0  0  0  0  0  0
  143.7044   77.1787  218.9805 H   0  0  0  0  0  0  0  0  0  0  0  0
  141.9426   74.6867  218.5058 H   0  0  0  0  0  0  0  0  0  0  0  0
  144.8738   75.9009  220.4268 H   0  0  0  0  0  0  0  0  0  0  0  0
  146.3928   74.3731  221.5507 H   0  0  0  0  0  0  0  0  0  0  0  0
  145.8622   71.9333  221.6315 H   0  0  0  0  0  0  0  0  0  0  0  0
  142.2428   72.6896  219.4198 H   0  0  0  0  0  0  0  0  0  0  0  0
  139.2525   69.5775  222.6592 H   0  0  0  0  0  0  0  0  0  0  0  0
  138.9326   68.4181  224.8585 H   0  0  0  0  0  0  0  0  0  0  0  0
  139.2277   68.4116  227.2402 H   0  0  0  0  0  0  0  0  0  0  0  0
  140.0547   69.5241  229.3114 H   0  0  0  0  0  0  0  0  0  0  0  0
  141.1703   71.7421  229.2132 H   0  0  0  0  0  0  0  0  0  0  0  0
  141.4565   72.8436  226.9954 H   0  0  0  0  0  0  0  0  0  0  0  0
  1  2  2  0
  2  3  1  0
  3  4  1  0
  4  5  1  0
  5  6  2  0
  5  7  1  0
  7  8  1  0
  8  9  1  0
  9 10  1  0
 10 11  1  0
 11 12  1  0
 12 13  1  0
 13 14  2  0
 14 15  1  0
 15 16  2  0
 16 17  1  0
 17 18  1  0
 17 19  2  0
  2 20  1  0
 20 21  2  0
 21 22  1  0
 22 23  2  0
 23 24  1  0
 24 25  2  0
 25 26  1  0
 26 27  2  0
 27 28  1  0
 28 29  2  0
 12  7  1  0
 19 13  1  0
 29 20  1  0
 28 23  1  0
  3 30  1  0
  4 31  1  0
  4 32  1  0
  8 33  1  0
  8 34  1  0
  9 35  1  0
  9 36  1  0
 10 37  1  0
 10 38  1  0
 11 39  1  0
 11 40  1  0
 12 41  1  6
 14 42  1  0
 15 43  1  0
 16 44  1  0
 19 45  1  0
 21 46  1  0
 22 47  1  0
 24 48  1  0
 25 49  1  0
 26 50  1  0
 27 51  1  0
M  END
>  <smiles>  (72) 
O=C(NCC(=O)N1CCCCC1c1cccc(F)c1)c1ccc2ccccc2n1

>  <score_type>  (72) 
oracle

>  <origin>  (72) 
autodockgpu

>  <m_score__min__energy>  (72) 
-8.8300000000000001

>  <m_primary>  (72) 
energy

>  <rmsd>  (72) 
2.165202050837163

>  <m_score__min__rmsd>  (72) 
2.165202050837163

>  <meeko>  (72) 
{"free_energy": -8.25, "intermolecular_energy": -9.74, "internal_energy": -2.01, "cluster_size": 30, "cluster_id": 3, "rank_in_cluster": 25}

>  <energy>  (72) 
-8.36

>  <cluster_rmsd>  (72) 
1.27

>  <cluster>  (72) 
3

$$$$

     RDKit          3D

 51 54  0  0  0  0  0  0  0  0999 V2000
  140.8080   71.4550  221.2870 O   0  0  0  0  0  0  0  0  0  0  0  0
  140.3390   72.0560  222.3100 C   0  0  0  0  0  0  0  0  0  0  0  0
  139.9470   73.4270  222.2420 N   0  0  0  0  0  0  0  0  0  0  0  0
  140.0620   74.1920  221.0190 C   0  0  0  0  0  0  0  0  0  0  0  0
  141.0060   75.3410  221.1820 C   0  0  0  0  0  0  0  0  0  0  0  0
  141.3930   75.6540  222.3380 O   0  0  0  0  0  0  0  0  0  0  0  0
  141.4160   76.0210  220.0040 N   0  0  0  0  0  0  0  0  0  0  0  0
  140.9650   77.3620  219.6670 C   0  0  0  0  0  0  0  0  0  0  0  0
  140.7070   77.4310  218.1770 C   0  0  0  0  0  0  0  0  0  0  0  0
  141.8890   76.9810  217.3680 C   0  0  0  0  0  0  0  0  0  0  0  0
  142.9870   76.4000  218.2560 C   0  0  0  0  0  0  0  0  0  0  0  0
  142.3190   75.3420  219.1120 C   0  0  1  0  0  0  0  0  0  0  0  0
  143.2900   74.4490  219.7630 C   0  0  0  0  0  0  0  0  0  0  0  0
  144.4950   74.8600  220.2920 C   0  0  0  0  0  0  0  0  0  0  0  0
  145.4000   74.0380  220.8960 C   0  0  0  0  0  0  0  0  0  0  0  0
  145.1190   72.6910  221.0010 C   0  0  0  0  0  0  0  0  0  0  0  0
  143.9330   72.2240  220.4920 C   0  0  0  0  0  0  0  0  0  0  0  0
  143.6710   70.8870  220.6050 F   0  0  0  0  0  0  0  0  0  0  0  0
  143.0200   73.0790  219.8770 C   0  0  0  0  0  0  0  0  0  0  0  0
  140.1960   71.3370  223.5830 C   0  0  0  0  0  0  0  0  0  0  0  0
  139.5820   70.1040  223.5970 C   0  0  0  0  0  0  0  0  0  0  0  0
  139.4440   69.4190  224.7990 C   0  0  0  0  0  0  0  0  0  0  0  0
  139.9320   70.0030  225.9560 C   0  0  0  0  0  0  0  0  0  0  0  0
  139.8060   69.3410  227.1590 C   0  0  0  0  0  0  0  0  0  0  0  0
  140.3010   69.9380  228.3240 C   0  0  0  0  0  0  0  0  0  0  0  0
  140.9140   71.1750  228.3000 C   0  0  0  0  0  0  0  0  0  0  0  0
  141.0300   71.8210  227.0790 C   0  0  0  0  0  0  0  0  0  0  0  0
  140.5490   71.2500  225.9230 C   0  0  0  0  0  0  0  0  0  0  0  0
  140.6600   71.8790  224.7280 N   0  0  0  0  0  0  0  0  0  0  0  0
  139.5660   73.8580  223.1360 H   0  0  0  0  0  0  0  0  0  0  0  0
  140.4329   73.5345  220.2189 H   0  0  0  0  0  0  0  0  0  0  0  0
  139.0692   74.5922  220.7657 H   0  0  0  0  0  0  0  0  0  0  0  0
  140.0375   77.5881  220.2135 H   0  0  0  0  0  0  0  0  0  0  0  0
  141.7349   78.0961  219.9470 H   0  0  0  0  0  0  0  0  0  0  0  0
  139.8490   76.7858  217.9372 H   0  0  0  0  0  0  0  0  0  0  0  0
  140.5066   78.4817  217.9205 H   0  0  0  0  0  0  0  0  0  0  0  0
  141.5613   76.2105  216.6546 H   0  0  0  0  0  0  0  0  0  0  0  0
  142.2986   77.8549  216.8402 H   0  0  0  0  0  0  0  0  0  0  0  0
  143.7780   75.9486  217.6391 H   0  0  0  0  0  0  0  0  0  0  0  0
  143.4583   77.1785  218.8739 H   0  0  0  0  0  0  0  0  0  0  0  0
  141.7325   74.6450  218.4955 H   0  0  0  0  0  0  0  0  0  0  0  0
  144.7446   75.9290  220.2217 H   0  0  0  0  0  0  0  0  0  0  0  0
  146.3418   74.4434  221.2943 H   0  0  0  0  0  0  0  0  0  0  0  0
  145.8313   72.0053  221.4830 H   0  0  0  0  0  0  0  0  0  0  0  0
  142.0785   72.6742  219.4773 H   0  0  0  0  0  0  0  0  0  0  0  0
  139.2031   69.6639  222.6628 H   0  0  0  0  0  0  0  0  0  0  0  0
  138.9571   68.4331  224.8303 H   0  0  0  0  0  0  0  0  0  0  0  0
  139.3217   68.3543  227.2025 H   0  0  0  0  0  0  0  0  0  0  0  0
  140.1991   69.4085  229.2828 H   0  0  0  0  0  0  0  0  0  0  0  0
  141.2989   71.6343  229.2225 H   0  0  0  0  0  0  0  0  0  0  0  0
  141.5150   72.8073  227.0333 H   0  0  0  0  0  0  0  0  0  0  0  0
  1  2  2  0
  2  3  1  0
  3  4  1  0
  4  5  1  0
  5  6  2  0
  5  7  1  0
  7  8  1  0
  8  9  1  0
  9 10  1  0
 10 11  1  0
 11 12  1  0
 12 13  1  0
 13 14  2  0
 14 15  1  0
 15 16  2  0
 16 17  1  0
 17 18  1  0
 17 19  2  0
  2 20  1  0
 20 21  2  0
 21 22  1  0
 22 23  2  0
 23 24  1  0
 24 25  2  0
 25 26  1  0
 26 27  2  0
 27 28  1  0
 28 29  2  0
 12  7  1  0
 19 13  1  0
 29 20  1  0
 28 23  1  0
  3 30  1  0
  4 31  1  0
  4 32  1  0
  8 33  1  0
  8 34  1  0
  9 35  1  0
  9 36  1  0
 10 37  1  0
 10 38  1  0
 11 39  1  0
 11 40  1  0
 12 41  1  6
 14 42  1  0
 15 43  1  0
 16 44  1  0
 19 45  1  0
 21 46  1  0
 22 47  1  0
 24 48  1  0
 25 49  1  0
 26 50  1  0
 27 51  1  0
M  END
>  <smiles>  (73) 
O=C(NCC(=O)N1CCCCC1c1cccc(F)c1)c1ccc2ccccc2n1

>  <score_type>  (73) 
oracle

>  <origin>  (73) 
autodockgpu

>  <m_score__min__energy>  (73) 
-8.8300000000000001

>  <m_primary>  (73) 
energy

>  <rmsd>  (73) 
2.05536730373241

>  <m_score__min__rmsd>  (73) 
2.05536730373241

>  <meeko>  (73) 
{"free_energy": -8.34, "intermolecular_energy": -9.84, "internal_energy": -1.91, "cluster_size": 30, "cluster_id": 3, "rank_in_cluster": 14}

>  <energy>  (73) 
-8.36

>  <cluster_rmsd>  (73) 
0.99

>  <cluster>  (73) 
3

$$$$

     RDKit          3D

 51 54  0  0  0  0  0  0  0  0999 V2000
  140.5720   71.5470  221.1070 O   0  0  0  0  0  0  0  0  0  0  0  0
  140.2090   72.1410  222.1760 C   0  0  0  0  0  0  0  0  0  0  0  0
  139.9230   73.5390  222.1800 N   0  0  0  0  0  0  0  0  0  0  0  0
  140.0300   74.3410  220.9800 C   0  0  0  0  0  0  0  0  0  0  0  0
  140.8190   75.5870  221.2270 C   0  0  0  0  0  0  0  0  0  0  0  0
  141.0500   75.9390  222.4140 O   0  0  0  0  0  0  0  0  0  0  0  0
  141.2680   76.3120  220.0900 N   0  0  0  0  0  0  0  0  0  0  0  0
  141.1400   75.8110  218.7320 C   0  0  0  0  0  0  0  0  0  0  0  0
  142.3940   76.1660  217.9600 C   0  0  0  0  0  0  0  0  0  0  0  0
  142.7120   77.6320  218.0240 C   0  0  0  0  0  0  0  0  0  0  0  0
  141.7910   78.3620  218.9990 C   0  0  0  0  0  0  0  0  0  0  0  0
  141.8740   77.6000  220.3070 C   0  0  1  0  0  0  0  0  0  0  0  0
  141.3310   78.3660  221.4400 C   0  0  0  0  0  0  0  0  0  0  0  0
  139.9880   78.5060  221.7140 C   0  0  0  0  0  0  0  0  0  0  0  0
  139.4780   79.2140  222.7620 C   0  0  0  0  0  0  0  0  0  0  0  0
  140.3430   79.8490  223.6290 C   0  0  0  0  0  0  0  0  0  0  0  0
  141.6930   79.7450  223.4040 C   0  0  0  0  0  0  0  0  0  0  0  0
  142.5370   80.3810  224.2730 F   0  0  0  0  0  0  0  0  0  0  0  0
  142.1970   79.0170  222.3280 C   0  0  0  0  0  0  0  0  0  0  0  0
  140.0810   71.3840  223.4280 C   0  0  0  0  0  0  0  0  0  0  0  0
  139.4700   70.1500  223.4120 C   0  0  0  0  0  0  0  0  0  0  0  0
  139.3450   69.4290  224.5960 C   0  0  0  0  0  0  0  0  0  0  0  0
  139.8440   69.9800  225.7640 C   0  0  0  0  0  0  0  0  0  0  0  0
  139.7320   69.2830  226.9490 C   0  0  0  0  0  0  0  0  0  0  0  0
  140.2380   69.8460  228.1250 C   0  0  0  0  0  0  0  0  0  0  0  0
  140.8480   71.0850  228.1310 C   0  0  0  0  0  0  0  0  0  0  0  0
  140.9500   71.7670  226.9280 C   0  0  0  0  0  0  0  0  0  0  0  0
  140.4580   71.2290  225.7610 C   0  0  0  0  0  0  0  0  0  0  0  0
  140.5550   71.8930  224.5840 N   0  0  0  0  0  0  0  0  0  0  0  0
  139.6270   73.9620  223.1090 H   0  0  0  0  0  0  0  0  0  0  0  0
  140.5290   73.7503  220.1977 H   0  0  0  0  0  0  0  0  0  0  0  0
  139.0166   74.6291  220.6638 H   0  0  0  0  0  0  0  0  0  0  0  0
  141.0148   74.7183  218.7514 H   0  0  0  0  0  0  0  0  0  0  0  0
  140.2624   76.2642  218.2478 H   0  0  0  0  0  0  0  0  0  0  0  0
  143.2394   75.6027  218.3819 H   0  0  0  0  0  0  0  0  0  0  0  0
  142.2220   75.9067  216.9049 H   0  0  0  0  0  0  0  0  0  0  0  0
  143.7538   77.7578  218.3540 H   0  0  0  0  0  0  0  0  0  0  0  0
  142.5643   78.0614  217.0221 H   0  0  0  0  0  0  0  0  0  0  0  0
  142.1290   79.3993  219.1394 H   0  0  0  0  0  0  0  0  0  0  0  0
  140.7583   78.4023  218.6224 H   0  0  0  0  0  0  0  0  0  0  0  0
  142.9198   77.4407  220.6085 H   0  0  0  0  0  0  0  0  0  0  0  0
  139.2753   78.0106  221.0382 H   0  0  0  0  0  0  0  0  0  0  0  0
  138.3904   79.2780  222.9141 H   0  0  0  0  0  0  0  0  0  0  0  0
  139.9589   80.4266  224.4827 H   0  0  0  0  0  0  0  0  0  0  0  0
  143.2844   78.9530  222.1746 H   0  0  0  0  0  0  0  0  0  0  0  0
  139.0830   69.7365  222.4690 H   0  0  0  0  0  0  0  0  0  0  0  0
  138.8598   68.4418  224.6036 H   0  0  0  0  0  0  0  0  0  0  0  0
  139.2497   68.2946  226.9689 H   0  0  0  0  0  0  0  0  0  0  0  0
  140.1479   69.2880  229.0687 H   0  0  0  0  0  0  0  0  0  0  0  0
  141.2413   71.5180  229.0625 H   0  0  0  0  0  0  0  0  0  0  0  0
  141.4326   72.7552  226.9062 H   0  0  0  0  0  0  0  0  0  0  0  0
  1  2  2  0
  2  3  1  0
  3  4  1  0
  4  5  1  0
  5  6  2  0
  5  7  1  0
  7  8  1  0
  8  9  1  0
  9 10  1  0
 10 11  1  0
 11 12  1  0
 12 13  1  0
 13 14  2  0
 14 15  1  0
 15 16  2  0
 16 17  1  0
 17 18  1  0
 17 19  2  0
  2 20  1  0
 20 21  2  0
 21 22  1  0
 22 23  2  0
 23 24  1  0
 24 25  2  0
 25 26  1  0
 26 27  2  0
 27 28  1  0
 28 29  2  0
 12  7  1  0
 19 13  1  0
 29 20  1  0
 28 23  1  0
  3 30  1  0
  4 31  1  0
  4 32  1  0
  8 33  1  0
  8 34  1  0
  9 35  1  0
  9 36  1  0
 10 37  1  0
 10 38  1  0
 11 39  1  0
 11 40  1  0
 12 41  1  1
 14 42  1  0
 15 43  1  0
 16 44  1  0
 19 45  1  0
 21 46  1  0
 22 47  1  0
 24 48  1  0
 25 49  1  0
 26 50  1  0
 27 51  1  0
M  END
>  <smiles>  (74) 
O=C(NCC(=O)N1CCCCC1c1cccc(F)c1)c1ccc2ccccc2n1

>  <score_type>  (74) 
oracle

>  <origin>  (74) 
autodockgpu

>  <m_score__min__energy>  (74) 
-8.8300000000000001

>  <m_primary>  (74) 
energy

>  <rmsd>  (74) 
1.6552523651741864

>  <m_score__min__rmsd>  (74) 
1.6552523651741864

>  <meeko>  (74) 
{"free_energy": -8.73, "intermolecular_energy": -10.22, "internal_energy": -1.33, "cluster_size": 13, "cluster_id": 1, "rank_in_cluster": 6}

>  <energy>  (74) 
-8.35

>  <cluster_rmsd>  (74) 
1.23

>  <cluster>  (74) 
3

$$$$

     RDKit          3D

 51 54  0  0  0  0  0  0  0  0999 V2000
  140.1970   71.2190  221.2120 O   0  0  0  0  0  0  0  0  0  0  0  0
  140.0480   71.8720  222.2980 C   0  0  0  0  0  0  0  0  0  0  0  0
  139.9210   73.2940  222.2900 N   0  0  0  0  0  0  0  0  0  0  0  0
  139.9550   74.0540  221.0590 C   0  0  0  0  0  0  0  0  0  0  0  0
  140.8090   75.2740  221.1960 C   0  0  0  0  0  0  0  0  0  0  0  0
  141.1070   75.6850  222.3480 O   0  0  0  0  0  0  0  0  0  0  0  0
  141.2400   75.9070  219.9990 N   0  0  0  0  0  0  0  0  0  0  0  0
  140.8740   77.2690  219.6470 C   0  0  0  0  0  0  0  0  0  0  0  0
  140.5910   77.3320  218.1610 C   0  0  0  0  0  0  0  0  0  0  0  0
  141.7240   76.7900  217.3380 C   0  0  0  0  0  0  0  0  0  0  0  0
  142.7980   76.1500  218.2150 C   0  0  0  0  0  0  0  0  0  0  0  0
  142.0770   75.1540  219.1010 C   0  0  1  0  0  0  0  0  0  0  0  0
  142.9990   74.2070  219.7500 C   0  0  0  0  0  0  0  0  0  0  0  0
  142.7170   72.8790  219.9810 C   0  0  0  0  0  0  0  0  0  0  0  0
  143.5670   71.9970  220.5810 C   0  0  0  0  0  0  0  0  0  0  0  0
  144.8050   72.4360  221.0010 C   0  0  0  0  0  0  0  0  0  0  0  0
  145.1410   73.7510  220.7970 C   0  0  0  0  0  0  0  0  0  0  0  0
  146.3730   74.1690  221.2190 F   0  0  0  0  0  0  0  0  0  0  0  0
  144.2600   74.6390  220.1820 C   0  0  0  0  0  0  0  0  0  0  0  0
  140.0060   71.1610  223.5820 C   0  0  0  0  0  0  0  0  0  0  0  0
  139.5770   69.8520  223.6150 C   0  0  0  0  0  0  0  0  0  0  0  0
  139.5340   69.1730  224.8290 C   0  0  0  0  0  0  0  0  0  0  0  0
  139.9290   69.8410  225.9770 C   0  0  0  0  0  0  0  0  0  0  0  0
  139.8950   69.1870  227.1910 C   0  0  0  0  0  0  0  0  0  0  0  0
  140.2940   69.8680  228.3460 C   0  0  0  0  0  0  0  0  0  0  0  0
  140.7210   71.1810  228.3020 C   0  0  0  0  0  0  0  0  0  0  0  0
  140.7470   71.8160  227.0700 C   0  0  0  0  0  0  0  0  0  0  0  0
  140.3580   71.1630  225.9240 C   0  0  0  0  0  0  0  0  0  0  0  0
  140.3820   71.7820  224.7190 N   0  0  0  0  0  0  0  0  0  0  0  0
  139.8000   73.7660  223.2350 H   0  0  0  0  0  0  0  0  0  0  0  0
  140.3622   73.4199  220.2577 H   0  0  0  0  0  0  0  0  0  0  0  0
  138.9298   74.3733  220.8202 H   0  0  0  0  0  0  0  0  0  0  0  0
  139.9751   77.5663  220.2070 H   0  0  0  0  0  0  0  0  0  0  0  0
  141.6975   77.9533  219.8990 H   0  0  0  0  0  0  0  0  0  0  0  0
  139.6868   76.7427  217.9485 H   0  0  0  0  0  0  0  0  0  0  0  0
  140.4564   78.3896  217.8902 H   0  0  0  0  0  0  0  0  0  0  0  0
  141.3310   76.0322  216.6442 H   0  0  0  0  0  0  0  0  0  0  0  0
  142.1811   77.6258  216.7879 H   0  0  0  0  0  0  0  0  0  0  0  0
  143.5442   75.6361  217.5912 H   0  0  0  0  0  0  0  0  0  0  0  0
  143.3334   76.9043  218.8104 H   0  0  0  0  0  0  0  0  0  0  0  0
  141.4324   74.4893  218.5071 H   0  0  0  0  0  0  0  0  0  0  0  0
  141.7352   72.5023  219.6583 H   0  0  0  0  0  0  0  0  0  0  0  0
  143.2687   70.9485  220.7280 H   0  0  0  0  0  0  0  0  0  0  0  0
  145.5089   71.7462  221.4896 H   0  0  0  0  0  0  0  0  0  0  0  0
  144.5572   75.6878  220.0346 H   0  0  0  0  0  0  0  0  0  0  0  0
  139.2703   69.3467  222.6873 H   0  0  0  0  0  0  0  0  0  0  0  0
  139.1936   68.1281  224.8763 H   0  0  0  0  0  0  0  0  0  0  0  0
  139.5579   68.1416  227.2503 H   0  0  0  0  0  0  0  0  0  0  0  0
  140.2671   69.3449  229.3133 H   0  0  0  0  0  0  0  0  0  0  0  0
  141.0311   71.7069  229.2171 H   0  0  0  0  0  0  0  0  0  0  0  0
  141.0849   72.8610  227.0080 H   0  0  0  0  0  0  0  0  0  0  0  0
  1  2  2  0
  2  3  1  0
  3  4  1  0
  4  5  1  0
  5  6  2  0
  5  7  1  0
  7  8  1  0
  8  9  1  0
  9 10  1  0
 10 11  1  0
 11 12  1  0
 12 13  1  0
 13 14  2  0
 14 15  1  0
 15 16  2  0
 16 17  1  0
 17 18  1  0
 17 19  2  0
  2 20  1  0
 20 21  2  0
 21 22  1  0
 22 23  2  0
 23 24  1  0
 24 25  2  0
 25 26  1  0
 26 27  2  0
 27 28  1  0
 28 29  2  0
 12  7  1  0
 19 13  1  0
 29 20  1  0
 28 23  1  0
  3 30  1  0
  4 31  1  0
  4 32  1  0
  8 33  1  0
  8 34  1  0
  9 35  1  0
  9 36  1  0
 10 37  1  0
 10 38  1  0
 11 39  1  0
 11 40  1  0
 12 41  1  6
 14 42  1  0
 15 43  1  0
 16 44  1  0
 19 45  1  0
 21 46  1  0
 22 47  1  0
 24 48  1  0
 25 49  1  0
 26 50  1  0
 27 51  1  0
M  END
>  <smiles>  (75) 
O=C(NCC(=O)N1CCCCC1c1cccc(F)c1)c1ccc2ccccc2n1

>  <score_type>  (75) 
oracle

>  <origin>  (75) 
autodockgpu

>  <m_score__min__energy>  (75) 
-8.8300000000000001

>  <m_primary>  (75) 
energy

>  <rmsd>  (75) 
1.9612954143501227

>  <m_score__min__rmsd>  (75) 
1.9612954143501227

>  <meeko>  (75) 
{"free_energy": -8.02, "intermolecular_energy": -9.52, "internal_energy": -2.11, "cluster_size": 30, "cluster_id": 3, "rank_in_cluster": 27}

>  <energy>  (75) 
-8.35

>  <cluster_rmsd>  (75) 
1.09

>  <cluster>  (75) 
3

$$$$

     RDKit          3D

 51 54  0  0  0  0  0  0  0  0999 V2000
  140.7350   71.4830  221.2130 O   0  0  0  0  0  0  0  0  0  0  0  0
  140.3040   72.1040  222.2400 C   0  0  0  0  0  0  0  0  0  0  0  0
  139.9830   73.4940  222.1800 N   0  0  0  0  0  0  0  0  0  0  0  0
  140.1320   74.2560  220.9590 C   0  0  0  0  0  0  0  0  0  0  0  0
  140.9620   75.4800  221.1800 C   0  0  0  0  0  0  0  0  0  0  0  0
  141.1920   75.8580  222.3580 O   0  0  0  0  0  0  0  0  0  0  0  0
  141.4480   76.1550  220.0280 N   0  0  0  0  0  0  0  0  0  0  0  0
  141.1680   77.5550  219.7540 C   0  0  0  0  0  0  0  0  0  0  0  0
  140.9140   77.7220  218.2700 C   0  0  0  0  0  0  0  0  0  0  0  0
  142.0260   77.1630  217.4310 C   0  0  0  0  0  0  0  0  0  0  0  0
  143.0470   76.4100  218.2820 C   0  0  0  0  0  0  0  0  0  0  0  0
  142.2550   75.4080  219.0980 C   0  0  1  0  0  0  0  0  0  0  0  0
  143.1090   74.3720  219.7010 C   0  0  0  0  0  0  0  0  0  0  0  0
  142.7940   73.0320  219.7480 C   0  0  0  0  0  0  0  0  0  0  0  0
  143.5810   72.0680  220.3060 C   0  0  0  0  0  0  0  0  0  0  0  0
  144.7860   72.4270  220.8730 C   0  0  0  0  0  0  0  0  0  0  0  0
  145.1520   73.7510  220.8550 C   0  0  0  0  0  0  0  0  0  0  0  0
  146.3500   74.0900  221.4220 F   0  0  0  0  0  0  0  0  0  0  0  0
  144.3350   74.7230  220.2810 C   0  0  0  0  0  0  0  0  0  0  0  0
  140.1300   71.3880  223.5110 C   0  0  0  0  0  0  0  0  0  0  0  0
  139.4420   70.1940  223.5250 C   0  0  0  0  0  0  0  0  0  0  0  0
  139.2750   69.5120  224.7260 C   0  0  0  0  0  0  0  0  0  0  0  0
  139.8100   70.0590  225.8810 C   0  0  0  0  0  0  0  0  0  0  0  0
  139.6560   69.3990  227.0820 C   0  0  0  0  0  0  0  0  0  0  0  0
  140.1990   69.9580  228.2440 C   0  0  0  0  0  0  0  0  0  0  0  0
  140.8860   71.1560  228.2200 C   0  0  0  0  0  0  0  0  0  0  0  0
  141.0280   71.8000  227.0000 C   0  0  0  0  0  0  0  0  0  0  0  0
  140.5010   71.2660  225.8470 C   0  0  0  0  0  0  0  0  0  0  0  0
  140.6380   71.8940  224.6540 N   0  0  0  0  0  0  0  0  0  0  0  0
  139.6300   73.9400  223.0780 H   0  0  0  0  0  0  0  0  0  0  0  0
  140.6185   73.6254  220.2003 H   0  0  0  0  0  0  0  0  0  0  0  0
  139.1332   74.5702  220.6219 H   0  0  0  0  0  0  0  0  0  0  0  0
  140.2788   77.8714  220.3189 H   0  0  0  0  0  0  0  0  0  0  0  0
  142.0254   78.1735  220.0578 H   0  0  0  0  0  0  0  0  0  0  0  0
  139.9804   77.2012  218.0109 H   0  0  0  0  0  0  0  0  0  0  0  0
  140.8466   78.7999  218.0612 H   0  0  0  0  0  0  0  0  0  0  0  0
  141.6005   76.4717  216.6886 H   0  0  0  0  0  0  0  0  0  0  0  0
  142.5399   78.0010  216.9374 H   0  0  0  0  0  0  0  0  0  0  0  0
  143.7719   75.8904  217.6382 H   0  0  0  0  0  0  0  0  0  0  0  0
  143.6158   77.0950  218.9279 H   0  0  0  0  0  0  0  0  0  0  0  0
  141.5829   74.8183  218.4573 H   0  0  0  0  0  0  0  0  0  0  0  0
  141.8386   72.7165  219.3033 H   0  0  0  0  0  0  0  0  0  0  0  0
  143.2585   71.0163  220.3039 H   0  0  0  0  0  0  0  0  0  0  0  0
  145.4399   71.6695  221.3298 H   0  0  0  0  0  0  0  0  0  0  0  0
  144.6556   75.7753  220.2833 H   0  0  0  0  0  0  0  0  0  0  0  0
  139.0276   69.7829  222.5926 H   0  0  0  0  0  0  0  0  0  0  0  0
  138.7291   68.5576  224.7579 H   0  0  0  0  0  0  0  0  0  0  0  0
  139.1123   68.4438  227.1259 H   0  0  0  0  0  0  0  0  0  0  0  0
  140.0756   69.4299  229.2011 H   0  0  0  0  0  0  0  0  0  0  0  0
  141.3076   71.5861  229.1404 H   0  0  0  0  0  0  0  0  0  0  0  0
  141.5718   72.7550  226.9535 H   0  0  0  0  0  0  0  0  0  0  0  0
  1  2  2  0
  2  3  1  0
  3  4  1  0
  4  5  1  0
  5  6  2  0
  5  7  1  0
  7  8  1  0
  8  9  1  0
  9 10  1  0
 10 11  1  0
 11 12  1  0
 12 13  1  0
 13 14  2  0
 14 15  1  0
 15 16  2  0
 16 17  1  0
 17 18  1  0
 17 19  2  0
  2 20  1  0
 20 21  2  0
 21 22  1  0
 22 23  2  0
 23 24  1  0
 24 25  2  0
 25 26  1  0
 26 27  2  0
 27 28  1  0
 28 29  2  0
 12  7  1  0
 19 13  1  0
 29 20  1  0
 28 23  1  0
  3 30  1  0
  4 31  1  0
  4 32  1  0
  8 33  1  0
  8 34  1  0
  9 35  1  0
  9 36  1  0
 10 37  1  0
 10 38  1  0
 11 39  1  0
 11 40  1  0
 12 41  1  6
 14 42  1  0
 15 43  1  0
 16 44  1  0
 19 45  1  0
 21 46  1  0
 22 47  1  0
 24 48  1  0
 25 49  1  0
 26 50  1  0
 27 51  1  0
M  END
>  <smiles>  (76) 
O=C(NCC(=O)N1CCCCC1c1cccc(F)c1)c1ccc2ccccc2n1

>  <score_type>  (76) 
oracle

>  <origin>  (76) 
autodockgpu

>  <m_score__min__energy>  (76) 
-8.8300000000000001

>  <m_primary>  (76) 
energy

>  <rmsd>  (76) 
2.137015805741173

>  <m_score__min__rmsd>  (76) 
2.137015805741173

>  <meeko>  (76) 
{"free_energy": -8.39, "intermolecular_energy": -9.88, "internal_energy": -1.89, "cluster_size": 30, "cluster_id": 3, "rank_in_cluster": 4}

>  <energy>  (76) 
-8.35

>  <cluster_rmsd>  (76) 
1.22

>  <cluster>  (76) 
3

$$$$

     RDKit          3D

 51 54  0  0  0  0  0  0  0  0999 V2000
  140.9940   71.9090  221.2420 O   0  0  0  0  0  0  0  0  0  0  0  0
  140.3010   72.3510  222.2180 C   0  0  0  0  0  0  0  0  0  0  0  0
  139.6870   73.6390  222.1590 N   0  0  0  0  0  0  0  0  0  0  0  0
  139.8210   74.4940  221.0000 C   0  0  0  0  0  0  0  0  0  0  0  0
  140.9050   75.5070  221.1930 C   0  0  0  0  0  0  0  0  0  0  0  0
  141.4380   75.6220  222.3270 O   0  0  0  0  0  0  0  0  0  0  0  0
  141.2730   76.2910  220.0670 N   0  0  0  0  0  0  0  0  0  0  0  0
  141.0990   75.8390  218.6960 C   0  0  0  0  0  0  0  0  0  0  0  0
  142.3010   76.2710  217.8820 C   0  0  0  0  0  0  0  0  0  0  0  0
  142.5690   77.7440  217.9920 C   0  0  0  0  0  0  0  0  0  0  0  0
  141.6690   78.4010  219.0380 C   0  0  0  0  0  0  0  0  0  0  0  0
  141.8420   77.5920  220.3080 C   0  0  1  0  0  0  0  0  0  0  0  0
  141.3260   78.2920  221.4950 C   0  0  0  0  0  0  0  0  0  0  0  0
  140.0030   78.3050  221.8780 C   0  0  0  0  0  0  0  0  0  0  0  0
  139.5180   78.9520  222.9760 C   0  0  0  0  0  0  0  0  0  0  0  0
  140.3890   79.6540  223.7830 C   0  0  0  0  0  0  0  0  0  0  0  0
  141.7210   79.6760  223.4500 C   0  0  0  0  0  0  0  0  0  0  0  0
  142.5710   80.3770  224.2600 F   0  0  0  0  0  0  0  0  0  0  0  0
  142.1990   79.0090  222.3230 C   0  0  0  0  0  0  0  0  0  0  0  0
  140.1250   71.5330  223.4250 C   0  0  0  0  0  0  0  0  0  0  0  0
  139.4080   70.3590  223.3470 C   0  0  0  0  0  0  0  0  0  0  0  0
  139.2390   69.5800  224.4870 C   0  0  0  0  0  0  0  0  0  0  0  0
  139.8020   70.0130  225.6760 C   0  0  0  0  0  0  0  0  0  0  0  0
  139.6460   69.2560  226.8180 C   0  0  0  0  0  0  0  0  0  0  0  0
  140.2170   69.7000  228.0160 C   0  0  0  0  0  0  0  0  0  0  0  0
  140.9330   70.8790  228.0850 C   0  0  0  0  0  0  0  0  0  0  0  0
  141.0760   71.6220  226.9230 C   0  0  0  0  0  0  0  0  0  0  0  0
  140.5220   71.2020  225.7360 C   0  0  0  0  0  0  0  0  0  0  0  0
  140.6600   71.9260  224.5990 N   0  0  0  0  0  0  0  0  0  0  0  0
  139.1260   73.9370  223.0110 H   0  0  0  0  0  0  0  0  0  0  0  0
  140.0618   73.8743  220.1237 H   0  0  0  0  0  0  0  0  0  0  0  0
  138.8706   75.0273  220.8508 H   0  0  0  0  0  0  0  0  0  0  0  0
  141.0143   74.7424  218.6764 H   0  0  0  0  0  0  0  0  0  0  0  0
  140.1838   76.2776  218.2717 H   0  0  0  0  0  0  0  0  0  0  0  0
  143.1852   75.7236  218.2404 H   0  0  0  0  0  0  0  0  0  0  0  0
  142.0882   76.0474  216.8262 H   0  0  0  0  0  0  0  0  0  0  0  0
  143.6200   77.8955  218.2790 H   0  0  0  0  0  0  0  0  0  0  0  0
  142.3586   78.2066  217.0165 H   0  0  0  0  0  0  0  0  0  0  0  0
  141.9759   79.4441  219.2049 H   0  0  0  0  0  0  0  0  0  0  0  0
  140.6187   78.4175  218.7116 H   0  0  0  0  0  0  0  0  0  0  0  0
  142.9061   77.4606  220.5537 H   0  0  0  0  0  0  0  0  0  0  0  0
  139.2856   77.7534  221.2527 H   0  0  0  0  0  0  0  0  0  0  0  0
  138.4450   78.9146  223.2153 H   0  0  0  0  0  0  0  0  0  0  0  0
  140.0242   80.1850  224.6746 H   0  0  0  0  0  0  0  0  0  0  0  0
  143.2716   79.0462  222.0818 H   0  0  0  0  0  0  0  0  0  0  0  0
  138.9718   70.0397  222.3890 H   0  0  0  0  0  0  0  0  0  0  0  0
  138.6700   68.6396  224.4450 H   0  0  0  0  0  0  0  0  0  0  0  0
  139.0791   68.3138  226.7876 H   0  0  0  0  0  0  0  0  0  0  0  0
  140.0924   69.0945  228.9259 H   0  0  0  0  0  0  0  0  0  0  0  0
  141.3763   71.2183  229.0328 H   0  0  0  0  0  0  0  0  0  0  0  0
  141.6427   72.5644  226.9509 H   0  0  0  0  0  0  0  0  0  0  0  0
  1  2  2  0
  2  3  1  0
  3  4  1  0
  4  5  1  0
  5  6  2  0
  5  7  1  0
  7  8  1  0
  8  9  1  0
  9 10  1  0
 10 11  1  0
 11 12  1  0
 12 13  1  0
 13 14  2  0
 14 15  1  0
 15 16  2  0
 16 17  1  0
 17 18  1  0
 17 19  2  0
  2 20  1  0
 20 21  2  0
 21 22  1  0
 22 23  2  0
 23 24  1  0
 24 25  2  0
 25 26  1  0
 26 27  2  0
 27 28  1  0
 28 29  2  0
 12  7  1  0
 19 13  1  0
 29 20  1  0
 28 23  1  0
  3 30  1  0
  4 31  1  0
  4 32  1  0
  8 33  1  0
  8 34  1  0
  9 35  1  0
  9 36  1  0
 10 37  1  0
 10 38  1  0
 11 39  1  0
 11 40  1  0
 12 41  1  1
 14 42  1  0
 15 43  1  0
 16 44  1  0
 19 45  1  0
 21 46  1  0
 22 47  1  0
 24 48  1  0
 25 49  1  0
 26 50  1  0
 27 51  1  0
M  END
>  <smiles>  (77) 
O=C(NCC(=O)N1CCCCC1c1cccc(F)c1)c1ccc2ccccc2n1

>  <score_type>  (77) 
oracle

>  <origin>  (77) 
autodockgpu

>  <m_score__min__energy>  (77) 
-8.8300000000000001

>  <m_primary>  (77) 
energy

>  <rmsd>  (77) 
1.6514091529250658

>  <m_score__min__rmsd>  (77) 
1.6514091529250658

>  <meeko>  (77) 
{"free_energy": -8.77, "intermolecular_energy": -10.26, "internal_energy": -1.25, "cluster_size": 13, "cluster_id": 1, "rank_in_cluster": 4}

>  <energy>  (77) 
-8.35

>  <cluster_rmsd>  (77) 
1.27

>  <cluster>  (77) 
3

$$$$

     RDKit          3D

 51 54  0  0  0  0  0  0  0  0999 V2000
  140.7400   71.1510  221.3910 O   0  0  0  0  0  0  0  0  0  0  0  0
  140.2300   71.7590  222.3880 C   0  0  0  0  0  0  0  0  0  0  0  0
  139.8530   73.1330  222.2970 N   0  0  0  0  0  0  0  0  0  0  0  0
  140.0310   73.8920  221.0790 C   0  0  0  0  0  0  0  0  0  0  0  0
  141.4770   74.1670  220.8150 C   0  0  0  0  0  0  0  0  0  0  0  0
  142.3380   73.3330  221.2010 O   0  0  0  0  0  0  0  0  0  0  0  0
  141.7990   75.3730  220.1350 N   0  0  0  0  0  0  0  0  0  0  0  0
  141.0970   76.6240  220.3680 C   0  0  0  0  0  0  0  0  0  0  0  0
  140.9120   77.3350  219.0440 C   0  0  0  0  0  0  0  0  0  0  0  0
  142.2050   77.5090  218.3000 C   0  0  0  0  0  0  0  0  0  0  0  0
  143.3500   76.7660  218.9860 C   0  0  0  0  0  0  0  0  0  0  0  0
  142.8720   75.3410  219.1760 C   0  0  1  0  0  0  0  0  0  0  0  0
  143.9720   74.4160  219.4960 C   0  0  0  0  0  0  0  0  0  0  0  0
  144.8690   74.5990  220.5260 C   0  0  0  0  0  0  0  0  0  0  0  0
  145.8900   73.7480  220.8270 C   0  0  0  0  0  0  0  0  0  0  0  0
  146.0660   72.6120  220.0640 C   0  0  0  0  0  0  0  0  0  0  0  0
  145.2020   72.3780  219.0240 C   0  0  0  0  0  0  0  0  0  0  0  0
  145.3910   71.2480  218.2770 F   0  0  0  0  0  0  0  0  0  0  0  0
  144.1640   73.2600  218.7300 C   0  0  0  0  0  0  0  0  0  0  0  0
  140.0220   71.0470  223.6560 C   0  0  0  0  0  0  0  0  0  0  0  0
  139.2350   69.9160  223.6740 C   0  0  0  0  0  0  0  0  0  0  0  0
  139.0350   69.2370  224.8710 C   0  0  0  0  0  0  0  0  0  0  0  0
  139.6390   69.7230  226.0190 C   0  0  0  0  0  0  0  0  0  0  0  0
  139.4540   69.0650  227.2170 C   0  0  0  0  0  0  0  0  0  0  0  0
  140.0660   69.5630  228.3720 C   0  0  0  0  0  0  0  0  0  0  0  0
  140.8530   70.6980  228.3440 C   0  0  0  0  0  0  0  0  0  0  0  0
  141.0240   71.3410  227.1280 C   0  0  0  0  0  0  0  0  0  0  0  0
  140.4300   70.8670  225.9820 C   0  0  0  0  0  0  0  0  0  0  0  0
  140.5950   71.4940  224.7920 N   0  0  0  0  0  0  0  0  0  0  0  0
  139.4340   73.5710  223.1720 H   0  0  0  0  0  0  0  0  0  0  0  0
  139.6157   73.3196  220.2365 H   0  0  0  0  0  0  0  0  0  0  0  0
  139.5100   74.8543  221.1910 H   0  0  0  0  0  0  0  0  0  0  0  0
  140.1143   76.4181  220.8173 H   0  0  0  0  0  0  0  0  0  0  0  0
  141.6798   77.2570  221.0534 H   0  0  0  0  0  0  0  0  0  0  0  0
  140.2226   76.7466  218.4207 H   0  0  0  0  0  0  0  0  0  0  0  0
  140.5102   78.3369  219.2555 H   0  0  0  0  0  0  0  0  0  0  0  0
  142.0855   77.1172  217.2791 H   0  0  0  0  0  0  0  0  0  0  0  0
  142.4511   78.5810  218.2817 H   0  0  0  0  0  0  0  0  0  0  0  0
  144.2504   76.7856  218.3545 H   0  0  0  0  0  0  0  0  0  0  0  0
  143.6137   77.2329  219.9465 H   0  0  0  0  0  0  0  0  0  0  0  0
  142.4788   74.9262  218.2361 H   0  0  0  0  0  0  0  0  0  0  0  0
  144.7525   75.4970  221.1505 H   0  0  0  0  0  0  0  0  0  0  0  0
  146.5654   73.9641  221.6679 H   0  0  0  0  0  0  0  0  0  0  0  0
  146.8822   71.9084  220.2849 H   0  0  0  0  0  0  0  0  0  0  0  0
  143.4891   73.0459  217.8881 H   0  0  0  0  0  0  0  0  0  0  0  0
  138.7677   69.5524  222.7469 H   0  0  0  0  0  0  0  0  0  0  0  0
  138.4100   68.3325  224.9055 H   0  0  0  0  0  0  0  0  0  0  0  0
  138.8322   68.1588  227.2636 H   0  0  0  0  0  0  0  0  0  0  0  0
  139.9168   69.0375  229.3268 H   0  0  0  0  0  0  0  0  0  0  0  0
  141.3295   71.0799  229.2589 H   0  0  0  0  0  0  0  0  0  0  0  0
  141.6461   72.2468  227.0789 H   0  0  0  0  0  0  0  0  0  0  0  0
  1  2  2  0
  2  3  1  0
  3  4  1  0
  4  5  1  0
  5  6  2  0
  5  7  1  0
  7  8  1  0
  8  9  1  0
  9 10  1  0
 10 11  1  0
 11 12  1  0
 12 13  1  0
 13 14  2  0
 14 15  1  0
 15 16  2  0
 16 17  1  0
 17 18  1  0
 17 19  2  0
  2 20  1  0
 20 21  2  0
 21 22  1  0
 22 23  2  0
 23 24  1  0
 24 25  2  0
 25 26  1  0
 26 27  2  0
 27 28  1  0
 28 29  2  0
 12  7  1  0
 19 13  1  0
 29 20  1  0
 28 23  1  0
  3 30  1  0
  4 31  1  0
  4 32  1  0
  8 33  1  0
  8 34  1  0
  9 35  1  0
  9 36  1  0
 10 37  1  0
 10 38  1  0
 11 39  1  0
 11 40  1  0
 12 41  1  6
 14 42  1  0
 15 43  1  0
 16 44  1  0
 19 45  1  0
 21 46  1  0
 22 47  1  0
 24 48  1  0
 25 49  1  0
 26 50  1  0
 27 51  1  0
M  END
>  <smiles>  (78) 
O=C(NCC(=O)N1CCCCC1c1cccc(F)c1)c1ccc2ccccc2n1

>  <score_type>  (78) 
oracle

>  <origin>  (78) 
autodockgpu

>  <m_score__min__energy>  (78) 
-8.8300000000000001

>  <m_primary>  (78) 
energy

>  <rmsd>  (78) 
2.1581467519948334

>  <m_score__min__rmsd>  (78) 
2.1581467519948334

>  <meeko>  (78) 
{"free_energy": -8.56, "intermolecular_energy": -10.05, "internal_energy": -1.12, "cluster_size": 30, "cluster_id": 3, "rank_in_cluster": 1}

>  <energy>  (78) 
-8.34

>  <cluster_rmsd>  (78) 
1.27

>  <cluster>  (78) 
3

$$$$

     RDKit          3D

 51 54  0  0  0  0  0  0  0  0999 V2000
  140.7540   71.5590  221.2010 O   0  0  0  0  0  0  0  0  0  0  0  0
  140.3010   72.1470  222.2380 C   0  0  0  0  0  0  0  0  0  0  0  0
  139.9500   73.5300  222.2040 N   0  0  0  0  0  0  0  0  0  0  0  0
  140.0910   74.3220  221.0020 C   0  0  0  0  0  0  0  0  0  0  0  0
  141.0450   75.4560  221.2060 C   0  0  0  0  0  0  0  0  0  0  0  0
  141.3870   75.7630  222.3770 O   0  0  0  0  0  0  0  0  0  0  0  0
  141.5130   76.1310  220.0470 N   0  0  0  0  0  0  0  0  0  0  0  0
  141.2210   77.5290  219.7720 C   0  0  0  0  0  0  0  0  0  0  0  0
  140.9480   77.6900  218.2910 C   0  0  0  0  0  0  0  0  0  0  0  0
  142.0540   77.1360  217.4400 C   0  0  0  0  0  0  0  0  0  0  0  0
  143.0890   76.3920  218.2810 C   0  0  0  0  0  0  0  0  0  0  0  0
  142.3130   75.3870  219.1090 C   0  0  1  0  0  0  0  0  0  0  0  0
  143.1810   74.3580  219.7040 C   0  0  0  0  0  0  0  0  0  0  0  0
  142.8900   73.0120  219.7290 C   0  0  0  0  0  0  0  0  0  0  0  0
  143.6890   72.0530  220.2790 C   0  0  0  0  0  0  0  0  0  0  0  0
  144.8820   72.4260  220.8620 C   0  0  0  0  0  0  0  0  0  0  0  0
  145.2250   73.7560  220.8670 C   0  0  0  0  0  0  0  0  0  0  0  0
  146.4110   74.1080  221.4500 F   0  0  0  0  0  0  0  0  0  0  0  0
  144.3950   74.7220  220.3000 C   0  0  0  0  0  0  0  0  0  0  0  0
  140.1340   71.4000  223.4910 C   0  0  0  0  0  0  0  0  0  0  0  0
  139.4570   70.2000  223.4780 C   0  0  0  0  0  0  0  0  0  0  0  0
  139.2950   69.4890  224.6620 C   0  0  0  0  0  0  0  0  0  0  0  0
  139.8250   70.0130  225.8290 C   0  0  0  0  0  0  0  0  0  0  0  0
  139.6760   69.3240  227.0150 C   0  0  0  0  0  0  0  0  0  0  0  0
  140.2130   69.8610  228.1900 C   0  0  0  0  0  0  0  0  0  0  0  0
  140.8890   71.0650  228.1940 C   0  0  0  0  0  0  0  0  0  0  0  0
  141.0260   71.7390  226.9900 C   0  0  0  0  0  0  0  0  0  0  0  0
  140.5050   71.2270  225.8240 C   0  0  0  0  0  0  0  0  0  0  0  0
  140.6360   71.8840  224.6460 N   0  0  0  0  0  0  0  0  0  0  0  0
  139.5800   73.9490  223.1090 H   0  0  0  0  0  0  0  0  0  0  0  0
  140.4663   73.6796  220.1918 H   0  0  0  0  0  0  0  0  0  0  0  0
  139.1064   74.7392  220.7441 H   0  0  0  0  0  0  0  0  0  0  0  0
  140.3368   77.8417  220.3468 H   0  0  0  0  0  0  0  0  0  0  0  0
  142.0783   78.1536  220.0634 H   0  0  0  0  0  0  0  0  0  0  0  0
  140.0149   77.1622  218.0447 H   0  0  0  0  0  0  0  0  0  0  0  0
  140.8707   78.7668  218.0800 H   0  0  0  0  0  0  0  0  0  0  0  0
  141.6244   76.4402  216.7043 H   0  0  0  0  0  0  0  0  0  0  0  0
  142.5567   77.9759  216.9381 H   0  0  0  0  0  0  0  0  0  0  0  0
  143.8098   75.8753  217.6303 H   0  0  0  0  0  0  0  0  0  0  0  0
  143.6606   77.0825  218.9186 H   0  0  0  0  0  0  0  0  0  0  0  0
  141.6366   74.7918  218.4780 H   0  0  0  0  0  0  0  0  0  0  0  0
  141.9439   72.6865  219.2719 H   0  0  0  0  0  0  0  0  0  0  0  0
  143.3858   70.9958  220.2579 H   0  0  0  0  0  0  0  0  0  0  0  0
  145.5453   71.6737  221.3138 H   0  0  0  0  0  0  0  0  0  0  0  0
  144.6963   75.7797  220.3209 H   0  0  0  0  0  0  0  0  0  0  0  0
  139.0469   69.8066  222.5362 H   0  0  0  0  0  0  0  0  0  0  0  0
  138.7567   68.5297  224.6714 H   0  0  0  0  0  0  0  0  0  0  0  0
  139.1409   68.3631  227.0365 H   0  0  0  0  0  0  0  0  0  0  0  0
  140.0937   69.3101  229.1346 H   0  0  0  0  0  0  0  0  0  0  0  0
  141.3064   71.4772  229.1245 H   0  0  0  0  0  0  0  0  0  0  0  0
  141.5607   72.7000  226.9666 H   0  0  0  0  0  0  0  0  0  0  0  0
  1  2  2  0
  2  3  1  0
  3  4  1  0
  4  5  1  0
  5  6  2  0
  5  7  1  0
  7  8  1  0
  8  9  1  0
  9 10  1  0
 10 11  1  0
 11 12  1  0
 12 13  1  0
 13 14  2  0
 14 15  1  0
 15 16  2  0
 16 17  1  0
 17 18  1  0
 17 19  2  0
  2 20  1  0
 20 21  2  0
 21 22  1  0
 22 23  2  0
 23 24  1  0
 24 25  2  0
 25 26  1  0
 26 27  2  0
 27 28  1  0
 28 29  2  0
 12  7  1  0
 19 13  1  0
 29 20  1  0
 28 23  1  0
  3 30  1  0
  4 31  1  0
  4 32  1  0
  8 33  1  0
  8 34  1  0
  9 35  1  0
  9 36  1  0
 10 37  1  0
 10 38  1  0
 11 39  1  0
 11 40  1  0
 12 41  1  6
 14 42  1  0
 15 43  1  0
 16 44  1  0
 19 45  1  0
 21 46  1  0
 22 47  1  0
 24 48  1  0
 25 49  1  0
 26 50  1  0
 27 51  1  0
M  END
>  <smiles>  (79) 
O=C(NCC(=O)N1CCCCC1c1cccc(F)c1)c1ccc2ccccc2n1

>  <score_type>  (79) 
oracle

>  <origin>  (79) 
autodockgpu

>  <m_score__min__energy>  (79) 
-8.8300000000000001

>  <m_primary>  (79) 
energy

>  <rmsd>  (79) 
2.1383978316958636

>  <m_score__min__rmsd>  (79) 
2.1383978316958636

>  <meeko>  (79) 
{"free_energy": -8.33, "intermolecular_energy": -9.82, "internal_energy": -1.91, "cluster_size": 30, "cluster_id": 3, "rank_in_cluster": 18}

>  <energy>  (79) 
-8.34

>  <cluster_rmsd>  (79) 
1.06

>  <cluster>  (79) 
3

$$$$

     RDKit          3D

 51 54  0  0  0  0  0  0  0  0999 V2000
  140.9630   71.5850  221.2940 O   0  0  0  0  0  0  0  0  0  0  0  0
  140.4060   72.1670  222.2820 C   0  0  0  0  0  0  0  0  0  0  0  0
  139.9670   73.5230  222.1850 N   0  0  0  0  0  0  0  0  0  0  0  0
  140.1330   74.2910  220.9710 C   0  0  0  0  0  0  0  0  0  0  0  0
  141.0810   75.4300  221.1730 C   0  0  0  0  0  0  0  0  0  0  0  0
  141.4320   75.7320  222.3430 O   0  0  0  0  0  0  0  0  0  0  0  0
  141.5350   76.1150  220.0140 N   0  0  0  0  0  0  0  0  0  0  0  0
  141.2330   77.5120  219.7500 C   0  0  0  0  0  0  0  0  0  0  0  0
  140.9450   77.6810  218.2730 C   0  0  0  0  0  0  0  0  0  0  0  0
  142.0460   77.1390  217.4080 C   0  0  0  0  0  0  0  0  0  0  0  0
  143.0930   76.3950  218.2350 C   0  0  0  0  0  0  0  0  0  0  0  0
  142.3300   75.3810  219.0640 C   0  0  1  0  0  0  0  0  0  0  0  0
  143.2100   74.3530  219.6450 C   0  0  0  0  0  0  0  0  0  0  0  0
  142.9610   72.9990  219.5990 C   0  0  0  0  0  0  0  0  0  0  0  0
  143.7710   72.0410  220.1350 C   0  0  0  0  0  0  0  0  0  0  0  0
  144.9300   72.4240  220.7780 C   0  0  0  0  0  0  0  0  0  0  0  0
  145.2290   73.7620  220.8540 C   0  0  0  0  0  0  0  0  0  0  0  0
  146.3820   74.1240  221.4960 F   0  0  0  0  0  0  0  0  0  0  0  0
  144.3890   74.7260  220.3010 C   0  0  0  0  0  0  0  0  0  0  0  0
  140.2070   71.4430  223.5440 C   0  0  0  0  0  0  0  0  0  0  0  0
  139.4960   70.2630  223.5410 C   0  0  0  0  0  0  0  0  0  0  0  0
  139.3040   69.5730  224.7340 C   0  0  0  0  0  0  0  0  0  0  0  0
  139.8400   70.0990  225.8990 C   0  0  0  0  0  0  0  0  0  0  0  0
  139.6630   69.4310  227.0920 C   0  0  0  0  0  0  0  0  0  0  0  0
  140.2060   69.9690  228.2640 C   0  0  0  0  0  0  0  0  0  0  0  0
  140.9160   71.1530  228.2570 C   0  0  0  0  0  0  0  0  0  0  0  0
  141.0820   71.8050  227.0450 C   0  0  0  0  0  0  0  0  0  0  0  0
  140.5550   71.2930  225.8820 C   0  0  0  0  0  0  0  0  0  0  0  0
  140.7140   71.9280  224.6960 N   0  0  0  0  0  0  0  0  0  0  0  0
  139.5120   73.9380  223.0520 H   0  0  0  0  0  0  0  0  0  0  0  0
  140.5264   73.6332  220.1820 H   0  0  0  0  0  0  0  0  0  0  0  0
  139.1538   74.7015  220.6836 H   0  0  0  0  0  0  0  0  0  0  0  0
  140.3526   77.8164  220.3350 H   0  0  0  0  0  0  0  0  0  0  0  0
  142.0900   78.1392  220.0367 H   0  0  0  0  0  0  0  0  0  0  0  0
  140.0127   77.1493  218.0321 H   0  0  0  0  0  0  0  0  0  0  0  0
  140.8594   78.7587  218.0698 H   0  0  0  0  0  0  0  0  0  0  0  0
  141.6135   76.4457  216.6716 H   0  0  0  0  0  0  0  0  0  0  0  0
  142.5394   77.9849  216.9069 H   0  0  0  0  0  0  0  0  0  0  0  0
  143.8103   75.8860  217.5744 H   0  0  0  0  0  0  0  0  0  0  0  0
  143.6670   77.0845  218.8714 H   0  0  0  0  0  0  0  0  0  0  0  0
  141.6507   74.7860  218.4359 H   0  0  0  0  0  0  0  0  0  0  0  0
  142.0425   72.6661  219.0935 H   0  0  0  0  0  0  0  0  0  0  0  0
  143.5035   70.9770  220.0555 H   0  0  0  0  0  0  0  0  0  0  0  0
  145.6007   71.6729  221.2207 H   0  0  0  0  0  0  0  0  0  0  0  0
  144.6547   75.7904  220.3806 H   0  0  0  0  0  0  0  0  0  0  0  0
  139.0825   69.8686  222.6011 H   0  0  0  0  0  0  0  0  0  0  0  0
  138.7386   68.6296  224.7522 H   0  0  0  0  0  0  0  0  0  0  0  0
  139.1012   68.4857  227.1221 H   0  0  0  0  0  0  0  0  0  0  0  0
  140.0635   69.4350  229.2151 H   0  0  0  0  0  0  0  0  0  0  0  0
  141.3373   71.5665  229.1852 H   0  0  0  0  0  0  0  0  0  0  0  0
  141.6455   72.7492  227.0126 H   0  0  0  0  0  0  0  0  0  0  0  0
  1  2  2  0
  2  3  1  0
  3  4  1  0
  4  5  1  0
  5  6  2  0
  5  7  1  0
  7  8  1  0
  8  9  1  0
  9 10  1  0
 10 11  1  0
 11 12  1  0
 12 13  1  0
 13 14  2  0
 14 15  1  0
 15 16  2  0
 16 17  1  0
 17 18  1  0
 17 19  2  0
  2 20  1  0
 20 21  2  0
 21 22  1  0
 22 23  2  0
 23 24  1  0
 24 25  2  0
 25 26  1  0
 26 27  2  0
 27 28  1  0
 28 29  2  0
 12  7  1  0
 19 13  1  0
 29 20  1  0
 28 23  1  0
  3 30  1  0
  4 31  1  0
  4 32  1  0
  8 33  1  0
  8 34  1  0
  9 35  1  0
  9 36  1  0
 10 37  1  0
 10 38  1  0
 11 39  1  0
 11 40  1  0
 12 41  1  6
 14 42  1  0
 15 43  1  0
 16 44  1  0
 19 45  1  0
 21 46  1  0
 22 47  1  0
 24 48  1  0
 25 49  1  0
 26 50  1  0
 27 51  1  0
M  END
>  <smiles>  (80) 
O=C(NCC(=O)N1CCCCC1c1cccc(F)c1)c1ccc2ccccc2n1

>  <score_type>  (80) 
oracle

>  <origin>  (80) 
autodockgpu

>  <m_score__min__energy>  (80) 
-8.8300000000000001

>  <m_primary>  (80) 
energy

>  <rmsd>  (80) 
2.170508890392679

>  <m_score__min__rmsd>  (80) 
2.170508890392679

>  <meeko>  (80) 
{"free_energy": -8.35, "intermolecular_energy": -9.85, "internal_energy": -1.86, "cluster_size": 30, "cluster_id": 3, "rank_in_cluster": 9}

>  <energy>  (80) 
-8.34

>  <cluster_rmsd>  (80) 
1.24

>  <cluster>  (80) 
3

$$$$

     RDKit          3D

 51 54  0  0  0  0  0  0  0  0999 V2000
  140.7520   71.3850  221.2160 O   0  0  0  0  0  0  0  0  0  0  0  0
  140.3940   72.0370  222.2520 C   0  0  0  0  0  0  0  0  0  0  0  0
  140.1390   73.4410  222.1850 N   0  0  0  0  0  0  0  0  0  0  0  0
  140.2750   74.1810  220.9500 C   0  0  0  0  0  0  0  0  0  0  0  0
  140.9930   75.4750  221.1660 C   0  0  0  0  0  0  0  0  0  0  0  0
  141.1390   75.9030  222.3400 O   0  0  0  0  0  0  0  0  0  0  0  0
  141.4740   76.1540  220.0150 N   0  0  0  0  0  0  0  0  0  0  0  0
  141.1890   77.5540  219.7440 C   0  0  0  0  0  0  0  0  0  0  0  0
  140.9310   77.7230  218.2620 C   0  0  0  0  0  0  0  0  0  0  0  0
  142.0440   77.1700  217.4190 C   0  0  0  0  0  0  0  0  0  0  0  0
  143.0680   76.4190  218.2670 C   0  0  0  0  0  0  0  0  0  0  0  0
  142.2820   75.4120  219.0820 C   0  0  1  0  0  0  0  0  0  0  0  0
  143.1420   74.3780  219.6810 C   0  0  0  0  0  0  0  0  0  0  0  0
  142.8490   73.0320  219.6920 C   0  0  0  0  0  0  0  0  0  0  0  0
  143.6400   72.0690  220.2450 C   0  0  0  0  0  0  0  0  0  0  0  0
  144.8260   72.4370  220.8460 C   0  0  0  0  0  0  0  0  0  0  0  0
  145.1700   73.7660  220.8650 C   0  0  0  0  0  0  0  0  0  0  0  0
  146.3490   74.1130  221.4650 F   0  0  0  0  0  0  0  0  0  0  0  0
  144.3480   74.7360  220.2950 C   0  0  0  0  0  0  0  0  0  0  0  0
  140.2380   71.3450  223.5380 C   0  0  0  0  0  0  0  0  0  0  0  0
  139.6050   70.1220  223.5750 C   0  0  0  0  0  0  0  0  0  0  0  0
  139.4540   69.4630  224.7900 C   0  0  0  0  0  0  0  0  0  0  0  0
  139.9500   70.0610  225.9370 C   0  0  0  0  0  0  0  0  0  0  0  0
  139.8120   69.4250  227.1520 C   0  0  0  0  0  0  0  0  0  0  0  0
  140.3150   70.0370  228.3050 C   0  0  0  0  0  0  0  0  0  0  0  0
  140.9480   71.2640  228.2590 C   0  0  0  0  0  0  0  0  0  0  0  0
  141.0750   71.8830  227.0250 C   0  0  0  0  0  0  0  0  0  0  0  0
  140.5870   71.2980  225.8800 C   0  0  0  0  0  0  0  0  0  0  0  0
  140.7090   71.9020  224.6730 N   0  0  0  0  0  0  0  0  0  0  0  0
  139.8450   73.9140  223.0910 H   0  0  0  0  0  0  0  0  0  0  0  0
  140.8415   73.5733  220.2291 H   0  0  0  0  0  0  0  0  0  0  0  0
  139.2682   74.4033  220.5667 H   0  0  0  0  0  0  0  0  0  0  0  0
  140.3002   77.8667  220.3117 H   0  0  0  0  0  0  0  0  0  0  0  0
  142.0454   78.1744  220.0467 H   0  0  0  0  0  0  0  0  0  0  0  0
  139.9989   77.1990  218.0039 H   0  0  0  0  0  0  0  0  0  0  0  0
  140.8586   78.8010  218.0556 H   0  0  0  0  0  0  0  0  0  0  0  0
  141.6199   76.4791  216.6755 H   0  0  0  0  0  0  0  0  0  0  0  0
  142.5541   78.0107  216.9260 H   0  0  0  0  0  0  0  0  0  0  0  0
  143.7941   75.9037  217.6211 H   0  0  0  0  0  0  0  0  0  0  0  0
  143.6342   77.1051  218.9140 H   0  0  0  0  0  0  0  0  0  0  0  0
  141.6109   74.8206  218.4418 H   0  0  0  0  0  0  0  0  0  0  0  0
  141.9086   72.7108  219.2204 H   0  0  0  0  0  0  0  0  0  0  0  0
  143.3364   71.0122  220.2124 H   0  0  0  0  0  0  0  0  0  0  0  0
  145.4828   71.6809  221.3008 H   0  0  0  0  0  0  0  0  0  0  0  0
  144.6497   75.7933  220.3278 H   0  0  0  0  0  0  0  0  0  0  0  0
  139.2212   69.6695  222.6487 H   0  0  0  0  0  0  0  0  0  0  0  0
  138.9507   68.4862  224.8395 H   0  0  0  0  0  0  0  0  0  0  0  0
  139.3120   68.4472  227.2143 H   0  0  0  0  0  0  0  0  0  0  0  0
  140.2036   69.5278  229.2737 H   0  0  0  0  0  0  0  0  0  0  0  0
  141.3390   71.7351  229.1729 H   0  0  0  0  0  0  0  0  0  0  0  0
  141.5755   72.8604  226.9605 H   0  0  0  0  0  0  0  0  0  0  0  0
  1  2  2  0
  2  3  1  0
  3  4  1  0
  4  5  1  0
  5  6  2  0
  5  7  1  0
  7  8  1  0
  8  9  1  0
  9 10  1  0
 10 11  1  0
 11 12  1  0
 12 13  1  0
 13 14  2  0
 14 15  1  0
 15 16  2  0
 16 17  1  0
 17 18  1  0
 17 19  2  0
  2 20  1  0
 20 21  2  0
 21 22  1  0
 22 23  2  0
 23 24  1  0
 24 25  2  0
 25 26  1  0
 26 27  2  0
 27 28  1  0
 28 29  2  0
 12  7  1  0
 19 13  1  0
 29 20  1  0
 28 23  1  0
  3 30  1  0
  4 31  1  0
  4 32  1  0
  8 33  1  0
  8 34  1  0
  9 35  1  0
  9 36  1  0
 10 37  1  0
 10 38  1  0
 11 39  1  0
 11 40  1  0
 12 41  1  6
 14 42  1  0
 15 43  1  0
 16 44  1  0
 19 45  1  0
 21 46  1  0
 22 47  1  0
 24 48  1  0
 25 49  1  0
 26 50  1  0
 27 51  1  0
M  END
>  <smiles>  (81) 
O=C(NCC(=O)N1CCCCC1c1cccc(F)c1)c1ccc2ccccc2n1

>  <score_type>  (81) 
oracle

>  <origin>  (81) 
autodockgpu

>  <m_score__min__energy>  (81) 
-8.8300000000000001

>  <m_primary>  (81) 
energy

>  <rmsd>  (81) 
2.1691601222451355

>  <m_score__min__rmsd>  (81) 
2.1691601222451355

>  <meeko>  (81) 
{"free_energy": -8.35, "intermolecular_energy": -9.84, "internal_energy": -1.95, "cluster_size": 30, "cluster_id": 3, "rank_in_cluster": 12}

>  <energy>  (81) 
-8.34

>  <cluster_rmsd>  (81) 
1.09

>  <cluster>  (81) 
3

$$$$

     RDKit          3D

 51 54  0  0  0  0  0  0  0  0999 V2000
  140.6370   76.7040  218.1960 O   0  0  0  0  0  0  0  0  0  0  0  0
  141.8010   76.8000  218.7070 C   0  0  0  0  0  0  0  0  0  0  0  0
  142.2980   78.0550  219.1730 N   0  0  0  0  0  0  0  0  0  0  0  0
  141.5100   79.2650  219.0870 C   0  0  0  0  0  0  0  0  0  0  0  0
  140.4680   79.3130  220.1590 C   0  0  0  0  0  0  0  0  0  0  0  0
  139.2720   79.0570  219.8600 O   0  0  0  0  0  0  0  0  0  0  0  0
  140.8960   79.6500  221.4710 N   0  0  0  0  0  0  0  0  0  0  0  0
  140.9840   81.0210  221.9470 C   0  0  0  0  0  0  0  0  0  0  0  0
  142.2290   81.1650  222.7970 C   0  0  0  0  0  0  0  0  0  0  0  0
  142.2910   80.1480  223.9000 C   0  0  0  0  0  0  0  0  0  0  0  0
  141.1720   79.1160  223.7740 C   0  0  0  0  0  0  0  0  0  0  0  0
  141.2560   78.5770  222.3600 C   0  0  1  0  0  0  0  0  0  0  0  0
  140.4870   77.3340  222.1860 C   0  0  0  0  0  0  0  0  0  0  0  0
  139.1290   77.2220  222.3920 C   0  0  0  0  0  0  0  0  0  0  0  0
  138.4110   76.0740  222.2320 C   0  0  0  0  0  0  0  0  0  0  0  0
  139.0610   74.9230  221.8390 C   0  0  0  0  0  0  0  0  0  0  0  0
  140.4160   74.9750  221.6190 C   0  0  0  0  0  0  0  0  0  0  0  0
  141.0450   73.8240  221.2300 F   0  0  0  0  0  0  0  0  0  0  0  0
  141.1340   76.1570  221.7870 C   0  0  0  0  0  0  0  0  0  0  0  0
  142.6530   75.6090  218.8240 C   0  0  0  0  0  0  0  0  0  0  0  0
  142.4420   74.5420  217.9780 C   0  0  0  0  0  0  0  0  0  0  0  0
  143.2460   73.4120  218.0850 C   0  0  0  0  0  0  0  0  0  0  0  0
  144.2430   73.3940  219.0460 C   0  0  0  0  0  0  0  0  0  0  0  0
  145.0510   72.2840  219.1690 C   0  0  0  0  0  0  0  0  0  0  0  0
  146.0560   72.2730  220.1430 C   0  0  0  0  0  0  0  0  0  0  0  0
  146.2590   73.3470  220.9860 C   0  0  0  0  0  0  0  0  0  0  0  0
  145.4330   74.4520  220.8430 C   0  0  0  0  0  0  0  0  0  0  0  0
  144.4410   74.4810  219.8920 C   0  0  0  0  0  0  0  0  0  0  0  0
  143.6320   75.5590  219.7500 N   0  0  0  0  0  0  0  0  0  0  0  0
  143.2780   78.0540  219.5870 H   0  0  0  0  0  0  0  0  0  0  0  0
  142.1754   80.1342  219.1950 H   0  0  0  0  0  0  0  0  0  0  0  0
  141.0040   79.2808  218.1104 H   0  0  0  0  0  0  0  0  0  0  0  0
  141.0410   81.7070  221.0890 H   0  0  0  0  0  0  0  0  0  0  0  0
  140.0937   81.2664  222.5447 H   0  0  0  0  0  0  0  0  0  0  0  0
  143.1123   81.0418  222.1531 H   0  0  0  0  0  0  0  0  0  0  0  0
  142.2040   82.1618  223.2615 H   0  0  0  0  0  0  0  0  0  0  0  0
  143.2608   79.6308  223.8551 H   0  0  0  0  0  0  0  0  0  0  0  0
  142.1705   80.6721  224.8596 H   0  0  0  0  0  0  0  0  0  0  0  0
  141.3176   78.3039  224.5016 H   0  0  0  0  0  0  0  0  0  0  0  0
  140.1876   79.5633  223.9762 H   0  0  0  0  0  0  0  0  0  0  0  0
  142.2805   78.2593  222.1162 H   0  0  0  0  0  0  0  0  0  0  0  0
  138.5849   78.1241  222.7084 H   0  0  0  0  0  0  0  0  0  0  0  0
  137.3262   76.0660  222.4142 H   0  0  0  0  0  0  0  0  0  0  0  0
  138.5060   73.9828  221.7045 H   0  0  0  0  0  0  0  0  0  0  0  0
  142.2188   76.1663  221.6047 H   0  0  0  0  0  0  0  0  0  0  0  0
  141.6431   74.5836  217.2230 H   0  0  0  0  0  0  0  0  0  0  0  0
  143.0929   72.5497  217.4194 H   0  0  0  0  0  0  0  0  0  0  0  0
  144.9074   71.4161  218.5087 H   0  0  0  0  0  0  0  0  0  0  0  0
  146.7001   71.3865  220.2391 H   0  0  0  0  0  0  0  0  0  0  0  0
  147.0519   73.3271  221.7482 H   0  0  0  0  0  0  0  0  0  0  0  0
  145.5743   75.3209  221.5026 H   0  0  0  0  0  0  0  0  0  0  0  0
  1  2  2  0
  2  3  1  0
  3  4  1  0
  4  5  1  0
  5  6  2  0
  5  7  1  0
  7  8  1  0
  8  9  1  0
  9 10  1  0
 10 11  1  0
 11 12  1  0
 12 13  1  0
 13 14  2  0
 14 15  1  0
 15 16  2  0
 16 17  1  0
 17 18  1  0
 17 19  2  0
  2 20  1  0
 20 21  2  0
 21 22  1  0
 22 23  2  0
 23 24  1  0
 24 25  2  0
 25 26  1  0
 26 27  2  0
 27 28  1  0
 28 29  2  0
 12  7  1  0
 19 13  1  0
 29 20  1  0
 28 23  1  0
  3 30  1  0
  4 31  1  0
  4 32  1  0
  8 33  1  0
  8 34  1  0
  9 35  1  0
  9 36  1  0
 10 37  1  0
 10 38  1  0
 11 39  1  0
 11 40  1  0
 12 41  1  6
 14 42  1  0
 15 43  1  0
 16 44  1  0
 19 45  1  0
 21 46  1  0
 22 47  1  0
 24 48  1  0
 25 49  1  0
 26 50  1  0
 27 51  1  0
M  END
>  <smiles>  (82) 
O=C(NCC(=O)N1CCCCC1c1cccc(F)c1)c1ccc2ccccc2n1

>  <score_type>  (82) 
oracle

>  <origin>  (82) 
autodockgpu

>  <m_score__min__energy>  (82) 
-8.8300000000000001

>  <m_primary>  (82) 
energy

>  <rmsd>  (82) 
7.531731469337676

>  <m_score__min__rmsd>  (82) 
7.531731469337676

>  <meeko>  (82) 
{"free_energy": -7.15, "intermolecular_energy": -8.64, "internal_energy": -2.62, "cluster_size": 3, "cluster_id": 4, "rank_in_cluster": 1}

>  <energy>  (82) 
-8.33

>  <cluster_rmsd>  (82) 
1.27

>  <cluster>  (82) 
3

$$$$

     RDKit          3D

 51 54  0  0  0  0  0  0  0  0999 V2000
  140.7830   71.2980  221.2490 O   0  0  0  0  0  0  0  0  0  0  0  0
  140.4220   71.9700  222.2710 C   0  0  0  0  0  0  0  0  0  0  0  0
  140.2030   73.3780  222.1870 N   0  0  0  0  0  0  0  0  0  0  0  0
  140.3790   74.1030  220.9470 C   0  0  0  0  0  0  0  0  0  0  0  0
  141.0830   75.4030  221.1720 C   0  0  0  0  0  0  0  0  0  0  0  0
  141.2240   75.8260  222.3490 O   0  0  0  0  0  0  0  0  0  0  0  0
  141.5580   76.0940  220.0250 N   0  0  0  0  0  0  0  0  0  0  0  0
  141.1620   77.4550  219.7000 C   0  0  0  0  0  0  0  0  0  0  0  0
  140.9640   77.5620  218.2030 C   0  0  0  0  0  0  0  0  0  0  0  0
  142.1620   77.0920  217.4300 C   0  0  0  0  0  0  0  0  0  0  0  0
  143.2070   76.4600  218.3470 C   0  0  0  0  0  0  0  0  0  0  0  0
  142.4750   75.4060  219.1530 C   0  0  1  0  0  0  0  0  0  0  0  0
  143.3930   74.4700  219.8220 C   0  0  0  0  0  0  0  0  0  0  0  0
  144.5670   74.8390  220.4420 C   0  0  0  0  0  0  0  0  0  0  0  0
  145.4230   73.9780  221.0630 C   0  0  0  0  0  0  0  0  0  0  0  0
  145.1200   72.6320  221.0890 C   0  0  0  0  0  0  0  0  0  0  0  0
  143.9620   72.2060  220.4870 C   0  0  0  0  0  0  0  0  0  0  0  0
  143.6780   70.8690  220.5230 F   0  0  0  0  0  0  0  0  0  0  0  0
  143.1000   73.1010  219.8570 C   0  0  0  0  0  0  0  0  0  0  0  0
  140.2250   71.2950  223.5610 C   0  0  0  0  0  0  0  0  0  0  0  0
  139.5880   70.0740  223.5940 C   0  0  0  0  0  0  0  0  0  0  0  0
  139.3990   69.4300  224.8130 C   0  0  0  0  0  0  0  0  0  0  0  0
  139.8620   70.0420  225.9660 C   0  0  0  0  0  0  0  0  0  0  0  0
  139.6850   69.4220  227.1840 C   0  0  0  0  0  0  0  0  0  0  0  0
  140.1550   70.0460  228.3450 C   0  0  0  0  0  0  0  0  0  0  0  0
  140.7920   71.2710  228.3020 C   0  0  0  0  0  0  0  0  0  0  0  0
  140.9590   71.8750  227.0640 C   0  0  0  0  0  0  0  0  0  0  0  0
  140.5030   71.2760  225.9130 C   0  0  0  0  0  0  0  0  0  0  0  0
  140.6630   71.8640  224.7030 N   0  0  0  0  0  0  0  0  0  0  0  0
  139.9040   73.8670  223.0820 H   0  0  0  0  0  0  0  0  0  0  0  0
  140.9734   73.4890  220.2544 H   0  0  0  0  0  0  0  0  0  0  0  0
  139.3855   74.3150  220.5252 H   0  0  0  0  0  0  0  0  0  0  0  0
  140.2215   77.6994  220.2156 H   0  0  0  0  0  0  0  0  0  0  0  0
  141.9427   78.1587  220.0247 H   0  0  0  0  0  0  0  0  0  0  0  0
  140.0968   76.9487  217.9171 H   0  0  0  0  0  0  0  0  0  0  0  0
  140.8057   78.6234  217.9617 H   0  0  0  0  0  0  0  0  0  0  0  0
  141.8390   76.3462  216.6887 H   0  0  0  0  0  0  0  0  0  0  0  0
  142.6176   77.9630  216.9362 H   0  0  0  0  0  0  0  0  0  0  0  0
  144.0080   75.9975  217.7516 H   0  0  0  0  0  0  0  0  0  0  0  0
  143.6767   77.2110  218.9993 H   0  0  0  0  0  0  0  0  0  0  0  0
  141.8927   74.7404  218.4989 H   0  0  0  0  0  0  0  0  0  0  0  0
  144.8332   75.9063  220.4355 H   0  0  0  0  0  0  0  0  0  0  0  0
  146.3428   74.3515  221.5369 H   0  0  0  0  0  0  0  0  0  0  0  0
  145.7927   71.9148  221.5821 H   0  0  0  0  0  0  0  0  0  0  0  0
  142.1802   72.7287  219.3824 H   0  0  0  0  0  0  0  0  0  0  0  0
  139.2309   69.6109  222.6623 H   0  0  0  0  0  0  0  0  0  0  0  0
  138.8922   68.4548  224.8599 H   0  0  0  0  0  0  0  0  0  0  0  0
  139.1795   68.4468  227.2429 H   0  0  0  0  0  0  0  0  0  0  0  0
  140.0137   69.5487  229.3160 H   0  0  0  0  0  0  0  0  0  0  0  0
  141.1559   71.7531  229.2214 H   0  0  0  0  0  0  0  0  0  0  0  0
  141.4649   72.8498  227.0021 H   0  0  0  0  0  0  0  0  0  0  0  0
  1  2  2  0
  2  3  1  0
  3  4  1  0
  4  5  1  0
  5  6  2  0
  5  7  1  0
  7  8  1  0
  8  9  1  0
  9 10  1  0
 10 11  1  0
 11 12  1  0
 12 13  1  0
 13 14  2  0
 14 15  1  0
 15 16  2  0
 16 17  1  0
 17 18  1  0
 17 19  2  0
  2 20  1  0
 20 21  2  0
 21 22  1  0
 22 23  2  0
 23 24  1  0
 24 25  2  0
 25 26  1  0
 26 27  2  0
 27 28  1  0
 28 29  2  0
 12  7  1  0
 19 13  1  0
 29 20  1  0
 28 23  1  0
  3 30  1  0
  4 31  1  0
  4 32  1  0
  8 33  1  0
  8 34  1  0
  9 35  1  0
  9 36  1  0
 10 37  1  0
 10 38  1  0
 11 39  1  0
 11 40  1  0
 12 41  1  6
 14 42  1  0
 15 43  1  0
 16 44  1  0
 19 45  1  0
 21 46  1  0
 22 47  1  0
 24 48  1  0
 25 49  1  0
 26 50  1  0
 27 51  1  0
M  END
>  <smiles>  (83) 
O=C(NCC(=O)N1CCCCC1c1cccc(F)c1)c1ccc2ccccc2n1

>  <score_type>  (83) 
oracle

>  <origin>  (83) 
autodockgpu

>  <m_score__min__energy>  (83) 
-8.8300000000000001

>  <m_primary>  (83) 
energy

>  <rmsd>  (83) 
2.1695149996040803

>  <m_score__min__rmsd>  (83) 
2.1695149996040803

>  <meeko>  (83) 
{"free_energy": -8.27, "intermolecular_energy": -9.76, "internal_energy": -1.99, "cluster_size": 30, "cluster_id": 3, "rank_in_cluster": 24}

>  <energy>  (83) 
-8.33

>  <cluster_rmsd>  (83) 
1.24

>  <cluster>  (83) 
3

$$$$

     RDKit          3D

 51 54  0  0  0  0  0  0  0  0999 V2000
  140.7760   71.5010  221.2850 O   0  0  0  0  0  0  0  0  0  0  0  0
  140.3280   72.0910  222.3240 C   0  0  0  0  0  0  0  0  0  0  0  0
  139.9330   73.4620  222.2780 N   0  0  0  0  0  0  0  0  0  0  0  0
  140.0220   74.2390  221.0610 C   0  0  0  0  0  0  0  0  0  0  0  0
  141.0100   75.3530  221.1970 C   0  0  0  0  0  0  0  0  0  0  0  0
  141.4500   75.6430  222.3400 O   0  0  0  0  0  0  0  0  0  0  0  0
  141.4000   76.0290  220.0100 N   0  0  0  0  0  0  0  0  0  0  0  0
  140.9300   77.3610  219.6670 C   0  0  0  0  0  0  0  0  0  0  0  0
  140.6560   77.4160  218.1780 C   0  0  0  0  0  0  0  0  0  0  0  0
  141.8340   76.9730  217.3610 C   0  0  0  0  0  0  0  0  0  0  0  0
  142.9480   76.4110  218.2420 C   0  0  0  0  0  0  0  0  0  0  0  0
  142.3010   75.3530  219.1130 C   0  0  1  0  0  0  0  0  0  0  0  0
  143.2900   74.4760  219.7610 C   0  0  0  0  0  0  0  0  0  0  0  0
  144.4970   74.9040  220.2690 C   0  0  0  0  0  0  0  0  0  0  0  0
  145.4170   74.0980  220.8710 C   0  0  0  0  0  0  0  0  0  0  0  0
  145.1520   72.7500  220.9940 C   0  0  0  0  0  0  0  0  0  0  0  0
  143.9630   72.2660  220.5060 C   0  0  0  0  0  0  0  0  0  0  0  0
  143.7160   70.9270  220.6360 F   0  0  0  0  0  0  0  0  0  0  0  0
  143.0340   73.1060  219.8940 C   0  0  0  0  0  0  0  0  0  0  0  0
  140.2120   71.3590  223.5920 C   0  0  0  0  0  0  0  0  0  0  0  0
  139.6160   70.1160  223.6030 C   0  0  0  0  0  0  0  0  0  0  0  0
  139.5040   69.4190  224.8010 C   0  0  0  0  0  0  0  0  0  0  0  0
  140.0000   69.9990  225.9570 C   0  0  0  0  0  0  0  0  0  0  0  0
  139.9000   69.3250  227.1550 C   0  0  0  0  0  0  0  0  0  0  0  0
  140.4020   69.9190  228.3180 C   0  0  0  0  0  0  0  0  0  0  0  0
  140.9970   71.1650  228.2970 C   0  0  0  0  0  0  0  0  0  0  0  0
  141.0870   71.8230  227.0800 C   0  0  0  0  0  0  0  0  0  0  0  0
  140.5990   71.2560  225.9260 C   0  0  0  0  0  0  0  0  0  0  0  0
  140.6840   71.8960  224.7350 N   0  0  0  0  0  0  0  0  0  0  0  0
  139.5700   73.8830  223.1840 H   0  0  0  0  0  0  0  0  0  0  0  0
  140.3361   73.5804  220.2379 H   0  0  0  0  0  0  0  0  0  0  0  0
  139.0335   74.6756  220.8555 H   0  0  0  0  0  0  0  0  0  0  0  0
  140.0054   77.5804  220.2210 H   0  0  0  0  0  0  0  0  0  0  0  0
  141.6942   78.1061  219.9333 H   0  0  0  0  0  0  0  0  0  0  0  0
  139.8027   76.7597  217.9517 H   0  0  0  0  0  0  0  0  0  0  0  0
  140.4415   78.4625  217.9157 H   0  0  0  0  0  0  0  0  0  0  0  0
  141.5076   76.1933  216.6570 H   0  0  0  0  0  0  0  0  0  0  0  0
  142.2284   77.8473  216.8225 H   0  0  0  0  0  0  0  0  0  0  0  0
  143.7374   75.9634  217.6203 H   0  0  0  0  0  0  0  0  0  0  0  0
  143.4172   77.1995  218.8488 H   0  0  0  0  0  0  0  0  0  0  0  0
  141.7153   74.6449  218.5083 H   0  0  0  0  0  0  0  0  0  0  0  0
  144.7358   75.9743  220.1825 H   0  0  0  0  0  0  0  0  0  0  0  0
  146.3590   74.5175  221.2539 H   0  0  0  0  0  0  0  0  0  0  0  0
  145.8779   72.0766  221.4731 H   0  0  0  0  0  0  0  0  0  0  0  0
  142.0908   72.6885  219.5119 H   0  0  0  0  0  0  0  0  0  0  0  0
  139.2314   69.6783  222.6700 H   0  0  0  0  0  0  0  0  0  0  0  0
  139.0308   68.4264  224.8301 H   0  0  0  0  0  0  0  0  0  0  0  0
  139.4307   68.3310  227.1963 H   0  0  0  0  0  0  0  0  0  0  0  0
  140.3207   69.3798  229.2733 H   0  0  0  0  0  0  0  0  0  0  0  0
  141.3878   71.6217  229.2182 H   0  0  0  0  0  0  0  0  0  0  0  0
  141.5572   72.8165  227.0367 H   0  0  0  0  0  0  0  0  0  0  0  0
  1  2  2  0
  2  3  1  0
  3  4  1  0
  4  5  1  0
  5  6  2  0
  5  7  1  0
  7  8  1  0
  8  9  1  0
  9 10  1  0
 10 11  1  0
 11 12  1  0
 12 13  1  0
 13 14  2  0
 14 15  1  0
 15 16  2  0
 16 17  1  0
 17 18  1  0
 17 19  2  0
  2 20  1  0
 20 21  2  0
 21 22  1  0
 22 23  2  0
 23 24  1  0
 24 25  2  0
 25 26  1  0
 26 27  2  0
 27 28  1  0
 28 29  2  0
 12  7  1  0
 19 13  1  0
 29 20  1  0
 28 23  1  0
  3 30  1  0
  4 31  1  0
  4 32  1  0
  8 33  1  0
  8 34  1  0
  9 35  1  0
  9 36  1  0
 10 37  1  0
 10 38  1  0
 11 39  1  0
 11 40  1  0
 12 41  1  6
 14 42  1  0
 15 43  1  0
 16 44  1  0
 19 45  1  0
 21 46  1  0
 22 47  1  0
 24 48  1  0
 25 49  1  0
 26 50  1  0
 27 51  1  0
M  END
>  <smiles>  (84) 
O=C(NCC(=O)N1CCCCC1c1cccc(F)c1)c1ccc2ccccc2n1

>  <score_type>  (84) 
oracle

>  <origin>  (84) 
autodockgpu

>  <m_score__min__energy>  (84) 
-8.8300000000000001

>  <m_primary>  (84) 
energy

>  <rmsd>  (84) 
2.044316551561599

>  <m_score__min__rmsd>  (84) 
2.044316551561599

>  <meeko>  (84) 
{"free_energy": -8.32, "intermolecular_energy": -9.81, "internal_energy": -1.91, "cluster_size": 30, "cluster_id": 3, "rank_in_cluster": 20}

>  <energy>  (84) 
-8.32

>  <cluster_rmsd>  (84) 
1.27

>  <cluster>  (84) 
3

$$$$

     RDKit          3D

 51 54  0  0  0  0  0  0  0  0999 V2000
  138.7860   70.9630  221.5810 O   0  0  0  0  0  0  0  0  0  0  0  0
  139.2560   71.5590  222.6060 C   0  0  0  0  0  0  0  0  0  0  0  0
  139.5390   72.9580  222.5780 N   0  0  0  0  0  0  0  0  0  0  0  0
  139.3080   73.7580  221.3950 C   0  0  0  0  0  0  0  0  0  0  0  0
  139.0040   75.1790  221.7480 C   0  0  0  0  0  0  0  0  0  0  0  0
  139.6100   75.7100  222.7150 O   0  0  0  0  0  0  0  0  0  0  0  0
  138.0340   75.8550  220.9600 N   0  0  0  0  0  0  0  0  0  0  0  0
  138.2460   76.1930  219.5620 C   0  0  0  0  0  0  0  0  0  0  0  0
  137.6690   77.5680  219.2980 C   0  0  0  0  0  0  0  0  0  0  0  0
  136.2330   77.6790  219.7240 C   0  0  0  0  0  0  0  0  0  0  0  0
  135.7750   76.4320  220.4790 C   0  0  0  0  0  0  0  0  0  0  0  0
  136.7880   76.2150  221.5850 C   0  0  1  0  0  0  0  0  0  0  0  0
  136.3080   75.2760  222.6120 C   0  0  0  0  0  0  0  0  0  0  0  0
  136.2040   73.9140  222.4350 C   0  0  0  0  0  0  0  0  0  0  0  0
  135.7590   73.0380  223.3810 C   0  0  0  0  0  0  0  0  0  0  0  0
  135.3760   73.5200  224.6150 C   0  0  0  0  0  0  0  0  0  0  0  0
  135.4580   74.8710  224.8490 C   0  0  0  0  0  0  0  0  0  0  0  0
  135.0740   75.3310  226.0780 F   0  0  0  0  0  0  0  0  0  0  0  0
  135.9150   75.7500  223.8690 C   0  0  0  0  0  0  0  0  0  0  0  0
  139.5140   70.8060  223.8400 C   0  0  0  0  0  0  0  0  0  0  0  0
  139.2000   69.4650  223.8910 C   0  0  0  0  0  0  0  0  0  0  0  0
  139.4420   68.7470  225.0580 C   0  0  0  0  0  0  0  0  0  0  0  0
  139.9960   69.4070  226.1420 C   0  0  0  0  0  0  0  0  0  0  0  0
  140.2450   68.7140  227.3070 C   0  0  0  0  0  0  0  0  0  0  0  0
  140.8050   69.3880  228.3980 C   0  0  0  0  0  0  0  0  0  0  0  0
  141.1150   70.7330  228.3380 C   0  0  0  0  0  0  0  0  0  0  0  0
  140.8560   71.4080  227.1550 C   0  0  0  0  0  0  0  0  0  0  0  0
  140.3060   70.7620  226.0720 C   0  0  0  0  0  0  0  0  0  0  0  0
  140.0520   71.4190  224.9140 N   0  0  0  0  0  0  0  0  0  0  0  0
  139.9290   73.3830  223.4710 H   0  0  0  0  0  0  0  0  0  0  0  0
  140.2081   73.7309  220.7633 H   0  0  0  0  0  0  0  0  0  0  0  0
  138.4423   73.3416  220.8592 H   0  0  0  0  0  0  0  0  0  0  0  0
  139.3238   76.1961  219.3420 H   0  0  0  0  0  0  0  0  0  0  0  0
  137.7503   75.4506  218.9193 H   0  0  0  0  0  0  0  0  0  0  0  0
  138.2603   78.3114  219.8527 H   0  0  0  0  0  0  0  0  0  0  0  0
  137.7113   77.7464  218.2134 H   0  0  0  0  0  0  0  0  0  0  0  0
  136.1214   78.5551  220.3798 H   0  0  0  0  0  0  0  0  0  0  0  0
  135.6124   77.7837  218.8218 H   0  0  0  0  0  0  0  0  0  0  0  0
  134.7730   76.5898  220.9046 H   0  0  0  0  0  0  0  0  0  0  0  0
  135.7137   75.5587  219.8130 H   0  0  0  0  0  0  0  0  0  0  0  0
  136.9479   77.1374  222.1625 H   0  0  0  0  0  0  0  0  0  0  0  0
  136.5016   73.5026  221.4592 H   0  0  0  0  0  0  0  0  0  0  0  0
  135.7063   71.9612  223.1625 H   0  0  0  0  0  0  0  0  0  0  0  0
  135.0122   72.8363  225.3962 H   0  0  0  0  0  0  0  0  0  0  0  0
  135.9674   76.8272  224.0855 H   0  0  0  0  0  0  0  0  0  0  0  0
  138.7609   68.9656  223.0148 H   0  0  0  0  0  0  0  0  0  0  0  0
  139.1980   67.6761  225.1183 H   0  0  0  0  0  0  0  0  0  0  0  0
  140.0061   67.6426  227.3785 H   0  0  0  0  0  0  0  0  0  0  0  0
  141.0034   68.8330  229.3268 H   0  0  0  0  0  0  0  0  0  0  0  0
  141.5540   71.2525  229.2025 H   0  0  0  0  0  0  0  0  0  0  0  0
  141.0945   72.4793  227.0810 H   0  0  0  0  0  0  0  0  0  0  0  0
  1  2  2  0
  2  3  1  0
  3  4  1  0
  4  5  1  0
  5  6  2  0
  5  7  1  0
  7  8  1  0
  8  9  1  0
  9 10  1  0
 10 11  1  0
 11 12  1  0
 12 13  1  0
 13 14  2  0
 14 15  1  0
 15 16  2  0
 16 17  1  0
 17 18  1  0
 17 19  2  0
  2 20  1  0
 20 21  2  0
 21 22  1  0
 22 23  2  0
 23 24  1  0
 24 25  2  0
 25 26  1  0
 26 27  2  0
 27 28  1  0
 28 29  2  0
 12  7  1  0
 19 13  1  0
 29 20  1  0
 28 23  1  0
  3 30  1  0
  4 31  1  0
  4 32  1  0
  8 33  1  0
  8 34  1  0
  9 35  1  0
  9 36  1  0
 10 37  1  0
 10 38  1  0
 11 39  1  0
 11 40  1  0
 12 41  1  1
 14 42  1  0
 15 43  1  0
 16 44  1  0
 19 45  1  0
 21 46  1  0
 22 47  1  0
 24 48  1  0
 25 49  1  0
 26 50  1  0
 27 51  1  0
M  END
>  <smiles>  (85) 
O=C(NCC(=O)N1CCCCC1c1cccc(F)c1)c1ccc2ccccc2n1

>  <score_type>  (85) 
oracle

>  <origin>  (85) 
autodockgpu

>  <m_score__min__energy>  (85) 
-8.8300000000000001

>  <m_primary>  (85) 
energy

>  <rmsd>  (85) 
2.8006311659927734

>  <m_score__min__rmsd>  (85) 
2.8006311659927734

>  <meeko>  (85) 
{"free_energy": -6.69, "intermolecular_energy": -8.18, "internal_energy": -2.29, "cluster_size": 1, "cluster_id": 6, "rank_in_cluster": 1}

>  <energy>  (85) 
-8.32

>  <cluster_rmsd>  (85) 
1.06

>  <cluster>  (85) 
3

$$$$

     RDKit          3D

 51 54  0  0  0  0  0  0  0  0999 V2000
  140.7840   71.4050  221.2690 O   0  0  0  0  0  0  0  0  0  0  0  0
  140.3480   72.0330  222.2890 C   0  0  0  0  0  0  0  0  0  0  0  0
  140.0040   73.4170  222.2090 N   0  0  0  0  0  0  0  0  0  0  0  0
  140.1340   74.1630  220.9770 C   0  0  0  0  0  0  0  0  0  0  0  0
  140.9630   75.3930  221.1710 C   0  0  0  0  0  0  0  0  0  0  0  0
  141.2460   75.7610  222.3400 O   0  0  0  0  0  0  0  0  0  0  0  0
  141.3870   76.0840  220.0040 N   0  0  0  0  0  0  0  0  0  0  0  0
  140.9500   77.4320  219.6790 C   0  0  0  0  0  0  0  0  0  0  0  0
  140.7030   77.5210  218.1880 C   0  0  0  0  0  0  0  0  0  0  0  0
  141.8880   77.0710  217.3820 C   0  0  0  0  0  0  0  0  0  0  0  0
  142.9750   76.4710  218.2730 C   0  0  0  0  0  0  0  0  0  0  0  0
  142.2920   75.4090  219.1100 C   0  0  1  0  0  0  0  0  0  0  0  0
  143.2510   74.5000  219.7590 C   0  0  0  0  0  0  0  0  0  0  0  0
  144.4630   74.8920  220.2830 C   0  0  0  0  0  0  0  0  0  0  0  0
  145.3570   74.0560  220.8840 C   0  0  0  0  0  0  0  0  0  0  0  0
  145.0560   72.7140  220.9910 C   0  0  0  0  0  0  0  0  0  0  0  0
  143.8600   72.2660  220.4850 C   0  0  0  0  0  0  0  0  0  0  0  0
  143.5770   70.9320  220.5990 F   0  0  0  0  0  0  0  0  0  0  0  0
  142.9590   73.1350  219.8730 C   0  0  0  0  0  0  0  0  0  0  0  0
  140.1920   71.3340  223.5710 C   0  0  0  0  0  0  0  0  0  0  0  0
  139.5720   70.1040  223.5990 C   0  0  0  0  0  0  0  0  0  0  0  0
  139.4220   69.4370  224.8110 C   0  0  0  0  0  0  0  0  0  0  0  0
  139.9060   70.0360  225.9620 C   0  0  0  0  0  0  0  0  0  0  0  0
  139.7680   69.3920  227.1740 C   0  0  0  0  0  0  0  0  0  0  0  0
  140.2580   70.0030  228.3330 C   0  0  0  0  0  0  0  0  0  0  0  0
  140.8780   71.2370  228.2950 C   0  0  0  0  0  0  0  0  0  0  0  0
  141.0050   71.8640  227.0650 C   0  0  0  0  0  0  0  0  0  0  0  0
  140.5290   71.2790  225.9150 C   0  0  0  0  0  0  0  0  0  0  0  0
  140.6510   71.8890  224.7120 N   0  0  0  0  0  0  0  0  0  0  0  0
  139.6480   73.8710  223.1030 H   0  0  0  0  0  0  0  0  0  0  0  0
  140.6125   73.5241  220.2201 H   0  0  0  0  0  0  0  0  0  0  0  0
  139.1297   74.4695  220.6492 H   0  0  0  0  0  0  0  0  0  0  0  0
  140.0206   77.6598  220.2215 H   0  0  0  0  0  0  0  0  0  0  0  0
  141.7245   78.1559  219.9725 H   0  0  0  0  0  0  0  0  0  0  0  0
  139.8417   76.8856  217.9343 H   0  0  0  0  0  0  0  0  0  0  0  0
  140.5125   78.5762  217.9426 H   0  0  0  0  0  0  0  0  0  0  0  0
  141.5599   76.3113  216.6573 H   0  0  0  0  0  0  0  0  0  0  0  0
  142.3083   77.9473  216.8668 H   0  0  0  0  0  0  0  0  0  0  0  0
  143.7679   76.0209  217.6576 H   0  0  0  0  0  0  0  0  0  0  0  0
  143.4470   77.2385  218.9040 H   0  0  0  0  0  0  0  0  0  0  0  0
  141.7051   74.7250  218.4794 H   0  0  0  0  0  0  0  0  0  0  0  0
  144.7291   75.9569  220.2114 H   0  0  0  0  0  0  0  0  0  0  0  0
  146.3065   74.4469  221.2786 H   0  0  0  0  0  0  0  0  0  0  0  0
  145.7588   72.0173  221.4713 H   0  0  0  0  0  0  0  0  0  0  0  0
  142.0100   72.7455  219.4759 H   0  0  0  0  0  0  0  0  0  0  0  0
  139.1977   69.6518  222.6687 H   0  0  0  0  0  0  0  0  0  0  0  0
  138.9293   68.4545  224.8540 H   0  0  0  0  0  0  0  0  0  0  0  0
  139.2780   68.4087  227.2285 H   0  0  0  0  0  0  0  0  0  0  0  0
  140.1469   69.4881  229.2987 H   0  0  0  0  0  0  0  0  0  0  0  0
  141.2594   71.7079  229.2130 H   0  0  0  0  0  0  0  0  0  0  0  0
  141.4953   72.8470  227.0079 H   0  0  0  0  0  0  0  0  0  0  0  0
  1  2  2  0
  2  3  1  0
  3  4  1  0
  4  5  1  0
  5  6  2  0
  5  7  1  0
  7  8  1  0
  8  9  1  0
  9 10  1  0
 10 11  1  0
 11 12  1  0
 12 13  1  0
 13 14  2  0
 14 15  1  0
 15 16  2  0
 16 17  1  0
 17 18  1  0
 17 19  2  0
  2 20  1  0
 20 21  2  0
 21 22  1  0
 22 23  2  0
 23 24  1  0
 24 25  2  0
 25 26  1  0
 26 27  2  0
 27 28  1  0
 28 29  2  0
 12  7  1  0
 19 13  1  0
 29 20  1  0
 28 23  1  0
  3 30  1  0
  4 31  1  0
  4 32  1  0
  8 33  1  0
  8 34  1  0
  9 35  1  0
  9 36  1  0
 10 37  1  0
 10 38  1  0
 11 39  1  0
 11 40  1  0
 12 41  1  6
 14 42  1  0
 15 43  1  0
 16 44  1  0
 19 45  1  0
 21 46  1  0
 22 47  1  0
 24 48  1  0
 25 49  1  0
 26 50  1  0
 27 51  1  0
M  END
>  <smiles>  (86) 
O=C(NCC(=O)N1CCCCC1c1cccc(F)c1)c1ccc2ccccc2n1

>  <score_type>  (86) 
oracle

>  <origin>  (86) 
autodockgpu

>  <m_score__min__energy>  (86) 
-8.8300000000000001

>  <m_primary>  (86) 
energy

>  <rmsd>  (86) 
2.07117192154393

>  <m_score__min__rmsd>  (86) 
2.07117192154393

>  <meeko>  (86) 
{"free_energy": -8.35, "intermolecular_energy": -9.84, "internal_energy": -1.92, "cluster_size": 30, "cluster_id": 3, "rank_in_cluster": 10}

>  <energy>  (86) 
-8.31

>  <cluster_rmsd>  (86) 
1.1

>  <cluster>  (86) 
3

$$$$

     RDKit          3D

 51 54  0  0  0  0  0  0  0  0999 V2000
  140.7220   71.4920  221.2640 O   0  0  0  0  0  0  0  0  0  0  0  0
  140.2990   72.0850  222.3110 C   0  0  0  0  0  0  0  0  0  0  0  0
  139.9210   73.4610  222.2750 N   0  0  0  0  0  0  0  0  0  0  0  0
  140.0000   74.2400  221.0580 C   0  0  0  0  0  0  0  0  0  0  0  0
  140.9900   75.3540  221.1890 C   0  0  0  0  0  0  0  0  0  0  0  0
  141.4280   75.6520  222.3310 O   0  0  0  0  0  0  0  0  0  0  0  0
  141.3830   76.0210  219.9970 N   0  0  0  0  0  0  0  0  0  0  0  0
  140.9070   77.3470  219.6390 C   0  0  0  0  0  0  0  0  0  0  0  0
  140.6410   77.3860  218.1490 C   0  0  0  0  0  0  0  0  0  0  0  0
  141.8280   76.9430  217.3420 C   0  0  0  0  0  0  0  0  0  0  0  0
  142.9400   76.3970  218.2360 C   0  0  0  0  0  0  0  0  0  0  0  0
  142.2940   75.3430  219.1130 C   0  0  1  0  0  0  0  0  0  0  0  0
  143.2840   74.4780  219.7750 C   0  0  0  0  0  0  0  0  0  0  0  0
  144.4970   74.9140  220.2620 C   0  0  0  0  0  0  0  0  0  0  0  0
  145.4190   74.1180  220.8770 C   0  0  0  0  0  0  0  0  0  0  0  0
  145.1480   72.7750  221.0370 C   0  0  0  0  0  0  0  0  0  0  0  0
  143.9530   72.2850  220.5710 C   0  0  0  0  0  0  0  0  0  0  0  0
  143.7010   70.9510  220.7370 F   0  0  0  0  0  0  0  0  0  0  0  0
  143.0230   73.1130  219.9450 C   0  0  0  0  0  0  0  0  0  0  0  0
  140.1940   71.3510  223.5790 C   0  0  0  0  0  0  0  0  0  0  0  0
  139.6020   70.1070  223.5930 C   0  0  0  0  0  0  0  0  0  0  0  0
  139.5000   69.4080  224.7910 C   0  0  0  0  0  0  0  0  0  0  0  0
  140.0010   69.9890  225.9440 C   0  0  0  0  0  0  0  0  0  0  0  0
  139.9110   69.3130  227.1420 C   0  0  0  0  0  0  0  0  0  0  0  0
  140.4200   69.9070  228.3030 C   0  0  0  0  0  0  0  0  0  0  0  0
  141.0100   71.1550  228.2790 C   0  0  0  0  0  0  0  0  0  0  0  0
  141.0900   71.8150  227.0620 C   0  0  0  0  0  0  0  0  0  0  0  0
  140.5960   71.2470  225.9110 C   0  0  0  0  0  0  0  0  0  0  0  0
  140.6710   71.8890  224.7200 N   0  0  0  0  0  0  0  0  0  0  0  0
  139.5780   73.8850  223.1880 H   0  0  0  0  0  0  0  0  0  0  0  0
  140.3074   73.5828  220.2312 H   0  0  0  0  0  0  0  0  0  0  0  0
  139.0100   74.6768  220.8605 H   0  0  0  0  0  0  0  0  0  0  0  0
  139.9781   77.5661  220.1859 H   0  0  0  0  0  0  0  0  0  0  0  0
  141.6652   78.0992  219.9024 H   0  0  0  0  0  0  0  0  0  0  0  0
  139.7936   76.7216  217.9242 H   0  0  0  0  0  0  0  0  0  0  0  0
  140.4206   78.4284  217.8756 H   0  0  0  0  0  0  0  0  0  0  0  0
  141.5113   76.1545  216.6435 H   0  0  0  0  0  0  0  0  0  0  0  0
  142.2197   77.8145  216.7969 H   0  0  0  0  0  0  0  0  0  0  0  0
  143.7365   75.9487  217.6240 H   0  0  0  0  0  0  0  0  0  0  0  0
  143.3999   77.1944  218.8381 H   0  0  0  0  0  0  0  0  0  0  0  0
  141.7167   74.6255  218.5114 H   0  0  0  0  0  0  0  0  0  0  0  0
  144.7396   75.9807  220.1467 H   0  0  0  0  0  0  0  0  0  0  0  0
  146.3666   74.5420  221.2407 H   0  0  0  0  0  0  0  0  0  0  0  0
  145.8742   72.1103  221.5278 H   0  0  0  0  0  0  0  0  0  0  0  0
  142.0750   72.6901  219.5811 H   0  0  0  0  0  0  0  0  0  0  0  0
  139.2123   69.6692  222.6621 H   0  0  0  0  0  0  0  0  0  0  0  0
  139.0308   68.4136  224.8221 H   0  0  0  0  0  0  0  0  0  0  0  0
  139.4444   68.3178  227.1852 H   0  0  0  0  0  0  0  0  0  0  0  0
  140.3481   69.3660  229.2581 H   0  0  0  0  0  0  0  0  0  0  0  0
  141.4050   71.6123  229.1982 H   0  0  0  0  0  0  0  0  0  0  0  0
  141.5567   72.8101  227.0165 H   0  0  0  0  0  0  0  0  0  0  0  0
  1  2  2  0
  2  3  1  0
  3  4  1  0
  4  5  1  0
  5  6  2  0
  5  7  1  0
  7  8  1  0
  8  9  1  0
  9 10  1  0
 10 11  1  0
 11 12  1  0
 12 13  1  0
 13 14  2  0
 14 15  1  0
 15 16  2  0
 16 17  1  0
 17 18  1  0
 17 19  2  0
  2 20  1  0
 20 21  2  0
 21 22  1  0
 22 23  2  0
 23 24  1  0
 24 25  2  0
 25 26  1  0
 26 27  2  0
 27 28  1  0
 28 29  2  0
 12  7  1  0
 19 13  1  0
 29 20  1  0
 28 23  1  0
  3 30  1  0
  4 31  1  0
  4 32  1  0
  8 33  1  0
  8 34  1  0
  9 35  1  0
  9 36  1  0
 10 37  1  0
 10 38  1  0
 11 39  1  0
 11 40  1  0
 12 41  1  6
 14 42  1  0
 15 43  1  0
 16 44  1  0
 19 45  1  0
 21 46  1  0
 22 47  1  0
 24 48  1  0
 25 49  1  0
 26 50  1  0
 27 51  1  0
M  END
>  <smiles>  (87) 
O=C(NCC(=O)N1CCCCC1c1cccc(F)c1)c1ccc2ccccc2n1

>  <score_type>  (87) 
oracle

>  <origin>  (87) 
autodockgpu

>  <m_score__min__energy>  (87) 
-8.8300000000000001

>  <m_primary>  (87) 
energy

>  <rmsd>  (87) 
2.0277016722041417

>  <m_score__min__rmsd>  (87) 
2.0277016722041417

>  <meeko>  (87) 
{"free_energy": -8.3, "intermolecular_energy": -9.79, "internal_energy": -1.92, "cluster_size": 30, "cluster_id": 3, "rank_in_cluster": 22}

>  <energy>  (87) 
-8.3

>  <cluster_rmsd>  (87) 
1.08

>  <cluster>  (87) 
3

$$$$

     RDKit          3D

 51 54  0  0  0  0  0  0  0  0999 V2000
  141.2780   71.6310  221.4510 O   0  0  0  0  0  0  0  0  0  0  0  0
  140.4990   72.1350  222.3270 C   0  0  0  0  0  0  0  0  0  0  0  0
  139.8720   73.3990  222.1130 N   0  0  0  0  0  0  0  0  0  0  0  0
  140.0900   74.1610  220.9020 C   0  0  0  0  0  0  0  0  0  0  0  0
  141.0110   75.3140  221.1430 C   0  0  0  0  0  0  0  0  0  0  0  0
  141.3670   75.5760  222.3220 O   0  0  0  0  0  0  0  0  0  0  0  0
  141.4360   76.0580  220.0090 N   0  0  0  0  0  0  0  0  0  0  0  0
  140.9960   77.4180  219.7440 C   0  0  0  0  0  0  0  0  0  0  0  0
  140.7540   77.5720  218.2570 C   0  0  0  0  0  0  0  0  0  0  0  0
  141.9410   77.1620  217.4360 C   0  0  0  0  0  0  0  0  0  0  0  0
  143.0270   76.5250  218.3010 C   0  0  0  0  0  0  0  0  0  0  0  0
  142.3450   75.4250  219.0890 C   0  0  1  0  0  0  0  0  0  0  0  0
  143.3050   74.4910  219.6990 C   0  0  0  0  0  0  0  0  0  0  0  0
  144.4600   74.8720  220.3460 C   0  0  0  0  0  0  0  0  0  0  0  0
  145.3540   74.0130  220.9130 C   0  0  0  0  0  0  0  0  0  0  0  0
  145.1150   72.6560  220.8500 C   0  0  0  0  0  0  0  0  0  0  0  0
  143.9790   72.2170  220.2160 C   0  0  0  0  0  0  0  0  0  0  0  0
  143.7570   70.8680  220.1620 F   0  0  0  0  0  0  0  0  0  0  0  0
  143.0760   73.1100  219.6420 C   0  0  0  0  0  0  0  0  0  0  0  0
  140.2360   71.4120  223.5780 C   0  0  0  0  0  0  0  0  0  0  0  0
  139.4920   70.2530  223.5450 C   0  0  0  0  0  0  0  0  0  0  0  0
  139.2390   69.5650  224.7280 C   0  0  0  0  0  0  0  0  0  0  0  0
  139.7480   70.0700  225.9120 C   0  0  0  0  0  0  0  0  0  0  0  0
  139.5100   69.4040  227.0950 C   0  0  0  0  0  0  0  0  0  0  0  0
  140.0280   69.9220  228.2880 C   0  0  0  0  0  0  0  0  0  0  0  0
  140.7720   71.0850  228.3110 C   0  0  0  0  0  0  0  0  0  0  0  0
  140.9980   71.7370  227.1080 C   0  0  0  0  0  0  0  0  0  0  0  0
  140.4980   71.2430  225.9260 C   0  0  0  0  0  0  0  0  0  0  0  0
  140.7170   71.8780  224.7490 N   0  0  0  0  0  0  0  0  0  0  0  0
  139.2370   73.7530  222.8890 H   0  0  0  0  0  0  0  0  0  0  0  0
  140.5320   73.5029  220.1394 H   0  0  0  0  0  0  0  0  0  0  0  0
  139.1214   74.5560  220.5617 H   0  0  0  0  0  0  0  0  0  0  0  0
  140.0641   77.6186  220.2929 H   0  0  0  0  0  0  0  0  0  0  0  0
  141.7666   78.1308  220.0729 H   0  0  0  0  0  0  0  0  0  0  0  0
  139.8953   76.9460  217.9727 H   0  0  0  0  0  0  0  0  0  0  0  0
  140.5619   78.6367  218.0582 H   0  0  0  0  0  0  0  0  0  0  0  0
  141.6166   76.4351  216.6768 H   0  0  0  0  0  0  0  0  0  0  0  0
  142.3605   78.0619  216.9626 H   0  0  0  0  0  0  0  0  0  0  0  0
  143.8218   76.1043  217.6675 H   0  0  0  0  0  0  0  0  0  0  0  0
  143.4961   77.2646  218.9665 H   0  0  0  0  0  0  0  0  0  0  0  0
  141.7614   74.7672  218.4282 H   0  0  0  0  0  0  0  0  0  0  0  0
  144.6769   75.9485  220.4098 H   0  0  0  0  0  0  0  0  0  0  0  0
  146.2545   74.3972  221.4144 H   0  0  0  0  0  0  0  0  0  0  0  0
  145.8199   71.9404  221.2984 H   0  0  0  0  0  0  0  0  0  0  0  0
  142.1754   72.7271  219.1397 H   0  0  0  0  0  0  0  0  0  0  0  0
  139.1004   69.8737  222.5896 H   0  0  0  0  0  0  0  0  0  0  0  0
  138.6463   68.6383  224.7222 H   0  0  0  0  0  0  0  0  0  0  0  0
  138.9196   68.4759  227.1017 H   0  0  0  0  0  0  0  0  0  0  0  0
  139.8375   69.3889  229.2311 H   0  0  0  0  0  0  0  0  0  0  0  0
  141.1733   71.4823  229.2550 H   0  0  0  0  0  0  0  0  0  0  0  0
  141.5876   72.6656  227.0991 H   0  0  0  0  0  0  0  0  0  0  0  0
  1  2  2  0
  2  3  1  0
  3  4  1  0
  4  5  1  0
  5  6  2  0
  5  7  1  0
  7  8  1  0
  8  9  1  0
  9 10  1  0
 10 11  1  0
 11 12  1  0
 12 13  1  0
 13 14  2  0
 14 15  1  0
 15 16  2  0
 16 17  1  0
 17 18  1  0
 17 19  2  0
  2 20  1  0
 20 21  2  0
 21 22  1  0
 22 23  2  0
 23 24  1  0
 24 25  2  0
 25 26  1  0
 26 27  2  0
 27 28  1  0
 28 29  2  0
 12  7  1  0
 19 13  1  0
 29 20  1  0
 28 23  1  0
  3 30  1  0
  4 31  1  0
  4 32  1  0
  8 33  1  0
  8 34  1  0
  9 35  1  0
  9 36  1  0
 10 37  1  0
 10 38  1  0
 11 39  1  0
 11 40  1  0
 12 41  1  6
 14 42  1  0
 15 43  1  0
 16 44  1  0
 19 45  1  0
 21 46  1  0
 22 47  1  0
 24 48  1  0
 25 49  1  0
 26 50  1  0
 27 51  1  0
M  END
>  <smiles>  (88) 
O=C(NCC(=O)N1CCCCC1c1cccc(F)c1)c1ccc2ccccc2n1

>  <score_type>  (88) 
oracle

>  <origin>  (88) 
autodockgpu

>  <m_score__min__energy>  (88) 
-8.8300000000000001

>  <m_primary>  (88) 
energy

>  <rmsd>  (88) 
2.1075113045457483

>  <m_score__min__rmsd>  (88) 
2.1075113045457483

>  <meeko>  (88) 
{"free_energy": -8.36, "intermolecular_energy": -9.85, "internal_energy": -1.76, "cluster_size": 30, "cluster_id": 3, "rank_in_cluster": 8}

>  <energy>  (88) 
-8.28

>  <cluster_rmsd>  (88) 
1.08

>  <cluster>  (88) 
3

$$$$

     RDKit          3D

 51 54  0  0  0  0  0  0  0  0999 V2000
  140.6620   71.4980  221.2260 O   0  0  0  0  0  0  0  0  0  0  0  0
  140.2650   72.0930  222.2820 C   0  0  0  0  0  0  0  0  0  0  0  0
  139.9050   73.4740  222.2570 N   0  0  0  0  0  0  0  0  0  0  0  0
  139.9750   74.2570  221.0430 C   0  0  0  0  0  0  0  0  0  0  0  0
  140.9820   75.3570  221.1610 C   0  0  0  0  0  0  0  0  0  0  0  0
  141.4280   75.6570  222.2990 O   0  0  0  0  0  0  0  0  0  0  0  0
  141.3790   76.0100  219.9630 N   0  0  0  0  0  0  0  0  0  0  0  0
  140.9080   77.3330  219.5890 C   0  0  0  0  0  0  0  0  0  0  0  0
  140.6470   77.3550  218.0970 C   0  0  0  0  0  0  0  0  0  0  0  0
  141.8340   76.9000  217.2990 C   0  0  0  0  0  0  0  0  0  0  0  0
  142.9420   76.3610  218.2020 C   0  0  0  0  0  0  0  0  0  0  0  0
  142.2910   75.3180  219.0890 C   0  0  1  0  0  0  0  0  0  0  0  0
  143.2770   74.4590  219.7640 C   0  0  0  0  0  0  0  0  0  0  0  0
  144.4950   74.8940  220.2370 C   0  0  0  0  0  0  0  0  0  0  0  0
  145.4140   74.1030  220.8630 C   0  0  0  0  0  0  0  0  0  0  0  0
  145.1320   72.7660  221.0510 C   0  0  0  0  0  0  0  0  0  0  0  0
  143.9320   72.2760  220.5990 C   0  0  0  0  0  0  0  0  0  0  0  0
  143.6700   70.9480  220.7930 F   0  0  0  0  0  0  0  0  0  0  0  0
  143.0060   73.0990  219.9610 C   0  0  0  0  0  0  0  0  0  0  0  0
  140.1710   71.3550  223.5490 C   0  0  0  0  0  0  0  0  0  0  0  0
  139.6010   70.1010  223.5600 C   0  0  0  0  0  0  0  0  0  0  0  0
  139.5090   69.3990  224.7570 C   0  0  0  0  0  0  0  0  0  0  0  0
  139.9990   69.9870  225.9120 C   0  0  0  0  0  0  0  0  0  0  0  0
  139.9190   69.3080  227.1090 C   0  0  0  0  0  0  0  0  0  0  0  0
  140.4160   69.9090  228.2710 C   0  0  0  0  0  0  0  0  0  0  0  0
  140.9850   71.1670  228.2500 C   0  0  0  0  0  0  0  0  0  0  0  0
  141.0540   71.8300  227.0340 C   0  0  0  0  0  0  0  0  0  0  0  0
  140.5720   71.2550  225.8810 C   0  0  0  0  0  0  0  0  0  0  0  0
  140.6380   71.9000  224.6910 N   0  0  0  0  0  0  0  0  0  0  0  0
  139.5840   73.8990  223.1780 H   0  0  0  0  0  0  0  0  0  0  0  0
  140.2596   73.5991  220.2086 H   0  0  0  0  0  0  0  0  0  0  0  0
  138.9880   74.7086  220.8646 H   0  0  0  0  0  0  0  0  0  0  0  0
  139.9780   77.5610  220.1303 H   0  0  0  0  0  0  0  0  0  0  0  0
  141.6670   78.0864  219.8466 H   0  0  0  0  0  0  0  0  0  0  0  0
  139.7986   76.6902  217.8775 H   0  0  0  0  0  0  0  0  0  0  0  0
  140.4307   78.3949  217.8109 H   0  0  0  0  0  0  0  0  0  0  0  0
  141.5169   76.1046  216.6085 H   0  0  0  0  0  0  0  0  0  0  0  0
  142.2296   77.7643  216.7453 H   0  0  0  0  0  0  0  0  0  0  0  0
  143.7391   75.9041  217.5971 H   0  0  0  0  0  0  0  0  0  0  0  0
  143.4021   77.1639  218.7967 H   0  0  0  0  0  0  0  0  0  0  0  0
  141.7140   74.5944  218.4945 H   0  0  0  0  0  0  0  0  0  0  0  0
  144.7453   75.9564  220.1002 H   0  0  0  0  0  0  0  0  0  0  0  0
  146.3671   74.5261  221.2131 H   0  0  0  0  0  0  0  0  0  0  0  0
  145.8543   72.1055  221.5531 H   0  0  0  0  0  0  0  0  0  0  0  0
  142.0533   72.6766  219.6088 H   0  0  0  0  0  0  0  0  0  0  0  0
  139.2210   69.6576  222.6278 H   0  0  0  0  0  0  0  0  0  0  0  0
  139.0563   68.3969  224.7863 H   0  0  0  0  0  0  0  0  0  0  0  0
  139.4695   68.3049  227.1503 H   0  0  0  0  0  0  0  0  0  0  0  0
  140.3518   69.3655  229.2252 H   0  0  0  0  0  0  0  0  0  0  0  0
  141.3719   71.6293  229.1701 H   0  0  0  0  0  0  0  0  0  0  0  0
  141.5022   72.8336  226.9906 H   0  0  0  0  0  0  0  0  0  0  0  0
  1  2  2  0
  2  3  1  0
  3  4  1  0
  4  5  1  0
  5  6  2  0
  5  7  1  0
  7  8  1  0
  8  9  1  0
  9 10  1  0
 10 11  1  0
 11 12  1  0
 12 13  1  0
 13 14  2  0
 14 15  1  0
 15 16  2  0
 16 17  1  0
 17 18  1  0
 17 19  2  0
  2 20  1  0
 20 21  2  0
 21 22  1  0
 22 23  2  0
 23 24  1  0
 24 25  2  0
 25 26  1  0
 26 27  2  0
 27 28  1  0
 28 29  2  0
 12  7  1  0
 19 13  1  0
 29 20  1  0
 28 23  1  0
  3 30  1  0
  4 31  1  0
  4 32  1  0
  8 33  1  0
  8 34  1  0
  9 35  1  0
  9 36  1  0
 10 37  1  0
 10 38  1  0
 11 39  1  0
 11 40  1  0
 12 41  1  6
 14 42  1  0
 15 43  1  0
 16 44  1  0
 19 45  1  0
 21 46  1  0
 22 47  1  0
 24 48  1  0
 25 49  1  0
 26 50  1  0
 27 51  1  0
M  END
>  <smiles>  (89) 
O=C(NCC(=O)N1CCCCC1c1cccc(F)c1)c1ccc2ccccc2n1

>  <score_type>  (89) 
oracle

>  <origin>  (89) 
autodockgpu

>  <m_score__min__energy>  (89) 
-8.8300000000000001

>  <m_primary>  (89) 
energy

>  <rmsd>  (89) 
2.0159061727482617

>  <m_score__min__rmsd>  (89) 
2.0159061727482617

>  <meeko>  (89) 
{"free_energy": -8.25, "intermolecular_energy": -9.74, "internal_energy": -1.93, "cluster_size": 30, "cluster_id": 3, "rank_in_cluster": 26}

>  <energy>  (89) 
-8.27

>  <cluster_rmsd>  (89) 
1.06

>  <cluster>  (89) 
3

$$$$

     RDKit          3D

 51 54  0  0  0  0  0  0  0  0999 V2000
  138.9760   70.4490  221.4590 O   0  0  0  0  0  0  0  0  0  0  0  0
  138.9930   71.2800  222.4270 C   0  0  0  0  0  0  0  0  0  0  0  0
  138.5960   72.6380  222.2380 N   0  0  0  0  0  0  0  0  0  0  0  0
  138.1590   73.1300  220.9490 C   0  0  0  0  0  0  0  0  0  0  0  0
  139.2650   73.8390  220.2340 C   0  0  0  0  0  0  0  0  0  0  0  0
  139.0050   74.8950  219.6010 O   0  0  0  0  0  0  0  0  0  0  0  0
  140.5640   73.2690  220.3130 N   0  0  0  0  0  0  0  0  0  0  0  0
  140.9510   72.0760  219.5760 C   0  0  0  0  0  0  0  0  0  0  0  0
  141.8260   71.2160  220.4630 C   0  0  0  0  0  0  0  0  0  0  0  0
  142.9950   71.9720  221.0250 C   0  0  0  0  0  0  0  0  0  0  0  0
  142.9050   73.4620  220.7010 C   0  0  0  0  0  0  0  0  0  0  0  0
  141.5330   73.9100  221.1630 C   0  0  1  0  0  0  0  0  0  0  0  0
  141.4180   75.3750  221.2500 C   0  0  0  0  0  0  0  0  0  0  0  0
  140.8150   76.0490  222.2890 C   0  0  0  0  0  0  0  0  0  0  0  0
  140.7050   77.4060  222.3750 C   0  0  0  0  0  0  0  0  0  0  0  0
  141.2240   78.1880  221.3650 C   0  0  0  0  0  0  0  0  0  0  0  0
  141.8370   77.5700  220.3030 C   0  0  0  0  0  0  0  0  0  0  0  0
  142.3450   78.3610  219.3090 F   0  0  0  0  0  0  0  0  0  0  0  0
  141.9400   76.1820  220.2310 C   0  0  0  0  0  0  0  0  0  0  0  0
  139.4260   70.8440  223.7610 C   0  0  0  0  0  0  0  0  0  0  0  0
  139.2260   69.5360  224.1430 C   0  0  0  0  0  0  0  0  0  0  0  0
  139.6340   69.1180  225.4060 C   0  0  0  0  0  0  0  0  0  0  0  0
  140.2350   70.0390  226.2470 C   0  0  0  0  0  0  0  0  0  0  0  0
  140.6480   69.6460  227.5030 C   0  0  0  0  0  0  0  0  0  0  0  0
  141.2540   70.5820  228.3480 C   0  0  0  0  0  0  0  0  0  0  0  0
  141.4500   71.8920  227.9570 C   0  0  0  0  0  0  0  0  0  0  0  0
  141.0270   72.2630  226.6900 C   0  0  0  0  0  0  0  0  0  0  0  0
  140.4290   71.3570  225.8450 C   0  0  0  0  0  0  0  0  0  0  0  0
  140.0140   71.7160  224.6060 N   0  0  0  0  0  0  0  0  0  0  0  0
  138.6380   73.2690  223.0920 H   0  0  0  0  0  0  0  0  0  0  0  0
  137.8231   72.2804  220.3364 H   0  0  0  0  0  0  0  0  0  0  0  0
  137.3369   73.8429  221.1102 H   0  0  0  0  0  0  0  0  0  0  0  0
  140.0517   71.5127  219.2862 H   0  0  0  0  0  0  0  0  0  0  0  0
  141.5042   72.3606  218.6688 H   0  0  0  0  0  0  0  0  0  0  0  0
  141.2176   70.8364  221.2971 H   0  0  0  0  0  0  0  0  0  0  0  0
  142.2235   70.3965  219.8463 H   0  0  0  0  0  0  0  0  0  0  0  0
  143.0119   71.8440  222.1174 H   0  0  0  0  0  0  0  0  0  0  0  0
  143.9144   71.5745  220.5703 H   0  0  0  0  0  0  0  0  0  0  0  0
  143.6886   74.0174  221.2372 H   0  0  0  0  0  0  0  0  0  0  0  0
  143.0484   73.6492  219.6266 H   0  0  0  0  0  0  0  0  0  0  0  0
  141.3420   73.5948  222.1994 H   0  0  0  0  0  0  0  0  0  0  0  0
  140.3916   75.4498  223.1085 H   0  0  0  0  0  0  0  0  0  0  0  0
  140.2083   77.8706  223.2395 H   0  0  0  0  0  0  0  0  0  0  0  0
  141.1485   79.2845  221.4091 H   0  0  0  0  0  0  0  0  0  0  0  0
  142.4355   75.7162  219.3665 H   0  0  0  0  0  0  0  0  0  0  0  0
  138.7464   68.8257  223.4535 H   0  0  0  0  0  0  0  0  0  0  0  0
  139.4822   68.0776  225.7294 H   0  0  0  0  0  0  0  0  0  0  0  0
  140.5025   68.6080  227.8366 H   0  0  0  0  0  0  0  0  0  0  0  0
  141.5827   70.2665  229.3492 H   0  0  0  0  0  0  0  0  0  0  0  0
  141.9273   72.6190  228.6305 H   0  0  0  0  0  0  0  0  0  0  0  0
  141.1721   73.3004  226.3543 H   0  0  0  0  0  0  0  0  0  0  0  0
  1  2  2  0
  2  3  1  0
  3  4  1  0
  4  5  1  0
  5  6  2  0
  5  7  1  0
  7  8  1  0
  8  9  1  0
  9 10  1  0
 10 11  1  0
 11 12  1  0
 12 13  1  0
 13 14  2  0
 14 15  1  0
 15 16  2  0
 16 17  1  0
 17 18  1  0
 17 19  2  0
  2 20  1  0
 20 21  2  0
 21 22  1  0
 22 23  2  0
 23 24  1  0
 24 25  2  0
 25 26  1  0
 26 27  2  0
 27 28  1  0
 28 29  2  0
 12  7  1  0
 19 13  1  0
 29 20  1  0
 28 23  1  0
  3 30  1  0
  4 31  1  0
  4 32  1  0
  8 33  1  0
  8 34  1  0
  9 35  1  0
  9 36  1  0
 10 37  1  0
 10 38  1  0
 11 39  1  0
 11 40  1  0
 12 41  1  1
 14 42  1  0
 15 43  1  0
 16 44  1  0
 19 45  1  0
 21 46  1  0
 22 47  1  0
 24 48  1  0
 25 49  1  0
 26 50  1  0
 27 51  1  0
M  END
>  <smiles>  (90) 
O=C(NCC(=O)N1CCCCC1c1cccc(F)c1)c1ccc2ccccc2n1

>  <score_type>  (90) 
oracle

>  <origin>  (90) 
autodockgpu

>  <m_score__min__energy>  (90) 
-8.8300000000000001

>  <m_primary>  (90) 
energy

>  <rmsd>  (90) 
2.8166363726431713

>  <m_score__min__rmsd>  (90) 
2.8166363726431713

>  <meeko>  (90) 
{"free_energy": -7.13, "intermolecular_energy": -8.63, "internal_energy": -2.27, "cluster_size": 1, "cluster_id": 5, "rank_in_cluster": 1}

>  <energy>  (90) 
-8.25

>  <cluster_rmsd>  (90) 
1.05

>  <cluster>  (90) 
3

$$$$

     RDKit          3D

 51 54  0  0  0  0  0  0  0  0999 V2000
  140.3380   71.4310  221.2680 O   0  0  0  0  0  0  0  0  0  0  0  0
  140.0760   72.0400  222.3580 C   0  0  0  0  0  0  0  0  0  0  0  0
  139.7850   73.4380  222.3690 N   0  0  0  0  0  0  0  0  0  0  0  0
  139.7750   74.2220  221.1530 C   0  0  0  0  0  0  0  0  0  0  0  0
  140.2690   75.6120  221.3980 C   0  0  0  0  0  0  0  0  0  0  0  0
  140.0200   76.1630  222.5020 O   0  0  0  0  0  0  0  0  0  0  0  0
  141.0010   76.2390  220.3530 N   0  0  0  0  0  0  0  0  0  0  0  0
  141.0230   75.7340  218.9900 C   0  0  0  0  0  0  0  0  0  0  0  0
  142.4250   75.8830  218.4360 C   0  0  0  0  0  0  0  0  0  0  0  0
  142.9440   77.2870  218.5580 C   0  0  0  0  0  0  0  0  0  0  0  0
  141.9950   78.1660  219.3710 C   0  0  0  0  0  0  0  0  0  0  0  0
  141.7490   77.4270  220.6720 C   0  0  1  0  0  0  0  0  0  0  0  0
  141.1490   78.2880  221.7030 C   0  0  0  0  0  0  0  0  0  0  0  0
  141.7550   78.6110  222.8980 C   0  0  0  0  0  0  0  0  0  0  0  0
  141.2040   79.4070  223.8580 C   0  0  0  0  0  0  0  0  0  0  0  0
  139.9510   79.9440  223.6500 C   0  0  0  0  0  0  0  0  0  0  0  0
  139.2990   79.6560  222.4760 C   0  0  0  0  0  0  0  0  0  0  0  0
  138.0560   80.1950  222.2860 F   0  0  0  0  0  0  0  0  0  0  0  0
  139.8770   78.8390  221.5060 C   0  0  0  0  0  0  0  0  0  0  0  0
  140.0700   71.3020  223.6280 C   0  0  0  0  0  0  0  0  0  0  0  0
  139.5800   70.0140  223.6580 C   0  0  0  0  0  0  0  0  0  0  0  0
  139.5710   69.3110  224.8590 C   0  0  0  0  0  0  0  0  0  0  0  0
  140.0610   69.9320  225.9960 C   0  0  0  0  0  0  0  0  0  0  0  0
  140.0620   69.2520  227.1960 C   0  0  0  0  0  0  0  0  0  0  0  0
  140.5570   69.8870  228.3400 C   0  0  0  0  0  0  0  0  0  0  0  0
  141.0460   71.1780  228.3000 C   0  0  0  0  0  0  0  0  0  0  0  0
  141.0340   71.8400  227.0820 C   0  0  0  0  0  0  0  0  0  0  0  0
  140.5510   71.2330  225.9460 C   0  0  0  0  0  0  0  0  0  0  0  0
  140.5380   71.8780  224.7540 N   0  0  0  0  0  0  0  0  0  0  0  0
  139.5770   73.8730  223.3160 H   0  0  0  0  0  0  0  0  0  0  0  0
  140.4239   73.7372  220.4088 H   0  0  0  0  0  0  0  0  0  0  0  0
  138.7394   74.2813  220.7869 H   0  0  0  0  0  0  0  0  0  0  0  0
  140.7343   74.6726  218.9844 H   0  0  0  0  0  0  0  0  0  0  0  0
  140.3140   76.3021  218.3698 H   0  0  0  0  0  0  0  0  0  0  0  0
  143.0964   75.2092  218.9885 H   0  0  0  0  0  0  0  0  0  0  0  0
  142.3907   75.6305  217.3659 H   0  0  0  0  0  0  0  0  0  0  0  0
  143.9245   77.2636  219.0561 H   0  0  0  0  0  0  0  0  0  0  0  0
  143.0283   77.7129  217.5473 H   0  0  0  0  0  0  0  0  0  0  0  0
  142.4564   79.1447  219.5691 H   0  0  0  0  0  0  0  0  0  0  0  0
  141.0554   78.3510  218.8298 H   0  0  0  0  0  0  0  0  0  0  0  0
  142.6959   77.1208  221.1407 H   0  0  0  0  0  0  0  0  0  0  0  0
  142.7555   78.1966  223.0911 H   0  0  0  0  0  0  0  0  0  0  0  0
  141.7526   79.6184  224.7877 H   0  0  0  0  0  0  0  0  0  0  0  0
  139.4836   80.5894  224.4083 H   0  0  0  0  0  0  0  0  0  0  0  0
  139.3286   78.6250  220.5768 H   0  0  0  0  0  0  0  0  0  0  0  0
  139.1987   69.5450  222.7389 H   0  0  0  0  0  0  0  0  0  0  0  0
  139.1826   68.2829  224.9044 H   0  0  0  0  0  0  0  0  0  0  0  0
  139.6782   68.2227  227.2528 H   0  0  0  0  0  0  0  0  0  0  0  0
  140.5568   69.3438  229.2965 H   0  0  0  0  0  0  0  0  0  0  0  0
  141.4331   71.6660  229.2067 H   0  0  0  0  0  0  0  0  0  0  0  0
  141.4176   72.8692  227.0229 H   0  0  0  0  0  0  0  0  0  0  0  0
  1  2  2  0
  2  3  1  0
  3  4  1  0
  4  5  1  0
  5  6  2  0
  5  7  1  0
  7  8  1  0
  8  9  1  0
  9 10  1  0
 10 11  1  0
 11 12  1  0
 12 13  1  0
 13 14  2  0
 14 15  1  0
 15 16  2  0
 16 17  1  0
 17 18  1  0
 17 19  2  0
  2 20  1  0
 20 21  2  0
 21 22  1  0
 22 23  2  0
 23 24  1  0
 24 25  2  0
 25 26  1  0
 26 27  2  0
 27 28  1  0
 28 29  2  0
 12  7  1  0
 19 13  1  0
 29 20  1  0
 28 23  1  0
  3 30  1  0
  4 31  1  0
  4 32  1  0
  8 33  1  0
  8 34  1  0
  9 35  1  0
  9 36  1  0
 10 37  1  0
 10 38  1  0
 11 39  1  0
 11 40  1  0
 12 41  1  1
 14 42  1  0
 15 43  1  0
 16 44  1  0
 19 45  1  0
 21 46  1  0
 22 47  1  0
 24 48  1  0
 25 49  1  0
 26 50  1  0
 27 51  1  0
M  END
>  <smiles>  (91) 
O=C(NCC(=O)N1CCCCC1c1cccc(F)c1)c1ccc2ccccc2n1

>  <score_type>  (91) 
oracle

>  <origin>  (91) 
autodockgpu

>  <m_score__min__energy>  (91) 
-8.8300000000000001

>  <m_primary>  (91) 
energy

>  <rmsd>  (91) 
1.6548642118993468

>  <m_score__min__rmsd>  (91) 
1.6548642118993468

>  <meeko>  (91) 
{"free_energy": -8.71, "intermolecular_energy": -10.2, "internal_energy": -1.3, "cluster_size": 13, "cluster_id": 1, "rank_in_cluster": 7}

>  <energy>  (91) 
-8.25

>  <cluster_rmsd>  (91) 
1.09

>  <cluster>  (91) 
3

$$$$

     RDKit          3D

 51 54  0  0  0  0  0  0  0  0999 V2000
  140.7630   71.4560  221.2810 O   0  0  0  0  0  0  0  0  0  0  0  0
  140.3130   72.0870  222.2940 C   0  0  0  0  0  0  0  0  0  0  0  0
  139.9710   73.4700  222.2070 N   0  0  0  0  0  0  0  0  0  0  0  0
  140.1180   74.2140  220.9750 C   0  0  0  0  0  0  0  0  0  0  0  0
  140.9290   75.4540  221.1810 C   0  0  0  0  0  0  0  0  0  0  0  0
  141.1500   75.8510  222.3550 O   0  0  0  0  0  0  0  0  0  0  0  0
  141.4080   76.1210  220.0220 N   0  0  0  0  0  0  0  0  0  0  0  0
  141.1120   77.5150  219.7310 C   0  0  0  0  0  0  0  0  0  0  0  0
  140.8560   77.6620  218.2460 C   0  0  0  0  0  0  0  0  0  0  0  0
  141.9740   77.1050  217.4130 C   0  0  0  0  0  0  0  0  0  0  0  0
  143.0030   76.3740  218.2720 C   0  0  0  0  0  0  0  0  0  0  0  0
  142.2220   75.3720  219.1000 C   0  0  1  0  0  0  0  0  0  0  0  0
  143.0880   74.3530  219.7140 C   0  0  0  0  0  0  0  0  0  0  0  0
  142.7690   73.0160  219.8130 C   0  0  0  0  0  0  0  0  0  0  0  0
  143.5670   72.0670  220.3810 C   0  0  0  0  0  0  0  0  0  0  0  0
  144.7870   72.4400  220.9060 C   0  0  0  0  0  0  0  0  0  0  0  0
  145.1570   73.7600  220.8360 C   0  0  0  0  0  0  0  0  0  0  0  0
  146.3700   74.1120  221.3610 F   0  0  0  0  0  0  0  0  0  0  0  0
  144.3290   74.7170  220.2520 C   0  0  0  0  0  0  0  0  0  0  0  0
  140.1400   71.3900  223.5750 C   0  0  0  0  0  0  0  0  0  0  0  0
  139.4340   70.2070  223.6110 C   0  0  0  0  0  0  0  0  0  0  0  0
  139.2670   69.5430  224.8220 C   0  0  0  0  0  0  0  0  0  0  0  0
  139.8200   70.0960  225.9650 C   0  0  0  0  0  0  0  0  0  0  0  0
  139.6670   69.4550  227.1750 C   0  0  0  0  0  0  0  0  0  0  0  0
  140.2280   70.0200  228.3260 C   0  0  0  0  0  0  0  0  0  0  0  0
  140.9330   71.2070  228.2800 C   0  0  0  0  0  0  0  0  0  0  0  0
  141.0740   71.8330  227.0510 C   0  0  0  0  0  0  0  0  0  0  0  0
  140.5300   71.2930  225.9090 C   0  0  0  0  0  0  0  0  0  0  0  0
  140.6650   71.9030  224.7070 N   0  0  0  0  0  0  0  0  0  0  0  0
  139.6030   73.9260  223.0940 H   0  0  0  0  0  0  0  0  0  0  0  0
  140.6189   73.5781  220.2302 H   0  0  0  0  0  0  0  0  0  0  0  0
  139.1171   74.5083  220.6262 H   0  0  0  0  0  0  0  0  0  0  0  0
  140.2193   77.8280  220.2924 H   0  0  0  0  0  0  0  0  0  0  0  0
  141.9627   78.1464  220.0270 H   0  0  0  0  0  0  0  0  0  0  0  0
  139.9279   77.1284  217.9933 H   0  0  0  0  0  0  0  0  0  0  0  0
  140.7771   78.7366  218.0247 H   0  0  0  0  0  0  0  0  0  0  0  0
  141.5558   76.4002  216.6793 H   0  0  0  0  0  0  0  0  0  0  0  0
  142.4785   77.9426  216.9090 H   0  0  0  0  0  0  0  0  0  0  0  0
  143.7338   75.8554  217.6341 H   0  0  0  0  0  0  0  0  0  0  0  0
  143.5640   77.0728  218.9099 H   0  0  0  0  0  0  0  0  0  0  0  0
  141.5558   74.7675  218.4669 H   0  0  0  0  0  0  0  0  0  0  0  0
  141.8009   72.6907  219.4044 H   0  0  0  0  0  0  0  0  0  0  0  0
  143.2418   71.0169  220.4200 H   0  0  0  0  0  0  0  0  0  0  0  0
  145.4495   71.6951  221.3710 H   0  0  0  0  0  0  0  0  0  0  0  0
  144.6529   75.7675  220.2132 H   0  0  0  0  0  0  0  0  0  0  0  0
  139.0051   69.7903  222.6877 H   0  0  0  0  0  0  0  0  0  0  0  0
  138.7069   68.5976  224.8708 H   0  0  0  0  0  0  0  0  0  0  0  0
  139.1095   68.5087  227.2358 H   0  0  0  0  0  0  0  0  0  0  0  0
  140.1045   69.5063  229.2908 H   0  0  0  0  0  0  0  0  0  0  0  0
  141.3694   71.6425  229.1910 H   0  0  0  0  0  0  0  0  0  0  0  0
  141.6314   72.7792  226.9881 H   0  0  0  0  0  0  0  0  0  0  0  0
  1  2  2  0
  2  3  1  0
  3  4  1  0
  4  5  1  0
  5  6  2  0
  5  7  1  0
  7  8  1  0
  8  9  1  0
  9 10  1  0
 10 11  1  0
 11 12  1  0
 12 13  1  0
 13 14  2  0
 14 15  1  0
 15 16  2  0
 16 17  1  0
 17 18  1  0
 17 19  2  0
  2 20  1  0
 20 21  2  0
 21 22  1  0
 22 23  2  0
 23 24  1  0
 24 25  2  0
 25 26  1  0
 26 27  2  0
 27 28  1  0
 28 29  2  0
 12  7  1  0
 19 13  1  0
 29 20  1  0
 28 23  1  0
  3 30  1  0
  4 31  1  0
  4 32  1  0
  8 33  1  0
  8 34  1  0
  9 35  1  0
  9 36  1  0
 10 37  1  0
 10 38  1  0
 11 39  1  0
 11 40  1  0
 12 41  1  6
 14 42  1  0
 15 43  1  0
 16 44  1  0
 19 45  1  0
 21 46  1  0
 22 47  1  0
 24 48  1  0
 25 49  1  0
 26 50  1  0
 27 51  1  0
M  END
>  <smiles>  (92) 
O=C(NCC(=O)N1CCCCC1c1cccc(F)c1)c1ccc2ccccc2n1

>  <score_type>  (92) 
oracle

>  <origin>  (92) 
autodockgpu

>  <m_score__min__energy>  (92) 
-8.8300000000000001

>  <m_primary>  (92) 
energy

>  <rmsd>  (92) 
2.127013981553793

>  <m_score__min__rmsd>  (92) 
2.127013981553793

>  <meeko>  (92) 
{"free_energy": -8.44, "intermolecular_energy": -9.93, "internal_energy": -1.85, "cluster_size": 30, "cluster_id": 3, "rank_in_cluster": 2}

>  <energy>  (92) 
-8.02

>  <cluster_rmsd>  (92) 
1.29

>  <cluster>  (92) 
3

$$$$

     RDKit          3D

 51 54  0  0  0  0  0  0  0  0999 V2000
  141.4770   71.8310  221.4620 O   0  0  0  0  0  0  0  0  0  0  0  0
  140.5930   72.2710  222.2680 C   0  0  0  0  0  0  0  0  0  0  0  0
  139.9110   73.4990  222.0140 N   0  0  0  0  0  0  0  0  0  0  0  0
  140.1910   74.2950  220.8380 C   0  0  0  0  0  0  0  0  0  0  0  0
  141.1170   75.4260  221.1550 C   0  0  0  0  0  0  0  0  0  0  0  0
  141.4310   75.6410  222.3540 O   0  0  0  0  0  0  0  0  0  0  0  0
  141.5930   76.2040  220.0650 N   0  0  0  0  0  0  0  0  0  0  0  0
  141.3000   77.6190  219.9140 C   0  0  0  0  0  0  0  0  0  0  0  0
  141.0390   77.9130  218.4520 C   0  0  0  0  0  0  0  0  0  0  0  0
  142.1530   77.4400  217.5640 C   0  0  0  0  0  0  0  0  0  0  0  0
  143.1830   76.6250  218.3440 C   0  0  0  0  0  0  0  0  0  0  0  0
  142.4030   75.5480  219.0710 C   0  0  1  0  0  0  0  0  0  0  0  0
  143.2690   74.4720  219.5790 C   0  0  0  0  0  0  0  0  0  0  0  0
  143.0600   73.1290  219.3500 C   0  0  0  0  0  0  0  0  0  0  0  0
  143.8570   72.1270  219.8180 C   0  0  0  0  0  0  0  0  0  0  0  0
  144.9620   72.4470  220.5800 C   0  0  0  0  0  0  0  0  0  0  0  0
  145.2200   73.7700  220.8410 C   0  0  0  0  0  0  0  0  0  0  0  0
  146.3190   74.0690  221.5980 F   0  0  0  0  0  0  0  0  0  0  0  0
  144.3930   74.7810  220.3550 C   0  0  0  0  0  0  0  0  0  0  0  0
  140.2610   71.5110  223.4810 C   0  0  0  0  0  0  0  0  0  0  0  0
  139.4160   70.4270  223.3890 C   0  0  0  0  0  0  0  0  0  0  0  0
  139.0980   69.7040  224.5340 C   0  0  0  0  0  0  0  0  0  0  0  0
  139.6480   70.0990  225.7430 C   0  0  0  0  0  0  0  0  0  0  0  0
  139.3470   69.3960  226.8900 C   0  0  0  0  0  0  0  0  0  0  0  0
  139.9060   69.8020  228.1070 C   0  0  0  0  0  0  0  0  0  0  0  0
  140.7520   70.8900  228.1890 C   0  0  0  0  0  0  0  0  0  0  0  0
  141.0400   71.5800  227.0220 C   0  0  0  0  0  0  0  0  0  0  0  0
  140.5000   71.1970  225.8160 C   0  0  0  0  0  0  0  0  0  0  0  0
  140.7790   71.8700  224.6740 N   0  0  0  0  0  0  0  0  0  0  0  0
  139.1880   73.8000  222.7330 H   0  0  0  0  0  0  0  0  0  0  0  0
  140.6561   73.6545  220.0742 H   0  0  0  0  0  0  0  0  0  0  0  0
  139.2435   74.7150  220.4694 H   0  0  0  0  0  0  0  0  0  0  0  0
  140.4102   77.8771  220.5070 H   0  0  0  0  0  0  0  0  0  0  0  0
  142.1537   78.2159  220.2673 H   0  0  0  0  0  0  0  0  0  0  0  0
  140.1091   77.4083  218.1510 H   0  0  0  0  0  0  0  0  0  0  0  0
  140.9610   79.0044  218.3387 H   0  0  0  0  0  0  0  0  0  0  0  0
  141.7313   76.8124  216.7650 H   0  0  0  0  0  0  0  0  0  0  0  0
  142.6577   78.3224  217.1436 H   0  0  0  0  0  0  0  0  0  0  0  0
  143.9109   76.1706  217.6558 H   0  0  0  0  0  0  0  0  0  0  0  0
  143.7470   77.2564  219.0463 H   0  0  0  0  0  0  0  0  0  0  0  0
  141.7339   75.0098  218.3835 H   0  0  0  0  0  0  0  0  0  0  0  0
  142.1861   72.8450  218.7454 H   0  0  0  0  0  0  0  0  0  0  0  0
  143.6222   71.0766  219.5910 H   0  0  0  0  0  0  0  0  0  0  0  0
  145.6224   71.6586  220.9702 H   0  0  0  0  0  0  0  0  0  0  0  0
  144.6254   75.8317  220.5831 H   0  0  0  0  0  0  0  0  0  0  0  0
  138.9951   70.1348  222.4156 H   0  0  0  0  0  0  0  0  0  0  0  0
  138.4238   68.8365  224.4808 H   0  0  0  0  0  0  0  0  0  0  0  0
  138.6752   68.5260  226.8491 H   0  0  0  0  0  0  0  0  0  0  0  0
  139.6653   69.2400  229.0215 H   0  0  0  0  0  0  0  0  0  0  0  0
  141.1845   71.1999  229.1517 H   0  0  0  0  0  0  0  0  0  0  0  0
  141.7125   72.4496  227.0608 H   0  0  0  0  0  0  0  0  0  0  0  0
  1  2  2  0
  2  3  1  0
  3  4  1  0
  4  5  1  0
  5  6  2  0
  5  7  1  0
  7  8  1  0
  8  9  1  0
  9 10  1  0
 10 11  1  0
 11 12  1  0
 12 13  1  0
 13 14  2  0
 14 15  1  0
 15 16  2  0
 16 17  1  0
 17 18  1  0
 17 19  2  0
  2 20  1  0
 20 21  2  0
 21 22  1  0
 22 23  2  0
 23 24  1  0
 24 25  2  0
 25 26  1  0
 26 27  2  0
 27 28  1  0
 28 29  2  0
 12  7  1  0
 19 13  1  0
 29 20  1  0
 28 23  1  0
  3 30  1  0
  4 31  1  0
  4 32  1  0
  8 33  1  0
  8 34  1  0
  9 35  1  0
  9 36  1  0
 10 37  1  0
 10 38  1  0
 11 39  1  0
 11 40  1  0
 12 41  1  6
 14 42  1  0
 15 43  1  0
 16 44  1  0
 19 45  1  0
 21 46  1  0
 22 47  1  0
 24 48  1  0
 25 49  1  0
 26 50  1  0
 27 51  1  0
M  END
>  <smiles>  (93) 
O=C(NCC(=O)N1CCCCC1c1cccc(F)c1)c1ccc2ccccc2n1

>  <score_type>  (93) 
oracle

>  <origin>  (93) 
autodockgpu

>  <m_score__min__energy>  (93) 
-8.8300000000000001

>  <m_primary>  (93) 
energy

>  <rmsd>  (93) 
2.2506939068865015

>  <m_score__min__rmsd>  (93) 
2.2506939068865015

>  <meeko>  (93) 
{"free_energy": -8.38, "intermolecular_energy": -9.87, "internal_energy": -1.72, "cluster_size": 30, "cluster_id": 3, "rank_in_cluster": 5}

>  <energy>  (93) 
-7.81

>  <cluster_rmsd>  (93) 
0.9

>  <cluster>  (93) 
3

$$$$

     RDKit          3D

 51 54  0  0  0  0  0  0  0  0999 V2000
  140.6900   76.8500  218.2020 O   0  0  0  0  0  0  0  0  0  0  0  0
  141.8200   76.8950  218.7920 C   0  0  0  0  0  0  0  0  0  0  0  0
  142.3270   78.1220  219.3180 N   0  0  0  0  0  0  0  0  0  0  0  0
  141.5880   79.3610  219.2050 C   0  0  0  0  0  0  0  0  0  0  0  0
  140.5620   79.4830  220.2870 C   0  0  0  0  0  0  0  0  0  0  0  0
  139.3470   79.3280  219.9970 O   0  0  0  0  0  0  0  0  0  0  0  0
  141.0270   79.7710  221.5980 N   0  0  0  0  0  0  0  0  0  0  0  0
  141.1790   81.1250  222.1050 C   0  0  0  0  0  0  0  0  0  0  0  0
  142.4440   81.1990  222.9340 C   0  0  0  0  0  0  0  0  0  0  0  0
  142.4860   80.1540  224.0110 C   0  0  0  0  0  0  0  0  0  0  0  0
  141.3240   79.1700  223.8830 C   0  0  0  0  0  0  0  0  0  0  0  0
  141.3600   78.6620  222.4550 C   0  0  1  0  0  0  0  0  0  0  0  0
  140.5390   77.4560  222.2660 C   0  0  0  0  0  0  0  0  0  0  0  0
  139.1740   77.4060  222.4430 C   0  0  0  0  0  0  0  0  0  0  0  0
  138.4070   76.2920  222.2700 C   0  0  0  0  0  0  0  0  0  0  0  0
  139.0130   75.1110  221.8920 C   0  0  0  0  0  0  0  0  0  0  0  0
  140.3730   75.1010  221.7020 C   0  0  0  0  0  0  0  0  0  0  0  0
  140.9570   73.9220  221.3280 F   0  0  0  0  0  0  0  0  0  0  0  0
  141.1400   76.2500  221.8830 C   0  0  0  0  0  0  0  0  0  0  0  0
  142.6210   75.6730  218.9400 C   0  0  0  0  0  0  0  0  0  0  0  0
  142.2930   74.5570  218.2010 C   0  0  0  0  0  0  0  0  0  0  0  0
  143.0480   73.3970  218.3370 C   0  0  0  0  0  0  0  0  0  0  0  0
  144.1160   73.3990  219.2180 C   0  0  0  0  0  0  0  0  0  0  0  0
  144.8780   72.2600  219.3680 C   0  0  0  0  0  0  0  0  0  0  0  0
  145.9560   72.2700  220.2610 C   0  0  0  0  0  0  0  0  0  0  0  0
  146.2760   73.3930  220.9980 C   0  0  0  0  0  0  0  0  0  0  0  0
  145.4960   74.5270  220.8290 C   0  0  0  0  0  0  0  0  0  0  0  0
  144.4330   74.5360  219.9560 C   0  0  0  0  0  0  0  0  0  0  0  0
  143.6670   75.6420  219.7900 N   0  0  0  0  0  0  0  0  0  0  0  0
  143.2760   78.0790  219.7950 H   0  0  0  0  0  0  0  0  0  0  0  0
  142.2897   80.2048  219.2799 H   0  0  0  0  0  0  0  0  0  0  0  0
  141.0711   79.3695  218.2340 H   0  0  0  0  0  0  0  0  0  0  0  0
  141.2477   81.8292  221.2627 H   0  0  0  0  0  0  0  0  0  0  0  0
  140.3105   81.3903  222.7257 H   0  0  0  0  0  0  0  0  0  0  0  0
  143.3097   81.0570  222.2704 H   0  0  0  0  0  0  0  0  0  0  0  0
  142.4670   82.1843  223.4225 H   0  0  0  0  0  0  0  0  0  0  0  0
  143.4333   79.6001  223.9347 H   0  0  0  0  0  0  0  0  0  0  0  0
  142.4046   80.6590  224.9848 H   0  0  0  0  0  0  0  0  0  0  0  0
  141.4506   78.3356  224.5885 H   0  0  0  0  0  0  0  0  0  0  0  0
  140.3622   79.6509  224.1148 H   0  0  0  0  0  0  0  0  0  0  0  0
  142.3662   78.3091  222.1846 H   0  0  0  0  0  0  0  0  0  0  0  0
  138.6652   78.3329  222.7462 H   0  0  0  0  0  0  0  0  0  0  0  0
  137.3195   76.3340  222.4296 H   0  0  0  0  0  0  0  0  0  0  0  0
  138.4190   74.1968  221.7460 H   0  0  0  0  0  0  0  0  0  0  0  0
  142.2277   76.2098  221.7236 H   0  0  0  0  0  0  0  0  0  0  0  0
  141.4393   74.5835  217.5078 H   0  0  0  0  0  0  0  0  0  0  0  0
  142.8016   72.4959  217.7562 H   0  0  0  0  0  0  0  0  0  0  0  0
  144.6415   71.3531  218.7922 H   0  0  0  0  0  0  0  0  0  0  0  0
  146.5634   71.3604  220.3786 H   0  0  0  0  0  0  0  0  0  0  0  0
  147.1243   73.3882  221.6982 H   0  0  0  0  0  0  0  0  0  0  0  0
  145.7314   75.4353  221.4031 H   0  0  0  0  0  0  0  0  0  0  0  0
  1  2  2  0
  2  3  1  0
  3  4  1  0
  4  5  1  0
  5  6  2  0
  5  7  1  0
  7  8  1  0
  8  9  1  0
  9 10  1  0
 10 11  1  0
 11 12  1  0
 12 13  1  0
 13 14  2  0
 14 15  1  0
 15 16  2  0
 16 17  1  0
 17 18  1  0
 17 19  2  0
  2 20  1  0
 20 21  2  0
 21 22  1  0
 22 23  2  0
 23 24  1  0
 24 25  2  0
 25 26  1  0
 26 27  2  0
 27 28  1  0
 28 29  2  0
 12  7  1  0
 19 13  1  0
 29 20  1  0
 28 23  1  0
  3 30  1  0
  4 31  1  0
  4 32  1  0
  8 33  1  0
  8 34  1  0
  9 35  1  0
  9 36  1  0
 10 37  1  0
 10 38  1  0
 11 39  1  0
 11 40  1  0
 12 41  1  6
 14 42  1  0
 15 43  1  0
 16 44  1  0
 19 45  1  0
 21 46  1  0
 22 47  1  0
 24 48  1  0
 25 49  1  0
 26 50  1  0
 27 51  1  0
M  END
>  <smiles>  (94) 
O=C(NCC(=O)N1CCCCC1c1cccc(F)c1)c1ccc2ccccc2n1

>  <score_type>  (94) 
oracle

>  <origin>  (94) 
autodockgpu

>  <m_score__min__energy>  (94) 
-8.8300000000000001

>  <m_primary>  (94) 
energy

>  <rmsd>  (94) 
7.534671785778404

>  <m_score__min__rmsd>  (94) 
7.534671785778404

>  <meeko>  (94) 
{"free_energy": -7.14, "intermolecular_energy": -8.63, "internal_energy": -2.68, "cluster_size": 3, "cluster_id": 4, "rank_in_cluster": 2}

>  <energy>  (94) 
-7.65

>  <cluster_rmsd>  (94) 
1.3

>  <cluster>  (94) 
3

$$$$

     RDKit          3D

 51 54  0  0  0  0  0  0  0  0999 V2000
  140.7070   71.4460  221.1740 O   0  0  0  0  0  0  0  0  0  0  0  0
  140.3010   72.0720  222.2080 C   0  0  0  0  0  0  0  0  0  0  0  0
  140.0050   73.4680  222.1530 N   0  0  0  0  0  0  0  0  0  0  0  0
  140.1510   74.2300  220.9320 C   0  0  0  0  0  0  0  0  0  0  0  0
  140.9390   75.4800  221.1610 C   0  0  0  0  0  0  0  0  0  0  0  0
  141.1310   75.8740  222.3410 O   0  0  0  0  0  0  0  0  0  0  0  0
  141.4300   76.1600  220.0150 N   0  0  0  0  0  0  0  0  0  0  0  0
  141.1480   77.5600  219.7420 C   0  0  0  0  0  0  0  0  0  0  0  0
  140.9030   77.7300  218.2580 C   0  0  0  0  0  0  0  0  0  0  0  0
  142.0220   77.1780  217.4240 C   0  0  0  0  0  0  0  0  0  0  0  0
  143.0400   76.4260  218.2800 C   0  0  0  0  0  0  0  0  0  0  0  0
  142.2460   75.4190  219.0880 C   0  0  1  0  0  0  0  0  0  0  0  0
  143.1000   74.3840  219.6930 C   0  0  0  0  0  0  0  0  0  0  0  0
  142.7940   73.0410  219.7240 C   0  0  0  0  0  0  0  0  0  0  0  0
  143.5800   72.0770  220.2830 C   0  0  0  0  0  0  0  0  0  0  0  0
  144.7740   72.4410  220.8700 C   0  0  0  0  0  0  0  0  0  0  0  0
  145.1310   73.7670  220.8690 C   0  0  0  0  0  0  0  0  0  0  0  0
  146.3180   74.1090  221.4560 F   0  0  0  0  0  0  0  0  0  0  0  0
  144.3150   74.7380  220.2930 C   0  0  0  0  0  0  0  0  0  0  0  0
  140.1320   71.3580  223.4800 C   0  0  0  0  0  0  0  0  0  0  0  0
  139.4980   70.1350  223.4890 C   0  0  0  0  0  0  0  0  0  0  0  0
  139.3350   69.4540  224.6910 C   0  0  0  0  0  0  0  0  0  0  0  0
  139.8190   70.0320  225.8530 C   0  0  0  0  0  0  0  0  0  0  0  0
  139.6690   69.3740  227.0550 C   0  0  0  0  0  0  0  0  0  0  0  0
  140.1600   69.9650  228.2250 C   0  0  0  0  0  0  0  0  0  0  0  0
  140.7930   71.1930  228.2060 C   0  0  0  0  0  0  0  0  0  0  0  0
  140.9330   71.8340  226.9850 C   0  0  0  0  0  0  0  0  0  0  0  0
  140.4560   71.2690  225.8250 C   0  0  0  0  0  0  0  0  0  0  0  0
  140.5910   71.8940  224.6300 N   0  0  0  0  0  0  0  0  0  0  0  0
  139.6720   73.9190  223.0570 H   0  0  0  0  0  0  0  0  0  0  0  0
  140.6693   73.6120  220.1840 H   0  0  0  0  0  0  0  0  0  0  0  0
  139.1486   74.5122  220.5776 H   0  0  0  0  0  0  0  0  0  0  0  0
  140.2544   77.8728  220.3021 H   0  0  0  0  0  0  0  0  0  0  0  0
  142.0021   78.1798  220.0523 H   0  0  0  0  0  0  0  0  0  0  0  0
  139.9730   77.2063  217.9917 H   0  0  0  0  0  0  0  0  0  0  0  0
  140.8331   78.8083  218.0521 H   0  0  0  0  0  0  0  0  0  0  0  0
  141.6039   76.4876  216.6767 H   0  0  0  0  0  0  0  0  0  0  0  0
  142.5359   78.0191  216.9357 H   0  0  0  0  0  0  0  0  0  0  0  0
  143.7710   75.9107  217.6397 H   0  0  0  0  0  0  0  0  0  0  0  0
  143.6020   77.1112  218.9316 H   0  0  0  0  0  0  0  0  0  0  0  0
  141.5797   74.8292  218.4414 H   0  0  0  0  0  0  0  0  0  0  0  0
  141.8466   72.7232  219.2643 H   0  0  0  0  0  0  0  0  0  0  0  0
  143.2660   71.0229  220.2660 H   0  0  0  0  0  0  0  0  0  0  0  0
  145.4270   71.6844  221.3296 H   0  0  0  0  0  0  0  0  0  0  0  0
  144.6278   75.7925  220.3096 H   0  0  0  0  0  0  0  0  0  0  0  0
  139.1228   69.6995  222.5512 H   0  0  0  0  0  0  0  0  0  0  0  0
  138.8319   68.4762  224.7181 H   0  0  0  0  0  0  0  0  0  0  0  0
  139.1689   68.3951  227.0943 H   0  0  0  0  0  0  0  0  0  0  0  0
  140.0389   69.4387  229.1833 H   0  0  0  0  0  0  0  0  0  0  0  0
  141.1744   71.6482  229.1319 H   0  0  0  0  0  0  0  0  0  0  0  0
  141.4346   72.8121  226.9429 H   0  0  0  0  0  0  0  0  0  0  0  0
  1  2  2  0
  2  3  1  0
  3  4  1  0
  4  5  1  0
  5  6  2  0
  5  7  1  0
  7  8  1  0
  8  9  1  0
  9 10  1  0
 10 11  1  0
 11 12  1  0
 12 13  1  0
 13 14  2  0
 14 15  1  0
 15 16  2  0
 16 17  1  0
 17 18  1  0
 17 19  2  0
  2 20  1  0
 20 21  2  0
 21 22  1  0
 22 23  2  0
 23 24  1  0
 24 25  2  0
 25 26  1  0
 26 27  2  0
 27 28  1  0
 28 29  2  0
 12  7  1  0
 19 13  1  0
 29 20  1  0
 28 23  1  0
  3 30  1  0
  4 31  1  0
  4 32  1  0
  8 33  1  0
  8 34  1  0
  9 35  1  0
  9 36  1  0
 10 37  1  0
 10 38  1  0
 11 39  1  0
 11 40  1  0
 12 41  1  6
 14 42  1  0
 15 43  1  0
 16 44  1  0
 19 45  1  0
 21 46  1  0
 22 47  1  0
 24 48  1  0
 25 49  1  0
 26 50  1  0
 27 51  1  0
M  END
>  <smiles>  (95) 
O=C(NCC(=O)N1CCCCC1c1cccc(F)c1)c1ccc2ccccc2n1

>  <score_type>  (95) 
oracle

>  <origin>  (95) 
autodockgpu

>  <m_score__min__energy>  (95) 
-8.8300000000000001

>  <m_primary>  (95) 
energy

>  <rmsd>  (95) 
2.126505901606377

>  <m_score__min__rmsd>  (95) 
2.126505901606377

>  <meeko>  (95) 
{"free_energy": -8.34, "intermolecular_energy": -9.84, "internal_energy": -1.93, "cluster_size": 30, "cluster_id": 3, "rank_in_cluster": 13}

>  <energy>  (95) 
-7.46

>  <cluster_rmsd>  (95) 
1.91

>  <cluster>  (95) 
3

$$$$

     RDKit          3D

 51 54  0  0  0  0  0  0  0  0999 V2000
  140.4990   71.7210  220.9830 O   0  0  0  0  0  0  0  0  0  0  0  0
  140.1480   72.2710  222.0780 C   0  0  0  0  0  0  0  0  0  0  0  0
  139.8710   73.6700  222.1430 N   0  0  0  0  0  0  0  0  0  0  0  0
  139.9740   74.5210  220.9770 C   0  0  0  0  0  0  0  0  0  0  0  0
  140.9540   75.6290  221.1980 C   0  0  0  0  0  0  0  0  0  0  0  0
  141.4190   75.8130  222.3530 O   0  0  0  0  0  0  0  0  0  0  0  0
  141.3060   76.4220  220.0730 N   0  0  0  0  0  0  0  0  0  0  0  0
  141.1080   75.9830  218.7010 C   0  0  0  0  0  0  0  0  0  0  0  0
  142.2970   76.4170  217.8710 C   0  0  0  0  0  0  0  0  0  0  0  0
  142.5730   77.8880  217.9890 C   0  0  0  0  0  0  0  0  0  0  0  0
  141.6940   78.5390  219.0550 C   0  0  0  0  0  0  0  0  0  0  0  0
  141.8840   77.7190  220.3150 C   0  0  1  0  0  0  0  0  0  0  0  0
  141.3910   78.4100  221.5170 C   0  0  0  0  0  0  0  0  0  0  0  0
  142.2000   79.0020  222.4630 C   0  0  0  0  0  0  0  0  0  0  0  0
  141.7500   79.6430  223.5790 C   0  0  0  0  0  0  0  0  0  0  0  0
  140.3920   79.7220  223.8070 C   0  0  0  0  0  0  0  0  0  0  0  0
  139.5370   79.1500  222.8980 C   0  0  0  0  0  0  0  0  0  0  0  0
  138.1940   79.2370  223.1400 F   0  0  0  0  0  0  0  0  0  0  0  0
  140.0150   78.4980  221.7630 C   0  0  0  0  0  0  0  0  0  0  0  0
  140.0240   71.4630  223.2990 C   0  0  0  0  0  0  0  0  0  0  0  0
  139.3540   70.2610  223.2480 C   0  0  0  0  0  0  0  0  0  0  0  0
  139.2330   69.4920  224.4020 C   0  0  0  0  0  0  0  0  0  0  0  0
  139.7960   69.9640  225.5760 C   0  0  0  0  0  0  0  0  0  0  0  0
  139.6890   69.2180  226.7300 C   0  0  0  0  0  0  0  0  0  0  0  0
  140.2600   69.7010  227.9130 C   0  0  0  0  0  0  0  0  0  0  0  0
  140.9290   70.9080  227.9540 C   0  0  0  0  0  0  0  0  0  0  0  0
  141.0240   71.6400  226.7800 C   0  0  0  0  0  0  0  0  0  0  0  0
  140.4690   71.1810  225.6080 C   0  0  0  0  0  0  0  0  0  0  0  0
  140.5600   71.8940  224.4590 N   0  0  0  0  0  0  0  0  0  0  0  0
  139.5840   74.0550  223.0920 H   0  0  0  0  0  0  0  0  0  0  0  0
  140.3044   73.9160  220.1198 H   0  0  0  0  0  0  0  0  0  0  0  0
  138.9864   74.9646  220.7825 H   0  0  0  0  0  0  0  0  0  0  0  0
  141.0186   74.8870  218.6732 H   0  0  0  0  0  0  0  0  0  0  0  0
  140.1879   76.4294  218.2960 H   0  0  0  0  0  0  0  0  0  0  0  0
  143.1849   75.8630  218.2096 H   0  0  0  0  0  0  0  0  0  0  0  0
  142.0653   76.2034  216.8171 H   0  0  0  0  0  0  0  0  0  0  0  0
  143.6293   78.0328  218.2595 H   0  0  0  0  0  0  0  0  0  0  0  0
  142.3482   78.3599  217.0211 H   0  0  0  0  0  0  0  0  0  0  0  0
  142.0081   79.5793  219.2256 H   0  0  0  0  0  0  0  0  0  0  0  0
  140.6385   78.5622  218.7461 H   0  0  0  0  0  0  0  0  0  0  0  0
  142.9517   77.5823  220.5414 H   0  0  0  0  0  0  0  0  0  0  0  0
  143.2877   78.9538  222.3062 H   0  0  0  0  0  0  0  0  0  0  0  0
  142.4609   80.0915  224.2885 H   0  0  0  0  0  0  0  0  0  0  0  0
  140.0018   80.2332  224.6995 H   0  0  0  0  0  0  0  0  0  0  0  0
  139.3049   78.0482  221.0535 H   0  0  0  0  0  0  0  0  0  0  0  0
  138.9171   69.9107  222.3012 H   0  0  0  0  0  0  0  0  0  0  0  0
  138.7012   68.5293  224.3818 H   0  0  0  0  0  0  0  0  0  0  0  0
  139.1605   68.2533  226.7213 H   0  0  0  0  0  0  0  0  0  0  0  0
  140.1736   69.1041  228.8329 H   0  0  0  0  0  0  0  0  0  0  0  0
  141.3733   71.2779  228.8898 H   0  0  0  0  0  0  0  0  0  0  0  0
  141.5525   72.6047  226.7861 H   0  0  0  0  0  0  0  0  0  0  0  0
  1  2  2  0
  2  3  1  0
  3  4  1  0
  4  5  1  0
  5  6  2  0
  5  7  1  0
  7  8  1  0
  8  9  1  0
  9 10  1  0
 10 11  1  0
 11 12  1  0
 12 13  1  0
 13 14  2  0
 14 15  1  0
 15 16  2  0
 16 17  1  0
 17 18  1  0
 17 19  2  0
  2 20  1  0
 20 21  2  0
 21 22  1  0
 22 23  2  0
 23 24  1  0
 24 25  2  0
 25 26  1  0
 26 27  2  0
 27 28  1  0
 28 29  2  0
 12  7  1  0
 19 13  1  0
 29 20  1  0
 28 23  1  0
  3 30  1  0
  4 31  1  0
  4 32  1  0
  8 33  1  0
  8 34  1  0
  9 35  1  0
  9 36  1  0
 10 37  1  0
 10 38  1  0
 11 39  1  0
 11 40  1  0
 12 41  1  1
 14 42  1  0
 15 43  1  0
 16 44  1  0
 19 45  1  0
 21 46  1  0
 22 47  1  0
 24 48  1  0
 25 49  1  0
 26 50  1  0
 27 51  1  0
M  END
>  <smiles>  (96) 
O=C(NCC(=O)N1CCCCC1c1cccc(F)c1)c1ccc2ccccc2n1

>  <score_type>  (96) 
oracle

>  <origin>  (96) 
autodockgpu

>  <m_score__min__energy>  (96) 
-8.8300000000000001

>  <m_primary>  (96) 
energy

>  <rmsd>  (96) 
1.674589789150726

>  <m_score__min__rmsd>  (96) 
1.674589789150726

>  <meeko>  (96) 
{"free_energy": -8.58, "intermolecular_energy": -10.07, "internal_energy": -1.39, "cluster_size": 13, "cluster_id": 1, "rank_in_cluster": 11}

>  <energy>  (96) 
-7.15

>  <cluster_rmsd>  (96) 
0.0

>  <cluster>  (96) 
4

$$$$

     RDKit          3D

 51 54  0  0  0  0  0  0  0  0999 V2000
  140.7810   71.5330  221.2490 O   0  0  0  0  0  0  0  0  0  0  0  0
  140.3130   72.1360  222.2710 C   0  0  0  0  0  0  0  0  0  0  0  0
  139.9560   73.5170  222.2120 N   0  0  0  0  0  0  0  0  0  0  0  0
  140.1080   74.2900  220.9990 C   0  0  0  0  0  0  0  0  0  0  0  0
  141.0430   75.4410  221.2000 C   0  0  0  0  0  0  0  0  0  0  0  0
  141.3680   75.7660  222.3710 O   0  0  0  0  0  0  0  0  0  0  0  0
  141.5150   76.1090  220.0380 N   0  0  0  0  0  0  0  0  0  0  0  0
  141.2350   77.5080  219.7610 C   0  0  0  0  0  0  0  0  0  0  0  0
  140.9600   77.6680  218.2800 C   0  0  0  0  0  0  0  0  0  0  0  0
  142.0580   77.1020  217.4280 C   0  0  0  0  0  0  0  0  0  0  0  0
  143.0880   76.3500  218.2680 C   0  0  0  0  0  0  0  0  0  0  0  0
  142.3050   75.3540  219.1000 C   0  0  1  0  0  0  0  0  0  0  0  0
  143.1650   74.3190  219.6950 C   0  0  0  0  0  0  0  0  0  0  0  0
  142.8760   72.9720  219.6960 C   0  0  0  0  0  0  0  0  0  0  0  0
  143.6680   72.0070  220.2460 C   0  0  0  0  0  0  0  0  0  0  0  0
  144.8500   72.3740  220.8550 C   0  0  0  0  0  0  0  0  0  0  0  0
  145.1900   73.7040  220.8850 C   0  0  0  0  0  0  0  0  0  0  0  0
  146.3650   74.0500  221.4920 F   0  0  0  0  0  0  0  0  0  0  0  0
  144.3680   74.6760  220.3170 C   0  0  0  0  0  0  0  0  0  0  0  0
  140.1340   71.4080  223.5350 C   0  0  0  0  0  0  0  0  0  0  0  0
  139.4500   70.2130  223.5340 C   0  0  0  0  0  0  0  0  0  0  0  0
  139.2770   69.5190  224.7280 C   0  0  0  0  0  0  0  0  0  0  0  0
  139.8040   70.0570  225.8910 C   0  0  0  0  0  0  0  0  0  0  0  0
  139.6450   69.3860  227.0850 C   0  0  0  0  0  0  0  0  0  0  0  0
  140.1800   69.9360  228.2550 C   0  0  0  0  0  0  0  0  0  0  0  0
  140.8640   71.1360  228.2450 C   0  0  0  0  0  0  0  0  0  0  0  0
  141.0120   71.7910  227.0320 C   0  0  0  0  0  0  0  0  0  0  0  0
  140.4930   71.2660  225.8720 C   0  0  0  0  0  0  0  0  0  0  0  0
  140.6350   71.9050  224.6850 N   0  0  0  0  0  0  0  0  0  0  0  0
  139.5740   73.9480  223.1050 H   0  0  0  0  0  0  0  0  0  0  0  0
  140.5066   73.6389  220.2070 H   0  0  0  0  0  0  0  0  0  0  0  0
  139.1227   74.6890  220.7164 H   0  0  0  0  0  0  0  0  0  0  0  0
  140.3549   77.8298  220.3371 H   0  0  0  0  0  0  0  0  0  0  0  0
  142.0984   78.1257  220.0492 H   0  0  0  0  0  0  0  0  0  0  0  0
  140.0214   77.1483  218.0372 H   0  0  0  0  0  0  0  0  0  0  0  0
  140.8924   78.7450  218.0667 H   0  0  0  0  0  0  0  0  0  0  0  0
  141.6200   76.4087  216.6948 H   0  0  0  0  0  0  0  0  0  0  0  0
  142.5674   77.9360  216.9231 H   0  0  0  0  0  0  0  0  0  0  0  0
  143.8023   75.8253  217.6165 H   0  0  0  0  0  0  0  0  0  0  0  0
  143.6675   77.0365  218.9028 H   0  0  0  0  0  0  0  0  0  0  0  0
  141.6214   74.7627  218.4730 H   0  0  0  0  0  0  0  0  0  0  0  0
  141.9384   72.6512  219.2185 H   0  0  0  0  0  0  0  0  0  0  0  0
  143.3678   70.9496  220.2044 H   0  0  0  0  0  0  0  0  0  0  0  0
  145.5069   71.6165  221.3074 H   0  0  0  0  0  0  0  0  0  0  0  0
  144.6671   75.7338  220.3577 H   0  0  0  0  0  0  0  0  0  0  0  0
  139.0428   69.8093  222.5953 H   0  0  0  0  0  0  0  0  0  0  0  0
  138.7331   68.5631  224.7479 H   0  0  0  0  0  0  0  0  0  0  0  0
  139.1036   68.4290  227.1173 H   0  0  0  0  0  0  0  0  0  0  0  0
  140.0527   69.3993  229.2067 H   0  0  0  0  0  0  0  0  0  0  0  0
  141.2789   71.5593  229.1717 H   0  0  0  0  0  0  0  0  0  0  0  0
  141.5541   72.7475  226.9970 H   0  0  0  0  0  0  0  0  0  0  0  0
  1  2  2  0
  2  3  1  0
  3  4  1  0
  4  5  1  0
  5  6  2  0
  5  7  1  0
  7  8  1  0
  8  9  1  0
  9 10  1  0
 10 11  1  0
 11 12  1  0
 12 13  1  0
 13 14  2  0
 14 15  1  0
 15 16  2  0
 16 17  1  0
 17 18  1  0
 17 19  2  0
  2 20  1  0
 20 21  2  0
 21 22  1  0
 22 23  2  0
 23 24  1  0
 24 25  2  0
 25 26  1  0
 26 27  2  0
 27 28  1  0
 28 29  2  0
 12  7  1  0
 19 13  1  0
 29 20  1  0
 28 23  1  0
  3 30  1  0
  4 31  1  0
  4 32  1  0
  8 33  1  0
  8 34  1  0
  9 35  1  0
  9 36  1  0
 10 37  1  0
 10 38  1  0
 11 39  1  0
 11 40  1  0
 12 41  1  6
 14 42  1  0
 15 43  1  0
 16 44  1  0
 19 45  1  0
 21 46  1  0
 22 47  1  0
 24 48  1  0
 25 49  1  0
 26 50  1  0
 27 51  1  0
M  END
>  <smiles>  (97) 
O=C(NCC(=O)N1CCCCC1c1cccc(F)c1)c1ccc2ccccc2n1

>  <score_type>  (97) 
oracle

>  <origin>  (97) 
autodockgpu

>  <m_score__min__energy>  (97) 
-8.8300000000000001

>  <m_primary>  (97) 
energy

>  <rmsd>  (97) 
2.1503076667000496

>  <m_score__min__rmsd>  (97) 
2.1503076667000496

>  <meeko>  (97) 
{"free_energy": -8.34, "intermolecular_energy": -9.83, "internal_energy": -1.9, "cluster_size": 30, "cluster_id": 3, "rank_in_cluster": 15}

>  <energy>  (97) 
-7.14

>  <cluster_rmsd>  (97) 
0.2

>  <cluster>  (97) 
4

$$$$

     RDKit          3D

 51 54  0  0  0  0  0  0  0  0999 V2000
  139.6270   70.4180  221.4140 O   0  0  0  0  0  0  0  0  0  0  0  0
  139.4700   71.2800  222.3400 C   0  0  0  0  0  0  0  0  0  0  0  0
  138.8760   72.5500  222.0710 N   0  0  0  0  0  0  0  0  0  0  0  0
  138.4280   72.9140  220.7440 C   0  0  0  0  0  0  0  0  0  0  0  0
  139.1510   74.1230  220.2390 C   0  0  0  0  0  0  0  0  0  0  0  0
  139.4890   74.1700  219.0280 O   0  0  0  0  0  0  0  0  0  0  0  0
  139.4170   75.1610  221.1720 N   0  0  0  0  0  0  0  0  0  0  0  0
  138.4550   75.5910  222.1740 C   0  0  0  0  0  0  0  0  0  0  0  0
  138.5180   77.0990  222.2970 C   0  0  0  0  0  0  0  0  0  0  0  0
  139.9100   77.5970  222.5580 C   0  0  0  0  0  0  0  0  0  0  0  0
  140.9360   76.4690  222.4560 C   0  0  0  0  0  0  0  0  0  0  0  0
  140.7020   75.8090  221.1120 C   0  0  1  0  0  0  0  0  0  0  0  0
  141.8210   74.9440  220.7070 C   0  0  0  0  0  0  0  0  0  0  0  0
  142.8320   75.3260  219.8530 C   0  0  0  0  0  0  0  0  0  0  0  0
  143.8720   74.5300  219.4730 C   0  0  0  0  0  0  0  0  0  0  0  0
  143.9460   73.2420  219.9610 C   0  0  0  0  0  0  0  0  0  0  0  0
  142.9640   72.8050  220.8170 C   0  0  0  0  0  0  0  0  0  0  0  0
  143.0530   71.5250  221.2910 F   0  0  0  0  0  0  0  0  0  0  0  0
  141.9090   73.6330  221.1940 C   0  0  0  0  0  0  0  0  0  0  0  0
  139.9030   70.9730  223.7100 C   0  0  0  0  0  0  0  0  0  0  0  0
  140.6780   71.8840  224.3940 C   0  0  0  0  0  0  0  0  0  0  0  0
  141.0910   71.5980  225.6910 C   0  0  0  0  0  0  0  0  0  0  0  0
  140.7060   70.3960  226.2610 C   0  0  0  0  0  0  0  0  0  0  0  0
  141.1040   70.0920  227.5460 C   0  0  0  0  0  0  0  0  0  0  0  0
  140.7120   68.8750  228.1140 C   0  0  0  0  0  0  0  0  0  0  0  0
  139.9360   67.9670  227.4200 C   0  0  0  0  0  0  0  0  0  0  0  0
  139.5480   68.2950  226.1290 C   0  0  0  0  0  0  0  0  0  0  0  0
  139.9240   69.4870  225.5540 C   0  0  0  0  0  0  0  0  0  0  0  0
  139.5470   69.8100  224.2930 N   0  0  0  0  0  0  0  0  0  0  0  0
  138.7790   73.2150  222.8950 H   0  0  0  0  0  0  0  0  0  0  0  0
  138.6142   72.0732  220.0597 H   0  0  0  0  0  0  0  0  0  0  0  0
  137.3538   73.1463  220.7916 H   0  0  0  0  0  0  0  0  0  0  0  0
  137.4428   75.2871  221.8688 H   0  0  0  0  0  0  0  0  0  0  0  0
  138.6924   75.1272  223.1428 H   0  0  0  0  0  0  0  0  0  0  0  0
  138.1538   77.5449  221.3597 H   0  0  0  0  0  0  0  0  0  0  0  0
  137.8926   77.3908  223.1536 H   0  0  0  0  0  0  0  0  0  0  0  0
  140.1568   78.3728  221.8182 H   0  0  0  0  0  0  0  0  0  0  0  0
  139.9452   78.0047  223.5791 H   0  0  0  0  0  0  0  0  0  0  0  0
  141.9568   76.8753  222.5093 H   0  0  0  0  0  0  0  0  0  0  0  0
  140.8267   75.7502  223.2814 H   0  0  0  0  0  0  0  0  0  0  0  0
  140.6737   76.5544  220.3036 H   0  0  0  0  0  0  0  0  0  0  0  0
  142.7980   76.3481  219.4478 H   0  0  0  0  0  0  0  0  0  0  0  0
  144.6422   74.9103  218.7859 H   0  0  0  0  0  0  0  0  0  0  0  0
  144.7740   72.5784  219.6709 H   0  0  0  0  0  0  0  0  0  0  0  0
  141.1376   73.2540  221.8806 H   0  0  0  0  0  0  0  0  0  0  0  0
  140.9683   72.8318  223.9172 H   0  0  0  0  0  0  0  0  0  0  0  0
  141.7110   72.3122  226.2527 H   0  0  0  0  0  0  0  0  0  0  0  0
  141.7230   70.7988  228.1182 H   0  0  0  0  0  0  0  0  0  0  0  0
  141.0298   68.6350  229.1394 H   0  0  0  0  0  0  0  0  0  0  0  0
  139.6349   67.0129  227.8771 H   0  0  0  0  0  0  0  0  0  0  0  0
  138.9290   67.5897  225.5551 H   0  0  0  0  0  0  0  0  0  0  0  0
  1  2  2  0
  2  3  1  0
  3  4  1  0
  4  5  1  0
  5  6  2  0
  5  7  1  0
  7  8  1  0
  8  9  1  0
  9 10  1  0
 10 11  1  0
 11 12  1  0
 12 13  1  0
 13 14  2  0
 14 15  1  0
 15 16  2  0
 16 17  1  0
 17 18  1  0
 17 19  2  0
  2 20  1  0
 20 21  2  0
 21 22  1  0
 22 23  2  0
 23 24  1  0
 24 25  2  0
 25 26  1  0
 26 27  2  0
 27 28  1  0
 28 29  2  0
 12  7  1  0
 19 13  1  0
 29 20  1  0
 28 23  1  0
  3 30  1  0
  4 31  1  0
  4 32  1  0
  8 33  1  0
  8 34  1  0
  9 35  1  0
  9 36  1  0
 10 37  1  0
 10 38  1  0
 11 39  1  0
 11 40  1  0
 12 41  1  6
 14 42  1  0
 15 43  1  0
 16 44  1  0
 19 45  1  0
 21 46  1  0
 22 47  1  0
 24 48  1  0
 25 49  1  0
 26 50  1  0
 27 51  1  0
M  END
>  <smiles>  (98) 
O=C(NCC(=O)N1CCCCC1c1cccc(F)c1)c1ccc2ccccc2n1

>  <score_type>  (98) 
oracle

>  <origin>  (98) 
autodockgpu

>  <m_score__min__energy>  (98) 
-8.8300000000000001

>  <m_primary>  (98) 
energy

>  <rmsd>  (98) 
3.3881606881445423

>  <m_score__min__rmsd>  (98) 
3.3881606881445423

>  <meeko>  (98) 
{"free_energy": -7.46, "intermolecular_energy": -8.95, "internal_energy": -1.74, "cluster_size": 30, "cluster_id": 3, "rank_in_cluster": 30}

>  <energy>  (98) 
-7.08

>  <cluster_rmsd>  (98) 
0.22

>  <cluster>  (98) 
4

$$$$

     RDKit          3D

 51 54  0  0  0  0  0  0  0  0999 V2000
  140.5950   71.3570  221.2520 O   0  0  0  0  0  0  0  0  0  0  0  0
  140.2380   71.9810  222.3060 C   0  0  0  0  0  0  0  0  0  0  0  0
  139.9800   73.3850  222.2770 N   0  0  0  0  0  0  0  0  0  0  0  0
  140.1100   74.1580  221.0610 C   0  0  0  0  0  0  0  0  0  0  0  0
  140.5740   75.5510  221.3490 C   0  0  0  0  0  0  0  0  0  0  0  0
  140.4710   75.9990  222.5200 O   0  0  0  0  0  0  0  0  0  0  0  0
  141.1100   76.2970  220.2650 N   0  0  0  0  0  0  0  0  0  0  0  0
  141.0500   75.8430  218.8850 C   0  0  0  0  0  0  0  0  0  0  0  0
  142.3570   76.1850  218.2010 C   0  0  0  0  0  0  0  0  0  0  0  0
  142.7120   77.6380  218.3330 C   0  0  0  0  0  0  0  0  0  0  0  0
  141.7540   78.3640  219.2760 C   0  0  0  0  0  0  0  0  0  0  0  0
  141.7370   77.5590  220.5600 C   0  0  1  0  0  0  0  0  0  0  0  0
  141.1480   78.3040  221.6840 C   0  0  0  0  0  0  0  0  0  0  0  0
  141.8310   78.6590  222.8260 C   0  0  0  0  0  0  0  0  0  0  0  0
  141.2920   79.3490  223.8720 C   0  0  0  0  0  0  0  0  0  0  0  0
  139.9690   79.7340  223.8120 C   0  0  0  0  0  0  0  0  0  0  0  0
  139.2380   79.4070  222.6970 C   0  0  0  0  0  0  0  0  0  0  0  0
  137.9270   79.7950  222.6550 F   0  0  0  0  0  0  0  0  0  0  0  0
  139.8060   78.7010  221.6380 C   0  0  0  0  0  0  0  0  0  0  0  0
  140.0860   71.2550  223.5740 C   0  0  0  0  0  0  0  0  0  0  0  0
  139.5440   69.9880  223.5660 C   0  0  0  0  0  0  0  0  0  0  0  0
  139.3980   69.2960  224.7640 C   0  0  0  0  0  0  0  0  0  0  0  0
  139.8060   69.9070  225.9380 C   0  0  0  0  0  0  0  0  0  0  0  0
  139.6710   69.2390  227.1370 C   0  0  0  0  0  0  0  0  0  0  0  0
  140.0860   69.8640  228.3180 C   0  0  0  0  0  0  0  0  0  0  0  0
  140.6280   71.1340  228.3160 C   0  0  0  0  0  0  0  0  0  0  0  0
  140.7540   71.7850  227.0980 C   0  0  0  0  0  0  0  0  0  0  0  0
  140.3520   71.1880  225.9260 C   0  0  0  0  0  0  0  0  0  0  0  0
  140.4730   71.8220  224.7350 N   0  0  0  0  0  0  0  0  0  0  0  0
  139.6870   73.8330  223.1960 H   0  0  0  0  0  0  0  0  0  0  0  0
  140.8396   73.6667  220.4005 H   0  0  0  0  0  0  0  0  0  0  0  0
  139.1233   74.2137  220.5780 H   0  0  0  0  0  0  0  0  0  0  0  0
  140.8938   74.7544  218.8605 H   0  0  0  0  0  0  0  0  0  0  0  0
  140.2159   76.3370  218.3652 H   0  0  0  0  0  0  0  0  0  0  0  0
  143.1595   75.5833  218.6526 H   0  0  0  0  0  0  0  0  0  0  0  0
  142.2410   75.9653  217.1294 H   0  0  0  0  0  0  0  0  0  0  0  0
  143.7350   77.7217  218.7285 H   0  0  0  0  0  0  0  0  0  0  0  0
  142.6376   78.1036  217.3392 H   0  0  0  0  0  0  0  0  0  0  0  0
  142.1115   79.3859  219.4709 H   0  0  0  0  0  0  0  0  0  0  0  0
  140.7473   78.4468  218.8404 H   0  0  0  0  0  0  0  0  0  0  0  0
  142.7582   77.3598  220.9170 H   0  0  0  0  0  0  0  0  0  0  0  0
  142.8883   78.3646  222.9001 H   0  0  0  0  0  0  0  0  0  0  0  0
  141.9046   79.5951  224.7519 H   0  0  0  0  0  0  0  0  0  0  0  0
  139.5088   80.2918  224.6409 H   0  0  0  0  0  0  0  0  0  0  0  0
  139.1944   78.4534  220.7579 H   0  0  0  0  0  0  0  0  0  0  0  0
  139.2288   69.5268  222.6184 H   0  0  0  0  0  0  0  0  0  0  0  0
  138.9672   68.2840  224.7785 H   0  0  0  0  0  0  0  0  0  0  0  0
  139.2420   68.2265  227.1645 H   0  0  0  0  0  0  0  0  0  0  0  0
  139.9776   69.3295  229.2733 H   0  0  0  0  0  0  0  0  0  0  0  0
  140.9499   71.6145  229.2517 H   0  0  0  0  0  0  0  0  0  0  0  0
  141.1833   72.7974  227.0687 H   0  0  0  0  0  0  0  0  0  0  0  0
  1  2  2  0
  2  3  1  0
  3  4  1  0
  4  5  1  0
  5  6  2  0
  5  7  1  0
  7  8  1  0
  8  9  1  0
  9 10  1  0
 10 11  1  0
 11 12  1  0
 12 13  1  0
 13 14  2  0
 14 15  1  0
 15 16  2  0
 16 17  1  0
 17 18  1  0
 17 19  2  0
  2 20  1  0
 20 21  2  0
 21 22  1  0
 22 23  2  0
 23 24  1  0
 24 25  2  0
 25 26  1  0
 26 27  2  0
 27 28  1  0
 28 29  2  0
 12  7  1  0
 19 13  1  0
 29 20  1  0
 28 23  1  0
  3 30  1  0
  4 31  1  0
  4 32  1  0
  8 33  1  0
  8 34  1  0
  9 35  1  0
  9 36  1  0
 10 37  1  0
 10 38  1  0
 11 39  1  0
 11 40  1  0
 12 41  1  1
 14 42  1  0
 15 43  1  0
 16 44  1  0
 19 45  1  0
 21 46  1  0
 22 47  1  0
 24 48  1  0
 25 49  1  0
 26 50  1  0
 27 51  1  0
M  END
>  <smiles>  (99) 
O=C(NCC(=O)N1CCCCC1c1cccc(F)c1)c1ccc2ccccc2n1

>  <score_type>  (99) 
oracle

>  <origin>  (99) 
autodockgpu

>  <m_score__min__energy>  (99) 
-8.8300000000000001

>  <m_primary>  (99) 
energy

>  <rmsd>  (99) 
1.6772403558330122

>  <m_score__min__rmsd>  (99) 
1.6772403558330122

>  <meeko>  (99) 
{"free_energy": -8.65, "intermolecular_energy": -10.14, "internal_energy": -1.39, "cluster_size": 13, "cluster_id": 1, "rank_in_cluster": 8}

>  <energy>  (99) 
-7.13

>  <cluster_rmsd>  (99) 
0.0

>  <cluster>  (99) 
5

$$$$

     RDKit          3D

 51 54  0  0  0  0  0  0  0  0999 V2000
  140.8090   71.3800  221.2660 O   0  0  0  0  0  0  0  0  0  0  0  0
  140.3910   72.0270  222.2820 C   0  0  0  0  0  0  0  0  0  0  0  0
  140.0830   73.4180  222.1930 N   0  0  0  0  0  0  0  0  0  0  0  0
  140.2300   74.1520  220.9560 C   0  0  0  0  0  0  0  0  0  0  0  0
  140.9820   75.4280  221.1650 C   0  0  0  0  0  0  0  0  0  0  0  0
  141.1880   75.8300  222.3400 O   0  0  0  0  0  0  0  0  0  0  0  0
  141.4250   76.1220  220.0080 N   0  0  0  0  0  0  0  0  0  0  0  0
  141.0170   77.4820  219.6950 C   0  0  0  0  0  0  0  0  0  0  0  0
  140.7790   77.5910  218.2030 C   0  0  0  0  0  0  0  0  0  0  0  0
  141.9580   77.1250  217.3980 C   0  0  0  0  0  0  0  0  0  0  0  0
  143.0290   76.4940  218.2870 C   0  0  0  0  0  0  0  0  0  0  0  0
  142.3210   75.4370  219.1110 C   0  0  1  0  0  0  0  0  0  0  0  0
  143.2590   74.5030  219.7550 C   0  0  0  0  0  0  0  0  0  0  0  0
  144.4550   74.8730  220.3290 C   0  0  0  0  0  0  0  0  0  0  0  0
  145.3290   74.0130  220.9260 C   0  0  0  0  0  0  0  0  0  0  0  0
  145.0230   72.6690  220.9740 C   0  0  0  0  0  0  0  0  0  0  0  0
  143.8420   72.2430  220.4170 C   0  0  0  0  0  0  0  0  0  0  0  0
  143.5540   70.9070  220.4740 F   0  0  0  0  0  0  0  0  0  0  0  0
  142.9610   73.1360  219.8110 C   0  0  0  0  0  0  0  0  0  0  0  0
  140.2200   71.3410  223.5700 C   0  0  0  0  0  0  0  0  0  0  0  0
  139.5760   70.1230  223.6060 C   0  0  0  0  0  0  0  0  0  0  0  0
  139.4110   69.4690  224.8230 C   0  0  0  0  0  0  0  0  0  0  0  0
  139.9030   70.0670  225.9700 C   0  0  0  0  0  0  0  0  0  0  0  0
  139.7510   69.4360  227.1870 C   0  0  0  0  0  0  0  0  0  0  0  0
  140.2500   70.0480  228.3420 C   0  0  0  0  0  0  0  0  0  0  0  0
  140.8940   71.2690  228.2960 C   0  0  0  0  0  0  0  0  0  0  0  0
  141.0350   71.8830  227.0610 C   0  0  0  0  0  0  0  0  0  0  0  0
  140.5510   71.2980  225.9150 C   0  0  0  0  0  0  0  0  0  0  0  0
  140.6870   71.8970  224.7070 N   0  0  0  0  0  0  0  0  0  0  0  0
  139.7400   73.8870  223.0840 H   0  0  0  0  0  0  0  0  0  0  0  0
  140.7764   73.5288  220.2328 H   0  0  0  0  0  0  0  0  0  0  0  0
  139.2268   74.3991  220.5786 H   0  0  0  0  0  0  0  0  0  0  0  0
  140.0898   77.7231  220.2355 H   0  0  0  0  0  0  0  0  0  0  0  0
  141.8044   78.1871  219.9996 H   0  0  0  0  0  0  0  0  0  0  0  0
  139.9061   76.9760  217.9390 H   0  0  0  0  0  0  0  0  0  0  0  0
  140.6115   78.6524  217.9675 H   0  0  0  0  0  0  0  0  0  0  0  0
  141.6176   76.3794  216.6644 H   0  0  0  0  0  0  0  0  0  0  0  0
  142.3983   77.9979  216.8938 H   0  0  0  0  0  0  0  0  0  0  0  0
  143.8151   76.0342  217.6701 H   0  0  0  0  0  0  0  0  0  0  0  0
  143.5138   77.2454  218.9276 H   0  0  0  0  0  0  0  0  0  0  0  0
  141.7235   74.7705  218.4716 H   0  0  0  0  0  0  0  0  0  0  0  0
  144.7248   75.9391  220.3041 H   0  0  0  0  0  0  0  0  0  0  0  0
  146.2664   74.3866  221.3638 H   0  0  0  0  0  0  0  0  0  0  0  0
  145.7104   71.9532  221.4485 H   0  0  0  0  0  0  0  0  0  0  0  0
  142.0232   72.7640  219.3727 H   0  0  0  0  0  0  0  0  0  0  0  0
  139.1949   69.6708  222.6785 H   0  0  0  0  0  0  0  0  0  0  0  0
  138.8998   68.4963  224.8724 H   0  0  0  0  0  0  0  0  0  0  0  0
  139.2430   68.4623  227.2488 H   0  0  0  0  0  0  0  0  0  0  0  0
  140.1262   69.5437  229.3117 H   0  0  0  0  0  0  0  0  0  0  0  0
  141.2830   71.7397  229.2110 H   0  0  0  0  0  0  0  0  0  0  0  0
  141.5436   72.8563  226.9969 H   0  0  0  0  0  0  0  0  0  0  0  0
  1  2  2  0
  2  3  1  0
  3  4  1  0
  4  5  1  0
  5  6  2  0
  5  7  1  0
  7  8  1  0
  8  9  1  0
  9 10  1  0
 10 11  1  0
 11 12  1  0
 12 13  1  0
 13 14  2  0
 14 15  1  0
 15 16  2  0
 16 17  1  0
 17 18  1  0
 17 19  2  0
  2 20  1  0
 20 21  2  0
 21 22  1  0
 22 23  2  0
 23 24  1  0
 24 25  2  0
 25 26  1  0
 26 27  2  0
 27 28  1  0
 28 29  2  0
 12  7  1  0
 19 13  1  0
 29 20  1  0
 28 23  1  0
  3 30  1  0
  4 31  1  0
  4 32  1  0
  8 33  1  0
  8 34  1  0
  9 35  1  0
  9 36  1  0
 10 37  1  0
 10 38  1  0
 11 39  1  0
 11 40  1  0
 12 41  1  6
 14 42  1  0
 15 43  1  0
 16 44  1  0
 19 45  1  0
 21 46  1  0
 22 47  1  0
 24 48  1  0
 25 49  1  0
 26 50  1  0
 27 51  1  0
M  END
>  <smiles>  (100) 
O=C(NCC(=O)N1CCCCC1c1cccc(F)c1)c1ccc2ccccc2n1

>  <score_type>  (100) 
oracle

>  <origin>  (100) 
autodockgpu

>  <m_score__min__energy>  (100) 
-8.8300000000000001

>  <m_primary>  (100) 
energy

>  <rmsd>  (100) 
2.11537000807129

>  <m_score__min__rmsd>  (100) 
2.11537000807129

>  <meeko>  (100) 
{"free_energy": -8.34, "intermolecular_energy": -9.83, "internal_energy": -1.94, "cluster_size": 30, "cluster_id": 3, "rank_in_cluster": 16}

>  <energy>  (100) 
-6.69

>  <cluster_rmsd>  (100) 
0.0

>  <cluster>  (100) 
6

$$$$
