
     RDKit          3D

 51 54  0  0  0  0  0  0  0  0999 V2000
  141.5070   73.1490  220.6680 O   0  0  0  0  0  0  0  0  0  0  0  0
  140.7840   73.9530  221.3500 C   0  0  0  0  0  0  0  0  0  0  0  0
  139.7240   73.4810  222.1570 N   0  0  0  0  0  0  0  0  0  0  0  0
  139.4470   72.0830  222.2170 C   0  0  0  0  0  0  0  0  0  0  0  0
  139.7770   71.4960  223.5540 C   0  0  0  0  0  0  0  0  0  0  0  0
  140.7090   72.0770  224.1850 O   0  0  0  0  0  0  0  0  0  0  0  0
  139.0840   70.3640  224.0640 N   0  0  0  0  0  0  0  0  0  0  0  0
  137.7100   70.0680  223.7170 C   0  0  0  0  0  0  0  0  0  0  0  0
  137.3690   68.9200  224.6330 C   0  0  0  0  0  0  0  0  0  0  0  0
  138.4220   68.9140  225.7210 C   0  0  0  0  0  0  0  0  0  0  0  0
  139.6260   69.3780  224.9700 C   0  0  2  0  0  0  0  0  0  0  0  0
  140.7960   69.7510  225.7550 C   0  0  0  0  0  0  0  0  0  0  0  0
  140.6510   70.8070  226.7730 C   0  0  0  0  0  0  0  0  0  0  0  0
  140.9350   70.1500  228.1070 C   0  0  0  0  0  0  0  0  0  0  0  0
  140.7720   68.6700  227.8750 C   0  0  0  0  0  0  0  0  0  0  0  0
  141.3000   68.4960  226.4750 C   0  0  0  0  0  0  0  0  0  0  0  0
  141.0380   75.4010  221.3150 C   0  0  0  0  0  0  0  0  0  0  0  0
  141.8670   75.8960  220.3040 C   0  0  0  0  0  0  0  0  0  0  0  0
  142.1610   77.2400  220.1920 C   0  0  0  0  0  0  0  0  0  0  0  0
  141.5950   78.0770  221.1310 C   0  0  0  0  0  0  0  0  0  0  0  0
  141.8300   79.4350  221.1030 C   0  0  0  0  0  0  0  0  0  0  0  0
  141.2510   80.2530  222.0540 C   0  0  0  0  0  0  0  0  0  0  0  0
  141.5080   81.9790  222.0720 Cl  0  0  0  0  0  0  0  0  0  0  0  0
  140.4270   79.7200  223.0510 C   0  0  0  0  0  0  0  0  0  0  0  0
  140.1940   78.3600  223.0770 C   0  0  0  0  0  0  0  0  0  0  0  0
  140.7830   77.5410  222.1110 C   0  0  0  0  0  0  0  0  0  0  0  0
  140.5080   76.2280  222.2040 N   0  0  0  0  0  0  0  0  0  0  0  0
  139.1180   74.1410  222.7280 H   0  0  0  0  0  0  0  0  0  0  0  0
  138.3772   71.9253  222.0156 H   0  0  0  0  0  0  0  0  0  0  0  0
  140.0750   71.5826  221.4652 H   0  0  0  0  0  0  0  0  0  0  0  0
  137.0586   70.9335  223.9083 H   0  0  0  0  0  0  0  0  0  0  0  0
  137.5737   69.8283  222.6521 H   0  0  0  0  0  0  0  0  0  0  0  0
  136.3705   69.0662  225.0707 H   0  0  0  0  0  0  0  0  0  0  0  0
  137.3541   67.9651  224.0871 H   0  0  0  0  0  0  0  0  0  0  0  0
  138.1635   69.6077  226.5346 H   0  0  0  0  0  0  0  0  0  0  0  0
  138.5496   67.9406  226.2172 H   0  0  0  0  0  0  0  0  0  0  0  0
  140.1209   68.5582  224.4287 H   0  0  0  0  0  0  0  0  0  0  0  0
  141.4816   70.1806  225.0098 H   0  0  0  0  0  0  0  0  0  0  0  0
  141.3706   71.6178  226.5864 H   0  0  0  0  0  0  0  0  0  0  0  0
  139.6442   71.2496  226.7506 H   0  0  0  0  0  0  0  0  0  0  0  0
  141.9601   70.3762  228.4355 H   0  0  0  0  0  0  0  0  0  0  0  0
  140.2567   70.5152  228.8922 H   0  0  0  0  0  0  0  0  0  0  0  0
  141.3628   68.0875  228.5973 H   0  0  0  0  0  0  0  0  0  0  0  0
  139.7367   68.3195  227.9985 H   0  0  0  0  0  0  0  0  0  0  0  0
  142.3991   68.4525  226.4701 H   0  0  0  0  0  0  0  0  0  0  0  0
  140.9662   67.5616  226.0001 H   0  0  0  0  0  0  0  0  0  0  0  0
  142.2980   75.1932  219.5758 H   0  0  0  0  0  0  0  0  0  0  0  0
  142.8137   77.6242  219.3942 H   0  0  0  0  0  0  0  0  0  0  0  0
  142.4771   79.8665  220.3251 H   0  0  0  0  0  0  0  0  0  0  0  0
  139.9701   80.3773  223.8055 H   0  0  0  0  0  0  0  0  0  0  0  0
  139.5485   77.9238  223.8536 H   0  0  0  0  0  0  0  0  0  0  0  0
  1  2  2  0
  2  3  1  0
  3  4  1  0
  4  5  1  0
  5  6  2  0
  5  7  1  0
  7  8  1  0
  8  9  1  0
  9 10  1  0
 10 11  1  0
 11 12  1  0
 12 13  1  0
 13 14  1  0
 14 15  1  0
 15 16  1  0
  2 17  1  0
 17 18  2  0
 18 19  1  0
 19 20  2  0
 20 21  1  0
 21 22  2  0
 22 23  1  0
 22 24  1  0
 24 25  2  0
 25 26  1  0
 26 27  2  0
 11  7  1  0
 16 12  1  0
 27 17  1  0
 26 20  1  0
  3 28  1  0
  4 29  1  0
  4 30  1  0
  8 31  1  0
  8 32  1  0
  9 33  1  0
  9 34  1  0
 10 35  1  0
 10 36  1  0
 11 37  1  6
 12 38  1  0
 13 39  1  0
 13 40  1  0
 14 41  1  0
 14 42  1  0
 15 43  1  0
 15 44  1  0
 16 45  1  0
 16 46  1  0
 18 47  1  0
 19 48  1  0
 21 49  1  0
 24 50  1  0
 25 51  1  0
M  END
>  <smiles>  (1) 
O=C(NCC(=O)N1CCCC1C1CCCC1)c1ccc2cc(Cl)ccc2n1

>  <score_type>  (1) 
oracle

>  <origin>  (1) 
autodockgpu

>  <m_score__min__energy>  (1) 
-8.7400000000000002

>  <m_primary>  (1) 
energy

>  <rmsd>  (1) 
8.51011823178325

>  <m_score__min__rmsd>  (1) 
8.51011823178325

>  <meeko>  (1) 
{"free_energy": -8.43, "intermolecular_energy": -9.92, "internal_energy": -1.34, "cluster_size": 2, "cluster_id": 2, "rank_in_cluster": 1}

>  <energy>  (1) 
-8.74

>  <cluster_rmsd>  (1) 
0.0

>  <cluster>  (1) 
1

$$$$

     RDKit          3D

 51 54  0  0  0  0  0  0  0  0999 V2000
  140.1460   72.5200  220.7750 O   0  0  0  0  0  0  0  0  0  0  0  0
  139.9200   72.9010  221.9740 C   0  0  0  0  0  0  0  0  0  0  0  0
  139.6200   74.2500  222.2700 N   0  0  0  0  0  0  0  0  0  0  0  0
  139.5670   75.2120  221.2180 C   0  0  0  0  0  0  0  0  0  0  0  0
  140.9060   75.8210  220.9400 C   0  0  0  0  0  0  0  0  0  0  0  0
  141.9020   75.1160  221.2780 O   0  0  0  0  0  0  0  0  0  0  0  0
  141.0320   77.1040  220.3370 N   0  0  0  0  0  0  0  0  0  0  0  0
  141.3240   77.2810  218.9300 C   0  0  0  0  0  0  0  0  0  0  0  0
  141.5500   78.7670  218.8160 C   0  0  0  0  0  0  0  0  0  0  0  0
  141.7830   79.2740  220.2240 C   0  0  0  0  0  0  0  0  0  0  0  0
  140.8920   78.3720  221.0140 C   0  0  2  0  0  0  0  0  0  0  0  0
  141.0490   78.3880  222.4620 C   0  0  0  0  0  0  0  0  0  0  0  0
  142.2470   79.0280  223.0330 C   0  0  0  0  0  0  0  0  0  0  0  0
  141.7500   80.1970  223.8570 C   0  0  0  0  0  0  0  0  0  0  0  0
  140.3530   80.4770  223.3660 C   0  0  0  0  0  0  0  0  0  0  0  0
  139.8290   79.0980  223.0610 C   0  0  0  0  0  0  0  0  0  0  0  0
  139.9650   71.9400  223.0850 C   0  0  0  0  0  0  0  0  0  0  0  0
  139.4700   70.6520  222.8580 C   0  0  0  0  0  0  0  0  0  0  0  0
  139.4720   69.6840  223.8420 C   0  0  0  0  0  0  0  0  0  0  0  0
  139.9880   70.0490  225.0680 C   0  0  0  0  0  0  0  0  0  0  0  0
  140.0320   69.1520  226.1130 C   0  0  0  0  0  0  0  0  0  0  0  0
  140.5550   69.5420  227.3330 C   0  0  0  0  0  0  0  0  0  0  0  0
  140.6400   68.4530  228.6950 Cl  0  0  0  0  0  0  0  0  0  0  0  0
  141.0390   70.8400  227.5220 C   0  0  0  0  0  0  0  0  0  0  0  0
  140.9930   71.7360  226.4730 C   0  0  0  0  0  0  0  0  0  0  0  0
  140.4640   71.3330  225.2440 C   0  0  0  0  0  0  0  0  0  0  0  0
  140.4540   72.2640  224.2740 N   0  0  0  0  0  0  0  0  0  0  0  0
  139.4300   74.5770  223.2630 H   0  0  0  0  0  0  0  0  0  0  0  0
  139.2061   74.7177  220.3040 H   0  0  0  0  0  0  0  0  0  0  0  0
  138.8881   76.0185  221.5321 H   0  0  0  0  0  0  0  0  0  0  0  0
  142.2248   76.7205  218.6394 H   0  0  0  0  0  0  0  0  0  0  0  0
  140.5242   76.9119  218.2711 H   0  0  0  0  0  0  0  0  0  0  0  0
  142.4298   78.9708  218.1879 H   0  0  0  0  0  0  0  0  0  0  0  0
  140.6878   79.2666  218.3501 H   0  0  0  0  0  0  0  0  0  0  0  0
  142.8357   79.1620  220.5228 H   0  0  0  0  0  0  0  0  0  0  0  0
  141.5702   80.3450  220.3570 H   0  0  0  0  0  0  0  0  0  0  0  0
  139.8470   78.7153  221.0186 H   0  0  0  0  0  0  0  0  0  0  0  0
  141.1574   77.3245  222.7211 H   0  0  0  0  0  0  0  0  0  0  0  0
  142.7920   78.3165  223.6707 H   0  0  0  0  0  0  0  0  0  0  0  0
  142.9387   79.3591  222.2444 H   0  0  0  0  0  0  0  0  0  0  0  0
  141.7358   79.9348  224.9252 H   0  0  0  0  0  0  0  0  0  0  0  0
  142.4022   81.0762  223.7492 H   0  0  0  0  0  0  0  0  0  0  0  0
  139.7497   80.9679  224.1438 H   0  0  0  0  0  0  0  0  0  0  0  0
  140.3211   81.1579  222.5026 H   0  0  0  0  0  0  0  0  0  0  0  0
  139.4885   78.5932  223.9771 H   0  0  0  0  0  0  0  0  0  0  0  0
  138.9587   79.1048  222.3883 H   0  0  0  0  0  0  0  0  0  0  0  0
  139.0669   70.4027  221.8653 H   0  0  0  0  0  0  0  0  0  0  0  0
  139.0817   68.6722  223.6577 H   0  0  0  0  0  0  0  0  0  0  0  0
  139.6523   68.1285  225.9776 H   0  0  0  0  0  0  0  0  0  0  0  0
  141.4517   71.1437  228.4954 H   0  0  0  0  0  0  0  0  0  0  0  0
  141.3704   72.7609  226.6037 H   0  0  0  0  0  0  0  0  0  0  0  0
  1  2  2  0
  2  3  1  0
  3  4  1  0
  4  5  1  0
  5  6  2  0
  5  7  1  0
  7  8  1  0
  8  9  1  0
  9 10  1  0
 10 11  1  0
 11 12  1  0
 12 13  1  0
 13 14  1  0
 14 15  1  0
 15 16  1  0
  2 17  1  0
 17 18  2  0
 18 19  1  0
 19 20  2  0
 20 21  1  0
 21 22  2  0
 22 23  1  0
 22 24  1  0
 24 25  2  0
 25 26  1  0
 26 27  2  0
 11  7  1  0
 16 12  1  0
 27 17  1  0
 26 20  1  0
  3 28  1  0
  4 29  1  0
  4 30  1  0
  8 31  1  0
  8 32  1  0
  9 33  1  0
  9 34  1  0
 10 35  1  0
 10 36  1  0
 11 37  1  1
 12 38  1  0
 13 39  1  0
 13 40  1  0
 14 41  1  0
 14 42  1  0
 15 43  1  0
 15 44  1  0
 16 45  1  0
 16 46  1  0
 18 47  1  0
 19 48  1  0
 21 49  1  0
 24 50  1  0
 25 51  1  0
M  END
>  <smiles>  (2) 
O=C(NCC(=O)N1CCCC1C1CCCC1)c1ccc2cc(Cl)ccc2n1

>  <score_type>  (2) 
oracle

>  <origin>  (2) 
autodockgpu

>  <m_score__min__energy>  (2) 
-8.7400000000000002

>  <m_primary>  (2) 
energy

>  <rmsd>  (2) 
2.1975315813611758

>  <m_score__min__rmsd>  (2) 
2.1975315813611758

>  <meeko>  (2) 
{"free_energy": -8.35, "intermolecular_energy": -9.85, "internal_energy": -1.4, "cluster_size": 38, "cluster_id": 1, "rank_in_cluster": 26}

>  <energy>  (2) 
-8.6

>  <cluster_rmsd>  (2) 
1.11

>  <cluster>  (2) 
1

$$$$

     RDKit          3D

 51 54  0  0  0  0  0  0  0  0999 V2000
  140.6850   72.5190  220.7560 O   0  0  0  0  0  0  0  0  0  0  0  0
  140.2820   72.9040  221.9070 C   0  0  0  0  0  0  0  0  0  0  0  0
  139.8970   74.2440  222.1380 N   0  0  0  0  0  0  0  0  0  0  0  0
  139.9570   75.1930  221.0750 C   0  0  0  0  0  0  0  0  0  0  0  0
  139.9470   76.6050  221.5730 C   0  0  0  0  0  0  0  0  0  0  0  0
  139.4540   76.7670  222.7270 O   0  0  0  0  0  0  0  0  0  0  0  0
  140.4580   77.6760  220.7890 N   0  0  0  0  0  0  0  0  0  0  0  0
  140.8070   77.5260  219.3920 C   0  0  0  0  0  0  0  0  0  0  0  0
  141.4680   78.8400  219.0650 C   0  0  0  0  0  0  0  0  0  0  0  0
  141.8240   79.4820  220.3890 C   0  0  0  0  0  0  0  0  0  0  0  0
  140.6950   79.0240  221.2520 C   0  0  2  0  0  0  0  0  0  0  0  0
  140.8300   79.2320  222.6890 C   0  0  0  0  0  0  0  0  0  0  0  0
  142.1450   79.0020  223.3110 C   0  0  0  0  0  0  0  0  0  0  0  0
  142.5900   80.3380  223.8650 C   0  0  0  0  0  0  0  0  0  0  0  0
  141.7610   81.3740  223.1490 C   0  0  0  0  0  0  0  0  0  0  0  0
  140.4320   80.6800  222.9950 C   0  0  0  0  0  0  0  0  0  0  0  0
  140.2070   71.9570  223.0280 C   0  0  0  0  0  0  0  0  0  0  0  0
  139.6010   70.7170  222.8000 C   0  0  0  0  0  0  0  0  0  0  0  0
  139.4860   69.7660  223.7920 C   0  0  0  0  0  0  0  0  0  0  0  0
  139.9990   70.0960  225.0290 C   0  0  0  0  0  0  0  0  0  0  0  0
  139.9310   69.2130  226.0840 C   0  0  0  0  0  0  0  0  0  0  0  0
  140.4530   69.5680  227.3140 C   0  0  0  0  0  0  0  0  0  0  0  0
  140.3990   68.4920  228.6880 Cl  0  0  0  0  0  0  0  0  0  0  0  0
  141.0500   70.8170  227.5050 C   0  0  0  0  0  0  0  0  0  0  0  0
  141.1170   71.7010  226.4460 C   0  0  0  0  0  0  0  0  0  0  0  0
  140.5880   71.3330  225.2070 C   0  0  0  0  0  0  0  0  0  0  0  0
  140.6910   72.2490  224.2270 N   0  0  0  0  0  0  0  0  0  0  0  0
  139.5610   74.5740  223.0900 H   0  0  0  0  0  0  0  0  0  0  0  0
  140.8819   75.0260  220.5034 H   0  0  0  0  0  0  0  0  0  0  0  0
  139.0654   75.0514  220.4465 H   0  0  0  0  0  0  0  0  0  0  0  0
  141.5026   76.6864  219.2462 H   0  0  0  0  0  0  0  0  0  0  0  0
  139.9415   77.3045  218.7502 H   0  0  0  0  0  0  0  0  0  0  0  0
  142.3764   78.6705  218.4682 H   0  0  0  0  0  0  0  0  0  0  0  0
  140.8004   79.4859  218.4759 H   0  0  0  0  0  0  0  0  0  0  0  0
  142.7914   79.1179  220.7654 H   0  0  0  0  0  0  0  0  0  0  0  0
  141.9392   80.5749  220.3421 H   0  0  0  0  0  0  0  0  0  0  0  0
  139.8013   79.6552  221.1385 H   0  0  0  0  0  0  0  0  0  0  0  0
  140.1818   78.4574  223.1247 H   0  0  0  0  0  0  0  0  0  0  0  0
  142.0595   78.2628  224.1211 H   0  0  0  0  0  0  0  0  0  0  0  0
  142.8695   78.6090  222.5826 H   0  0  0  0  0  0  0  0  0  0  0  0
  142.4079   80.3834  224.9489 H   0  0  0  0  0  0  0  0  0  0  0  0
  143.6666   80.5027  223.7111 H   0  0  0  0  0  0  0  0  0  0  0  0
  141.6637   82.2900  223.7503 H   0  0  0  0  0  0  0  0  0  0  0  0
  142.1978   81.7011  222.1939 H   0  0  0  0  0  0  0  0  0  0  0  0
  139.8449   80.7405  223.9233 H   0  0  0  0  0  0  0  0  0  0  0  0
  139.7977   81.1281  222.2160 H   0  0  0  0  0  0  0  0  0  0  0  0
  139.2040   70.4937  221.7987 H   0  0  0  0  0  0  0  0  0  0  0  0
  139.0088   68.7925  223.6060 H   0  0  0  0  0  0  0  0  0  0  0  0
  139.4622   68.2272  225.9481 H   0  0  0  0  0  0  0  0  0  0  0  0
  141.4616   71.0928  228.4871 H   0  0  0  0  0  0  0  0  0  0  0  0
  141.5839   72.6883  226.5775 H   0  0  0  0  0  0  0  0  0  0  0  0
  1  2  2  0
  2  3  1  0
  3  4  1  0
  4  5  1  0
  5  6  2  0
  5  7  1  0
  7  8  1  0
  8  9  1  0
  9 10  1  0
 10 11  1  0
 11 12  1  0
 12 13  1  0
 13 14  1  0
 14 15  1  0
 15 16  1  0
  2 17  1  0
 17 18  2  0
 18 19  1  0
 19 20  2  0
 20 21  1  0
 21 22  2  0
 22 23  1  0
 22 24  1  0
 24 25  2  0
 25 26  1  0
 26 27  2  0
 11  7  1  0
 16 12  1  0
 27 17  1  0
 26 20  1  0
  3 28  1  0
  4 29  1  0
  4 30  1  0
  8 31  1  0
  8 32  1  0
  9 33  1  0
  9 34  1  0
 10 35  1  0
 10 36  1  0
 11 37  1  6
 12 38  1  0
 13 39  1  0
 13 40  1  0
 14 41  1  0
 14 42  1  0
 15 43  1  0
 15 44  1  0
 16 45  1  0
 16 46  1  0
 18 47  1  0
 19 48  1  0
 21 49  1  0
 24 50  1  0
 25 51  1  0
M  END
>  <smiles>  (3) 
O=C(NCC(=O)N1CCCC1C1CCCC1)c1ccc2cc(Cl)ccc2n1

>  <score_type>  (3) 
oracle

>  <origin>  (3) 
autodockgpu

>  <m_score__min__energy>  (3) 
-8.7400000000000002

>  <m_primary>  (3) 
energy

>  <rmsd>  (3) 
2.3739987091472288

>  <m_score__min__rmsd>  (3) 
2.3739987091472288

>  <meeko>  (3) 
{"free_energy": -8.57, "intermolecular_energy": -10.07, "internal_energy": -1.76, "cluster_size": 38, "cluster_id": 1, "rank_in_cluster": 3}

>  <energy>  (3) 
-8.57

>  <cluster_rmsd>  (3) 
1.11

>  <cluster>  (3) 
1

$$$$

     RDKit          3D

 51 54  0  0  0  0  0  0  0  0999 V2000
  139.7390   72.2610  220.7890 O   0  0  0  0  0  0  0  0  0  0  0  0
  139.7130   72.6640  222.0020 C   0  0  0  0  0  0  0  0  0  0  0  0
  139.5690   74.0340  222.3170 N   0  0  0  0  0  0  0  0  0  0  0  0
  139.4500   74.9930  221.2680 C   0  0  0  0  0  0  0  0  0  0  0  0
  138.9160   76.3040  221.7560 C   0  0  0  0  0  0  0  0  0  0  0  0
  138.2540   76.2510  222.8330 O   0  0  0  0  0  0  0  0  0  0  0  0
  139.1450   77.5150  221.0450 N   0  0  0  0  0  0  0  0  0  0  0  0
  139.0320   77.6090  219.6050 C   0  0  0  0  0  0  0  0  0  0  0  0
  139.5480   78.9950  219.3150 C   0  0  0  0  0  0  0  0  0  0  0  0
  140.3040   79.4380  220.5500 C   0  0  0  0  0  0  0  0  0  0  0  0
  139.5110   78.7830  221.6320 C   0  0  2  0  0  0  0  0  0  0  0  0
  140.0950   78.7670  222.9670 C   0  0  0  0  0  0  0  0  0  0  0  0
  141.5400   78.5100  223.0980 C   0  0  0  0  0  0  0  0  0  0  0  0
  142.1400   79.7630  223.7000 C   0  0  0  0  0  0  0  0  0  0  0  0
  141.1270   80.8540  223.4630 C   0  0  0  0  0  0  0  0  0  0  0  0
  139.8180   80.1260  223.6190 C   0  0  0  0  0  0  0  0  0  0  0  0
  139.8330   71.7060  223.1110 C   0  0  0  0  0  0  0  0  0  0  0  0
  139.4110   70.3920  222.8900 C   0  0  0  0  0  0  0  0  0  0  0  0
  139.4860   69.4250  223.8720 C   0  0  0  0  0  0  0  0  0  0  0  0
  140.0010   69.8180  225.0900 C   0  0  0  0  0  0  0  0  0  0  0  0
  140.1150   68.9250  226.1330 C   0  0  0  0  0  0  0  0  0  0  0  0
  140.6350   69.3440  227.3440 C   0  0  0  0  0  0  0  0  0  0  0  0
  140.8060   68.2610  228.7020 Cl  0  0  0  0  0  0  0  0  0  0  0  0
  141.0460   70.6670  227.5270 C   0  0  0  0  0  0  0  0  0  0  0  0
  140.9300   71.5610  226.4800 C   0  0  0  0  0  0  0  0  0  0  0  0
  140.4040   71.1280  225.2600 C   0  0  0  0  0  0  0  0  0  0  0  0
  140.3230   72.0570  224.2910 N   0  0  0  0  0  0  0  0  0  0  0  0
  139.5460   74.3790  223.3210 H   0  0  0  0  0  0  0  0  0  0  0  0
  140.4432   75.1582  220.8251 H   0  0  0  0  0  0  0  0  0  0  0  0
  138.7413   74.5954  220.5267 H   0  0  0  0  0  0  0  0  0  0  0  0
  139.6493   76.8454  219.1092 H   0  0  0  0  0  0  0  0  0  0  0  0
  138.0085   77.4416  219.2383 H   0  0  0  0  0  0  0  0  0  0  0  0
  140.2199   78.9761  218.4442 H   0  0  0  0  0  0  0  0  0  0  0  0
  138.7244   79.6862  219.0828 H   0  0  0  0  0  0  0  0  0  0  0  0
  141.3427   79.0762  220.5372 H   0  0  0  0  0  0  0  0  0  0  0  0
  140.3927   80.5293  220.6554 H   0  0  0  0  0  0  0  0  0  0  0  0
  138.6247   79.3709  221.9129 H   0  0  0  0  0  0  0  0  0  0  0  0
  139.6171   77.9009  223.4481 H   0  0  0  0  0  0  0  0  0  0  0  0
  141.7155   77.6481  223.7585 H   0  0  0  0  0  0  0  0  0  0  0  0
  141.9950   78.2761  222.1242 H   0  0  0  0  0  0  0  0  0  0  0  0
  142.3117   79.6265  224.7779 H   0  0  0  0  0  0  0  0  0  0  0  0
  143.1124   80.0060  223.2468 H   0  0  0  0  0  0  0  0  0  0  0  0
  141.2262   81.6568  224.2084 H   0  0  0  0  0  0  0  0  0  0  0  0
  141.2383   81.3501  222.4876 H   0  0  0  0  0  0  0  0  0  0  0  0
  139.5559   80.0083  224.6808 H   0  0  0  0  0  0  0  0  0  0  0  0
  138.9704   80.6589  223.1635 H   0  0  0  0  0  0  0  0  0  0  0  0
  139.0069   70.1203  221.9036 H   0  0  0  0  0  0  0  0  0  0  0  0
  139.1518   68.3925  223.6924 H   0  0  0  0  0  0  0  0  0  0  0  0
  139.7932   67.8812  226.0028 H   0  0  0  0  0  0  0  0  0  0  0  0
  141.4573   70.9930  228.4937 H   0  0  0  0  0  0  0  0  0  0  0  0
  141.2494   72.6061  226.6059 H   0  0  0  0  0  0  0  0  0  0  0  0
  1  2  2  0
  2  3  1  0
  3  4  1  0
  4  5  1  0
  5  6  2  0
  5  7  1  0
  7  8  1  0
  8  9  1  0
  9 10  1  0
 10 11  1  0
 11 12  1  0
 12 13  1  0
 13 14  1  0
 14 15  1  0
 15 16  1  0
  2 17  1  0
 17 18  2  0
 18 19  1  0
 19 20  2  0
 20 21  1  0
 21 22  2  0
 22 23  1  0
 22 24  1  0
 24 25  2  0
 25 26  1  0
 26 27  2  0
 11  7  1  0
 16 12  1  0
 27 17  1  0
 26 20  1  0
  3 28  1  0
  4 29  1  0
  4 30  1  0
  8 31  1  0
  8 32  1  0
  9 33  1  0
  9 34  1  0
 10 35  1  0
 10 36  1  0
 11 37  1  1
 12 38  1  0
 13 39  1  0
 13 40  1  0
 14 41  1  0
 14 42  1  0
 15 43  1  0
 15 44  1  0
 16 45  1  0
 16 46  1  0
 18 47  1  0
 19 48  1  0
 21 49  1  0
 24 50  1  0
 25 51  1  0
M  END
>  <smiles>  (4) 
O=C(NCC(=O)N1CCCC1C1CCCC1)c1ccc2cc(Cl)ccc2n1

>  <score_type>  (4) 
oracle

>  <origin>  (4) 
autodockgpu

>  <m_score__min__energy>  (4) 
-8.7400000000000002

>  <m_primary>  (4) 
energy

>  <rmsd>  (4) 
2.2209637489461307

>  <m_score__min__rmsd>  (4) 
2.2209637489461307

>  <meeko>  (4) 
{"free_energy": -7.96, "intermolecular_energy": -9.45, "internal_energy": -1.82, "cluster_size": 38, "cluster_id": 1, "rank_in_cluster": 35}

>  <energy>  (4) 
-8.57

>  <cluster_rmsd>  (4) 
1.11

>  <cluster>  (4) 
1

$$$$

     RDKit          3D

 51 54  0  0  0  0  0  0  0  0999 V2000
  138.5010   72.7350  220.8380 O   0  0  0  0  0  0  0  0  0  0  0  0
  139.4240   72.8800  221.7100 C   0  0  0  0  0  0  0  0  0  0  0  0
  140.3380   73.9560  221.6380 N   0  0  0  0  0  0  0  0  0  0  0  0
  140.2380   74.9010  220.5740 C   0  0  0  0  0  0  0  0  0  0  0  0
  141.4510   75.7720  220.4740 C   0  0  0  0  0  0  0  0  0  0  0  0
  142.5260   75.2530  220.8950 O   0  0  0  0  0  0  0  0  0  0  0  0
  141.3820   77.0890  219.9410 N   0  0  0  0  0  0  0  0  0  0  0  0
  141.5860   77.3760  218.5360 C   0  0  0  0  0  0  0  0  0  0  0  0
  141.6110   78.8820  218.4990 C   0  0  0  0  0  0  0  0  0  0  0  0
  141.8380   79.3420  219.9230 C   0  0  0  0  0  0  0  0  0  0  0  0
  141.1080   78.2910  220.6930 C   0  0  2  0  0  0  0  0  0  0  0  0
  141.3240   78.2530  222.1340 C   0  0  0  0  0  0  0  0  0  0  0  0
  142.2820   79.2030  222.7260 C   0  0  0  0  0  0  0  0  0  0  0  0
  141.4810   80.0870  223.6570 C   0  0  0  0  0  0  0  0  0  0  0  0
  140.0440   79.9360  223.2270 C   0  0  0  0  0  0  0  0  0  0  0  0
  139.9740   78.4870  222.8200 C   0  0  0  0  0  0  0  0  0  0  0  0
  139.5600   71.9270  222.8210 C   0  0  0  0  0  0  0  0  0  0  0  0
  138.9760   70.6650  222.6770 C   0  0  0  0  0  0  0  0  0  0  0  0
  139.0530   69.7070  223.6670 C   0  0  0  0  0  0  0  0  0  0  0  0
  139.7370   70.0540  224.8140 C   0  0  0  0  0  0  0  0  0  0  0  0
  139.8670   69.1650  225.8580 C   0  0  0  0  0  0  0  0  0  0  0  0
  140.5580   69.5380  226.9970 C   0  0  0  0  0  0  0  0  0  0  0  0
  140.7580   68.4570  228.3530 Cl  0  0  0  0  0  0  0  0  0  0  0  0
  141.1270   70.8100  227.1040 C   0  0  0  0  0  0  0  0  0  0  0  0
  140.9950   71.6990  226.0560 C   0  0  0  0  0  0  0  0  0  0  0  0
  140.2960   71.3130  224.9100 C   0  0  0  0  0  0  0  0  0  0  0  0
  140.2110   72.2350  223.9340 N   0  0  0  0  0  0  0  0  0  0  0  0
  141.1080   74.0850  222.3570 H   0  0  0  0  0  0  0  0  0  0  0  0
  140.1146   74.3557  219.6267 H   0  0  0  0  0  0  0  0  0  0  0  0
  139.3734   75.5493  220.7790 H   0  0  0  0  0  0  0  0  0  0  0  0
  142.5384   76.9558  218.1807 H   0  0  0  0  0  0  0  0  0  0  0  0
  140.8128   76.9388  217.8871 H   0  0  0  0  0  0  0  0  0  0  0  0
  142.4279   79.2329  217.8513 H   0  0  0  0  0  0  0  0  0  0  0  0
  140.6711   79.2861  218.0950 H   0  0  0  0  0  0  0  0  0  0  0  0
  142.9085   79.3550  220.1756 H   0  0  0  0  0  0  0  0  0  0  0  0
  141.4937   80.3672  220.1243 H   0  0  0  0  0  0  0  0  0  0  0  0
  140.0285   78.4930  220.7553 H   0  0  0  0  0  0  0  0  0  0  0  0
  141.7785   77.2653  222.3008 H   0  0  0  0  0  0  0  0  0  0  0  0
  143.0577   78.6619  223.2877 H   0  0  0  0  0  0  0  0  0  0  0  0
  142.7901   79.7949  221.9504 H   0  0  0  0  0  0  0  0  0  0  0  0
  141.6059   79.7588  224.6995 H   0  0  0  0  0  0  0  0  0  0  0  0
  141.8119   81.1348  223.6067 H   0  0  0  0  0  0  0  0  0  0  0  0
  139.3561   80.1487  224.0586 H   0  0  0  0  0  0  0  0  0  0  0  0
  139.7516   80.6304  222.4256 H   0  0  0  0  0  0  0  0  0  0  0  0
  139.8593   77.8352  223.6986 H   0  0  0  0  0  0  0  0  0  0  0  0
  139.1146   78.2611  222.1716 H   0  0  0  0  0  0  0  0  0  0  0  0
  138.4390   70.4287  221.7465 H   0  0  0  0  0  0  0  0  0  0  0  0
  138.5918   68.7155  223.5477 H   0  0  0  0  0  0  0  0  0  0  0  0
  139.4227   68.1613  225.7863 H   0  0  0  0  0  0  0  0  0  0  0  0
  141.6740   71.0997  228.0133 H   0  0  0  0  0  0  0  0  0  0  0  0
  141.4371   72.7040  226.1230 H   0  0  0  0  0  0  0  0  0  0  0  0
  1  2  2  0
  2  3  1  0
  3  4  1  0
  4  5  1  0
  5  6  2  0
  5  7  1  0
  7  8  1  0
  8  9  1  0
  9 10  1  0
 10 11  1  0
 11 12  1  0
 12 13  1  0
 13 14  1  0
 14 15  1  0
 15 16  1  0
  2 17  1  0
 17 18  2  0
 18 19  1  0
 19 20  2  0
 20 21  1  0
 21 22  2  0
 22 23  1  0
 22 24  1  0
 24 25  2  0
 25 26  1  0
 26 27  2  0
 11  7  1  0
 16 12  1  0
 27 17  1  0
 26 20  1  0
  3 28  1  0
  4 29  1  0
  4 30  1  0
  8 31  1  0
  8 32  1  0
  9 33  1  0
  9 34  1  0
 10 35  1  0
 10 36  1  0
 11 37  1  1
 12 38  1  0
 13 39  1  0
 13 40  1  0
 14 41  1  0
 14 42  1  0
 15 43  1  0
 15 44  1  0
 16 45  1  0
 16 46  1  0
 18 47  1  0
 19 48  1  0
 21 49  1  0
 24 50  1  0
 25 51  1  0
M  END
>  <smiles>  (5) 
O=C(NCC(=O)N1CCCC1C1CCCC1)c1ccc2cc(Cl)ccc2n1

>  <score_type>  (5) 
oracle

>  <origin>  (5) 
autodockgpu

>  <m_score__min__energy>  (5) 
-8.7400000000000002

>  <m_primary>  (5) 
energy

>  <rmsd>  (5) 
2.31039086079262

>  <m_score__min__rmsd>  (5) 
2.31039086079262

>  <meeko>  (5) 
{"free_energy": -7.43, "intermolecular_energy": -8.92, "internal_energy": -1.85, "cluster_size": 38, "cluster_id": 1, "rank_in_cluster": 38}

>  <energy>  (5) 
-8.57

>  <cluster_rmsd>  (5) 
1.1

>  <cluster>  (5) 
1

$$$$

     RDKit          3D

 51 54  0  0  0  0  0  0  0  0999 V2000
  140.7520   72.5900  220.8490 O   0  0  0  0  0  0  0  0  0  0  0  0
  140.0970   72.8680  221.9120 C   0  0  0  0  0  0  0  0  0  0  0  0
  139.3800   74.0800  222.0360 N   0  0  0  0  0  0  0  0  0  0  0  0
  139.3820   75.0180  220.9610 C   0  0  0  0  0  0  0  0  0  0  0  0
  140.0390   76.3090  221.3370 C   0  0  0  0  0  0  0  0  0  0  0  0
  141.2440   76.4310  220.9710 O   0  0  0  0  0  0  0  0  0  0  0  0
  139.3410   77.3190  222.0580 N   0  0  0  0  0  0  0  0  0  0  0  0
  137.9130   77.5210  221.9350 C   0  0  0  0  0  0  0  0  0  0  0  0
  137.6830   78.7910  222.7140 C   0  0  0  0  0  0  0  0  0  0  0  0
  139.0380   79.4480  222.8710 C   0  0  0  0  0  0  0  0  0  0  0  0
  139.9320   78.2570  222.9840 C   0  0  2  0  0  0  0  0  0  0  0  0
  141.3670   78.4920  222.8860 C   0  0  0  0  0  0  0  0  0  0  0  0
  141.8670   79.3390  221.7890 C   0  0  0  0  0  0  0  0  0  0  0  0
  142.5040   80.5460  222.4430 C   0  0  0  0  0  0  0  0  0  0  0  0
  141.9470   80.5930  223.8430 C   0  0  0  0  0  0  0  0  0  0  0  0
  141.8300   79.1330  224.1980 C   0  0  0  0  0  0  0  0  0  0  0  0
  140.0710   71.9270  223.0410 C   0  0  0  0  0  0  0  0  0  0  0  0
  139.4990   70.6690  222.8330 C   0  0  0  0  0  0  0  0  0  0  0  0
  139.4300   69.7220  223.8340 C   0  0  0  0  0  0  0  0  0  0  0  0
  139.9560   70.0770  225.0590 C   0  0  0  0  0  0  0  0  0  0  0  0
  139.9340   69.2000  226.1210 C   0  0  0  0  0  0  0  0  0  0  0  0
  140.4680   69.5790  227.3390 C   0  0  0  0  0  0  0  0  0  0  0  0
  140.4710   68.5140  228.7210 Cl  0  0  0  0  0  0  0  0  0  0  0  0
  141.0300   70.8480  227.5090 C   0  0  0  0  0  0  0  0  0  0  0  0
  141.0510   71.7250  226.4430 C   0  0  0  0  0  0  0  0  0  0  0  0
  140.5100   71.3320  225.2160 C   0  0  0  0  0  0  0  0  0  0  0  0
  140.5680   72.2430  224.2290 N   0  0  0  0  0  0  0  0  0  0  0  0
  138.8330   74.3190  222.9130 H   0  0  0  0  0  0  0  0  0  0  0  0
  139.9237   74.5798  220.1098 H   0  0  0  0  0  0  0  0  0  0  0  0
  138.3355   75.2354  220.7012 H   0  0  0  0  0  0  0  0  0  0  0  0
  137.6202   77.6444  220.8819 H   0  0  0  0  0  0  0  0  0  0  0  0
  137.3210   76.6713  222.3058 H   0  0  0  0  0  0  0  0  0  0  0  0
  136.9994   79.4554  222.1651 H   0  0  0  0  0  0  0  0  0  0  0  0
  137.2259   78.5813  223.6923 H   0  0  0  0  0  0  0  0  0  0  0  0
  139.2924   80.0601  221.9932 H   0  0  0  0  0  0  0  0  0  0  0  0
  139.1050   80.1427  223.7213 H   0  0  0  0  0  0  0  0  0  0  0  0
  139.9622   77.8534  224.0068 H   0  0  0  0  0  0  0  0  0  0  0  0
  141.7782   77.4946  222.6712 H   0  0  0  0  0  0  0  0  0  0  0  0
  142.6117   78.7908  221.1933 H   0  0  0  0  0  0  0  0  0  0  0  0
  141.0545   79.6342  221.1088 H   0  0  0  0  0  0  0  0  0  0  0  0
  143.5981   80.4353  222.4691 H   0  0  0  0  0  0  0  0  0  0  0  0
  142.2862   81.4705  221.8882 H   0  0  0  0  0  0  0  0  0  0  0  0
  142.6335   81.1143  224.5264 H   0  0  0  0  0  0  0  0  0  0  0  0
  140.9953   81.1396  223.9177 H   0  0  0  0  0  0  0  0  0  0  0  0
  142.8008   78.7249  224.5157 H   0  0  0  0  0  0  0  0  0  0  0  0
  141.1431   78.9458  225.0365 H   0  0  0  0  0  0  0  0  0  0  0  0
  139.0912   70.4263  221.8406 H   0  0  0  0  0  0  0  0  0  0  0  0
  138.9783   68.7336  223.6639 H   0  0  0  0  0  0  0  0  0  0  0  0
  139.4924   68.1998  226.0004 H   0  0  0  0  0  0  0  0  0  0  0  0
  141.4507   71.1442  228.4812 H   0  0  0  0  0  0  0  0  0  0  0  0
  141.4907   72.7266  226.5587 H   0  0  0  0  0  0  0  0  0  0  0  0
  1  2  2  0
  2  3  1  0
  3  4  1  0
  4  5  1  0
  5  6  2  0
  5  7  1  0
  7  8  1  0
  8  9  1  0
  9 10  1  0
 10 11  1  0
 11 12  1  0
 12 13  1  0
 13 14  1  0
 14 15  1  0
 15 16  1  0
  2 17  1  0
 17 18  2  0
 18 19  1  0
 19 20  2  0
 20 21  1  0
 21 22  2  0
 22 23  1  0
 22 24  1  0
 24 25  2  0
 25 26  1  0
 26 27  2  0
 11  7  1  0
 16 12  1  0
 27 17  1  0
 26 20  1  0
  3 28  1  0
  4 29  1  0
  4 30  1  0
  8 31  1  0
  8 32  1  0
  9 33  1  0
  9 34  1  0
 10 35  1  0
 10 36  1  0
 11 37  1  1
 12 38  1  0
 13 39  1  0
 13 40  1  0
 14 41  1  0
 14 42  1  0
 15 43  1  0
 15 44  1  0
 16 45  1  0
 16 46  1  0
 18 47  1  0
 19 48  1  0
 21 49  1  0
 24 50  1  0
 25 51  1  0
M  END
>  <smiles>  (6) 
O=C(NCC(=O)N1CCCC1C1CCCC1)c1ccc2cc(Cl)ccc2n1

>  <score_type>  (6) 
oracle

>  <origin>  (6) 
autodockgpu

>  <m_score__min__energy>  (6) 
-8.7400000000000002

>  <m_primary>  (6) 
energy

>  <rmsd>  (6) 
3.09532988184465

>  <m_score__min__rmsd>  (6) 
3.09532988184465

>  <meeko>  (6) 
{"free_energy": -8.74, "intermolecular_energy": -10.23, "internal_energy": -1.2, "cluster_size": 38, "cluster_id": 1, "rank_in_cluster": 1}

>  <energy>  (6) 
-8.57

>  <cluster_rmsd>  (6) 
0.35

>  <cluster>  (6) 
1

$$$$

     RDKit          3D

 51 54  0  0  0  0  0  0  0  0999 V2000
  140.0170   72.6820  220.4760 O   0  0  0  0  0  0  0  0  0  0  0  0
  139.8670   73.0150  221.7020 C   0  0  0  0  0  0  0  0  0  0  0  0
  139.6960   74.3660  222.0790 N   0  0  0  0  0  0  0  0  0  0  0  0
  139.6900   75.3850  221.0810 C   0  0  0  0  0  0  0  0  0  0  0  0
  140.3950   76.6260  221.5340 C   0  0  0  0  0  0  0  0  0  0  0  0
  140.6810   76.6660  222.7670 O   0  0  0  0  0  0  0  0  0  0  0  0
  140.7130   77.6770  220.6290 N   0  0  0  0  0  0  0  0  0  0  0  0
  141.0840   77.4350  219.2510 C   0  0  0  0  0  0  0  0  0  0  0  0
  141.5060   78.8000  218.7710 C   0  0  0  0  0  0  0  0  0  0  0  0
  141.7440   79.6360  220.0110 C   0  0  0  0  0  0  0  0  0  0  0  0
  140.7110   79.0870  220.9390 C   0  0  2  0  0  0  0  0  0  0  0  0
  140.8060   79.4730  222.3410 C   0  0  0  0  0  0  0  0  0  0  0  0
  142.0930   79.2910  223.0340 C   0  0  0  0  0  0  0  0  0  0  0  0
  142.5600   80.6750  223.4310 C   0  0  0  0  0  0  0  0  0  0  0  0
  141.7850   81.6310  222.5600 C   0  0  0  0  0  0  0  0  0  0  0  0
  140.4420   80.9580  222.4480 C   0  0  0  0  0  0  0  0  0  0  0  0
  139.8670   71.9930  222.7590 C   0  0  0  0  0  0  0  0  0  0  0  0
  139.3180   70.7420  222.4620 C   0  0  0  0  0  0  0  0  0  0  0  0
  139.2750   69.7230  223.3910 C   0  0  0  0  0  0  0  0  0  0  0  0
  139.8030   69.9980  224.6360 C   0  0  0  0  0  0  0  0  0  0  0  0
  139.8060   69.0440  225.6310 C   0  0  0  0  0  0  0  0  0  0  0  0
  140.3410   69.3440  226.8690 C   0  0  0  0  0  0  0  0  0  0  0  0
  140.3760   68.1800  228.1700 Cl  0  0  0  0  0  0  0  0  0  0  0  0
  140.8810   70.6080  227.1290 C   0  0  0  0  0  0  0  0  0  0  0  0
  140.8770   71.5610  226.1300 C   0  0  0  0  0  0  0  0  0  0  0  0
  140.3350   71.2490  224.8820 C   0  0  0  0  0  0  0  0  0  0  0  0
  140.3670   72.2300  223.9630 N   0  0  0  0  0  0  0  0  0  0  0  0
  139.5700   74.6520  223.0940 H   0  0  0  0  0  0  0  0  0  0  0  0
  140.1918   75.0015  220.1804 H   0  0  0  0  0  0  0  0  0  0  0  0
  138.6422   75.6487  220.8745 H   0  0  0  0  0  0  0  0  0  0  0  0
  141.9155   76.7178  219.1852 H   0  0  0  0  0  0  0  0  0  0  0  0
  140.2715   76.9964  218.6531 H   0  0  0  0  0  0  0  0  0  0  0  0
  142.4303   78.7260  218.1792 H   0  0  0  0  0  0  0  0  0  0  0  0
  140.7362   79.2516  218.1280 H   0  0  0  0  0  0  0  0  0  0  0  0
  142.7596   79.4885  220.4069 H   0  0  0  0  0  0  0  0  0  0  0  0
  141.6675   80.7205  219.8438 H   0  0  0  0  0  0  0  0  0  0  0  0
  139.7206   79.5364  220.7746 H   0  0  0  0  0  0  0  0  0  0  0  0
  140.1210   78.7767  222.8470 H   0  0  0  0  0  0  0  0  0  0  0  0
  141.9594   78.6631  223.9272 H   0  0  0  0  0  0  0  0  0  0  0  0
  142.8286   78.7906  222.3871 H   0  0  0  0  0  0  0  0  0  0  0  0
  142.3444   80.8628  224.4932 H   0  0  0  0  0  0  0  0  0  0  0  0
  143.6455   80.7918  223.2971 H   0  0  0  0  0  0  0  0  0  0  0  0
  141.6958   82.6187  223.0360 H   0  0  0  0  0  0  0  0  0  0  0  0
  142.2617   81.8212  221.5871 H   0  0  0  0  0  0  0  0  0  0  0  0
  139.8279   81.1509  223.3400 H   0  0  0  0  0  0  0  0  0  0  0  0
  139.8463   81.3199  221.5970 H   0  0  0  0  0  0  0  0  0  0  0  0
  138.9078   70.5648  221.4569 H   0  0  0  0  0  0  0  0  0  0  0  0
  138.8417   68.7408  223.1514 H   0  0  0  0  0  0  0  0  0  0  0  0
  139.3836   68.0465  225.4398 H   0  0  0  0  0  0  0  0  0  0  0  0
  141.3038   70.8399  228.1177 H   0  0  0  0  0  0  0  0  0  0  0  0
  141.2983   72.5599  226.3164 H   0  0  0  0  0  0  0  0  0  0  0  0
  1  2  2  0
  2  3  1  0
  3  4  1  0
  4  5  1  0
  5  6  2  0
  5  7  1  0
  7  8  1  0
  8  9  1  0
  9 10  1  0
 10 11  1  0
 11 12  1  0
 12 13  1  0
 13 14  1  0
 14 15  1  0
 15 16  1  0
  2 17  1  0
 17 18  2  0
 18 19  1  0
 19 20  2  0
 20 21  1  0
 21 22  2  0
 22 23  1  0
 22 24  1  0
 24 25  2  0
 25 26  1  0
 26 27  2  0
 11  7  1  0
 16 12  1  0
 27 17  1  0
 26 20  1  0
  3 28  1  0
  4 29  1  0
  4 30  1  0
  8 31  1  0
  8 32  1  0
  9 33  1  0
  9 34  1  0
 10 35  1  0
 10 36  1  0
 11 37  1  6
 12 38  1  0
 13 39  1  0
 13 40  1  0
 14 41  1  0
 14 42  1  0
 15 43  1  0
 15 44  1  0
 16 45  1  0
 16 46  1  0
 18 47  1  0
 19 48  1  0
 21 49  1  0
 24 50  1  0
 25 51  1  0
M  END
>  <smiles>  (7) 
O=C(NCC(=O)N1CCCC1C1CCCC1)c1ccc2cc(Cl)ccc2n1

>  <score_type>  (7) 
oracle

>  <origin>  (7) 
autodockgpu

>  <m_score__min__energy>  (7) 
-8.7400000000000002

>  <m_primary>  (7) 
energy

>  <rmsd>  (7) 
2.3399345546280084

>  <m_score__min__rmsd>  (7) 
2.3399345546280084

>  <meeko>  (7) 
{"free_energy": -8.26, "intermolecular_energy": -9.76, "internal_energy": -1.7, "cluster_size": 38, "cluster_id": 1, "rank_in_cluster": 30}

>  <energy>  (7) 
-8.57

>  <cluster_rmsd>  (7) 
1.12

>  <cluster>  (7) 
1

$$$$

     RDKit          3D

 51 54  0  0  0  0  0  0  0  0999 V2000
  140.8870   72.6120  220.9240 O   0  0  0  0  0  0  0  0  0  0  0  0
  140.2860   72.9130  222.0120 C   0  0  0  0  0  0  0  0  0  0  0  0
  139.6750   74.1750  222.1880 N   0  0  0  0  0  0  0  0  0  0  0  0
  139.7260   75.1400  221.1390 C   0  0  0  0  0  0  0  0  0  0  0  0
  139.2690   76.4920  221.5890 C   0  0  0  0  0  0  0  0  0  0  0  0
  138.5470   76.5010  222.6290 O   0  0  0  0  0  0  0  0  0  0  0  0
  139.6300   77.6750  220.8850 N   0  0  0  0  0  0  0  0  0  0  0  0
  139.6800   77.7380  219.4390 C   0  0  0  0  0  0  0  0  0  0  0  0
  140.2860   79.0940  219.1820 C   0  0  0  0  0  0  0  0  0  0  0  0
  140.9210   79.5340  220.4840 C   0  0  0  0  0  0  0  0  0  0  0  0
  139.9840   78.9400  221.4840 C   0  0  2  0  0  0  0  0  0  0  0  0
  140.4170   78.9320  222.8760 C   0  0  0  0  0  0  0  0  0  0  0  0
  141.8330   78.6560  223.1700 C   0  0  0  0  0  0  0  0  0  0  0  0
  142.3830   79.9070  223.8210 C   0  0  0  0  0  0  0  0  0  0  0  0
  141.4200   81.0100  223.4620 C   0  0  0  0  0  0  0  0  0  0  0  0
  140.0900   80.3030  223.4790 C   0  0  0  0  0  0  0  0  0  0  0  0
  140.2130   71.9460  223.1170 C   0  0  0  0  0  0  0  0  0  0  0  0
  139.6020   70.7130  222.8700 C   0  0  0  0  0  0  0  0  0  0  0  0
  139.4870   69.7440  223.8460 C   0  0  0  0  0  0  0  0  0  0  0  0
  140.0080   70.0510  225.0860 C   0  0  0  0  0  0  0  0  0  0  0  0
  139.9420   69.1490  226.1250 C   0  0  0  0  0  0  0  0  0  0  0  0
  140.4710   69.4800  227.3580 C   0  0  0  0  0  0  0  0  0  0  0  0
  140.4200   68.3810  228.7140 Cl  0  0  0  0  0  0  0  0  0  0  0  0
  141.0740   70.7240  227.5680 C   0  0  0  0  0  0  0  0  0  0  0  0
  141.1390   71.6260  226.5250 C   0  0  0  0  0  0  0  0  0  0  0  0
  140.6020   71.2820  225.2820 C   0  0  0  0  0  0  0  0  0  0  0  0
  140.7040   72.2150  224.3180 N   0  0  0  0  0  0  0  0  0  0  0  0
  139.1740   74.4340  223.0870 H   0  0  0  0  0  0  0  0  0  0  0  0
  140.7629   75.2183  220.7803 H   0  0  0  0  0  0  0  0  0  0  0  0
  139.0489   74.8045  220.3396 H   0  0  0  0  0  0  0  0  0  0  0  0
  140.3135   76.9373  219.0296 H   0  0  0  0  0  0  0  0  0  0  0  0
  138.6969   77.6044  218.9640 H   0  0  0  0  0  0  0  0  0  0  0  0
  141.0478   79.0263  218.3913 H   0  0  0  0  0  0  0  0  0  0  0  0
  139.5242   79.8136  218.8475 H   0  0  0  0  0  0  0  0  0  0  0  0
  141.9372   79.1274  220.5937 H   0  0  0  0  0  0  0  0  0  0  0  0
  141.0476   80.6227  220.5774 H   0  0  0  0  0  0  0  0  0  0  0  0
  139.0988   79.5708  221.6529 H   0  0  0  0  0  0  0  0  0  0  0  0
  139.8759   78.0781  223.3097 H   0  0  0  0  0  0  0  0  0  0  0  0
  141.9199   77.8001  223.8555 H   0  0  0  0  0  0  0  0  0  0  0  0
  142.3895   78.4033  222.2554 H   0  0  0  0  0  0  0  0  0  0  0  0
  142.4327   79.7813  224.9127 H   0  0  0  0  0  0  0  0  0  0  0  0
  143.4032   80.1299  223.4753 H   0  0  0  0  0  0  0  0  0  0  0  0
  141.4487   81.8200  224.2057 H   0  0  0  0  0  0  0  0  0  0  0  0
  141.6466   81.4929  222.5000 H   0  0  0  0  0  0  0  0  0  0  0  0
  139.7096   80.2020  224.5062 H   0  0  0  0  0  0  0  0  0  0  0  0
  139.3066   80.8425  222.9266 H   0  0  0  0  0  0  0  0  0  0  0  0
  139.2004   70.5088  221.8665 H   0  0  0  0  0  0  0  0  0  0  0  0
  139.0044   68.7761  223.6454 H   0  0  0  0  0  0  0  0  0  0  0  0
  139.4693   68.1674  225.9736 H   0  0  0  0  0  0  0  0  0  0  0  0
  141.4917   70.9808  228.5527 H   0  0  0  0  0  0  0  0  0  0  0  0
  141.6104   72.6090  226.6716 H   0  0  0  0  0  0  0  0  0  0  0  0
  1  2  2  0
  2  3  1  0
  3  4  1  0
  4  5  1  0
  5  6  2  0
  5  7  1  0
  7  8  1  0
  8  9  1  0
  9 10  1  0
 10 11  1  0
 11 12  1  0
 12 13  1  0
 13 14  1  0
 14 15  1  0
 15 16  1  0
  2 17  1  0
 17 18  2  0
 18 19  1  0
 19 20  2  0
 20 21  1  0
 21 22  2  0
 22 23  1  0
 22 24  1  0
 24 25  2  0
 25 26  1  0
 26 27  2  0
 11  7  1  0
 16 12  1  0
 27 17  1  0
 26 20  1  0
  3 28  1  0
  4 29  1  0
  4 30  1  0
  8 31  1  0
  8 32  1  0
  9 33  1  0
  9 34  1  0
 10 35  1  0
 10 36  1  0
 11 37  1  1
 12 38  1  0
 13 39  1  0
 13 40  1  0
 14 41  1  0
 14 42  1  0
 15 43  1  0
 15 44  1  0
 16 45  1  0
 16 46  1  0
 18 47  1  0
 19 48  1  0
 21 49  1  0
 24 50  1  0
 25 51  1  0
M  END
>  <smiles>  (8) 
O=C(NCC(=O)N1CCCC1C1CCCC1)c1ccc2cc(Cl)ccc2n1

>  <score_type>  (8) 
oracle

>  <origin>  (8) 
autodockgpu

>  <m_score__min__energy>  (8) 
-8.7400000000000002

>  <m_primary>  (8) 
energy

>  <rmsd>  (8) 
2.333038812115429

>  <m_score__min__rmsd>  (8) 
2.333038812115429

>  <meeko>  (8) 
{"free_energy": -8.23, "intermolecular_energy": -9.72, "internal_energy": -1.81, "cluster_size": 38, "cluster_id": 1, "rank_in_cluster": 31}

>  <energy>  (8) 
-8.55

>  <cluster_rmsd>  (8) 
1.13

>  <cluster>  (8) 
1

$$$$

     RDKit          3D

 51 54  0  0  0  0  0  0  0  0999 V2000
  140.4650   72.3150  220.6800 O   0  0  0  0  0  0  0  0  0  0  0  0
  140.1460   72.7290  221.8460 C   0  0  0  0  0  0  0  0  0  0  0  0
  139.8330   74.0870  222.0820 N   0  0  0  0  0  0  0  0  0  0  0  0
  139.8720   75.0210  221.0040 C   0  0  0  0  0  0  0  0  0  0  0  0
  140.5550   76.2970  221.3840 C   0  0  0  0  0  0  0  0  0  0  0  0
  140.3500   76.6880  222.5700 O   0  0  0  0  0  0  0  0  0  0  0  0
  141.3740   77.0090  220.4630 N   0  0  0  0  0  0  0  0  0  0  0  0
  141.1720   78.4100  220.1600 C   0  0  0  0  0  0  0  0  0  0  0  0
  142.1280   78.6500  219.0190 C   0  0  0  0  0  0  0  0  0  0  0  0
  142.4990   77.2850  218.4770 C   0  0  0  0  0  0  0  0  0  0  0  0
  142.4860   76.4600  219.7220 C   0  0  2  0  0  0  0  0  0  0  0  0
  142.5430   75.0130  219.5600 C   0  0  0  0  0  0  0  0  0  0  0  0
  143.3000   74.4630  218.4210 C   0  0  0  0  0  0  0  0  0  0  0  0
  144.4340   73.6580  219.0170 C   0  0  0  0  0  0  0  0  0  0  0  0
  144.5780   74.1430  220.4370 C   0  0  0  0  0  0  0  0  0  0  0  0
  143.1520   74.4190  220.8350 C   0  0  0  0  0  0  0  0  0  0  0  0
  140.0950   71.7980  222.9830 C   0  0  0  0  0  0  0  0  0  0  0  0
  139.5170   70.5420  222.7760 C   0  0  0  0  0  0  0  0  0  0  0  0
  139.4250   69.6040  223.7830 C   0  0  0  0  0  0  0  0  0  0  0  0
  139.9350   69.9650  225.0130 C   0  0  0  0  0  0  0  0  0  0  0  0
  139.8890   69.0970  226.0820 C   0  0  0  0  0  0  0  0  0  0  0  0
  140.4060   69.4830  227.3050 C   0  0  0  0  0  0  0  0  0  0  0  0
  140.3800   68.4280  228.6960 Cl  0  0  0  0  0  0  0  0  0  0  0  0
  140.9760   70.7480  227.4730 C   0  0  0  0  0  0  0  0  0  0  0  0
  141.0200   71.6160  226.4010 C   0  0  0  0  0  0  0  0  0  0  0  0
  140.4960   71.2170  225.1690 C   0  0  0  0  0  0  0  0  0  0  0  0
  140.5760   72.1200  224.1750 N   0  0  0  0  0  0  0  0  0  0  0  0
  139.5670   74.4420  223.0470 H   0  0  0  0  0  0  0  0  0  0  0  0
  140.4140   74.5667  220.1615 H   0  0  0  0  0  0  0  0  0  0  0  0
  138.8345   75.2628  220.7299 H   0  0  0  0  0  0  0  0  0  0  0  0
  140.1334   78.6026  219.8531 H   0  0  0  0  0  0  0  0  0  0  0  0
  141.3498   79.0704  221.0215 H   0  0  0  0  0  0  0  0  0  0  0  0
  141.6425   79.2510  218.2360 H   0  0  0  0  0  0  0  0  0  0  0  0
  143.0188   79.2012  219.3546 H   0  0  0  0  0  0  0  0  0  0  0  0
  141.7569   76.9260  217.7487 H   0  0  0  0  0  0  0  0  0  0  0  0
  143.4544   77.2620  217.9323 H   0  0  0  0  0  0  0  0  0  0  0  0
  143.4276   76.5391  220.2852 H   0  0  0  0  0  0  0  0  0  0  0  0
  141.4986   74.7346  219.3559 H   0  0  0  0  0  0  0  0  0  0  0  0
  142.6532   73.8162  217.8100 H   0  0  0  0  0  0  0  0  0  0  0  0
  143.6769   75.2628  217.7666 H   0  0  0  0  0  0  0  0  0  0  0  0
  144.1921   72.5850  219.0011 H   0  0  0  0  0  0  0  0  0  0  0  0
  145.3663   73.7877  218.4477 H   0  0  0  0  0  0  0  0  0  0  0  0
  145.0266   73.3693  221.0775 H   0  0  0  0  0  0  0  0  0  0  0  0
  145.2375   75.0178  220.5362 H   0  0  0  0  0  0  0  0  0  0  0  0
  142.6362   73.4913  221.1237 H   0  0  0  0  0  0  0  0  0  0  0  0
  143.0678   75.0863  221.7054 H   0  0  0  0  0  0  0  0  0  0  0  0
  139.1234   70.2942  221.7792 H   0  0  0  0  0  0  0  0  0  0  0  0
  138.9680   68.6178  223.6139 H   0  0  0  0  0  0  0  0  0  0  0  0
  139.4419   68.0990  225.9628 H   0  0  0  0  0  0  0  0  0  0  0  0
  141.3850   71.0485  228.4489 H   0  0  0  0  0  0  0  0  0  0  0  0
  141.4648   72.6155  226.5159 H   0  0  0  0  0  0  0  0  0  0  0  0
  1  2  2  0
  2  3  1  0
  3  4  1  0
  4  5  1  0
  5  6  2  0
  5  7  1  0
  7  8  1  0
  8  9  1  0
  9 10  1  0
 10 11  1  0
 11 12  1  0
 12 13  1  0
 13 14  1  0
 14 15  1  0
 15 16  1  0
  2 17  1  0
 17 18  2  0
 18 19  1  0
 19 20  2  0
 20 21  1  0
 21 22  2  0
 22 23  1  0
 22 24  1  0
 24 25  2  0
 25 26  1  0
 26 27  2  0
 11  7  1  0
 16 12  1  0
 27 17  1  0
 26 20  1  0
  3 28  1  0
  4 29  1  0
  4 30  1  0
  8 31  1  0
  8 32  1  0
  9 33  1  0
  9 34  1  0
 10 35  1  0
 10 36  1  0
 11 37  1  1
 12 38  1  0
 13 39  1  0
 13 40  1  0
 14 41  1  0
 14 42  1  0
 15 43  1  0
 15 44  1  0
 16 45  1  0
 16 46  1  0
 18 47  1  0
 19 48  1  0
 21 49  1  0
 24 50  1  0
 25 51  1  0
M  END
>  <smiles>  (9) 
O=C(NCC(=O)N1CCCC1C1CCCC1)c1ccc2cc(Cl)ccc2n1

>  <score_type>  (9) 
oracle

>  <origin>  (9) 
autodockgpu

>  <m_score__min__energy>  (9) 
-8.7400000000000002

>  <m_primary>  (9) 
energy

>  <rmsd>  (9) 
2.2742246660933656

>  <m_score__min__rmsd>  (9) 
2.2742246660933656

>  <meeko>  (9) 
{"free_energy": -7.63, "intermolecular_energy": -9.12, "internal_energy": -1.88, "cluster_size": 4, "cluster_id": 4, "rank_in_cluster": 3}

>  <energy>  (9) 
-8.54

>  <cluster_rmsd>  (9) 
1.08

>  <cluster>  (9) 
1

$$$$

     RDKit          3D

 51 54  0  0  0  0  0  0  0  0999 V2000
  141.0440   73.2420  221.6800 O   0  0  0  0  0  0  0  0  0  0  0  0
  140.0050   72.9750  222.3760 C   0  0  0  0  0  0  0  0  0  0  0  0
  138.7840   73.6520  222.1580 N   0  0  0  0  0  0  0  0  0  0  0  0
  138.6990   74.6550  221.1480 C   0  0  0  0  0  0  0  0  0  0  0  0
  139.2570   75.9680  221.6030 C   0  0  0  0  0  0  0  0  0  0  0  0
  138.7900   76.4040  222.6960 O   0  0  0  0  0  0  0  0  0  0  0  0
  140.2420   76.6630  220.8470 N   0  0  0  0  0  0  0  0  0  0  0  0
  140.8910   76.0840  219.6900 C   0  0  0  0  0  0  0  0  0  0  0  0
  141.9620   77.0920  219.3630 C   0  0  0  0  0  0  0  0  0  0  0  0
  142.1230   77.9600  220.5930 C   0  0  0  0  0  0  0  0  0  0  0  0
  140.7230   77.9980  221.1120 C   0  0  2  0  0  0  0  0  0  0  0  0
  140.5260   78.5360  222.4520 C   0  0  0  0  0  0  0  0  0  0  0  0
  141.5760   78.3090  223.4610 C   0  0  0  0  0  0  0  0  0  0  0  0
  142.1040   79.6770  223.8370 C   0  0  0  0  0  0  0  0  0  0  0  0
  141.6880   80.5960  222.7170 C   0  0  0  0  0  0  0  0  0  0  0  0
  140.3380   80.0520  222.3300 C   0  0  0  0  0  0  0  0  0  0  0  0
  140.0530   71.9480  223.4270 C   0  0  0  0  0  0  0  0  0  0  0  0
  139.5860   70.6680  223.1140 C   0  0  0  0  0  0  0  0  0  0  0  0
  139.5920   69.6420  224.0360 C   0  0  0  0  0  0  0  0  0  0  0  0
  140.0840   69.9400  225.2900 C   0  0  0  0  0  0  0  0  0  0  0  0
  140.1300   68.9820  226.2800 C   0  0  0  0  0  0  0  0  0  0  0  0
  140.6280   69.3060  227.5280 C   0  0  0  0  0  0  0  0  0  0  0  0
  140.7140   68.1370  228.8220 Cl  0  0  0  0  0  0  0  0  0  0  0  0
  141.0840   70.5980  227.8040 C   0  0  0  0  0  0  0  0  0  0  0  0
  141.0370   71.5560  226.8110 C   0  0  0  0  0  0  0  0  0  0  0  0
  140.5330   71.2200  225.5520 C   0  0  0  0  0  0  0  0  0  0  0  0
  140.5190   72.2080  224.6400 N   0  0  0  0  0  0  0  0  0  0  0  0
  137.9150   73.4380  222.7300 H   0  0  0  0  0  0  0  0  0  0  0  0
  139.2629   74.3175  220.2659 H   0  0  0  0  0  0  0  0  0  0  0  0
  137.6353   74.8051  220.9113 H   0  0  0  0  0  0  0  0  0  0  0  0
  141.3301   75.1048  219.9316 H   0  0  0  0  0  0  0  0  0  0  0  0
  140.2011   75.8975  218.8538 H   0  0  0  0  0  0  0  0  0  0  0  0
  142.9080   76.5804  219.1321 H   0  0  0  0  0  0  0  0  0  0  0  0
  141.6879   77.6936  218.4838 H   0  0  0  0  0  0  0  0  0  0  0  0
  142.8097   77.5031  221.3208 H   0  0  0  0  0  0  0  0  0  0  0  0
  142.5547   78.9513  220.3905 H   0  0  0  0  0  0  0  0  0  0  0  0
  140.1101   78.7574  220.6044 H   0  0  0  0  0  0  0  0  0  0  0  0
  139.6568   77.9772  222.8290 H   0  0  0  0  0  0  0  0  0  0  0  0
  141.1539   77.8073  224.3442 H   0  0  0  0  0  0  0  0  0  0  0  0
  142.3764   77.6647  223.0683 H   0  0  0  0  0  0  0  0  0  0  0  0
  141.6648   80.0094  224.7892 H   0  0  0  0  0  0  0  0  0  0  0  0
  143.1958   79.6683  223.9711 H   0  0  0  0  0  0  0  0  0  0  0  0
  141.6119   81.6368  223.0648 H   0  0  0  0  0  0  0  0  0  0  0  0
  142.4048   80.6217  221.8830 H   0  0  0  0  0  0  0  0  0  0  0  0
  139.5566   80.4095  223.0167 H   0  0  0  0  0  0  0  0  0  0  0  0
  140.0158   80.3683  221.3270 H   0  0  0  0  0  0  0  0  0  0  0  0
  139.2021   70.4731  222.1017 H   0  0  0  0  0  0  0  0  0  0  0  0
  139.2231   68.6368  223.7841 H   0  0  0  0  0  0  0  0  0  0  0  0
  139.7713   67.9621  226.0773 H   0  0  0  0  0  0  0  0  0  0  0  0
  141.4758   70.8487  228.8008 H   0  0  0  0  0  0  0  0  0  0  0  0
  141.3941   72.5773  227.0098 H   0  0  0  0  0  0  0  0  0  0  0  0
  1  2  2  0
  2  3  1  0
  3  4  1  0
  4  5  1  0
  5  6  2  0
  5  7  1  0
  7  8  1  0
  8  9  1  0
  9 10  1  0
 10 11  1  0
 11 12  1  0
 12 13  1  0
 13 14  1  0
 14 15  1  0
 15 16  1  0
  2 17  1  0
 17 18  2  0
 18 19  1  0
 19 20  2  0
 20 21  1  0
 21 22  2  0
 22 23  1  0
 22 24  1  0
 24 25  2  0
 25 26  1  0
 26 27  2  0
 11  7  1  0
 16 12  1  0
 27 17  1  0
 26 20  1  0
  3 28  1  0
  4 29  1  0
  4 30  1  0
  8 31  1  0
  8 32  1  0
  9 33  1  0
  9 34  1  0
 10 35  1  0
 10 36  1  0
 11 37  1  6
 12 38  1  0
 13 39  1  0
 13 40  1  0
 14 41  1  0
 14 42  1  0
 15 43  1  0
 15 44  1  0
 16 45  1  0
 16 46  1  0
 18 47  1  0
 19 48  1  0
 21 49  1  0
 24 50  1  0
 25 51  1  0
M  END
>  <smiles>  (10) 
O=C(NCC(=O)N1CCCC1C1CCCC1)c1ccc2cc(Cl)ccc2n1

>  <score_type>  (10) 
oracle

>  <origin>  (10) 
autodockgpu

>  <m_score__min__energy>  (10) 
-8.7400000000000002

>  <m_primary>  (10) 
energy

>  <rmsd>  (10) 
1.939511947970321

>  <m_score__min__rmsd>  (10) 
1.939511947970321

>  <meeko>  (10) 
{"free_energy": -8.33, "intermolecular_energy": -9.82, "internal_energy": -1.31, "cluster_size": 38, "cluster_id": 1, "rank_in_cluster": 28}

>  <energy>  (10) 
-8.54

>  <cluster_rmsd>  (10) 
1.11

>  <cluster>  (10) 
1

$$$$

     RDKit          3D

 51 54  0  0  0  0  0  0  0  0999 V2000
  140.7610   72.5530  220.8220 O   0  0  0  0  0  0  0  0  0  0  0  0
  140.2800   72.9180  221.9490 C   0  0  0  0  0  0  0  0  0  0  0  0
  139.8110   74.2360  222.1540 N   0  0  0  0  0  0  0  0  0  0  0  0
  139.8740   75.1840  221.0900 C   0  0  0  0  0  0  0  0  0  0  0  0
  139.8230   76.5960  221.5850 C   0  0  0  0  0  0  0  0  0  0  0  0
  139.3000   76.7500  222.7280 O   0  0  0  0  0  0  0  0  0  0  0  0
  140.3310   77.6770  220.8120 N   0  0  0  0  0  0  0  0  0  0  0  0
  140.4270   77.6280  219.3680 C   0  0  0  0  0  0  0  0  0  0  0  0
  141.1860   78.8870  219.0370 C   0  0  0  0  0  0  0  0  0  0  0  0
  141.8310   79.3500  220.3260 C   0  0  0  0  0  0  0  0  0  0  0  0
  140.8090   78.9370  221.3330 C   0  0  2  0  0  0  0  0  0  0  0  0
  141.2010   78.9850  222.7360 C   0  0  0  0  0  0  0  0  0  0  0  0
  142.6060   79.2830  223.0620 C   0  0  0  0  0  0  0  0  0  0  0  0
  142.5940   80.5880  223.8300 C   0  0  0  0  0  0  0  0  0  0  0  0
  141.2670   81.2310  223.5200 C   0  0  0  0  0  0  0  0  0  0  0  0
  140.3410   80.0460  223.4300 C   0  0  0  0  0  0  0  0  0  0  0  0
  140.1980   71.9700  223.0690 C   0  0  0  0  0  0  0  0  0  0  0  0
  139.5710   70.7410  222.8440 C   0  0  0  0  0  0  0  0  0  0  0  0
  139.4480   69.7900  223.8360 C   0  0  0  0  0  0  0  0  0  0  0  0
  139.9770   70.1100  225.0690 C   0  0  0  0  0  0  0  0  0  0  0  0
  139.9030   69.2260  226.1230 C   0  0  0  0  0  0  0  0  0  0  0  0
  140.4410   69.5700  227.3490 C   0  0  0  0  0  0  0  0  0  0  0  0
  140.3800   68.4940  228.7220 Cl  0  0  0  0  0  0  0  0  0  0  0  0
  141.0600   70.8100  227.5360 C   0  0  0  0  0  0  0  0  0  0  0  0
  141.1330   71.6940  226.4790 C   0  0  0  0  0  0  0  0  0  0  0  0
  140.5870   71.3370  225.2430 C   0  0  0  0  0  0  0  0  0  0  0  0
  140.6970   72.2520  224.2650 N   0  0  0  0  0  0  0  0  0  0  0  0
  139.4090   74.5490  223.0850 H   0  0  0  0  0  0  0  0  0  0  0  0
  140.8145   75.0358  220.5391 H   0  0  0  0  0  0  0  0  0  0  0  0
  138.9999   75.0221  220.4421 H   0  0  0  0  0  0  0  0  0  0  0  0
  140.9787   76.7353  219.0383 H   0  0  0  0  0  0  0  0  0  0  0  0
  139.4481   77.5678  218.8698 H   0  0  0  0  0  0  0  0  0  0  0  0
  141.9563   78.6787  218.2798 H   0  0  0  0  0  0  0  0  0  0  0  0
  140.5180   79.6585  218.6263 H   0  0  0  0  0  0  0  0  0  0  0  0
  142.7927   78.8447  220.4986 H   0  0  0  0  0  0  0  0  0  0  0  0
  142.0742   80.4226  220.3467 H   0  0  0  0  0  0  0  0  0  0  0  0
  139.9958   79.6717  221.4277 H   0  0  0  0  0  0  0  0  0  0  0  0
  141.0527   77.9513  223.0816 H   0  0  0  0  0  0  0  0  0  0  0  0
  143.0323   78.4800  223.6813 H   0  0  0  0  0  0  0  0  0  0  0  0
  143.2210   79.3585  222.1531 H   0  0  0  0  0  0  0  0  0  0  0  0
  142.6855   80.3985  224.9097 H   0  0  0  0  0  0  0  0  0  0  0  0
  143.4358   81.2355  223.5436 H   0  0  0  0  0  0  0  0  0  0  0  0
  140.9595   81.9151  224.3247 H   0  0  0  0  0  0  0  0  0  0  0  0
  141.2810   81.8457  222.6079 H   0  0  0  0  0  0  0  0  0  0  0  0
  140.0308   79.7103  224.4306 H   0  0  0  0  0  0  0  0  0  0  0  0
  139.4078   80.2664  222.8910 H   0  0  0  0  0  0  0  0  0  0  0  0
  139.1632   70.5255  221.8454 H   0  0  0  0  0  0  0  0  0  0  0  0
  138.9529   68.8250  223.6528 H   0  0  0  0  0  0  0  0  0  0  0  0
  139.4168   68.2484  225.9893 H   0  0  0  0  0  0  0  0  0  0  0  0
  141.4841   71.0777  228.5150 H   0  0  0  0  0  0  0  0  0  0  0  0
  141.6176   72.6730  226.6083 H   0  0  0  0  0  0  0  0  0  0  0  0
  1  2  2  0
  2  3  1  0
  3  4  1  0
  4  5  1  0
  5  6  2  0
  5  7  1  0
  7  8  1  0
  8  9  1  0
  9 10  1  0
 10 11  1  0
 11 12  1  0
 12 13  1  0
 13 14  1  0
 14 15  1  0
 15 16  1  0
  2 17  1  0
 17 18  2  0
 18 19  1  0
 19 20  2  0
 20 21  1  0
 21 22  2  0
 22 23  1  0
 22 24  1  0
 24 25  2  0
 25 26  1  0
 26 27  2  0
 11  7  1  0
 16 12  1  0
 27 17  1  0
 26 20  1  0
  3 28  1  0
  4 29  1  0
  4 30  1  0
  8 31  1  0
  8 32  1  0
  9 33  1  0
  9 34  1  0
 10 35  1  0
 10 36  1  0
 11 37  1  1
 12 38  1  0
 13 39  1  0
 13 40  1  0
 14 41  1  0
 14 42  1  0
 15 43  1  0
 15 44  1  0
 16 45  1  0
 16 46  1  0
 18 47  1  0
 19 48  1  0
 21 49  1  0
 24 50  1  0
 25 51  1  0
M  END
>  <smiles>  (11) 
O=C(NCC(=O)N1CCCC1C1CCCC1)c1ccc2cc(Cl)ccc2n1

>  <score_type>  (11) 
oracle

>  <origin>  (11) 
autodockgpu

>  <m_score__min__energy>  (11) 
-8.7400000000000002

>  <m_primary>  (11) 
energy

>  <rmsd>  (11) 
2.3141127885689796

>  <m_score__min__rmsd>  (11) 
2.3141127885689796

>  <meeko>  (11) 
{"free_energy": -8.57, "intermolecular_energy": -10.06, "internal_energy": -1.78, "cluster_size": 38, "cluster_id": 1, "rank_in_cluster": 4}

>  <energy>  (11) 
-8.54

>  <cluster_rmsd>  (11) 
1.12

>  <cluster>  (11) 
1

$$$$

     RDKit          3D

 51 54  0  0  0  0  0  0  0  0999 V2000
  141.0350   72.7850  221.1200 O   0  0  0  0  0  0  0  0  0  0  0  0
  140.2820   72.9700  222.1370 C   0  0  0  0  0  0  0  0  0  0  0  0
  139.4840   74.1310  222.2570 N   0  0  0  0  0  0  0  0  0  0  0  0
  139.5150   75.1210  221.2310 C   0  0  0  0  0  0  0  0  0  0  0  0
  138.6330   76.2890  221.5450 C   0  0  0  0  0  0  0  0  0  0  0  0
  137.7080   76.0610  222.3790 O   0  0  0  0  0  0  0  0  0  0  0  0
  138.8340   77.5610  220.9380 N   0  0  0  0  0  0  0  0  0  0  0  0
  138.5730   77.8070  219.5350 C   0  0  0  0  0  0  0  0  0  0  0  0
  139.1100   79.2000  219.3310 C   0  0  0  0  0  0  0  0  0  0  0  0
  140.0100   79.4900  220.5140 C   0  0  0  0  0  0  0  0  0  0  0  0
  139.3100   78.7500  221.6060 C   0  0  2  0  0  0  0  0  0  0  0  0
  140.0310   78.5790  222.8610 C   0  0  0  0  0  0  0  0  0  0  0  0
  141.4710   78.2730  222.8070 C   0  0  0  0  0  0  0  0  0  0  0  0
  142.1760   79.4400  223.4650 C   0  0  0  0  0  0  0  0  0  0  0  0
  141.1850   80.5750  223.4520 C   0  0  0  0  0  0  0  0  0  0  0  0
  139.8730   79.8680  223.6740 C   0  0  0  0  0  0  0  0  0  0  0  0
  140.2240   71.9720  223.2150 C   0  0  0  0  0  0  0  0  0  0  0  0
  139.6500   70.7300  222.9290 C   0  0  0  0  0  0  0  0  0  0  0  0
  139.5530   69.7330  223.8780 C   0  0  0  0  0  0  0  0  0  0  0  0
  140.0510   70.0220  225.1320 C   0  0  0  0  0  0  0  0  0  0  0  0
  139.9990   69.0910  226.1460 C   0  0  0  0  0  0  0  0  0  0  0  0
  140.5050   69.4040  227.3940 C   0  0  0  0  0  0  0  0  0  0  0  0
  140.4700   68.2690  228.7190 Cl  0  0  0  0  0  0  0  0  0  0  0  0
  141.0710   70.6580  227.6430 C   0  0  0  0  0  0  0  0  0  0  0  0
  141.1220   71.5890  226.6240 C   0  0  0  0  0  0  0  0  0  0  0  0
  140.6080   71.2630  225.3670 C   0  0  0  0  0  0  0  0  0  0  0  0
  140.6940   72.2230  224.4290 N   0  0  0  0  0  0  0  0  0  0  0  0
  138.8550   74.2930  223.0970 H   0  0  0  0  0  0  0  0  0  0  0  0
  140.5487   75.4788  221.1152 H   0  0  0  0  0  0  0  0  0  0  0  0
  139.1451   74.6583  220.3041 H   0  0  0  0  0  0  0  0  0  0  0  0
  139.1037   77.0816  218.9008 H   0  0  0  0  0  0  0  0  0  0  0  0
  137.5107   77.7078  219.2672 H   0  0  0  0  0  0  0  0  0  0  0  0
  139.6844   79.2527  218.3943 H   0  0  0  0  0  0  0  0  0  0  0  0
  138.2946   79.9350  219.2612 H   0  0  0  0  0  0  0  0  0  0  0  0
  141.0259   79.1008  220.3515 H   0  0  0  0  0  0  0  0  0  0  0  0
  140.1535   80.5614  220.7175 H   0  0  0  0  0  0  0  0  0  0  0  0
  138.4827   79.3307  222.0401 H   0  0  0  0  0  0  0  0  0  0  0  0
  139.5761   77.6792  223.3009 H   0  0  0  0  0  0  0  0  0  0  0  0
  141.6837   77.3421  223.3530 H   0  0  0  0  0  0  0  0  0  0  0  0
  141.8120   78.1314  221.7708 H   0  0  0  0  0  0  0  0  0  0  0  0
  142.4550   79.1863  224.4983 H   0  0  0  0  0  0  0  0  0  0  0  0
  143.1034   79.7047  222.9359 H   0  0  0  0  0  0  0  0  0  0  0  0
  141.3916   81.2919  224.2604 H   0  0  0  0  0  0  0  0  0  0  0  0
  141.2112   81.1683  222.5261 H   0  0  0  0  0  0  0  0  0  0  0  0
  139.7196   79.6460  224.7404 H   0  0  0  0  0  0  0  0  0  0  0  0
  139.0021   80.4671  223.3698 H   0  0  0  0  0  0  0  0  0  0  0  0
  139.2638   70.5416  221.9164 H   0  0  0  0  0  0  0  0  0  0  0  0
  139.1014   68.7570  223.6465 H   0  0  0  0  0  0  0  0  0  0  0  0
  139.5559   68.1009  225.9632 H   0  0  0  0  0  0  0  0  0  0  0  0
  141.4709   70.9003  228.6387 H   0  0  0  0  0  0  0  0  0  0  0  0
  141.5644   72.5804  226.8013 H   0  0  0  0  0  0  0  0  0  0  0  0
  1  2  2  0
  2  3  1  0
  3  4  1  0
  4  5  1  0
  5  6  2  0
  5  7  1  0
  7  8  1  0
  8  9  1  0
  9 10  1  0
 10 11  1  0
 11 12  1  0
 12 13  1  0
 13 14  1  0
 14 15  1  0
 15 16  1  0
  2 17  1  0
 17 18  2  0
 18 19  1  0
 19 20  2  0
 20 21  1  0
 21 22  2  0
 22 23  1  0
 22 24  1  0
 24 25  2  0
 25 26  1  0
 26 27  2  0
 11  7  1  0
 16 12  1  0
 27 17  1  0
 26 20  1  0
  3 28  1  0
  4 29  1  0
  4 30  1  0
  8 31  1  0
  8 32  1  0
  9 33  1  0
  9 34  1  0
 10 35  1  0
 10 36  1  0
 11 37  1  1
 12 38  1  0
 13 39  1  0
 13 40  1  0
 14 41  1  0
 14 42  1  0
 15 43  1  0
 15 44  1  0
 16 45  1  0
 16 46  1  0
 18 47  1  0
 19 48  1  0
 21 49  1  0
 24 50  1  0
 25 51  1  0
M  END
>  <smiles>  (12) 
O=C(NCC(=O)N1CCCC1C1CCCC1)c1ccc2cc(Cl)ccc2n1

>  <score_type>  (12) 
oracle

>  <origin>  (12) 
autodockgpu

>  <m_score__min__energy>  (12) 
-8.7400000000000002

>  <m_primary>  (12) 
energy

>  <rmsd>  (12) 
2.4015883669192464

>  <m_score__min__rmsd>  (12) 
2.4015883669192464

>  <meeko>  (12) 
{"free_energy": -7.79, "intermolecular_energy": -9.29, "internal_energy": -1.81, "cluster_size": 38, "cluster_id": 1, "rank_in_cluster": 37}

>  <energy>  (12) 
-8.53

>  <cluster_rmsd>  (12) 
1.14

>  <cluster>  (12) 
1

$$$$

     RDKit          3D

 51 54  0  0  0  0  0  0  0  0999 V2000
  140.2650   72.4030  220.6660 O   0  0  0  0  0  0  0  0  0  0  0  0
  140.0280   72.8090  221.8550 C   0  0  0  0  0  0  0  0  0  0  0  0
  139.7400   74.1660  222.1230 N   0  0  0  0  0  0  0  0  0  0  0  0
  139.7100   75.1100  221.0530 C   0  0  0  0  0  0  0  0  0  0  0  0
  139.9810   76.5050  221.5210 C   0  0  0  0  0  0  0  0  0  0  0  0
  139.7310   76.7250  222.7420 O   0  0  0  0  0  0  0  0  0  0  0  0
  140.4830   77.5030  220.6400 N   0  0  0  0  0  0  0  0  0  0  0  0
  140.8730   77.2170  219.2750 C   0  0  0  0  0  0  0  0  0  0  0  0
  141.5060   78.5080  218.8260 C   0  0  0  0  0  0  0  0  0  0  0  0
  141.8100   79.2960  220.0830 C   0  0  0  0  0  0  0  0  0  0  0  0
  140.6720   78.8980  220.9630 C   0  0  2  0  0  0  0  0  0  0  0  0
  140.7640   79.2600  222.3720 C   0  0  0  0  0  0  0  0  0  0  0  0
  142.0360   79.0230  223.0760 C   0  0  0  0  0  0  0  0  0  0  0  0
  142.5460   80.3840  223.4980 C   0  0  0  0  0  0  0  0  0  0  0  0
  141.8160   81.3800  222.6340 C   0  0  0  0  0  0  0  0  0  0  0  0
  140.4520   80.7560  222.4960 C   0  0  0  0  0  0  0  0  0  0  0  0
  140.0500   71.8680  222.9840 C   0  0  0  0  0  0  0  0  0  0  0  0
  139.5460   70.5810  222.7740 C   0  0  0  0  0  0  0  0  0  0  0  0
  139.5260   69.6310  223.7750 C   0  0  0  0  0  0  0  0  0  0  0  0
  140.0290   70.0130  225.0010 C   0  0  0  0  0  0  0  0  0  0  0  0
  140.0510   69.1360  226.0630 C   0  0  0  0  0  0  0  0  0  0  0  0
  140.5610   69.5430  227.2820 C   0  0  0  0  0  0  0  0  0  0  0  0
  140.6170   68.4780  228.6650 Cl  0  0  0  0  0  0  0  0  0  0  0  0
  141.0550   70.8390  227.4540 C   0  0  0  0  0  0  0  0  0  0  0  0
  141.0310   71.7170  226.3880 C   0  0  0  0  0  0  0  0  0  0  0  0
  140.5150   71.2960  225.1610 C   0  0  0  0  0  0  0  0  0  0  0  0
  140.5260   72.2090  224.1730 N   0  0  0  0  0  0  0  0  0  0  0  0
  139.5410   74.5130  223.1070 H   0  0  0  0  0  0  0  0  0  0  0  0
  140.4739   74.8303  220.3125 H   0  0  0  0  0  0  0  0  0  0  0  0
  138.7012   75.0912  220.6149 H   0  0  0  0  0  0  0  0  0  0  0  0
  141.5949   76.3880  219.2355 H   0  0  0  0  0  0  0  0  0  0  0  0
  140.0312   76.9032  218.6403 H   0  0  0  0  0  0  0  0  0  0  0  0
  142.4338   78.3039  218.2714 H   0  0  0  0  0  0  0  0  0  0  0  0
  140.8366   79.0683  218.1567 H   0  0  0  0  0  0  0  0  0  0  0  0
  142.7767   79.0023  220.5180 H   0  0  0  0  0  0  0  0  0  0  0  0
  141.8968   80.3809  219.9235 H   0  0  0  0  0  0  0  0  0  0  0  0
  139.7647   79.4868  220.7627 H   0  0  0  0  0  0  0  0  0  0  0  0
  140.0491   78.5815  222.8604 H   0  0  0  0  0  0  0  0  0  0  0  0
  141.8706   78.3875  223.9585 H   0  0  0  0  0  0  0  0  0  0  0  0
  142.7610   78.5063  222.4300 H   0  0  0  0  0  0  0  0  0  0  0  0
  142.3251   80.5637  224.5605 H   0  0  0  0  0  0  0  0  0  0  0  0
  143.6363   80.4641  223.3766 H   0  0  0  0  0  0  0  0  0  0  0  0
  141.7556   82.3626  223.1248 H   0  0  0  0  0  0  0  0  0  0  0  0
  142.3107   81.5690  221.6699 H   0  0  0  0  0  0  0  0  0  0  0  0
  139.8339   80.9581  223.3832 H   0  0  0  0  0  0  0  0  0  0  0  0
  139.8808   81.1504  221.6427 H   0  0  0  0  0  0  0  0  0  0  0  0
  139.1535   70.3175  221.7808 H   0  0  0  0  0  0  0  0  0  0  0  0
  139.1287   68.6197  223.6035 H   0  0  0  0  0  0  0  0  0  0  0  0
  139.6635   68.1137  225.9415 H   0  0  0  0  0  0  0  0  0  0  0  0
  141.4582   71.1561  228.4270 H   0  0  0  0  0  0  0  0  0  0  0  0
  141.4158   72.7408  226.5050 H   0  0  0  0  0  0  0  0  0  0  0  0
  1  2  2  0
  2  3  1  0
  3  4  1  0
  4  5  1  0
  5  6  2  0
  5  7  1  0
  7  8  1  0
  8  9  1  0
  9 10  1  0
 10 11  1  0
 11 12  1  0
 12 13  1  0
 13 14  1  0
 14 15  1  0
 15 16  1  0
  2 17  1  0
 17 18  2  0
 18 19  1  0
 19 20  2  0
 20 21  1  0
 21 22  2  0
 22 23  1  0
 22 24  1  0
 24 25  2  0
 25 26  1  0
 26 27  2  0
 11  7  1  0
 16 12  1  0
 27 17  1  0
 26 20  1  0
  3 28  1  0
  4 29  1  0
  4 30  1  0
  8 31  1  0
  8 32  1  0
  9 33  1  0
  9 34  1  0
 10 35  1  0
 10 36  1  0
 11 37  1  6
 12 38  1  0
 13 39  1  0
 13 40  1  0
 14 41  1  0
 14 42  1  0
 15 43  1  0
 15 44  1  0
 16 45  1  0
 16 46  1  0
 18 47  1  0
 19 48  1  0
 21 49  1  0
 24 50  1  0
 25 51  1  0
M  END
>  <smiles>  (13) 
O=C(NCC(=O)N1CCCC1C1CCCC1)c1ccc2cc(Cl)ccc2n1

>  <score_type>  (13) 
oracle

>  <origin>  (13) 
autodockgpu

>  <m_score__min__energy>  (13) 
-8.7400000000000002

>  <m_primary>  (13) 
energy

>  <rmsd>  (13) 
2.178603250485607

>  <m_score__min__rmsd>  (13) 
2.178603250485607

>  <meeko>  (13) 
{"free_energy": -8.45, "intermolecular_energy": -9.94, "internal_energy": -1.75, "cluster_size": 38, "cluster_id": 1, "rank_in_cluster": 20}

>  <energy>  (13) 
-8.52

>  <cluster_rmsd>  (13) 
1.13

>  <cluster>  (13) 
1

$$$$

     RDKit          3D

 51 54  0  0  0  0  0  0  0  0999 V2000
  139.8390   72.0880  220.6230 O   0  0  0  0  0  0  0  0  0  0  0  0
  139.7540   72.5530  221.8110 C   0  0  0  0  0  0  0  0  0  0  0  0
  139.6000   73.9380  222.0470 N   0  0  0  0  0  0  0  0  0  0  0  0
  139.5370   74.8420  220.9460 C   0  0  0  0  0  0  0  0  0  0  0  0
  140.1050   76.1860  221.2830 C   0  0  0  0  0  0  0  0  0  0  0  0
  141.2880   76.3890  220.8820 O   0  0  0  0  0  0  0  0  0  0  0  0
  139.3530   77.1540  222.0060 N   0  0  0  0  0  0  0  0  0  0  0  0
  137.9060   77.2050  221.9700 C   0  0  0  0  0  0  0  0  0  0  0  0
  137.5950   78.4820  222.7090 C   0  0  0  0  0  0  0  0  0  0  0  0
  138.8820   79.2780  222.7480 C   0  0  0  0  0  0  0  0  0  0  0  0
  139.9000   78.1900  222.8500 C   0  0  2  0  0  0  0  0  0  0  0  0
  141.2940   78.5630  222.6480 C   0  0  0  0  0  0  0  0  0  0  0  0
  141.6080   79.5820  221.6320 C   0  0  0  0  0  0  0  0  0  0  0  0
  142.2180   80.7500  222.3780 C   0  0  0  0  0  0  0  0  0  0  0  0
  141.8120   80.5700  223.8180 C   0  0  0  0  0  0  0  0  0  0  0  0
  141.8450   79.0730  223.9840 C   0  0  0  0  0  0  0  0  0  0  0  0
  139.8150   71.6530  222.9720 C   0  0  0  0  0  0  0  0  0  0  0  0
  139.2730   70.3710  222.8370 C   0  0  0  0  0  0  0  0  0  0  0  0
  139.2860   69.4590  223.8720 C   0  0  0  0  0  0  0  0  0  0  0  0
  139.8610   69.8730  225.0550 C   0  0  0  0  0  0  0  0  0  0  0  0
  139.9210   69.0340  226.1460 C   0  0  0  0  0  0  0  0  0  0  0  0
  140.5030   69.4730  227.3210 C   0  0  0  0  0  0  0  0  0  0  0  0
  140.6100   68.4590  228.7370 Cl  0  0  0  0  0  0  0  0  0  0  0  0
  141.0340   70.7630  227.4180 C   0  0  0  0  0  0  0  0  0  0  0  0
  140.9730   71.6020  226.3230 C   0  0  0  0  0  0  0  0  0  0  0  0
  140.3830   71.1490  225.1410 C   0  0  0  0  0  0  0  0  0  0  0  0
  140.3620   72.0250  224.1210 N   0  0  0  0  0  0  0  0  0  0  0  0
  139.5280   74.3330  223.0300 H   0  0  0  0  0  0  0  0  0  0  0  0
  140.1066   74.4174  220.1062 H   0  0  0  0  0  0  0  0  0  0  0  0
  138.4778   74.9798  220.6830 H   0  0  0  0  0  0  0  0  0  0  0  0
  137.5372   77.2472  220.9345 H   0  0  0  0  0  0  0  0  0  0  0  0
  137.4291   76.3190  222.4144 H   0  0  0  0  0  0  0  0  0  0  0  0
  136.8140   79.0474  222.1795 H   0  0  0  0  0  0  0  0  0  0  0  0
  137.2234   78.2751  223.7234 H   0  0  0  0  0  0  0  0  0  0  0  0
  139.0167   79.8700  221.8307 H   0  0  0  0  0  0  0  0  0  0  0  0
  138.9295   80.0154  223.5628 H   0  0  0  0  0  0  0  0  0  0  0  0
  140.0356   77.8411  223.8843 H   0  0  0  0  0  0  0  0  0  0  0  0
  141.7545   77.6410  222.2635 H   0  0  0  0  0  0  0  0  0  0  0  0
  142.3243   79.1817  220.8994 H   0  0  0  0  0  0  0  0  0  0  0  0
  140.7074   79.8866  221.0788 H   0  0  0  0  0  0  0  0  0  0  0  0
  143.3139   80.7353  222.2837 H   0  0  0  0  0  0  0  0  0  0  0  0
  141.8726   81.7139  221.9759 H   0  0  0  0  0  0  0  0  0  0  0  0
  142.5258   81.0606  224.4961 H   0  0  0  0  0  0  0  0  0  0  0  0
  140.8346   81.0152  224.0559 H   0  0  0  0  0  0  0  0  0  0  0  0
  142.8724   78.7166  224.1493 H   0  0  0  0  0  0  0  0  0  0  0  0
  141.2682   78.7214  224.8521 H   0  0  0  0  0  0  0  0  0  0  0  0
  138.8226   70.0809  221.8763 H   0  0  0  0  0  0  0  0  0  0  0  0
  138.8589   68.4516  223.7592 H   0  0  0  0  0  0  0  0  0  0  0  0
  139.5068   68.0169  226.0826 H   0  0  0  0  0  0  0  0  0  0  0  0
  141.4951   71.1055  228.3561 H   0  0  0  0  0  0  0  0  0  0  0  0
  141.3861   72.6198  226.3813 H   0  0  0  0  0  0  0  0  0  0  0  0
  1  2  2  0
  2  3  1  0
  3  4  1  0
  4  5  1  0
  5  6  2  0
  5  7  1  0
  7  8  1  0
  8  9  1  0
  9 10  1  0
 10 11  1  0
 11 12  1  0
 12 13  1  0
 13 14  1  0
 14 15  1  0
 15 16  1  0
  2 17  1  0
 17 18  2  0
 18 19  1  0
 19 20  2  0
 20 21  1  0
 21 22  2  0
 22 23  1  0
 22 24  1  0
 24 25  2  0
 25 26  1  0
 26 27  2  0
 11  7  1  0
 16 12  1  0
 27 17  1  0
 26 20  1  0
  3 28  1  0
  4 29  1  0
  4 30  1  0
  8 31  1  0
  8 32  1  0
  9 33  1  0
  9 34  1  0
 10 35  1  0
 10 36  1  0
 11 37  1  1
 12 38  1  0
 13 39  1  0
 13 40  1  0
 14 41  1  0
 14 42  1  0
 15 43  1  0
 15 44  1  0
 16 45  1  0
 16 46  1  0
 18 47  1  0
 19 48  1  0
 21 49  1  0
 24 50  1  0
 25 51  1  0
M  END
>  <smiles>  (14) 
O=C(NCC(=O)N1CCCC1C1CCCC1)c1ccc2cc(Cl)ccc2n1

>  <score_type>  (14) 
oracle

>  <origin>  (14) 
autodockgpu

>  <m_score__min__energy>  (14) 
-8.7400000000000002

>  <m_primary>  (14) 
energy

>  <rmsd>  (14) 
2.9750560058012505

>  <m_score__min__rmsd>  (14) 
2.9750560058012505

>  <meeko>  (14) 
{"free_energy": -8.57, "intermolecular_energy": -10.06, "internal_energy": -1.29, "cluster_size": 38, "cluster_id": 1, "rank_in_cluster": 6}

>  <energy>  (14) 
-8.52

>  <cluster_rmsd>  (14) 
1.13

>  <cluster>  (14) 
1

$$$$

     RDKit          3D

 51 54  0  0  0  0  0  0  0  0999 V2000
  138.9910   72.8760  220.8020 O   0  0  0  0  0  0  0  0  0  0  0  0
  139.9330   72.8810  221.6660 C   0  0  0  0  0  0  0  0  0  0  0  0
  141.0290   73.7670  221.5510 N   0  0  0  0  0  0  0  0  0  0  0  0
  141.0940   74.6750  220.4530 C   0  0  0  0  0  0  0  0  0  0  0  0
  141.2180   76.0980  220.9010 C   0  0  0  0  0  0  0  0  0  0  0  0
  142.2270   76.7190  220.4560 O   0  0  0  0  0  0  0  0  0  0  0  0
  140.2590   76.6940  221.7670 N   0  0  0  0  0  0  0  0  0  0  0  0
  138.8880   76.2360  221.8470 C   0  0  0  0  0  0  0  0  0  0  0  0
  138.2360   77.2750  222.7250 C   0  0  0  0  0  0  0  0  0  0  0  0
  139.1680   78.4680  222.7410 C   0  0  0  0  0  0  0  0  0  0  0  0
  140.5020   77.8010  222.6620 C   0  0  2  0  0  0  0  0  0  0  0  0
  141.6540   78.6510  222.3900 C   0  0  0  0  0  0  0  0  0  0  0  0
  141.4690   79.8290  221.5240 C   0  0  0  0  0  0  0  0  0  0  0  0
  141.7650   81.0380  222.3850 C   0  0  0  0  0  0  0  0  0  0  0  0
  141.6510   80.5610  223.8110 C   0  0  0  0  0  0  0  0  0  0  0  0
  142.1940   79.1580  223.7320 C   0  0  0  0  0  0  0  0  0  0  0  0
  139.9020   71.9590  222.8110 C   0  0  0  0  0  0  0  0  0  0  0  0
  139.2060   70.7560  222.6660 C   0  0  0  0  0  0  0  0  0  0  0  0
  139.1240   69.8310  223.6860 C   0  0  0  0  0  0  0  0  0  0  0  0
  139.7640   70.1510  224.8650 C   0  0  0  0  0  0  0  0  0  0  0  0
  139.7380   69.2920  225.9420 C   0  0  0  0  0  0  0  0  0  0  0  0
  140.3890   69.6360  227.1120 C   0  0  0  0  0  0  0  0  0  0  0  0
  140.3940   68.5910  228.5110 Cl  0  0  0  0  0  0  0  0  0  0  0  0
  141.0740   70.8500  227.2200 C   0  0  0  0  0  0  0  0  0  0  0  0
  141.0990   71.7090  226.1400 C   0  0  0  0  0  0  0  0  0  0  0  0
  140.4390   71.3520  224.9610 C   0  0  0  0  0  0  0  0  0  0  0  0
  140.5090   72.2420  223.9550 N   0  0  0  0  0  0  0  0  0  0  0  0
  141.8160   73.7790  222.2630 H   0  0  0  0  0  0  0  0  0  0  0  0
  141.9677   74.4211  219.8348 H   0  0  0  0  0  0  0  0  0  0  0  0
  140.1583   74.5815  219.8823 H   0  0  0  0  0  0  0  0  0  0  0  0
  138.4209   76.2096  220.8515 H   0  0  0  0  0  0  0  0  0  0  0  0
  138.7940   75.2134  222.2412 H   0  0  0  0  0  0  0  0  0  0  0  0
  137.2577   77.5622  222.3121 H   0  0  0  0  0  0  0  0  0  0  0  0
  138.0660   76.8885  223.7407 H   0  0  0  0  0  0  0  0  0  0  0  0
  138.9950   79.1253  221.8761 H   0  0  0  0  0  0  0  0  0  0  0  0
  139.0442   79.1236  223.6155 H   0  0  0  0  0  0  0  0  0  0  0  0
  140.8555   77.4574  223.6453 H   0  0  0  0  0  0  0  0  0  0  0  0
  142.3298   77.9955  221.8212 H   0  0  0  0  0  0  0  0  0  0  0  0
  142.1636   79.7886  220.6720 H   0  0  0  0  0  0  0  0  0  0  0  0
  140.4487   79.8689  221.1149 H   0  0  0  0  0  0  0  0  0  0  0  0
  142.7802   81.4117  222.1855 H   0  0  0  0  0  0  0  0  0  0  0  0
  141.0701   81.8649  222.1766 H   0  0  0  0  0  0  0  0  0  0  0  0
  142.2553   81.1833  224.4875 H   0  0  0  0  0  0  0  0  0  0  0  0
  140.6269   80.6122  224.2092 H   0  0  0  0  0  0  0  0  0  0  0  0
  143.2940   79.1593  223.7399 H   0  0  0  0  0  0  0  0  0  0  0  0
  141.8941   78.5298  224.5837 H   0  0  0  0  0  0  0  0  0  0  0  0
  138.7082   70.5400  221.7091 H   0  0  0  0  0  0  0  0  0  0  0  0
  138.5754   68.8852  223.5651 H   0  0  0  0  0  0  0  0  0  0  0  0
  139.2006   68.3349  225.8710 H   0  0  0  0  0  0  0  0  0  0  0  0
  141.5873   71.1176  228.1554 H   0  0  0  0  0  0  0  0  0  0  0  0
  141.6345   72.6676  226.2067 H   0  0  0  0  0  0  0  0  0  0  0  0
  1  2  2  0
  2  3  1  0
  3  4  1  0
  4  5  1  0
  5  6  2  0
  5  7  1  0
  7  8  1  0
  8  9  1  0
  9 10  1  0
 10 11  1  0
 11 12  1  0
 12 13  1  0
 13 14  1  0
 14 15  1  0
 15 16  1  0
  2 17  1  0
 17 18  2  0
 18 19  1  0
 19 20  2  0
 20 21  1  0
 21 22  2  0
 22 23  1  0
 22 24  1  0
 24 25  2  0
 25 26  1  0
 26 27  2  0
 11  7  1  0
 16 12  1  0
 27 17  1  0
 26 20  1  0
  3 28  1  0
  4 29  1  0
  4 30  1  0
  8 31  1  0
  8 32  1  0
  9 33  1  0
  9 34  1  0
 10 35  1  0
 10 36  1  0
 11 37  1  1
 12 38  1  0
 13 39  1  0
 13 40  1  0
 14 41  1  0
 14 42  1  0
 15 43  1  0
 15 44  1  0
 16 45  1  0
 16 46  1  0
 18 47  1  0
 19 48  1  0
 21 49  1  0
 24 50  1  0
 25 51  1  0
M  END
>  <smiles>  (15) 
O=C(NCC(=O)N1CCCC1C1CCCC1)c1ccc2cc(Cl)ccc2n1

>  <score_type>  (15) 
oracle

>  <origin>  (15) 
autodockgpu

>  <m_score__min__energy>  (15) 
-8.7400000000000002

>  <m_primary>  (15) 
energy

>  <rmsd>  (15) 
2.9928011017698455

>  <m_score__min__rmsd>  (15) 
2.9928011017698455

>  <meeko>  (15) 
{"free_energy": -8.0, "intermolecular_energy": -9.5, "internal_energy": -1.51, "cluster_size": 38, "cluster_id": 1, "rank_in_cluster": 33}

>  <energy>  (15) 
-8.5

>  <cluster_rmsd>  (15) 
1.14

>  <cluster>  (15) 
1

$$$$

     RDKit          3D

 51 54  0  0  0  0  0  0  0  0999 V2000
  139.8490   72.2880  220.7030 O   0  0  0  0  0  0  0  0  0  0  0  0
  139.7740   72.7130  221.9060 C   0  0  0  0  0  0  0  0  0  0  0  0
  139.5990   74.0870  222.1880 N   0  0  0  0  0  0  0  0  0  0  0  0
  139.5040   75.0240  221.1170 C   0  0  0  0  0  0  0  0  0  0  0  0
  139.6770   76.4360  221.5830 C   0  0  0  0  0  0  0  0  0  0  0  0
  139.3040   76.6640  222.7710 O   0  0  0  0  0  0  0  0  0  0  0  0
  140.2230   77.4400  220.7350 N   0  0  0  0  0  0  0  0  0  0  0  0
  140.2450   77.3170  219.2930 C   0  0  0  0  0  0  0  0  0  0  0  0
  141.0760   78.5010  218.8650 C   0  0  0  0  0  0  0  0  0  0  0  0
  141.8140   78.9740  220.1000 C   0  0  0  0  0  0  0  0  0  0  0  0
  140.8140   78.6840  221.1710 C   0  0  2  0  0  0  0  0  0  0  0  0
  141.2760   78.7680  222.5500 C   0  0  0  0  0  0  0  0  0  0  0  0
  142.5810   79.3970  222.8170 C   0  0  0  0  0  0  0  0  0  0  0  0
  142.2960   80.6210  223.6610 C   0  0  0  0  0  0  0  0  0  0  0  0
  140.8320   80.9210  223.4620 C   0  0  0  0  0  0  0  0  0  0  0  0
  140.2270   79.5460  223.3530 C   0  0  0  0  0  0  0  0  0  0  0  0
  139.8680   71.7780  223.0370 C   0  0  0  0  0  0  0  0  0  0  0  0
  139.4360   70.4640  222.8380 C   0  0  0  0  0  0  0  0  0  0  0  0
  139.4860   69.5180  223.8410 C   0  0  0  0  0  0  0  0  0  0  0  0
  139.9870   69.9320  225.0580 C   0  0  0  0  0  0  0  0  0  0  0  0
  140.0760   69.0610  226.1210 C   0  0  0  0  0  0  0  0  0  0  0  0
  140.5820   69.5010  227.3310 C   0  0  0  0  0  0  0  0  0  0  0  0
  140.7220   68.4460  228.7150 Cl  0  0  0  0  0  0  0  0  0  0  0  0
  141.0040   70.8240  227.4910 C   0  0  0  0  0  0  0  0  0  0  0  0
  140.9130   71.6950  226.4240 C   0  0  0  0  0  0  0  0  0  0  0  0
  140.4010   71.2420  225.2060 C   0  0  0  0  0  0  0  0  0  0  0  0
  140.3440   72.1500  224.2170 N   0  0  0  0  0  0  0  0  0  0  0  0
  139.5350   74.4500  223.1840 H   0  0  0  0  0  0  0  0  0  0  0  0
  140.2859   74.7969  220.3774 H   0  0  0  0  0  0  0  0  0  0  0  0
  138.4992   74.9342  220.6784 H   0  0  0  0  0  0  0  0  0  0  0  0
  140.7147   76.3716  218.9838 H   0  0  0  0  0  0  0  0  0  0  0  0
  139.2412   77.3061  218.8431 H   0  0  0  0  0  0  0  0  0  0  0  0
  141.7919   78.2015  218.0854 H   0  0  0  0  0  0  0  0  0  0  0  0
  140.4463   79.2998  218.4463 H   0  0  0  0  0  0  0  0  0  0  0  0
  142.7443   78.4076  220.2543 H   0  0  0  0  0  0  0  0  0  0  0  0
  142.1342   80.0255  220.0570 H   0  0  0  0  0  0  0  0  0  0  0  0
  140.0601   79.4794  221.2653 H   0  0  0  0  0  0  0  0  0  0  0  0
  141.4145   77.7160  222.8399 H   0  0  0  0  0  0  0  0  0  0  0  0
  143.2349   78.7012  223.3632 H   0  0  0  0  0  0  0  0  0  0  0  0
  143.0948   79.6658  221.8822 H   0  0  0  0  0  0  0  0  0  0  0  0
  142.5045   80.4132  224.7209 H   0  0  0  0  0  0  0  0  0  0  0  0
  142.9285   81.4722  223.3689 H   0  0  0  0  0  0  0  0  0  0  0  0
  140.4187   81.4697  224.3211 H   0  0  0  0  0  0  0  0  0  0  0  0
  140.6307   81.5582  222.5883 H   0  0  0  0  0  0  0  0  0  0  0  0
  140.0796   79.0993  224.3474 H   0  0  0  0  0  0  0  0  0  0  0  0
  139.2336   79.5466  222.8807 H   0  0  0  0  0  0  0  0  0  0  0  0
  139.0442   70.1751  221.8516 H   0  0  0  0  0  0  0  0  0  0  0  0
  139.1435   68.4854  223.6785 H   0  0  0  0  0  0  0  0  0  0  0  0
  139.7455   68.0179  226.0082 H   0  0  0  0  0  0  0  0  0  0  0  0
  141.4041   71.1672  228.4565 H   0  0  0  0  0  0  0  0  0  0  0  0
  141.2416   72.7392  226.5323 H   0  0  0  0  0  0  0  0  0  0  0  0
  1  2  2  0
  2  3  1  0
  3  4  1  0
  4  5  1  0
  5  6  2  0
  5  7  1  0
  7  8  1  0
  8  9  1  0
  9 10  1  0
 10 11  1  0
 11 12  1  0
 12 13  1  0
 13 14  1  0
 14 15  1  0
 15 16  1  0
  2 17  1  0
 17 18  2  0
 18 19  1  0
 19 20  2  0
 20 21  1  0
 21 22  2  0
 22 23  1  0
 22 24  1  0
 24 25  2  0
 25 26  1  0
 26 27  2  0
 11  7  1  0
 16 12  1  0
 27 17  1  0
 26 20  1  0
  3 28  1  0
  4 29  1  0
  4 30  1  0
  8 31  1  0
  8 32  1  0
  9 33  1  0
  9 34  1  0
 10 35  1  0
 10 36  1  0
 11 37  1  1
 12 38  1  0
 13 39  1  0
 13 40  1  0
 14 41  1  0
 14 42  1  0
 15 43  1  0
 15 44  1  0
 16 45  1  0
 16 46  1  0
 18 47  1  0
 19 48  1  0
 21 49  1  0
 24 50  1  0
 25 51  1  0
M  END
>  <smiles>  (16) 
O=C(NCC(=O)N1CCCC1C1CCCC1)c1ccc2cc(Cl)ccc2n1

>  <score_type>  (16) 
oracle

>  <origin>  (16) 
autodockgpu

>  <m_score__min__energy>  (16) 
-8.7400000000000002

>  <m_primary>  (16) 
energy

>  <rmsd>  (16) 
2.017792154775257

>  <m_score__min__rmsd>  (16) 
2.017792154775257

>  <meeko>  (16) 
{"free_energy": -8.47, "intermolecular_energy": -9.97, "internal_energy": -1.83, "cluster_size": 38, "cluster_id": 1, "rank_in_cluster": 16}

>  <energy>  (16) 
-8.47

>  <cluster_rmsd>  (16) 
1.15

>  <cluster>  (16) 
1

$$$$

     RDKit          3D

 51 54  0  0  0  0  0  0  0  0999 V2000
  140.3150   72.4100  220.6730 O   0  0  0  0  0  0  0  0  0  0  0  0
  140.0620   72.8220  221.8570 C   0  0  0  0  0  0  0  0  0  0  0  0
  139.7720   74.1810  222.1150 N   0  0  0  0  0  0  0  0  0  0  0  0
  139.7610   75.1190  221.0410 C   0  0  0  0  0  0  0  0  0  0  0  0
  139.7780   76.5350  221.5250 C   0  0  0  0  0  0  0  0  0  0  0  0
  139.3320   76.7120  222.6970 O   0  0  0  0  0  0  0  0  0  0  0  0
  140.2650   77.5970  220.7130 N   0  0  0  0  0  0  0  0  0  0  0  0
  140.1920   77.5700  219.2670 C   0  0  0  0  0  0  0  0  0  0  0  0
  140.9900   78.7840  218.8660 C   0  0  0  0  0  0  0  0  0  0  0  0
  141.8070   79.1790  220.0780 C   0  0  0  0  0  0  0  0  0  0  0  0
  140.8810   78.8130  221.1900 C   0  0  2  0  0  0  0  0  0  0  0  0
  141.4330   78.8070  222.5390 C   0  0  0  0  0  0  0  0  0  0  0  0
  142.7550   79.4180  222.7590 C   0  0  0  0  0  0  0  0  0  0  0  0
  142.5320   80.5850  223.6960 C   0  0  0  0  0  0  0  0  0  0  0  0
  141.0600   80.8990  223.6140 C   0  0  0  0  0  0  0  0  0  0  0  0
  140.4430   79.5330  223.4570 C   0  0  0  0  0  0  0  0  0  0  0  0
  140.0640   71.8850  222.9900 C   0  0  0  0  0  0  0  0  0  0  0  0
  139.5640   70.5970  222.7760 C   0  0  0  0  0  0  0  0  0  0  0  0
  139.5270   69.6510  223.7810 C   0  0  0  0  0  0  0  0  0  0  0  0
  140.0090   70.0390  225.0140 C   0  0  0  0  0  0  0  0  0  0  0  0
  140.0130   69.1650  226.0790 C   0  0  0  0  0  0  0  0  0  0  0  0
  140.5020   69.5780  227.3050 C   0  0  0  0  0  0  0  0  0  0  0  0
  140.5360   68.5190  228.6930 Cl  0  0  0  0  0  0  0  0  0  0  0  0
  140.9930   70.8750  227.4800 C   0  0  0  0  0  0  0  0  0  0  0  0
  140.9880   71.7480  226.4100 C   0  0  0  0  0  0  0  0  0  0  0  0
  140.4920   71.3220  225.1760 C   0  0  0  0  0  0  0  0  0  0  0  0
  140.5200   72.2310  224.1850 N   0  0  0  0  0  0  0  0  0  0  0  0
  139.5600   74.5320  223.0940 H   0  0  0  0  0  0  0  0  0  0  0  0
  140.6481   74.9488  220.4133 H   0  0  0  0  0  0  0  0  0  0  0  0
  138.8319   74.9686  220.4716 H   0  0  0  0  0  0  0  0  0  0  0  0
  140.6422   76.6503  218.8653 H   0  0  0  0  0  0  0  0  0  0  0  0
  139.1609   77.5825  218.8841 H   0  0  0  0  0  0  0  0  0  0  0  0
  141.6534   78.5415  218.0228 H   0  0  0  0  0  0  0  0  0  0  0  0
  140.3322   79.6048  218.5442 H   0  0  0  0  0  0  0  0  0  0  0  0
  142.7465   78.6094  220.1329 H   0  0  0  0  0  0  0  0  0  0  0  0
  142.1219   80.2329  220.0838 H   0  0  0  0  0  0  0  0  0  0  0  0
  140.1343   79.5967  221.3853 H   0  0  0  0  0  0  0  0  0  0  0  0
  141.5850   77.7384  222.7513 H   0  0  0  0  0  0  0  0  0  0  0  0
  143.4406   78.6887  223.2152 H   0  0  0  0  0  0  0  0  0  0  0  0
  143.2067   79.7464  221.8113 H   0  0  0  0  0  0  0  0  0  0  0  0
  142.8086   80.3094  224.7244 H   0  0  0  0  0  0  0  0  0  0  0  0
  143.1481   81.4526  223.4174 H   0  0  0  0  0  0  0  0  0  0  0  0
  140.7069   81.3915  224.5320 H   0  0  0  0  0  0  0  0  0  0  0  0
  140.8043   81.5918  222.7988 H   0  0  0  0  0  0  0  0  0  0  0  0
  140.3590   79.0237  224.4284 H   0  0  0  0  0  0  0  0  0  0  0  0
  139.4210   79.5645  223.0515 H   0  0  0  0  0  0  0  0  0  0  0  0
  139.1889   70.3293  221.7772 H   0  0  0  0  0  0  0  0  0  0  0  0
  139.1330   68.6388  223.6073 H   0  0  0  0  0  0  0  0  0  0  0  0
  139.6285   68.1419  225.9546 H   0  0  0  0  0  0  0  0  0  0  0  0
  141.3789   71.1965  228.4586 H   0  0  0  0  0  0  0  0  0  0  0  0
  141.3721   72.7719  226.5289 H   0  0  0  0  0  0  0  0  0  0  0  0
  1  2  2  0
  2  3  1  0
  3  4  1  0
  4  5  1  0
  5  6  2  0
  5  7  1  0
  7  8  1  0
  8  9  1  0
  9 10  1  0
 10 11  1  0
 11 12  1  0
 12 13  1  0
 13 14  1  0
 14 15  1  0
 15 16  1  0
  2 17  1  0
 17 18  2  0
 18 19  1  0
 19 20  2  0
 20 21  1  0
 21 22  2  0
 22 23  1  0
 22 24  1  0
 24 25  2  0
 25 26  1  0
 26 27  2  0
 11  7  1  0
 16 12  1  0
 27 17  1  0
 26 20  1  0
  3 28  1  0
  4 29  1  0
  4 30  1  0
  8 31  1  0
  8 32  1  0
  9 33  1  0
  9 34  1  0
 10 35  1  0
 10 36  1  0
 11 37  1  1
 12 38  1  0
 13 39  1  0
 13 40  1  0
 14 41  1  0
 14 42  1  0
 15 43  1  0
 15 44  1  0
 16 45  1  0
 16 46  1  0
 18 47  1  0
 19 48  1  0
 21 49  1  0
 24 50  1  0
 25 51  1  0
M  END
>  <smiles>  (17) 
O=C(NCC(=O)N1CCCC1C1CCCC1)c1ccc2cc(Cl)ccc2n1

>  <score_type>  (17) 
oracle

>  <origin>  (17) 
autodockgpu

>  <m_score__min__energy>  (17) 
-8.7400000000000002

>  <m_primary>  (17) 
energy

>  <rmsd>  (17) 
2.1618165442915624

>  <m_score__min__rmsd>  (17) 
2.1618165442915624

>  <meeko>  (17) 
{"free_energy": -8.52, "intermolecular_energy": -10.01, "internal_energy": -1.85, "cluster_size": 38, "cluster_id": 1, "rank_in_cluster": 13}

>  <energy>  (17) 
-8.47

>  <cluster_rmsd>  (17) 
1.15

>  <cluster>  (17) 
1

$$$$

     RDKit          3D

 51 54  0  0  0  0  0  0  0  0999 V2000
  140.7860   72.5590  220.8360 O   0  0  0  0  0  0  0  0  0  0  0  0
  140.2830   72.9190  221.9560 C   0  0  0  0  0  0  0  0  0  0  0  0
  139.7880   74.2280  222.1500 N   0  0  0  0  0  0  0  0  0  0  0  0
  139.8480   75.1740  221.0850 C   0  0  0  0  0  0  0  0  0  0  0  0
  139.8570   76.5870  221.5810 C   0  0  0  0  0  0  0  0  0  0  0  0
  139.3550   76.7600  222.7300 O   0  0  0  0  0  0  0  0  0  0  0  0
  140.3960   77.6480  220.8010 N   0  0  0  0  0  0  0  0  0  0  0  0
  140.7130   77.5020  219.3960 C   0  0  0  0  0  0  0  0  0  0  0  0
  141.4190   78.7950  219.0730 C   0  0  0  0  0  0  0  0  0  0  0  0
  141.8250   79.4030  220.3990 C   0  0  0  0  0  0  0  0  0  0  0  0
  140.6940   78.9790  221.2770 C   0  0  2  0  0  0  0  0  0  0  0  0
  140.8640   79.1620  222.7130 C   0  0  0  0  0  0  0  0  0  0  0  0
  142.2140   79.0190  223.2850 C   0  0  0  0  0  0  0  0  0  0  0  0
  142.5760   80.3720  223.8600 C   0  0  0  0  0  0  0  0  0  0  0  0
  141.6450   81.3570  223.2000 C   0  0  0  0  0  0  0  0  0  0  0  0
  140.3690   80.5670  223.0710 C   0  0  0  0  0  0  0  0  0  0  0  0
  140.2040   71.9720  223.0780 C   0  0  0  0  0  0  0  0  0  0  0  0
  139.5820   70.7400  222.8540 C   0  0  0  0  0  0  0  0  0  0  0  0
  139.4620   69.7900  223.8470 C   0  0  0  0  0  0  0  0  0  0  0  0
  139.9880   70.1150  225.0810 C   0  0  0  0  0  0  0  0  0  0  0  0
  139.9170   69.2320  226.1360 C   0  0  0  0  0  0  0  0  0  0  0  0
  140.4520   69.5810  227.3620 C   0  0  0  0  0  0  0  0  0  0  0  0
  140.3940   68.5070  228.7370 Cl  0  0  0  0  0  0  0  0  0  0  0  0
  141.0660   70.8230  227.5480 C   0  0  0  0  0  0  0  0  0  0  0  0
  141.1360   71.7060  226.4890 C   0  0  0  0  0  0  0  0  0  0  0  0
  140.5930   71.3450  225.2530 C   0  0  0  0  0  0  0  0  0  0  0  0
  140.7000   72.2590  224.2730 N   0  0  0  0  0  0  0  0  0  0  0  0
  139.3680   74.5360  223.0760 H   0  0  0  0  0  0  0  0  0  0  0  0
  140.7659   74.9966  220.5053 H   0  0  0  0  0  0  0  0  0  0  0  0
  138.9495   75.0404  220.4647 H   0  0  0  0  0  0  0  0  0  0  0  0
  141.3727   76.6381  219.2270 H   0  0  0  0  0  0  0  0  0  0  0  0
  139.8282   77.3218  218.7678 H   0  0  0  0  0  0  0  0  0  0  0  0
  142.3084   78.5990  218.4561 H   0  0  0  0  0  0  0  0  0  0  0  0
  140.7664   79.4748  218.5056 H   0  0  0  0  0  0  0  0  0  0  0  0
  142.7833   78.9945  220.7522 H   0  0  0  0  0  0  0  0  0  0  0  0
  141.9838   80.4909  220.3647 H   0  0  0  0  0  0  0  0  0  0  0  0
  139.8238   79.6460  221.1887 H   0  0  0  0  0  0  0  0  0  0  0  0
  140.2924   78.3292  223.1486 H   0  0  0  0  0  0  0  0  0  0  0  0
  142.2133   78.2560  224.0774 H   0  0  0  0  0  0  0  0  0  0  0  0
  142.9402   78.7008  222.5225 H   0  0  0  0  0  0  0  0  0  0  0  0
  142.4299   80.3771  224.9502 H   0  0  0  0  0  0  0  0  0  0  0  0
  143.6309   80.6231  223.6750 H   0  0  0  0  0  0  0  0  0  0  0  0
  141.4988   82.2478  223.8286 H   0  0  0  0  0  0  0  0  0  0  0  0
  142.0218   81.7396  222.2400 H   0  0  0  0  0  0  0  0  0  0  0  0
  139.8118   80.5595  224.0194 H   0  0  0  0  0  0  0  0  0  0  0  0
  139.6761   80.9840  222.3254 H   0  0  0  0  0  0  0  0  0  0  0  0
  139.1759   70.5216  221.8553 H   0  0  0  0  0  0  0  0  0  0  0  0
  138.9718   68.8223  223.6646 H   0  0  0  0  0  0  0  0  0  0  0  0
  139.4359   68.2518  226.0032 H   0  0  0  0  0  0  0  0  0  0  0  0
  141.4885   71.0937  228.5269 H   0  0  0  0  0  0  0  0  0  0  0  0
  141.6161   72.6873  226.6173 H   0  0  0  0  0  0  0  0  0  0  0  0
  1  2  2  0
  2  3  1  0
  3  4  1  0
  4  5  1  0
  5  6  2  0
  5  7  1  0
  7  8  1  0
  8  9  1  0
  9 10  1  0
 10 11  1  0
 11 12  1  0
 12 13  1  0
 13 14  1  0
 14 15  1  0
 15 16  1  0
  2 17  1  0
 17 18  2  0
 18 19  1  0
 19 20  2  0
 20 21  1  0
 21 22  2  0
 22 23  1  0
 22 24  1  0
 24 25  2  0
 25 26  1  0
 26 27  2  0
 11  7  1  0
 16 12  1  0
 27 17  1  0
 26 20  1  0
  3 28  1  0
  4 29  1  0
  4 30  1  0
  8 31  1  0
  8 32  1  0
  9 33  1  0
  9 34  1  0
 10 35  1  0
 10 36  1  0
 11 37  1  6
 12 38  1  0
 13 39  1  0
 13 40  1  0
 14 41  1  0
 14 42  1  0
 15 43  1  0
 15 44  1  0
 16 45  1  0
 16 46  1  0
 18 47  1  0
 19 48  1  0
 21 49  1  0
 24 50  1  0
 25 51  1  0
M  END
>  <smiles>  (18) 
O=C(NCC(=O)N1CCCC1C1CCCC1)c1ccc2cc(Cl)ccc2n1

>  <score_type>  (18) 
oracle

>  <origin>  (18) 
autodockgpu

>  <m_score__min__energy>  (18) 
-8.7400000000000002

>  <m_primary>  (18) 
energy

>  <rmsd>  (18) 
2.339389720997662

>  <m_score__min__rmsd>  (18) 
2.339389720997662

>  <meeko>  (18) 
{"free_energy": -8.6, "intermolecular_energy": -10.09, "internal_energy": -1.73, "cluster_size": 38, "cluster_id": 1, "rank_in_cluster": 2}

>  <energy>  (18) 
-8.47

>  <cluster_rmsd>  (18) 
1.14

>  <cluster>  (18) 
1

$$$$

     RDKit          3D

 51 54  0  0  0  0  0  0  0  0999 V2000
  140.4830   72.4960  220.7230 O   0  0  0  0  0  0  0  0  0  0  0  0
  140.1640   72.8910  221.8960 C   0  0  0  0  0  0  0  0  0  0  0  0
  139.8300   74.2410  222.1490 N   0  0  0  0  0  0  0  0  0  0  0  0
  139.8470   75.1880  221.0820 C   0  0  0  0  0  0  0  0  0  0  0  0
  139.8120   76.6000  221.5770 C   0  0  0  0  0  0  0  0  0  0  0  0
  139.3020   76.7590  222.7250 O   0  0  0  0  0  0  0  0  0  0  0  0
  140.3200   77.6770  220.7990 N   0  0  0  0  0  0  0  0  0  0  0  0
  140.3980   77.6270  219.3540 C   0  0  0  0  0  0  0  0  0  0  0  0
  141.1640   78.8800  219.0130 C   0  0  0  0  0  0  0  0  0  0  0  0
  141.8280   79.3380  220.2950 C   0  0  0  0  0  0  0  0  0  0  0  0
  140.8130   78.9330  221.3130 C   0  0  2  0  0  0  0  0  0  0  0  0
  141.2220   78.9770  222.7120 C   0  0  0  0  0  0  0  0  0  0  0  0
  142.6040   79.3770  223.0270 C   0  0  0  0  0  0  0  0  0  0  0  0
  142.5020   80.6580  223.8270 C   0  0  0  0  0  0  0  0  0  0  0  0
  141.1240   81.2030  223.5510 C   0  0  0  0  0  0  0  0  0  0  0  0
  140.2920   79.9510  223.4440 C   0  0  0  0  0  0  0  0  0  0  0  0
  140.1350   71.9460  223.0210 C   0  0  0  0  0  0  0  0  0  0  0  0
  139.5870   70.6790  222.7990 C   0  0  0  0  0  0  0  0  0  0  0  0
  139.5180   69.7270  223.7960 C   0  0  0  0  0  0  0  0  0  0  0  0
  140.0180   70.0860  225.0300 C   0  0  0  0  0  0  0  0  0  0  0  0
  139.9930   69.2040  226.0890 C   0  0  0  0  0  0  0  0  0  0  0  0
  140.5010   69.5880  227.3160 C   0  0  0  0  0  0  0  0  0  0  0  0
  140.5000   68.5170  228.6950 Cl  0  0  0  0  0  0  0  0  0  0  0  0
  141.0410   70.8650  227.5000 C   0  0  0  0  0  0  0  0  0  0  0  0
  141.0640   71.7460  226.4370 C   0  0  0  0  0  0  0  0  0  0  0  0
  140.5490   71.3490  225.2010 C   0  0  0  0  0  0  0  0  0  0  0  0
  140.6080   72.2650  224.2180 N   0  0  0  0  0  0  0  0  0  0  0  0
  139.5630   74.5790  223.1200 H   0  0  0  0  0  0  0  0  0  0  0  0
  140.7648   75.0418  220.4935 H   0  0  0  0  0  0  0  0  0  0  0  0
  138.9478   75.0228  220.4703 H   0  0  0  0  0  0  0  0  0  0  0  0
  140.9380   76.7295  219.0179 H   0  0  0  0  0  0  0  0  0  0  0  0
  139.4126   77.5751  218.8679 H   0  0  0  0  0  0  0  0  0  0  0  0
  141.9236   78.6648  218.2470 H   0  0  0  0  0  0  0  0  0  0  0  0
  140.4980   79.6569  218.6094 H   0  0  0  0  0  0  0  0  0  0  0  0
  142.7873   78.8247  220.4569 H   0  0  0  0  0  0  0  0  0  0  0  0
  142.0810   80.4084  220.3131 H   0  0  0  0  0  0  0  0  0  0  0  0
  140.0066   79.6741  221.4150 H   0  0  0  0  0  0  0  0  0  0  0  0
  141.1608   77.9266  223.0330 H   0  0  0  0  0  0  0  0  0  0  0  0
  143.1011   78.5955  223.6205 H   0  0  0  0  0  0  0  0  0  0  0  0
  143.1972   79.5224  222.1121 H   0  0  0  0  0  0  0  0  0  0  0  0
  142.6245   80.4506  224.9003 H   0  0  0  0  0  0  0  0  0  0  0  0
  143.2863   81.3760  223.5453 H   0  0  0  0  0  0  0  0  0  0  0  0
  140.7766   81.8415  224.3766 H   0  0  0  0  0  0  0  0  0  0  0  0
  141.0759   81.8388  222.6546 H   0  0  0  0  0  0  0  0  0  0  0  0
  140.0244   79.5684  224.4400 H   0  0  0  0  0  0  0  0  0  0  0  0
  139.3363   80.1102  222.9232 H   0  0  0  0  0  0  0  0  0  0  0  0
  139.1991   70.4334  221.7994 H   0  0  0  0  0  0  0  0  0  0  0  0
  139.0858   68.7317  223.6153 H   0  0  0  0  0  0  0  0  0  0  0  0
  139.5699   68.1971  225.9581 H   0  0  0  0  0  0  0  0  0  0  0  0
  141.4425   71.1638  228.4795 H   0  0  0  0  0  0  0  0  0  0  0  0
  141.4853   72.7543  226.5629 H   0  0  0  0  0  0  0  0  0  0  0  0
  1  2  2  0
  2  3  1  0
  3  4  1  0
  4  5  1  0
  5  6  2  0
  5  7  1  0
  7  8  1  0
  8  9  1  0
  9 10  1  0
 10 11  1  0
 11 12  1  0
 12 13  1  0
 13 14  1  0
 14 15  1  0
 15 16  1  0
  2 17  1  0
 17 18  2  0
 18 19  1  0
 19 20  2  0
 20 21  1  0
 21 22  2  0
 22 23  1  0
 22 24  1  0
 24 25  2  0
 25 26  1  0
 26 27  2  0
 11  7  1  0
 16 12  1  0
 27 17  1  0
 26 20  1  0
  3 28  1  0
  4 29  1  0
  4 30  1  0
  8 31  1  0
  8 32  1  0
  9 33  1  0
  9 34  1  0
 10 35  1  0
 10 36  1  0
 11 37  1  1
 12 38  1  0
 13 39  1  0
 13 40  1  0
 14 41  1  0
 14 42  1  0
 15 43  1  0
 15 44  1  0
 16 45  1  0
 16 46  1  0
 18 47  1  0
 19 48  1  0
 21 49  1  0
 24 50  1  0
 25 51  1  0
M  END
>  <smiles>  (19) 
O=C(NCC(=O)N1CCCC1C1CCCC1)c1ccc2cc(Cl)ccc2n1

>  <score_type>  (19) 
oracle

>  <origin>  (19) 
autodockgpu

>  <m_score__min__energy>  (19) 
-8.7400000000000002

>  <m_primary>  (19) 
energy

>  <rmsd>  (19) 
2.2895984645741527

>  <m_score__min__rmsd>  (19) 
2.2895984645741527

>  <meeko>  (19) 
{"free_energy": -8.54, "intermolecular_energy": -10.03, "internal_energy": -1.82, "cluster_size": 38, "cluster_id": 1, "rank_in_cluster": 10}

>  <energy>  (19) 
-8.45

>  <cluster_rmsd>  (19) 
1.15

>  <cluster>  (19) 
1

$$$$

     RDKit          3D

 51 54  0  0  0  0  0  0  0  0999 V2000
  139.2450   72.7370  220.4990 O   0  0  0  0  0  0  0  0  0  0  0  0
  140.0270   72.9000  221.4970 C   0  0  0  0  0  0  0  0  0  0  0  0
  140.9790   73.9450  221.5190 N   0  0  0  0  0  0  0  0  0  0  0  0
  141.0770   74.8380  220.4110 C   0  0  0  0  0  0  0  0  0  0  0  0
  141.2140   76.2640  220.8420 C   0  0  0  0  0  0  0  0  0  0  0  0
  142.2080   76.8820  220.3610 O   0  0  0  0  0  0  0  0  0  0  0  0
  140.2830   76.8670  221.7330 N   0  0  0  0  0  0  0  0  0  0  0  0
  138.8960   76.4570  221.8090 C   0  0  0  0  0  0  0  0  0  0  0  0
  138.2870   77.4900  222.7220 C   0  0  0  0  0  0  0  0  0  0  0  0
  139.2620   78.6480  222.7690 C   0  0  0  0  0  0  0  0  0  0  0  0
  140.5710   77.9360  222.6600 C   0  0  2  0  0  0  0  0  0  0  0  0
  141.7510   78.7530  222.4060 C   0  0  0  0  0  0  0  0  0  0  0  0
  141.6480   79.8520  221.4310 C   0  0  0  0  0  0  0  0  0  0  0  0
  141.8930   81.1290  222.2060 C   0  0  0  0  0  0  0  0  0  0  0  0
  141.6630   80.7780  223.6540 C   0  0  0  0  0  0  0  0  0  0  0  0
  142.1930   79.3700  223.7380 C   0  0  0  0  0  0  0  0  0  0  0  0
  139.9570   72.0010  222.6580 C   0  0  0  0  0  0  0  0  0  0  0  0
  139.2070   70.8280  222.5330 C   0  0  0  0  0  0  0  0  0  0  0  0
  139.0840   69.9250  223.5700 C   0  0  0  0  0  0  0  0  0  0  0  0
  139.7420   70.2350  224.7420 C   0  0  0  0  0  0  0  0  0  0  0  0
  139.6790   69.3960  225.8330 C   0  0  0  0  0  0  0  0  0  0  0  0
  140.3470   69.7300  226.9970 C   0  0  0  0  0  0  0  0  0  0  0  0
  140.3070   68.7090  228.4120 Cl  0  0  0  0  0  0  0  0  0  0  0  0
  141.0870   70.9130  227.0830 C   0  0  0  0  0  0  0  0  0  0  0  0
  141.1480   71.7520  225.9880 C   0  0  0  0  0  0  0  0  0  0  0  0
  140.4700   71.4060  224.8170 C   0  0  0  0  0  0  0  0  0  0  0  0
  140.5780   72.2750  223.7960 N   0  0  0  0  0  0  0  0  0  0  0  0
  141.6330   74.0890  222.3430 H   0  0  0  0  0  0  0  0  0  0  0  0
  141.9577   74.5633  219.8120 H   0  0  0  0  0  0  0  0  0  0  0  0
  140.1500   74.7509  219.8253 H   0  0  0  0  0  0  0  0  0  0  0  0
  138.4224   76.4782  220.8164 H   0  0  0  0  0  0  0  0  0  0  0  0
  138.7676   75.4269  222.1730 H   0  0  0  0  0  0  0  0  0  0  0  0
  137.3176   77.8249  222.3243 H   0  0  0  0  0  0  0  0  0  0  0  0
  138.1083   77.0785  223.7263 H   0  0  0  0  0  0  0  0  0  0  0  0
  139.1080   79.3381  221.9263 H   0  0  0  0  0  0  0  0  0  0  0  0
  139.1670   79.2798  223.6645 H   0  0  0  0  0  0  0  0  0  0  0  0
  140.9179   77.5489  223.6295 H   0  0  0  0  0  0  0  0  0  0  0  0
  142.4603   78.0474  221.9488 H   0  0  0  0  0  0  0  0  0  0  0  0
  142.4051   79.7337  220.6418 H   0  0  0  0  0  0  0  0  0  0  0  0
  140.6627   79.8628  220.9421 H   0  0  0  0  0  0  0  0  0  0  0  0
  142.9255   81.4771  222.0551 H   0  0  0  0  0  0  0  0  0  0  0  0
  141.2274   81.9394  221.8740 H   0  0  0  0  0  0  0  0  0  0  0  0
  142.2209   81.4529  224.3198 H   0  0  0  0  0  0  0  0  0  0  0  0
  140.6119   80.8696  223.9652 H   0  0  0  0  0  0  0  0  0  0  0  0
  143.2890   79.3654  223.8311 H   0  0  0  0  0  0  0  0  0  0  0  0
  141.8211   78.8192  224.6146 H   0  0  0  0  0  0  0  0  0  0  0  0
  138.6996   70.6182  221.5798 H   0  0  0  0  0  0  0  0  0  0  0  0
  138.4909   69.0043  223.4668 H   0  0  0  0  0  0  0  0  0  0  0  0
  139.0989   68.4630  225.7784 H   0  0  0  0  0  0  0  0  0  0  0  0
  141.6148   71.1725  228.0126 H   0  0  0  0  0  0  0  0  0  0  0  0
  141.7265   72.6863  226.0376 H   0  0  0  0  0  0  0  0  0  0  0  0
  1  2  2  0
  2  3  1  0
  3  4  1  0
  4  5  1  0
  5  6  2  0
  5  7  1  0
  7  8  1  0
  8  9  1  0
  9 10  1  0
 10 11  1  0
 11 12  1  0
 12 13  1  0
 13 14  1  0
 14 15  1  0
 15 16  1  0
  2 17  1  0
 17 18  2  0
 18 19  1  0
 19 20  2  0
 20 21  1  0
 21 22  2  0
 22 23  1  0
 22 24  1  0
 24 25  2  0
 25 26  1  0
 26 27  2  0
 11  7  1  0
 16 12  1  0
 27 17  1  0
 26 20  1  0
  3 28  1  0
  4 29  1  0
  4 30  1  0
  8 31  1  0
  8 32  1  0
  9 33  1  0
  9 34  1  0
 10 35  1  0
 10 36  1  0
 11 37  1  1
 12 38  1  0
 13 39  1  0
 13 40  1  0
 14 41  1  0
 14 42  1  0
 15 43  1  0
 15 44  1  0
 16 45  1  0
 16 46  1  0
 18 47  1  0
 19 48  1  0
 21 49  1  0
 24 50  1  0
 25 51  1  0
M  END
>  <smiles>  (20) 
O=C(NCC(=O)N1CCCC1C1CCCC1)c1ccc2cc(Cl)ccc2n1

>  <score_type>  (20) 
oracle

>  <origin>  (20) 
autodockgpu

>  <m_score__min__energy>  (20) 
-8.7400000000000002

>  <m_primary>  (20) 
energy

>  <rmsd>  (20) 
3.0480086799209247

>  <m_score__min__rmsd>  (20) 
3.0480086799209247

>  <meeko>  (20) 
{"free_energy": -8.0, "intermolecular_energy": -9.49, "internal_energy": -1.54, "cluster_size": 38, "cluster_id": 1, "rank_in_cluster": 34}

>  <energy>  (20) 
-8.45

>  <cluster_rmsd>  (20) 
1.17

>  <cluster>  (20) 
1

$$$$

     RDKit          3D

 51 54  0  0  0  0  0  0  0  0999 V2000
  140.9870   72.6890  220.9320 O   0  0  0  0  0  0  0  0  0  0  0  0
  140.2670   72.9340  221.9600 C   0  0  0  0  0  0  0  0  0  0  0  0
  139.5190   74.1290  222.0630 N   0  0  0  0  0  0  0  0  0  0  0  0
  139.5630   75.0860  221.0060 C   0  0  0  0  0  0  0  0  0  0  0  0
  139.7450   76.4830  221.5130 C   0  0  0  0  0  0  0  0  0  0  0  0
  139.3940   76.6720  222.7150 O   0  0  0  0  0  0  0  0  0  0  0  0
  140.2750   77.5130  220.6880 N   0  0  0  0  0  0  0  0  0  0  0  0
  140.2670   77.4380  219.2420 C   0  0  0  0  0  0  0  0  0  0  0  0
  141.0900   78.6340  218.8370 C   0  0  0  0  0  0  0  0  0  0  0  0
  141.8540   79.0660  220.0710 C   0  0  0  0  0  0  0  0  0  0  0  0
  140.8750   78.7420  221.1510 C   0  0  2  0  0  0  0  0  0  0  0  0
  141.3650   78.7810  222.5240 C   0  0  0  0  0  0  0  0  0  0  0  0
  142.6790   79.3930  222.7840 C   0  0  0  0  0  0  0  0  0  0  0  0
  142.4200   80.5930  223.6690 C   0  0  0  0  0  0  0  0  0  0  0  0
  140.9540   80.9090  223.5090 C   0  0  0  0  0  0  0  0  0  0  0  0
  140.3370   79.5410  223.3700 C   0  0  0  0  0  0  0  0  0  0  0  0
  140.1960   71.9730  223.0700 C   0  0  0  0  0  0  0  0  0  0  0  0
  139.5940   70.7350  222.8270 C   0  0  0  0  0  0  0  0  0  0  0  0
  139.4830   69.7710  223.8080 C   0  0  0  0  0  0  0  0  0  0  0  0
  139.9970   70.0880  225.0490 C   0  0  0  0  0  0  0  0  0  0  0  0
  139.9330   69.1910  226.0930 C   0  0  0  0  0  0  0  0  0  0  0  0
  140.4570   69.5330  227.3260 C   0  0  0  0  0  0  0  0  0  0  0  0
  140.4080   68.4410  228.6870 Cl  0  0  0  0  0  0  0  0  0  0  0  0
  141.0510   70.7820  227.5300 C   0  0  0  0  0  0  0  0  0  0  0  0
  141.1140   71.6790  226.4820 C   0  0  0  0  0  0  0  0  0  0  0  0
  140.5830   71.3240  225.2400 C   0  0  0  0  0  0  0  0  0  0  0  0
  140.6820   72.2520  224.2710 N   0  0  0  0  0  0  0  0  0  0  0  0
  138.9180   74.3420  222.9120 H   0  0  0  0  0  0  0  0  0  0  0  0
  140.4027   74.8391  220.3397 H   0  0  0  0  0  0  0  0  0  0  0  0
  138.6018   75.0436  220.4727 H   0  0  0  0  0  0  0  0  0  0  0  0
  140.7289   76.5031  218.8919 H   0  0  0  0  0  0  0  0  0  0  0  0
  139.2542   77.4428  218.8129 H   0  0  0  0  0  0  0  0  0  0  0  0
  141.7893   78.3599  218.0333 H   0  0  0  0  0  0  0  0  0  0  0  0
  140.4525   79.4465  218.4583 H   0  0  0  0  0  0  0  0  0  0  0  0
  142.7863   78.4940  220.1880 H   0  0  0  0  0  0  0  0  0  0  0  0
  142.1757   80.1178  220.0559 H   0  0  0  0  0  0  0  0  0  0  0  0
  140.1237   79.5343  221.2846 H   0  0  0  0  0  0  0  0  0  0  0  0
  141.5021   77.7199  222.7796 H   0  0  0  0  0  0  0  0  0  0  0  0
  143.3382   78.6768  223.2964 H   0  0  0  0  0  0  0  0  0  0  0  0
  143.1762   79.6862  221.8476 H   0  0  0  0  0  0  0  0  0  0  0  0
  142.6483   80.3525  224.7178 H   0  0  0  0  0  0  0  0  0  0  0  0
  143.0527   81.4482  223.3890 H   0  0  0  0  0  0  0  0  0  0  0  0
  140.5620   81.4336  224.3928 H   0  0  0  0  0  0  0  0  0  0  0  0
  140.7397   81.5744  222.6597 H   0  0  0  0  0  0  0  0  0  0  0  0
  140.2053   79.0653  224.3531 H   0  0  0  0  0  0  0  0  0  0  0  0
  139.3348   79.5624  222.9170 H   0  0  0  0  0  0  0  0  0  0  0  0
  139.1968   70.5229  221.8234 H   0  0  0  0  0  0  0  0  0  0  0  0
  139.0085   68.7984  223.6108 H   0  0  0  0  0  0  0  0  0  0  0  0
  139.4664   68.2058  225.9460 H   0  0  0  0  0  0  0  0  0  0  0  0
  141.4637   71.0473  228.5145 H   0  0  0  0  0  0  0  0  0  0  0  0
  141.5789   72.6657  226.6243 H   0  0  0  0  0  0  0  0  0  0  0  0
  1  2  2  0
  2  3  1  0
  3  4  1  0
  4  5  1  0
  5  6  2  0
  5  7  1  0
  7  8  1  0
  8  9  1  0
  9 10  1  0
 10 11  1  0
 11 12  1  0
 12 13  1  0
 13 14  1  0
 14 15  1  0
 15 16  1  0
  2 17  1  0
 17 18  2  0
 18 19  1  0
 19 20  2  0
 20 21  1  0
 21 22  2  0
 22 23  1  0
 22 24  1  0
 24 25  2  0
 25 26  1  0
 26 27  2  0
 11  7  1  0
 16 12  1  0
 27 17  1  0
 26 20  1  0
  3 28  1  0
  4 29  1  0
  4 30  1  0
  8 31  1  0
  8 32  1  0
  9 33  1  0
  9 34  1  0
 10 35  1  0
 10 36  1  0
 11 37  1  1
 12 38  1  0
 13 39  1  0
 13 40  1  0
 14 41  1  0
 14 42  1  0
 15 43  1  0
 15 44  1  0
 16 45  1  0
 16 46  1  0
 18 47  1  0
 19 48  1  0
 21 49  1  0
 24 50  1  0
 25 51  1  0
M  END
>  <smiles>  (21) 
O=C(NCC(=O)N1CCCC1C1CCCC1)c1ccc2cc(Cl)ccc2n1

>  <score_type>  (21) 
oracle

>  <origin>  (21) 
autodockgpu

>  <m_score__min__energy>  (21) 
-8.7400000000000002

>  <m_primary>  (21) 
energy

>  <rmsd>  (21) 
2.136931762672496

>  <m_score__min__rmsd>  (21) 
2.136931762672496

>  <meeko>  (21) 
{"free_energy": -8.57, "intermolecular_energy": -10.06, "internal_energy": -1.56, "cluster_size": 38, "cluster_id": 1, "rank_in_cluster": 7}

>  <energy>  (21) 
-8.43

>  <cluster_rmsd>  (21) 
1.13

>  <cluster>  (21) 
1

$$$$

     RDKit          3D

 51 54  0  0  0  0  0  0  0  0999 V2000
  134.7040   68.4960  225.0100 O   0  0  0  0  0  0  0  0  0  0  0  0
  135.1660   69.6730  224.8170 C   0  0  0  0  0  0  0  0  0  0  0  0
  136.3060   69.8900  224.0110 N   0  0  0  0  0  0  0  0  0  0  0  0
  136.9620   68.7820  223.3970 C   0  0  0  0  0  0  0  0  0  0  0  0
  138.3830   68.6440  223.8460 C   0  0  0  0  0  0  0  0  0  0  0  0
  138.8560   67.4710  223.7940 O   0  0  0  0  0  0  0  0  0  0  0  0
  139.1350   69.7640  224.2990 N   0  0  0  0  0  0  0  0  0  0  0  0
  139.7180   70.7310  223.3930 C   0  0  0  0  0  0  0  0  0  0  0  0
  140.5570   71.5870  224.3060 C   0  0  0  0  0  0  0  0  0  0  0  0
  140.7260   70.8040  225.5910 C   0  0  0  0  0  0  0  0  0  0  0  0
  139.4170   70.0910  225.6770 C   0  0  2  0  0  0  0  0  0  0  0  0
  139.3060   69.0240  226.6630 C   0  0  0  0  0  0  0  0  0  0  0  0
  140.1910   67.8530  226.5340 C   0  0  0  0  0  0  0  0  0  0  0  0
  141.0620   67.8430  227.7720 C   0  0  0  0  0  0  0  0  0  0  0  0
  140.9850   69.2390  228.3360 C   0  0  0  0  0  0  0  0  0  0  0  0
  139.5590   69.6310  228.0470 C   0  0  0  0  0  0  0  0  0  0  0  0
  134.5180   70.8400  225.4330 C   0  0  0  0  0  0  0  0  0  0  0  0
  133.5120   70.6100  226.3760 C   0  0  0  0  0  0  0  0  0  0  0  0
  132.8490   71.6440  227.0050 C   0  0  0  0  0  0  0  0  0  0  0  0
  133.2280   72.9250  226.6580 C   0  0  0  0  0  0  0  0  0  0  0  0
  132.6240   74.0220  227.2310 C   0  0  0  0  0  0  0  0  0  0  0  0
  133.0230   75.2950  226.8660 C   0  0  0  0  0  0  0  0  0  0  0  0
  132.2980   76.7260  227.5560 Cl  0  0  0  0  0  0  0  0  0  0  0  0
  134.0330   75.4850  225.9180 C   0  0  0  0  0  0  0  0  0  0  0  0
  134.6360   74.3830  225.3450 C   0  0  0  0  0  0  0  0  0  0  0  0
  134.2270   73.1010  225.7210 C   0  0  0  0  0  0  0  0  0  0  0  0
  134.8620   72.0810  225.1170 N   0  0  0  0  0  0  0  0  0  0  0  0
  136.6970   70.8630  223.8450 H   0  0  0  0  0  0  0  0  0  0  0  0
  136.4183   67.8613  223.6553 H   0  0  0  0  0  0  0  0  0  0  0  0
  136.9673   68.9536  222.3105 H   0  0  0  0  0  0  0  0  0  0  0  0
  140.3401   70.2358  222.6329 H   0  0  0  0  0  0  0  0  0  0  0  0
  138.9676   71.3045  222.8291 H   0  0  0  0  0  0  0  0  0  0  0  0
  141.5379   71.7832  223.8484 H   0  0  0  0  0  0  0  0  0  0  0  0
  140.0781   72.5597  224.4919 H   0  0  0  0  0  0  0  0  0  0  0  0
  141.5656   70.0966  225.5234 H   0  0  0  0  0  0  0  0  0  0  0  0
  140.9577   71.4254  226.4686 H   0  0  0  0  0  0  0  0  0  0  0  0
  138.6270   70.7191  226.1145 H   0  0  0  0  0  0  0  0  0  0  0  0
  138.2952   68.6234  226.4962 H   0  0  0  0  0  0  0  0  0  0  0  0
  139.5958   66.9295  226.4791 H   0  0  0  0  0  0  0  0  0  0  0  0
  140.7974   67.9080  225.6179 H   0  0  0  0  0  0  0  0  0  0  0  0
  140.6826   67.1129  228.5021 H   0  0  0  0  0  0  0  0  0  0  0  0
  142.0978   67.5563  227.5375 H   0  0  0  0  0  0  0  0  0  0  0  0
  141.1865   69.2422  229.4174 H   0  0  0  0  0  0  0  0  0  0  0  0
  141.7250   69.9279  227.9025 H   0  0  0  0  0  0  0  0  0  0  0  0
  138.8734   69.2071  228.7955 H   0  0  0  0  0  0  0  0  0  0  0  0
  139.3942   70.7181  228.0793 H   0  0  0  0  0  0  0  0  0  0  0  0
  133.2406   69.5733  226.6242 H   0  0  0  0  0  0  0  0  0  0  0  0
  132.0579   71.4566  227.7460 H   0  0  0  0  0  0  0  0  0  0  0  0
  131.8267   73.8862  227.9766 H   0  0  0  0  0  0  0  0  0  0  0  0
  134.3436   76.5007  225.6320 H   0  0  0  0  0  0  0  0  0  0  0  0
  135.4327   74.5134  224.5978 H   0  0  0  0  0  0  0  0  0  0  0  0
  1  2  2  0
  2  3  1  0
  3  4  1  0
  4  5  1  0
  5  6  2  0
  5  7  1  0
  7  8  1  0
  8  9  1  0
  9 10  1  0
 10 11  1  0
 11 12  1  0
 12 13  1  0
 13 14  1  0
 14 15  1  0
 15 16  1  0
  2 17  1  0
 17 18  2  0
 18 19  1  0
 19 20  2  0
 20 21  1  0
 21 22  2  0
 22 23  1  0
 22 24  1  0
 24 25  2  0
 25 26  1  0
 26 27  2  0
 11  7  1  0
 16 12  1  0
 27 17  1  0
 26 20  1  0
  3 28  1  0
  4 29  1  0
  4 30  1  0
  8 31  1  0
  8 32  1  0
  9 33  1  0
  9 34  1  0
 10 35  1  0
 10 36  1  0
 11 37  1  1
 12 38  1  0
 13 39  1  0
 13 40  1  0
 14 41  1  0
 14 42  1  0
 15 43  1  0
 15 44  1  0
 16 45  1  0
 16 46  1  0
 18 47  1  0
 19 48  1  0
 21 49  1  0
 24 50  1  0
 25 51  1  0
M  END
>  <smiles>  (22) 
O=C(NCC(=O)N1CCCC1C1CCCC1)c1ccc2cc(Cl)ccc2n1

>  <score_type>  (22) 
oracle

>  <origin>  (22) 
autodockgpu

>  <m_score__min__energy>  (22) 
-8.7400000000000002

>  <m_primary>  (22) 
energy

>  <rmsd>  (22) 
7.589123062400948

>  <m_score__min__rmsd>  (22) 
7.589123062400948

>  <meeko>  (22) 
{"free_energy": -8.33, "intermolecular_energy": -9.82, "internal_energy": -1.74, "cluster_size": 4, "cluster_id": 3, "rank_in_cluster": 4}

>  <energy>  (22) 
-8.43

>  <cluster_rmsd>  (22) 
1.13

>  <cluster>  (22) 
1

$$$$

     RDKit          3D

 51 54  0  0  0  0  0  0  0  0999 V2000
  140.6320   72.4470  220.7580 O   0  0  0  0  0  0  0  0  0  0  0  0
  140.2500   72.8400  221.9130 C   0  0  0  0  0  0  0  0  0  0  0  0
  139.8700   74.1810  222.1430 N   0  0  0  0  0  0  0  0  0  0  0  0
  139.9110   75.1230  221.0720 C   0  0  0  0  0  0  0  0  0  0  0  0
  139.8560   76.5370  221.5590 C   0  0  0  0  0  0  0  0  0  0  0  0
  139.3720   76.6920  222.7180 O   0  0  0  0  0  0  0  0  0  0  0  0
  140.3200   77.6200  220.7600 N   0  0  0  0  0  0  0  0  0  0  0  0
  140.2480   77.6100  219.3140 C   0  0  0  0  0  0  0  0  0  0  0  0
  141.0190   78.8470  218.9290 C   0  0  0  0  0  0  0  0  0  0  0  0
  141.8260   79.2450  220.1470 C   0  0  0  0  0  0  0  0  0  0  0  0
  140.9070   78.8430  221.2540 C   0  0  2  0  0  0  0  0  0  0  0  0
  141.4570   78.8330  222.6030 C   0  0  0  0  0  0  0  0  0  0  0  0
  142.8000   79.4010  222.8190 C   0  0  0  0  0  0  0  0  0  0  0  0
  142.6150   80.5850  223.7440 C   0  0  0  0  0  0  0  0  0  0  0  0
  141.1540   80.9460  223.6570 C   0  0  0  0  0  0  0  0  0  0  0  0
  140.4920   79.6010  223.5130 C   0  0  0  0  0  0  0  0  0  0  0  0
  140.1950   71.8990  223.0420 C   0  0  0  0  0  0  0  0  0  0  0  0
  139.6140   70.6470  222.8240 C   0  0  0  0  0  0  0  0  0  0  0  0
  139.5190   69.7000  223.8240 C   0  0  0  0  0  0  0  0  0  0  0  0
  140.0270   70.0510  225.0580 C   0  0  0  0  0  0  0  0  0  0  0  0
  139.9780   69.1740  226.1190 C   0  0  0  0  0  0  0  0  0  0  0  0
  140.4940   69.5480  227.3460 C   0  0  0  0  0  0  0  0  0  0  0  0
  140.4630   68.4830  228.7280 Cl  0  0  0  0  0  0  0  0  0  0  0  0
  141.0670   70.8110  227.5250 C   0  0  0  0  0  0  0  0  0  0  0  0
  141.1160   71.6880  226.4600 C   0  0  0  0  0  0  0  0  0  0  0  0
  140.5910   71.3000  225.2240 C   0  0  0  0  0  0  0  0  0  0  0  0
  140.6750   72.2100  224.2380 N   0  0  0  0  0  0  0  0  0  0  0  0
  139.5510   74.5170  223.0980 H   0  0  0  0  0  0  0  0  0  0  0  0
  140.8449   74.9785  220.5090 H   0  0  0  0  0  0  0  0  0  0  0  0
  139.0294   74.9504  220.4372 H   0  0  0  0  0  0  0  0  0  0  0  0
  140.7188   76.7058  218.9007 H   0  0  0  0  0  0  0  0  0  0  0  0
  139.2169   77.6043  218.9308 H   0  0  0  0  0  0  0  0  0  0  0  0
  141.6884   78.6301  218.0835 H   0  0  0  0  0  0  0  0  0  0  0  0
  140.3431   79.6568  218.6168 H   0  0  0  0  0  0  0  0  0  0  0  0
  142.7783   78.6965  220.1955 H   0  0  0  0  0  0  0  0  0  0  0  0
  142.1167   80.3057  220.1668 H   0  0  0  0  0  0  0  0  0  0  0  0
  140.1420   79.6063  221.4592 H   0  0  0  0  0  0  0  0  0  0  0  0
  141.5722   77.7619  222.8257 H   0  0  0  0  0  0  0  0  0  0  0  0
  143.4597   78.6536  223.2839 H   0  0  0  0  0  0  0  0  0  0  0  0
  143.2643   79.7038  221.8689 H   0  0  0  0  0  0  0  0  0  0  0  0
  142.8817   80.3112  224.7755 H   0  0  0  0  0  0  0  0  0  0  0  0
  143.2596   81.4290  223.4572 H   0  0  0  0  0  0  0  0  0  0  0  0
  140.8166   81.4591  224.5696 H   0  0  0  0  0  0  0  0  0  0  0  0
  140.9224   81.6383  222.8341 H   0  0  0  0  0  0  0  0  0  0  0  0
  140.3906   79.1044  224.4893 H   0  0  0  0  0  0  0  0  0  0  0  0
  139.4718   79.6630  223.1064 H   0  0  0  0  0  0  0  0  0  0  0  0
  139.2202   70.4087  221.8249 H   0  0  0  0  0  0  0  0  0  0  0  0
  139.0616   68.7156  223.6461 H   0  0  0  0  0  0  0  0  0  0  0  0
  139.5292   68.1780  225.9904 H   0  0  0  0  0  0  0  0  0  0  0  0
  141.4745   71.1026  228.5042 H   0  0  0  0  0  0  0  0  0  0  0  0
  141.5648   72.6847  226.5831 H   0  0  0  0  0  0  0  0  0  0  0  0
  1  2  2  0
  2  3  1  0
  3  4  1  0
  4  5  1  0
  5  6  2  0
  5  7  1  0
  7  8  1  0
  8  9  1  0
  9 10  1  0
 10 11  1  0
 11 12  1  0
 12 13  1  0
 13 14  1  0
 14 15  1  0
 15 16  1  0
  2 17  1  0
 17 18  2  0
 18 19  1  0
 19 20  2  0
 20 21  1  0
 21 22  2  0
 22 23  1  0
 22 24  1  0
 24 25  2  0
 25 26  1  0
 26 27  2  0
 11  7  1  0
 16 12  1  0
 27 17  1  0
 26 20  1  0
  3 28  1  0
  4 29  1  0
  4 30  1  0
  8 31  1  0
  8 32  1  0
  9 33  1  0
  9 34  1  0
 10 35  1  0
 10 36  1  0
 11 37  1  1
 12 38  1  0
 13 39  1  0
 13 40  1  0
 14 41  1  0
 14 42  1  0
 15 43  1  0
 15 44  1  0
 16 45  1  0
 16 46  1  0
 18 47  1  0
 19 48  1  0
 21 49  1  0
 24 50  1  0
 25 51  1  0
M  END
>  <smiles>  (23) 
O=C(NCC(=O)N1CCCC1C1CCCC1)c1ccc2cc(Cl)ccc2n1

>  <score_type>  (23) 
oracle

>  <origin>  (23) 
autodockgpu

>  <m_score__min__energy>  (23) 
-8.7400000000000002

>  <m_primary>  (23) 
energy

>  <rmsd>  (23) 
2.226539883007603

>  <m_score__min__rmsd>  (23) 
2.226539883007603

>  <meeko>  (23) 
{"free_energy": -8.54, "intermolecular_energy": -10.03, "internal_energy": -1.82, "cluster_size": 38, "cluster_id": 1, "rank_in_cluster": 11}

>  <energy>  (23) 
-8.42

>  <cluster_rmsd>  (23) 
1.15

>  <cluster>  (23) 
1

$$$$

     RDKit          3D

 51 54  0  0  0  0  0  0  0  0999 V2000
  134.8550   68.5260  225.0450 O   0  0  0  0  0  0  0  0  0  0  0  0
  135.2430   69.7210  224.8060 C   0  0  0  0  0  0  0  0  0  0  0  0
  136.3320   69.9790  223.9440 N   0  0  0  0  0  0  0  0  0  0  0  0
  137.0190   68.8930  223.3240 C   0  0  0  0  0  0  0  0  0  0  0  0
  138.4020   68.7130  223.8670 C   0  0  0  0  0  0  0  0  0  0  0  0
  138.8280   67.5210  223.8790 O   0  0  0  0  0  0  0  0  0  0  0  0
  139.1700   69.8160  224.3330 N   0  0  0  0  0  0  0  0  0  0  0  0
  139.7660   70.7870  223.4400 C   0  0  0  0  0  0  0  0  0  0  0  0
  140.6180   71.6190  224.3640 C   0  0  0  0  0  0  0  0  0  0  0  0
  140.7780   70.8160  225.6380 C   0  0  0  0  0  0  0  0  0  0  0  0
  139.4590   70.1200  225.7150 C   0  0  2  0  0  0  0  0  0  0  0  0
  139.3340   69.0410  226.6870 C   0  0  0  0  0  0  0  0  0  0  0  0
  140.2370   67.8830  226.5700 C   0  0  0  0  0  0  0  0  0  0  0  0
  141.0740   67.8700  227.8310 C   0  0  0  0  0  0  0  0  0  0  0  0
  140.9640   69.2580  228.4080 C   0  0  0  0  0  0  0  0  0  0  0  0
  139.5420   69.6370  228.0830 C   0  0  0  0  0  0  0  0  0  0  0  0
  134.5610   70.8660  225.4260 C   0  0  0  0  0  0  0  0  0  0  0  0
  133.5580   70.6030  226.3640 C   0  0  0  0  0  0  0  0  0  0  0  0
  132.8640   71.6140  226.9960 C   0  0  0  0  0  0  0  0  0  0  0  0
  133.2090   72.9060  226.6580 C   0  0  0  0  0  0  0  0  0  0  0  0
  132.5730   73.9840  227.2350 C   0  0  0  0  0  0  0  0  0  0  0  0
  132.9380   75.2690  226.8800 C   0  0  0  0  0  0  0  0  0  0  0  0
  132.1710   76.6750  227.5760 Cl  0  0  0  0  0  0  0  0  0  0  0  0
  133.9460   75.4930  225.9370 C   0  0  0  0  0  0  0  0  0  0  0  0
  134.5810   74.4110  225.3600 C   0  0  0  0  0  0  0  0  0  0  0  0
  134.2070   73.1160  225.7260 C   0  0  0  0  0  0  0  0  0  0  0  0
  134.8720   72.1170  225.1190 N   0  0  0  0  0  0  0  0  0  0  0  0
  136.6620   70.9670  223.7390 H   0  0  0  0  0  0  0  0  0  0  0  0
  136.4481   67.9686  223.4961 H   0  0  0  0  0  0  0  0  0  0  0  0
  137.1050   69.1175  222.2506 H   0  0  0  0  0  0  0  0  0  0  0  0
  140.3806   70.2935  222.6727 H   0  0  0  0  0  0  0  0  0  0  0  0
  139.0232   71.3787  222.8848 H   0  0  0  0  0  0  0  0  0  0  0  0
  141.6009   71.8082  223.9077 H   0  0  0  0  0  0  0  0  0  0  0  0
  140.1525   72.5954  224.5641 H   0  0  0  0  0  0  0  0  0  0  0  0
  141.6078   70.0981  225.5596 H   0  0  0  0  0  0  0  0  0  0  0  0
  141.0194   71.4216  226.5240 H   0  0  0  0  0  0  0  0  0  0  0  0
  138.6783   70.7534  226.1614 H   0  0  0  0  0  0  0  0  0  0  0  0
  138.3332   68.6295  226.4892 H   0  0  0  0  0  0  0  0  0  0  0  0
  139.6555   66.9528  226.4889 H   0  0  0  0  0  0  0  0  0  0  0  0
  140.8675   67.9560  225.6716 H   0  0  0  0  0  0  0  0  0  0  0  0
  140.6843   67.1270  228.5423 H   0  0  0  0  0  0  0  0  0  0  0  0
  142.1194   67.5991  227.6216 H   0  0  0  0  0  0  0  0  0  0  0  0
  141.1347   69.2510  229.4947 H   0  0  0  0  0  0  0  0  0  0  0  0
  141.7075   69.9604  228.0033 H   0  0  0  0  0  0  0  0  0  0  0  0
  138.8408   69.1983  228.8082 H   0  0  0  0  0  0  0  0  0  0  0  0
  139.3642   70.7219  228.1209 H   0  0  0  0  0  0  0  0  0  0  0  0
  133.3148   69.5577  226.6054 H   0  0  0  0  0  0  0  0  0  0  0  0
  132.0752   71.4005  227.7324 H   0  0  0  0  0  0  0  0  0  0  0  0
  131.7767   73.8221  227.9764 H   0  0  0  0  0  0  0  0  0  0  0  0
  134.2296   76.5186  225.6582 H   0  0  0  0  0  0  0  0  0  0  0  0
  135.3765   74.5680  224.6167 H   0  0  0  0  0  0  0  0  0  0  0  0
  1  2  2  0
  2  3  1  0
  3  4  1  0
  4  5  1  0
  5  6  2  0
  5  7  1  0
  7  8  1  0
  8  9  1  0
  9 10  1  0
 10 11  1  0
 11 12  1  0
 12 13  1  0
 13 14  1  0
 14 15  1  0
 15 16  1  0
  2 17  1  0
 17 18  2  0
 18 19  1  0
 19 20  2  0
 20 21  1  0
 21 22  2  0
 22 23  1  0
 22 24  1  0
 24 25  2  0
 25 26  1  0
 26 27  2  0
 11  7  1  0
 16 12  1  0
 27 17  1  0
 26 20  1  0
  3 28  1  0
  4 29  1  0
  4 30  1  0
  8 31  1  0
  8 32  1  0
  9 33  1  0
  9 34  1  0
 10 35  1  0
 10 36  1  0
 11 37  1  1
 12 38  1  0
 13 39  1  0
 13 40  1  0
 14 41  1  0
 14 42  1  0
 15 43  1  0
 15 44  1  0
 16 45  1  0
 16 46  1  0
 18 47  1  0
 19 48  1  0
 21 49  1  0
 24 50  1  0
 25 51  1  0
M  END
>  <smiles>  (24) 
O=C(NCC(=O)N1CCCC1C1CCCC1)c1ccc2cc(Cl)ccc2n1

>  <score_type>  (24) 
oracle

>  <origin>  (24) 
autodockgpu

>  <m_score__min__energy>  (24) 
-8.7400000000000002

>  <m_primary>  (24) 
energy

>  <rmsd>  (24) 
7.580833439995186

>  <m_score__min__rmsd>  (24) 
7.580833439995186

>  <meeko>  (24) 
{"free_energy": -8.33, "intermolecular_energy": -9.82, "internal_energy": -1.75, "cluster_size": 4, "cluster_id": 3, "rank_in_cluster": 3}

>  <energy>  (24) 
-8.38

>  <cluster_rmsd>  (24) 
1.22

>  <cluster>  (24) 
1

$$$$

     RDKit          3D

 51 54  0  0  0  0  0  0  0  0999 V2000
  141.6740   73.1740  220.6660 O   0  0  0  0  0  0  0  0  0  0  0  0
  140.9330   73.9610  221.3500 C   0  0  0  0  0  0  0  0  0  0  0  0
  139.8970   73.4630  222.1720 N   0  0  0  0  0  0  0  0  0  0  0  0
  139.6630   72.0570  222.2450 C   0  0  0  0  0  0  0  0  0  0  0  0
  139.8640   71.5210  223.6280 C   0  0  0  0  0  0  0  0  0  0  0  0
  140.7000   72.1530  224.3380 O   0  0  0  0  0  0  0  0  0  0  0  0
  139.1560   70.3790  224.0960 N   0  0  0  0  0  0  0  0  0  0  0  0
  137.7870   70.1000  223.7170 C   0  0  0  0  0  0  0  0  0  0  0  0
  137.4250   68.9300  224.5960 C   0  0  0  0  0  0  0  0  0  0  0  0
  138.4580   68.8900  225.7020 C   0  0  0  0  0  0  0  0  0  0  0  0
  139.6770   69.3670  224.9840 C   0  0  2  0  0  0  0  0  0  0  0  0
  140.8350   69.7130  225.7990 C   0  0  0  0  0  0  0  0  0  0  0  0
  140.6700   70.7200  226.8620 C   0  0  0  0  0  0  0  0  0  0  0  0
  140.9430   70.0060  228.1680 C   0  0  0  0  0  0  0  0  0  0  0  0
  140.7950   68.5360  227.8680 C   0  0  0  0  0  0  0  0  0  0  0  0
  141.3410   68.4300  226.4680 C   0  0  0  0  0  0  0  0  0  0  0  0
  141.1420   75.4150  221.3000 C   0  0  0  0  0  0  0  0  0  0  0  0
  141.9200   75.9300  220.2590 C   0  0  0  0  0  0  0  0  0  0  0  0
  142.1690   77.2820  220.1320 C   0  0  0  0  0  0  0  0  0  0  0  0
  141.6110   78.1060  221.0870 C   0  0  0  0  0  0  0  0  0  0  0  0
  141.8040   79.4700  221.0460 C   0  0  0  0  0  0  0  0  0  0  0  0
  141.2340   80.2750  222.0150 C   0  0  0  0  0  0  0  0  0  0  0  0
  141.4400   82.0080  222.0180 Cl  0  0  0  0  0  0  0  0  0  0  0  0
  140.4630   79.7220  223.0420 C   0  0  0  0  0  0  0  0  0  0  0  0
  140.2710   78.3550  223.0810 C   0  0  0  0  0  0  0  0  0  0  0  0
  140.8500   77.5500  222.0970 C   0  0  0  0  0  0  0  0  0  0  0  0
  140.6180   76.2300  222.2050 N   0  0  0  0  0  0  0  0  0  0  0  0
  139.2770   74.1080  222.7430 H   0  0  0  0  0  0  0  0  0  0  0  0
  138.6279   71.8536  221.9333 H   0  0  0  0  0  0  0  0  0  0  0  0
  140.3861   71.5596  221.5819 H   0  0  0  0  0  0  0  0  0  0  0  0
  137.1365   70.9635  223.9200 H   0  0  0  0  0  0  0  0  0  0  0  0
  137.6680   69.8898  222.6438 H   0  0  0  0  0  0  0  0  0  0  0  0
  136.4194   69.0693  225.0196 H   0  0  0  0  0  0  0  0  0  0  0  0
  137.4161   67.9900  224.0247 H   0  0  0  0  0  0  0  0  0  0  0  0
  138.1886   69.5637  226.5287 H   0  0  0  0  0  0  0  0  0  0  0  0
  138.5720   67.9036  226.1753 H   0  0  0  0  0  0  0  0  0  0  0  0
  140.1769   68.5592  224.4294 H   0  0  0  0  0  0  0  0  0  0  0  0
  141.5252   70.1813  225.0818 H   0  0  0  0  0  0  0  0  0  0  0  0
  141.3855   71.5435  226.7211 H   0  0  0  0  0  0  0  0  0  0  0  0
  139.6600   71.1555  226.8475 H   0  0  0  0  0  0  0  0  0  0  0  0
  141.9622   70.2251  228.5191 H   0  0  0  0  0  0  0  0  0  0  0  0
  140.2520   70.3303  228.9601 H   0  0  0  0  0  0  0  0  0  0  0  0
  141.3821   67.9262  228.5705 H   0  0  0  0  0  0  0  0  0  0  0  0
  139.7614   68.1718  227.9633 H   0  0  0  0  0  0  0  0  0  0  0  0
  142.4404   68.3953  226.4746 H   0  0  0  0  0  0  0  0  0  0  0  0
  141.0206   67.5156  225.9472 H   0  0  0  0  0  0  0  0  0  0  0  0
  142.3466   75.2372  219.5188 H   0  0  0  0  0  0  0  0  0  0  0  0
  142.7816   77.6819  219.3105 H   0  0  0  0  0  0  0  0  0  0  0  0
  142.4101   79.9172  220.2443 H   0  0  0  0  0  0  0  0  0  0  0  0
  140.0143   80.3687  223.8104 H   0  0  0  0  0  0  0  0  0  0  0  0
  139.6664   77.9032  223.8812 H   0  0  0  0  0  0  0  0  0  0  0  0
  1  2  2  0
  2  3  1  0
  3  4  1  0
  4  5  1  0
  5  6  2  0
  5  7  1  0
  7  8  1  0
  8  9  1  0
  9 10  1  0
 10 11  1  0
 11 12  1  0
 12 13  1  0
 13 14  1  0
 14 15  1  0
 15 16  1  0
  2 17  1  0
 17 18  2  0
 18 19  1  0
 19 20  2  0
 20 21  1  0
 21 22  2  0
 22 23  1  0
 22 24  1  0
 24 25  2  0
 25 26  1  0
 26 27  2  0
 11  7  1  0
 16 12  1  0
 27 17  1  0
 26 20  1  0
  3 28  1  0
  4 29  1  0
  4 30  1  0
  8 31  1  0
  8 32  1  0
  9 33  1  0
  9 34  1  0
 10 35  1  0
 10 36  1  0
 11 37  1  6
 12 38  1  0
 13 39  1  0
 13 40  1  0
 14 41  1  0
 14 42  1  0
 15 43  1  0
 15 44  1  0
 16 45  1  0
 16 46  1  0
 18 47  1  0
 19 48  1  0
 21 49  1  0
 24 50  1  0
 25 51  1  0
M  END
>  <smiles>  (25) 
O=C(NCC(=O)N1CCCC1C1CCCC1)c1ccc2cc(Cl)ccc2n1

>  <score_type>  (25) 
oracle

>  <origin>  (25) 
autodockgpu

>  <m_score__min__energy>  (25) 
-8.7400000000000002

>  <m_primary>  (25) 
energy

>  <rmsd>  (25) 
8.531078592101682

>  <m_score__min__rmsd>  (25) 
8.531078592101682

>  <meeko>  (25) 
{"free_energy": -8.43, "intermolecular_energy": -9.92, "internal_energy": -1.37, "cluster_size": 2, "cluster_id": 2, "rank_in_cluster": 2}

>  <energy>  (25) 
-8.36

>  <cluster_rmsd>  (25) 
1.15

>  <cluster>  (25) 
1

$$$$

     RDKit          3D

 51 54  0  0  0  0  0  0  0  0999 V2000
  140.6930   72.5170  220.7930 O   0  0  0  0  0  0  0  0  0  0  0  0
  140.2890   72.9000  221.9440 C   0  0  0  0  0  0  0  0  0  0  0  0
  139.9050   74.2400  222.1770 N   0  0  0  0  0  0  0  0  0  0  0  0
  139.9680   75.1910  221.1150 C   0  0  0  0  0  0  0  0  0  0  0  0
  139.6920   76.5850  221.5850 C   0  0  0  0  0  0  0  0  0  0  0  0
  139.0510   76.6720  222.6730 O   0  0  0  0  0  0  0  0  0  0  0  0
  140.1260   77.7210  220.8470 N   0  0  0  0  0  0  0  0  0  0  0  0
  140.2540   77.7140  219.4050 C   0  0  0  0  0  0  0  0  0  0  0  0
  140.9150   79.0380  219.1180 C   0  0  0  0  0  0  0  0  0  0  0  0
  141.4940   79.5210  220.4310 C   0  0  0  0  0  0  0  0  0  0  0  0
  140.4880   79.0030  221.4050 C   0  0  2  0  0  0  0  0  0  0  0  0
  140.8460   79.0500  222.8170 C   0  0  0  0  0  0  0  0  0  0  0  0
  142.2740   79.0170  223.1810 C   0  0  0  0  0  0  0  0  0  0  0  0
  142.5660   80.3340  223.8670 C   0  0  0  0  0  0  0  0  0  0  0  0
  141.4460   81.2600  223.4650 C   0  0  0  0  0  0  0  0  0  0  0  0
  140.2590   80.3350  223.4110 C   0  0  0  0  0  0  0  0  0  0  0  0
  140.2110   71.9510  223.0630 C   0  0  0  0  0  0  0  0  0  0  0  0
  139.6050   70.7120  222.8310 C   0  0  0  0  0  0  0  0  0  0  0  0
  139.4870   69.7590  223.8220 C   0  0  0  0  0  0  0  0  0  0  0  0
  139.9980   70.0870  225.0600 C   0  0  0  0  0  0  0  0  0  0  0  0
  139.9270   69.2010  226.1140 C   0  0  0  0  0  0  0  0  0  0  0  0
  140.4470   69.5540  227.3450 C   0  0  0  0  0  0  0  0  0  0  0  0
  140.3890   68.4760  228.7170 Cl  0  0  0  0  0  0  0  0  0  0  0  0
  141.0450   70.8020  227.5390 C   0  0  0  0  0  0  0  0  0  0  0  0
  141.1150   71.6880  226.4820 C   0  0  0  0  0  0  0  0  0  0  0  0
  140.5870   71.3230  225.2410 C   0  0  0  0  0  0  0  0  0  0  0  0
  140.6930   72.2400  224.2640 N   0  0  0  0  0  0  0  0  0  0  0  0
  139.5680   74.5690  223.1290 H   0  0  0  0  0  0  0  0  0  0  0  0
  140.9740   75.1598  220.6712 H   0  0  0  0  0  0  0  0  0  0  0  0
  139.1959   74.9248  220.3781 H   0  0  0  0  0  0  0  0  0  0  0  0
  140.8826   76.8767  219.0678 H   0  0  0  0  0  0  0  0  0  0  0  0
  139.2932   77.5868  218.8847 H   0  0  0  0  0  0  0  0  0  0  0  0
  141.7148   78.9104  218.3737 H   0  0  0  0  0  0  0  0  0  0  0  0
  140.1952   79.7625  218.7094 H   0  0  0  0  0  0  0  0  0  0  0  0
  142.4898   79.0909  220.6140 H   0  0  0  0  0  0  0  0  0  0  0  0
  141.6494   80.6088  220.4808 H   0  0  0  0  0  0  0  0  0  0  0  0
  139.6153   79.6664  221.4962 H   0  0  0  0  0  0  0  0  0  0  0  0
  140.4382   78.1103  223.2178 H   0  0  0  0  0  0  0  0  0  0  0  0
  142.4739   78.1786  223.8645 H   0  0  0  0  0  0  0  0  0  0  0  0
  142.9102   78.8773  222.2946 H   0  0  0  0  0  0  0  0  0  0  0  0
  142.5818   80.2025  224.9590 H   0  0  0  0  0  0  0  0  0  0  0  0
  143.5483   80.7345  223.5761 H   0  0  0  0  0  0  0  0  0  0  0  0
  141.2981   82.0527  224.2132 H   0  0  0  0  0  0  0  0  0  0  0  0
  141.6330   81.7878  222.5182 H   0  0  0  0  0  0  0  0  0  0  0  0
  139.8526   80.1551  224.4172 H   0  0  0  0  0  0  0  0  0  0  0  0
  139.4219   80.7398  222.8232 H   0  0  0  0  0  0  0  0  0  0  0  0
  139.2106   70.4905  221.8283 H   0  0  0  0  0  0  0  0  0  0  0  0
  139.0092   68.7863  223.6338 H   0  0  0  0  0  0  0  0  0  0  0  0
  139.4577   68.2158  225.9756 H   0  0  0  0  0  0  0  0  0  0  0  0
  141.4552   71.0755  228.5223 H   0  0  0  0  0  0  0  0  0  0  0  0
  141.5832   72.6743  226.6162 H   0  0  0  0  0  0  0  0  0  0  0  0
  1  2  2  0
  2  3  1  0
  3  4  1  0
  4  5  1  0
  5  6  2  0
  5  7  1  0
  7  8  1  0
  8  9  1  0
  9 10  1  0
 10 11  1  0
 11 12  1  0
 12 13  1  0
 13 14  1  0
 14 15  1  0
 15 16  1  0
  2 17  1  0
 17 18  2  0
 18 19  1  0
 19 20  2  0
 20 21  1  0
 21 22  2  0
 22 23  1  0
 22 24  1  0
 24 25  2  0
 25 26  1  0
 26 27  2  0
 11  7  1  0
 16 12  1  0
 27 17  1  0
 26 20  1  0
  3 28  1  0
  4 29  1  0
  4 30  1  0
  8 31  1  0
  8 32  1  0
  9 33  1  0
  9 34  1  0
 10 35  1  0
 10 36  1  0
 11 37  1  1
 12 38  1  0
 13 39  1  0
 13 40  1  0
 14 41  1  0
 14 42  1  0
 15 43  1  0
 15 44  1  0
 16 45  1  0
 16 46  1  0
 18 47  1  0
 19 48  1  0
 21 49  1  0
 24 50  1  0
 25 51  1  0
M  END
>  <smiles>  (26) 
O=C(NCC(=O)N1CCCC1C1CCCC1)c1ccc2cc(Cl)ccc2n1

>  <score_type>  (26) 
oracle

>  <origin>  (26) 
autodockgpu

>  <m_score__min__energy>  (26) 
-8.7400000000000002

>  <m_primary>  (26) 
energy

>  <rmsd>  (26) 
2.363959830945115

>  <m_score__min__rmsd>  (26) 
2.363959830945115

>  <meeko>  (26) 
{"free_energy": -8.43, "intermolecular_energy": -9.92, "internal_energy": -1.83, "cluster_size": 38, "cluster_id": 1, "rank_in_cluster": 21}

>  <energy>  (26) 
-8.35

>  <cluster_rmsd>  (26) 
1.17

>  <cluster>  (26) 
1

$$$$

     RDKit          3D

 51 54  0  0  0  0  0  0  0  0999 V2000
  143.6460   76.0210  219.7810 O   0  0  0  0  0  0  0  0  0  0  0  0
  143.0730   74.9190  220.0830 C   0  0  0  0  0  0  0  0  0  0  0  0
  141.7620   74.8950  220.6100 N   0  0  0  0  0  0  0  0  0  0  0  0
  141.0570   76.1180  220.8130 C   0  0  0  0  0  0  0  0  0  0  0  0
  140.0290   76.0060  221.8950 C   0  0  0  0  0  0  0  0  0  0  0  0
  139.8430   74.8390  222.3480 O   0  0  0  0  0  0  0  0  0  0  0  0
  139.3180   77.1440  222.3700 N   0  0  0  0  0  0  0  0  0  0  0  0
  137.8880   77.2970  222.2010 C   0  0  0  0  0  0  0  0  0  0  0  0
  137.6410   78.7070  222.6750 C   0  0  0  0  0  0  0  0  0  0  0  0
  138.9890   79.3970  222.6850 C   0  0  0  0  0  0  0  0  0  0  0  0
  139.8940   78.2710  223.0640 C   0  0  2  0  0  0  0  0  0  0  0  0
  141.3270   78.4950  222.9200 C   0  0  0  0  0  0  0  0  0  0  0  0
  141.8020   79.2990  221.7810 C   0  0  0  0  0  0  0  0  0  0  0  0
  142.4620   80.5250  222.3740 C   0  0  0  0  0  0  0  0  0  0  0  0
  141.9430   80.6250  223.7860 C   0  0  0  0  0  0  0  0  0  0  0  0
  141.8280   79.1800  224.1960 C   0  0  0  0  0  0  0  0  0  0  0  0
  143.7670   73.6370  219.8880 C   0  0  0  0  0  0  0  0  0  0  0  0
  145.1550   73.6620  219.7210 C   0  0  0  0  0  0  0  0  0  0  0  0
  145.8890   72.5090  219.5320 C   0  0  0  0  0  0  0  0  0  0  0  0
  145.1850   71.3230  219.5170 C   0  0  0  0  0  0  0  0  0  0  0  0
  145.8300   70.1190  219.3340 C   0  0  0  0  0  0  0  0  0  0  0  0
  145.1020   68.9430  219.3220 C   0  0  0  0  0  0  0  0  0  0  0  0
  145.8600   67.3870  219.0960 Cl  0  0  0  0  0  0  0  0  0  0  0  0
  143.7140   68.9590  219.4920 C   0  0  0  0  0  0  0  0  0  0  0  0
  143.0710   70.1670  219.6750 C   0  0  0  0  0  0  0  0  0  0  0  0
  143.8150   71.3490  219.6860 C   0  0  0  0  0  0  0  0  0  0  0  0
  143.1150   72.4830  219.8680 N   0  0  0  0  0  0  0  0  0  0  0  0
  141.2770   73.9850  220.8630 H   0  0  0  0  0  0  0  0  0  0  0  0
  141.7785   76.9009  221.0897 H   0  0  0  0  0  0  0  0  0  0  0  0
  140.5357   76.3663  219.8768 H   0  0  0  0  0  0  0  0  0  0  0  0
  137.5993   77.1779  221.1463 H   0  0  0  0  0  0  0  0  0  0  0  0
  137.3030   76.5453  222.7512 H   0  0  0  0  0  0  0  0  0  0  0  0
  136.9540   79.2241  221.9890 H   0  0  0  0  0  0  0  0  0  0  0  0
  137.1805   78.7170  223.6739 H   0  0  0  0  0  0  0  0  0  0  0  0
  139.2420   79.8001  221.6933 H   0  0  0  0  0  0  0  0  0  0  0  0
  139.0448   80.2649  223.3586 H   0  0  0  0  0  0  0  0  0  0  0  0
  139.9225   78.1055  224.1511 H   0  0  0  0  0  0  0  0  0  0  0  0
  141.7274   77.4882  222.7303 H   0  0  0  0  0  0  0  0  0  0  0  0
  142.5281   78.7254  221.1861 H   0  0  0  0  0  0  0  0  0  0  0  0
  140.9733   79.5745  221.1122 H   0  0  0  0  0  0  0  0  0  0  0  0
  143.5559   80.4092  222.3747 H   0  0  0  0  0  0  0  0  0  0  0  0
  142.2337   81.4304  221.7924 H   0  0  0  0  0  0  0  0  0  0  0  0
  142.6502   81.1661  224.4318 H   0  0  0  0  0  0  0  0  0  0  0  0
  140.9964   81.1796  223.8663 H   0  0  0  0  0  0  0  0  0  0  0  0
  142.8048   78.7777  224.5026 H   0  0  0  0  0  0  0  0  0  0  0  0
  141.1626   79.0271  225.0584 H   0  0  0  0  0  0  0  0  0  0  0  0
  145.6774   74.6298  219.7409 H   0  0  0  0  0  0  0  0  0  0  0  0
  146.9808   72.5344  219.3999 H   0  0  0  0  0  0  0  0  0  0  0  0
  146.9212   70.0933  219.1978 H   0  0  0  0  0  0  0  0  0  0  0  0
  143.1412   68.0200  219.4801 H   0  0  0  0  0  0  0  0  0  0  0  0
  141.9799   70.1983  219.8112 H   0  0  0  0  0  0  0  0  0  0  0  0
  1  2  2  0
  2  3  1  0
  3  4  1  0
  4  5  1  0
  5  6  2  0
  5  7  1  0
  7  8  1  0
  8  9  1  0
  9 10  1  0
 10 11  1  0
 11 12  1  0
 12 13  1  0
 13 14  1  0
 14 15  1  0
 15 16  1  0
  2 17  1  0
 17 18  2  0
 18 19  1  0
 19 20  2  0
 20 21  1  0
 21 22  2  0
 22 23  1  0
 22 24  1  0
 24 25  2  0
 25 26  1  0
 26 27  2  0
 11  7  1  0
 16 12  1  0
 27 17  1  0
 26 20  1  0
  3 28  1  0
  4 29  1  0
  4 30  1  0
  8 31  1  0
  8 32  1  0
  9 33  1  0
  9 34  1  0
 10 35  1  0
 10 36  1  0
 11 37  1  1
 12 38  1  0
 13 39  1  0
 13 40  1  0
 14 41  1  0
 14 42  1  0
 15 43  1  0
 15 44  1  0
 16 45  1  0
 16 46  1  0
 18 47  1  0
 19 48  1  0
 21 49  1  0
 24 50  1  0
 25 51  1  0
M  END
>  <smiles>  (27) 
O=C(NCC(=O)N1CCCC1C1CCCC1)c1ccc2cc(Cl)ccc2n1

>  <score_type>  (27) 
oracle

>  <origin>  (27) 
autodockgpu

>  <m_score__min__energy>  (27) 
-8.7400000000000002

>  <m_primary>  (27) 
energy

>  <rmsd>  (27) 
6.644251964603638

>  <m_score__min__rmsd>  (27) 
6.644251964603638

>  <meeko>  (27) 
{"free_energy": -7.41, "intermolecular_energy": -8.9, "internal_energy": -2.03, "cluster_size": 2, "cluster_id": 5, "rank_in_cluster": 2}

>  <energy>  (27) 
-8.34

>  <cluster_rmsd>  (27) 
1.11

>  <cluster>  (27) 
1

$$$$

     RDKit          3D

 51 54  0  0  0  0  0  0  0  0999 V2000
  139.7290   72.0940  220.7440 O   0  0  0  0  0  0  0  0  0  0  0  0
  139.7050   72.5150  221.9510 C   0  0  0  0  0  0  0  0  0  0  0  0
  139.5540   73.8890  222.2450 N   0  0  0  0  0  0  0  0  0  0  0  0
  139.4270   74.8320  221.1830 C   0  0  0  0  0  0  0  0  0  0  0  0
  139.6450   76.2390  221.6450 C   0  0  0  0  0  0  0  0  0  0  0  0
  139.2050   76.5030  222.8020 O   0  0  0  0  0  0  0  0  0  0  0  0
  140.3020   77.2000  220.8270 N   0  0  0  0  0  0  0  0  0  0  0  0
  140.7830   76.8950  219.4960 C   0  0  0  0  0  0  0  0  0  0  0  0
  141.5570   78.1340  219.1240 C   0  0  0  0  0  0  0  0  0  0  0  0
  141.8150   78.8810  220.4150 C   0  0  0  0  0  0  0  0  0  0  0  0
  140.5760   78.5710  221.1880 C   0  0  2  0  0  0  0  0  0  0  0  0
  140.5750   78.9110  222.6060 C   0  0  0  0  0  0  0  0  0  0  0  0
  141.8140   78.7120  223.3760 C   0  0  0  0  0  0  0  0  0  0  0  0
  142.2440   80.0840  223.8480 C   0  0  0  0  0  0  0  0  0  0  0  0
  141.5230   81.0650  222.9600 C   0  0  0  0  0  0  0  0  0  0  0  0
  140.1950   80.3900  222.7360 C   0  0  0  0  0  0  0  0  0  0  0  0
  139.8320   71.5740  223.0730 C   0  0  0  0  0  0  0  0  0  0  0  0
  139.4350   70.2500  222.8660 C   0  0  0  0  0  0  0  0  0  0  0  0
  139.5180   69.2970  223.8610 C   0  0  0  0  0  0  0  0  0  0  0  0
  140.0160   69.7160  225.0780 C   0  0  0  0  0  0  0  0  0  0  0  0
  140.1370   68.8390  226.1340 C   0  0  0  0  0  0  0  0  0  0  0  0
  140.6390   69.2820  227.3430 C   0  0  0  0  0  0  0  0  0  0  0  0
  140.8190   68.2210  228.7170 Cl  0  0  0  0  0  0  0  0  0  0  0  0
  141.0260   70.6150  227.5120 C   0  0  0  0  0  0  0  0  0  0  0  0
  140.9030   71.4930  226.4520 C   0  0  0  0  0  0  0  0  0  0  0  0
  140.3950   71.0350  225.2340 C   0  0  0  0  0  0  0  0  0  0  0  0
  140.3060   71.9490  224.2530 N   0  0  0  0  0  0  0  0  0  0  0  0
  139.5310   74.2480  223.2440 H   0  0  0  0  0  0  0  0  0  0  0  0
  140.1708   74.5947  220.4081 H   0  0  0  0  0  0  0  0  0  0  0  0
  138.4019   74.7613  220.7903 H   0  0  0  0  0  0  0  0  0  0  0  0
  141.4349   76.0090  219.5044 H   0  0  0  0  0  0  0  0  0  0  0  0
  139.9762   76.6582  218.7868 H   0  0  0  0  0  0  0  0  0  0  0  0
  142.5092   77.8587  218.6470 H   0  0  0  0  0  0  0  0  0  0  0  0
  140.9964   78.7547  218.4096 H   0  0  0  0  0  0  0  0  0  0  0  0
  142.7129   78.5031  220.9258 H   0  0  0  0  0  0  0  0  0  0  0  0
  142.0045   79.9563  220.2819 H   0  0  0  0  0  0  0  0  0  0  0  0
  139.7409   79.2352  220.9208 H   0  0  0  0  0  0  0  0  0  0  0  0
  139.8627   78.1958  223.0430 H   0  0  0  0  0  0  0  0  0  0  0  0
  141.6259   78.0542  224.2374 H   0  0  0  0  0  0  0  0  0  0  0  0
  142.5942   78.2366  222.7634 H   0  0  0  0  0  0  0  0  0  0  0  0
  141.9571   80.2354  224.8991 H   0  0  0  0  0  0  0  0  0  0  0  0
  143.3352   80.2098  223.7901 H   0  0  0  0  0  0  0  0  0  0  0  0
  141.3956   82.0356  223.4617 H   0  0  0  0  0  0  0  0  0  0  0  0
  142.0623   81.2902  222.0281 H   0  0  0  0  0  0  0  0  0  0  0  0
  139.5210   80.5510  223.5903 H   0  0  0  0  0  0  0  0  0  0  0  0
  139.6557   80.7768  221.8588 H   0  0  0  0  0  0  0  0  0  0  0  0
  139.0444   69.9585  221.8799 H   0  0  0  0  0  0  0  0  0  0  0  0
  139.2033   68.2565  223.6925 H   0  0  0  0  0  0  0  0  0  0  0  0
  139.8345   67.7881  226.0149 H   0  0  0  0  0  0  0  0  0  0  0  0
  141.4237   70.9607  228.4775 H   0  0  0  0  0  0  0  0  0  0  0  0
  141.2030   72.5451  226.5665 H   0  0  0  0  0  0  0  0  0  0  0  0
  1  2  2  0
  2  3  1  0
  3  4  1  0
  4  5  1  0
  5  6  2  0
  5  7  1  0
  7  8  1  0
  8  9  1  0
  9 10  1  0
 10 11  1  0
 11 12  1  0
 12 13  1  0
 13 14  1  0
 14 15  1  0
 15 16  1  0
  2 17  1  0
 17 18  2  0
 18 19  1  0
 19 20  2  0
 20 21  1  0
 21 22  2  0
 22 23  1  0
 22 24  1  0
 24 25  2  0
 25 26  1  0
 26 27  2  0
 11  7  1  0
 16 12  1  0
 27 17  1  0
 26 20  1  0
  3 28  1  0
  4 29  1  0
  4 30  1  0
  8 31  1  0
  8 32  1  0
  9 33  1  0
  9 34  1  0
 10 35  1  0
 10 36  1  0
 11 37  1  6
 12 38  1  0
 13 39  1  0
 13 40  1  0
 14 41  1  0
 14 42  1  0
 15 43  1  0
 15 44  1  0
 16 45  1  0
 16 46  1  0
 18 47  1  0
 19 48  1  0
 21 49  1  0
 24 50  1  0
 25 51  1  0
M  END
>  <smiles>  (28) 
O=C(NCC(=O)N1CCCC1C1CCCC1)c1ccc2cc(Cl)ccc2n1

>  <score_type>  (28) 
oracle

>  <origin>  (28) 
autodockgpu

>  <m_score__min__energy>  (28) 
-8.7400000000000002

>  <m_primary>  (28) 
energy

>  <rmsd>  (28) 
1.9955279842211369

>  <m_score__min__rmsd>  (28) 
1.9955279842211369

>  <meeko>  (28) 
{"free_energy": -8.45, "intermolecular_energy": -9.95, "internal_energy": -1.73, "cluster_size": 38, "cluster_id": 1, "rank_in_cluster": 19}

>  <energy>  (28) 
-8.33

>  <cluster_rmsd>  (28) 
1.22

>  <cluster>  (28) 
1

$$$$

     RDKit          3D

 51 54  0  0  0  0  0  0  0  0999 V2000
  140.9400   72.8280  221.0620 O   0  0  0  0  0  0  0  0  0  0  0  0
  140.1940   72.9840  222.0890 C   0  0  0  0  0  0  0  0  0  0  0  0
  139.3790   74.1290  222.2360 N   0  0  0  0  0  0  0  0  0  0  0  0
  139.3830   75.1360  221.2260 C   0  0  0  0  0  0  0  0  0  0  0  0
  140.5580   76.0550  221.3470 C   0  0  0  0  0  0  0  0  0  0  0  0
  141.4680   75.6690  222.1370 O   0  0  0  0  0  0  0  0  0  0  0  0
  140.6300   77.2750  220.6180 N   0  0  0  0  0  0  0  0  0  0  0  0
  140.5460   77.3280  219.1730 C   0  0  0  0  0  0  0  0  0  0  0  0
  140.8630   78.7700  218.8690 C   0  0  0  0  0  0  0  0  0  0  0  0
  141.5110   79.3380  220.1140 C   0  0  0  0  0  0  0  0  0  0  0  0
  140.7900   78.5920  221.1880 C   0  0  2  0  0  0  0  0  0  0  0  0
  141.3310   78.6840  222.5380 C   0  0  0  0  0  0  0  0  0  0  0  0
  142.6140   79.3810  222.7350 C   0  0  0  0  0  0  0  0  0  0  0  0
  142.3160   80.5770  223.6140 C   0  0  0  0  0  0  0  0  0  0  0  0
  140.8280   80.7980  223.5100 C   0  0  0  0  0  0  0  0  0  0  0  0
  140.2940   79.3930  223.4160 C   0  0  0  0  0  0  0  0  0  0  0  0
  140.1620   71.9680  223.1510 C   0  0  0  0  0  0  0  0  0  0  0  0
  139.6090   70.7200  222.8480 C   0  0  0  0  0  0  0  0  0  0  0  0
  139.5370   69.7060  223.7810 C   0  0  0  0  0  0  0  0  0  0  0  0
  140.0400   69.9830  225.0360 C   0  0  0  0  0  0  0  0  0  0  0  0
  140.0130   69.0350  226.0350 C   0  0  0  0  0  0  0  0  0  0  0  0
  140.5240   69.3370  227.2840 C   0  0  0  0  0  0  0  0  0  0  0  0
  140.5200   68.1790  228.5910 Cl  0  0  0  0  0  0  0  0  0  0  0  0
  141.0680   70.5970  227.5490 C   0  0  0  0  0  0  0  0  0  0  0  0
  141.0940   71.5450  226.5460 C   0  0  0  0  0  0  0  0  0  0  0  0
  140.5770   71.2300  225.2870 C   0  0  0  0  0  0  0  0  0  0  0  0
  140.6380   72.2070  224.3650 N   0  0  0  0  0  0  0  0  0  0  0  0
  138.7550   74.2670  223.0840 H   0  0  0  0  0  0  0  0  0  0  0  0
  139.4147   74.6487  220.2403 H   0  0  0  0  0  0  0  0  0  0  0  0
  138.4703   75.7380  221.3465 H   0  0  0  0  0  0  0  0  0  0  0  0
  141.2819   76.6549  218.7090 H   0  0  0  0  0  0  0  0  0  0  0  0
  139.5689   77.0069  218.7830 H   0  0  0  0  0  0  0  0  0  0  0  0
  141.5550   78.8356  218.0165 H   0  0  0  0  0  0  0  0  0  0  0  0
  139.9546   79.3298  218.6020 H   0  0  0  0  0  0  0  0  0  0  0  0
  142.5911   79.1307  220.1357 H   0  0  0  0  0  0  0  0  0  0  0  0
  141.4378   80.4322  220.1997 H   0  0  0  0  0  0  0  0  0  0  0  0
  139.8195   79.0482  221.4330 H   0  0  0  0  0  0  0  0  0  0  0  0
  141.5433   77.6374  222.8016 H   0  0  0  0  0  0  0  0  0  0  0  0
  143.3372   78.7156  223.2292 H   0  0  0  0  0  0  0  0  0  0  0  0
  143.0535   79.6895  221.7749 H   0  0  0  0  0  0  0  0  0  0  0  0
  142.6010   80.3681  224.6557 H   0  0  0  0  0  0  0  0  0  0  0  0
  142.8819   81.4654  223.2970 H   0  0  0  0  0  0  0  0  0  0  0  0
  140.4394   81.3118  224.4016 H   0  0  0  0  0  0  0  0  0  0  0  0
  140.5381   81.4344  222.6609 H   0  0  0  0  0  0  0  0  0  0  0  0
  140.2335   78.9264  224.4103 H   0  0  0  0  0  0  0  0  0  0  0  0
  139.2747   79.3448  223.0052 H   0  0  0  0  0  0  0  0  0  0  0  0
  139.2195   70.5411  221.8350 H   0  0  0  0  0  0  0  0  0  0  0  0
  139.1007   68.7262  223.5368 H   0  0  0  0  0  0  0  0  0  0  0  0
  139.5860   68.0402  225.8397 H   0  0  0  0  0  0  0  0  0  0  0  0
  141.4708   70.8305  228.5456 H   0  0  0  0  0  0  0  0  0  0  0  0
  141.5188   72.5416  226.7367 H   0  0  0  0  0  0  0  0  0  0  0  0
  1  2  2  0
  2  3  1  0
  3  4  1  0
  4  5  1  0
  5  6  2  0
  5  7  1  0
  7  8  1  0
  8  9  1  0
  9 10  1  0
 10 11  1  0
 11 12  1  0
 12 13  1  0
 13 14  1  0
 14 15  1  0
 15 16  1  0
  2 17  1  0
 17 18  2  0
 18 19  1  0
 19 20  2  0
 20 21  1  0
 21 22  2  0
 22 23  1  0
 22 24  1  0
 24 25  2  0
 25 26  1  0
 26 27  2  0
 11  7  1  0
 16 12  1  0
 27 17  1  0
 26 20  1  0
  3 28  1  0
  4 29  1  0
  4 30  1  0
  8 31  1  0
  8 32  1  0
  9 33  1  0
  9 34  1  0
 10 35  1  0
 10 36  1  0
 11 37  1  1
 12 38  1  0
 13 39  1  0
 13 40  1  0
 14 41  1  0
 14 42  1  0
 15 43  1  0
 15 44  1  0
 16 45  1  0
 16 46  1  0
 18 47  1  0
 19 48  1  0
 21 49  1  0
 24 50  1  0
 25 51  1  0
M  END
>  <smiles>  (29) 
O=C(NCC(=O)N1CCCC1C1CCCC1)c1ccc2cc(Cl)ccc2n1

>  <score_type>  (29) 
oracle

>  <origin>  (29) 
autodockgpu

>  <m_score__min__energy>  (29) 
-8.7400000000000002

>  <m_primary>  (29) 
energy

>  <rmsd>  (29) 
2.1092303510542383

>  <m_score__min__rmsd>  (29) 
2.1092303510542383

>  <meeko>  (29) 
{"free_energy": -8.54, "intermolecular_energy": -10.03, "internal_energy": -1.27, "cluster_size": 38, "cluster_id": 1, "rank_in_cluster": 9}

>  <energy>  (29) 
-8.28

>  <cluster_rmsd>  (29) 
1.23

>  <cluster>  (29) 
1

$$$$

     RDKit          3D

 51 54  0  0  0  0  0  0  0  0999 V2000
  140.3450   72.5300  220.7780 O   0  0  0  0  0  0  0  0  0  0  0  0
  139.9690   72.9060  221.9410 C   0  0  0  0  0  0  0  0  0  0  0  0
  139.5490   74.2330  222.1830 N   0  0  0  0  0  0  0  0  0  0  0  0
  139.5420   75.1800  221.1160 C   0  0  0  0  0  0  0  0  0  0  0  0
  140.8190   75.9560  221.0380 C   0  0  0  0  0  0  0  0  0  0  0  0
  141.8150   75.4160  221.6020 O   0  0  0  0  0  0  0  0  0  0  0  0
  140.8910   77.2110  220.3720 N   0  0  0  0  0  0  0  0  0  0  0  0
  140.9100   77.3300  218.9290 C   0  0  0  0  0  0  0  0  0  0  0  0
  141.1860   78.7960  218.7150 C   0  0  0  0  0  0  0  0  0  0  0  0
  141.7160   79.3290  220.0290 C   0  0  0  0  0  0  0  0  0  0  0  0
  140.9520   78.5040  221.0120 C   0  0  2  0  0  0  0  0  0  0  0  0
  141.3890   78.5520  222.4010 C   0  0  0  0  0  0  0  0  0  0  0  0
  142.5540   79.3880  222.7420 C   0  0  0  0  0  0  0  0  0  0  0  0
  142.0450   80.4600  223.6820 C   0  0  0  0  0  0  0  0  0  0  0  0
  140.5510   80.4980  223.4860 C   0  0  0  0  0  0  0  0  0  0  0  0
  140.2140   79.0490  223.2490 C   0  0  0  0  0  0  0  0  0  0  0  0
  139.9630   71.9590  223.0660 C   0  0  0  0  0  0  0  0  0  0  0  0
  139.3620   70.7120  222.8700 C   0  0  0  0  0  0  0  0  0  0  0  0
  139.3100   69.7610  223.8680 C   0  0  0  0  0  0  0  0  0  0  0  0
  139.8820   70.1000  225.0770 C   0  0  0  0  0  0  0  0  0  0  0  0
  139.8790   69.2170  226.1350 C   0  0  0  0  0  0  0  0  0  0  0  0
  140.4590   69.5800  227.3360 C   0  0  0  0  0  0  0  0  0  0  0  0
  140.4890   68.5070  228.7120 Cl  0  0  0  0  0  0  0  0  0  0  0  0
  141.0500   70.8370  227.4940 C   0  0  0  0  0  0  0  0  0  0  0  0
  141.0520   71.7200  226.4320 C   0  0  0  0  0  0  0  0  0  0  0  0
  140.4630   71.3440  225.2220 C   0  0  0  0  0  0  0  0  0  0  0  0
  140.5050   72.2590  224.2380 N   0  0  0  0  0  0  0  0  0  0  0  0
  139.2350   74.5540  223.1450 H   0  0  0  0  0  0  0  0  0  0  0  0
  139.3957   74.6430  220.1672 H   0  0  0  0  0  0  0  0  0  0  0  0
  138.7256   75.8929  221.3037 H   0  0  0  0  0  0  0  0  0  0  0  0
  141.7059   76.7096  218.4913 H   0  0  0  0  0  0  0  0  0  0  0  0
  139.9786   76.9896  218.4530 H   0  0  0  0  0  0  0  0  0  0  0  0
  141.9351   78.9298  217.9206 H   0  0  0  0  0  0  0  0  0  0  0  0
  140.2761   79.3315  218.4061 H   0  0  0  0  0  0  0  0  0  0  0  0
  142.7996   79.1645  220.1220 H   0  0  0  0  0  0  0  0  0  0  0  0
  141.5889   80.4140  220.1580 H   0  0  0  0  0  0  0  0  0  0  0  0
  139.9476   78.9088  221.2052 H   0  0  0  0  0  0  0  0  0  0  0  0
  141.7205   77.5228  222.6029 H   0  0  0  0  0  0  0  0  0  0  0  0
  143.3263   78.7816  223.2379 H   0  0  0  0  0  0  0  0  0  0  0  0
  143.0087   79.8275  221.8420 H   0  0  0  0  0  0  0  0  0  0  0  0
  142.2888   80.2041  224.7237 H   0  0  0  0  0  0  0  0  0  0  0  0
  142.5070   81.4362  223.4730 H   0  0  0  0  0  0  0  0  0  0  0  0
  140.0425   80.8825  224.3824 H   0  0  0  0  0  0  0  0  0  0  0  0
  140.2338   81.1607  222.6673 H   0  0  0  0  0  0  0  0  0  0  0  0
  140.1518   78.4978  224.1989 H   0  0  0  0  0  0  0  0  0  0  0  0
  139.2385   78.9066  222.7610 H   0  0  0  0  0  0  0  0  0  0  0  0
  138.9172   70.4822  221.8905 H   0  0  0  0  0  0  0  0  0  0  0  0
  138.8361   68.7813  223.7079 H   0  0  0  0  0  0  0  0  0  0  0  0
  139.4160   68.2254  226.0240 H   0  0  0  0  0  0  0  0  0  0  0  0
  141.5082   71.1196  228.4532 H   0  0  0  0  0  0  0  0  0  0  0  0
  141.5142   72.7126  226.5380 H   0  0  0  0  0  0  0  0  0  0  0  0
  1  2  2  0
  2  3  1  0
  3  4  1  0
  4  5  1  0
  5  6  2  0
  5  7  1  0
  7  8  1  0
  8  9  1  0
  9 10  1  0
 10 11  1  0
 11 12  1  0
 12 13  1  0
 13 14  1  0
 14 15  1  0
 15 16  1  0
  2 17  1  0
 17 18  2  0
 18 19  1  0
 19 20  2  0
 20 21  1  0
 21 22  2  0
 22 23  1  0
 22 24  1  0
 24 25  2  0
 25 26  1  0
 26 27  2  0
 11  7  1  0
 16 12  1  0
 27 17  1  0
 26 20  1  0
  3 28  1  0
  4 29  1  0
  4 30  1  0
  8 31  1  0
  8 32  1  0
  9 33  1  0
  9 34  1  0
 10 35  1  0
 10 36  1  0
 11 37  1  1
 12 38  1  0
 13 39  1  0
 13 40  1  0
 14 41  1  0
 14 42  1  0
 15 43  1  0
 15 44  1  0
 16 45  1  0
 16 46  1  0
 18 47  1  0
 19 48  1  0
 21 49  1  0
 24 50  1  0
 25 51  1  0
M  END
>  <smiles>  (30) 
O=C(NCC(=O)N1CCCC1C1CCCC1)c1ccc2cc(Cl)ccc2n1

>  <score_type>  (30) 
oracle

>  <origin>  (30) 
autodockgpu

>  <m_score__min__energy>  (30) 
-8.7400000000000002

>  <m_primary>  (30) 
energy

>  <rmsd>  (30) 
2.1281577009538384

>  <m_score__min__rmsd>  (30) 
2.1281577009538384

>  <meeko>  (30) 
{"free_energy": -8.47, "intermolecular_energy": -9.96, "internal_energy": -1.36, "cluster_size": 38, "cluster_id": 1, "rank_in_cluster": 18}

>  <energy>  (30) 
-8.26

>  <cluster_rmsd>  (30) 
1.24

>  <cluster>  (30) 
1

$$$$

     RDKit          3D

 51 54  0  0  0  0  0  0  0  0999 V2000
  140.8040   72.6490  220.9100 O   0  0  0  0  0  0  0  0  0  0  0  0
  140.1670   72.9450  221.9780 C   0  0  0  0  0  0  0  0  0  0  0  0
  139.5080   74.1880  222.1190 N   0  0  0  0  0  0  0  0  0  0  0  0
  139.5510   75.1370  221.0550 C   0  0  0  0  0  0  0  0  0  0  0  0
  140.8410   75.8950  221.0230 C   0  0  0  0  0  0  0  0  0  0  0  0
  141.8180   75.3250  221.5930 O   0  0  0  0  0  0  0  0  0  0  0  0
  140.9450   77.1670  220.3940 N   0  0  0  0  0  0  0  0  0  0  0  0
  141.3840   77.3260  219.0230 C   0  0  0  0  0  0  0  0  0  0  0  0
  141.5150   78.8210  218.8820 C   0  0  0  0  0  0  0  0  0  0  0  0
  141.5480   79.3820  220.2880 C   0  0  0  0  0  0  0  0  0  0  0  0
  140.6380   78.4390  221.0040 C   0  0  2  0  0  0  0  0  0  0  0  0
  140.6250   78.5060  222.4600 C   0  0  0  0  0  0  0  0  0  0  0  0
  141.9090   78.6450  223.1690 C   0  0  0  0  0  0  0  0  0  0  0  0
  141.8540   79.9760  223.8870 C   0  0  0  0  0  0  0  0  0  0  0  0
  140.7630   80.7620  223.2050 C   0  0  0  0  0  0  0  0  0  0  0  0
  139.7520   79.6970  222.8690 C   0  0  0  0  0  0  0  0  0  0  0  0
  140.1000   71.9930  223.0970 C   0  0  0  0  0  0  0  0  0  0  0  0
  139.4520   70.7730  222.8820 C   0  0  0  0  0  0  0  0  0  0  0  0
  139.3410   69.8190  223.8730 C   0  0  0  0  0  0  0  0  0  0  0  0
  139.9030   70.1280  225.0940 C   0  0  0  0  0  0  0  0  0  0  0  0
  139.8430   69.2400  226.1460 C   0  0  0  0  0  0  0  0  0  0  0  0
  140.4140   69.5730  227.3610 C   0  0  0  0  0  0  0  0  0  0  0  0
  140.3720   68.4920  228.7310 Cl  0  0  0  0  0  0  0  0  0  0  0  0
  141.0520   70.8040  227.5380 C   0  0  0  0  0  0  0  0  0  0  0  0
  141.1110   71.6920  226.4820 C   0  0  0  0  0  0  0  0  0  0  0  0
  140.5320   71.3460  225.2590 C   0  0  0  0  0  0  0  0  0  0  0  0
  140.6300   72.2640  224.2810 N   0  0  0  0  0  0  0  0  0  0  0  0
  138.9760   74.4430  223.0010 H   0  0  0  0  0  0  0  0  0  0  0  0
  139.4299   74.6041  220.1004 H   0  0  0  0  0  0  0  0  0  0  0  0
  138.7387   75.8610  221.2163 H   0  0  0  0  0  0  0  0  0  0  0  0
  142.3499   76.8267  218.8564 H   0  0  0  0  0  0  0  0  0  0  0  0
  140.6941   76.8797  218.2917 H   0  0  0  0  0  0  0  0  0  0  0  0
  142.4443   79.0729  218.3500 H   0  0  0  0  0  0  0  0  0  0  0  0
  140.6787   79.2418  218.3044 H   0  0  0  0  0  0  0  0  0  0  0  0
  142.5646   79.3564  220.7075 H   0  0  0  0  0  0  0  0  0  0  0  0
  141.2464   80.4375  220.3578 H   0  0  0  0  0  0  0  0  0  0  0  0
  139.5780   78.7044  220.8777 H   0  0  0  0  0  0  0  0  0  0  0  0
  140.2524   77.5157  222.7608 H   0  0  0  0  0  0  0  0  0  0  0  0
  142.0353   77.8264  223.8928 H   0  0  0  0  0  0  0  0  0  0  0  0
  142.7584   78.6011  222.4715 H   0  0  0  0  0  0  0  0  0  0  0  0
  141.6134   79.8287  224.9502 H   0  0  0  0  0  0  0  0  0  0  0  0
  142.8199   80.5007  223.8446 H   0  0  0  0  0  0  0  0  0  0  0  0
  140.3350   81.5166  223.8813 H   0  0  0  0  0  0  0  0  0  0  0  0
  141.1128   81.3257  222.3276 H   0  0  0  0  0  0  0  0  0  0  0  0
  139.1325   79.4505  223.7439 H   0  0  0  0  0  0  0  0  0  0  0  0
  139.0447   80.0043  222.0846 H   0  0  0  0  0  0  0  0  0  0  0  0
  139.0173   70.5672  221.8927 H   0  0  0  0  0  0  0  0  0  0  0  0
  138.8302   68.8607  223.6979 H   0  0  0  0  0  0  0  0  0  0  0  0
  139.3423   68.2687  226.0198 H   0  0  0  0  0  0  0  0  0  0  0  0
  141.5022   71.0626  228.5078 H   0  0  0  0  0  0  0  0  0  0  0  0
  141.6103   72.6646  226.6032 H   0  0  0  0  0  0  0  0  0  0  0  0
  1  2  2  0
  2  3  1  0
  3  4  1  0
  4  5  1  0
  5  6  2  0
  5  7  1  0
  7  8  1  0
  8  9  1  0
  9 10  1  0
 10 11  1  0
 11 12  1  0
 12 13  1  0
 13 14  1  0
 14 15  1  0
 15 16  1  0
  2 17  1  0
 17 18  2  0
 18 19  1  0
 19 20  2  0
 20 21  1  0
 21 22  2  0
 22 23  1  0
 22 24  1  0
 24 25  2  0
 25 26  1  0
 26 27  2  0
 11  7  1  0
 16 12  1  0
 27 17  1  0
 26 20  1  0
  3 28  1  0
  4 29  1  0
  4 30  1  0
  8 31  1  0
  8 32  1  0
  9 33  1  0
  9 34  1  0
 10 35  1  0
 10 36  1  0
 11 37  1  6
 12 38  1  0
 13 39  1  0
 13 40  1  0
 14 41  1  0
 14 42  1  0
 15 43  1  0
 15 44  1  0
 16 45  1  0
 16 46  1  0
 18 47  1  0
 19 48  1  0
 21 49  1  0
 24 50  1  0
 25 51  1  0
M  END
>  <smiles>  (31) 
O=C(NCC(=O)N1CCCC1C1CCCC1)c1ccc2cc(Cl)ccc2n1

>  <score_type>  (31) 
oracle

>  <origin>  (31) 
autodockgpu

>  <m_score__min__energy>  (31) 
-8.7400000000000002

>  <m_primary>  (31) 
energy

>  <rmsd>  (31) 
2.251582352387543

>  <m_score__min__rmsd>  (31) 
2.251582352387543

>  <meeko>  (31) 
{"free_energy": -8.34, "intermolecular_energy": -9.83, "internal_energy": -1.28, "cluster_size": 38, "cluster_id": 1, "rank_in_cluster": 27}

>  <energy>  (31) 
-8.23

>  <cluster_rmsd>  (31) 
1.16

>  <cluster>  (31) 
1

$$$$

     RDKit          3D

 51 54  0  0  0  0  0  0  0  0999 V2000
  140.3500   71.9980  220.6920 O   0  0  0  0  0  0  0  0  0  0  0  0
  140.1050   72.4310  221.8690 C   0  0  0  0  0  0  0  0  0  0  0  0
  139.8400   73.7990  222.1070 N   0  0  0  0  0  0  0  0  0  0  0  0
  139.8460   74.7210  221.0190 C   0  0  0  0  0  0  0  0  0  0  0  0
  140.9720   75.7030  221.1150 C   0  0  0  0  0  0  0  0  0  0  0  0
  141.0740   76.3030  222.2250 O   0  0  0  0  0  0  0  0  0  0  0  0
  141.8560   75.9340  220.0250 N   0  0  0  0  0  0  0  0  0  0  0  0
  141.5130   76.7890  218.9080 C   0  0  0  0  0  0  0  0  0  0  0  0
  142.6520   76.5630  217.9470 C   0  0  0  0  0  0  0  0  0  0  0  0
  143.3440   75.2930  218.3940 C   0  0  0  0  0  0  0  0  0  0  0  0
  143.1780   75.3720  219.8760 C   0  0  2  0  0  0  0  0  0  0  0  0
  143.4960   74.1750  220.6440 C   0  0  0  0  0  0  0  0  0  0  0  0
  143.0900   72.8660  220.1040 C   0  0  0  0  0  0  0  0  0  0  0  0
  144.3700   72.0960  219.8530 C   0  0  0  0  0  0  0  0  0  0  0  0
  145.4650   73.1310  219.8080 C   0  0  0  0  0  0  0  0  0  0  0  0
  145.0150   74.1300  220.8410 C   0  0  0  0  0  0  0  0  0  0  0  0
  140.0890   71.5110  223.0160 C   0  0  0  0  0  0  0  0  0  0  0  0
  139.5310   70.2430  222.8320 C   0  0  0  0  0  0  0  0  0  0  0  0
  139.4730   69.3140  223.8510 C   0  0  0  0  0  0  0  0  0  0  0  0
  139.9960   69.6980  225.0680 C   0  0  0  0  0  0  0  0  0  0  0  0
  139.9840   68.8400  226.1470 C   0  0  0  0  0  0  0  0  0  0  0  0
  140.5150   69.2490  227.3560 C   0  0  0  0  0  0  0  0  0  0  0  0
  140.5310   68.2090  228.7590 Cl  0  0  0  0  0  0  0  0  0  0  0  0
  141.0640   70.5260  227.5020 C   0  0  0  0  0  0  0  0  0  0  0  0
  141.0750   71.3830  226.4200 C   0  0  0  0  0  0  0  0  0  0  0  0
  140.5370   70.9620  225.2020 C   0  0  0  0  0  0  0  0  0  0  0  0
  140.5840   71.8540  224.1970 N   0  0  0  0  0  0  0  0  0  0  0  0
  139.6350   74.1680  223.0810 H   0  0  0  0  0  0  0  0  0  0  0  0
  139.9458   74.1587  220.0789 H   0  0  0  0  0  0  0  0  0  0  0  0
  138.9024   75.2856  221.0501 H   0  0  0  0  0  0  0  0  0  0  0  0
  140.5533   76.4901  218.4612 H   0  0  0  0  0  0  0  0  0  0  0  0
  141.3878   77.8443  219.1919 H   0  0  0  0  0  0  0  0  0  0  0  0
  142.2680   76.4465  216.9228 H   0  0  0  0  0  0  0  0  0  0  0  0
  143.3468   77.4158  217.9451 H   0  0  0  0  0  0  0  0  0  0  0  0
  142.8518   74.4001  217.9812 H   0  0  0  0  0  0  0  0  0  0  0  0
  144.3897   75.2105  218.0627 H   0  0  0  0  0  0  0  0  0  0  0  0
  143.9430   76.0053  220.3489 H   0  0  0  0  0  0  0  0  0  0  0  0
  142.8997   74.2908  221.5611 H   0  0  0  0  0  0  0  0  0  0  0  0
  142.4605   72.3323  220.8313 H   0  0  0  0  0  0  0  0  0  0  0  0
  142.5026   72.9784  219.1808 H   0  0  0  0  0  0  0  0  0  0  0  0
  144.5526   71.3793  220.6672 H   0  0  0  0  0  0  0  0  0  0  0  0
  144.3195   71.5168  218.9192 H   0  0  0  0  0  0  0  0  0  0  0  0
  146.4373   72.6924  220.0768 H   0  0  0  0  0  0  0  0  0  0  0  0
  145.6119   73.5695  218.8100 H   0  0  0  0  0  0  0  0  0  0  0  0
  145.2715   73.7913  221.8556 H   0  0  0  0  0  0  0  0  0  0  0  0
  145.4945   75.1136  220.7284 H   0  0  0  0  0  0  0  0  0  0  0  0
  139.1255   69.9772  221.8446 H   0  0  0  0  0  0  0  0  0  0  0  0
  139.0319   68.3177  223.7001 H   0  0  0  0  0  0  0  0  0  0  0  0
  139.5531   67.8329  226.0462 H   0  0  0  0  0  0  0  0  0  0  0  0
  141.4825   70.8445  228.4681 H   0  0  0  0  0  0  0  0  0  0  0  0
  141.5047   72.3910  226.5165 H   0  0  0  0  0  0  0  0  0  0  0  0
  1  2  2  0
  2  3  1  0
  3  4  1  0
  4  5  1  0
  5  6  2  0
  5  7  1  0
  7  8  1  0
  8  9  1  0
  9 10  1  0
 10 11  1  0
 11 12  1  0
 12 13  1  0
 13 14  1  0
 14 15  1  0
 15 16  1  0
  2 17  1  0
 17 18  2  0
 18 19  1  0
 19 20  2  0
 20 21  1  0
 21 22  2  0
 22 23  1  0
 22 24  1  0
 24 25  2  0
 25 26  1  0
 26 27  2  0
 11  7  1  0
 16 12  1  0
 27 17  1  0
 26 20  1  0
  3 28  1  0
  4 29  1  0
  4 30  1  0
  8 31  1  0
  8 32  1  0
  9 33  1  0
  9 34  1  0
 10 35  1  0
 10 36  1  0
 11 37  1  1
 12 38  1  0
 13 39  1  0
 13 40  1  0
 14 41  1  0
 14 42  1  0
 15 43  1  0
 15 44  1  0
 16 45  1  0
 16 46  1  0
 18 47  1  0
 19 48  1  0
 21 49  1  0
 24 50  1  0
 25 51  1  0
M  END
>  <smiles>  (32) 
O=C(NCC(=O)N1CCCC1C1CCCC1)c1ccc2cc(Cl)ccc2n1

>  <score_type>  (32) 
oracle

>  <origin>  (32) 
autodockgpu

>  <m_score__min__energy>  (32) 
-8.7400000000000002

>  <m_primary>  (32) 
energy

>  <rmsd>  (32) 
2.112984176106472

>  <m_score__min__rmsd>  (32) 
2.112984176106472

>  <meeko>  (32) 
{"free_energy": -7.84, "intermolecular_energy": -9.33, "internal_energy": -1.87, "cluster_size": 4, "cluster_id": 4, "rank_in_cluster": 2}

>  <energy>  (32) 
-8.14

>  <cluster_rmsd>  (32) 
1.22

>  <cluster>  (32) 
1

$$$$

     RDKit          3D

 51 54  0  0  0  0  0  0  0  0999 V2000
  140.6250   72.5650  220.8210 O   0  0  0  0  0  0  0  0  0  0  0  0
  140.2040   72.9180  221.9760 C   0  0  0  0  0  0  0  0  0  0  0  0
  139.7620   74.2370  222.2230 N   0  0  0  0  0  0  0  0  0  0  0  0
  139.7830   75.2010  221.1710 C   0  0  0  0  0  0  0  0  0  0  0  0
  139.2980   76.5430  221.6230 C   0  0  0  0  0  0  0  0  0  0  0  0
  138.6280   76.5440  222.6960 O   0  0  0  0  0  0  0  0  0  0  0  0
  139.5810   77.7260  220.8840 N   0  0  0  0  0  0  0  0  0  0  0  0
  139.3490   77.8300  219.4580 C   0  0  0  0  0  0  0  0  0  0  0  0
  139.9700   79.1600  219.1120 C   0  0  0  0  0  0  0  0  0  0  0  0
  140.8720   79.5260  220.2710 C   0  0  0  0  0  0  0  0  0  0  0  0
  140.1180   78.9520  221.4250 C   0  0  2  0  0  0  0  0  0  0  0  0
  140.8150   78.8800  222.7030 C   0  0  0  0  0  0  0  0  0  0  0  0
  142.2790   79.0410  222.7150 C   0  0  0  0  0  0  0  0  0  0  0  0
  142.5610   80.2920  223.5200 C   0  0  0  0  0  0  0  0  0  0  0  0
  141.2640   81.0600  223.5470 C   0  0  0  0  0  0  0  0  0  0  0  0
  140.2340   79.9630  223.6190 C   0  0  0  0  0  0  0  0  0  0  0  0
  140.1670   71.9540  223.0850 C   0  0  0  0  0  0  0  0  0  0  0  0
  139.6270   70.6890  222.8360 C   0  0  0  0  0  0  0  0  0  0  0  0
  139.5510   69.7200  223.8160 C   0  0  0  0  0  0  0  0  0  0  0  0
  140.0370   70.0610  225.0620 C   0  0  0  0  0  0  0  0  0  0  0  0
  140.0050   69.1620  226.1050 C   0  0  0  0  0  0  0  0  0  0  0  0
  140.4980   69.5270  227.3440 C   0  0  0  0  0  0  0  0  0  0  0  0
  140.4870   68.4340  228.7050 Cl  0  0  0  0  0  0  0  0  0  0  0  0
  141.0310   70.8030  227.5540 C   0  0  0  0  0  0  0  0  0  0  0  0
  141.0620   71.7020  226.5070 C   0  0  0  0  0  0  0  0  0  0  0  0
  140.5610   71.3230  225.2590 C   0  0  0  0  0  0  0  0  0  0  0  0
  140.6260   72.2550  224.2910 N   0  0  0  0  0  0  0  0  0  0  0  0
  139.4100   74.5400  223.1780 H   0  0  0  0  0  0  0  0  0  0  0  0
  140.8151   75.3025  220.8043 H   0  0  0  0  0  0  0  0  0  0  0  0
  139.1085   74.8484  220.3769 H   0  0  0  0  0  0  0  0  0  0  0  0
  139.8424   77.0098  218.9159 H   0  0  0  0  0  0  0  0  0  0  0  0
  138.2856   77.7628  219.1847 H   0  0  0  0  0  0  0  0  0  0  0  0
  140.5567   79.0762  218.1853 H   0  0  0  0  0  0  0  0  0  0  0  0
  139.2002   79.9285  218.9482 H   0  0  0  0  0  0  0  0  0  0  0  0
  141.8650   79.0637  220.1694 H   0  0  0  0  0  0  0  0  0  0  0  0
  141.0760   80.6033  220.3588 H   0  0  0  0  0  0  0  0  0  0  0  0
  139.3208   79.6227  221.7781 H   0  0  0  0  0  0  0  0  0  0  0  0
  140.6510   77.8420  223.0282 H   0  0  0  0  0  0  0  0  0  0  0  0
  142.7545   78.1687  223.1872 H   0  0  0  0  0  0  0  0  0  0  0  0
  142.6812   79.1225  221.6944 H   0  0  0  0  0  0  0  0  0  0  0  0
  142.8723   80.0287  224.5417 H   0  0  0  0  0  0  0  0  0  0  0  0
  143.3751   80.8849  223.0775 H   0  0  0  0  0  0  0  0  0  0  0  0
  141.2087   81.7151  224.4289 H   0  0  0  0  0  0  0  0  0  0  0  0
  141.1327   81.7274  222.6825 H   0  0  0  0  0  0  0  0  0  0  0  0
  140.1237   79.5919  224.6486 H   0  0  0  0  0  0  0  0  0  0  0  0
  139.2293   80.2926  223.3156 H   0  0  0  0  0  0  0  0  0  0  0  0
  139.2511   70.4587  221.8282 H   0  0  0  0  0  0  0  0  0  0  0  0
  139.1247   68.7263  223.6142 H   0  0  0  0  0  0  0  0  0  0  0  0
  139.5880   68.1556  225.9525 H   0  0  0  0  0  0  0  0  0  0  0  0
  141.4211   71.0869  228.5425 H   0  0  0  0  0  0  0  0  0  0  0  0
  141.4781   72.7096  226.6541 H   0  0  0  0  0  0  0  0  0  0  0  0
  1  2  2  0
  2  3  1  0
  3  4  1  0
  4  5  1  0
  5  6  2  0
  5  7  1  0
  7  8  1  0
  8  9  1  0
  9 10  1  0
 10 11  1  0
 11 12  1  0
 12 13  1  0
 13 14  1  0
 14 15  1  0
 15 16  1  0
  2 17  1  0
 17 18  2  0
 18 19  1  0
 19 20  2  0
 20 21  1  0
 21 22  2  0
 22 23  1  0
 22 24  1  0
 24 25  2  0
 25 26  1  0
 26 27  2  0
 11  7  1  0
 16 12  1  0
 27 17  1  0
 26 20  1  0
  3 28  1  0
  4 29  1  0
  4 30  1  0
  8 31  1  0
  8 32  1  0
  9 33  1  0
  9 34  1  0
 10 35  1  0
 10 36  1  0
 11 37  1  1
 12 38  1  0
 13 39  1  0
 13 40  1  0
 14 41  1  0
 14 42  1  0
 15 43  1  0
 15 44  1  0
 16 45  1  0
 16 46  1  0
 18 47  1  0
 19 48  1  0
 21 49  1  0
 24 50  1  0
 25 51  1  0
M  END
>  <smiles>  (33) 
O=C(NCC(=O)N1CCCC1C1CCCC1)c1ccc2cc(Cl)ccc2n1

>  <score_type>  (33) 
oracle

>  <origin>  (33) 
autodockgpu

>  <m_score__min__energy>  (33) 
-8.7400000000000002

>  <m_primary>  (33) 
energy

>  <rmsd>  (33) 
2.3076458941443327

>  <m_score__min__rmsd>  (33) 
2.3076458941443327

>  <meeko>  (33) 
{"free_energy": -8.14, "intermolecular_energy": -9.63, "internal_energy": -1.86, "cluster_size": 38, "cluster_id": 1, "rank_in_cluster": 32}

>  <energy>  (33) 
-8.0

>  <cluster_rmsd>  (33) 
1.04

>  <cluster>  (33) 
1

$$$$

     RDKit          3D

 51 54  0  0  0  0  0  0  0  0999 V2000
  140.1470   72.3610  220.6590 O   0  0  0  0  0  0  0  0  0  0  0  0
  139.9510   72.7730  221.8530 C   0  0  0  0  0  0  0  0  0  0  0  0
  139.6820   74.1340  222.1240 N   0  0  0  0  0  0  0  0  0  0  0  0
  139.6290   75.0730  221.0510 C   0  0  0  0  0  0  0  0  0  0  0  0
  139.7510   76.4870  221.5290 C   0  0  0  0  0  0  0  0  0  0  0  0
  139.3680   76.6910  222.7180 O   0  0  0  0  0  0  0  0  0  0  0  0
  140.2620   77.5160  220.6910 N   0  0  0  0  0  0  0  0  0  0  0  0
  140.2290   77.4360  219.2460 C   0  0  0  0  0  0  0  0  0  0  0  0
  141.0410   78.6330  218.8220 C   0  0  0  0  0  0  0  0  0  0  0  0
  141.8240   79.0730  220.0410 C   0  0  0  0  0  0  0  0  0  0  0  0
  140.8670   78.7490  221.1400 C   0  0  2  0  0  0  0  0  0  0  0  0
  141.3800   78.7940  222.5030 C   0  0  0  0  0  0  0  0  0  0  0  0
  142.6950   79.4160  222.7380 C   0  0  0  0  0  0  0  0  0  0  0  0
  142.4430   80.6160  223.6260 C   0  0  0  0  0  0  0  0  0  0  0  0
  140.9730   80.9210  223.4910 C   0  0  0  0  0  0  0  0  0  0  0  0
  140.3630   79.5490  223.3660 C   0  0  0  0  0  0  0  0  0  0  0  0
  139.9970   71.8360  222.9850 C   0  0  0  0  0  0  0  0  0  0  0  0
  139.5180   70.5390  222.7820 C   0  0  0  0  0  0  0  0  0  0  0  0
  139.5220   69.5920  223.7860 C   0  0  0  0  0  0  0  0  0  0  0  0
  140.0260   69.9880  225.0080 C   0  0  0  0  0  0  0  0  0  0  0  0
  140.0720   69.1150  226.0720 C   0  0  0  0  0  0  0  0  0  0  0  0
  140.5810   69.5360  227.2860 C   0  0  0  0  0  0  0  0  0  0  0  0
  140.6680   68.4770  228.6720 Cl  0  0  0  0  0  0  0  0  0  0  0  0
  141.0510   70.8420  227.4510 C   0  0  0  0  0  0  0  0  0  0  0  0
  141.0040   71.7160  226.3830 C   0  0  0  0  0  0  0  0  0  0  0  0
  140.4880   71.2810  225.1600 C   0  0  0  0  0  0  0  0  0  0  0  0
  140.4750   72.1910  224.1690 N   0  0  0  0  0  0  0  0  0  0  0  0
  139.5170   74.4870  223.1120 H   0  0  0  0  0  0  0  0  0  0  0  0
  140.4542   74.8621  220.3548 H   0  0  0  0  0  0  0  0  0  0  0  0
  138.6515   74.9668  220.5578 H   0  0  0  0  0  0  0  0  0  0  0  0
  140.6876   76.5013  218.8911 H   0  0  0  0  0  0  0  0  0  0  0  0
  139.2087   77.4364  218.8348 H   0  0  0  0  0  0  0  0  0  0  0  0
  141.7277   78.3577  218.0079 H   0  0  0  0  0  0  0  0  0  0  0  0
  140.3945   79.4417  218.4505 H   0  0  0  0  0  0  0  0  0  0  0  0
  142.7609   78.5058  220.1434 H   0  0  0  0  0  0  0  0  0  0  0  0
  142.1395   80.1265  220.0161 H   0  0  0  0  0  0  0  0  0  0  0  0
  140.1165   79.5399  221.2856 H   0  0  0  0  0  0  0  0  0  0  0  0
  141.5278   77.7343  222.7583 H   0  0  0  0  0  0  0  0  0  0  0  0
  143.3686   78.7055  223.2395 H   0  0  0  0  0  0  0  0  0  0  0  0
  143.1732   79.7110  221.7923 H   0  0  0  0  0  0  0  0  0  0  0  0
  142.6912   80.3788  224.6711 H   0  0  0  0  0  0  0  0  0  0  0  0
  143.0647   81.4752  223.3340 H   0  0  0  0  0  0  0  0  0  0  0  0
  140.5929   81.4451  224.3803 H   0  0  0  0  0  0  0  0  0  0  0  0
  140.7394   81.5826  222.6438 H   0  0  0  0  0  0  0  0  0  0  0  0
  140.2525   79.0746  224.3523 H   0  0  0  0  0  0  0  0  0  0  0  0
  139.3527   79.5629  222.9313 H   0  0  0  0  0  0  0  0  0  0  0  0
  139.1258   70.2644  221.7917 H   0  0  0  0  0  0  0  0  0  0  0  0
  139.1425   68.5729  223.6204 H   0  0  0  0  0  0  0  0  0  0  0  0
  139.7044   68.0848  225.9559 H   0  0  0  0  0  0  0  0  0  0  0  0
  141.4538   71.1698  228.4207 H   0  0  0  0  0  0  0  0  0  0  0  0
  141.3702   72.7472  226.4945 H   0  0  0  0  0  0  0  0  0  0  0  0
  1  2  2  0
  2  3  1  0
  3  4  1  0
  4  5  1  0
  5  6  2  0
  5  7  1  0
  7  8  1  0
  8  9  1  0
  9 10  1  0
 10 11  1  0
 11 12  1  0
 12 13  1  0
 13 14  1  0
 14 15  1  0
 15 16  1  0
  2 17  1  0
 17 18  2  0
 18 19  1  0
 19 20  2  0
 20 21  1  0
 21 22  2  0
 22 23  1  0
 22 24  1  0
 24 25  2  0
 25 26  1  0
 26 27  2  0
 11  7  1  0
 16 12  1  0
 27 17  1  0
 26 20  1  0
  3 28  1  0
  4 29  1  0
  4 30  1  0
  8 31  1  0
  8 32  1  0
  9 33  1  0
  9 34  1  0
 10 35  1  0
 10 36  1  0
 11 37  1  1
 12 38  1  0
 13 39  1  0
 13 40  1  0
 14 41  1  0
 14 42  1  0
 15 43  1  0
 15 44  1  0
 16 45  1  0
 16 46  1  0
 18 47  1  0
 19 48  1  0
 21 49  1  0
 24 50  1  0
 25 51  1  0
M  END
>  <smiles>  (34) 
O=C(NCC(=O)N1CCCC1C1CCCC1)c1ccc2cc(Cl)ccc2n1

>  <score_type>  (34) 
oracle

>  <origin>  (34) 
autodockgpu

>  <m_score__min__energy>  (34) 
-8.7400000000000002

>  <m_primary>  (34) 
energy

>  <rmsd>  (34) 
2.083659556087054

>  <m_score__min__rmsd>  (34) 
2.083659556087054

>  <meeko>  (34) 
{"free_energy": -8.53, "intermolecular_energy": -10.02, "internal_energy": -1.83, "cluster_size": 38, "cluster_id": 1, "rank_in_cluster": 12}

>  <energy>  (34) 
-8.0

>  <cluster_rmsd>  (34) 
1.02

>  <cluster>  (34) 
1

$$$$

     RDKit          3D

 51 54  0  0  0  0  0  0  0  0999 V2000
  143.6970   76.0820  220.0140 O   0  0  0  0  0  0  0  0  0  0  0  0
  143.0870   74.9660  220.1480 C   0  0  0  0  0  0  0  0  0  0  0  0
  141.7190   74.9170  220.4980 N   0  0  0  0  0  0  0  0  0  0  0  0
  140.9970   76.1290  220.7100 C   0  0  0  0  0  0  0  0  0  0  0  0
  140.0350   76.0230  221.8530 C   0  0  0  0  0  0  0  0  0  0  0  0
  139.8980   74.8620  222.3380 O   0  0  0  0  0  0  0  0  0  0  0  0
  139.3330   77.1580  222.3440 N   0  0  0  0  0  0  0  0  0  0  0  0
  137.9030   77.3210  222.1850 C   0  0  0  0  0  0  0  0  0  0  0  0
  137.6660   78.7260  222.6770 C   0  0  0  0  0  0  0  0  0  0  0  0
  139.0170   79.4090  222.6890 C   0  0  0  0  0  0  0  0  0  0  0  0
  139.9180   78.2740  223.0490 C   0  0  2  0  0  0  0  0  0  0  0  0
  141.3510   78.4920  222.9010 C   0  0  0  0  0  0  0  0  0  0  0  0
  141.8220   79.3340  221.7870 C   0  0  0  0  0  0  0  0  0  0  0  0
  142.4970   80.5330  222.4190 C   0  0  0  0  0  0  0  0  0  0  0  0
  141.9910   80.5850  223.8380 C   0  0  0  0  0  0  0  0  0  0  0  0
  141.8690   79.1260  224.1960 C   0  0  0  0  0  0  0  0  0  0  0  0
  143.7960   73.6960  219.9370 C   0  0  0  0  0  0  0  0  0  0  0  0
  145.1830   73.7400  219.7680 C   0  0  0  0  0  0  0  0  0  0  0  0
  145.9320   72.5980  219.5650 C   0  0  0  0  0  0  0  0  0  0  0  0
  145.2430   71.4030  219.5370 C   0  0  0  0  0  0  0  0  0  0  0  0
  145.9020   70.2100  219.3400 C   0  0  0  0  0  0  0  0  0  0  0  0
  145.1890   69.0260  219.3170 C   0  0  0  0  0  0  0  0  0  0  0  0
  145.9660   67.4820  219.0730 Cl  0  0  0  0  0  0  0  0  0  0  0  0
  143.8020   69.0220  219.4890 C   0  0  0  0  0  0  0  0  0  0  0  0
  143.1440   70.2200  219.6870 C   0  0  0  0  0  0  0  0  0  0  0  0
  143.8730   71.4110  219.7090 C   0  0  0  0  0  0  0  0  0  0  0  0
  143.1590   72.5340  219.9050 N   0  0  0  0  0  0  0  0  0  0  0  0
  141.2030   73.9960  220.6110 H   0  0  0  0  0  0  0  0  0  0  0  0
  141.7139   76.9353  220.9242 H   0  0  0  0  0  0  0  0  0  0  0  0
  140.4170   76.3397  219.7994 H   0  0  0  0  0  0  0  0  0  0  0  0
  137.6078   77.2161  221.1306 H   0  0  0  0  0  0  0  0  0  0  0  0
  137.3171   76.5660  222.7297 H   0  0  0  0  0  0  0  0  0  0  0  0
  136.9784   79.2549  222.0006 H   0  0  0  0  0  0  0  0  0  0  0  0
  137.2105   78.7261  223.6783 H   0  0  0  0  0  0  0  0  0  0  0  0
  139.2670   79.8234  221.7012 H   0  0  0  0  0  0  0  0  0  0  0  0
  139.0805   80.2679  223.3733 H   0  0  0  0  0  0  0  0  0  0  0  0
  139.9507   78.0954  224.1339 H   0  0  0  0  0  0  0  0  0  0  0  0
  141.7419   77.4896  222.6720 H   0  0  0  0  0  0  0  0  0  0  0  0
  142.5382   78.7774  221.1648 H   0  0  0  0  0  0  0  0  0  0  0  0
  140.9896   79.6398  221.1362 H   0  0  0  0  0  0  0  0  0  0  0  0
  143.5899   80.4090  222.4058 H   0  0  0  0  0  0  0  0  0  0  0  0
  142.2708   81.4608  221.8731 H   0  0  0  0  0  0  0  0  0  0  0  0
  142.7077   81.0971  224.4968 H   0  0  0  0  0  0  0  0  0  0  0  0
  141.0493   81.1429  223.9470 H   0  0  0  0  0  0  0  0  0  0  0  0
  142.8456   78.7057  224.4782 H   0  0  0  0  0  0  0  0  0  0  0  0
  141.2106   78.9463  225.0586 H   0  0  0  0  0  0  0  0  0  0  0  0
  145.6932   74.7141  219.7977 H   0  0  0  0  0  0  0  0  0  0  0  0
  147.0232   72.6389  219.4323 H   0  0  0  0  0  0  0  0  0  0  0  0
  146.9932   70.1993  219.2013 H   0  0  0  0  0  0  0  0  0  0  0  0
  143.2412   68.0760  219.4669 H   0  0  0  0  0  0  0  0  0  0  0  0
  142.0530   70.2360  219.8264 H   0  0  0  0  0  0  0  0  0  0  0  0
  1  2  2  0
  2  3  1  0
  3  4  1  0
  4  5  1  0
  5  6  2  0
  5  7  1  0
  7  8  1  0
  8  9  1  0
  9 10  1  0
 10 11  1  0
 11 12  1  0
 12 13  1  0
 13 14  1  0
 14 15  1  0
 15 16  1  0
  2 17  1  0
 17 18  2  0
 18 19  1  0
 19 20  2  0
 20 21  1  0
 21 22  2  0
 22 23  1  0
 22 24  1  0
 24 25  2  0
 25 26  1  0
 26 27  2  0
 11  7  1  0
 16 12  1  0
 27 17  1  0
 26 20  1  0
  3 28  1  0
  4 29  1  0
  4 30  1  0
  8 31  1  0
  8 32  1  0
  9 33  1  0
  9 34  1  0
 10 35  1  0
 10 36  1  0
 11 37  1  1
 12 38  1  0
 13 39  1  0
 13 40  1  0
 14 41  1  0
 14 42  1  0
 15 43  1  0
 15 44  1  0
 16 45  1  0
 16 46  1  0
 18 47  1  0
 19 48  1  0
 21 49  1  0
 24 50  1  0
 25 51  1  0
M  END
>  <smiles>  (35) 
O=C(NCC(=O)N1CCCC1C1CCCC1)c1ccc2cc(Cl)ccc2n1

>  <score_type>  (35) 
oracle

>  <origin>  (35) 
autodockgpu

>  <m_score__min__energy>  (35) 
-8.7400000000000002

>  <m_primary>  (35) 
energy

>  <rmsd>  (35) 
6.664404808628547

>  <m_score__min__rmsd>  (35) 
6.664404808628547

>  <meeko>  (35) 
{"free_energy": -7.41, "intermolecular_energy": -8.9, "internal_energy": -1.98, "cluster_size": 2, "cluster_id": 5, "rank_in_cluster": 1}

>  <energy>  (35) 
-7.96

>  <cluster_rmsd>  (35) 
1.27

>  <cluster>  (35) 
1

$$$$

     RDKit          3D

 51 54  0  0  0  0  0  0  0  0999 V2000
  140.1820   72.3910  220.6670 O   0  0  0  0  0  0  0  0  0  0  0  0
  139.9710   72.8040  221.8590 C   0  0  0  0  0  0  0  0  0  0  0  0
  139.6980   74.1640  222.1260 N   0  0  0  0  0  0  0  0  0  0  0  0
  139.6550   75.1030  221.0530 C   0  0  0  0  0  0  0  0  0  0  0  0
  139.7380   76.5180  221.5340 C   0  0  0  0  0  0  0  0  0  0  0  0
  139.3160   76.7150  222.7110 O   0  0  0  0  0  0  0  0  0  0  0  0
  140.2560   77.5570  220.7120 N   0  0  0  0  0  0  0  0  0  0  0  0
  140.2660   77.4770  219.2660 C   0  0  0  0  0  0  0  0  0  0  0  0
  141.0690   78.6890  218.8670 C   0  0  0  0  0  0  0  0  0  0  0  0
  141.8090   79.1400  220.1080 C   0  0  0  0  0  0  0  0  0  0  0  0
  140.8260   78.7990  221.1790 C   0  0  2  0  0  0  0  0  0  0  0  0
  141.2990   78.8510  222.5560 C   0  0  0  0  0  0  0  0  0  0  0  0
  142.6370   79.4080  222.8180 C   0  0  0  0  0  0  0  0  0  0  0  0
  142.4240   80.6420  223.6690 C   0  0  0  0  0  0  0  0  0  0  0  0
  140.9770   81.0220  223.4790 C   0  0  0  0  0  0  0  0  0  0  0  0
  140.2980   79.6820  223.3670 C   0  0  0  0  0  0  0  0  0  0  0  0
  140.0070   71.8670  222.9910 C   0  0  0  0  0  0  0  0  0  0  0  0
  139.5230   70.5710  222.7850 C   0  0  0  0  0  0  0  0  0  0  0  0
  139.5180   69.6250  223.7900 C   0  0  0  0  0  0  0  0  0  0  0  0
  140.0140   70.0190  225.0150 C   0  0  0  0  0  0  0  0  0  0  0  0
  140.0500   69.1460  226.0800 C   0  0  0  0  0  0  0  0  0  0  0  0
  140.5520   69.5660  227.2970 C   0  0  0  0  0  0  0  0  0  0  0  0
  140.6250   68.5080  228.6840 Cl  0  0  0  0  0  0  0  0  0  0  0  0
  141.0260   70.8710  227.4650 C   0  0  0  0  0  0  0  0  0  0  0  0
  140.9890   71.7440  226.3960 C   0  0  0  0  0  0  0  0  0  0  0  0
  140.4800   71.3100  225.1690 C   0  0  0  0  0  0  0  0  0  0  0  0
  140.4770   72.2200  224.1790 N   0  0  0  0  0  0  0  0  0  0  0  0
  139.5210   74.5160  223.1120 H   0  0  0  0  0  0  0  0  0  0  0  0
  140.5016   74.9083  220.3782 H   0  0  0  0  0  0  0  0  0  0  0  0
  138.6924   74.9791  220.5352 H   0  0  0  0  0  0  0  0  0  0  0  0
  140.7512   76.5508  218.9243 H   0  0  0  0  0  0  0  0  0  0  0  0
  139.2584   77.4591  218.8250 H   0  0  0  0  0  0  0  0  0  0  0  0
  141.7832   78.4272  218.0724 H   0  0  0  0  0  0  0  0  0  0  0  0
  140.4193   79.4871  218.4784 H   0  0  0  0  0  0  0  0  0  0  0  0
  142.7517   78.5881  220.2369 H   0  0  0  0  0  0  0  0  0  0  0  0
  142.1078   80.1985  220.0930 H   0  0  0  0  0  0  0  0  0  0  0  0
  140.0582   79.5768  221.3036 H   0  0  0  0  0  0  0  0  0  0  0  0
  141.3818   77.7919  222.8413 H   0  0  0  0  0  0  0  0  0  0  0  0
  143.2557   78.6755  223.3572 H   0  0  0  0  0  0  0  0  0  0  0  0
  143.1585   79.6534  221.8811 H   0  0  0  0  0  0  0  0  0  0  0  0
  142.6264   80.4183  224.7268 H   0  0  0  0  0  0  0  0  0  0  0  0
  143.1006   81.4588  223.3774 H   0  0  0  0  0  0  0  0  0  0  0  0
  140.5983   81.5882  224.3427 H   0  0  0  0  0  0  0  0  0  0  0  0
  140.8060   81.6734  222.6093 H   0  0  0  0  0  0  0  0  0  0  0  0
  140.1310   79.2398  224.3603 H   0  0  0  0  0  0  0  0  0  0  0  0
  139.3042   79.7389  222.8989 H   0  0  0  0  0  0  0  0  0  0  0  0
  139.1349   70.2976  221.7927 H   0  0  0  0  0  0  0  0  0  0  0  0
  139.1371   68.6068  223.6221 H   0  0  0  0  0  0  0  0  0  0  0  0
  139.6800   68.1169  225.9619 H   0  0  0  0  0  0  0  0  0  0  0  0
  141.4235   71.1980  228.4371 H   0  0  0  0  0  0  0  0  0  0  0  0
  141.3577   72.7742  226.5093 H   0  0  0  0  0  0  0  0  0  0  0  0
  1  2  2  0
  2  3  1  0
  3  4  1  0
  4  5  1  0
  5  6  2  0
  5  7  1  0
  7  8  1  0
  8  9  1  0
  9 10  1  0
 10 11  1  0
 11 12  1  0
 12 13  1  0
 13 14  1  0
 14 15  1  0
 15 16  1  0
  2 17  1  0
 17 18  2  0
 18 19  1  0
 19 20  2  0
 20 21  1  0
 21 22  2  0
 22 23  1  0
 22 24  1  0
 24 25  2  0
 25 26  1  0
 26 27  2  0
 11  7  1  0
 16 12  1  0
 27 17  1  0
 26 20  1  0
  3 28  1  0
  4 29  1  0
  4 30  1  0
  8 31  1  0
  8 32  1  0
  9 33  1  0
  9 34  1  0
 10 35  1  0
 10 36  1  0
 11 37  1  1
 12 38  1  0
 13 39  1  0
 13 40  1  0
 14 41  1  0
 14 42  1  0
 15 43  1  0
 15 44  1  0
 16 45  1  0
 16 46  1  0
 18 47  1  0
 19 48  1  0
 21 49  1  0
 24 50  1  0
 25 51  1  0
M  END
>  <smiles>  (36) 
O=C(NCC(=O)N1CCCC1C1CCCC1)c1ccc2cc(Cl)ccc2n1

>  <score_type>  (36) 
oracle

>  <origin>  (36) 
autodockgpu

>  <m_score__min__energy>  (36) 
-8.7400000000000002

>  <m_primary>  (36) 
energy

>  <rmsd>  (36) 
2.129543601910843

>  <m_score__min__rmsd>  (36) 
2.129543601910843

>  <meeko>  (36) 
{"free_energy": -8.52, "intermolecular_energy": -10.01, "internal_energy": -1.83, "cluster_size": 38, "cluster_id": 1, "rank_in_cluster": 14}

>  <energy>  (36) 
-7.81

>  <cluster_rmsd>  (36) 
1.23

>  <cluster>  (36) 
1

$$$$

     RDKit          3D

 51 54  0  0  0  0  0  0  0  0999 V2000
  140.4310   72.0230  220.7250 O   0  0  0  0  0  0  0  0  0  0  0  0
  140.1580   72.4560  221.8970 C   0  0  0  0  0  0  0  0  0  0  0  0
  139.8780   73.8210  222.1280 N   0  0  0  0  0  0  0  0  0  0  0  0
  139.8990   74.7430  221.0400 C   0  0  0  0  0  0  0  0  0  0  0  0
  141.0040   75.7450  221.1680 C   0  0  0  0  0  0  0  0  0  0  0  0
  141.0860   76.3200  222.2930 O   0  0  0  0  0  0  0  0  0  0  0  0
  141.8890   76.0220  220.0890 N   0  0  0  0  0  0  0  0  0  0  0  0
  141.5640   76.9550  219.0300 C   0  0  0  0  0  0  0  0  0  0  0  0
  142.6930   76.7610  218.0500 C   0  0  0  0  0  0  0  0  0  0  0  0
  143.3520   75.4470  218.4110 C   0  0  0  0  0  0  0  0  0  0  0  0
  143.1950   75.4360  219.8960 C   0  0  2  0  0  0  0  0  0  0  0  0
  143.4840   74.1840  220.5850 C   0  0  0  0  0  0  0  0  0  0  0  0
  143.1060   72.9190  219.9310 C   0  0  0  0  0  0  0  0  0  0  0  0
  144.3980   72.1710  219.6780 C   0  0  0  0  0  0  0  0  0  0  0  0
  145.4910   73.2070  219.7580 C   0  0  0  0  0  0  0  0  0  0  0  0
  144.9930   74.1250  220.8440 C   0  0  0  0  0  0  0  0  0  0  0  0
  140.1270   71.5360  223.0440 C   0  0  0  0  0  0  0  0  0  0  0  0
  139.5550   70.2740  222.8570 C   0  0  0  0  0  0  0  0  0  0  0  0
  139.4820   69.3460  223.8760 C   0  0  0  0  0  0  0  0  0  0  0  0
  140.0030   69.7250  225.0960 C   0  0  0  0  0  0  0  0  0  0  0  0
  139.9760   68.8680  226.1740 C   0  0  0  0  0  0  0  0  0  0  0  0
  140.5050   69.2710  227.3870 C   0  0  0  0  0  0  0  0  0  0  0  0
  140.5020   68.2320  228.7890 Cl  0  0  0  0  0  0  0  0  0  0  0  0
  141.0670   70.5420  227.5350 C   0  0  0  0  0  0  0  0  0  0  0  0
  141.0930   71.3990  226.4530 C   0  0  0  0  0  0  0  0  0  0  0  0
  140.5570   70.9830  225.2320 C   0  0  0  0  0  0  0  0  0  0  0  0
  140.6190   71.8740  224.2270 N   0  0  0  0  0  0  0  0  0  0  0  0
  139.6500   74.1900  223.0970 H   0  0  0  0  0  0  0  0  0  0  0  0
  140.0360   74.1825  220.1035 H   0  0  0  0  0  0  0  0  0  0  0  0
  138.9450   75.2906  221.0434 H   0  0  0  0  0  0  0  0  0  0  0  0
  140.5950   76.7100  218.5706 H   0  0  0  0  0  0  0  0  0  0  0  0
  141.4676   77.9931  219.3808 H   0  0  0  0  0  0  0  0  0  0  0  0
  142.3021   76.7208  217.0226 H   0  0  0  0  0  0  0  0  0  0  0  0
  143.4105   77.5933  218.0988 H   0  0  0  0  0  0  0  0  0  0  0  0
  142.8337   74.5958  217.9454 H   0  0  0  0  0  0  0  0  0  0  0  0
  144.3935   75.3576  218.0685 H   0  0  0  0  0  0  0  0  0  0  0  0
  143.9792   76.0176  220.4027 H   0  0  0  0  0  0  0  0  0  0  0  0
  142.8482   74.2300  221.4815 H   0  0  0  0  0  0  0  0  0  0  0  0
  142.4480   72.3318  220.5884 H   0  0  0  0  0  0  0  0  0  0  0  0
  142.5581   73.1003  218.9945 H   0  0  0  0  0  0  0  0  0  0  0  0
  144.5482   71.3950  220.4430 H   0  0  0  0  0  0  0  0  0  0  0  0
  144.3894   71.6640  218.7018 H   0  0  0  0  0  0  0  0  0  0  0  0
  146.4525   72.7496  220.0343 H   0  0  0  0  0  0  0  0  0  0  0  0
  145.6793   73.7197  218.8032 H   0  0  0  0  0  0  0  0  0  0  0  0
  145.2067   73.7104  221.8402 H   0  0  0  0  0  0  0  0  0  0  0  0
  145.4733   75.1144  220.8275 H   0  0  0  0  0  0  0  0  0  0  0  0
  139.1509   70.0128  221.8678 H   0  0  0  0  0  0  0  0  0  0  0  0
  139.0312   68.3543  223.7232 H   0  0  0  0  0  0  0  0  0  0  0  0
  139.5349   67.8656  226.0706 H   0  0  0  0  0  0  0  0  0  0  0  0
  141.4841   70.8561  228.5032 H   0  0  0  0  0  0  0  0  0  0  0  0
  141.5327   72.4024  226.5517 H   0  0  0  0  0  0  0  0  0  0  0  0
  1  2  2  0
  2  3  1  0
  3  4  1  0
  4  5  1  0
  5  6  2  0
  5  7  1  0
  7  8  1  0
  8  9  1  0
  9 10  1  0
 10 11  1  0
 11 12  1  0
 12 13  1  0
 13 14  1  0
 14 15  1  0
 15 16  1  0
  2 17  1  0
 17 18  2  0
 18 19  1  0
 19 20  2  0
 20 21  1  0
 21 22  2  0
 22 23  1  0
 22 24  1  0
 24 25  2  0
 25 26  1  0
 26 27  2  0
 11  7  1  0
 16 12  1  0
 27 17  1  0
 26 20  1  0
  3 28  1  0
  4 29  1  0
  4 30  1  0
  8 31  1  0
  8 32  1  0
  9 33  1  0
  9 34  1  0
 10 35  1  0
 10 36  1  0
 11 37  1  1
 12 38  1  0
 13 39  1  0
 13 40  1  0
 14 41  1  0
 14 42  1  0
 15 43  1  0
 15 44  1  0
 16 45  1  0
 16 46  1  0
 18 47  1  0
 19 48  1  0
 21 49  1  0
 24 50  1  0
 25 51  1  0
M  END
>  <smiles>  (37) 
O=C(NCC(=O)N1CCCC1C1CCCC1)c1ccc2cc(Cl)ccc2n1

>  <score_type>  (37) 
oracle

>  <origin>  (37) 
autodockgpu

>  <m_score__min__energy>  (37) 
-8.7400000000000002

>  <m_primary>  (37) 
energy

>  <rmsd>  (37) 
2.1441500932327355

>  <m_score__min__rmsd>  (37) 
2.1441500932327355

>  <meeko>  (37) 
{"free_energy": -7.87, "intermolecular_energy": -9.36, "internal_energy": -1.86, "cluster_size": 4, "cluster_id": 4, "rank_in_cluster": 1}

>  <energy>  (37) 
-7.79

>  <cluster_rmsd>  (37) 
1.29

>  <cluster>  (37) 
1

$$$$

     RDKit          3D

 51 54  0  0  0  0  0  0  0  0999 V2000
  140.8960   72.6370  220.9320 O   0  0  0  0  0  0  0  0  0  0  0  0
  140.3120   72.9550  222.0240 C   0  0  0  0  0  0  0  0  0  0  0  0
  139.7390   74.2340  222.2040 N   0  0  0  0  0  0  0  0  0  0  0  0
  139.8120   75.1970  221.1540 C   0  0  0  0  0  0  0  0  0  0  0  0
  140.5640   76.4250  221.5630 C   0  0  0  0  0  0  0  0  0  0  0  0
  141.0640   76.3920  222.7250 O   0  0  0  0  0  0  0  0  0  0  0  0
  140.6980   77.5430  220.6920 N   0  0  0  0  0  0  0  0  0  0  0  0
  140.5200   77.4420  219.2590 C   0  0  0  0  0  0  0  0  0  0  0  0
  140.9470   78.8030  218.7690 C   0  0  0  0  0  0  0  0  0  0  0  0
  141.7280   79.4390  219.9000 C   0  0  0  0  0  0  0  0  0  0  0  0
  141.0170   78.8930  221.0940 C   0  0  2  0  0  0  0  0  0  0  0  0
  141.6560   79.0800  222.3900 C   0  0  0  0  0  0  0  0  0  0  0  0
  142.6950   80.1170  222.5180 C   0  0  0  0  0  0  0  0  0  0  0  0
  142.1630   81.1300  223.5090 C   0  0  0  0  0  0  0  0  0  0  0  0
  140.6740   80.9050  223.5620 C   0  0  0  0  0  0  0  0  0  0  0  0
  140.5620   79.4100  223.4120 C   0  0  0  0  0  0  0  0  0  0  0  0
  140.2170   71.9900  223.1290 C   0  0  0  0  0  0  0  0  0  0  0  0
  139.5950   70.7630  222.8770 C   0  0  0  0  0  0  0  0  0  0  0  0
  139.4600   69.7970  223.8530 C   0  0  0  0  0  0  0  0  0  0  0  0
  139.9720   70.0990  225.0980 C   0  0  0  0  0  0  0  0  0  0  0  0
  139.8860   69.1990  226.1370 C   0  0  0  0  0  0  0  0  0  0  0  0
  140.4070   69.5260  227.3750 C   0  0  0  0  0  0  0  0  0  0  0  0
  140.3300   68.4290  228.7310 Cl  0  0  0  0  0  0  0  0  0  0  0  0
  141.0210   70.7630  227.5890 C   0  0  0  0  0  0  0  0  0  0  0  0
  141.1060   71.6640  226.5460 C   0  0  0  0  0  0  0  0  0  0  0  0
  140.5780   71.3240  225.2980 C   0  0  0  0  0  0  0  0  0  0  0  0
  140.6990   72.2540  224.3350 N   0  0  0  0  0  0  0  0  0  0  0  0
  139.2510   74.5070  223.1070 H   0  0  0  0  0  0  0  0  0  0  0  0
  140.3198   74.7419  220.2909 H   0  0  0  0  0  0  0  0  0  0  0  0
  138.7849   75.4990  220.9013 H   0  0  0  0  0  0  0  0  0  0  0  0
  141.1571   76.6514  218.8359 H   0  0  0  0  0  0  0  0  0  0  0  0
  139.4930   77.1779  218.9667 H   0  0  0  0  0  0  0  0  0  0  0  0
  141.5824   78.7039  217.8765 H   0  0  0  0  0  0  0  0  0  0  0  0
  140.0781   79.4170  218.4898 H   0  0  0  0  0  0  0  0  0  0  0  0
  142.7834   79.1293  219.8839 H   0  0  0  0  0  0  0  0  0  0  0  0
  141.7614   80.5378  219.8606 H   0  0  0  0  0  0  0  0  0  0  0  0
  140.1120   79.4678  221.3399 H   0  0  0  0  0  0  0  0  0  0  0  0
  142.1915   78.1330  222.5528 H   0  0  0  0  0  0  0  0  0  0  0  0
  143.6309   79.6748  222.8904 H   0  0  0  0  0  0  0  0  0  0  0  0
  142.9155   80.5846  221.5471 H   0  0  0  0  0  0  0  0  0  0  0  0
  142.6109   80.9683  224.5006 H   0  0  0  0  0  0  0  0  0  0  0  0
  142.4077   82.1594  223.2084 H   0  0  0  0  0  0  0  0  0  0  0  0
  140.2557   81.2402  224.5226 H   0  0  0  0  0  0  0  0  0  0  0  0
  140.1194   81.4645  222.7943 H   0  0  0  0  0  0  0  0  0  0  0  0
  140.7498   78.9019  224.3694 H   0  0  0  0  0  0  0  0  0  0  0  0
  139.5612   79.0810  223.0954 H   0  0  0  0  0  0  0  0  0  0  0  0
  139.2013   70.5618  221.8698 H   0  0  0  0  0  0  0  0  0  0  0  0
  138.9687   68.8343  223.6486 H   0  0  0  0  0  0  0  0  0  0  0  0
  139.4040   68.2224  225.9821 H   0  0  0  0  0  0  0  0  0  0  0  0
  141.4321   71.0162  228.5774 H   0  0  0  0  0  0  0  0  0  0  0  0
  141.5859   72.6423  226.6967 H   0  0  0  0  0  0  0  0  0  0  0  0
  1  2  2  0
  2  3  1  0
  3  4  1  0
  4  5  1  0
  5  6  2  0
  5  7  1  0
  7  8  1  0
  8  9  1  0
  9 10  1  0
 10 11  1  0
 11 12  1  0
 12 13  1  0
 13 14  1  0
 14 15  1  0
 15 16  1  0
  2 17  1  0
 17 18  2  0
 18 19  1  0
 19 20  2  0
 20 21  1  0
 21 22  2  0
 22 23  1  0
 22 24  1  0
 24 25  2  0
 25 26  1  0
 26 27  2  0
 11  7  1  0
 16 12  1  0
 27 17  1  0
 26 20  1  0
  3 28  1  0
  4 29  1  0
  4 30  1  0
  8 31  1  0
  8 32  1  0
  9 33  1  0
  9 34  1  0
 10 35  1  0
 10 36  1  0
 11 37  1  1
 12 38  1  0
 13 39  1  0
 13 40  1  0
 14 41  1  0
 14 42  1  0
 15 43  1  0
 15 44  1  0
 16 45  1  0
 16 46  1  0
 18 47  1  0
 19 48  1  0
 21 49  1  0
 24 50  1  0
 25 51  1  0
M  END
>  <smiles>  (38) 
O=C(NCC(=O)N1CCCC1C1CCCC1)c1ccc2cc(Cl)ccc2n1

>  <score_type>  (38) 
oracle

>  <origin>  (38) 
autodockgpu

>  <m_score__min__energy>  (38) 
-8.7400000000000002

>  <m_primary>  (38) 
energy

>  <rmsd>  (38) 
2.199940251215173

>  <m_score__min__rmsd>  (38) 
2.199940251215173

>  <meeko>  (38) 
{"free_energy": -8.57, "intermolecular_energy": -10.06, "internal_energy": -1.32, "cluster_size": 38, "cluster_id": 1, "rank_in_cluster": 5}

>  <energy>  (38) 
-7.43

>  <cluster_rmsd>  (38) 
1.49

>  <cluster>  (38) 
1

$$$$

     RDKit          3D

 51 54  0  0  0  0  0  0  0  0999 V2000
  134.8670   68.5020  224.9910 O   0  0  0  0  0  0  0  0  0  0  0  0
  135.2510   69.6990  224.7570 C   0  0  0  0  0  0  0  0  0  0  0  0
  136.3370   69.9650  223.8930 N   0  0  0  0  0  0  0  0  0  0  0  0
  137.0260   68.8840  223.2670 C   0  0  0  0  0  0  0  0  0  0  0  0
  138.4080   68.7010  223.8120 C   0  0  0  0  0  0  0  0  0  0  0  0
  138.8310   67.5080  223.8240 O   0  0  0  0  0  0  0  0  0  0  0  0
  139.1780   69.8020  224.2800 N   0  0  0  0  0  0  0  0  0  0  0  0
  139.7770   70.7720  223.3880 C   0  0  0  0  0  0  0  0  0  0  0  0
  140.6290   71.6020  224.3140 C   0  0  0  0  0  0  0  0  0  0  0  0
  140.7860   70.7980  225.5870 C   0  0  0  0  0  0  0  0  0  0  0  0
  139.4650   70.1050  225.6630 C   0  0  2  0  0  0  0  0  0  0  0  0
  139.3370   69.0250  226.6330 C   0  0  0  0  0  0  0  0  0  0  0  0
  140.2350   67.8640  226.5150 C   0  0  0  0  0  0  0  0  0  0  0  0
  141.0720   67.8460  227.7760 C   0  0  0  0  0  0  0  0  0  0  0  0
  140.9680   69.2350  228.3540 C   0  0  0  0  0  0  0  0  0  0  0  0
  139.5480   69.6190  228.0300 C   0  0  0  0  0  0  0  0  0  0  0  0
  134.5670   70.8400  225.3830 C   0  0  0  0  0  0  0  0  0  0  0  0
  133.5580   70.5690  226.3120 C   0  0  0  0  0  0  0  0  0  0  0  0
  132.8620   71.5760  226.9500 C   0  0  0  0  0  0  0  0  0  0  0  0
  133.2100   72.8710  226.6260 C   0  0  0  0  0  0  0  0  0  0  0  0
  132.5720   73.9430  227.2090 C   0  0  0  0  0  0  0  0  0  0  0  0
  132.9410   75.2320  226.8680 C   0  0  0  0  0  0  0  0  0  0  0  0
  132.1720   76.6320  227.5720 Cl  0  0  0  0  0  0  0  0  0  0  0  0
  133.9540   75.4620  225.9330 C   0  0  0  0  0  0  0  0  0  0  0  0
  134.5920   74.3850  225.3500 C   0  0  0  0  0  0  0  0  0  0  0  0
  134.2140   73.0880  225.7020 C   0  0  0  0  0  0  0  0  0  0  0  0
  134.8810   72.0940  225.0900 N   0  0  0  0  0  0  0  0  0  0  0  0
  136.6640   70.9550  223.6920 H   0  0  0  0  0  0  0  0  0  0  0  0
  136.4553   67.9581  223.4312 H   0  0  0  0  0  0  0  0  0  0  0  0
  137.1143   69.1161  222.1954 H   0  0  0  0  0  0  0  0  0  0  0  0
  140.3919   70.2777  222.6215 H   0  0  0  0  0  0  0  0  0  0  0  0
  139.0363   71.3651  222.8316 H   0  0  0  0  0  0  0  0  0  0  0  0
  141.6128   71.7902  223.8593 H   0  0  0  0  0  0  0  0  0  0  0  0
  140.1647   72.5789  224.5143 H   0  0  0  0  0  0  0  0  0  0  0  0
  141.6140   70.0781  225.5086 H   0  0  0  0  0  0  0  0  0  0  0  0
  141.0282   71.4025  226.4735 H   0  0  0  0  0  0  0  0  0  0  0  0
  138.6855   70.7398  226.1097 H   0  0  0  0  0  0  0  0  0  0  0  0
  138.3350   68.6169  226.4342 H   0  0  0  0  0  0  0  0  0  0  0  0
  139.6497   66.9363  226.4328 H   0  0  0  0  0  0  0  0  0  0  0  0
  140.8659   67.9356  225.6168 H   0  0  0  0  0  0  0  0  0  0  0  0
  140.6789   67.1043  228.4868 H   0  0  0  0  0  0  0  0  0  0  0  0
  142.1161   67.5703  227.5666 H   0  0  0  0  0  0  0  0  0  0  0  0
  141.1393   69.2270  229.4405 H   0  0  0  0  0  0  0  0  0  0  0  0
  141.7141   69.9347  227.9494 H   0  0  0  0  0  0  0  0  0  0  0  0
  138.8456   69.1820  228.7550 H   0  0  0  0  0  0  0  0  0  0  0  0
  139.3742   70.7045  228.0689 H   0  0  0  0  0  0  0  0  0  0  0  0
  133.3113   69.5219  226.5414 H   0  0  0  0  0  0  0  0  0  0  0  0
  132.0693   71.3567  227.6804 H   0  0  0  0  0  0  0  0  0  0  0  0
  131.7710   73.7749  227.9440 H   0  0  0  0  0  0  0  0  0  0  0  0
  134.2399   76.4897  225.6644 H   0  0  0  0  0  0  0  0  0  0  0  0
  135.3925   74.5479  224.6134 H   0  0  0  0  0  0  0  0  0  0  0  0
  1  2  2  0
  2  3  1  0
  3  4  1  0
  4  5  1  0
  5  6  2  0
  5  7  1  0
  7  8  1  0
  8  9  1  0
  9 10  1  0
 10 11  1  0
 11 12  1  0
 12 13  1  0
 13 14  1  0
 14 15  1  0
 15 16  1  0
  2 17  1  0
 17 18  2  0
 18 19  1  0
 19 20  2  0
 20 21  1  0
 21 22  2  0
 22 23  1  0
 22 24  1  0
 24 25  2  0
 25 26  1  0
 26 27  2  0
 11  7  1  0
 16 12  1  0
 27 17  1  0
 26 20  1  0
  3 28  1  0
  4 29  1  0
  4 30  1  0
  8 31  1  0
  8 32  1  0
  9 33  1  0
  9 34  1  0
 10 35  1  0
 10 36  1  0
 11 37  1  1
 12 38  1  0
 13 39  1  0
 13 40  1  0
 14 41  1  0
 14 42  1  0
 15 43  1  0
 15 44  1  0
 16 45  1  0
 16 46  1  0
 18 47  1  0
 19 48  1  0
 21 49  1  0
 24 50  1  0
 25 51  1  0
M  END
>  <smiles>  (39) 
O=C(NCC(=O)N1CCCC1C1CCCC1)c1ccc2cc(Cl)ccc2n1

>  <score_type>  (39) 
oracle

>  <origin>  (39) 
autodockgpu

>  <m_score__min__energy>  (39) 
-8.7400000000000002

>  <m_primary>  (39) 
energy

>  <rmsd>  (39) 
7.557158951010493

>  <m_score__min__rmsd>  (39) 
7.557158951010493

>  <meeko>  (39) 
{"free_energy": -8.34, "intermolecular_energy": -9.84, "internal_energy": -1.75, "cluster_size": 4, "cluster_id": 3, "rank_in_cluster": 1}

>  <energy>  (39) 
-8.43

>  <cluster_rmsd>  (39) 
0.0

>  <cluster>  (39) 
2

$$$$

     RDKit          3D

 51 54  0  0  0  0  0  0  0  0999 V2000
  139.9090   72.2570  220.7310 O   0  0  0  0  0  0  0  0  0  0  0  0
  139.8230   72.6710  221.9370 C   0  0  0  0  0  0  0  0  0  0  0  0
  139.6490   74.0420  222.2310 N   0  0  0  0  0  0  0  0  0  0  0  0
  139.5680   74.9900  221.1680 C   0  0  0  0  0  0  0  0  0  0  0  0
  140.1410   76.3190  221.5500 C   0  0  0  0  0  0  0  0  0  0  0  0
  140.1990   76.5470  222.7940 O   0  0  0  0  0  0  0  0  0  0  0  0
  140.5840   77.2510  220.5700 N   0  0  0  0  0  0  0  0  0  0  0  0
  140.9570   76.8550  219.2280 C   0  0  0  0  0  0  0  0  0  0  0  0
  141.5270   78.1230  218.6470 C   0  0  0  0  0  0  0  0  0  0  0  0
  141.8250   79.0350  219.8190 C   0  0  0  0  0  0  0  0  0  0  0  0
  140.7220   78.6760  220.7600 C   0  0  2  0  0  0  0  0  0  0  0  0
  140.8280   79.1690  222.1270 C   0  0  0  0  0  0  0  0  0  0  0  0
  142.1210   79.0430  222.8210 C   0  0  0  0  0  0  0  0  0  0  0  0
  142.5890   80.4540  223.1050 C   0  0  0  0  0  0  0  0  0  0  0  0
  141.8060   81.3390  222.1700 C   0  0  0  0  0  0  0  0  0  0  0  0
  140.4630   80.6580  222.1210 C   0  0  0  0  0  0  0  0  0  0  0  0
  139.9010   71.7240  223.0590 C   0  0  0  0  0  0  0  0  0  0  0  0
  139.4190   70.4280  222.8590 C   0  0  0  0  0  0  0  0  0  0  0  0
  139.4520   69.4730  223.8540 C   0  0  0  0  0  0  0  0  0  0  0  0
  139.9870   69.8600  225.0660 C   0  0  0  0  0  0  0  0  0  0  0  0
  140.0620   68.9780  226.1210 C   0  0  0  0  0  0  0  0  0  0  0  0
  140.6030   69.3900  227.3250 C   0  0  0  0  0  0  0  0  0  0  0  0
  140.7280   68.3200  228.6990 Cl  0  0  0  0  0  0  0  0  0  0  0  0
  141.0740   70.6960  227.4880 C   0  0  0  0  0  0  0  0  0  0  0  0
  140.9970   71.5780  226.4290 C   0  0  0  0  0  0  0  0  0  0  0  0
  140.4500   71.1520  225.2160 C   0  0  0  0  0  0  0  0  0  0  0  0
  140.4090   72.0700  224.2340 N   0  0  0  0  0  0  0  0  0  0  0  0
  139.5760   74.3960  223.2290 H   0  0  0  0  0  0  0  0  0  0  0  0
  140.1240   74.6001  220.3027 H   0  0  0  0  0  0  0  0  0  0  0  0
  138.5047   75.1374  220.9276 H   0  0  0  0  0  0  0  0  0  0  0  0
  141.7115   76.0548  219.2472 H   0  0  0  0  0  0  0  0  0  0  0  0
  140.1159   76.4509  218.6455 H   0  0  0  0  0  0  0  0  0  0  0  0
  142.4504   77.9048  218.0905 H   0  0  0  0  0  0  0  0  0  0  0  0
  140.8212   78.5926  217.9460 H   0  0  0  0  0  0  0  0  0  0  0  0
  142.8117   78.8202  220.2551 H   0  0  0  0  0  0  0  0  0  0  0  0
  141.8643   80.1031  219.5589 H   0  0  0  0  0  0  0  0  0  0  0  0
  139.7876   79.2087  220.5294 H   0  0  0  0  0  0  0  0  0  0  0  0
  140.1486   78.5132  222.6912 H   0  0  0  0  0  0  0  0  0  0  0  0
  141.9960   78.4865  223.7616 H   0  0  0  0  0  0  0  0  0  0  0  0
  142.8520   78.4946  222.2087 H   0  0  0  0  0  0  0  0  0  0  0  0
  142.3823   80.7234  224.1513 H   0  0  0  0  0  0  0  0  0  0  0  0
  143.6731   80.5607  222.9525 H   0  0  0  0  0  0  0  0  0  0  0  0
  141.7191   82.3602  222.5694 H   0  0  0  0  0  0  0  0  0  0  0  0
  142.2745   81.4543  221.1815 H   0  0  0  0  0  0  0  0  0  0  0  0
  139.8555   80.9192  223.0000 H   0  0  0  0  0  0  0  0  0  0  0  0
  139.8605   80.9521  221.2489 H   0  0  0  0  0  0  0  0  0  0  0  0
  139.0002   70.1608  221.8776 H   0  0  0  0  0  0  0  0  0  0  0  0
  139.0710   68.4542  223.6897 H   0  0  0  0  0  0  0  0  0  0  0  0
  139.6924   67.9483  226.0062 H   0  0  0  0  0  0  0  0  0  0  0  0
  141.5012   71.0172  228.4494 H   0  0  0  0  0  0  0  0  0  0  0  0
  141.3638   72.6092  226.5393 H   0  0  0  0  0  0  0  0  0  0  0  0
  1  2  2  0
  2  3  1  0
  3  4  1  0
  4  5  1  0
  5  6  2  0
  5  7  1  0
  7  8  1  0
  8  9  1  0
  9 10  1  0
 10 11  1  0
 11 12  1  0
 12 13  1  0
 13 14  1  0
 14 15  1  0
 15 16  1  0
  2 17  1  0
 17 18  2  0
 18 19  1  0
 19 20  2  0
 20 21  1  0
 21 22  2  0
 22 23  1  0
 22 24  1  0
 24 25  2  0
 25 26  1  0
 26 27  2  0
 11  7  1  0
 16 12  1  0
 27 17  1  0
 26 20  1  0
  3 28  1  0
  4 29  1  0
  4 30  1  0
  8 31  1  0
  8 32  1  0
  9 33  1  0
  9 34  1  0
 10 35  1  0
 10 36  1  0
 11 37  1  6
 12 38  1  0
 13 39  1  0
 13 40  1  0
 14 41  1  0
 14 42  1  0
 15 43  1  0
 15 44  1  0
 16 45  1  0
 16 46  1  0
 18 47  1  0
 19 48  1  0
 21 49  1  0
 24 50  1  0
 25 51  1  0
M  END
>  <smiles>  (40) 
O=C(NCC(=O)N1CCCC1C1CCCC1)c1ccc2cc(Cl)ccc2n1

>  <score_type>  (40) 
oracle

>  <origin>  (40) 
autodockgpu

>  <m_score__min__energy>  (40) 
-8.7400000000000002

>  <m_primary>  (40) 
energy

>  <rmsd>  (40) 
1.9678285849917978

>  <m_score__min__rmsd>  (40) 
1.9678285849917978

>  <meeko>  (40) 
{"free_energy": -8.28, "intermolecular_energy": -9.78, "internal_energy": -1.75, "cluster_size": 38, "cluster_id": 1, "rank_in_cluster": 29}

>  <energy>  (40) 
-8.43

>  <cluster_rmsd>  (40) 
0.11

>  <cluster>  (40) 
2

$$$$

     RDKit          3D

 51 54  0  0  0  0  0  0  0  0999 V2000
  140.2890   72.3600  220.6510 O   0  0  0  0  0  0  0  0  0  0  0  0
  140.0520   72.7650  221.8400 C   0  0  0  0  0  0  0  0  0  0  0  0
  139.7720   74.1240  222.1100 N   0  0  0  0  0  0  0  0  0  0  0  0
  139.7530   75.0700  221.0420 C   0  0  0  0  0  0  0  0  0  0  0  0
  141.0530   75.8000  220.9080 C   0  0  0  0  0  0  0  0  0  0  0  0
  141.4020   76.4740  221.9220 O   0  0  0  0  0  0  0  0  0  0  0  0
  141.8290   75.7310  219.7180 N   0  0  0  0  0  0  0  0  0  0  0  0
  141.3740   76.2750  218.4560 C   0  0  0  0  0  0  0  0  0  0  0  0
  142.4210   75.7960  217.4830 C   0  0  0  0  0  0  0  0  0  0  0  0
  143.1650   74.6730  218.1740 C   0  0  0  0  0  0  0  0  0  0  0  0
  143.1370   75.1310  219.5950 C   0  0  2  0  0  0  0  0  0  0  0  0
  143.5380   74.1670  220.6120 C   0  0  0  0  0  0  0  0  0  0  0  0
  143.1550   72.7560  220.4310 C   0  0  0  0  0  0  0  0  0  0  0  0
  144.4480   71.9800  220.3020 C   0  0  0  0  0  0  0  0  0  0  0  0
  145.5010   72.9980  219.9430 C   0  0  0  0  0  0  0  0  0  0  0  0
  145.0660   74.2090  220.7260 C   0  0  0  0  0  0  0  0  0  0  0  0
  140.0620   71.8210  222.9670 C   0  0  0  0  0  0  0  0  0  0  0  0
  139.5380   70.5430  222.7560 C   0  0  0  0  0  0  0  0  0  0  0  0
  139.5060   69.5910  223.7550 C   0  0  0  0  0  0  0  0  0  0  0  0
  140.0190   69.9630  224.9800 C   0  0  0  0  0  0  0  0  0  0  0  0
  140.0310   69.0830  226.0400 C   0  0  0  0  0  0  0  0  0  0  0  0
  140.5510   69.4800  227.2580 C   0  0  0  0  0  0  0  0  0  0  0  0
  140.5960   68.4120  228.6380 Cl  0  0  0  0  0  0  0  0  0  0  0  0
  141.0660   70.7680  227.4310 C   0  0  0  0  0  0  0  0  0  0  0  0
  141.0530   71.6480  226.3670 C   0  0  0  0  0  0  0  0  0  0  0  0
  140.5260   71.2380  225.1400 C   0  0  0  0  0  0  0  0  0  0  0  0
  140.5480   72.1530  224.1550 N   0  0  0  0  0  0  0  0  0  0  0  0
  139.5730   74.4700  223.0930 H   0  0  0  0  0  0  0  0  0  0  0  0
  139.5473   74.5379  220.1015 H   0  0  0  0  0  0  0  0  0  0  0  0
  138.9712   75.8117  221.2626 H   0  0  0  0  0  0  0  0  0  0  0  0
  140.3804   75.8836  218.1920 H   0  0  0  0  0  0  0  0  0  0  0  0
  141.2638   77.3694  218.4702 H   0  0  0  0  0  0  0  0  0  0  0  0
  141.9447   75.4270  216.5627 H   0  0  0  0  0  0  0  0  0  0  0  0
  143.1033   76.6105  217.1985 H   0  0  0  0  0  0  0  0  0  0  0  0
  142.6458   73.7111  218.0511 H   0  0  0  0  0  0  0  0  0  0  0  0
  144.1760   74.4939  217.7793 H   0  0  0  0  0  0  0  0  0  0  0  0
  143.9367   75.8534  219.8155 H   0  0  0  0  0  0  0  0  0  0  0  0
  142.9846   74.4894  221.5063 H   0  0  0  0  0  0  0  0  0  0  0  0
  142.5829   72.4016  221.3012 H   0  0  0  0  0  0  0  0  0  0  0  0
  142.5186   72.6244  219.5435 H   0  0  0  0  0  0  0  0  0  0  0  0
  144.6976   71.4896  221.2545 H   0  0  0  0  0  0  0  0  0  0  0  0
  144.3724   71.1888  219.5416 H   0  0  0  0  0  0  0  0  0  0  0  0
  146.5011   72.6618  220.2542 H   0  0  0  0  0  0  0  0  0  0  0  0
  145.5820   73.1816  218.8615 H   0  0  0  0  0  0  0  0  0  0  0  0
  145.3857   74.1360  221.7760 H   0  0  0  0  0  0  0  0  0  0  0  0
  145.5018   75.1463  220.3498 H   0  0  0  0  0  0  0  0  0  0  0  0
  139.1387   70.2877  221.7633 H   0  0  0  0  0  0  0  0  0  0  0  0
  139.0923   68.5864  223.5828 H   0  0  0  0  0  0  0  0  0  0  0  0
  139.6278   68.0669  225.9175 H   0  0  0  0  0  0  0  0  0  0  0  0
  141.4769   71.0769  228.4035 H   0  0  0  0  0  0  0  0  0  0  0  0
  141.4549   72.6651  226.4848 H   0  0  0  0  0  0  0  0  0  0  0  0
  1  2  2  0
  2  3  1  0
  3  4  1  0
  4  5  1  0
  5  6  2  0
  5  7  1  0
  7  8  1  0
  8  9  1  0
  9 10  1  0
 10 11  1  0
 11 12  1  0
 12 13  1  0
 13 14  1  0
 14 15  1  0
 15 16  1  0
  2 17  1  0
 17 18  2  0
 18 19  1  0
 19 20  2  0
 20 21  1  0
 21 22  2  0
 22 23  1  0
 22 24  1  0
 24 25  2  0
 25 26  1  0
 26 27  2  0
 11  7  1  0
 16 12  1  0
 27 17  1  0
 26 20  1  0
  3 28  1  0
  4 29  1  0
  4 30  1  0
  8 31  1  0
  8 32  1  0
  9 33  1  0
  9 34  1  0
 10 35  1  0
 10 36  1  0
 11 37  1  6
 12 38  1  0
 13 39  1  0
 13 40  1  0
 14 41  1  0
 14 42  1  0
 15 43  1  0
 15 44  1  0
 16 45  1  0
 16 46  1  0
 18 47  1  0
 19 48  1  0
 21 49  1  0
 24 50  1  0
 25 51  1  0
M  END
>  <smiles>  (41) 
O=C(NCC(=O)N1CCCC1C1CCCC1)c1ccc2cc(Cl)ccc2n1

>  <score_type>  (41) 
oracle

>  <origin>  (41) 
autodockgpu

>  <m_score__min__energy>  (41) 
-8.7400000000000002

>  <m_primary>  (41) 
energy

>  <rmsd>  (41) 
2.178153715476581

>  <m_score__min__rmsd>  (41) 
2.178153715476581

>  <meeko>  (41) 
{"free_energy": -7.59, "intermolecular_energy": -9.09, "internal_energy": -1.91, "cluster_size": 4, "cluster_id": 4, "rank_in_cluster": 4}

>  <energy>  (41) 
-8.34

>  <cluster_rmsd>  (41) 
0.0

>  <cluster>  (41) 
3

$$$$

     RDKit          3D

 51 54  0  0  0  0  0  0  0  0999 V2000
  140.2490   72.2370  220.6910 O   0  0  0  0  0  0  0  0  0  0  0  0
  140.0260   72.6560  221.8790 C   0  0  0  0  0  0  0  0  0  0  0  0
  139.7560   74.0180  222.1370 N   0  0  0  0  0  0  0  0  0  0  0  0
  139.7300   74.9530  221.0600 C   0  0  0  0  0  0  0  0  0  0  0  0
  140.2200   76.3060  221.4710 C   0  0  0  0  0  0  0  0  0  0  0  0
  140.2410   76.5180  222.7190 O   0  0  0  0  0  0  0  0  0  0  0  0
  140.6270   77.2760  220.5130 N   0  0  0  0  0  0  0  0  0  0  0  0
  140.9840   76.9280  219.1530 C   0  0  0  0  0  0  0  0  0  0  0  0
  141.5200   78.2250  218.6030 C   0  0  0  0  0  0  0  0  0  0  0  0
  141.8200   79.1060  219.7970 C   0  0  0  0  0  0  0  0  0  0  0  0
  140.7400   78.6970  220.7440 C   0  0  2  0  0  0  0  0  0  0  0  0
  140.8600   79.1510  222.1240 C   0  0  0  0  0  0  0  0  0  0  0  0
  142.1680   79.0310  222.7920 C   0  0  0  0  0  0  0  0  0  0  0  0
  142.6110   80.4430  223.1110 C   0  0  0  0  0  0  0  0  0  0  0  0
  141.7920   81.3390  222.2170 C   0  0  0  0  0  0  0  0  0  0  0  0
  140.4640   80.6300  222.1700 C   0  0  0  0  0  0  0  0  0  0  0  0
  140.0450   71.7230  223.0150 C   0  0  0  0  0  0  0  0  0  0  0  0
  139.5190   70.4430  222.8210 C   0  0  0  0  0  0  0  0  0  0  0  0
  139.4950   69.5020  223.8300 C   0  0  0  0  0  0  0  0  0  0  0  0
  140.0170   69.8860  225.0480 C   0  0  0  0  0  0  0  0  0  0  0  0
  140.0360   69.0170  226.1170 C   0  0  0  0  0  0  0  0  0  0  0  0
  140.5650   69.4270  227.3270 C   0  0  0  0  0  0  0  0  0  0  0  0
  140.6200   68.3730  228.7180 Cl  0  0  0  0  0  0  0  0  0  0  0  0
  141.0810   70.7170  227.4830 C   0  0  0  0  0  0  0  0  0  0  0  0
  141.0600   71.5860  226.4100 C   0  0  0  0  0  0  0  0  0  0  0  0
  140.5240   71.1630  225.1910 C   0  0  0  0  0  0  0  0  0  0  0  0
  140.5390   72.0670  224.1960 N   0  0  0  0  0  0  0  0  0  0  0  0
  139.5700   74.3760  223.1190 H   0  0  0  0  0  0  0  0  0  0  0  0
  140.3703   74.5762  220.2488 H   0  0  0  0  0  0  0  0  0  0  0  0
  138.6857   75.0587  220.7311 H   0  0  0  0  0  0  0  0  0  0  0  0
  141.7536   76.1423  219.1346 H   0  0  0  0  0  0  0  0  0  0  0  0
  140.1411   76.5253  218.5722 H   0  0  0  0  0  0  0  0  0  0  0  0
  142.4380   78.0424  218.0251 H   0  0  0  0  0  0  0  0  0  0  0  0
  140.7934   78.7020  217.9288 H   0  0  0  0  0  0  0  0  0  0  0  0
  142.8178   78.8973  220.2103 H   0  0  0  0  0  0  0  0  0  0  0  0
  141.8346   80.1821  219.5694 H   0  0  0  0  0  0  0  0  0  0  0  0
  139.7914   79.2171  220.5449 H   0  0  0  0  0  0  0  0  0  0  0  0
  140.2044   78.4644  222.6796 H   0  0  0  0  0  0  0  0  0  0  0  0
  142.0712   78.4437  223.7170 H   0  0  0  0  0  0  0  0  0  0  0  0
  142.8994   78.5167  222.1513 H   0  0  0  0  0  0  0  0  0  0  0  0
  142.4176   80.6760  224.1685 H   0  0  0  0  0  0  0  0  0  0  0  0
  143.6897   80.5780  222.9429 H   0  0  0  0  0  0  0  0  0  0  0  0
  141.6899   82.3453  222.6493 H   0  0  0  0  0  0  0  0  0  0  0  0
  142.2402   81.4951  221.2247 H   0  0  0  0  0  0  0  0  0  0  0  0
  139.8667   80.8509  223.0669 H   0  0  0  0  0  0  0  0  0  0  0  0
  139.8404   80.9369  221.3174 H   0  0  0  0  0  0  0  0  0  0  0  0
  139.1118   70.1775  221.8342 H   0  0  0  0  0  0  0  0  0  0  0  0
  139.0803   68.4956  223.6711 H   0  0  0  0  0  0  0  0  0  0  0  0
  139.6315   67.9999  226.0082 H   0  0  0  0  0  0  0  0  0  0  0  0
  141.4988   71.0360  228.4492 H   0  0  0  0  0  0  0  0  0  0  0  0
  141.4625   72.6044  226.5143 H   0  0  0  0  0  0  0  0  0  0  0  0
  1  2  2  0
  2  3  1  0
  3  4  1  0
  4  5  1  0
  5  6  2  0
  5  7  1  0
  7  8  1  0
  8  9  1  0
  9 10  1  0
 10 11  1  0
 11 12  1  0
 12 13  1  0
 13 14  1  0
 14 15  1  0
 15 16  1  0
  2 17  1  0
 17 18  2  0
 18 19  1  0
 19 20  2  0
 20 21  1  0
 21 22  2  0
 22 23  1  0
 22 24  1  0
 24 25  2  0
 25 26  1  0
 26 27  2  0
 11  7  1  0
 16 12  1  0
 27 17  1  0
 26 20  1  0
  3 28  1  0
  4 29  1  0
  4 30  1  0
  8 31  1  0
  8 32  1  0
  9 33  1  0
  9 34  1  0
 10 35  1  0
 10 36  1  0
 11 37  1  6
 12 38  1  0
 13 39  1  0
 13 40  1  0
 14 41  1  0
 14 42  1  0
 15 43  1  0
 15 44  1  0
 16 45  1  0
 16 46  1  0
 18 47  1  0
 19 48  1  0
 21 49  1  0
 24 50  1  0
 25 51  1  0
M  END
>  <smiles>  (42) 
O=C(NCC(=O)N1CCCC1C1CCCC1)c1ccc2cc(Cl)ccc2n1

>  <score_type>  (42) 
oracle

>  <origin>  (42) 
autodockgpu

>  <m_score__min__energy>  (42) 
-8.7400000000000002

>  <m_primary>  (42) 
energy

>  <rmsd>  (42) 
2.011237655541759

>  <m_score__min__rmsd>  (42) 
2.011237655541759

>  <meeko>  (42) 
{"free_energy": -8.38, "intermolecular_energy": -9.87, "internal_energy": -1.71, "cluster_size": 38, "cluster_id": 1, "rank_in_cluster": 24}

>  <energy>  (42) 
-8.33

>  <cluster_rmsd>  (42) 
0.06

>  <cluster>  (42) 
3

$$$$

     RDKit          3D

 51 54  0  0  0  0  0  0  0  0999 V2000
  140.4690   72.5080  220.7570 O   0  0  0  0  0  0  0  0  0  0  0  0
  140.1590   72.9010  221.9330 C   0  0  0  0  0  0  0  0  0  0  0  0
  139.8330   74.2510  222.1940 N   0  0  0  0  0  0  0  0  0  0  0  0
  139.8490   75.2020  221.1310 C   0  0  0  0  0  0  0  0  0  0  0  0
  139.6330   76.6010  221.6180 C   0  0  0  0  0  0  0  0  0  0  0  0
  139.0320   76.7000  222.7280 O   0  0  0  0  0  0  0  0  0  0  0  0
  140.0760   77.7280  220.8720 N   0  0  0  0  0  0  0  0  0  0  0  0
  140.2220   77.7030  219.4310 C   0  0  0  0  0  0  0  0  0  0  0  0
  140.8870   79.0230  219.1360 C   0  0  0  0  0  0  0  0  0  0  0  0
  141.4520   79.5210  220.4500 C   0  0  0  0  0  0  0  0  0  0  0  0
  140.4340   79.0160  221.4190 C   0  0  2  0  0  0  0  0  0  0  0  0
  140.7760   79.0780  222.8340 C   0  0  0  0  0  0  0  0  0  0  0  0
  142.1930   78.9650  223.2200 C   0  0  0  0  0  0  0  0  0  0  0  0
  142.5600   80.2790  223.8750 C   0  0  0  0  0  0  0  0  0  0  0  0
  141.5080   81.2630  223.4320 C   0  0  0  0  0  0  0  0  0  0  0  0
  140.2640   80.4140  223.3840 C   0  0  0  0  0  0  0  0  0  0  0  0
  140.1320   71.9510  223.0550 C   0  0  0  0  0  0  0  0  0  0  0  0
  139.5860   70.6840  222.8290 C   0  0  0  0  0  0  0  0  0  0  0  0
  139.5180   69.7290  223.8220 C   0  0  0  0  0  0  0  0  0  0  0  0
  140.0190   70.0840  225.0570 C   0  0  0  0  0  0  0  0  0  0  0  0
  139.9950   69.1980  226.1130 C   0  0  0  0  0  0  0  0  0  0  0  0
  140.5030   69.5780  227.3410 C   0  0  0  0  0  0  0  0  0  0  0  0
  140.5040   68.5020  228.7160 Cl  0  0  0  0  0  0  0  0  0  0  0  0
  141.0410   70.8550  227.5290 C   0  0  0  0  0  0  0  0  0  0  0  0
  141.0630   71.7410  226.4700 C   0  0  0  0  0  0  0  0  0  0  0  0
  140.5480   71.3470  225.2330 C   0  0  0  0  0  0  0  0  0  0  0  0
  140.6050   72.2660  224.2530 N   0  0  0  0  0  0  0  0  0  0  0  0
  139.5740   74.5870  223.1670 H   0  0  0  0  0  0  0  0  0  0  0  0
  140.8241   75.1502  220.6245 H   0  0  0  0  0  0  0  0  0  0  0  0
  139.0263   74.9536  220.4443 H   0  0  0  0  0  0  0  0  0  0  0  0
  140.8544   76.8614  219.1120 H   0  0  0  0  0  0  0  0  0  0  0  0
  139.2677   77.5696  218.9003 H   0  0  0  0  0  0  0  0  0  0  0  0
  141.6949   78.8862  218.4021 H   0  0  0  0  0  0  0  0  0  0  0  0
  140.1723   79.7431  218.7111 H   0  0  0  0  0  0  0  0  0  0  0  0
  142.4450   79.0918  220.6494 H   0  0  0  0  0  0  0  0  0  0  0  0
  141.6085   80.6091  220.4885 H   0  0  0  0  0  0  0  0  0  0  0  0
  139.5620   79.6825  221.4926 H   0  0  0  0  0  0  0  0  0  0  0  0
  140.3049   78.1768  223.2535 H   0  0  0  0  0  0  0  0  0  0  0  0
  142.3299   78.1348  223.9285 H   0  0  0  0  0  0  0  0  0  0  0  0
  142.8305   78.7612  222.3470 H   0  0  0  0  0  0  0  0  0  0  0  0
  142.5528   80.1769  224.9702 H   0  0  0  0  0  0  0  0  0  0  0  0
  143.5699   80.6076  223.5883 H   0  0  0  0  0  0  0  0  0  0  0  0
  141.4012   82.0835  224.1569 H   0  0  0  0  0  0  0  0  0  0  0  0
  141.7414   81.7520  222.4747 H   0  0  0  0  0  0  0  0  0  0  0  0
  139.8326   80.2884  224.3881 H   0  0  0  0  0  0  0  0  0  0  0  0
  139.4629   80.8549  222.7725 H   0  0  0  0  0  0  0  0  0  0  0  0
  139.1987   70.4412  221.8285 H   0  0  0  0  0  0  0  0  0  0  0  0
  139.0859   68.7343  223.6381 H   0  0  0  0  0  0  0  0  0  0  0  0
  139.5726   68.1912  225.9786 H   0  0  0  0  0  0  0  0  0  0  0  0
  141.4422   71.1505  228.5097 H   0  0  0  0  0  0  0  0  0  0  0  0
  141.4829   72.7494  226.5997 H   0  0  0  0  0  0  0  0  0  0  0  0
  1  2  2  0
  2  3  1  0
  3  4  1  0
  4  5  1  0
  5  6  2  0
  5  7  1  0
  7  8  1  0
  8  9  1  0
  9 10  1  0
 10 11  1  0
 11 12  1  0
 12 13  1  0
 13 14  1  0
 14 15  1  0
 15 16  1  0
  2 17  1  0
 17 18  2  0
 18 19  1  0
 19 20  2  0
 20 21  1  0
 21 22  2  0
 22 23  1  0
 22 24  1  0
 24 25  2  0
 25 26  1  0
 26 27  2  0
 11  7  1  0
 16 12  1  0
 27 17  1  0
 26 20  1  0
  3 28  1  0
  4 29  1  0
  4 30  1  0
  8 31  1  0
  8 32  1  0
  9 33  1  0
  9 34  1  0
 10 35  1  0
 10 36  1  0
 11 37  1  1
 12 38  1  0
 13 39  1  0
 13 40  1  0
 14 41  1  0
 14 42  1  0
 15 43  1  0
 15 44  1  0
 16 45  1  0
 16 46  1  0
 18 47  1  0
 19 48  1  0
 21 49  1  0
 24 50  1  0
 25 51  1  0
M  END
>  <smiles>  (43) 
O=C(NCC(=O)N1CCCC1C1CCCC1)c1ccc2cc(Cl)ccc2n1

>  <score_type>  (43) 
oracle

>  <origin>  (43) 
autodockgpu

>  <m_score__min__energy>  (43) 
-8.7400000000000002

>  <m_primary>  (43) 
energy

>  <rmsd>  (43) 
2.345351572946912

>  <m_score__min__rmsd>  (43) 
2.345351572946912

>  <meeko>  (43) 
{"free_energy": -8.43, "intermolecular_energy": -9.92, "internal_energy": -1.83, "cluster_size": 38, "cluster_id": 1, "rank_in_cluster": 22}

>  <energy>  (43) 
-8.33

>  <cluster_rmsd>  (43) 
0.05

>  <cluster>  (43) 
3

$$$$

     RDKit          3D

 51 54  0  0  0  0  0  0  0  0999 V2000
  139.9290   72.3730  220.6700 O   0  0  0  0  0  0  0  0  0  0  0  0
  139.8250   72.7940  221.8730 C   0  0  0  0  0  0  0  0  0  0  0  0
  139.6320   74.1650  222.1560 N   0  0  0  0  0  0  0  0  0  0  0  0
  139.5520   75.1050  221.0860 C   0  0  0  0  0  0  0  0  0  0  0  0
  139.7090   76.5160  221.5590 C   0  0  0  0  0  0  0  0  0  0  0  0
  139.2490   76.7550  222.7140 O   0  0  0  0  0  0  0  0  0  0  0  0
  140.3340   77.5090  220.7530 N   0  0  0  0  0  0  0  0  0  0  0  0
  140.7610   77.2550  219.3930 C   0  0  0  0  0  0  0  0  0  0  0  0
  141.5210   78.5080  219.0380 C   0  0  0  0  0  0  0  0  0  0  0  0
  141.8300   79.2060  220.3460 C   0  0  0  0  0  0  0  0  0  0  0  0
  140.6220   78.8650  221.1550 C   0  0  2  0  0  0  0  0  0  0  0  0
  140.6780   79.1510  222.5830 C   0  0  0  0  0  0  0  0  0  0  0  0
  141.9190   78.8400  223.3140 C   0  0  0  0  0  0  0  0  0  0  0  0
  142.4530   80.1620  223.8230 C   0  0  0  0  0  0  0  0  0  0  0  0
  141.7790   81.2220  222.9900 C   0  0  0  0  0  0  0  0  0  0  0  0
  140.4030   80.6460  222.7770 C   0  0  0  0  0  0  0  0  0  0  0  0
  139.9030   71.8560  223.0030 C   0  0  0  0  0  0  0  0  0  0  0  0
  139.4430   70.5510  222.8040 C   0  0  0  0  0  0  0  0  0  0  0  0
  139.4770   69.6030  223.8060 C   0  0  0  0  0  0  0  0  0  0  0  0
  139.9900   70.0050  225.0220 C   0  0  0  0  0  0  0  0  0  0  0  0
  140.0650   69.1310  226.0840 C   0  0  0  0  0  0  0  0  0  0  0  0
  140.5830   69.5590  227.2920 C   0  0  0  0  0  0  0  0  0  0  0  0
  140.7060   68.5000  228.6740 Cl  0  0  0  0  0  0  0  0  0  0  0  0
  141.0320   70.8730  227.4530 C   0  0  0  0  0  0  0  0  0  0  0  0
  140.9560   71.7470  226.3870 C   0  0  0  0  0  0  0  0  0  0  0  0
  140.4320   71.3060  225.1700 C   0  0  0  0  0  0  0  0  0  0  0  0
  140.3900   72.2160  224.1810 N   0  0  0  0  0  0  0  0  0  0  0  0
  139.5450   74.5240  223.1510 H   0  0  0  0  0  0  0  0  0  0  0  0
  140.3486   74.8841  220.3603 H   0  0  0  0  0  0  0  0  0  0  0  0
  138.5560   75.0114  220.6286 H   0  0  0  0  0  0  0  0  0  0  0  0
  141.4118   76.3696  219.3415 H   0  0  0  0  0  0  0  0  0  0  0  0
  139.9263   77.0449  218.7081 H   0  0  0  0  0  0  0  0  0  0  0  0
  142.4536   78.2517  218.5140 H   0  0  0  0  0  0  0  0  0  0  0  0
  140.9334   79.1549  218.3700 H   0  0  0  0  0  0  0  0  0  0  0  0
  142.7473   78.8101  220.8063 H   0  0  0  0  0  0  0  0  0  0  0  0
  142.0143   80.2859  220.2466 H   0  0  0  0  0  0  0  0  0  0  0  0
  139.7764   79.5371  220.9468 H   0  0  0  0  0  0  0  0  0  0  0  0
  139.9288   78.4691  223.0115 H   0  0  0  0  0  0  0  0  0  0  0  0
  141.7064   78.1651  224.1562 H   0  0  0  0  0  0  0  0  0  0  0  0
  142.6503   78.3358  222.6652 H   0  0  0  0  0  0  0  0  0  0  0  0
  142.2028   80.2930  224.8861 H   0  0  0  0  0  0  0  0  0  0  0  0
  143.5485   80.2163  223.7403 H   0  0  0  0  0  0  0  0  0  0  0  0
  141.7297   82.1794  223.5294 H   0  0  0  0  0  0  0  0  0  0  0  0
  142.3099   81.4456  222.0529 H   0  0  0  0  0  0  0  0  0  0  0  0
  139.7624   80.8190  223.6543 H   0  0  0  0  0  0  0  0  0  0  0  0
  139.8703   81.1012  221.9290 H   0  0  0  0  0  0  0  0  0  0  0  0
  139.0417   70.2714  221.8187 H   0  0  0  0  0  0  0  0  0  0  0  0
  139.1132   68.5777  223.6434 H   0  0  0  0  0  0  0  0  0  0  0  0
  139.7135   68.0948  225.9711 H   0  0  0  0  0  0  0  0  0  0  0  0
  141.4412   71.2068  228.4180 H   0  0  0  0  0  0  0  0  0  0  0  0
  141.3060   72.7842  226.4956 H   0  0  0  0  0  0  0  0  0  0  0  0
  1  2  2  0
  2  3  1  0
  3  4  1  0
  4  5  1  0
  5  6  2  0
  5  7  1  0
  7  8  1  0
  8  9  1  0
  9 10  1  0
 10 11  1  0
 11 12  1  0
 12 13  1  0
 13 14  1  0
 14 15  1  0
 15 16  1  0
  2 17  1  0
 17 18  2  0
 18 19  1  0
 19 20  2  0
 20 21  1  0
 21 22  2  0
 22 23  1  0
 22 24  1  0
 24 25  2  0
 25 26  1  0
 26 27  2  0
 11  7  1  0
 16 12  1  0
 27 17  1  0
 26 20  1  0
  3 28  1  0
  4 29  1  0
  4 30  1  0
  8 31  1  0
  8 32  1  0
  9 33  1  0
  9 34  1  0
 10 35  1  0
 10 36  1  0
 11 37  1  6
 12 38  1  0
 13 39  1  0
 13 40  1  0
 14 41  1  0
 14 42  1  0
 15 43  1  0
 15 44  1  0
 16 45  1  0
 16 46  1  0
 18 47  1  0
 19 48  1  0
 21 49  1  0
 24 50  1  0
 25 51  1  0
M  END
>  <smiles>  (44) 
O=C(NCC(=O)N1CCCC1C1CCCC1)c1ccc2cc(Cl)ccc2n1

>  <score_type>  (44) 
oracle

>  <origin>  (44) 
autodockgpu

>  <m_score__min__energy>  (44) 
-8.7400000000000002

>  <m_primary>  (44) 
energy

>  <rmsd>  (44) 
2.184709198080548

>  <m_score__min__rmsd>  (44) 
2.184709198080548

>  <meeko>  (44) 
{"free_energy": -8.5, "intermolecular_energy": -10.0, "internal_energy": -1.75, "cluster_size": 38, "cluster_id": 1, "rank_in_cluster": 15}

>  <energy>  (44) 
-8.33

>  <cluster_rmsd>  (44) 
0.09

>  <cluster>  (44) 
3

$$$$

     RDKit          3D

 51 54  0  0  0  0  0  0  0  0999 V2000
  139.4540   73.0060  220.4080 O   0  0  0  0  0  0  0  0  0  0  0  0
  139.5200   73.2340  221.6640 C   0  0  0  0  0  0  0  0  0  0  0  0
  139.5240   74.5520  222.1710 N   0  0  0  0  0  0  0  0  0  0  0  0
  139.4540   75.6580  221.2730 C   0  0  0  0  0  0  0  0  0  0  0  0
  140.5190   76.6750  221.5410 C   0  0  0  0  0  0  0  0  0  0  0  0
  141.3420   76.3690  222.4530 O   0  0  0  0  0  0  0  0  0  0  0  0
  140.5860   77.8950  220.8130 N   0  0  0  0  0  0  0  0  0  0  0  0
  140.3130   77.9740  219.3930 C   0  0  0  0  0  0  0  0  0  0  0  0
  140.6970   79.3910  219.0530 C   0  0  0  0  0  0  0  0  0  0  0  0
  141.5490   79.8910  220.2000 C   0  0  0  0  0  0  0  0  0  0  0  0
  140.9230   79.1890  221.3600 C   0  0  2  0  0  0  0  0  0  0  0  0
  141.6470   79.2200  222.6250 C   0  0  0  0  0  0  0  0  0  0  0  0
  142.9040   79.9860  222.6950 C   0  0  0  0  0  0  0  0  0  0  0  0
  142.6690   81.0940  223.6990 C   0  0  0  0  0  0  0  0  0  0  0  0
  141.1720   81.2230  223.8220 C   0  0  0  0  0  0  0  0  0  0  0  0
  140.7090   79.7950  223.6910 C   0  0  0  0  0  0  0  0  0  0  0  0
  139.5940   72.1210  222.6220 C   0  0  0  0  0  0  0  0  0  0  0  0
  138.9440   70.9280  222.2930 C   0  0  0  0  0  0  0  0  0  0  0  0
  138.9590   69.8310  223.1300 C   0  0  0  0  0  0  0  0  0  0  0  0
  139.6520   69.9670  224.3150 C   0  0  0  0  0  0  0  0  0  0  0  0
  139.7240   68.9280  225.2170 C   0  0  0  0  0  0  0  0  0  0  0  0
  140.4250   69.0890  226.3980 C   0  0  0  0  0  0  0  0  0  0  0  0
  140.5550   67.8110  227.5800 Cl  0  0  0  0  0  0  0  0  0  0  0  0
  141.0620   70.2980  226.6920 C   0  0  0  0  0  0  0  0  0  0  0  0
  140.9880   71.3380  225.7870 C   0  0  0  0  0  0  0  0  0  0  0  0
  140.2780   71.1650  224.5960 C   0  0  0  0  0  0  0  0  0  0  0  0
  140.2520   72.2240  223.7680 N   0  0  0  0  0  0  0  0  0  0  0  0
  139.5790   74.7510  223.2130 H   0  0  0  0  0  0  0  0  0  0  0  0
  139.5705   75.2864  220.2442 H   0  0  0  0  0  0  0  0  0  0  0  0
  138.4786   76.1462  221.4155 H   0  0  0  0  0  0  0  0  0  0  0  0
  140.9254   77.2528  218.8318 H   0  0  0  0  0  0  0  0  0  0  0  0
  139.2703   77.7340  219.1378 H   0  0  0  0  0  0  0  0  0  0  0  0
  141.2706   79.4148  218.1147 H   0  0  0  0  0  0  0  0  0  0  0  0
  139.8071   80.0222  218.9131 H   0  0  0  0  0  0  0  0  0  0  0  0
  142.6026   79.6007  220.0749 H   0  0  0  0  0  0  0  0  0  0  0  0
  141.5739   80.9864  220.2974 H   0  0  0  0  0  0  0  0  0  0  0  0
  140.0333   79.7161  221.7350 H   0  0  0  0  0  0  0  0  0  0  0  0
  141.9533   78.1741  222.7738 H   0  0  0  0  0  0  0  0  0  0  0  0
  143.7275   79.3375  223.0288 H   0  0  0  0  0  0  0  0  0  0  0  0
  143.1821   80.3901  221.7104 H   0  0  0  0  0  0  0  0  0  0  0  0
  143.1124   80.8313  224.6708 H   0  0  0  0  0  0  0  0  0  0  0  0
  143.1326   82.0382  223.3772 H   0  0  0  0  0  0  0  0  0  0  0  0
  140.8883   81.6448  224.7975 H   0  0  0  0  0  0  0  0  0  0  0  0
  140.7275   81.8980  223.0758 H   0  0  0  0  0  0  0  0  0  0  0  0
  140.8172   79.2561  224.6439 H   0  0  0  0  0  0  0  0  0  0  0  0
  139.6458   79.7089  223.4222 H   0  0  0  0  0  0  0  0  0  0  0  0
  138.4037   70.8616  221.3371 H   0  0  0  0  0  0  0  0  0  0  0  0
  138.4444   68.8954  222.8657 H   0  0  0  0  0  0  0  0  0  0  0  0
  139.2249   67.9725  224.9981 H   0  0  0  0  0  0  0  0  0  0  0  0
  141.6163   70.4195  227.6343 H   0  0  0  0  0  0  0  0  0  0  0  0
  141.4844   72.2958  226.0020 H   0  0  0  0  0  0  0  0  0  0  0  0
  1  2  2  0
  2  3  1  0
  3  4  1  0
  4  5  1  0
  5  6  2  0
  5  7  1  0
  7  8  1  0
  8  9  1  0
  9 10  1  0
 10 11  1  0
 11 12  1  0
 12 13  1  0
 13 14  1  0
 14 15  1  0
 15 16  1  0
  2 17  1  0
 17 18  2  0
 18 19  1  0
 19 20  2  0
 20 21  1  0
 21 22  2  0
 22 23  1  0
 22 24  1  0
 24 25  2  0
 25 26  1  0
 26 27  2  0
 11  7  1  0
 16 12  1  0
 27 17  1  0
 26 20  1  0
  3 28  1  0
  4 29  1  0
  4 30  1  0
  8 31  1  0
  8 32  1  0
  9 33  1  0
  9 34  1  0
 10 35  1  0
 10 36  1  0
 11 37  1  1
 12 38  1  0
 13 39  1  0
 13 40  1  0
 14 41  1  0
 14 42  1  0
 15 43  1  0
 15 44  1  0
 16 45  1  0
 16 46  1  0
 18 47  1  0
 19 48  1  0
 21 49  1  0
 24 50  1  0
 25 51  1  0
M  END
>  <smiles>  (45) 
O=C(NCC(=O)N1CCCC1C1CCCC1)c1ccc2cc(Cl)ccc2n1

>  <score_type>  (45) 
oracle

>  <origin>  (45) 
autodockgpu

>  <m_score__min__energy>  (45) 
-8.7400000000000002

>  <m_primary>  (45) 
energy

>  <rmsd>  (45) 
2.4971753950424698

>  <m_score__min__rmsd>  (45) 
2.4971753950424698

>  <meeko>  (45) 
{"free_energy": -7.81, "intermolecular_energy": -9.3, "internal_energy": -1.56, "cluster_size": 38, "cluster_id": 1, "rank_in_cluster": 36}

>  <energy>  (45) 
-7.87

>  <cluster_rmsd>  (45) 
0.0

>  <cluster>  (45) 
4

$$$$

     RDKit          3D

 51 54  0  0  0  0  0  0  0  0999 V2000
  140.2120   72.3770  220.7100 O   0  0  0  0  0  0  0  0  0  0  0  0
  139.9950   72.7860  221.9020 C   0  0  0  0  0  0  0  0  0  0  0  0
  139.7080   74.1430  222.1700 N   0  0  0  0  0  0  0  0  0  0  0  0
  139.6590   75.0830  221.0990 C   0  0  0  0  0  0  0  0  0  0  0  0
  139.8010   76.4950  221.5750 C   0  0  0  0  0  0  0  0  0  0  0  0
  139.3620   76.7190  222.7410 O   0  0  0  0  0  0  0  0  0  0  0  0
  140.3900   77.5020  220.7610 N   0  0  0  0  0  0  0  0  0  0  0  0
  140.8330   77.2500  219.4050 C   0  0  0  0  0  0  0  0  0  0  0  0
  141.5450   78.5280  219.0400 C   0  0  0  0  0  0  0  0  0  0  0  0
  141.8230   79.2500  220.3410 C   0  0  0  0  0  0  0  0  0  0  0  0
  140.6250   78.8730  221.1500 C   0  0  2  0  0  0  0  0  0  0  0  0
  140.6650   79.1750  222.5750 C   0  0  0  0  0  0  0  0  0  0  0  0
  141.8850   78.8410  223.3300 C   0  0  0  0  0  0  0  0  0  0  0  0
  142.4440   80.1550  223.8330 C   0  0  0  0  0  0  0  0  0  0  0  0
  141.8120   81.2210  222.9750 C   0  0  0  0  0  0  0  0  0  0  0  0
  140.4260   80.6790  222.7450 C   0  0  0  0  0  0  0  0  0  0  0  0
  140.0370   71.8480  223.0340 C   0  0  0  0  0  0  0  0  0  0  0  0
  139.5620   70.5500  222.8270 C   0  0  0  0  0  0  0  0  0  0  0  0
  139.5620   69.6020  223.8300 C   0  0  0  0  0  0  0  0  0  0  0  0
  140.0580   69.9980  225.0550 C   0  0  0  0  0  0  0  0  0  0  0  0
  140.1000   69.1240  226.1190 C   0  0  0  0  0  0  0  0  0  0  0  0
  140.6010   69.5460  227.3370 C   0  0  0  0  0  0  0  0  0  0  0  0
  140.6820   68.4860  228.7220 Cl  0  0  0  0  0  0  0  0  0  0  0  0
  141.0680   70.8530  227.5050 C   0  0  0  0  0  0  0  0  0  0  0  0
  141.0250   71.7270  226.4370 C   0  0  0  0  0  0  0  0  0  0  0  0
  140.5170   71.2920  225.2110 C   0  0  0  0  0  0  0  0  0  0  0  0
  140.5080   72.2020  224.2210 N   0  0  0  0  0  0  0  0  0  0  0  0
  139.5270   74.4930  223.1570 H   0  0  0  0  0  0  0  0  0  0  0  0
  140.4768   74.8624  220.3972 H   0  0  0  0  0  0  0  0  0  0  0  0
  138.6764   74.9889  220.6136 H   0  0  0  0  0  0  0  0  0  0  0  0
  141.5181   76.3903  219.3658 H   0  0  0  0  0  0  0  0  0  0  0  0
  140.0105   76.9999  218.7188 H   0  0  0  0  0  0  0  0  0  0  0  0
  142.4883   78.3028  218.5209 H   0  0  0  0  0  0  0  0  0  0  0  0
  140.9345   79.1452  218.3644 H   0  0  0  0  0  0  0  0  0  0  0  0
  142.7526   78.8930  220.8084 H   0  0  0  0  0  0  0  0  0  0  0  0
  141.9677   80.3349  220.2309 H   0  0  0  0  0  0  0  0  0  0  0  0
  139.7560   79.5112  220.9322 H   0  0  0  0  0  0  0  0  0  0  0  0
  139.8917   78.5183  223.0001 H   0  0  0  0  0  0  0  0  0  0  0  0
  141.6412   78.1816  224.1760 H   0  0  0  0  0  0  0  0  0  0  0  0
  142.6138   78.3107  222.6994 H   0  0  0  0  0  0  0  0  0  0  0  0
  142.1784   80.3056  224.8898 H   0  0  0  0  0  0  0  0  0  0  0  0
  143.5419   80.1804  223.7698 H   0  0  0  0  0  0  0  0  0  0  0  0
  141.7785   82.1863  223.5014 H   0  0  0  0  0  0  0  0  0  0  0  0
  142.3646   81.4181  222.0445 H   0  0  0  0  0  0  0  0  0  0  0  0
  139.7749   80.8803  223.6085 H   0  0  0  0  0  0  0  0  0  0  0  0
  139.9203   81.1368  221.8820 H   0  0  0  0  0  0  0  0  0  0  0  0
  139.1763   70.2755  221.8341 H   0  0  0  0  0  0  0  0  0  0  0  0
  139.1856   68.5823  223.6613 H   0  0  0  0  0  0  0  0  0  0  0  0
  139.7359   68.0928  226.0001 H   0  0  0  0  0  0  0  0  0  0  0  0
  141.4651   71.1813  228.4769 H   0  0  0  0  0  0  0  0  0  0  0  0
  141.3884   72.7590  226.5510 H   0  0  0  0  0  0  0  0  0  0  0  0
  1  2  2  0
  2  3  1  0
  3  4  1  0
  4  5  1  0
  5  6  2  0
  5  7  1  0
  7  8  1  0
  8  9  1  0
  9 10  1  0
 10 11  1  0
 11 12  1  0
 12 13  1  0
 13 14  1  0
 14 15  1  0
 15 16  1  0
  2 17  1  0
 17 18  2  0
 18 19  1  0
 19 20  2  0
 20 21  1  0
 21 22  2  0
 22 23  1  0
 22 24  1  0
 24 25  2  0
 25 26  1  0
 26 27  2  0
 11  7  1  0
 16 12  1  0
 27 17  1  0
 26 20  1  0
  3 28  1  0
  4 29  1  0
  4 30  1  0
  8 31  1  0
  8 32  1  0
  9 33  1  0
  9 34  1  0
 10 35  1  0
 10 36  1  0
 11 37  1  6
 12 38  1  0
 13 39  1  0
 13 40  1  0
 14 41  1  0
 14 42  1  0
 15 43  1  0
 15 44  1  0
 16 45  1  0
 16 46  1  0
 18 47  1  0
 19 48  1  0
 21 49  1  0
 24 50  1  0
 25 51  1  0
M  END
>  <smiles>  (46) 
O=C(NCC(=O)N1CCCC1C1CCCC1)c1ccc2cc(Cl)ccc2n1

>  <score_type>  (46) 
oracle

>  <origin>  (46) 
autodockgpu

>  <m_score__min__energy>  (46) 
-8.7400000000000002

>  <m_primary>  (46) 
energy

>  <rmsd>  (46) 
2.2095662050420226

>  <m_score__min__rmsd>  (46) 
2.2095662050420226

>  <meeko>  (46) 
{"free_energy": -8.55, "intermolecular_energy": -10.04, "internal_energy": -1.75, "cluster_size": 38, "cluster_id": 1, "rank_in_cluster": 8}

>  <energy>  (46) 
-7.84

>  <cluster_rmsd>  (46) 
0.1

>  <cluster>  (46) 
4

$$$$

     RDKit          3D

 51 54  0  0  0  0  0  0  0  0999 V2000
  135.0000   68.5110  225.0340 O   0  0  0  0  0  0  0  0  0  0  0  0
  135.3140   69.7190  224.7550 C   0  0  0  0  0  0  0  0  0  0  0  0
  136.3510   70.0140  223.8420 N   0  0  0  0  0  0  0  0  0  0  0  0
  137.0680   68.9520  223.2150 C   0  0  0  0  0  0  0  0  0  0  0  0
  138.4240   68.7510  223.8170 C   0  0  0  0  0  0  0  0  0  0  0  0
  138.8200   67.5500  223.8690 O   0  0  0  0  0  0  0  0  0  0  0  0
  139.1990   69.8450  224.2920 N   0  0  0  0  0  0  0  0  0  0  0  0
  139.8040   70.8180  223.4060 C   0  0  0  0  0  0  0  0  0  0  0  0
  140.6600   71.6370  224.3380 C   0  0  0  0  0  0  0  0  0  0  0  0
  140.8110   70.8250  225.6060 C   0  0  0  0  0  0  0  0  0  0  0  0
  139.4870   70.1380  225.6770 C   0  0  2  0  0  0  0  0  0  0  0  0
  139.3520   69.0530  226.6410 C   0  0  0  0  0  0  0  0  0  0  0  0
  140.2400   67.8850  226.5110 C   0  0  0  0  0  0  0  0  0  0  0  0
  141.0810   67.8510  227.7690 C   0  0  0  0  0  0  0  0  0  0  0  0
  140.9920   69.2370  228.3560 C   0  0  0  0  0  0  0  0  0  0  0  0
  139.5740   69.6360  228.0410 C   0  0  0  0  0  0  0  0  0  0  0  0
  134.5990   70.8410  225.3800 C   0  0  0  0  0  0  0  0  0  0  0  0
  133.5720   70.5430  226.2810 C   0  0  0  0  0  0  0  0  0  0  0  0
  132.8460   71.5310  226.9150 C   0  0  0  0  0  0  0  0  0  0  0  0
  133.1840   72.8350  226.6170 C   0  0  0  0  0  0  0  0  0  0  0  0
  132.5170   73.8910  227.1990 C   0  0  0  0  0  0  0  0  0  0  0  0
  132.8750   75.1880  226.8840 C   0  0  0  0  0  0  0  0  0  0  0  0
  132.0690   76.5680  227.5880 Cl  0  0  0  0  0  0  0  0  0  0  0  0
  133.9070   75.4460  225.9770 C   0  0  0  0  0  0  0  0  0  0  0  0
  134.5740   74.3860  225.3950 C   0  0  0  0  0  0  0  0  0  0  0  0
  134.2060   73.0790  225.7200 C   0  0  0  0  0  0  0  0  0  0  0  0
  134.9020   72.1030  225.1110 N   0  0  0  0  0  0  0  0  0  0  0  0
  136.6190   71.0130  223.6030 H   0  0  0  0  0  0  0  0  0  0  0  0
  136.4907   68.0221  223.3244 H   0  0  0  0  0  0  0  0  0  0  0  0
  137.2050   69.2166  222.1561 H   0  0  0  0  0  0  0  0  0  0  0  0
  140.4165   70.3253  222.6365 H   0  0  0  0  0  0  0  0  0  0  0  0
  139.0670   71.4188  222.8530 H   0  0  0  0  0  0  0  0  0  0  0  0
  141.6454   71.8220  223.8854 H   0  0  0  0  0  0  0  0  0  0  0  0
  140.2011   72.6153  224.5439 H   0  0  0  0  0  0  0  0  0  0  0  0
  141.6356   70.1015  225.5244 H   0  0  0  0  0  0  0  0  0  0  0  0
  141.0548   71.4234  226.4962 H   0  0  0  0  0  0  0  0  0  0  0  0
  138.7106   70.7740  226.1273 H   0  0  0  0  0  0  0  0  0  0  0  0
  138.3453   68.6555  226.4447 H   0  0  0  0  0  0  0  0  0  0  0  0
  139.6467   66.9628  226.4241 H   0  0  0  0  0  0  0  0  0  0  0  0
  140.8683   67.9577  225.6110 H   0  0  0  0  0  0  0  0  0  0  0  0
  140.6833   67.1085  228.4764 H   0  0  0  0  0  0  0  0  0  0  0  0
  142.1217   67.5667  227.5544 H   0  0  0  0  0  0  0  0  0  0  0  0
  141.1682   69.2206  229.4417 H   0  0  0  0  0  0  0  0  0  0  0  0
  141.7425   69.9325  227.9522 H   0  0  0  0  0  0  0  0  0  0  0  0
  138.8708   69.2005  228.7662 H   0  0  0  0  0  0  0  0  0  0  0  0
  139.4099   70.7227  228.0880 H   0  0  0  0  0  0  0  0  0  0  0  0
  133.3356   69.4894  226.4909 H   0  0  0  0  0  0  0  0  0  0  0  0
  132.0385   71.2908  227.6223 H   0  0  0  0  0  0  0  0  0  0  0  0
  131.7015   73.7020  227.9126 H   0  0  0  0  0  0  0  0  0  0  0  0
  134.1845   76.4813  225.7298 H   0  0  0  0  0  0  0  0  0  0  0  0
  135.3896   74.5702  224.6803 H   0  0  0  0  0  0  0  0  0  0  0  0
  1  2  2  0
  2  3  1  0
  3  4  1  0
  4  5  1  0
  5  6  2  0
  5  7  1  0
  7  8  1  0
  8  9  1  0
  9 10  1  0
 10 11  1  0
 11 12  1  0
 12 13  1  0
 13 14  1  0
 14 15  1  0
 15 16  1  0
  2 17  1  0
 17 18  2  0
 18 19  1  0
 19 20  2  0
 20 21  1  0
 21 22  2  0
 22 23  1  0
 22 24  1  0
 24 25  2  0
 25 26  1  0
 26 27  2  0
 11  7  1  0
 16 12  1  0
 27 17  1  0
 26 20  1  0
  3 28  1  0
  4 29  1  0
  4 30  1  0
  8 31  1  0
  8 32  1  0
  9 33  1  0
  9 34  1  0
 10 35  1  0
 10 36  1  0
 11 37  1  1
 12 38  1  0
 13 39  1  0
 13 40  1  0
 14 41  1  0
 14 42  1  0
 15 43  1  0
 15 44  1  0
 16 45  1  0
 16 46  1  0
 18 47  1  0
 19 48  1  0
 21 49  1  0
 24 50  1  0
 25 51  1  0
M  END
>  <smiles>  (47) 
O=C(NCC(=O)N1CCCC1C1CCCC1)c1ccc2cc(Cl)ccc2n1

>  <score_type>  (47) 
oracle

>  <origin>  (47) 
autodockgpu

>  <m_score__min__energy>  (47) 
-8.7400000000000002

>  <m_primary>  (47) 
energy

>  <rmsd>  (47) 
7.540294769422376

>  <m_score__min__rmsd>  (47) 
7.540294769422376

>  <meeko>  (47) 
{"free_energy": -8.33, "intermolecular_energy": -9.82, "internal_energy": -1.76, "cluster_size": 4, "cluster_id": 3, "rank_in_cluster": 2}

>  <energy>  (47) 
-7.63

>  <cluster_rmsd>  (47) 
0.77

>  <cluster>  (47) 
4

$$$$

     RDKit          3D

 51 54  0  0  0  0  0  0  0  0999 V2000
  140.7360   72.7430  221.1720 O   0  0  0  0  0  0  0  0  0  0  0  0
  139.9260   72.8010  222.1600 C   0  0  0  0  0  0  0  0  0  0  0  0
  138.9490   73.8190  222.2480 N   0  0  0  0  0  0  0  0  0  0  0  0
  138.8580   74.8050  221.2220 C   0  0  0  0  0  0  0  0  0  0  0  0
  139.3620   76.1410  221.6730 C   0  0  0  0  0  0  0  0  0  0  0  0
  138.9030   76.5460  222.7810 O   0  0  0  0  0  0  0  0  0  0  0  0
  140.2910   76.8890  220.8980 N   0  0  0  0  0  0  0  0  0  0  0  0
  140.8830   76.3770  219.6800 C   0  0  0  0  0  0  0  0  0  0  0  0
  141.9180   77.4200  219.3420 C   0  0  0  0  0  0  0  0  0  0  0  0
  142.1320   78.2330  220.6010 C   0  0  0  0  0  0  0  0  0  0  0  0
  140.7630   78.2200  221.1980 C   0  0  2  0  0  0  0  0  0  0  0  0
  140.6330   78.6910  222.5710 C   0  0  0  0  0  0  0  0  0  0  0  0
  141.7950   78.5700  223.4680 C   0  0  0  0  0  0  0  0  0  0  0  0
  142.1870   79.9830  223.8470 C   0  0  0  0  0  0  0  0  0  0  0  0
  141.5550   80.8730  222.8080 C   0  0  0  0  0  0  0  0  0  0  0  0
  140.2500   80.1750  222.5270 C   0  0  0  0  0  0  0  0  0  0  0  0
  139.9890   71.8030  223.2370 C   0  0  0  0  0  0  0  0  0  0  0  0
  139.5310   70.5110  222.9610 C   0  0  0  0  0  0  0  0  0  0  0  0
  139.5510   69.5100  223.9100 C   0  0  0  0  0  0  0  0  0  0  0  0
  140.0490   69.8450  225.1530 C   0  0  0  0  0  0  0  0  0  0  0  0
  140.1090   68.9140  226.1660 C   0  0  0  0  0  0  0  0  0  0  0  0
  140.6120   69.2740  227.4030 C   0  0  0  0  0  0  0  0  0  0  0  0
  140.7170   68.1410  228.7260 Cl  0  0  0  0  0  0  0  0  0  0  0  0
  141.0600   70.5770  227.6410 C   0  0  0  0  0  0  0  0  0  0  0  0
  140.9980   71.5080  226.6230 C   0  0  0  0  0  0  0  0  0  0  0  0
  140.4890   71.1340  225.3770 C   0  0  0  0  0  0  0  0  0  0  0  0
  140.4610   72.0980  224.4400 N   0  0  0  0  0  0  0  0  0  0  0  0
  138.2720   73.8750  223.0640 H   0  0  0  0  0  0  0  0  0  0  0  0
  139.4550   74.4743  220.3593 H   0  0  0  0  0  0  0  0  0  0  0  0
  137.7966   74.9175  220.9559 H   0  0  0  0  0  0  0  0  0  0  0  0
  141.3509   75.3961  219.8497 H   0  0  0  0  0  0  0  0  0  0  0  0
  140.1500   76.2168  218.8756 H   0  0  0  0  0  0  0  0  0  0  0  0
  142.8582   76.9379  219.0360 H   0  0  0  0  0  0  0  0  0  0  0  0
  141.5860   78.0559  218.5081 H   0  0  0  0  0  0  0  0  0  0  0  0
  142.8659   77.7564  221.2675 H   0  0  0  0  0  0  0  0  0  0  0  0
  142.5344   79.2410  220.4218 H   0  0  0  0  0  0  0  0  0  0  0  0
  140.1099   78.9900  220.7613 H   0  0  0  0  0  0  0  0  0  0  0  0
  139.8798   78.0167  223.0047 H   0  0  0  0  0  0  0  0  0  0  0  0
  141.5248   77.9956  224.3663 H   0  0  0  0  0  0  0  0  0  0  0  0
  142.6260   78.0420  222.9775 H   0  0  0  0  0  0  0  0  0  0  0  0
  141.8056   80.2315  224.8484 H   0  0  0  0  0  0  0  0  0  0  0  0
  143.2795   80.1071  223.8783 H   0  0  0  0  0  0  0  0  0  0  0  0
  141.3866   81.8860  223.2023 H   0  0  0  0  0  0  0  0  0  0  0  0
  142.1788   81.0113  221.9126 H   0  0  0  0  0  0  0  0  0  0  0  0
  139.5013   80.4126  223.2970 H   0  0  0  0  0  0  0  0  0  0  0  0
  139.7955   80.4762  221.5716 H   0  0  0  0  0  0  0  0  0  0  0  0
  139.1430   70.2860  221.9566 H   0  0  0  0  0  0  0  0  0  0  0  0
  139.1883   68.4957  223.6873 H   0  0  0  0  0  0  0  0  0  0  0  0
  139.7576   67.8863  225.9917 H   0  0  0  0  0  0  0  0  0  0  0  0
  141.4572   70.8572  228.6278 H   0  0  0  0  0  0  0  0  0  0  0  0
  141.3471   72.5373  226.7921 H   0  0  0  0  0  0  0  0  0  0  0  0
  1  2  2  0
  2  3  1  0
  3  4  1  0
  4  5  1  0
  5  6  2  0
  5  7  1  0
  7  8  1  0
  8  9  1  0
  9 10  1  0
 10 11  1  0
 11 12  1  0
 12 13  1  0
 13 14  1  0
 14 15  1  0
 15 16  1  0
  2 17  1  0
 17 18  2  0
 18 19  1  0
 19 20  2  0
 20 21  1  0
 21 22  2  0
 22 23  1  0
 22 24  1  0
 24 25  2  0
 25 26  1  0
 26 27  2  0
 11  7  1  0
 16 12  1  0
 27 17  1  0
 26 20  1  0
  3 28  1  0
  4 29  1  0
  4 30  1  0
  8 31  1  0
  8 32  1  0
  9 33  1  0
  9 34  1  0
 10 35  1  0
 10 36  1  0
 11 37  1  6
 12 38  1  0
 13 39  1  0
 13 40  1  0
 14 41  1  0
 14 42  1  0
 15 43  1  0
 15 44  1  0
 16 45  1  0
 16 46  1  0
 18 47  1  0
 19 48  1  0
 21 49  1  0
 24 50  1  0
 25 51  1  0
M  END
>  <smiles>  (48) 
O=C(NCC(=O)N1CCCC1C1CCCC1)c1ccc2cc(Cl)ccc2n1

>  <score_type>  (48) 
oracle

>  <origin>  (48) 
autodockgpu

>  <m_score__min__energy>  (48) 
-8.7400000000000002

>  <m_primary>  (48) 
energy

>  <rmsd>  (48) 
1.9596988055664735

>  <m_score__min__rmsd>  (48) 
1.9596988055664735

>  <meeko>  (48) 
{"free_energy": -8.42, "intermolecular_energy": -9.91, "internal_energy": -1.32, "cluster_size": 38, "cluster_id": 1, "rank_in_cluster": 23}

>  <energy>  (48) 
-7.59

>  <cluster_rmsd>  (48) 
0.45

>  <cluster>  (48) 
4

$$$$

     RDKit          3D

 51 54  0  0  0  0  0  0  0  0999 V2000
  140.0650   72.2160  220.6880 O   0  0  0  0  0  0  0  0  0  0  0  0
  139.9040   72.6260  221.8880 C   0  0  0  0  0  0  0  0  0  0  0  0
  139.6610   73.9900  222.1700 N   0  0  0  0  0  0  0  0  0  0  0  0
  139.5950   74.9340  221.1030 C   0  0  0  0  0  0  0  0  0  0  0  0
  139.8140   76.3380  221.5740 C   0  0  0  0  0  0  0  0  0  0  0  0
  139.5280   76.5520  222.7880 O   0  0  0  0  0  0  0  0  0  0  0  0
  140.3090   77.3480  220.7030 N   0  0  0  0  0  0  0  0  0  0  0  0
  140.3130   77.2040  219.2620 C   0  0  0  0  0  0  0  0  0  0  0  0
  141.0920   78.4110  218.8040 C   0  0  0  0  0  0  0  0  0  0  0  0
  141.8310   78.9300  220.0200 C   0  0  0  0  0  0  0  0  0  0  0  0
  140.8590   78.6190  221.1110 C   0  0  2  0  0  0  0  0  0  0  0  0
  141.3390   78.7410  222.4810 C   0  0  0  0  0  0  0  0  0  0  0  0
  142.6270   79.4170  222.7180 C   0  0  0  0  0  0  0  0  0  0  0  0
  142.3140   80.6450  223.5450 C   0  0  0  0  0  0  0  0  0  0  0  0
  140.8390   80.8950  223.3650 C   0  0  0  0  0  0  0  0  0  0  0  0
  140.2770   79.4990  223.2870 C   0  0  0  0  0  0  0  0  0  0  0  0
  139.9660   71.6840  223.0150 C   0  0  0  0  0  0  0  0  0  0  0  0
  139.4880   70.3860  222.8110 C   0  0  0  0  0  0  0  0  0  0  0  0
  139.5070   69.4350  223.8100 C   0  0  0  0  0  0  0  0  0  0  0  0
  140.0220   69.8270  225.0290 C   0  0  0  0  0  0  0  0  0  0  0  0
  140.0820   68.9480  226.0880 C   0  0  0  0  0  0  0  0  0  0  0  0
  140.6030   69.3650  227.2990 C   0  0  0  0  0  0  0  0  0  0  0  0
  140.7080   68.3000  228.6780 Cl  0  0  0  0  0  0  0  0  0  0  0  0
  141.0710   70.6720  227.4650 C   0  0  0  0  0  0  0  0  0  0  0  0
  141.0090   71.5510  226.4010 C   0  0  0  0  0  0  0  0  0  0  0  0
  140.4820   71.1200  225.1820 C   0  0  0  0  0  0  0  0  0  0  0  0
  140.4550   72.0340  224.1960 N   0  0  0  0  0  0  0  0  0  0  0  0
  139.5260   74.3400  223.1630 H   0  0  0  0  0  0  0  0  0  0  0  0
  140.3683   74.6847  220.3615 H   0  0  0  0  0  0  0  0  0  0  0  0
  138.5872   74.8785  220.6656 H   0  0  0  0  0  0  0  0  0  0  0  0
  140.8129   76.2722  218.9589 H   0  0  0  0  0  0  0  0  0  0  0  0
  139.3035   77.1489  218.8285 H   0  0  0  0  0  0  0  0  0  0  0  0
  141.8064   78.1266  218.0174 H   0  0  0  0  0  0  0  0  0  0  0  0
  140.4262   79.1794  218.3841 H   0  0  0  0  0  0  0  0  0  0  0  0
  142.7841   78.4011  220.1676 H   0  0  0  0  0  0  0  0  0  0  0  0
  142.1110   79.9919  219.9566 H   0  0  0  0  0  0  0  0  0  0  0  0
  140.0771   79.3869  221.2055 H   0  0  0  0  0  0  0  0  0  0  0  0
  141.5165   77.6990  222.7856 H   0  0  0  0  0  0  0  0  0  0  0  0
  143.3111   78.7525  223.2661 H   0  0  0  0  0  0  0  0  0  0  0  0
  143.1184   79.6861  221.7714 H   0  0  0  0  0  0  0  0  0  0  0  0
  142.5452   80.4624  224.6048 H   0  0  0  0  0  0  0  0  0  0  0  0
  142.9135   81.5109  223.2276 H   0  0  0  0  0  0  0  0  0  0  0  0
  140.4217   81.4439  224.2220 H   0  0  0  0  0  0  0  0  0  0  0  0
  140.6036   81.5116  222.4850 H   0  0  0  0  0  0  0  0  0  0  0  0
  140.1582   79.0645  224.2905 H   0  0  0  0  0  0  0  0  0  0  0  0
  139.2775   79.4602  222.8292 H   0  0  0  0  0  0  0  0  0  0  0  0
  139.0847   70.1150  221.8242 H   0  0  0  0  0  0  0  0  0  0  0  0
  139.1304   68.4150  223.6434 H   0  0  0  0  0  0  0  0  0  0  0  0
  139.7164   67.9172  225.9705 H   0  0  0  0  0  0  0  0  0  0  0  0
  141.4838   70.9966  228.4316 H   0  0  0  0  0  0  0  0  0  0  0  0
  141.3723   72.5832  226.5134 H   0  0  0  0  0  0  0  0  0  0  0  0
  1  2  2  0
  2  3  1  0
  3  4  1  0
  4  5  1  0
  5  6  2  0
  5  7  1  0
  7  8  1  0
  8  9  1  0
  9 10  1  0
 10 11  1  0
 11 12  1  0
 12 13  1  0
 13 14  1  0
 14 15  1  0
 15 16  1  0
  2 17  1  0
 17 18  2  0
 18 19  1  0
 19 20  2  0
 20 21  1  0
 21 22  2  0
 22 23  1  0
 22 24  1  0
 24 25  2  0
 25 26  1  0
 26 27  2  0
 11  7  1  0
 16 12  1  0
 27 17  1  0
 26 20  1  0
  3 28  1  0
  4 29  1  0
  4 30  1  0
  8 31  1  0
  8 32  1  0
  9 33  1  0
  9 34  1  0
 10 35  1  0
 10 36  1  0
 11 37  1  1
 12 38  1  0
 13 39  1  0
 13 40  1  0
 14 41  1  0
 14 42  1  0
 15 43  1  0
 15 44  1  0
 16 45  1  0
 16 46  1  0
 18 47  1  0
 19 48  1  0
 21 49  1  0
 24 50  1  0
 25 51  1  0
M  END
>  <smiles>  (49) 
O=C(NCC(=O)N1CCCC1C1CCCC1)c1ccc2cc(Cl)ccc2n1

>  <score_type>  (49) 
oracle

>  <origin>  (49) 
autodockgpu

>  <m_score__min__energy>  (49) 
-8.7400000000000002

>  <m_primary>  (49) 
energy

>  <rmsd>  (49) 
1.9661179206743737

>  <m_score__min__rmsd>  (49) 
1.9661179206743737

>  <meeko>  (49) 
{"free_energy": -8.47, "intermolecular_energy": -9.96, "internal_energy": -1.82, "cluster_size": 38, "cluster_id": 1, "rank_in_cluster": 17}

>  <energy>  (49) 
-7.41

>  <cluster_rmsd>  (49) 
0.0

>  <cluster>  (49) 
5

$$$$

     RDKit          3D

 51 54  0  0  0  0  0  0  0  0999 V2000
  140.9300   72.7430  220.9720 O   0  0  0  0  0  0  0  0  0  0  0  0
  140.2150   73.0460  221.9870 C   0  0  0  0  0  0  0  0  0  0  0  0
  139.5460   74.2880  222.0680 N   0  0  0  0  0  0  0  0  0  0  0  0
  139.6640   75.2280  221.0020 C   0  0  0  0  0  0  0  0  0  0  0  0
  139.6650   76.6430  221.4910 C   0  0  0  0  0  0  0  0  0  0  0  0
  139.1750   76.8170  222.6450 O   0  0  0  0  0  0  0  0  0  0  0  0
  140.1830   77.7060  220.7000 N   0  0  0  0  0  0  0  0  0  0  0  0
  140.1140   77.7090  219.2530 C   0  0  0  0  0  0  0  0  0  0  0  0
  140.9470   78.9090  218.8780 C   0  0  0  0  0  0  0  0  0  0  0  0
  141.7700   79.2580  220.1000 C   0  0  0  0  0  0  0  0  0  0  0  0
  140.8300   78.8960  221.2020 C   0  0  2  0  0  0  0  0  0  0  0  0
  141.3770   78.8500  222.5520 C   0  0  0  0  0  0  0  0  0  0  0  0
  142.7150   79.4190  222.7880 C   0  0  0  0  0  0  0  0  0  0  0  0
  142.5200   80.5750  223.7460 C   0  0  0  0  0  0  0  0  0  0  0  0
  141.0580   80.9290  223.6660 C   0  0  0  0  0  0  0  0  0  0  0  0
  140.4040   79.5850  223.4810 C   0  0  0  0  0  0  0  0  0  0  0  0
  140.0690   72.1040  223.1070 C   0  0  0  0  0  0  0  0  0  0  0  0
  139.2110   71.0130  222.9370 C   0  0  0  0  0  0  0  0  0  0  0  0
  139.0120   70.0790  223.9320 C   0  0  0  0  0  0  0  0  0  0  0  0
  139.7030   70.2720  225.1100 C   0  0  0  0  0  0  0  0  0  0  0  0
  139.5690   69.3930  226.1630 C   0  0  0  0  0  0  0  0  0  0  0  0
  140.2730   69.6090  227.3330 C   0  0  0  0  0  0  0  0  0  0  0  0
  140.1470   68.5310  228.7010 Cl  0  0  0  0  0  0  0  0  0  0  0  0
  141.1200   70.7120  227.4660 C   0  0  0  0  0  0  0  0  0  0  0  0
  141.2530   71.5920  226.4090 C   0  0  0  0  0  0  0  0  0  0  0  0
  140.5380   71.3650  225.2310 C   0  0  0  0  0  0  0  0  0  0  0  0
  140.7200   72.2670  224.2500 N   0  0  0  0  0  0  0  0  0  0  0  0
  138.9500   74.5500  222.9070 H   0  0  0  0  0  0  0  0  0  0  0  0
  140.6053   75.0383  220.4654 H   0  0  0  0  0  0  0  0  0  0  0  0
  138.7932   75.1002  220.3421 H   0  0  0  0  0  0  0  0  0  0  0  0
  140.5401   76.7852  218.8347 H   0  0  0  0  0  0  0  0  0  0  0  0
  139.0849   77.7572  218.8675 H   0  0  0  0  0  0  0  0  0  0  0  0
  141.6067   78.6647  218.0323 H   0  0  0  0  0  0  0  0  0  0  0  0
  140.3130   79.7536  218.5702 H   0  0  0  0  0  0  0  0  0  0  0  0
  142.6933   78.6620  220.1468 H   0  0  0  0  0  0  0  0  0  0  0  0
  142.1136   80.3026  220.1272 H   0  0  0  0  0  0  0  0  0  0  0  0
  140.1035   79.6954  221.4097 H   0  0  0  0  0  0  0  0  0  0  0  0
  141.4990   77.7738  222.7440 H   0  0  0  0  0  0  0  0  0  0  0  0
  143.3779   78.6625  223.2333 H   0  0  0  0  0  0  0  0  0  0  0  0
  143.1804   79.7515  221.8484 H   0  0  0  0  0  0  0  0  0  0  0  0
  142.7861   80.2736  224.7699 H   0  0  0  0  0  0  0  0  0  0  0  0
  143.1597   81.4309  223.4848 H   0  0  0  0  0  0  0  0  0  0  0  0
  140.7154   81.4131  224.5924 H   0  0  0  0  0  0  0  0  0  0  0  0
  140.8242   81.6435  222.8630 H   0  0  0  0  0  0  0  0  0  0  0  0
  140.3025   79.0596  224.4421 H   0  0  0  0  0  0  0  0  0  0  0  0
  139.3846   79.6526  223.0734 H   0  0  0  0  0  0  0  0  0  0  0  0
  138.6790   70.8963  221.9813 H   0  0  0  0  0  0  0  0  0  0  0  0
  138.3357   69.2226  223.7931 H   0  0  0  0  0  0  0  0  0  0  0  0
  138.9036   68.5218  226.0727 H   0  0  0  0  0  0  0  0  0  0  0  0
  141.6746   70.8780  228.4013 H   0  0  0  0  0  0  0  0  0  0  0  0
  141.9170   72.4648  226.4947 H   0  0  0  0  0  0  0  0  0  0  0  0
  1  2  2  0
  2  3  1  0
  3  4  1  0
  4  5  1  0
  5  6  2  0
  5  7  1  0
  7  8  1  0
  8  9  1  0
  9 10  1  0
 10 11  1  0
 11 12  1  0
 12 13  1  0
 13 14  1  0
 14 15  1  0
 15 16  1  0
  2 17  1  0
 17 18  2  0
 18 19  1  0
 19 20  2  0
 20 21  1  0
 21 22  2  0
 22 23  1  0
 22 24  1  0
 24 25  2  0
 25 26  1  0
 26 27  2  0
 11  7  1  0
 16 12  1  0
 27 17  1  0
 26 20  1  0
  3 28  1  0
  4 29  1  0
  4 30  1  0
  8 31  1  0
  8 32  1  0
  9 33  1  0
  9 34  1  0
 10 35  1  0
 10 36  1  0
 11 37  1  1
 12 38  1  0
 13 39  1  0
 13 40  1  0
 14 41  1  0
 14 42  1  0
 15 43  1  0
 15 44  1  0
 16 45  1  0
 16 46  1  0
 18 47  1  0
 19 48  1  0
 21 49  1  0
 24 50  1  0
 25 51  1  0
M  END
>  <smiles>  (50) 
O=C(NCC(=O)N1CCCC1C1CCCC1)c1ccc2cc(Cl)ccc2n1

>  <score_type>  (50) 
oracle

>  <origin>  (50) 
autodockgpu

>  <m_score__min__energy>  (50) 
-8.7400000000000002

>  <m_primary>  (50) 
energy

>  <rmsd>  (50) 
2.279819003448978

>  <m_score__min__rmsd>  (50) 
2.279819003448978

>  <meeko>  (50) 
{"free_energy": -8.36, "intermolecular_energy": -9.85, "internal_energy": -1.67, "cluster_size": 38, "cluster_id": 1, "rank_in_cluster": 25}

>  <energy>  (50) 
-7.41

>  <cluster_rmsd>  (50) 
0.11

>  <cluster>  (50) 
5

$$$$

     RDKit          3D

 51 54  0  0  0  0  0  0  0  0999 V2000
  139.5890   73.6840  222.3600 O   0  0  0  0  0  0  0  0  0  0  0  0
  139.5840   72.4400  222.1810 C   0  0  0  0  0  0  0  0  0  0  0  0
  139.4010   71.9280  220.8600 N   0  0  0  0  0  0  0  0  0  0  0  0
  139.2260   72.8300  219.7680 C   0  0  0  0  0  0  0  0  0  0  0  0
  140.5210   73.3460  219.2310 C   0  0  0  0  0  0  0  0  0  0  0  0
  140.5930   73.4940  217.9930 O   0  0  0  0  0  0  0  0  0  0  0  0
  141.5640   73.6260  220.1460 N   0  0  0  0  0  0  0  0  0  0  0  0
  142.5090   72.6390  220.7220 C   0  0  0  0  0  0  0  0  0  0  0  0
  143.8090   73.4090  220.5320 C   0  0  0  0  0  0  0  0  0  0  0  0
  143.4330   74.8790  220.3540 C   0  0  0  0  0  0  0  0  0  0  0  0
  141.9950   74.8700  220.7410 C   0  0  1  0  0  0  0  0  0  0  0  0
  141.1940   76.0660  220.5040 C   0  0  0  0  0  0  0  0  0  0  0  0
  140.3380   76.3600  221.7150 C   0  0  0  0  0  0  0  0  0  0  0  0
  141.0430   77.5360  222.3530 C   0  0  0  0  0  0  0  0  0  0  0  0
  141.4330   78.3710  221.1540 C   0  0  0  0  0  0  0  0  0  0  0  0
  142.0240   77.3010  220.2510 C   0  0  0  0  0  0  0  0  0  0  0  0
  139.7630   71.5150  223.2950 C   0  0  0  0  0  0  0  0  0  0  0  0
  139.3960   70.1900  223.1250 C   0  0  0  0  0  0  0  0  0  0  0  0
  139.5660   69.3280  224.1710 C   0  0  0  0  0  0  0  0  0  0  0  0
  140.0880   69.7490  225.3730 C   0  0  0  0  0  0  0  0  0  0  0  0
  140.2560   68.8750  226.4210 C   0  0  0  0  0  0  0  0  0  0  0  0
  140.7810   69.2730  227.6460 C   0  0  0  0  0  0  0  0  0  0  0  0
  140.9840   68.1410  228.9650 Cl  0  0  0  0  0  0  0  0  0  0  0  0
  141.1400   70.6140  227.7860 C   0  0  0  0  0  0  0  0  0  0  0  0
  140.9690   71.5010  226.7210 C   0  0  0  0  0  0  0  0  0  0  0  0
  140.4480   71.0720  225.5250 C   0  0  0  0  0  0  0  0  0  0  0  0
  140.2690   71.8980  224.4780 N   0  0  0  0  0  0  0  0  0  0  0  0
  139.4030   70.8800  220.7510 H   0  0  0  0  0  0  0  0  0  0  0  0
  138.6946   72.3054  218.9603 H   0  0  0  0  0  0  0  0  0  0  0  0
  138.6537   73.6929  220.1393 H   0  0  0  0  0  0  0  0  0  0  0  0
  142.2999   72.4395  221.7833 H   0  0  0  0  0  0  0  0  0  0  0  0
  142.4824   71.6386  220.2655 H   0  0  0  0  0  0  0  0  0  0  0  0
  144.4529   73.2877  221.4155 H   0  0  0  0  0  0  0  0  0  0  0  0
  144.3631   73.0360  219.6580 H   0  0  0  0  0  0  0  0  0  0  0  0
  144.0232   75.5274  221.0182 H   0  0  0  0  0  0  0  0  0  0  0  0
  143.6216   75.2696  219.3431 H   0  0  0  0  0  0  0  0  0  0  0  0
  141.8408   74.9159  221.8292 H   0  0  0  0  0  0  0  0  0  0  0  0
  140.5941   75.8488  219.6079 H   0  0  0  0  0  0  0  0  0  0  0  0
  139.3127   76.6269  221.4190 H   0  0  0  0  0  0  0  0  0  0  0  0
  140.2334   75.4987  222.3911 H   0  0  0  0  0  0  0  0  0  0  0  0
  140.3673   78.0903  223.0210 H   0  0  0  0  0  0  0  0  0  0  0  0
  141.8968   77.2470  222.9835 H   0  0  0  0  0  0  0  0  0  0  0  0
  140.5583   78.8533  220.6933 H   0  0  0  0  0  0  0  0  0  0  0  0
  142.1118   79.2068  221.3790 H   0  0  0  0  0  0  0  0  0  0  0  0
  141.9526   77.6042  219.1960 H   0  0  0  0  0  0  0  0  0  0  0  0
  143.0902   77.1295  220.4605 H   0  0  0  0  0  0  0  0  0  0  0  0
  138.9774   69.8401  222.1698 H   0  0  0  0  0  0  0  0  0  0  0  0
  139.2791   68.2730  224.0499 H   0  0  0  0  0  0  0  0  0  0  0  0
  139.9647   67.8229  226.2858 H   0  0  0  0  0  0  0  0  0  0  0  0
  141.5587   70.9734  228.7376 H   0  0  0  0  0  0  0  0  0  0  0  0
  141.2551   72.5563  226.8416 H   0  0  0  0  0  0  0  0  0  0  0  0
  1  2  2  0
  2  3  1  0
  3  4  1  0
  4  5  1  0
  5  6  2  0
  5  7  1  0
  7  8  1  0
  8  9  1  0
  9 10  1  0
 10 11  1  0
 11 12  1  0
 12 13  1  0
 13 14  1  0
 14 15  1  0
 15 16  1  0
  2 17  1  0
 17 18  2  0
 18 19  1  0
 19 20  2  0
 20 21  1  0
 21 22  2  0
 22 23  1  0
 22 24  1  0
 24 25  2  0
 25 26  1  0
 26 27  2  0
 11  7  1  0
 16 12  1  0
 27 17  1  0
 26 20  1  0
  3 28  1  0
  4 29  1  0
  4 30  1  0
  8 31  1  0
  8 32  1  0
  9 33  1  0
  9 34  1  0
 10 35  1  0
 10 36  1  0
 11 37  1  1
 12 38  1  0
 13 39  1  0
 13 40  1  0
 14 41  1  0
 14 42  1  0
 15 43  1  0
 15 44  1  0
 16 45  1  0
 16 46  1  0
 18 47  1  0
 19 48  1  0
 21 49  1  0
 24 50  1  0
 25 51  1  0
M  END
>  <smiles>  (51) 
O=C(NCC(=O)N1CCCC1C1CCCC1)c1ccc2cc(Cl)ccc2n1

>  <score_type>  (51) 
oracle

>  <origin>  (51) 
autodockgpu

>  <m_score__min__energy>  (51) 
-8.9199999999999999

>  <m_primary>  (51) 
energy

>  <rmsd>  (51) 
2.84686172929456

>  <m_score__min__rmsd>  (51) 
2.84686172929456

>  <meeko>  (51) 
{"free_energy": -7.42, "intermolecular_energy": -8.91, "internal_energy": -1.66, "cluster_size": 32, "cluster_id": 1, "rank_in_cluster": 32}

>  <energy>  (51) 
-8.92

>  <cluster_rmsd>  (51) 
0.0

>  <cluster>  (51) 
1

$$$$

     RDKit          3D

 51 54  0  0  0  0  0  0  0  0999 V2000
  140.9030   72.2130  221.0670 O   0  0  0  0  0  0  0  0  0  0  0  0
  140.2640   72.4980  222.1120 C   0  0  0  0  0  0  0  0  0  0  0  0
  139.5800   73.7500  222.1890 N   0  0  0  0  0  0  0  0  0  0  0  0
  139.6310   74.6550  221.0870 C   0  0  0  0  0  0  0  0  0  0  0  0
  140.8520   75.5170  221.1030 C   0  0  0  0  0  0  0  0  0  0  0  0
  141.1150   76.0930  222.1800 O   0  0  0  0  0  0  0  0  0  0  0  0
  141.6160   75.6240  219.9160 N   0  0  0  0  0  0  0  0  0  0  0  0
  141.2760   76.4480  218.7310 C   0  0  0  0  0  0  0  0  0  0  0  0
  142.6350   77.0890  218.4850 C   0  0  0  0  0  0  0  0  0  0  0  0
  143.6720   76.2190  219.1940 C   0  0  0  0  0  0  0  0  0  0  0  0
  142.8680   75.0130  219.5360 C   0  0  1  0  0  0  0  0  0  0  0  0
  143.4460   74.0090  220.4220 C   0  0  0  0  0  0  0  0  0  0  0  0
  143.4560   72.6620  219.7360 C   0  0  0  0  0  0  0  0  0  0  0  0
  144.9090   72.4800  219.3610 C   0  0  0  0  0  0  0  0  0  0  0  0
  145.6280   73.0060  220.5820 C   0  0  0  0  0  0  0  0  0  0  0  0
  144.8750   74.3060  220.8100 C   0  0  0  0  0  0  0  0  0  0  0  0
  140.2100   71.5760  223.2410 C   0  0  0  0  0  0  0  0  0  0  0  0
  139.6490   70.3240  223.0500 C   0  0  0  0  0  0  0  0  0  0  0  0
  139.6010   69.4640  224.1100 C   0  0  0  0  0  0  0  0  0  0  0  0
  140.0950   69.8160  225.3460 C   0  0  0  0  0  0  0  0  0  0  0  0
  140.0430   68.9440  226.4080 C   0  0  0  0  0  0  0  0  0  0  0  0
  140.5340   69.2740  227.6670 C   0  0  0  0  0  0  0  0  0  0  0  0
  140.4550   68.1460  229.0030 Cl  0  0  0  0  0  0  0  0  0  0  0  0
  141.0930   70.5420  227.8270 C   0  0  0  0  0  0  0  0  0  0  0  0
  141.1450   71.4270  226.7480 C   0  0  0  0  0  0  0  0  0  0  0  0
  140.6510   71.0670  225.5180 C   0  0  0  0  0  0  0  0  0  0  0  0
  140.6840   71.8920  224.4570 N   0  0  0  0  0  0  0  0  0  0  0  0
  139.0570   73.9520  223.0800 H   0  0  0  0  0  0  0  0  0  0  0  0
  139.6234   74.0732  220.1535 H   0  0  0  0  0  0  0  0  0  0  0  0
  138.7561   75.3176  221.1612 H   0  0  0  0  0  0  0  0  0  0  0  0
  140.9512   75.8314  217.8799 H   0  0  0  0  0  0  0  0  0  0  0  0
  140.4408   77.1505  218.8686 H   0  0  0  0  0  0  0  0  0  0  0  0
  142.8461   77.1255  217.4061 H   0  0  0  0  0  0  0  0  0  0  0  0
  142.6587   78.1200  218.8677 H   0  0  0  0  0  0  0  0  0  0  0  0
  144.5089   75.9673  218.5260 H   0  0  0  0  0  0  0  0  0  0  0  0
  144.1439   76.7029  220.0618 H   0  0  0  0  0  0  0  0  0  0  0  0
  142.7778   74.3032  218.7005 H   0  0  0  0  0  0  0  0  0  0  0  0
  142.8202   74.0158  221.3266 H   0  0  0  0  0  0  0  0  0  0  0  0
  143.1221   71.8679  220.4200 H   0  0  0  0  0  0  0  0  0  0  0  0
  142.7766   72.6112  218.8724 H   0  0  0  0  0  0  0  0  0  0  0  0
  145.1450   71.4200  219.1861 H   0  0  0  0  0  0  0  0  0  0  0  0
  145.1902   72.9941  218.4300 H   0  0  0  0  0  0  0  0  0  0  0  0
  145.5269   72.3229  221.4382 H   0  0  0  0  0  0  0  0  0  0  0  0
  146.7149   73.1220  220.4587 H   0  0  0  0  0  0  0  0  0  0  0  0
  144.9335   74.6054  221.8668 H   0  0  0  0  0  0  0  0  0  0  0  0
  145.2971   75.1342  220.2219 H   0  0  0  0  0  0  0  0  0  0  0  0
  139.2515   70.0293  222.0676 H   0  0  0  0  0  0  0  0  0  0  0  0
  139.1573   68.4668  223.9730 H   0  0  0  0  0  0  0  0  0  0  0  0
  139.5972   67.9499  226.2565 H   0  0  0  0  0  0  0  0  0  0  0  0
  141.4938   70.8455  228.8054 H   0  0  0  0  0  0  0  0  0  0  0  0
  141.5871   72.4249  226.8849 H   0  0  0  0  0  0  0  0  0  0  0  0
  1  2  2  0
  2  3  1  0
  3  4  1  0
  4  5  1  0
  5  6  2  0
  5  7  1  0
  7  8  1  0
  8  9  1  0
  9 10  1  0
 10 11  1  0
 11 12  1  0
 12 13  1  0
 13 14  1  0
 14 15  1  0
 15 16  1  0
  2 17  1  0
 17 18  2  0
 18 19  1  0
 19 20  2  0
 20 21  1  0
 21 22  2  0
 22 23  1  0
 22 24  1  0
 24 25  2  0
 25 26  1  0
 26 27  2  0
 11  7  1  0
 16 12  1  0
 27 17  1  0
 26 20  1  0
  3 28  1  0
  4 29  1  0
  4 30  1  0
  8 31  1  0
  8 32  1  0
  9 33  1  0
  9 34  1  0
 10 35  1  0
 10 36  1  0
 11 37  1  6
 12 38  1  0
 13 39  1  0
 13 40  1  0
 14 41  1  0
 14 42  1  0
 15 43  1  0
 15 44  1  0
 16 45  1  0
 16 46  1  0
 18 47  1  0
 19 48  1  0
 21 49  1  0
 24 50  1  0
 25 51  1  0
M  END
>  <smiles>  (52) 
O=C(NCC(=O)N1CCCC1C1CCCC1)c1ccc2cc(Cl)ccc2n1

>  <score_type>  (52) 
oracle

>  <origin>  (52) 
autodockgpu

>  <m_score__min__energy>  (52) 
-8.9199999999999999

>  <m_primary>  (52) 
energy

>  <rmsd>  (52) 
2.089201875328579

>  <m_score__min__rmsd>  (52) 
2.089201875328579

>  <meeko>  (52) 
{"free_energy": -7.99, "intermolecular_energy": -9.48, "internal_energy": -1.68, "cluster_size": 1, "cluster_id": 4, "rank_in_cluster": 1}

>  <energy>  (52) 
-8.9

>  <cluster_rmsd>  (52) 
0.34

>  <cluster>  (52) 
1

$$$$

     RDKit          3D

 51 54  0  0  0  0  0  0  0  0999 V2000
  136.4530   77.9570  222.5970 O   0  0  0  0  0  0  0  0  0  0  0  0
  136.6330   76.7980  223.0490 C   0  0  0  0  0  0  0  0  0  0  0  0
  137.8350   76.1010  222.7180 N   0  0  0  0  0  0  0  0  0  0  0  0
  138.8090   76.7250  221.8820 C   0  0  0  0  0  0  0  0  0  0  0  0
  140.0820   75.9460  221.7960 C   0  0  0  0  0  0  0  0  0  0  0  0
  140.0690   74.7990  222.2890 O   0  0  0  0  0  0  0  0  0  0  0  0
  141.1990   76.5510  221.1710 N   0  0  0  0  0  0  0  0  0  0  0  0
  142.1470   75.8860  220.2450 C   0  0  0  0  0  0  0  0  0  0  0  0
  142.2150   76.9530  219.1610 C   0  0  0  0  0  0  0  0  0  0  0  0
  141.7330   78.2590  219.7910 C   0  0  0  0  0  0  0  0  0  0  0  0
  141.7060   77.9020  221.2370 C   0  0  1  0  0  0  0  0  0  0  0  0
  141.0900   78.8280  222.1810 C   0  0  0  0  0  0  0  0  0  0  0  0
  141.8190   78.7760  223.5040 C   0  0  0  0  0  0  0  0  0  0  0  0
  142.6220   80.0570  223.5010 C   0  0  0  0  0  0  0  0  0  0  0  0
  141.6460   81.0520  222.9150 C   0  0  0  0  0  0  0  0  0  0  0  0
  141.1320   80.2650  221.7200 C   0  0  0  0  0  0  0  0  0  0  0  0
  135.6400   76.1570  223.9040 C   0  0  0  0  0  0  0  0  0  0  0  0
  134.6760   76.9460  224.5110 C   0  0  0  0  0  0  0  0  0  0  0  0
  133.7480   76.3410  225.3100 C   0  0  0  0  0  0  0  0  0  0  0  0
  133.7550   74.9800  225.5180 C   0  0  0  0  0  0  0  0  0  0  0  0
  132.8170   74.3790  226.3230 C   0  0  0  0  0  0  0  0  0  0  0  0
  132.8010   73.0060  226.5510 C   0  0  0  0  0  0  0  0  0  0  0  0
  131.5960   72.2650  227.5820 Cl  0  0  0  0  0  0  0  0  0  0  0  0
  133.7850   72.2400  225.9260 C   0  0  0  0  0  0  0  0  0  0  0  0
  134.7370   72.8510  225.1090 C   0  0  0  0  0  0  0  0  0  0  0  0
  134.7220   74.2100  224.9060 C   0  0  0  0  0  0  0  0  0  0  0  0
  135.6230   74.8330  224.1250 N   0  0  0  0  0  0  0  0  0  0  0  0
  137.9490   75.1330  223.1160 H   0  0  0  0  0  0  0  0  0  0  0  0
  138.3902   76.8270  220.8700 H   0  0  0  0  0  0  0  0  0  0  0  0
  139.0482   77.7031  222.3248 H   0  0  0  0  0  0  0  0  0  0  0  0
  143.1268   75.7120  220.7136 H   0  0  0  0  0  0  0  0  0  0  0  0
  141.8478   74.8843  219.9028 H   0  0  0  0  0  0  0  0  0  0  0  0
  143.2497   77.0645  218.8046 H   0  0  0  0  0  0  0  0  0  0  0  0
  141.5896   76.6780  218.2989 H   0  0  0  0  0  0  0  0  0  0  0  0
  142.4349   79.0827  219.5940 H   0  0  0  0  0  0  0  0  0  0  0  0
  140.7685   78.6153  219.4000 H   0  0  0  0  0  0  0  0  0  0  0  0
  142.6916   77.9814  221.7190 H   0  0  0  0  0  0  0  0  0  0  0  0
  140.0406   78.5099  222.2678 H   0  0  0  0  0  0  0  0  0  0  0  0
  141.1105   78.7556  224.3452 H   0  0  0  0  0  0  0  0  0  0  0  0
  142.4400   77.8757  223.6214 H   0  0  0  0  0  0  0  0  0  0  0  0
  142.9177   80.3434  224.5211 H   0  0  0  0  0  0  0  0  0  0  0  0
  143.5645   79.9831  222.9386 H   0  0  0  0  0  0  0  0  0  0  0  0
  140.8376   81.2921  223.6213 H   0  0  0  0  0  0  0  0  0  0  0  0
  142.0828   82.0304  222.6660 H   0  0  0  0  0  0  0  0  0  0  0  0
  140.1264   80.6084  221.4355 H   0  0  0  0  0  0  0  0  0  0  0  0
  141.7733   80.3946  220.8357 H   0  0  0  0  0  0  0  0  0  0  0  0
  134.6585   78.0345  224.3530 H   0  0  0  0  0  0  0  0  0  0  0  0
  132.9773   76.9553  225.7985 H   0  0  0  0  0  0  0  0  0  0  0  0
  132.0516   75.0055  226.8043 H   0  0  0  0  0  0  0  0  0  0  0  0
  133.8106   71.1508  226.0776 H   0  0  0  0  0  0  0  0  0  0  0  0
  135.5089   72.2373  224.6215 H   0  0  0  0  0  0  0  0  0  0  0  0
  1  2  2  0
  2  3  1  0
  3  4  1  0
  4  5  1  0
  5  6  2  0
  5  7  1  0
  7  8  1  0
  8  9  1  0
  9 10  1  0
 10 11  1  0
 11 12  1  0
 12 13  1  0
 13 14  1  0
 14 15  1  0
 15 16  1  0
  2 17  1  0
 17 18  2  0
 18 19  1  0
 19 20  2  0
 20 21  1  0
 21 22  2  0
 22 23  1  0
 22 24  1  0
 24 25  2  0
 25 26  1  0
 26 27  2  0
 11  7  1  0
 16 12  1  0
 27 17  1  0
 26 20  1  0
  3 28  1  0
  4 29  1  0
  4 30  1  0
  8 31  1  0
  8 32  1  0
  9 33  1  0
  9 34  1  0
 10 35  1  0
 10 36  1  0
 11 37  1  1
 12 38  1  0
 13 39  1  0
 13 40  1  0
 14 41  1  0
 14 42  1  0
 15 43  1  0
 15 44  1  0
 16 45  1  0
 16 46  1  0
 18 47  1  0
 19 48  1  0
 21 49  1  0
 24 50  1  0
 25 51  1  0
M  END
>  <smiles>  (53) 
O=C(NCC(=O)N1CCCC1C1CCCC1)c1ccc2cc(Cl)ccc2n1

>  <score_type>  (53) 
oracle

>  <origin>  (53) 
autodockgpu

>  <m_score__min__energy>  (53) 
-8.9199999999999999

>  <m_primary>  (53) 
energy

>  <rmsd>  (53) 
6.055023361169857

>  <m_score__min__rmsd>  (53) 
6.055023361169857

>  <meeko>  (53) 
{"free_energy": -7.44, "intermolecular_energy": -8.93, "internal_energy": -1.9, "cluster_size": 5, "cluster_id": 6, "rank_in_cluster": 4}

>  <energy>  (53) 
-8.82

>  <cluster_rmsd>  (53) 
0.44

>  <cluster>  (53) 
1

$$$$

     RDKit          3D

 51 54  0  0  0  0  0  0  0  0999 V2000
  141.0430   72.8470  221.1370 O   0  0  0  0  0  0  0  0  0  0  0  0
  140.2480   72.9830  222.1020 C   0  0  0  0  0  0  0  0  0  0  0  0
  139.3890   74.1240  222.1390 N   0  0  0  0  0  0  0  0  0  0  0  0
  139.4440   75.0890  221.0880 C   0  0  0  0  0  0  0  0  0  0  0  0
  139.8080   76.4540  221.5760 C   0  0  0  0  0  0  0  0  0  0  0  0
  139.0110   76.9940  222.3700 O   0  0  0  0  0  0  0  0  0  0  0  0
  141.0140   77.0340  221.1110 N   0  0  0  0  0  0  0  0  0  0  0  0
  141.9520   76.4310  220.1340 C   0  0  0  0  0  0  0  0  0  0  0  0
  142.1850   77.6430  219.2430 C   0  0  0  0  0  0  0  0  0  0  0  0
  141.7870   78.8750  220.0540 C   0  0  0  0  0  0  0  0  0  0  0  0
  141.6380   78.2990  221.4190 C   0  0  1  0  0  0  0  0  0  0  0  0
  141.0520   79.1230  222.4710 C   0  0  0  0  0  0  0  0  0  0  0  0
  141.8250   78.9420  223.7570 C   0  0  0  0  0  0  0  0  0  0  0  0
  142.6260   80.2200  223.8570 C   0  0  0  0  0  0  0  0  0  0  0  0
  141.6290   81.2640  223.4070 C   0  0  0  0  0  0  0  0  0  0  0  0
  141.0760   80.5990  222.1570 C   0  0  0  0  0  0  0  0  0  0  0  0
  140.1890   72.0000  223.1770 C   0  0  0  0  0  0  0  0  0  0  0  0
  139.6360   70.7580  222.9130 C   0  0  0  0  0  0  0  0  0  0  0  0
  139.5830   69.8400  223.9230 C   0  0  0  0  0  0  0  0  0  0  0  0
  140.0640   70.1260  225.1810 C   0  0  0  0  0  0  0  0  0  0  0  0
  140.0080   69.1960  226.1930 C   0  0  0  0  0  0  0  0  0  0  0  0
  140.4860   69.4590  227.4730 C   0  0  0  0  0  0  0  0  0  0  0  0
  140.4010   68.2580  228.7440 Cl  0  0  0  0  0  0  0  0  0  0  0  0
  141.0370   70.7190  227.7070 C   0  0  0  0  0  0  0  0  0  0  0  0
  141.0940   71.6620  226.6790 C   0  0  0  0  0  0  0  0  0  0  0  0
  140.6120   71.3680  225.4270 C   0  0  0  0  0  0  0  0  0  0  0  0
  140.6500   72.2510  224.4130 N   0  0  0  0  0  0  0  0  0  0  0  0
  138.7370   74.2030  222.9630 H   0  0  0  0  0  0  0  0  0  0  0  0
  140.1959   74.7661  220.3529 H   0  0  0  0  0  0  0  0  0  0  0  0
  138.4402   75.1524  220.6426 H   0  0  0  0  0  0  0  0  0  0  0  0
  142.8807   76.0872  220.6128 H   0  0  0  0  0  0  0  0  0  0  0  0
  141.5835   75.5312  219.6197 H   0  0  0  0  0  0  0  0  0  0  0  0
  143.2457   77.7044  218.9581 H   0  0  0  0  0  0  0  0  0  0  0  0
  141.5917   77.5718  218.3194 H   0  0  0  0  0  0  0  0  0  0  0  0
  142.5724   79.6446  220.0266 H   0  0  0  0  0  0  0  0  0  0  0  0
  140.8855   79.3838  219.6820 H   0  0  0  0  0  0  0  0  0  0  0  0
  142.5949   78.2007  221.9525 H   0  0  0  0  0  0  0  0  0  0  0  0
  140.0065   78.7927  222.5589 H   0  0  0  0  0  0  0  0  0  0  0  0
  141.1450   78.8338  224.6148 H   0  0  0  0  0  0  0  0  0  0  0  0
  142.4508   78.0374  223.7622 H   0  0  0  0  0  0  0  0  0  0  0  0
  142.9553   80.4035  224.8904 H   0  0  0  0  0  0  0  0  0  0  0  0
  143.5495   80.2078  223.2595 H   0  0  0  0  0  0  0  0  0  0  0  0
  140.8446   81.4278  224.1606 H   0  0  0  0  0  0  0  0  0  0  0  0
  142.0557   82.2645  223.2431 H   0  0  0  0  0  0  0  0  0  0  0  0
  140.0608   80.9643  221.9429 H   0  0  0  0  0  0  0  0  0  0  0  0
  141.6868   80.8204  221.2693 H   0  0  0  0  0  0  0  0  0  0  0  0
  139.2482   70.5163  221.9124 H   0  0  0  0  0  0  0  0  0  0  0  0
  139.1461   68.8497  223.7269 H   0  0  0  0  0  0  0  0  0  0  0  0
  139.5697   68.2092  225.9829 H   0  0  0  0  0  0  0  0  0  0  0  0
  141.4276   70.9703  228.7041 H   0  0  0  0  0  0  0  0  0  0  0  0
  141.5303   72.6527  226.8742 H   0  0  0  0  0  0  0  0  0  0  0  0
  1  2  2  0
  2  3  1  0
  3  4  1  0
  4  5  1  0
  5  6  2  0
  5  7  1  0
  7  8  1  0
  8  9  1  0
  9 10  1  0
 10 11  1  0
 11 12  1  0
 12 13  1  0
 13 14  1  0
 14 15  1  0
 15 16  1  0
  2 17  1  0
 17 18  2  0
 18 19  1  0
 19 20  2  0
 20 21  1  0
 21 22  2  0
 22 23  1  0
 22 24  1  0
 24 25  2  0
 25 26  1  0
 26 27  2  0
 11  7  1  0
 16 12  1  0
 27 17  1  0
 26 20  1  0
  3 28  1  0
  4 29  1  0
  4 30  1  0
  8 31  1  0
  8 32  1  0
  9 33  1  0
  9 34  1  0
 10 35  1  0
 10 36  1  0
 11 37  1  1
 12 38  1  0
 13 39  1  0
 13 40  1  0
 14 41  1  0
 14 42  1  0
 15 43  1  0
 15 44  1  0
 16 45  1  0
 16 46  1  0
 18 47  1  0
 19 48  1  0
 21 49  1  0
 24 50  1  0
 25 51  1  0
M  END
>  <smiles>  (54) 
O=C(NCC(=O)N1CCCC1C1CCCC1)c1ccc2cc(Cl)ccc2n1

>  <score_type>  (54) 
oracle

>  <origin>  (54) 
autodockgpu

>  <m_score__min__energy>  (54) 
-8.9199999999999999

>  <m_primary>  (54) 
energy

>  <rmsd>  (54) 
2.255190664782213

>  <m_score__min__rmsd>  (54) 
2.255190664782213

>  <meeko>  (54) 
{"free_energy": -8.92, "intermolecular_energy": -10.41, "internal_energy": -1.33, "cluster_size": 32, "cluster_id": 1, "rank_in_cluster": 1}

>  <energy>  (54) 
-8.81

>  <cluster_rmsd>  (54) 
0.21

>  <cluster>  (54) 
1

$$$$

     RDKit          3D

 51 54  0  0  0  0  0  0  0  0999 V2000
  139.7310   72.0010  220.7060 O   0  0  0  0  0  0  0  0  0  0  0  0
  139.7190   72.4230  221.8900 C   0  0  0  0  0  0  0  0  0  0  0  0
  139.5870   73.8260  222.1270 N   0  0  0  0  0  0  0  0  0  0  0  0
  139.4730   74.7240  221.0240 C   0  0  0  0  0  0  0  0  0  0  0  0
  140.5210   75.7890  221.0340 C   0  0  0  0  0  0  0  0  0  0  0  0
  140.5870   76.4990  222.0590 O   0  0  0  0  0  0  0  0  0  0  0  0
  141.3570   75.9200  219.8990 N   0  0  0  0  0  0  0  0  0  0  0  0
  141.0360   76.6700  218.6610 C   0  0  0  0  0  0  0  0  0  0  0  0
  142.3500   77.4180  218.4830 C   0  0  0  0  0  0  0  0  0  0  0  0
  143.4030   76.6680  219.2970 C   0  0  0  0  0  0  0  0  0  0  0  0
  142.6810   75.4080  219.6320 C   0  0  1  0  0  0  0  0  0  0  0  0
  143.2770   74.4900  220.5960 C   0  0  0  0  0  0  0  0  0  0  0  0
  142.7150   73.1010  220.3970 C   0  0  0  0  0  0  0  0  0  0  0  0
  143.8490   72.3680  219.7150 C   0  0  0  0  0  0  0  0  0  0  0  0
  145.0610   72.8800  220.4590 C   0  0  0  0  0  0  0  0  0  0  0  0
  144.7760   74.3730  220.4620 C   0  0  0  0  0  0  0  0  0  0  0  0
  139.8360   71.5080  223.0200 C   0  0  0  0  0  0  0  0  0  0  0  0
  139.4270   70.1950  222.8570 C   0  0  0  0  0  0  0  0  0  0  0  0
  139.5390   69.3420  223.9190 C   0  0  0  0  0  0  0  0  0  0  0  0
  140.0450   69.7610  225.1280 C   0  0  0  0  0  0  0  0  0  0  0  0
  140.1550   68.8950  226.1910 C   0  0  0  0  0  0  0  0  0  0  0  0
  140.6620   69.2920  227.4250 C   0  0  0  0  0  0  0  0  0  0  0  0
  140.7900   68.1710  228.7630 Cl  0  0  0  0  0  0  0  0  0  0  0  0
  141.0650   70.6210  227.5560 C   0  0  0  0  0  0  0  0  0  0  0  0
  140.9530   71.4990  226.4760 C   0  0  0  0  0  0  0  0  0  0  0  0
  140.4480   71.0720  225.2720 C   0  0  0  0  0  0  0  0  0  0  0  0
  140.3260   71.8890  224.2110 N   0  0  0  0  0  0  0  0  0  0  0  0
  139.5820   74.1400  223.1320 H   0  0  0  0  0  0  0  0  0  0  0  0
  139.5656   74.1485  220.0912 H   0  0  0  0  0  0  0  0  0  0  0  0
  138.4948   75.2211  221.1012 H   0  0  0  0  0  0  0  0  0  0  0  0
  140.8267   75.9984  217.8153 H   0  0  0  0  0  0  0  0  0  0  0  0
  140.1370   77.3018  218.7123 H   0  0  0  0  0  0  0  0  0  0  0  0
  142.6346   77.4346  217.4206 H   0  0  0  0  0  0  0  0  0  0  0  0
  142.2585   78.4600  218.8235 H   0  0  0  0  0  0  0  0  0  0  0  0
  144.3045   76.4674  218.6994 H   0  0  0  0  0  0  0  0  0  0  0  0
  143.7682   77.2215  220.1746 H   0  0  0  0  0  0  0  0  0  0  0  0
  142.7117   74.6641  218.8223 H   0  0  0  0  0  0  0  0  0  0  0  0
  143.0379   74.9028  221.5872 H   0  0  0  0  0  0  0  0  0  0  0  0
  142.4658   72.6338  221.3611 H   0  0  0  0  0  0  0  0  0  0  0  0
  141.7813   73.0910  219.8155 H   0  0  0  0  0  0  0  0  0  0  0  0
  143.7436   71.2789  219.8278 H   0  0  0  0  0  0  0  0  0  0  0  0
  143.8942   72.5411  218.6297 H   0  0  0  0  0  0  0  0  0  0  0  0
  145.1115   72.4744  221.4803 H   0  0  0  0  0  0  0  0  0  0  0  0
  146.0256   72.5990  220.0110 H   0  0  0  0  0  0  0  0  0  0  0  0
  145.2782   74.8598  221.3110 H   0  0  0  0  0  0  0  0  0  0  0  0
  145.1466   74.8639  219.5501 H   0  0  0  0  0  0  0  0  0  0  0  0
  139.0216   69.8468  221.8955 H   0  0  0  0  0  0  0  0  0  0  0  0
  139.2172   68.2964  223.8046 H   0  0  0  0  0  0  0  0  0  0  0  0
  139.8308   67.8519  226.0613 H   0  0  0  0  0  0  0  0  0  0  0  0
  141.4724   70.9785  228.5132 H   0  0  0  0  0  0  0  0  0  0  0  0
  141.2730   72.5452  226.5907 H   0  0  0  0  0  0  0  0  0  0  0  0
  1  2  2  0
  2  3  1  0
  3  4  1  0
  4  5  1  0
  5  6  2  0
  5  7  1  0
  7  8  1  0
  8  9  1  0
  9 10  1  0
 10 11  1  0
 11 12  1  0
 12 13  1  0
 13 14  1  0
 14 15  1  0
 15 16  1  0
  2 17  1  0
 17 18  2  0
 18 19  1  0
 19 20  2  0
 20 21  1  0
 21 22  2  0
 22 23  1  0
 22 24  1  0
 24 25  2  0
 25 26  1  0
 26 27  2  0
 11  7  1  0
 16 12  1  0
 27 17  1  0
 26 20  1  0
  3 28  1  0
  4 29  1  0
  4 30  1  0
  8 31  1  0
  8 32  1  0
  9 33  1  0
  9 34  1  0
 10 35  1  0
 10 36  1  0
 11 37  1  6
 12 38  1  0
 13 39  1  0
 13 40  1  0
 14 41  1  0
 14 42  1  0
 15 43  1  0
 15 44  1  0
 16 45  1  0
 16 46  1  0
 18 47  1  0
 19 48  1  0
 21 49  1  0
 24 50  1  0
 25 51  1  0
M  END
>  <smiles>  (55) 
O=C(NCC(=O)N1CCCC1C1CCCC1)c1ccc2cc(Cl)ccc2n1

>  <score_type>  (55) 
oracle

>  <origin>  (55) 
autodockgpu

>  <m_score__min__energy>  (55) 
-8.9199999999999999

>  <m_primary>  (55) 
energy

>  <rmsd>  (55) 
1.9273132653466436

>  <m_score__min__rmsd>  (55) 
1.9273132653466436

>  <meeko>  (55) 
{"free_energy": -7.87, "intermolecular_energy": -9.36, "internal_energy": -1.92, "cluster_size": 32, "cluster_id": 1, "rank_in_cluster": 23}

>  <energy>  (55) 
-8.78

>  <cluster_rmsd>  (55) 
0.41

>  <cluster>  (55) 
1

$$$$

     RDKit          3D

 51 54  0  0  0  0  0  0  0  0999 V2000
  141.0390   72.9430  221.2210 O   0  0  0  0  0  0  0  0  0  0  0  0
  140.1720   72.9850  222.1300 C   0  0  0  0  0  0  0  0  0  0  0  0
  139.1890   74.0220  222.1060 N   0  0  0  0  0  0  0  0  0  0  0  0
  139.2050   74.9900  221.0580 C   0  0  0  0  0  0  0  0  0  0  0  0
  139.5680   76.3570  221.5400 C   0  0  0  0  0  0  0  0  0  0  0  0
  138.7300   76.9350  222.2630 O   0  0  0  0  0  0  0  0  0  0  0  0
  140.8170   76.8980  221.1510 N   0  0  0  0  0  0  0  0  0  0  0  0
  141.7550   76.3070  220.1660 C   0  0  0  0  0  0  0  0  0  0  0  0
  142.0820   77.5590  219.3620 C   0  0  0  0  0  0  0  0  0  0  0  0
  141.7230   78.7570  220.2400 C   0  0  0  0  0  0  0  0  0  0  0  0
  141.4970   78.1050  221.5600 C   0  0  1  0  0  0  0  0  0  0  0  0
  140.9210   78.8920  222.6450 C   0  0  0  0  0  0  0  0  0  0  0  0
  141.8500   78.8820  223.8370 C   0  0  0  0  0  0  0  0  0  0  0  0
  142.4670   80.2620  223.8000 C   0  0  0  0  0  0  0  0  0  0  0  0
  141.2880   81.1350  223.4350 C   0  0  0  0  0  0  0  0  0  0  0  0
  140.7000   80.3400  222.2800 C   0  0  0  0  0  0  0  0  0  0  0  0
  140.1520   71.9970  223.2030 C   0  0  0  0  0  0  0  0  0  0  0  0
  139.6320   70.7400  222.9400 C   0  0  0  0  0  0  0  0  0  0  0  0
  139.6160   69.8180  223.9480 C   0  0  0  0  0  0  0  0  0  0  0  0
  140.1020   70.1140  225.2020 C   0  0  0  0  0  0  0  0  0  0  0  0
  140.0830   69.1800  226.2110 C   0  0  0  0  0  0  0  0  0  0  0  0
  140.5660   69.4520  227.4860 C   0  0  0  0  0  0  0  0  0  0  0  0
  140.5290   68.2460  228.7540 Cl  0  0  0  0  0  0  0  0  0  0  0  0
  141.0830   70.7270  227.7190 C   0  0  0  0  0  0  0  0  0  0  0  0
  141.1020   71.6750  226.6940 C   0  0  0  0  0  0  0  0  0  0  0  0
  140.6160   71.3710  225.4460 C   0  0  0  0  0  0  0  0  0  0  0  0
  140.6180   72.2580  224.4350 N   0  0  0  0  0  0  0  0  0  0  0  0
  138.4790   74.0230  222.8840 H   0  0  0  0  0  0  0  0  0  0  0  0
  139.9397   74.6772  220.3014 H   0  0  0  0  0  0  0  0  0  0  0  0
  138.1887   75.0442  220.6408 H   0  0  0  0  0  0  0  0  0  0  0  0
  142.6475   75.8835  220.6499 H   0  0  0  0  0  0  0  0  0  0  0  0
  141.3573   75.4628  219.5836 H   0  0  0  0  0  0  0  0  0  0  0  0
  143.1533   77.5798  219.1134 H   0  0  0  0  0  0  0  0  0  0  0  0
  141.5173   77.5794  218.4182 H   0  0  0  0  0  0  0  0  0  0  0  0
  142.5489   79.4820  220.2868 H   0  0  0  0  0  0  0  0  0  0  0  0
  140.8628   79.3373  219.8748 H   0  0  0  0  0  0  0  0  0  0  0  0
  142.4284   77.9203  222.1153 H   0  0  0  0  0  0  0  0  0  0  0  0
  139.9492   78.4268  222.8666 H   0  0  0  0  0  0  0  0  0  0  0  0
  141.2920   78.7235  224.7716 H   0  0  0  0  0  0  0  0  0  0  0  0
  142.5948   78.0734  223.7990 H   0  0  0  0  0  0  0  0  0  0  0  0
  142.8794   80.5400  224.7812 H   0  0  0  0  0  0  0  0  0  0  0  0
  143.3108   80.3476  223.0995 H   0  0  0  0  0  0  0  0  0  0  0  0
  140.5766   81.2258  224.2690 H   0  0  0  0  0  0  0  0  0  0  0  0
  141.5472   82.1755  223.1896 H   0  0  0  0  0  0  0  0  0  0  0  0
  139.6258   80.5515  222.1732 H   0  0  0  0  0  0  0  0  0  0  0  0
  141.1706   80.5991  221.3201 H   0  0  0  0  0  0  0  0  0  0  0  0
  139.2411   70.4902  221.9426 H   0  0  0  0  0  0  0  0  0  0  0  0
  139.2055   68.8162  223.7535 H   0  0  0  0  0  0  0  0  0  0  0  0
  139.6708   68.1818  226.0019 H   0  0  0  0  0  0  0  0  0  0  0  0
  141.4767   70.9860  228.7130 H   0  0  0  0  0  0  0  0  0  0  0  0
  141.5112   72.6774  226.8885 H   0  0  0  0  0  0  0  0  0  0  0  0
  1  2  2  0
  2  3  1  0
  3  4  1  0
  4  5  1  0
  5  6  2  0
  5  7  1  0
  7  8  1  0
  8  9  1  0
  9 10  1  0
 10 11  1  0
 11 12  1  0
 12 13  1  0
 13 14  1  0
 14 15  1  0
 15 16  1  0
  2 17  1  0
 17 18  2  0
 18 19  1  0
 19 20  2  0
 20 21  1  0
 21 22  2  0
 22 23  1  0
 22 24  1  0
 24 25  2  0
 25 26  1  0
 26 27  2  0
 11  7  1  0
 16 12  1  0
 27 17  1  0
 26 20  1  0
  3 28  1  0
  4 29  1  0
  4 30  1  0
  8 31  1  0
  8 32  1  0
  9 33  1  0
  9 34  1  0
 10 35  1  0
 10 36  1  0
 11 37  1  1
 12 38  1  0
 13 39  1  0
 13 40  1  0
 14 41  1  0
 14 42  1  0
 15 43  1  0
 15 44  1  0
 16 45  1  0
 16 46  1  0
 18 47  1  0
 19 48  1  0
 21 49  1  0
 24 50  1  0
 25 51  1  0
M  END
>  <smiles>  (56) 
O=C(NCC(=O)N1CCCC1C1CCCC1)c1ccc2cc(Cl)ccc2n1

>  <score_type>  (56) 
oracle

>  <origin>  (56) 
autodockgpu

>  <m_score__min__energy>  (56) 
-8.9199999999999999

>  <m_primary>  (56) 
energy

>  <rmsd>  (56) 
2.1915695838949456

>  <m_score__min__rmsd>  (56) 
2.1915695838949456

>  <meeko>  (56) 
{"free_energy": -8.81, "intermolecular_energy": -10.3, "internal_energy": -1.32, "cluster_size": 32, "cluster_id": 1, "rank_in_cluster": 4}

>  <energy>  (56) 
-8.74

>  <cluster_rmsd>  (56) 
1.11

>  <cluster>  (56) 
1

$$$$

     RDKit          3D

 51 54  0  0  0  0  0  0  0  0999 V2000
  140.8670   72.8540  221.1270 O   0  0  0  0  0  0  0  0  0  0  0  0
  140.1160   72.9660  222.1290 C   0  0  0  0  0  0  0  0  0  0  0  0
  139.2380   74.0900  222.2170 N   0  0  0  0  0  0  0  0  0  0  0  0
  139.2260   75.0640  221.1740 C   0  0  0  0  0  0  0  0  0  0  0  0
  140.0710   76.2560  221.4870 C   0  0  0  0  0  0  0  0  0  0  0  0
  141.3040   76.0670  221.5490 O   0  0  0  0  0  0  0  0  0  0  0  0
  139.4270   77.5010  221.6900 N   0  0  0  0  0  0  0  0  0  0  0  0
  137.9960   77.7950  221.4350 C   0  0  0  0  0  0  0  0  0  0  0  0
  137.6700   78.5400  222.7230 C   0  0  0  0  0  0  0  0  0  0  0  0
  138.9980   79.0170  223.3100 C   0  0  0  0  0  0  0  0  0  0  0  0
  139.9340   78.7620  222.1790 C   0  0  1  0  0  0  0  0  0  0  0  0
  141.3690   78.8910  222.4100 C   0  0  0  0  0  0  0  0  0  0  0  0
  141.9140   80.0590  221.6220 C   0  0  0  0  0  0  0  0  0  0  0  0
  142.1300   81.1150  222.6820 C   0  0  0  0  0  0  0  0  0  0  0  0
  142.6930   80.3100  223.8320 C   0  0  0  0  0  0  0  0  0  0  0  0
  141.7210   79.1420  223.8560 C   0  0  0  0  0  0  0  0  0  0  0  0
  140.1260   71.9730  223.1970 C   0  0  0  0  0  0  0  0  0  0  0  0
  139.6460   70.7020  222.9270 C   0  0  0  0  0  0  0  0  0  0  0  0
  139.6580   69.7750  223.9310 C   0  0  0  0  0  0  0  0  0  0  0  0
  140.1330   70.0800  225.1870 C   0  0  0  0  0  0  0  0  0  0  0  0
  140.1420   69.1410  226.1910 C   0  0  0  0  0  0  0  0  0  0  0  0
  140.6160   69.4220  227.4690 C   0  0  0  0  0  0  0  0  0  0  0  0
  140.6160   68.2090  228.7310 Cl  0  0  0  0  0  0  0  0  0  0  0  0
  141.0930   70.7110  227.7080 C   0  0  0  0  0  0  0  0  0  0  0  0
  141.0840   71.6630  226.6870 C   0  0  0  0  0  0  0  0  0  0  0  0
  140.6080   71.3500  225.4370 C   0  0  0  0  0  0  0  0  0  0  0  0
  140.5830   72.2420  224.4310 N   0  0  0  0  0  0  0  0  0  0  0  0
  138.6250   74.1490  223.0710 H   0  0  0  0  0  0  0  0  0  0  0  0
  139.6039   74.5972  220.2524 H   0  0  0  0  0  0  0  0  0  0  0  0
  138.1894   75.4133  221.0581 H   0  0  0  0  0  0  0  0  0  0  0  0
  137.8575   78.4283  220.5463 H   0  0  0  0  0  0  0  0  0  0  0  0
  137.3646   76.9195  221.2232 H   0  0  0  0  0  0  0  0  0  0  0  0
  137.0208   79.4015  222.5075 H   0  0  0  0  0  0  0  0  0  0  0  0
  137.1391   77.8870  223.4313 H   0  0  0  0  0  0  0  0  0  0  0  0
  138.9620   80.0857  223.5682 H   0  0  0  0  0  0  0  0  0  0  0  0
  139.2800   78.5136  224.2465 H   0  0  0  0  0  0  0  0  0  0  0  0
  139.9285   79.5621  221.4242 H   0  0  0  0  0  0  0  0  0  0  0  0
  141.8077   77.9322  222.0966 H   0  0  0  0  0  0  0  0  0  0  0  0
  142.8610   79.7952  221.1284 H   0  0  0  0  0  0  0  0  0  0  0  0
  141.2431   80.3871  220.8144 H   0  0  0  0  0  0  0  0  0  0  0  0
  142.8454   81.8787  222.3430 H   0  0  0  0  0  0  0  0  0  0  0  0
  141.2171   81.6717  222.9404 H   0  0  0  0  0  0  0  0  0  0  0  0
  143.7219   79.9777  223.6296 H   0  0  0  0  0  0  0  0  0  0  0  0
  142.7712   80.8603  224.7812 H   0  0  0  0  0  0  0  0  0  0  0  0
  142.1963   78.2535  224.2972 H   0  0  0  0  0  0  0  0  0  0  0  0
  140.8307   79.3602  224.4642 H   0  0  0  0  0  0  0  0  0  0  0  0
  139.2641   70.4449  221.9280 H   0  0  0  0  0  0  0  0  0  0  0  0
  139.2795   68.7617  223.7312 H   0  0  0  0  0  0  0  0  0  0  0  0
  139.7610   68.1316  225.9766 H   0  0  0  0  0  0  0  0  0  0  0  0
  141.4772   70.9779  228.7035 H   0  0  0  0  0  0  0  0  0  0  0  0
  141.4628   72.6764  226.8859 H   0  0  0  0  0  0  0  0  0  0  0  0
  1  2  2  0
  2  3  1  0
  3  4  1  0
  4  5  1  0
  5  6  2  0
  5  7  1  0
  7  8  1  0
  8  9  1  0
  9 10  1  0
 10 11  1  0
 11 12  1  0
 12 13  1  0
 13 14  1  0
 14 15  1  0
 15 16  1  0
  2 17  1  0
 17 18  2  0
 18 19  1  0
 19 20  2  0
 20 21  1  0
 21 22  2  0
 22 23  1  0
 22 24  1  0
 24 25  2  0
 25 26  1  0
 26 27  2  0
 11  7  1  0
 16 12  1  0
 27 17  1  0
 26 20  1  0
  3 28  1  0
  4 29  1  0
  4 30  1  0
  8 31  1  0
  8 32  1  0
  9 33  1  0
  9 34  1  0
 10 35  1  0
 10 36  1  0
 11 37  1  6
 12 38  1  0
 13 39  1  0
 13 40  1  0
 14 41  1  0
 14 42  1  0
 15 43  1  0
 15 44  1  0
 16 45  1  0
 16 46  1  0
 18 47  1  0
 19 48  1  0
 21 49  1  0
 24 50  1  0
 25 51  1  0
M  END
>  <smiles>  (57) 
O=C(NCC(=O)N1CCCC1C1CCCC1)c1ccc2cc(Cl)ccc2n1

>  <score_type>  (57) 
oracle

>  <origin>  (57) 
autodockgpu

>  <m_score__min__energy>  (57) 
-8.9199999999999999

>  <m_primary>  (57) 
energy

>  <rmsd>  (57) 
3.1142168277717515

>  <m_score__min__rmsd>  (57) 
3.1142168277717515

>  <meeko>  (57) 
{"free_energy": -8.74, "intermolecular_energy": -10.23, "internal_energy": -1.22, "cluster_size": 32, "cluster_id": 1, "rank_in_cluster": 6}

>  <energy>  (57) 
-8.7

>  <cluster_rmsd>  (57) 
0.58

>  <cluster>  (57) 
1

$$$$

     RDKit          3D

 51 54  0  0  0  0  0  0  0  0999 V2000
  141.7060   73.0470  220.9500 O   0  0  0  0  0  0  0  0  0  0  0  0
  140.9390   73.8590  221.5260 C   0  0  0  0  0  0  0  0  0  0  0  0
  139.8530   73.3560  222.3060 N   0  0  0  0  0  0  0  0  0  0  0  0
  139.6540   71.9480  222.4190 C   0  0  0  0  0  0  0  0  0  0  0  0
  139.8100   71.4530  223.8210 C   0  0  0  0  0  0  0  0  0  0  0  0
  140.6930   72.0020  224.5120 O   0  0  0  0  0  0  0  0  0  0  0  0
  138.9610   70.4100  224.2640 N   0  0  0  0  0  0  0  0  0  0  0  0
  137.5750   70.1580  223.8010 C   0  0  0  0  0  0  0  0  0  0  0  0
  137.6630   68.6530  223.5850 C   0  0  0  0  0  0  0  0  0  0  0  0
  138.8600   68.1560  224.3920 C   0  0  0  0  0  0  0  0  0  0  0  0
  139.1790   69.3510  225.2220 C   0  0  1  0  0  0  0  0  0  0  0  0
  140.4140   69.3620  225.9980 C   0  0  0  0  0  0  0  0  0  0  0  0
  140.3270   70.4040  227.0900 C   0  0  0  0  0  0  0  0  0  0  0  0
  140.1110   69.5760  228.3360 C   0  0  0  0  0  0  0  0  0  0  0  0
  141.0440   68.4070  228.1150 C   0  0  0  0  0  0  0  0  0  0  0  0
  140.7040   68.0460  226.6780 C   0  0  0  0  0  0  0  0  0  0  0  0
  141.1400   75.2990  221.4120 C   0  0  0  0  0  0  0  0  0  0  0  0
  141.9180   75.7820  220.3730 C   0  0  0  0  0  0  0  0  0  0  0  0
  142.1020   77.1320  220.2710 C   0  0  0  0  0  0  0  0  0  0  0  0
  141.5350   78.0060  221.1700 C   0  0  0  0  0  0  0  0  0  0  0  0
  141.7260   79.3640  221.0600 C   0  0  0  0  0  0  0  0  0  0  0  0
  141.1650   80.2690  221.9550 C   0  0  0  0  0  0  0  0  0  0  0  0
  141.4230   81.9930  221.7930 Cl  0  0  0  0  0  0  0  0  0  0  0  0
  140.3870   79.7510  222.9910 C   0  0  0  0  0  0  0  0  0  0  0  0
  140.1940   78.3730  223.1020 C   0  0  0  0  0  0  0  0  0  0  0  0
  140.7630   77.5080  222.1990 C   0  0  0  0  0  0  0  0  0  0  0  0
  140.5990   76.1750  222.2750 N   0  0  0  0  0  0  0  0  0  0  0  0
  139.2330   74.0680  222.7730 H   0  0  0  0  0  0  0  0  0  0  0  0
  138.6383   71.7074  222.0720 H   0  0  0  0  0  0  0  0  0  0  0  0
  140.4218   71.4541  221.8054 H   0  0  0  0  0  0  0  0  0  0  0  0
  136.8305   70.4215  224.5667 H   0  0  0  0  0  0  0  0  0  0  0  0
  137.2561   70.7427  222.9255 H   0  0  0  0  0  0  0  0  0  0  0  0
  136.7415   68.1662  223.9371 H   0  0  0  0  0  0  0  0  0  0  0  0
  137.7831   68.4157  222.5176 H   0  0  0  0  0  0  0  0  0  0  0  0
  138.5912   67.2925  225.0182 H   0  0  0  0  0  0  0  0  0  0  0  0
  139.6996   67.8025  223.7754 H   0  0  0  0  0  0  0  0  0  0  0  0
  138.5501   69.4315  226.1209 H   0  0  0  0  0  0  0  0  0  0  0  0
  141.2161   69.5762  225.2763 H   0  0  0  0  0  0  0  0  0  0  0  0
  141.2592   70.9840  227.1578 H   0  0  0  0  0  0  0  0  0  0  0  0
  139.5318   71.1446  226.9192 H   0  0  0  0  0  0  0  0  0  0  0  0
  140.3856   70.1388  229.2403 H   0  0  0  0  0  0  0  0  0  0  0  0
  139.0631   69.2789  228.4900 H   0  0  0  0  0  0  0  0  0  0  0  0
  142.0980   68.7036  228.2203 H   0  0  0  0  0  0  0  0  0  0  0  0
  140.9239   67.5835  228.8343 H   0  0  0  0  0  0  0  0  0  0  0  0
  141.5540   67.5414  226.1955 H   0  0  0  0  0  0  0  0  0  0  0  0
  139.8500   67.3552  226.6184 H   0  0  0  0  0  0  0  0  0  0  0  0
  142.3770   75.0949  219.6469 H   0  0  0  0  0  0  0  0  0  0  0  0
  142.7179   77.5296  219.4509 H   0  0  0  0  0  0  0  0  0  0  0  0
  142.3443   79.7477  220.2350 H   0  0  0  0  0  0  0  0  0  0  0  0
  139.9245   80.4303  223.7222 H   0  0  0  0  0  0  0  0  0  0  0  0
  139.5789   77.9749  223.9224 H   0  0  0  0  0  0  0  0  0  0  0  0
  1  2  2  0
  2  3  1  0
  3  4  1  0
  4  5  1  0
  5  6  2  0
  5  7  1  0
  7  8  1  0
  8  9  1  0
  9 10  1  0
 10 11  1  0
 11 12  1  0
 12 13  1  0
 13 14  1  0
 14 15  1  0
 15 16  1  0
  2 17  1  0
 17 18  2  0
 18 19  1  0
 19 20  2  0
 20 21  1  0
 21 22  2  0
 22 23  1  0
 22 24  1  0
 24 25  2  0
 25 26  1  0
 26 27  2  0
 11  7  1  0
 16 12  1  0
 27 17  1  0
 26 20  1  0
  3 28  1  0
  4 29  1  0
  4 30  1  0
  8 31  1  0
  8 32  1  0
  9 33  1  0
  9 34  1  0
 10 35  1  0
 10 36  1  0
 11 37  1  1
 12 38  1  0
 13 39  1  0
 13 40  1  0
 14 41  1  0
 14 42  1  0
 15 43  1  0
 15 44  1  0
 16 45  1  0
 16 46  1  0
 18 47  1  0
 19 48  1  0
 21 49  1  0
 24 50  1  0
 25 51  1  0
M  END
>  <smiles>  (58) 
O=C(NCC(=O)N1CCCC1C1CCCC1)c1ccc2cc(Cl)ccc2n1

>  <score_type>  (58) 
oracle

>  <origin>  (58) 
autodockgpu

>  <m_score__min__energy>  (58) 
-8.9199999999999999

>  <m_primary>  (58) 
energy

>  <rmsd>  (58) 
8.491236157605032

>  <m_score__min__rmsd>  (58) 
8.491236157605032

>  <meeko>  (58) 
{"free_energy": -8.51, "intermolecular_energy": -10.0, "internal_energy": -1.42, "cluster_size": 3, "cluster_id": 2, "rank_in_cluster": 1}

>  <energy>  (58) 
-8.68

>  <cluster_rmsd>  (58) 
1.13

>  <cluster>  (58) 
1

$$$$

     RDKit          3D

 51 54  0  0  0  0  0  0  0  0999 V2000
  140.0100   72.4510  220.7010 O   0  0  0  0  0  0  0  0  0  0  0  0
  139.8360   72.8320  221.8870 C   0  0  0  0  0  0  0  0  0  0  0  0
  139.5500   74.2090  222.1390 N   0  0  0  0  0  0  0  0  0  0  0  0
  139.4660   75.1270  221.0500 C   0  0  0  0  0  0  0  0  0  0  0  0
  140.7460   75.8620  220.8140 C   0  0  0  0  0  0  0  0  0  0  0  0
  141.1060   76.6590  221.7040 O   0  0  0  0  0  0  0  0  0  0  0  0
  141.4540   75.6090  219.6140 N   0  0  0  0  0  0  0  0  0  0  0  0
  141.0180   75.9830  218.2470 C   0  0  0  0  0  0  0  0  0  0  0  0
  142.3230   76.5710  217.7290 C   0  0  0  0  0  0  0  0  0  0  0  0
  143.4400   76.0290  218.6200 C   0  0  0  0  0  0  0  0  0  0  0  0
  142.7270   74.9650  219.3810 C   0  0  1  0  0  0  0  0  0  0  0  0
  143.4010   74.3340  220.5100 C   0  0  0  0  0  0  0  0  0  0  0  0
  143.1190   72.8490  220.5120 C   0  0  0  0  0  0  0  0  0  0  0  0
  144.4170   72.2540  220.0150 C   0  0  0  0  0  0  0  0  0  0  0  0
  145.4530   73.0950  220.7260 C   0  0  0  0  0  0  0  0  0  0  0  0
  144.9020   74.4890  220.4720 C   0  0  0  0  0  0  0  0  0  0  0  0
  139.9220   71.8960  223.0020 C   0  0  0  0  0  0  0  0  0  0  0  0
  139.4930   70.5930  222.8110 C   0  0  0  0  0  0  0  0  0  0  0  0
  139.5750   69.7210  223.8590 C   0  0  0  0  0  0  0  0  0  0  0  0
  140.0710   70.1100  225.0830 C   0  0  0  0  0  0  0  0  0  0  0  0
  140.1510   69.2250  226.1330 C   0  0  0  0  0  0  0  0  0  0  0  0
  140.6460   69.5920  227.3800 C   0  0  0  0  0  0  0  0  0  0  0  0
  140.7360   68.4470  228.7000 Cl  0  0  0  0  0  0  0  0  0  0  0  0
  141.0700   70.9120  227.5400 C   0  0  0  0  0  0  0  0  0  0  0  0
  140.9880   71.8100  226.4740 C   0  0  0  0  0  0  0  0  0  0  0  0
  140.4930   71.4120  225.2560 C   0  0  0  0  0  0  0  0  0  0  0  0
  140.4000   72.2490  224.2070 N   0  0  0  0  0  0  0  0  0  0  0  0
  139.4120   74.4900  223.1450 H   0  0  0  0  0  0  0  0  0  0  0  0
  139.2079   74.5684  220.1382 H   0  0  0  0  0  0  0  0  0  0  0  0
  138.6972   75.8721  221.3025 H   0  0  0  0  0  0  0  0  0  0  0  0
  140.7001   75.1073  217.6621 H   0  0  0  0  0  0  0  0  0  0  0  0
  140.1464   76.6522  218.1965 H   0  0  0  0  0  0  0  0  0  0  0  0
  142.4885   76.2634  216.6859 H   0  0  0  0  0  0  0  0  0  0  0  0
  142.2970   77.6704  217.7558 H   0  0  0  0  0  0  0  0  0  0  0  0
  144.2635   75.6115  218.0220 H   0  0  0  0  0  0  0  0  0  0  0  0
  143.9153   76.7911  219.2550 H   0  0  0  0  0  0  0  0  0  0  0  0
  142.6487   74.0175  218.8278 H   0  0  0  0  0  0  0  0  0  0  0  0
  143.0121   74.8370  221.4077 H   0  0  0  0  0  0  0  0  0  0  0  0
  142.8838   72.4929  221.5258 H   0  0  0  0  0  0  0  0  0  0  0  0
  142.2516   72.5723  219.8947 H   0  0  0  0  0  0  0  0  0  0  0  0
  144.5028   71.1943  220.2972 H   0  0  0  0  0  0  0  0  0  0  0  0
  144.5159   72.2681  218.9195 H   0  0  0  0  0  0  0  0  0  0  0  0
  145.4947   72.8647  221.8008 H   0  0  0  0  0  0  0  0  0  0  0  0
  146.4852   72.9403  220.3786 H   0  0  0  0  0  0  0  0  0  0  0  0
  145.2379   75.1851  221.2547 H   0  0  0  0  0  0  0  0  0  0  0  0
  145.2488   74.8997  219.5123 H   0  0  0  0  0  0  0  0  0  0  0  0
  139.0956   70.2681  221.8381 H   0  0  0  0  0  0  0  0  0  0  0  0
  139.2367   68.6833  223.7219 H   0  0  0  0  0  0  0  0  0  0  0  0
  139.8113   68.1899  225.9810 H   0  0  0  0  0  0  0  0  0  0  0  0
  141.4700   71.2459  228.5088 H   0  0  0  0  0  0  0  0  0  0  0  0
  141.3238   72.8485  226.6111 H   0  0  0  0  0  0  0  0  0  0  0  0
  1  2  2  0
  2  3  1  0
  3  4  1  0
  4  5  1  0
  5  6  2  0
  5  7  1  0
  7  8  1  0
  8  9  1  0
  9 10  1  0
 10 11  1  0
 11 12  1  0
 12 13  1  0
 13 14  1  0
 14 15  1  0
 15 16  1  0
  2 17  1  0
 17 18  2  0
 18 19  1  0
 19 20  2  0
 20 21  1  0
 21 22  2  0
 22 23  1  0
 22 24  1  0
 24 25  2  0
 25 26  1  0
 26 27  2  0
 11  7  1  0
 16 12  1  0
 27 17  1  0
 26 20  1  0
  3 28  1  0
  4 29  1  0
  4 30  1  0
  8 31  1  0
  8 32  1  0
  9 33  1  0
  9 34  1  0
 10 35  1  0
 10 36  1  0
 11 37  1  6
 12 38  1  0
 13 39  1  0
 13 40  1  0
 14 41  1  0
 14 42  1  0
 15 43  1  0
 15 44  1  0
 16 45  1  0
 16 46  1  0
 18 47  1  0
 19 48  1  0
 21 49  1  0
 24 50  1  0
 25 51  1  0
M  END
>  <smiles>  (59) 
O=C(NCC(=O)N1CCCC1C1CCCC1)c1ccc2cc(Cl)ccc2n1

>  <score_type>  (59) 
oracle

>  <origin>  (59) 
autodockgpu

>  <m_score__min__energy>  (59) 
-8.9199999999999999

>  <m_primary>  (59) 
energy

>  <rmsd>  (59) 
2.0144262157159196

>  <m_score__min__rmsd>  (59) 
2.0144262157159196

>  <meeko>  (59) 
{"free_energy": -7.86, "intermolecular_energy": -9.35, "internal_energy": -1.9, "cluster_size": 32, "cluster_id": 1, "rank_in_cluster": 24}

>  <energy>  (59) 
-8.64

>  <cluster_rmsd>  (59) 
0.68

>  <cluster>  (59) 
1

$$$$

     RDKit          3D

 51 54  0  0  0  0  0  0  0  0999 V2000
  139.9400   72.4140  220.3540 O   0  0  0  0  0  0  0  0  0  0  0  0
  140.1230   72.8390  221.5230 C   0  0  0  0  0  0  0  0  0  0  0  0
  140.3780   74.2300  221.7250 N   0  0  0  0  0  0  0  0  0  0  0  0
  140.4230   75.1130  220.6040 C   0  0  0  0  0  0  0  0  0  0  0  0
  141.8130   75.5430  220.2630 C   0  0  0  0  0  0  0  0  0  0  0  0
  142.6770   74.6440  220.1990 O   0  0  0  0  0  0  0  0  0  0  0  0
  142.0540   76.9210  220.0400 N   0  0  0  0  0  0  0  0  0  0  0  0
  142.7570   77.5060  218.8730 C   0  0  0  0  0  0  0  0  0  0  0  0
  141.7910   78.6380  218.5520 C   0  0  0  0  0  0  0  0  0  0  0  0
  140.9600   78.8840  219.8100 C   0  0  0  0  0  0  0  0  0  0  0  0
  141.7040   78.0840  220.8220 C   0  0  1  0  0  0  0  0  0  0  0  0
  141.1070   77.8810  222.1370 C   0  0  0  0  0  0  0  0  0  0  0  0
  141.8200   78.7330  223.1630 C   0  0  0  0  0  0  0  0  0  0  0  0
  140.8390   79.8550  223.4150 C   0  0  0  0  0  0  0  0  0  0  0  0
  139.5130   79.1290  223.4390 C   0  0  0  0  0  0  0  0  0  0  0  0
  139.6480   78.2630  222.1960 C   0  0  0  0  0  0  0  0  0  0  0  0
  140.0770   71.9400  222.6700 C   0  0  0  0  0  0  0  0  0  0  0  0
  139.4940   70.6930  222.5150 C   0  0  0  0  0  0  0  0  0  0  0  0
  139.4540   69.8540  223.5930 C   0  0  0  0  0  0  0  0  0  0  0  0
  139.9780   70.2230  224.8120 C   0  0  0  0  0  0  0  0  0  0  0  0
  139.9340   69.3730  225.8910 C   0  0  0  0  0  0  0  0  0  0  0  0
  140.4540   69.7200  227.1340 C   0  0  0  0  0  0  0  0  0  0  0  0
  140.3850   68.6190  228.4930 Cl  0  0  0  0  0  0  0  0  0  0  0  0
  141.0340   70.9830  227.2580 C   0  0  0  0  0  0  0  0  0  0  0  0
  141.0780   71.8450  226.1610 C   0  0  0  0  0  0  0  0  0  0  0  0
  140.5550   71.4690  224.9480 C   0  0  0  0  0  0  0  0  0  0  0  0
  140.5790   72.2730  223.8700 N   0  0  0  0  0  0  0  0  0  0  0  0
  140.5260   74.5480  222.7180 H   0  0  0  0  0  0  0  0  0  0  0  0
  139.9904   74.5984  219.7333 H   0  0  0  0  0  0  0  0  0  0  0  0
  139.8521   76.0151  220.8690 H   0  0  0  0  0  0  0  0  0  0  0  0
  143.7564   77.8804  219.1394 H   0  0  0  0  0  0  0  0  0  0  0  0
  142.9592   76.8094  218.0460 H   0  0  0  0  0  0  0  0  0  0  0  0
  142.3495   79.5470  218.2841 H   0  0  0  0  0  0  0  0  0  0  0  0
  141.1465   78.3753  217.7001 H   0  0  0  0  0  0  0  0  0  0  0  0
  140.9416   79.9511  220.0765 H   0  0  0  0  0  0  0  0  0  0  0  0
  139.9012   78.6037  219.7086 H   0  0  0  0  0  0  0  0  0  0  0  0
  142.5730   78.6147  221.2382 H   0  0  0  0  0  0  0  0  0  0  0  0
  141.2036   76.8050  222.3443 H   0  0  0  0  0  0  0  0  0  0  0  0
  142.0140   78.1634  224.0838 H   0  0  0  0  0  0  0  0  0  0  0  0
  142.8048   79.0866  222.8236 H   0  0  0  0  0  0  0  0  0  0  0  0
  141.0391   80.3498  224.3769 H   0  0  0  0  0  0  0  0  0  0  0  0
  140.8869   80.6572  222.6638 H   0  0  0  0  0  0  0  0  0  0  0  0
  139.4000   78.5198  224.3479 H   0  0  0  0  0  0  0  0  0  0  0  0
  138.6309   79.7862  223.4460 H   0  0  0  0  0  0  0  0  0  0  0  0
  139.0173   77.3657  222.2806 H   0  0  0  0  0  0  0  0  0  0  0  0
  139.3246   78.7933  221.2881 H   0  0  0  0  0  0  0  0  0  0  0  0
  139.0730   70.3852  221.5465 H   0  0  0  0  0  0  0  0  0  0  0  0
  138.9927   68.8613  223.4846 H   0  0  0  0  0  0  0  0  0  0  0  0
  139.4711   68.3828  225.7675 H   0  0  0  0  0  0  0  0  0  0  0  0
  141.4575   71.3001  228.2224 H   0  0  0  0  0  0  0  0  0  0  0  0
  141.5376   72.8385  226.2694 H   0  0  0  0  0  0  0  0  0  0  0  0
  1  2  2  0
  2  3  1  0
  3  4  1  0
  4  5  1  0
  5  6  2  0
  5  7  1  0
  7  8  1  0
  8  9  1  0
  9 10  1  0
 10 11  1  0
 11 12  1  0
 12 13  1  0
 13 14  1  0
 14 15  1  0
 15 16  1  0
  2 17  1  0
 17 18  2  0
 18 19  1  0
 19 20  2  0
 20 21  1  0
 21 22  2  0
 22 23  1  0
 22 24  1  0
 24 25  2  0
 25 26  1  0
 26 27  2  0
 11  7  1  0
 16 12  1  0
 27 17  1  0
 26 20  1  0
  3 28  1  0
  4 29  1  0
  4 30  1  0
  8 31  1  0
  8 32  1  0
  9 33  1  0
  9 34  1  0
 10 35  1  0
 10 36  1  0
 11 37  1  1
 12 38  1  0
 13 39  1  0
 13 40  1  0
 14 41  1  0
 14 42  1  0
 15 43  1  0
 15 44  1  0
 16 45  1  0
 16 46  1  0
 18 47  1  0
 19 48  1  0
 21 49  1  0
 24 50  1  0
 25 51  1  0
M  END
>  <smiles>  (60) 
O=C(NCC(=O)N1CCCC1C1CCCC1)c1ccc2cc(Cl)ccc2n1

>  <score_type>  (60) 
oracle

>  <origin>  (60) 
autodockgpu

>  <m_score__min__energy>  (60) 
-8.9199999999999999

>  <m_primary>  (60) 
energy

>  <rmsd>  (60) 
2.5285243370168575

>  <m_score__min__rmsd>  (60) 
2.5285243370168575

>  <meeko>  (60) 
{"free_energy": -7.52, "intermolecular_energy": -9.01, "internal_energy": -1.52, "cluster_size": 32, "cluster_id": 1, "rank_in_cluster": 31}

>  <energy>  (60) 
-8.61

>  <cluster_rmsd>  (60) 
1.13

>  <cluster>  (60) 
1

$$$$

     RDKit          3D

 51 54  0  0  0  0  0  0  0  0999 V2000
  139.6470   72.2600  220.8390 O   0  0  0  0  0  0  0  0  0  0  0  0
  139.6610   72.6370  222.0390 C   0  0  0  0  0  0  0  0  0  0  0  0
  139.5250   74.0280  222.3320 N   0  0  0  0  0  0  0  0  0  0  0  0
  139.3780   74.9670  221.2670 C   0  0  0  0  0  0  0  0  0  0  0  0
  140.1600   76.2210  221.4900 C   0  0  0  0  0  0  0  0  0  0  0  0
  141.4030   76.1090  221.5040 O   0  0  0  0  0  0  0  0  0  0  0  0
  139.4490   77.4330  221.6670 N   0  0  0  0  0  0  0  0  0  0  0  0
  137.9930   77.6290  221.4640 C   0  0  0  0  0  0  0  0  0  0  0  0
  137.6760   78.4110  222.7310 C   0  0  0  0  0  0  0  0  0  0  0  0
  138.9950   78.9930  223.2370 C   0  0  0  0  0  0  0  0  0  0  0  0
  139.8970   78.7430  222.0780 C   0  0  1  0  0  0  0  0  0  0  0  0
  141.3290   78.9670  222.2390 C   0  0  0  0  0  0  0  0  0  0  0  0
  141.6990   80.3340  221.7110 C   0  0  0  0  0  0  0  0  0  0  0  0
  141.9120   81.1410  222.9710 C   0  0  0  0  0  0  0  0  0  0  0  0
  142.6430   80.1630  223.8630 C   0  0  0  0  0  0  0  0  0  0  0  0
  141.7830   78.9230  223.6780 C   0  0  0  0  0  0  0  0  0  0  0  0
  139.8120   71.6800  223.1300 C   0  0  0  0  0  0  0  0  0  0  0  0
  139.4320   70.3650  222.9180 C   0  0  0  0  0  0  0  0  0  0  0  0
  139.5760   69.4730  223.9430 C   0  0  0  0  0  0  0  0  0  0  0  0
  140.0850   69.8560  225.1640 C   0  0  0  0  0  0  0  0  0  0  0  0
  140.2260   68.9510  226.1900 C   0  0  0  0  0  0  0  0  0  0  0  0
  140.7370   69.3110  227.4340 C   0  0  0  0  0  0  0  0  0  0  0  0
  140.9060   68.1410  228.7250 Cl  0  0  0  0  0  0  0  0  0  0  0  0
  141.1090   70.6430  227.6150 C   0  0  0  0  0  0  0  0  0  0  0  0
  140.9650   71.5600  226.5720 C   0  0  0  0  0  0  0  0  0  0  0  0
  140.4570   71.1700  225.3570 C   0  0  0  0  0  0  0  0  0  0  0  0
  140.3040   72.0250  224.3310 N   0  0  0  0  0  0  0  0  0  0  0  0
  139.5420   74.3040  223.3490 H   0  0  0  0  0  0  0  0  0  0  0  0
  139.7242   74.4979  220.3342 H   0  0  0  0  0  0  0  0  0  0  0  0
  138.3148   75.2442  221.2135 H   0  0  0  0  0  0  0  0  0  0  0  0
  137.7784   78.2114  220.5559 H   0  0  0  0  0  0  0  0  0  0  0  0
  137.4086   76.7085  221.3189 H   0  0  0  0  0  0  0  0  0  0  0  0
  136.9664   79.2212  222.5075 H   0  0  0  0  0  0  0  0  0  0  0  0
  137.2166   77.7605  223.4898 H   0  0  0  0  0  0  0  0  0  0  0  0
  138.9038   80.0683  223.4500 H   0  0  0  0  0  0  0  0  0  0  0  0
  139.3463   78.5508  224.1810 H   0  0  0  0  0  0  0  0  0  0  0  0
  139.8106   79.5065  221.2909 H   0  0  0  0  0  0  0  0  0  0  0  0
  141.8202   78.1546  221.6834 H   0  0  0  0  0  0  0  0  0  0  0  0
  142.6193   80.2896  221.1101 H   0  0  0  0  0  0  0  0  0  0  0  0
  140.9344   80.7628  221.0466 H   0  0  0  0  0  0  0  0  0  0  0  0
  142.5239   82.0335  222.7733 H   0  0  0  0  0  0  0  0  0  0  0  0
  140.9793   81.5243  223.4104 H   0  0  0  0  0  0  0  0  0  0  0  0
  143.6754   79.9958  223.5220 H   0  0  0  0  0  0  0  0  0  0  0  0
  142.7560   80.4909  224.9069 H   0  0  0  0  0  0  0  0  0  0  0  0
  142.3714   78.0135  223.8691 H   0  0  0  0  0  0  0  0  0  0  0  0
  140.9335   78.9040  224.3766 H   0  0  0  0  0  0  0  0  0  0  0  0
  139.0240   70.0463  221.9475 H   0  0  0  0  0  0  0  0  0  0  0  0
  139.2786   68.4252  223.7894 H   0  0  0  0  0  0  0  0  0  0  0  0
  139.9246   67.9065  226.0219 H   0  0  0  0  0  0  0  0  0  0  0  0
  141.5169   70.9720  228.5821 H   0  0  0  0  0  0  0  0  0  0  0  0
  141.2621   72.6080  226.7253 H   0  0  0  0  0  0  0  0  0  0  0  0
  1  2  2  0
  2  3  1  0
  3  4  1  0
  4  5  1  0
  5  6  2  0
  5  7  1  0
  7  8  1  0
  8  9  1  0
  9 10  1  0
 10 11  1  0
 11 12  1  0
 12 13  1  0
 13 14  1  0
 14 15  1  0
 15 16  1  0
  2 17  1  0
 17 18  2  0
 18 19  1  0
 19 20  2  0
 20 21  1  0
 21 22  2  0
 22 23  1  0
 22 24  1  0
 24 25  2  0
 25 26  1  0
 26 27  2  0
 11  7  1  0
 16 12  1  0
 27 17  1  0
 26 20  1  0
  3 28  1  0
  4 29  1  0
  4 30  1  0
  8 31  1  0
  8 32  1  0
  9 33  1  0
  9 34  1  0
 10 35  1  0
 10 36  1  0
 11 37  1  6
 12 38  1  0
 13 39  1  0
 13 40  1  0
 14 41  1  0
 14 42  1  0
 15 43  1  0
 15 44  1  0
 16 45  1  0
 16 46  1  0
 18 47  1  0
 19 48  1  0
 21 49  1  0
 24 50  1  0
 25 51  1  0
M  END
>  <smiles>  (61) 
O=C(NCC(=O)N1CCCC1C1CCCC1)c1ccc2cc(Cl)ccc2n1

>  <score_type>  (61) 
oracle

>  <origin>  (61) 
autodockgpu

>  <m_score__min__energy>  (61) 
-8.9199999999999999

>  <m_primary>  (61) 
energy

>  <rmsd>  (61) 
3.0181554605909224

>  <m_score__min__rmsd>  (61) 
3.0181554605909224

>  <meeko>  (61) 
{"free_energy": -8.61, "intermolecular_energy": -10.1, "internal_energy": -1.38, "cluster_size": 32, "cluster_id": 1, "rank_in_cluster": 11}

>  <energy>  (61) 
-8.61

>  <cluster_rmsd>  (61) 
1.16

>  <cluster>  (61) 
1

$$$$

     RDKit          3D

 51 54  0  0  0  0  0  0  0  0999 V2000
  138.8040   72.8240  220.7710 O   0  0  0  0  0  0  0  0  0  0  0  0
  139.7770   72.8160  221.5670 C   0  0  0  0  0  0  0  0  0  0  0  0
  140.8760   73.6980  221.3310 N   0  0  0  0  0  0  0  0  0  0  0  0
  140.8560   74.5690  220.2010 C   0  0  0  0  0  0  0  0  0  0  0  0
  141.2580   75.9680  220.5420 C   0  0  0  0  0  0  0  0  0  0  0  0
  142.4750   76.2340  220.4660 O   0  0  0  0  0  0  0  0  0  0  0  0
  140.2470   76.8830  220.9250 N   0  0  0  0  0  0  0  0  0  0  0  0
  138.8000   76.7610  220.6220 C   0  0  0  0  0  0  0  0  0  0  0  0
  138.2370   77.0930  221.9980 C   0  0  0  0  0  0  0  0  0  0  0  0
  139.3350   77.8310  222.7620 C   0  0  0  0  0  0  0  0  0  0  0  0
  140.3170   78.1130  221.6780 C   0  0  1  0  0  0  0  0  0  0  0  0
  141.6320   78.6330  222.0360 C   0  0  0  0  0  0  0  0  0  0  0  0
  141.8260   80.0040  221.4300 C   0  0  0  0  0  0  0  0  0  0  0  0
  141.6630   80.9270  222.6160 C   0  0  0  0  0  0  0  0  0  0  0  0
  142.3960   80.1840  223.7090 C   0  0  0  0  0  0  0  0  0  0  0  0
  141.8290   78.7860  223.5250 C   0  0  0  0  0  0  0  0  0  0  0  0
  139.8010   71.9260  222.7230 C   0  0  0  0  0  0  0  0  0  0  0  0
  139.1790   70.6920  222.6250 C   0  0  0  0  0  0  0  0  0  0  0  0
  139.2050   69.8630  223.7100 C   0  0  0  0  0  0  0  0  0  0  0  0
  139.8300   70.2290  224.8810 C   0  0  0  0  0  0  0  0  0  0  0  0
  139.8510   69.3870  225.9690 C   0  0  0  0  0  0  0  0  0  0  0  0
  140.4740   69.7320  227.1640 C   0  0  0  0  0  0  0  0  0  0  0  0
  140.4860   68.6430  228.5350 Cl  0  0  0  0  0  0  0  0  0  0  0  0
  141.0910   70.9820  227.2300 C   0  0  0  0  0  0  0  0  0  0  0  0
  141.0690   71.8350  226.1260 C   0  0  0  0  0  0  0  0  0  0  0  0
  140.4440   71.4610  224.9610 C   0  0  0  0  0  0  0  0  0  0  0  0
  140.4020   72.2570  223.8770 N   0  0  0  0  0  0  0  0  0  0  0  0
  141.6720   73.6620  222.0200 H   0  0  0  0  0  0  0  0  0  0  0  0
  141.5512   74.1781  219.4434 H   0  0  0  0  0  0  0  0  0  0  0  0
  139.8222   74.6029  219.8267 H   0  0  0  0  0  0  0  0  0  0  0  0
  138.4764   77.4842  219.8589 H   0  0  0  0  0  0  0  0  0  0  0  0
  138.4851   75.7935  220.2039 H   0  0  0  0  0  0  0  0  0  0  0  0
  137.3491   77.7346  221.8984 H   0  0  0  0  0  0  0  0  0  0  0  0
  137.9342   76.1790  222.5299 H   0  0  0  0  0  0  0  0  0  0  0  0
  138.9558   78.7605  223.2117 H   0  0  0  0  0  0  0  0  0  0  0  0
  139.7519   77.2626  223.6065 H   0  0  0  0  0  0  0  0  0  0  0  0
  140.0641   79.0066  221.0885 H   0  0  0  0  0  0  0  0  0  0  0  0
  142.3559   77.8986  221.6531 H   0  0  0  0  0  0  0  0  0  0  0  0
  142.8283   80.1023  220.9875 H   0  0  0  0  0  0  0  0  0  0  0  0
  141.1219   80.2200  220.6129 H   0  0  0  0  0  0  0  0  0  0  0  0
  142.1233   81.9073  222.4235 H   0  0  0  0  0  0  0  0  0  0  0  0
  140.6133   81.1460  222.8613 H   0  0  0  0  0  0  0  0  0  0  0  0
  143.4848   80.2040  223.5534 H   0  0  0  0  0  0  0  0  0  0  0  0
  142.2613   80.6033  224.7170 H   0  0  0  0  0  0  0  0  0  0  0  0
  142.5350   78.0307  223.9006 H   0  0  0  0  0  0  0  0  0  0  0  0
  140.8902   78.6461  224.0810 H   0  0  0  0  0  0  0  0  0  0  0  0
  138.6761   70.3872  221.6954 H   0  0  0  0  0  0  0  0  0  0  0  0
  138.7153   68.8801  223.6469 H   0  0  0  0  0  0  0  0  0  0  0  0
  139.3579   68.4068  225.8912 H   0  0  0  0  0  0  0  0  0  0  0  0
  141.5963   71.2958  228.1553 H   0  0  0  0  0  0  0  0  0  0  0  0
  141.5578   72.8184  226.1891 H   0  0  0  0  0  0  0  0  0  0  0  0
  1  2  2  0
  2  3  1  0
  3  4  1  0
  4  5  1  0
  5  6  2  0
  5  7  1  0
  7  8  1  0
  8  9  1  0
  9 10  1  0
 10 11  1  0
 11 12  1  0
 12 13  1  0
 13 14  1  0
 14 15  1  0
 15 16  1  0
  2 17  1  0
 17 18  2  0
 18 19  1  0
 19 20  2  0
 20 21  1  0
 21 22  2  0
 22 23  1  0
 22 24  1  0
 24 25  2  0
 25 26  1  0
 26 27  2  0
 11  7  1  0
 16 12  1  0
 27 17  1  0
 26 20  1  0
  3 28  1  0
  4 29  1  0
  4 30  1  0
  8 31  1  0
  8 32  1  0
  9 33  1  0
  9 34  1  0
 10 35  1  0
 10 36  1  0
 11 37  1  6
 12 38  1  0
 13 39  1  0
 13 40  1  0
 14 41  1  0
 14 42  1  0
 15 43  1  0
 15 44  1  0
 16 45  1  0
 16 46  1  0
 18 47  1  0
 19 48  1  0
 21 49  1  0
 24 50  1  0
 25 51  1  0
M  END
>  <smiles>  (62) 
O=C(NCC(=O)N1CCCC1C1CCCC1)c1ccc2cc(Cl)ccc2n1

>  <score_type>  (62) 
oracle

>  <origin>  (62) 
autodockgpu

>  <m_score__min__energy>  (62) 
-8.9199999999999999

>  <m_primary>  (62) 
energy

>  <rmsd>  (62) 
2.8059511747270602

>  <m_score__min__rmsd>  (62) 
2.8059511747270602

>  <meeko>  (62) 
{"free_energy": -7.71, "intermolecular_energy": -9.2, "internal_energy": -1.56, "cluster_size": 32, "cluster_id": 1, "rank_in_cluster": 27}

>  <energy>  (62) 
-8.6

>  <cluster_rmsd>  (62) 
0.53

>  <cluster>  (62) 
1

$$$$

     RDKit          3D

 51 54  0  0  0  0  0  0  0  0999 V2000
  141.1220   74.2890  221.4290 O   0  0  0  0  0  0  0  0  0  0  0  0
  140.0350   74.6220  221.9660 C   0  0  0  0  0  0  0  0  0  0  0  0
  139.0740   73.6120  222.2760 N   0  0  0  0  0  0  0  0  0  0  0  0
  139.3570   72.2460  221.9730 C   0  0  0  0  0  0  0  0  0  0  0  0
  139.8540   71.4830  223.1580 C   0  0  0  0  0  0  0  0  0  0  0  0
  141.0880   71.4760  223.3420 O   0  0  0  0  0  0  0  0  0  0  0  0
  138.9050   70.8280  223.9810 N   0  0  0  0  0  0  0  0  0  0  0  0
  137.4470   70.7340  223.7270 C   0  0  0  0  0  0  0  0  0  0  0  0
  137.2470   69.2520  224.0170 C   0  0  0  0  0  0  0  0  0  0  0  0
  138.4390   68.7980  224.8580 C   0  0  0  0  0  0  0  0  0  0  0  0
  139.0640   70.1010  225.2190 C   0  0  1  0  0  0  0  0  0  0  0  0
  140.3750   70.1000  225.8580 C   0  0  0  0  0  0  0  0  0  0  0  0
  140.6460   71.4500  226.4800 C   0  0  0  0  0  0  0  0  0  0  0  0
  140.4510   71.1910  227.9570 C   0  0  0  0  0  0  0  0  0  0  0  0
  141.1020   69.8380  228.1380 C   0  0  0  0  0  0  0  0  0  0  0  0
  140.4990   69.0810  226.9650 C   0  0  0  0  0  0  0  0  0  0  0  0
  139.7420   76.0170  222.2760 C   0  0  0  0  0  0  0  0  0  0  0  0
  140.7910   76.9180  222.3440 C   0  0  0  0  0  0  0  0  0  0  0  0
  140.5110   78.2230  222.6350 C   0  0  0  0  0  0  0  0  0  0  0  0
  139.2210   78.6500  222.8570 C   0  0  0  0  0  0  0  0  0  0  0  0
  138.9480   79.9660  223.1490 C   0  0  0  0  0  0  0  0  0  0  0  0
  137.6540   80.4240  223.3780 C   0  0  0  0  0  0  0  0  0  0  0  0
  137.3330   82.1040  223.7490 Cl  0  0  0  0  0  0  0  0  0  0  0  0
  136.6190   79.4920  223.3020 C   0  0  0  0  0  0  0  0  0  0  0  0
  136.8980   78.1560  223.0060 C   0  0  0  0  0  0  0  0  0  0  0  0
  138.1880   77.7390  222.7850 C   0  0  0  0  0  0  0  0  0  0  0  0
  138.4940   76.4610  222.4980 N   0  0  0  0  0  0  0  0  0  0  0  0
  138.1760   73.9310  222.7250 H   0  0  0  0  0  0  0  0  0  0  0  0
  138.4357   71.7684  221.6082 H   0  0  0  0  0  0  0  0  0  0  0  0
  140.1513   72.2323  221.2122 H   0  0  0  0  0  0  0  0  0  0  0  0
  136.8675   71.3699  224.4125 H   0  0  0  0  0  0  0  0  0  0  0  0
  137.1186   71.0689  222.7320 H   0  0  0  0  0  0  0  0  0  0  0  0
  136.3110   69.0988  224.5742 H   0  0  0  0  0  0  0  0  0  0  0  0
  137.1817   68.6740  223.0833 H   0  0  0  0  0  0  0  0  0  0  0  0
  138.1126   68.2477  225.7528 H   0  0  0  0  0  0  0  0  0  0  0  0
  139.1166   68.1056  224.3370 H   0  0  0  0  0  0  0  0  0  0  0  0
  138.5827   70.5861  226.0810 H   0  0  0  0  0  0  0  0  0  0  0  0
  141.0929   69.8531  225.0620 H   0  0  0  0  0  0  0  0  0  0  0  0
  141.6730   71.7830  226.2695 H   0  0  0  0  0  0  0  0  0  0  0  0
  139.9935   72.2451  226.0901 H   0  0  0  0  0  0  0  0  0  0  0  0
  140.9522   71.9584  228.5652 H   0  0  0  0  0  0  0  0  0  0  0  0
  139.3976   71.2177  228.2727 H   0  0  0  0  0  0  0  0  0  0  0  0
  142.1975   69.9009  228.0607 H   0  0  0  0  0  0  0  0  0  0  0  0
  140.9294   69.3741  229.1203 H   0  0  0  0  0  0  0  0  0  0  0  0
  141.1589   68.2562  226.6579 H   0  0  0  0  0  0  0  0  0  0  0  0
  139.5281   68.6318  227.2210 H   0  0  0  0  0  0  0  0  0  0  0  0
  141.8262   76.5905  222.1677 H   0  0  0  0  0  0  0  0  0  0  0  0
  141.3350   78.9493  222.6933 H   0  0  0  0  0  0  0  0  0  0  0  0
  139.7817   80.6816  223.2034 H   0  0  0  0  0  0  0  0  0  0  0  0
  135.5804   79.8101  223.4757 H   0  0  0  0  0  0  0  0  0  0  0  0
  136.0747   77.4288  222.9491 H   0  0  0  0  0  0  0  0  0  0  0  0
  1  2  2  0
  2  3  1  0
  3  4  1  0
  4  5  1  0
  5  6  2  0
  5  7  1  0
  7  8  1  0
  8  9  1  0
  9 10  1  0
 10 11  1  0
 11 12  1  0
 12 13  1  0
 13 14  1  0
 14 15  1  0
 15 16  1  0
  2 17  1  0
 17 18  2  0
 18 19  1  0
 19 20  2  0
 20 21  1  0
 21 22  2  0
 22 23  1  0
 22 24  1  0
 24 25  2  0
 25 26  1  0
 26 27  2  0
 11  7  1  0
 16 12  1  0
 27 17  1  0
 26 20  1  0
  3 28  1  0
  4 29  1  0
  4 30  1  0
  8 31  1  0
  8 32  1  0
  9 33  1  0
  9 34  1  0
 10 35  1  0
 10 36  1  0
 11 37  1  1
 12 38  1  0
 13 39  1  0
 13 40  1  0
 14 41  1  0
 14 42  1  0
 15 43  1  0
 15 44  1  0
 16 45  1  0
 16 46  1  0
 18 47  1  0
 19 48  1  0
 21 49  1  0
 24 50  1  0
 25 51  1  0
M  END
>  <smiles>  (63) 
O=C(NCC(=O)N1CCCC1C1CCCC1)c1ccc2cc(Cl)ccc2n1

>  <score_type>  (63) 
oracle

>  <origin>  (63) 
autodockgpu

>  <m_score__min__energy>  (63) 
-8.9199999999999999

>  <m_primary>  (63) 
energy

>  <rmsd>  (63) 
8.454195759729393

>  <m_score__min__rmsd>  (63) 
8.454195759729393

>  <meeko>  (63) 
{"free_energy": -7.7, "intermolecular_energy": -9.19, "internal_energy": -1.47, "cluster_size": 3, "cluster_id": 2, "rank_in_cluster": 3}

>  <energy>  (63) 
-8.11

>  <cluster_rmsd>  (63) 
0.89

>  <cluster>  (63) 
1

$$$$

     RDKit          3D

 51 54  0  0  0  0  0  0  0  0999 V2000
  138.9080   71.7880  220.6580 O   0  0  0  0  0  0  0  0  0  0  0  0
  139.0480   72.2740  221.8090 C   0  0  0  0  0  0  0  0  0  0  0  0
  138.9220   73.6850  221.9880 N   0  0  0  0  0  0  0  0  0  0  0  0
  138.6410   74.5210  220.8650 C   0  0  0  0  0  0  0  0  0  0  0  0
  139.7630   74.5580  219.8780 C   0  0  0  0  0  0  0  0  0  0  0  0
  139.4530   74.4370  218.6750 O   0  0  0  0  0  0  0  0  0  0  0  0
  141.0820   74.7260  220.3660 N   0  0  0  0  0  0  0  0  0  0  0  0
  142.1080   73.6630  220.4910 C   0  0  0  0  0  0  0  0  0  0  0  0
  143.2960   74.4010  219.8910 C   0  0  0  0  0  0  0  0  0  0  0  0
  142.9740   75.8930  219.9590 C   0  0  0  0  0  0  0  0  0  0  0  0
  141.7750   75.9010  220.8430 C   0  0  1  0  0  0  0  0  0  0  0  0
  141.0180   77.1380  220.9930 C   0  0  0  0  0  0  0  0  0  0  0  0
  140.5030   77.2580  222.4090 C   0  0  0  0  0  0  0  0  0  0  0  0
  141.4160   78.2990  223.0170 C   0  0  0  0  0  0  0  0  0  0  0  0
  141.5550   79.3040  221.8960 C   0  0  0  0  0  0  0  0  0  0  0  0
  141.8390   78.3760  220.7250 C   0  0  0  0  0  0  0  0  0  0  0  0
  139.3360   71.4230  222.9580 C   0  0  0  0  0  0  0  0  0  0  0  0
  138.9980   70.0810  222.8940 C   0  0  0  0  0  0  0  0  0  0  0  0
  139.2690   69.2890  223.9730 C   0  0  0  0  0  0  0  0  0  0  0  0
  139.8650   69.7960  225.1060 C   0  0  0  0  0  0  0  0  0  0  0  0
  140.1350   68.9910  226.1880 C   0  0  0  0  0  0  0  0  0  0  0  0
  140.7350   69.4760  227.3460 C   0  0  0  0  0  0  0  0  0  0  0  0
  141.0680   68.4310  228.7100 Cl  0  0  0  0  0  0  0  0  0  0  0  0
  141.0630   70.8320  227.3790 C   0  0  0  0  0  0  0  0  0  0  0  0
  140.7890   71.6480  226.2800 C   0  0  0  0  0  0  0  0  0  0  0  0
  140.1950   71.1340  225.1530 C   0  0  0  0  0  0  0  0  0  0  0  0
  139.9150   71.8900  224.0760 N   0  0  0  0  0  0  0  0  0  0  0  0
  139.0470   74.0540  222.9670 H   0  0  0  0  0  0  0  0  0  0  0  0
  137.7406   74.1411  220.3601 H   0  0  0  0  0  0  0  0  0  0  0  0
  138.4955   75.5445  221.2410 H   0  0  0  0  0  0  0  0  0  0  0  0
  142.2846   73.3824  221.5399 H   0  0  0  0  0  0  0  0  0  0  0  0
  141.8562   72.7059  220.0109 H   0  0  0  0  0  0  0  0  0  0  0  0
  144.2067   74.1841  220.4686 H   0  0  0  0  0  0  0  0  0  0  0  0
  143.4722   74.0838  218.8526 H   0  0  0  0  0  0  0  0  0  0  0  0
  143.8037   76.4628  220.4028 H   0  0  0  0  0  0  0  0  0  0  0  0
  142.8089   76.3602  218.9769 H   0  0  0  0  0  0  0  0  0  0  0  0
  142.0277   75.8619  221.9129 H   0  0  0  0  0  0  0  0  0  0  0  0
  140.2050   77.0805  220.2543 H   0  0  0  0  0  0  0  0  0  0  0  0
  139.4560   77.5949  222.4215 H   0  0  0  0  0  0  0  0  0  0  0  0
  140.5107   76.3031  222.9550 H   0  0  0  0  0  0  0  0  0  0  0  0
  140.9603   78.7566  223.9074 H   0  0  0  0  0  0  0  0  0  0  0  0
  142.3772   77.8918  223.3637 H   0  0  0  0  0  0  0  0  0  0  0  0
  140.6271   79.8754  221.7455 H   0  0  0  0  0  0  0  0  0  0  0  0
  142.3201   80.0760  222.0649 H   0  0  0  0  0  0  0  0  0  0  0  0
  141.5325   78.8447  219.7782 H   0  0  0  0  0  0  0  0  0  0  0  0
  142.9108   78.1465  220.6328 H   0  0  0  0  0  0  0  0  0  0  0  0
  138.5222   69.6630  221.9946 H   0  0  0  0  0  0  0  0  0  0  0  0
  139.0051   68.2218  223.9362 H   0  0  0  0  0  0  0  0  0  0  0  0
  139.8670   67.9254  226.1361 H   0  0  0  0  0  0  0  0  0  0  0  0
  141.5390   71.2593  228.2739 H   0  0  0  0  0  0  0  0  0  0  0  0
  141.0519   72.7155  226.3169 H   0  0  0  0  0  0  0  0  0  0  0  0
  1  2  2  0
  2  3  1  0
  3  4  1  0
  4  5  1  0
  5  6  2  0
  5  7  1  0
  7  8  1  0
  8  9  1  0
  9 10  1  0
 10 11  1  0
 11 12  1  0
 12 13  1  0
 13 14  1  0
 14 15  1  0
 15 16  1  0
  2 17  1  0
 17 18  2  0
 18 19  1  0
 19 20  2  0
 20 21  1  0
 21 22  2  0
 22 23  1  0
 22 24  1  0
 24 25  2  0
 25 26  1  0
 26 27  2  0
 11  7  1  0
 16 12  1  0
 27 17  1  0
 26 20  1  0
  3 28  1  0
  4 29  1  0
  4 30  1  0
  8 31  1  0
  8 32  1  0
  9 33  1  0
  9 34  1  0
 10 35  1  0
 10 36  1  0
 11 37  1  1
 12 38  1  0
 13 39  1  0
 13 40  1  0
 14 41  1  0
 14 42  1  0
 15 43  1  0
 15 44  1  0
 16 45  1  0
 16 46  1  0
 18 47  1  0
 19 48  1  0
 21 49  1  0
 24 50  1  0
 25 51  1  0
M  END
>  <smiles>  (64) 
O=C(NCC(=O)N1CCCC1C1CCCC1)c1ccc2cc(Cl)ccc2n1

>  <score_type>  (64) 
oracle

>  <origin>  (64) 
autodockgpu

>  <m_score__min__energy>  (64) 
-8.9199999999999999

>  <m_primary>  (64) 
energy

>  <rmsd>  (64) 
2.215640572279182

>  <m_score__min__rmsd>  (64) 
2.215640572279182

>  <meeko>  (64) 
{"free_energy": -7.59, "intermolecular_energy": -9.08, "internal_energy": -1.78, "cluster_size": 32, "cluster_id": 1, "rank_in_cluster": 30}

>  <energy>  (64) 
-8.08

>  <cluster_rmsd>  (64) 
0.87

>  <cluster>  (64) 
1

$$$$

     RDKit          3D

 51 54  0  0  0  0  0  0  0  0999 V2000
  139.3890   72.0830  220.7750 O   0  0  0  0  0  0  0  0  0  0  0  0
  139.4990   72.4890  221.9600 C   0  0  0  0  0  0  0  0  0  0  0  0
  139.4260   73.8910  222.2230 N   0  0  0  0  0  0  0  0  0  0  0  0
  139.2320   74.8070  221.1460 C   0  0  0  0  0  0  0  0  0  0  0  0
  139.5340   76.2200  221.5270 C   0  0  0  0  0  0  0  0  0  0  0  0
  138.6450   76.8310  222.1540 O   0  0  0  0  0  0  0  0  0  0  0  0
  140.7880   76.7620  221.1560 N   0  0  0  0  0  0  0  0  0  0  0  0
  141.7320   76.1830  220.1690 C   0  0  0  0  0  0  0  0  0  0  0  0
  142.0690   77.4460  219.3880 C   0  0  0  0  0  0  0  0  0  0  0  0
  141.7070   78.6320  220.2800 C   0  0  0  0  0  0  0  0  0  0  0  0
  141.4690   77.9610  221.5880 C   0  0  1  0  0  0  0  0  0  0  0  0
  140.8860   78.7330  222.6800 C   0  0  0  0  0  0  0  0  0  0  0  0
  141.8350   78.7570  223.8560 C   0  0  0  0  0  0  0  0  0  0  0  0
  142.4070   80.1560  223.8040 C   0  0  0  0  0  0  0  0  0  0  0  0
  141.1950   80.9900  223.4570 C   0  0  0  0  0  0  0  0  0  0  0  0
  140.6130   80.1720  222.3150 C   0  0  0  0  0  0  0  0  0  0  0  0
  139.6970   71.5560  223.0630 C   0  0  0  0  0  0  0  0  0  0  0  0
  139.3640   70.2250  222.8770 C   0  0  0  0  0  0  0  0  0  0  0  0
  139.5520   69.3550  223.9140 C   0  0  0  0  0  0  0  0  0  0  0  0
  140.0600   69.7750  225.1220 C   0  0  0  0  0  0  0  0  0  0  0  0
  140.2460   68.8930  226.1610 C   0  0  0  0  0  0  0  0  0  0  0  0
  140.7570   69.2910  227.3920 C   0  0  0  0  0  0  0  0  0  0  0  0
  140.9840   68.1480  228.6990 Cl  0  0  0  0  0  0  0  0  0  0  0  0
  141.0830   70.6390  227.5480 C   0  0  0  0  0  0  0  0  0  0  0  0
  140.8930   71.5330  226.4930 C   0  0  0  0  0  0  0  0  0  0  0  0
  140.3860   71.1050  225.2900 C   0  0  0  0  0  0  0  0  0  0  0  0
  140.1900   71.9380  224.2530 N   0  0  0  0  0  0  0  0  0  0  0  0
  139.5230   74.1920  223.2280 H   0  0  0  0  0  0  0  0  0  0  0  0
  139.8926   74.5180  220.3153 H   0  0  0  0  0  0  0  0  0  0  0  0
  138.1713   74.7607  220.8584 H   0  0  0  0  0  0  0  0  0  0  0  0
  142.6192   75.7489  220.6531 H   0  0  0  0  0  0  0  0  0  0  0  0
  141.3364   75.3493  219.5703 H   0  0  0  0  0  0  0  0  0  0  0  0
  143.1424   77.4671  219.1485 H   0  0  0  0  0  0  0  0  0  0  0  0
  141.5113   77.4825  218.4406 H   0  0  0  0  0  0  0  0  0  0  0  0
  142.5347   79.3537  220.3438 H   0  0  0  0  0  0  0  0  0  0  0  0
  140.8517   79.2206  219.9167 H   0  0  0  0  0  0  0  0  0  0  0  0
  142.3960   77.7655  222.1469 H   0  0  0  0  0  0  0  0  0  0  0  0
  139.9332   78.2378  222.9188 H   0  0  0  0  0  0  0  0  0  0  0  0
  141.2983   78.5843  224.8005 H   0  0  0  0  0  0  0  0  0  0  0  0
  142.6044   77.9724  223.8078 H   0  0  0  0  0  0  0  0  0  0  0  0
  142.8273   80.4504  224.7770 H   0  0  0  0  0  0  0  0  0  0  0  0
  143.2353   80.2657  223.0885 H   0  0  0  0  0  0  0  0  0  0  0  0
  140.4955   81.0614  224.3030 H   0  0  0  0  0  0  0  0  0  0  0  0
  141.4166   82.0373  223.2040 H   0  0  0  0  0  0  0  0  0  0  0  0
  139.5310   80.3488  222.2261 H   0  0  0  0  0  0  0  0  0  0  0  0
  141.0591   80.4423  221.3465 H   0  0  0  0  0  0  0  0  0  0  0  0
  138.9574   69.8758  221.9164 H   0  0  0  0  0  0  0  0  0  0  0  0
  139.2913   68.2948  223.7800 H   0  0  0  0  0  0  0  0  0  0  0  0
  139.9813   67.8356  226.0132 H   0  0  0  0  0  0  0  0  0  0  0  0
  141.4906   70.9978  228.5046 H   0  0  0  0  0  0  0  0  0  0  0  0
  141.1525   72.5936  226.6265 H   0  0  0  0  0  0  0  0  0  0  0  0
  1  2  2  0
  2  3  1  0
  3  4  1  0
  4  5  1  0
  5  6  2  0
  5  7  1  0
  7  8  1  0
  8  9  1  0
  9 10  1  0
 10 11  1  0
 11 12  1  0
 12 13  1  0
 13 14  1  0
 14 15  1  0
 15 16  1  0
  2 17  1  0
 17 18  2  0
 18 19  1  0
 19 20  2  0
 20 21  1  0
 21 22  2  0
 22 23  1  0
 22 24  1  0
 24 25  2  0
 25 26  1  0
 26 27  2  0
 11  7  1  0
 16 12  1  0
 27 17  1  0
 26 20  1  0
  3 28  1  0
  4 29  1  0
  4 30  1  0
  8 31  1  0
  8 32  1  0
  9 33  1  0
  9 34  1  0
 10 35  1  0
 10 36  1  0
 11 37  1  1
 12 38  1  0
 13 39  1  0
 13 40  1  0
 14 41  1  0
 14 42  1  0
 15 43  1  0
 15 44  1  0
 16 45  1  0
 16 46  1  0
 18 47  1  0
 19 48  1  0
 21 49  1  0
 24 50  1  0
 25 51  1  0
M  END
>  <smiles>  (65) 
O=C(NCC(=O)N1CCCC1C1CCCC1)c1ccc2cc(Cl)ccc2n1

>  <score_type>  (65) 
oracle

>  <origin>  (65) 
autodockgpu

>  <m_score__min__energy>  (65) 
-8.9199999999999999

>  <m_primary>  (65) 
energy

>  <rmsd>  (65) 
2.0259966548829644

>  <m_score__min__rmsd>  (65) 
2.0259966548829644

>  <meeko>  (65) 
{"free_energy": -8.7, "intermolecular_energy": -10.19, "internal_energy": -1.45, "cluster_size": 32, "cluster_id": 1, "rank_in_cluster": 7}

>  <energy>  (65) 
-8.08

>  <cluster_rmsd>  (65) 
0.89

>  <cluster>  (65) 
1

$$$$

     RDKit          3D

 51 54  0  0  0  0  0  0  0  0999 V2000
  140.2280   72.5230  220.6950 O   0  0  0  0  0  0  0  0  0  0  0  0
  139.8710   72.8590  221.8530 C   0  0  0  0  0  0  0  0  0  0  0  0
  139.3870   74.1850  222.0740 N   0  0  0  0  0  0  0  0  0  0  0  0
  139.3180   75.1060  220.9850 C   0  0  0  0  0  0  0  0  0  0  0  0
  140.4610   76.0680  220.9680 C   0  0  0  0  0  0  0  0  0  0  0  0
  141.5440   75.6580  221.4350 O   0  0  0  0  0  0  0  0  0  0  0  0
  140.2430   77.3610  220.4330 N   0  0  0  0  0  0  0  0  0  0  0  0
  139.3560   77.6950  219.2930 C   0  0  0  0  0  0  0  0  0  0  0  0
  138.6430   78.9020  219.8870 C   0  0  0  0  0  0  0  0  0  0  0  0
  139.5150   79.4140  221.0320 C   0  0  0  0  0  0  0  0  0  0  0  0
  140.7740   78.6480  220.8160 C   0  0  1  0  0  0  0  0  0  0  0  0
  141.8110   78.6930  221.8410 C   0  0  0  0  0  0  0  0  0  0  0  0
  142.3370   80.1030  221.9800 C   0  0  0  0  0  0  0  0  0  0  0  0
  141.7070   80.5770  223.2690 C   0  0  0  0  0  0  0  0  0  0  0  0
  141.8200   79.3570  224.1540 C   0  0  0  0  0  0  0  0  0  0  0  0
  141.3190   78.2790  223.2070 C   0  0  0  0  0  0  0  0  0  0  0  0
  139.9410   71.9210  222.9670 C   0  0  0  0  0  0  0  0  0  0  0  0
  139.4910   70.6250  222.7750 C   0  0  0  0  0  0  0  0  0  0  0  0
  139.5590   69.7510  223.8230 C   0  0  0  0  0  0  0  0  0  0  0  0
  140.0610   70.1310  225.0470 C   0  0  0  0  0  0  0  0  0  0  0  0
  140.1260   69.2450  226.0960 C   0  0  0  0  0  0  0  0  0  0  0  0
  140.6270   69.6030  227.3430 C   0  0  0  0  0  0  0  0  0  0  0  0
  140.6990   68.4550  228.6630 Cl  0  0  0  0  0  0  0  0  0  0  0  0
  141.0720   70.9150  227.5040 C   0  0  0  0  0  0  0  0  0  0  0  0
  141.0050   71.8150  226.4390 C   0  0  0  0  0  0  0  0  0  0  0  0
  140.5040   71.4260  225.2200 C   0  0  0  0  0  0  0  0  0  0  0  0
  140.4240   72.2650  224.1720 N   0  0  0  0  0  0  0  0  0  0  0  0
  139.0980   74.4290  223.0570 H   0  0  0  0  0  0  0  0  0  0  0  0
  139.3226   74.5378  220.0431 H   0  0  0  0  0  0  0  0  0  0  0  0
  138.3940   75.6910  221.1036 H   0  0  0  0  0  0  0  0  0  0  0  0
  139.9269   77.9571  218.3900 H   0  0  0  0  0  0  0  0  0  0  0  0
  138.7002   76.8807  218.9512 H   0  0  0  0  0  0  0  0  0  0  0  0
  138.5239   79.6846  219.1232 H   0  0  0  0  0  0  0  0  0  0  0  0
  137.6404   78.6286  220.2477 H   0  0  0  0  0  0  0  0  0  0  0  0
  139.6860   80.4977  220.9526 H   0  0  0  0  0  0  0  0  0  0  0  0
  139.0717   79.2740  222.0289 H   0  0  0  0  0  0  0  0  0  0  0  0
  141.4290   79.0995  220.0563 H   0  0  0  0  0  0  0  0  0  0  0  0
  142.5862   77.9863  221.5100 H   0  0  0  0  0  0  0  0  0  0  0  0
  143.4347   80.1100  222.0508 H   0  0  0  0  0  0  0  0  0  0  0  0
  142.0940   80.7425  221.1186 H   0  0  0  0  0  0  0  0  0  0  0  0
  142.2600   81.4284  223.6926 H   0  0  0  0  0  0  0  0  0  0  0  0
  140.6748   80.9371  223.1470 H   0  0  0  0  0  0  0  0  0  0  0  0
  142.8598   79.1746  224.4630 H   0  0  0  0  0  0  0  0  0  0  0  0
  141.2671   79.4264  225.1024 H   0  0  0  0  0  0  0  0  0  0  0  0
  141.7326   77.2984  223.4852 H   0  0  0  0  0  0  0  0  0  0  0  0
  140.2238   78.1813  223.2375 H   0  0  0  0  0  0  0  0  0  0  0  0
  139.0885   70.3071  221.8019 H   0  0  0  0  0  0  0  0  0  0  0  0
  139.2041   68.7190  223.6853 H   0  0  0  0  0  0  0  0  0  0  0  0
  139.7689   68.2158  225.9436 H   0  0  0  0  0  0  0  0  0  0  0  0
  141.4770   71.2416  228.4732 H   0  0  0  0  0  0  0  0  0  0  0  0
  141.3574   72.8478  226.5772 H   0  0  0  0  0  0  0  0  0  0  0  0
  1  2  2  0
  2  3  1  0
  3  4  1  0
  4  5  1  0
  5  6  2  0
  5  7  1  0
  7  8  1  0
  8  9  1  0
  9 10  1  0
 10 11  1  0
 11 12  1  0
 12 13  1  0
 13 14  1  0
 14 15  1  0
 15 16  1  0
  2 17  1  0
 17 18  2  0
 18 19  1  0
 19 20  2  0
 20 21  1  0
 21 22  2  0
 22 23  1  0
 22 24  1  0
 24 25  2  0
 25 26  1  0
 26 27  2  0
 11  7  1  0
 16 12  1  0
 27 17  1  0
 26 20  1  0
  3 28  1  0
  4 29  1  0
  4 30  1  0
  8 31  1  0
  8 32  1  0
  9 33  1  0
  9 34  1  0
 10 35  1  0
 10 36  1  0
 11 37  1  6
 12 38  1  0
 13 39  1  0
 13 40  1  0
 14 41  1  0
 14 42  1  0
 15 43  1  0
 15 44  1  0
 16 45  1  0
 16 46  1  0
 18 47  1  0
 19 48  1  0
 21 49  1  0
 24 50  1  0
 25 51  1  0
M  END
>  <smiles>  (66) 
O=C(NCC(=O)N1CCCC1C1CCCC1)c1ccc2cc(Cl)ccc2n1

>  <score_type>  (66) 
oracle

>  <origin>  (66) 
autodockgpu

>  <m_score__min__energy>  (66) 
-8.9199999999999999

>  <m_primary>  (66) 
energy

>  <rmsd>  (66) 
2.282883822990918

>  <m_score__min__rmsd>  (66) 
2.282883822990918

>  <meeko>  (66) 
{"free_energy": -8.04, "intermolecular_energy": -9.53, "internal_energy": -1.34, "cluster_size": 32, "cluster_id": 1, "rank_in_cluster": 16}

>  <energy>  (66) 
-8.04

>  <cluster_rmsd>  (66) 
1.18

>  <cluster>  (66) 
1

$$$$

     RDKit          3D

 51 54  0  0  0  0  0  0  0  0999 V2000
  139.5700   72.3100  220.8340 O   0  0  0  0  0  0  0  0  0  0  0  0
  139.6120   72.6870  222.0330 C   0  0  0  0  0  0  0  0  0  0  0  0
  139.4990   74.0800  222.3270 N   0  0  0  0  0  0  0  0  0  0  0  0
  139.3410   75.0190  221.2640 C   0  0  0  0  0  0  0  0  0  0  0  0
  139.6990   76.4140  221.6670 C   0  0  0  0  0  0  0  0  0  0  0  0
  138.8690   77.0210  222.3750 O   0  0  0  0  0  0  0  0  0  0  0  0
  140.9350   76.9440  221.2240 N   0  0  0  0  0  0  0  0  0  0  0  0
  141.8760   76.2940  220.2800 C   0  0  0  0  0  0  0  0  0  0  0  0
  142.1720   77.4830  219.3770 C   0  0  0  0  0  0  0  0  0  0  0  0
  141.7980   78.7410  220.1600 C   0  0  0  0  0  0  0  0  0  0  0  0
  141.5950   78.1930  221.5290 C   0  0  1  0  0  0  0  0  0  0  0  0
  141.0120   79.0520  222.5540 C   0  0  0  0  0  0  0  0  0  0  0  0
  141.8200   78.9560  223.8270 C   0  0  0  0  0  0  0  0  0  0  0  0
  142.5880   80.2580  223.8440 C   0  0  0  0  0  0  0  0  0  0  0  0
  141.5520   81.2520  223.3680 C   0  0  0  0  0  0  0  0  0  0  0  0
  140.9880   80.5110  222.1660 C   0  0  0  0  0  0  0  0  0  0  0  0
  139.7730   71.7300  223.1220 C   0  0  0  0  0  0  0  0  0  0  0  0
  139.4110   70.4110  222.9070 C   0  0  0  0  0  0  0  0  0  0  0  0
  139.5650   69.5190  223.9300 C   0  0  0  0  0  0  0  0  0  0  0  0
  140.0670   69.9040  225.1530 C   0  0  0  0  0  0  0  0  0  0  0  0
  140.2180   69.0000  226.1770 C   0  0  0  0  0  0  0  0  0  0  0  0
  140.7220   69.3620  227.4220 C   0  0  0  0  0  0  0  0  0  0  0  0
  140.9040   68.1920  228.7100 Cl  0  0  0  0  0  0  0  0  0  0  0  0
  141.0780   70.6990  227.6070 C   0  0  0  0  0  0  0  0  0  0  0  0
  140.9230   71.6160  226.5660 C   0  0  0  0  0  0  0  0  0  0  0  0
  140.4220   71.2220  225.3490 C   0  0  0  0  0  0  0  0  0  0  0  0
  140.2600   72.0780  224.3240 N   0  0  0  0  0  0  0  0  0  0  0  0
  139.5390   74.3570  223.3430 H   0  0  0  0  0  0  0  0  0  0  0  0
  139.9896   74.7168  220.4285 H   0  0  0  0  0  0  0  0  0  0  0  0
  138.2793   75.0189  220.9762 H   0  0  0  0  0  0  0  0  0  0  0  0
  142.7804   75.9268  220.7872 H   0  0  0  0  0  0  0  0  0  0  0  0
  141.4899   75.3990  219.7702 H   0  0  0  0  0  0  0  0  0  0  0  0
  143.2406   77.5034  219.1169 H   0  0  0  0  0  0  0  0  0  0  0  0
  141.5985   77.4178  218.4406 H   0  0  0  0  0  0  0  0  0  0  0  0
  142.6107   79.4820  220.1408 H   0  0  0  0  0  0  0  0  0  0  0  0
  140.9243   79.2748  219.7579 H   0  0  0  0  0  0  0  0  0  0  0  0
  142.5347   78.0720  222.0879 H   0  0  0  0  0  0  0  0  0  0  0  0
  139.9786   78.6988  222.6856 H   0  0  0  0  0  0  0  0  0  0  0  0
  141.1639   78.8730  224.7060 H   0  0  0  0  0  0  0  0  0  0  0  0
  142.4705   78.0696  223.8607 H   0  0  0  0  0  0  0  0  0  0  0  0
  142.9364   80.5014  224.8586 H   0  0  0  0  0  0  0  0  0  0  0  0
  143.4972   80.2402  223.2251 H   0  0  0  0  0  0  0  0  0  0  0  0
  140.7814   81.4325  224.1319 H   0  0  0  0  0  0  0  0  0  0  0  0
  141.9471   82.2540  223.1445 H   0  0  0  0  0  0  0  0  0  0  0  0
  139.9584   80.8384  221.9592 H   0  0  0  0  0  0  0  0  0  0  0  0
  141.5711   80.7036  221.2534 H   0  0  0  0  0  0  0  0  0  0  0  0
  139.0088   70.0889  221.9351 H   0  0  0  0  0  0  0  0  0  0  0  0
  139.2812   68.4679  223.7730 H   0  0  0  0  0  0  0  0  0  0  0  0
  139.9299   67.9523  226.0060 H   0  0  0  0  0  0  0  0  0  0  0  0
  141.4815   71.0307  228.5751 H   0  0  0  0  0  0  0  0  0  0  0  0
  141.2056   72.6675  226.7221 H   0  0  0  0  0  0  0  0  0  0  0  0
  1  2  2  0
  2  3  1  0
  3  4  1  0
  4  5  1  0
  5  6  2  0
  5  7  1  0
  7  8  1  0
  8  9  1  0
  9 10  1  0
 10 11  1  0
 11 12  1  0
 12 13  1  0
 13 14  1  0
 14 15  1  0
 15 16  1  0
  2 17  1  0
 17 18  2  0
 18 19  1  0
 19 20  2  0
 20 21  1  0
 21 22  2  0
 22 23  1  0
 22 24  1  0
 24 25  2  0
 25 26  1  0
 26 27  2  0
 11  7  1  0
 16 12  1  0
 27 17  1  0
 26 20  1  0
  3 28  1  0
  4 29  1  0
  4 30  1  0
  8 31  1  0
  8 32  1  0
  9 33  1  0
  9 34  1  0
 10 35  1  0
 10 36  1  0
 11 37  1  1
 12 38  1  0
 13 39  1  0
 13 40  1  0
 14 41  1  0
 14 42  1  0
 15 43  1  0
 15 44  1  0
 16 45  1  0
 16 46  1  0
 18 47  1  0
 19 48  1  0
 21 49  1  0
 24 50  1  0
 25 51  1  0
M  END
>  <smiles>  (67) 
O=C(NCC(=O)N1CCCC1C1CCCC1)c1ccc2cc(Cl)ccc2n1

>  <score_type>  (67) 
oracle

>  <origin>  (67) 
autodockgpu

>  <m_score__min__energy>  (67) 
-8.9199999999999999

>  <m_primary>  (67) 
energy

>  <rmsd>  (67) 
2.1429351169320183

>  <m_score__min__rmsd>  (67) 
2.1429351169320183

>  <meeko>  (67) 
{"free_energy": -8.82, "intermolecular_energy": -10.31, "internal_energy": -1.45, "cluster_size": 32, "cluster_id": 1, "rank_in_cluster": 3}

>  <energy>  (67) 
-8.02

>  <cluster_rmsd>  (67) 
1.09

>  <cluster>  (67) 
1

$$$$

     RDKit          3D

 51 54  0  0  0  0  0  0  0  0999 V2000
  140.2590   72.4970  220.7210 O   0  0  0  0  0  0  0  0  0  0  0  0
  140.0160   72.8740  221.8950 C   0  0  0  0  0  0  0  0  0  0  0  0
  139.7110   74.2490  222.1350 N   0  0  0  0  0  0  0  0  0  0  0  0
  139.6890   75.1710  221.0460 C   0  0  0  0  0  0  0  0  0  0  0  0
  139.9740   76.5750  221.4710 C   0  0  0  0  0  0  0  0  0  0  0  0
  139.1720   77.0880  222.2790 O   0  0  0  0  0  0  0  0  0  0  0  0
  141.1160   77.2210  220.9370 N   0  0  0  0  0  0  0  0  0  0  0  0
  142.0350   76.6630  219.9160 C   0  0  0  0  0  0  0  0  0  0  0  0
  142.1470   77.8770  219.0040 C   0  0  0  0  0  0  0  0  0  0  0  0
  141.7200   79.0920  219.8250 C   0  0  0  0  0  0  0  0  0  0  0  0
  141.6780   78.5250  221.2010 C   0  0  1  0  0  0  0  0  0  0  0  0
  141.1010   79.3240  222.2760 C   0  0  0  0  0  0  0  0  0  0  0  0
  141.8130   79.0290  223.5760 C   0  0  0  0  0  0  0  0  0  0  0  0
  142.6810   80.2510  223.7750 C   0  0  0  0  0  0  0  0  0  0  0  0
  141.7630   81.3740  223.3490 C   0  0  0  0  0  0  0  0  0  0  0  0
  141.2210   80.8110  222.0450 C   0  0  0  0  0  0  0  0  0  0  0  0
  140.0370   71.9350  223.0110 C   0  0  0  0  0  0  0  0  0  0  0  0
  139.5480   70.6550  222.8120 C   0  0  0  0  0  0  0  0  0  0  0  0
  139.5710   69.7790  223.8600 C   0  0  0  0  0  0  0  0  0  0  0  0
  140.0660   70.1430  225.0920 C   0  0  0  0  0  0  0  0  0  0  0  0
  140.0860   69.2550  226.1420 C   0  0  0  0  0  0  0  0  0  0  0  0
  140.5800   69.5970  227.3970 C   0  0  0  0  0  0  0  0  0  0  0  0
  140.5930   68.4480  228.7170 Cl  0  0  0  0  0  0  0  0  0  0  0  0
  141.0660   70.8940  227.5650 C   0  0  0  0  0  0  0  0  0  0  0  0
  141.0450   71.7940  226.4980 C   0  0  0  0  0  0  0  0  0  0  0  0
  140.5500   71.4220  225.2720 C   0  0  0  0  0  0  0  0  0  0  0  0
  140.5140   72.2630  224.2230 N   0  0  0  0  0  0  0  0  0  0  0  0
  139.5130   74.5260  223.1320 H   0  0  0  0  0  0  0  0  0  0  0  0
  140.4481   74.8652  220.3110 H   0  0  0  0  0  0  0  0  0  0  0  0
  138.6761   75.1536  220.6173 H   0  0  0  0  0  0  0  0  0  0  0  0
  143.0068   76.3802  220.3469 H   0  0  0  0  0  0  0  0  0  0  0  0
  141.6944   75.7370  219.4298 H   0  0  0  0  0  0  0  0  0  0  0  0
  143.1854   77.9981  218.6618 H   0  0  0  0  0  0  0  0  0  0  0  0
  141.5104   77.7603  218.1146 H   0  0  0  0  0  0  0  0  0  0  0  0
  142.4556   79.9063  219.7489 H   0  0  0  0  0  0  0  0  0  0  0  0
  140.7710   79.5418  219.4976 H   0  0  0  0  0  0  0  0  0  0  0  0
  142.6657   78.4913  221.6839 H   0  0  0  0  0  0  0  0  0  0  0  0
  140.0358   79.0516  222.3097 H   0  0  0  0  0  0  0  0  0  0  0  0
  141.0958   78.9150  224.4022 H   0  0  0  0  0  0  0  0  0  0  0  0
  142.3859   78.0902  223.5525 H   0  0  0  0  0  0  0  0  0  0  0  0
  142.9803   80.3594  224.8279 H   0  0  0  0  0  0  0  0  0  0  0  0
  143.6246   80.2165  223.2106 H   0  0  0  0  0  0  0  0  0  0  0  0
  140.9610   81.5430  224.0826 H   0  0  0  0  0  0  0  0  0  0  0  0
  142.2521   82.3549  223.2560 H   0  0  0  0  0  0  0  0  0  0  0  0
  140.2372   81.2465  221.8161 H   0  0  0  0  0  0  0  0  0  0  0  0
  141.8765   81.0433  221.1927 H   0  0  0  0  0  0  0  0  0  0  0  0
  139.1502   70.3505  221.8327 H   0  0  0  0  0  0  0  0  0  0  0  0
  139.1850   68.7590  223.7161 H   0  0  0  0  0  0  0  0  0  0  0  0
  139.6976   68.2381  225.9840 H   0  0  0  0  0  0  0  0  0  0  0  0
  141.4665   71.2081  228.5402 H   0  0  0  0  0  0  0  0  0  0  0  0
  141.4299   72.8145  226.6410 H   0  0  0  0  0  0  0  0  0  0  0  0
  1  2  2  0
  2  3  1  0
  3  4  1  0
  4  5  1  0
  5  6  2  0
  5  7  1  0
  7  8  1  0
  8  9  1  0
  9 10  1  0
 10 11  1  0
 11 12  1  0
 12 13  1  0
 13 14  1  0
 14 15  1  0
 15 16  1  0
  2 17  1  0
 17 18  2  0
 18 19  1  0
 19 20  2  0
 20 21  1  0
 21 22  2  0
 22 23  1  0
 22 24  1  0
 24 25  2  0
 25 26  1  0
 26 27  2  0
 11  7  1  0
 16 12  1  0
 27 17  1  0
 26 20  1  0
  3 28  1  0
  4 29  1  0
  4 30  1  0
  8 31  1  0
  8 32  1  0
  9 33  1  0
  9 34  1  0
 10 35  1  0
 10 36  1  0
 11 37  1  1
 12 38  1  0
 13 39  1  0
 13 40  1  0
 14 41  1  0
 14 42  1  0
 15 43  1  0
 15 44  1  0
 16 45  1  0
 16 46  1  0
 18 47  1  0
 19 48  1  0
 21 49  1  0
 24 50  1  0
 25 51  1  0
M  END
>  <smiles>  (68) 
O=C(NCC(=O)N1CCCC1C1CCCC1)c1ccc2cc(Cl)ccc2n1

>  <score_type>  (68) 
oracle

>  <origin>  (68) 
autodockgpu

>  <m_score__min__energy>  (68) 
-8.9199999999999999

>  <m_primary>  (68) 
energy

>  <rmsd>  (68) 
2.271322855527068

>  <m_score__min__rmsd>  (68) 
2.271322855527068

>  <meeko>  (68) 
{"free_energy": -8.9, "intermolecular_energy": -10.4, "internal_energy": -1.42, "cluster_size": 32, "cluster_id": 1, "rank_in_cluster": 2}

>  <energy>  (68) 
-7.92

>  <cluster_rmsd>  (68) 
1.97

>  <cluster>  (68) 
1

$$$$

     RDKit          3D

 51 54  0  0  0  0  0  0  0  0999 V2000
  140.2360   72.4880  220.7220 O   0  0  0  0  0  0  0  0  0  0  0  0
  139.9270   72.8440  221.8880 C   0  0  0  0  0  0  0  0  0  0  0  0
  139.5160   74.1930  222.1170 N   0  0  0  0  0  0  0  0  0  0  0  0
  139.4640   75.1130  221.0270 C   0  0  0  0  0  0  0  0  0  0  0  0
  140.7700   75.7970  220.7840 C   0  0  0  0  0  0  0  0  0  0  0  0
  141.1640   76.5810  221.6730 O   0  0  0  0  0  0  0  0  0  0  0  0
  141.4620   75.5170  219.5810 N   0  0  0  0  0  0  0  0  0  0  0  0
  141.0040   75.8540  218.2120 C   0  0  0  0  0  0  0  0  0  0  0  0
  142.2990   76.4330  217.6590 C   0  0  0  0  0  0  0  0  0  0  0  0
  143.4310   75.9200  218.5480 C   0  0  0  0  0  0  0  0  0  0  0  0
  142.7340   74.8740  219.3470 C   0  0  1  0  0  0  0  0  0  0  0  0
  143.4280   74.2750  220.4810 C   0  0  0  0  0  0  0  0  0  0  0  0
  143.2350   72.7760  220.4690 C   0  0  0  0  0  0  0  0  0  0  0  0
  144.5740   72.2630  219.9890 C   0  0  0  0  0  0  0  0  0  0  0  0
  145.5460   73.1590  220.7210 C   0  0  0  0  0  0  0  0  0  0  0  0
  144.9170   74.5190  220.4680 C   0  0  0  0  0  0  0  0  0  0  0  0
  139.9800   71.9070  223.0040 C   0  0  0  0  0  0  0  0  0  0  0  0
  139.5310   70.6110  222.8060 C   0  0  0  0  0  0  0  0  0  0  0  0
  139.5840   69.7380  223.8550 C   0  0  0  0  0  0  0  0  0  0  0  0
  140.0690   70.1180  225.0860 C   0  0  0  0  0  0  0  0  0  0  0  0
  140.1180   69.2320  226.1360 C   0  0  0  0  0  0  0  0  0  0  0  0
  140.6030   69.5900  227.3900 C   0  0  0  0  0  0  0  0  0  0  0  0
  140.6540   68.4430  228.7120 Cl  0  0  0  0  0  0  0  0  0  0  0  0
  141.0470   70.9020  227.5570 C   0  0  0  0  0  0  0  0  0  0  0  0
  140.9960   71.8010  226.4900 C   0  0  0  0  0  0  0  0  0  0  0  0
  140.5120   71.4120  225.2650 C   0  0  0  0  0  0  0  0  0  0  0  0
  140.4480   72.2510  224.2150 N   0  0  0  0  0  0  0  0  0  0  0  0
  139.2660   74.4530  223.1060 H   0  0  0  0  0  0  0  0  0  0  0  0
  139.1801   74.5641  220.1170 H   0  0  0  0  0  0  0  0  0  0  0  0
  138.7266   75.8882  221.2827 H   0  0  0  0  0  0  0  0  0  0  0  0
  140.6805   74.9624  217.6548 H   0  0  0  0  0  0  0  0  0  0  0  0
  140.1292   76.5187  218.1577 H   0  0  0  0  0  0  0  0  0  0  0  0
  142.4508   76.0977  216.6224 H   0  0  0  0  0  0  0  0  0  0  0  0
  142.2686   77.5326  217.6562 H   0  0  0  0  0  0  0  0  0  0  0  0
  144.2479   75.4902  217.9497 H   0  0  0  0  0  0  0  0  0  0  0  0
  143.9117   76.7009  219.1556 H   0  0  0  0  0  0  0  0  0  0  0  0
  142.6514   73.9118  218.8204 H   0  0  0  0  0  0  0  0  0  0  0  0
  142.9963   74.7474  221.3757 H   0  0  0  0  0  0  0  0  0  0  0  0
  143.0056   72.3991  221.4766 H   0  0  0  0  0  0  0  0  0  0  0  0
  142.3954   72.4527  219.8361 H   0  0  0  0  0  0  0  0  0  0  0  0
  144.7187   71.2084  220.2662 H   0  0  0  0  0  0  0  0  0  0  0  0
  144.6889   72.2905  218.8954 H   0  0  0  0  0  0  0  0  0  0  0  0
  145.5852   72.9235  221.7948 H   0  0  0  0  0  0  0  0  0  0  0  0
  146.5906   73.0691  220.3884 H   0  0  0  0  0  0  0  0  0  0  0  0
  145.1987   75.2277  221.2607 H   0  0  0  0  0  0  0  0  0  0  0  0
  145.2535   74.9570  219.5167 H   0  0  0  0  0  0  0  0  0  0  0  0
  139.1414   70.2931  221.8277 H   0  0  0  0  0  0  0  0  0  0  0  0
  139.2305   68.7061  223.7127 H   0  0  0  0  0  0  0  0  0  0  0  0
  139.7611   68.2034  225.9792 H   0  0  0  0  0  0  0  0  0  0  0  0
  141.4382   71.2290  228.5317 H   0  0  0  0  0  0  0  0  0  0  0  0
  141.3478   72.8335  226.6322 H   0  0  0  0  0  0  0  0  0  0  0  0
  1  2  2  0
  2  3  1  0
  3  4  1  0
  4  5  1  0
  5  6  2  0
  5  7  1  0
  7  8  1  0
  8  9  1  0
  9 10  1  0
 10 11  1  0
 11 12  1  0
 12 13  1  0
 13 14  1  0
 14 15  1  0
 15 16  1  0
  2 17  1  0
 17 18  2  0
 18 19  1  0
 19 20  2  0
 20 21  1  0
 21 22  2  0
 22 23  1  0
 22 24  1  0
 24 25  2  0
 25 26  1  0
 26 27  2  0
 11  7  1  0
 16 12  1  0
 27 17  1  0
 26 20  1  0
  3 28  1  0
  4 29  1  0
  4 30  1  0
  8 31  1  0
  8 32  1  0
  9 33  1  0
  9 34  1  0
 10 35  1  0
 10 36  1  0
 11 37  1  6
 12 38  1  0
 13 39  1  0
 13 40  1  0
 14 41  1  0
 14 42  1  0
 15 43  1  0
 15 44  1  0
 16 45  1  0
 16 46  1  0
 18 47  1  0
 19 48  1  0
 21 49  1  0
 24 50  1  0
 25 51  1  0
M  END
>  <smiles>  (69) 
O=C(NCC(=O)N1CCCC1C1CCCC1)c1ccc2cc(Cl)ccc2n1

>  <score_type>  (69) 
oracle

>  <origin>  (69) 
autodockgpu

>  <m_score__min__energy>  (69) 
-8.9199999999999999

>  <m_primary>  (69) 
energy

>  <rmsd>  (69) 
2.0214883307453233

>  <m_score__min__rmsd>  (69) 
2.0214883307453233

>  <meeko>  (69) 
{"free_energy": -7.88, "intermolecular_energy": -9.37, "internal_energy": -1.86, "cluster_size": 32, "cluster_id": 1, "rank_in_cluster": 22}

>  <energy>  (69) 
-7.91

>  <cluster_rmsd>  (69) 
1.92

>  <cluster>  (69) 
1

$$$$

     RDKit          3D

 51 54  0  0  0  0  0  0  0  0999 V2000
  136.4490   77.9720  222.5630 O   0  0  0  0  0  0  0  0  0  0  0  0
  136.6270   76.8120  223.0150 C   0  0  0  0  0  0  0  0  0  0  0  0
  137.8240   76.1100  222.6760 N   0  0  0  0  0  0  0  0  0  0  0  0
  138.7950   76.7290  221.8330 C   0  0  0  0  0  0  0  0  0  0  0  0
  140.0930   75.9890  221.8070 C   0  0  0  0  0  0  0  0  0  0  0  0
  140.0970   74.8490  222.3170 O   0  0  0  0  0  0  0  0  0  0  0  0
  141.2140   76.6190  221.2140 N   0  0  0  0  0  0  0  0  0  0  0  0
  142.1740   75.9900  220.2750 C   0  0  0  0  0  0  0  0  0  0  0  0
  142.2470   77.0940  219.2290 C   0  0  0  0  0  0  0  0  0  0  0  0
  141.7540   78.3760  219.8990 C   0  0  0  0  0  0  0  0  0  0  0  0
  141.7140   77.9690  221.3320 C   0  0  1  0  0  0  0  0  0  0  0  0
  141.0850   78.8600  222.3000 C   0  0  0  0  0  0  0  0  0  0  0  0
  141.8280   78.7980  223.6150 C   0  0  0  0  0  0  0  0  0  0  0  0
  142.6000   80.0980  223.6330 C   0  0  0  0  0  0  0  0  0  0  0  0
  141.5940   81.0800  223.0770 C   0  0  0  0  0  0  0  0  0  0  0  0
  141.0880   80.3070  221.8700 C   0  0  0  0  0  0  0  0  0  0  0  0
  135.6360   76.1760  223.8770 C   0  0  0  0  0  0  0  0  0  0  0  0
  134.6880   76.9720  224.5000 C   0  0  0  0  0  0  0  0  0  0  0  0
  133.7630   76.3710  225.3050 C   0  0  0  0  0  0  0  0  0  0  0  0
  133.7570   75.0090  225.5040 C   0  0  0  0  0  0  0  0  0  0  0  0
  132.8210   74.4120  226.3160 C   0  0  0  0  0  0  0  0  0  0  0  0
  132.7930   73.0380  226.5350 C   0  0  0  0  0  0  0  0  0  0  0  0
  131.5920   72.3040  227.5750 Cl  0  0  0  0  0  0  0  0  0  0  0  0
  133.7610   72.2660  225.8930 C   0  0  0  0  0  0  0  0  0  0  0  0
  134.7100   72.8720  225.0690 C   0  0  0  0  0  0  0  0  0  0  0  0
  134.7080   74.2320  224.8750 C   0  0  0  0  0  0  0  0  0  0  0  0
  135.6070   74.8510  224.0890 N   0  0  0  0  0  0  0  0  0  0  0  0
  137.9360   75.1410  223.0740 H   0  0  0  0  0  0  0  0  0  0  0  0
  138.3949   76.7734  220.8093 H   0  0  0  0  0  0  0  0  0  0  0  0
  138.9933   77.7328  222.2367 H   0  0  0  0  0  0  0  0  0  0  0  0
  143.1502   75.8043  220.7468 H   0  0  0  0  0  0  0  0  0  0  0  0
  141.8830   74.9992  219.8959 H   0  0  0  0  0  0  0  0  0  0  0  0
  143.2843   77.2216  218.8859 H   0  0  0  0  0  0  0  0  0  0  0  0
  141.6302   76.8464  218.3525 H   0  0  0  0  0  0  0  0  0  0  0  0
  142.4548   79.2083  219.7376 H   0  0  0  0  0  0  0  0  0  0  0  0
  140.7922   78.7424  219.5109 H   0  0  0  0  0  0  0  0  0  0  0  0
  142.6939   78.0349  221.8274 H   0  0  0  0  0  0  0  0  0  0  0  0
  140.0443   78.5150  222.3886 H   0  0  0  0  0  0  0  0  0  0  0  0
  141.1283   78.7423  224.4619 H   0  0  0  0  0  0  0  0  0  0  0  0
  142.4719   77.9109  223.7069 H   0  0  0  0  0  0  0  0  0  0  0  0
  142.8980   80.3699  224.6564 H   0  0  0  0  0  0  0  0  0  0  0  0
  143.5392   80.0596  223.0616 H   0  0  0  0  0  0  0  0  0  0  0  0
  140.7866   81.2846  223.7956 H   0  0  0  0  0  0  0  0  0  0  0  0
  142.0044   82.0739  222.8450 H   0  0  0  0  0  0  0  0  0  0  0  0
  140.0718   80.6319  221.6020 H   0  0  0  0  0  0  0  0  0  0  0  0
  141.7175   80.4712  220.9830 H   0  0  0  0  0  0  0  0  0  0  0  0
  134.6808   78.0617  224.3497 H   0  0  0  0  0  0  0  0  0  0  0  0
  133.0045   76.9901  225.8064 H   0  0  0  0  0  0  0  0  0  0  0  0
  132.0676   75.0432  226.8099 H   0  0  0  0  0  0  0  0  0  0  0  0
  133.7764   71.1755  226.0368 H   0  0  0  0  0  0  0  0  0  0  0  0
  135.4692   72.2531  224.5685 H   0  0  0  0  0  0  0  0  0  0  0  0
  1  2  2  0
  2  3  1  0
  3  4  1  0
  4  5  1  0
  5  6  2  0
  5  7  1  0
  7  8  1  0
  8  9  1  0
  9 10  1  0
 10 11  1  0
 11 12  1  0
 12 13  1  0
 13 14  1  0
 14 15  1  0
 15 16  1  0
  2 17  1  0
 17 18  2  0
 18 19  1  0
 19 20  2  0
 20 21  1  0
 21 22  2  0
 22 23  1  0
 22 24  1  0
 24 25  2  0
 25 26  1  0
 26 27  2  0
 11  7  1  0
 16 12  1  0
 27 17  1  0
 26 20  1  0
  3 28  1  0
  4 29  1  0
  4 30  1  0
  8 31  1  0
  8 32  1  0
  9 33  1  0
  9 34  1  0
 10 35  1  0
 10 36  1  0
 11 37  1  1
 12 38  1  0
 13 39  1  0
 13 40  1  0
 14 41  1  0
 14 42  1  0
 15 43  1  0
 15 44  1  0
 16 45  1  0
 16 46  1  0
 18 47  1  0
 19 48  1  0
 21 49  1  0
 24 50  1  0
 25 51  1  0
M  END
>  <smiles>  (70) 
O=C(NCC(=O)N1CCCC1C1CCCC1)c1ccc2cc(Cl)ccc2n1

>  <score_type>  (70) 
oracle

>  <origin>  (70) 
autodockgpu

>  <m_score__min__energy>  (70) 
-8.9199999999999999

>  <m_primary>  (70) 
energy

>  <rmsd>  (70) 
6.083120896577671

>  <m_score__min__rmsd>  (70) 
6.083120896577671

>  <meeko>  (70) 
{"free_energy": -7.42, "intermolecular_energy": -8.91, "internal_energy": -1.9, "cluster_size": 5, "cluster_id": 6, "rank_in_cluster": 5}

>  <energy>  (70) 
-7.9

>  <cluster_rmsd>  (70) 
1.84

>  <cluster>  (70) 
1

$$$$

     RDKit          3D

 51 54  0  0  0  0  0  0  0  0999 V2000
  139.6510   72.5700  220.5380 O   0  0  0  0  0  0  0  0  0  0  0  0
  140.2140   72.8500  221.6260 C   0  0  0  0  0  0  0  0  0  0  0  0
  140.9200   74.0860  221.7460 N   0  0  0  0  0  0  0  0  0  0  0  0
  140.9780   74.9800  220.6350 C   0  0  0  0  0  0  0  0  0  0  0  0
  140.7120   76.4000  221.0210 C   0  0  0  0  0  0  0  0  0  0  0  0
  139.7320   76.6020  221.7670 O   0  0  0  0  0  0  0  0  0  0  0  0
  141.5760   77.4040  220.5220 N   0  0  0  0  0  0  0  0  0  0  0  0
  142.4710   77.2810  219.3460 C   0  0  0  0  0  0  0  0  0  0  0  0
  142.1550   78.6030  218.6620 C   0  0  0  0  0  0  0  0  0  0  0  0
  141.5400   79.5170  219.7210 C   0  0  0  0  0  0  0  0  0  0  0  0
  141.8180   78.7560  220.9710 C   0  0  1  0  0  0  0  0  0  0  0  0
  141.1970   79.1940  222.2160 C   0  0  0  0  0  0  0  0  0  0  0  0
  142.1720   79.0370  223.3600 C   0  0  0  0  0  0  0  0  0  0  0  0
  142.6110   80.4580  223.6330 C   0  0  0  0  0  0  0  0  0  0  0  0
  141.3180   81.2290  223.4950 C   0  0  0  0  0  0  0  0  0  0  0  0
  140.7830   80.6460  222.1970 C   0  0  0  0  0  0  0  0  0  0  0  0
  140.1570   71.9390  222.7640 C   0  0  0  0  0  0  0  0  0  0  0  0
  139.5680   70.6970  222.5920 C   0  0  0  0  0  0  0  0  0  0  0  0
  139.5180   69.8470  223.6600 C   0  0  0  0  0  0  0  0  0  0  0  0
  140.0360   70.2000  224.8860 C   0  0  0  0  0  0  0  0  0  0  0  0
  139.9820   69.3380  225.9560 C   0  0  0  0  0  0  0  0  0  0  0  0
  140.4970   69.6690  227.2060 C   0  0  0  0  0  0  0  0  0  0  0  0
  140.4140   68.5540  228.5520 Cl  0  0  0  0  0  0  0  0  0  0  0  0
  141.0830   70.9270  227.3460 C   0  0  0  0  0  0  0  0  0  0  0  0
  141.1380   71.8010  226.2590 C   0  0  0  0  0  0  0  0  0  0  0  0
  140.6190   71.4400  225.0390 C   0  0  0  0  0  0  0  0  0  0  0  0
  140.6540   72.2560  223.9700 N   0  0  0  0  0  0  0  0  0  0  0  0
  141.3780   74.2850  222.6730 H   0  0  0  0  0  0  0  0  0  0  0  0
  141.9807   74.9193  220.1867 H   0  0  0  0  0  0  0  0  0  0  0  0
  140.1950   74.6772  219.9242 H   0  0  0  0  0  0  0  0  0  0  0  0
  143.5289   77.2115  219.6391 H   0  0  0  0  0  0  0  0  0  0  0  0
  142.3188   76.3828  218.7294 H   0  0  0  0  0  0  0  0  0  0  0  0
  143.0768   79.0524  218.2640 H   0  0  0  0  0  0  0  0  0  0  0  0
  141.4620   78.4544  217.8208 H   0  0  0  0  0  0  0  0  0  0  0  0
  142.0288   80.5023  219.7337 H   0  0  0  0  0  0  0  0  0  0  0  0
  140.4745   79.7368  219.5584 H   0  0  0  0  0  0  0  0  0  0  0  0
  142.8350   78.9183  221.3574 H   0  0  0  0  0  0  0  0  0  0  0  0
  140.3013   78.5673  222.3387 H   0  0  0  0  0  0  0  0  0  0  0  0
  141.6799   78.5994  224.2411 H   0  0  0  0  0  0  0  0  0  0  0  0
  143.0091   78.3630  223.1256 H   0  0  0  0  0  0  0  0  0  0  0  0
  143.0279   80.5581  224.6460 H   0  0  0  0  0  0  0  0  0  0  0  0
  143.4065   80.8095  222.9595 H   0  0  0  0  0  0  0  0  0  0  0  0
  140.6380   81.0351  224.3376 H   0  0  0  0  0  0  0  0  0  0  0  0
  141.4354   82.3227  223.4915 H   0  0  0  0  0  0  0  0  0  0  0  0
  139.6873   80.7344  222.1570 H   0  0  0  0  0  0  0  0  0  0  0  0
  141.1758   81.1744  221.3158 H   0  0  0  0  0  0  0  0  0  0  0  0
  139.1503   70.4022  221.6180 H   0  0  0  0  0  0  0  0  0  0  0  0
  139.0532   68.8575  223.5379 H   0  0  0  0  0  0  0  0  0  0  0  0
  139.5150   68.3515  225.8191 H   0  0  0  0  0  0  0  0  0  0  0  0
  141.5031   71.2313  228.3160 H   0  0  0  0  0  0  0  0  0  0  0  0
  141.6024   72.7907  226.3805 H   0  0  0  0  0  0  0  0  0  0  0  0
  1  2  2  0
  2  3  1  0
  3  4  1  0
  4  5  1  0
  5  6  2  0
  5  7  1  0
  7  8  1  0
  8  9  1  0
  9 10  1  0
 10 11  1  0
 11 12  1  0
 12 13  1  0
 13 14  1  0
 14 15  1  0
 15 16  1  0
  2 17  1  0
 17 18  2  0
 18 19  1  0
 19 20  2  0
 20 21  1  0
 21 22  2  0
 22 23  1  0
 22 24  1  0
 24 25  2  0
 25 26  1  0
 26 27  2  0
 11  7  1  0
 16 12  1  0
 27 17  1  0
 26 20  1  0
  3 28  1  0
  4 29  1  0
  4 30  1  0
  8 31  1  0
  8 32  1  0
  9 33  1  0
  9 34  1  0
 10 35  1  0
 10 36  1  0
 11 37  1  1
 12 38  1  0
 13 39  1  0
 13 40  1  0
 14 41  1  0
 14 42  1  0
 15 43  1  0
 15 44  1  0
 16 45  1  0
 16 46  1  0
 18 47  1  0
 19 48  1  0
 21 49  1  0
 24 50  1  0
 25 51  1  0
M  END
>  <smiles>  (71) 
O=C(NCC(=O)N1CCCC1C1CCCC1)c1ccc2cc(Cl)ccc2n1

>  <score_type>  (71) 
oracle

>  <origin>  (71) 
autodockgpu

>  <m_score__min__energy>  (71) 
-8.9199999999999999

>  <m_primary>  (71) 
energy

>  <rmsd>  (71) 
2.610890370928058

>  <m_score__min__rmsd>  (71) 
2.610890370928058

>  <meeko>  (71) 
{"free_energy": -8.08, "intermolecular_energy": -9.57, "internal_energy": -1.47, "cluster_size": 32, "cluster_id": 1, "rank_in_cluster": 15}

>  <energy>  (71) 
-7.89

>  <cluster_rmsd>  (71) 
1.9

>  <cluster>  (71) 
1

$$$$

     RDKit          3D

 51 54  0  0  0  0  0  0  0  0999 V2000
  138.9770   71.9300  220.7700 O   0  0  0  0  0  0  0  0  0  0  0  0
  139.1620   72.3750  221.9310 C   0  0  0  0  0  0  0  0  0  0  0  0
  139.1150   73.7860  222.1510 N   0  0  0  0  0  0  0  0  0  0  0  0
  138.8620   74.6660  221.0560 C   0  0  0  0  0  0  0  0  0  0  0  0
  139.9000   74.5710  219.9860 C   0  0  0  0  0  0  0  0  0  0  0  0
  139.5100   74.1970  218.8600 O   0  0  0  0  0  0  0  0  0  0  0  0
  141.2370   74.9050  220.3140 N   0  0  0  0  0  0  0  0  0  0  0  0
  142.3990   73.9840  220.2860 C   0  0  0  0  0  0  0  0  0  0  0  0
  143.3980   74.8790  219.5660 C   0  0  0  0  0  0  0  0  0  0  0  0
  142.8970   76.3150  219.7130 C   0  0  0  0  0  0  0  0  0  0  0  0
  141.8250   76.1550  220.7350 C   0  0  1  0  0  0  0  0  0  0  0  0
  140.9400   77.2810  221.0090 C   0  0  0  0  0  0  0  0  0  0  0  0
  140.5390   77.2780  222.4660 C   0  0  0  0  0  0  0  0  0  0  0  0
  141.3670   78.3990  223.0510 C   0  0  0  0  0  0  0  0  0  0  0  0
  141.2850   79.4580  221.9750 C   0  0  0  0  0  0  0  0  0  0  0  0
  141.5780   78.6230  220.7390 C   0  0  0  0  0  0  0  0  0  0  0  0
  139.4220   71.4780  223.0520 C   0  0  0  0  0  0  0  0  0  0  0  0
  139.0740   70.1430  222.9300 C   0  0  0  0  0  0  0  0  0  0  0  0
  139.3200   69.3080  223.9830 C   0  0  0  0  0  0  0  0  0  0  0  0
  139.8990   69.7650  225.1450 C   0  0  0  0  0  0  0  0  0  0  0  0
  140.1440   68.9180  226.2000 C   0  0  0  0  0  0  0  0  0  0  0  0
  140.7270   69.3530  227.3850 C   0  0  0  0  0  0  0  0  0  0  0  0
  141.0260   68.2540  228.7140 Cl  0  0  0  0  0  0  0  0  0  0  0  0
  141.0650   70.7040  227.4770 C   0  0  0  0  0  0  0  0  0  0  0  0
  140.8170   71.5630  226.4050 C   0  0  0  0  0  0  0  0  0  0  0  0
  140.2390   71.0980  225.2490 C   0  0  0  0  0  0  0  0  0  0  0  0
  139.9850   71.8970  224.1970 N   0  0  0  0  0  0  0  0  0  0  0  0
  139.2750   74.1200  223.1370 H   0  0  0  0  0  0  0  0  0  0  0  0
  137.8840   74.4132  220.6205 H   0  0  0  0  0  0  0  0  0  0  0  0
  138.8811   75.6944  221.4460 H   0  0  0  0  0  0  0  0  0  0  0  0
  142.7386   73.7181  221.2979 H   0  0  0  0  0  0  0  0  0  0  0  0
  142.2158   73.0068  219.8154 H   0  0  0  0  0  0  0  0  0  0  0  0
  144.3937   74.7775  220.0224 H   0  0  0  0  0  0  0  0  0  0  0  0
  143.4831   74.5992  218.5056 H   0  0  0  0  0  0  0  0  0  0  0  0
  143.6944   76.9839  220.0690 H   0  0  0  0  0  0  0  0  0  0  0  0
  142.5535   76.7678  218.7712 H   0  0  0  0  0  0  0  0  0  0  0  0
  142.2093   76.1367  221.7655 H   0  0  0  0  0  0  0  0  0  0  0  0
  140.0795   77.1522  220.3361 H   0  0  0  0  0  0  0  0  0  0  0  0
  139.4638   77.4800  222.5802 H   0  0  0  0  0  0  0  0  0  0  0  0
  140.7105   76.3102  222.9600 H   0  0  0  0  0  0  0  0  0  0  0  0
  140.9374   78.7591  223.9975 H   0  0  0  0  0  0  0  0  0  0  0  0
  142.3969   78.1021  223.2982 H   0  0  0  0  0  0  0  0  0  0  0  0
  140.2848   79.9135  221.9293 H   0  0  0  0  0  0  0  0  0  0  0  0
  141.9622   80.3124  222.1212 H   0  0  0  0  0  0  0  0  0  0  0  0
  141.1358   79.0878  219.8455 H   0  0  0  0  0  0  0  0  0  0  0  0
  142.6577   78.5346  220.5484 H   0  0  0  0  0  0  0  0  0  0  0  0
  138.6106   69.7640  222.0072 H   0  0  0  0  0  0  0  0  0  0  0  0
  139.0489   68.2452  223.9002 H   0  0  0  0  0  0  0  0  0  0  0  0
  139.8687   67.8574  226.1030 H   0  0  0  0  0  0  0  0  0  0  0  0
  141.5278   71.0927  228.3961 H   0  0  0  0  0  0  0  0  0  0  0  0
  141.0879   72.6260  226.4871 H   0  0  0  0  0  0  0  0  0  0  0  0
  1  2  2  0
  2  3  1  0
  3  4  1  0
  4  5  1  0
  5  6  2  0
  5  7  1  0
  7  8  1  0
  8  9  1  0
  9 10  1  0
 10 11  1  0
 11 12  1  0
 12 13  1  0
 13 14  1  0
 14 15  1  0
 15 16  1  0
  2 17  1  0
 17 18  2  0
 18 19  1  0
 19 20  2  0
 20 21  1  0
 21 22  2  0
 22 23  1  0
 22 24  1  0
 24 25  2  0
 25 26  1  0
 26 27  2  0
 11  7  1  0
 16 12  1  0
 27 17  1  0
 26 20  1  0
  3 28  1  0
  4 29  1  0
  4 30  1  0
  8 31  1  0
  8 32  1  0
  9 33  1  0
  9 34  1  0
 10 35  1  0
 10 36  1  0
 11 37  1  1
 12 38  1  0
 13 39  1  0
 13 40  1  0
 14 41  1  0
 14 42  1  0
 15 43  1  0
 15 44  1  0
 16 45  1  0
 16 46  1  0
 18 47  1  0
 19 48  1  0
 21 49  1  0
 24 50  1  0
 25 51  1  0
M  END
>  <smiles>  (72) 
O=C(NCC(=O)N1CCCC1C1CCCC1)c1ccc2cc(Cl)ccc2n1

>  <score_type>  (72) 
oracle

>  <origin>  (72) 
autodockgpu

>  <m_score__min__energy>  (72) 
-8.9199999999999999

>  <m_primary>  (72) 
energy

>  <rmsd>  (72) 
2.1593719839239776

>  <m_score__min__rmsd>  (72) 
2.1593719839239776

>  <meeko>  (72) 
{"free_energy": -7.7, "intermolecular_energy": -9.19, "internal_energy": -1.67, "cluster_size": 32, "cluster_id": 1, "rank_in_cluster": 28}

>  <energy>  (72) 
-7.88

>  <cluster_rmsd>  (72) 
1.99

>  <cluster>  (72) 
1

$$$$

     RDKit          3D

 51 54  0  0  0  0  0  0  0  0999 V2000
  140.0930   72.4090  220.6850 O   0  0  0  0  0  0  0  0  0  0  0  0
  139.8970   72.7950  221.8660 C   0  0  0  0  0  0  0  0  0  0  0  0
  139.6010   74.1710  222.1080 N   0  0  0  0  0  0  0  0  0  0  0  0
  139.5340   75.0850  221.0130 C   0  0  0  0  0  0  0  0  0  0  0  0
  140.7820   75.8910  220.8560 C   0  0  0  0  0  0  0  0  0  0  0  0
  141.0830   76.6460  221.8040 O   0  0  0  0  0  0  0  0  0  0  0  0
  141.5290   75.7470  219.6610 N   0  0  0  0  0  0  0  0  0  0  0  0
  141.1310   76.2370  218.3190 C   0  0  0  0  0  0  0  0  0  0  0  0
  142.4460   76.8750  217.8950 C   0  0  0  0  0  0  0  0  0  0  0  0
  143.5400   76.2650  218.7700 C   0  0  0  0  0  0  0  0  0  0  0  0
  142.8130   75.1350  219.4140 C   0  0  1  0  0  0  0  0  0  0  0  0
  143.4580   74.4120  220.5040 C   0  0  0  0  0  0  0  0  0  0  0  0
  143.0950   72.9460  220.4350 C   0  0  0  0  0  0  0  0  0  0  0  0
  144.3560   72.3070  219.8980 C   0  0  0  0  0  0  0  0  0  0  0  0
  145.4410   73.0540  220.6410 C   0  0  0  0  0  0  0  0  0  0  0  0
  144.9660   74.4860  220.4600 C   0  0  0  0  0  0  0  0  0  0  0  0
  139.9650   71.8640  222.9870 C   0  0  0  0  0  0  0  0  0  0  0  0
  139.5280   70.5630  222.7980 C   0  0  0  0  0  0  0  0  0  0  0  0
  139.5940   69.6950  223.8510 C   0  0  0  0  0  0  0  0  0  0  0  0
  140.0810   70.0870  225.0770 C   0  0  0  0  0  0  0  0  0  0  0  0
  140.1450   69.2060  226.1320 C   0  0  0  0  0  0  0  0  0  0  0  0
  140.6320   69.5750  227.3820 C   0  0  0  0  0  0  0  0  0  0  0  0
  140.7020   68.4360  228.7080 Cl  0  0  0  0  0  0  0  0  0  0  0  0
  141.0640   70.8930  227.5390 C   0  0  0  0  0  0  0  0  0  0  0  0
  140.9990   71.7860  226.4680 C   0  0  0  0  0  0  0  0  0  0  0  0
  140.5120   71.3860  225.2470 C   0  0  0  0  0  0  0  0  0  0  0  0
  140.4350   72.2180  224.1940 N   0  0  0  0  0  0  0  0  0  0  0  0
  139.4430   74.4550  223.1090 H   0  0  0  0  0  0  0  0  0  0  0  0
  139.3655   74.5140  220.0881 H   0  0  0  0  0  0  0  0  0  0  0  0
  138.7102   75.7852  221.2154 H   0  0  0  0  0  0  0  0  0  0  0  0
  140.8379   75.4142  217.6503 H   0  0  0  0  0  0  0  0  0  0  0  0
  140.2558   76.9031  218.3004 H   0  0  0  0  0  0  0  0  0  0  0  0
  142.6460   76.6598  216.8350 H   0  0  0  0  0  0  0  0  0  0  0  0
  142.4096   77.9677  218.0161 H   0  0  0  0  0  0  0  0  0  0  0  0
  144.3848   75.9055  218.1641 H   0  0  0  0  0  0  0  0  0  0  0  0
  143.9894   76.9722  219.4827 H   0  0  0  0  0  0  0  0  0  0  0  0
  142.7597   74.2384  218.7789 H   0  0  0  0  0  0  0  0  0  0  0  0
  143.1025   74.8900  221.4288 H   0  0  0  0  0  0  0  0  0  0  0  0
  142.8466   72.5531  221.4319 H   0  0  0  0  0  0  0  0  0  0  0  0
  142.2101   72.7479  219.8123 H   0  0  0  0  0  0  0  0  0  0  0  0
  144.3854   71.2314  220.1266 H   0  0  0  0  0  0  0  0  0  0  0  0
  144.4491   72.3707  218.8038 H   0  0  0  0  0  0  0  0  0  0  0  0
  145.4759   72.7690  221.7029 H   0  0  0  0  0  0  0  0  0  0  0  0
  146.4613   72.8604  220.2782 H   0  0  0  0  0  0  0  0  0  0  0  0
  145.3447   75.1236  221.2725 H   0  0  0  0  0  0  0  0  0  0  0  0
  145.3287   74.9233  219.5181 H   0  0  0  0  0  0  0  0  0  0  0  0
  139.1371   70.2365  221.8230 H   0  0  0  0  0  0  0  0  0  0  0  0
  139.2500   68.6590  223.7157 H   0  0  0  0  0  0  0  0  0  0  0  0
  139.7987   68.1728  225.9818 H   0  0  0  0  0  0  0  0  0  0  0  0
  141.4570   71.2291  228.5099 H   0  0  0  0  0  0  0  0  0  0  0  0
  141.3418   72.8224  226.6032 H   0  0  0  0  0  0  0  0  0  0  0  0
  1  2  2  0
  2  3  1  0
  3  4  1  0
  4  5  1  0
  5  6  2  0
  5  7  1  0
  7  8  1  0
  8  9  1  0
  9 10  1  0
 10 11  1  0
 11 12  1  0
 12 13  1  0
 13 14  1  0
 14 15  1  0
 15 16  1  0
  2 17  1  0
 17 18  2  0
 18 19  1  0
 19 20  2  0
 20 21  1  0
 21 22  2  0
 22 23  1  0
 22 24  1  0
 24 25  2  0
 25 26  1  0
 26 27  2  0
 11  7  1  0
 16 12  1  0
 27 17  1  0
 26 20  1  0
  3 28  1  0
  4 29  1  0
  4 30  1  0
  8 31  1  0
  8 32  1  0
  9 33  1  0
  9 34  1  0
 10 35  1  0
 10 36  1  0
 11 37  1  6
 12 38  1  0
 13 39  1  0
 13 40  1  0
 14 41  1  0
 14 42  1  0
 15 43  1  0
 15 44  1  0
 16 45  1  0
 16 46  1  0
 18 47  1  0
 19 48  1  0
 21 49  1  0
 24 50  1  0
 25 51  1  0
M  END
>  <smiles>  (73) 
O=C(NCC(=O)N1CCCC1C1CCCC1)c1ccc2cc(Cl)ccc2n1

>  <score_type>  (73) 
oracle

>  <origin>  (73) 
autodockgpu

>  <m_score__min__energy>  (73) 
-8.9199999999999999

>  <m_primary>  (73) 
energy

>  <rmsd>  (73) 
2.049133696312535

>  <m_score__min__rmsd>  (73) 
2.049133696312535

>  <meeko>  (73) 
{"free_energy": -7.91, "intermolecular_energy": -9.41, "internal_energy": -1.87, "cluster_size": 32, "cluster_id": 1, "rank_in_cluster": 19}

>  <energy>  (73) 
-7.87

>  <cluster_rmsd>  (73) 
1.78

>  <cluster>  (73) 
1

$$$$

     RDKit          3D

 51 54  0  0  0  0  0  0  0  0999 V2000
  140.3340   72.6560  220.8970 O   0  0  0  0  0  0  0  0  0  0  0  0
  139.9830   72.9540  222.0670 C   0  0  0  0  0  0  0  0  0  0  0  0
  139.5430   74.2850  222.3440 N   0  0  0  0  0  0  0  0  0  0  0  0
  139.5080   75.2520  221.2950 C   0  0  0  0  0  0  0  0  0  0  0  0
  139.1480   76.6190  221.7810 C   0  0  0  0  0  0  0  0  0  0  0  0
  138.5350   76.6820  222.8680 O   0  0  0  0  0  0  0  0  0  0  0  0
  139.5180   77.7330  220.9900 N   0  0  0  0  0  0  0  0  0  0  0  0
  139.4120   77.8290  219.5140 C   0  0  0  0  0  0  0  0  0  0  0  0
  138.7890   79.2140  219.4070 C   0  0  0  0  0  0  0  0  0  0  0  0
  139.0680   79.9310  220.7260 C   0  0  0  0  0  0  0  0  0  0  0  0
  140.0620   79.0190  221.3590 C   0  0  1  0  0  0  0  0  0  0  0  0
  140.4350   79.2410  222.7520 C   0  0  0  0  0  0  0  0  0  0  0  0
  141.7970   78.6430  223.0200 C   0  0  0  0  0  0  0  0  0  0  0  0
  142.6960   79.8570  223.0820 C   0  0  0  0  0  0  0  0  0  0  0  0
  141.8510   80.8490  223.8470 C   0  0  0  0  0  0  0  0  0  0  0  0
  140.5230   80.7020  223.1210 C   0  0  0  0  0  0  0  0  0  0  0  0
  140.0180   71.9680  223.1410 C   0  0  0  0  0  0  0  0  0  0  0  0
  139.5480   70.6900  222.8860 C   0  0  0  0  0  0  0  0  0  0  0  0
  139.5830   69.7700  223.8960 C   0  0  0  0  0  0  0  0  0  0  0  0
  140.0710   70.0880  225.1430 C   0  0  0  0  0  0  0  0  0  0  0  0
  140.1030   69.1550  226.1530 C   0  0  0  0  0  0  0  0  0  0  0  0
  140.5900   69.4500  227.4230 C   0  0  0  0  0  0  0  0  0  0  0  0
  140.6190   68.2450  228.6920 Cl  0  0  0  0  0  0  0  0  0  0  0  0
  141.0550   70.7460  227.6480 C   0  0  0  0  0  0  0  0  0  0  0  0
  141.0220   71.6920  226.6220 C   0  0  0  0  0  0  0  0  0  0  0  0
  140.5350   71.3650  225.3790 C   0  0  0  0  0  0  0  0  0  0  0  0
  140.4880   72.2500  224.3680 N   0  0  0  0  0  0  0  0  0  0  0  0
  139.2580   74.4950  223.3350 H   0  0  0  0  0  0  0  0  0  0  0  0
  140.5012   75.2963  220.8242 H   0  0  0  0  0  0  0  0  0  0  0  0
  138.7323   74.9388  220.5807 H   0  0  0  0  0  0  0  0  0  0  0  0
  140.3968   77.7814  219.0262 H   0  0  0  0  0  0  0  0  0  0  0  0
  138.8487   77.0191  219.0274 H   0  0  0  0  0  0  0  0  0  0  0  0
  139.2420   79.7687  218.5721 H   0  0  0  0  0  0  0  0  0  0  0  0
  137.7075   79.1449  219.2184 H   0  0  0  0  0  0  0  0  0  0  0  0
  139.4922   80.9317  220.5569 H   0  0  0  0  0  0  0  0  0  0  0  0
  138.1708   80.1082  221.3373 H   0  0  0  0  0  0  0  0  0  0  0  0
  141.0891   79.1835  221.0013 H   0  0  0  0  0  0  0  0  0  0  0  0
  139.6432   78.7683  223.3516 H   0  0  0  0  0  0  0  0  0  0  0  0
  141.8072   78.0945  223.9735 H   0  0  0  0  0  0  0  0  0  0  0  0
  142.1071   77.9128  222.2580 H   0  0  0  0  0  0  0  0  0  0  0  0
  143.6301   79.6333  223.6181 H   0  0  0  0  0  0  0  0  0  0  0  0
  143.0123   80.2202  222.0930 H   0  0  0  0  0  0  0  0  0  0  0  0
  141.7654   80.5754  224.9090 H   0  0  0  0  0  0  0  0  0  0  0  0
  142.2516   81.8733  223.8657 H   0  0  0  0  0  0  0  0  0  0  0  0
  139.6892   80.9844  223.7805 H   0  0  0  0  0  0  0  0  0  0  0  0
  140.4625   81.3542  222.2373 H   0  0  0  0  0  0  0  0  0  0  0  0
  139.1558   70.4220  221.8938 H   0  0  0  0  0  0  0  0  0  0  0  0
  139.2125   68.7515  223.7079 H   0  0  0  0  0  0  0  0  0  0  0  0
  139.7306   68.1401  225.9499 H   0  0  0  0  0  0  0  0  0  0  0  0
  141.4488   71.0232  228.6369 H   0  0  0  0  0  0  0  0  0  0  0  0
  141.3901   72.7113  226.8105 H   0  0  0  0  0  0  0  0  0  0  0  0
  1  2  2  0
  2  3  1  0
  3  4  1  0
  4  5  1  0
  5  6  2  0
  5  7  1  0
  7  8  1  0
  8  9  1  0
  9 10  1  0
 10 11  1  0
 11 12  1  0
 12 13  1  0
 13 14  1  0
 14 15  1  0
 15 16  1  0
  2 17  1  0
 17 18  2  0
 18 19  1  0
 19 20  2  0
 20 21  1  0
 21 22  2  0
 22 23  1  0
 22 24  1  0
 24 25  2  0
 25 26  1  0
 26 27  2  0
 11  7  1  0
 16 12  1  0
 27 17  1  0
 26 20  1  0
  3 28  1  0
  4 29  1  0
  4 30  1  0
  8 31  1  0
  8 32  1  0
  9 33  1  0
  9 34  1  0
 10 35  1  0
 10 36  1  0
 11 37  1  6
 12 38  1  0
 13 39  1  0
 13 40  1  0
 14 41  1  0
 14 42  1  0
 15 43  1  0
 15 44  1  0
 16 45  1  0
 16 46  1  0
 18 47  1  0
 19 48  1  0
 21 49  1  0
 24 50  1  0
 25 51  1  0
M  END
>  <smiles>  (74) 
O=C(NCC(=O)N1CCCC1C1CCCC1)c1ccc2cc(Cl)ccc2n1

>  <score_type>  (74) 
oracle

>  <origin>  (74) 
autodockgpu

>  <m_score__min__energy>  (74) 
-8.9199999999999999

>  <m_primary>  (74) 
energy

>  <rmsd>  (74) 
2.4625539244323353

>  <m_score__min__rmsd>  (74) 
2.4625539244323353

>  <meeko>  (74) 
{"free_energy": -8.02, "intermolecular_energy": -9.51, "internal_energy": -1.71, "cluster_size": 32, "cluster_id": 1, "rank_in_cluster": 17}

>  <energy>  (74) 
-7.86

>  <cluster_rmsd>  (74) 
1.95

>  <cluster>  (74) 
1

$$$$

     RDKit          3D

 51 54  0  0  0  0  0  0  0  0999 V2000
  140.3480   72.7690  220.9690 O   0  0  0  0  0  0  0  0  0  0  0  0
  139.6860   72.8850  222.0310 C   0  0  0  0  0  0  0  0  0  0  0  0
  138.7890   73.9880  222.1740 N   0  0  0  0  0  0  0  0  0  0  0  0
  138.6570   74.9370  221.1160 C   0  0  0  0  0  0  0  0  0  0  0  0
  139.1650   76.2920  221.4890 C   0  0  0  0  0  0  0  0  0  0  0  0
  138.3430   77.0710  222.0150 O   0  0  0  0  0  0  0  0  0  0  0  0
  140.5230   76.5970  221.2260 N   0  0  0  0  0  0  0  0  0  0  0  0
  141.4730   75.7570  220.4580 C   0  0  0  0  0  0  0  0  0  0  0  0
  142.0890   76.8330  219.5760 C   0  0  0  0  0  0  0  0  0  0  0  0
  141.8150   78.1750  220.2530 C   0  0  0  0  0  0  0  0  0  0  0  0
  141.3260   77.7410  221.5910 C   0  0  1  0  0  0  0  0  0  0  0  0
  140.7480   78.7360  222.4880 C   0  0  0  0  0  0  0  0  0  0  0  0
  141.5730   78.8320  223.7500 C   0  0  0  0  0  0  0  0  0  0  0  0
  142.3280   80.1290  223.5670 C   0  0  0  0  0  0  0  0  0  0  0  0
  141.2770   81.0340  222.9660 C   0  0  0  0  0  0  0  0  0  0  0  0
  140.7050   80.1220  221.8920 C   0  0  0  0  0  0  0  0  0  0  0  0
  139.8190   71.9170  223.1140 C   0  0  0  0  0  0  0  0  0  0  0  0
  139.4450   70.6040  222.8820 C   0  0  0  0  0  0  0  0  0  0  0  0
  139.5720   69.7020  223.9000 C   0  0  0  0  0  0  0  0  0  0  0  0
  140.0570   70.0710  225.1340 C   0  0  0  0  0  0  0  0  0  0  0  0
  140.1810   69.1560  226.1530 C   0  0  0  0  0  0  0  0  0  0  0  0
  140.6680   69.5030  227.4090 C   0  0  0  0  0  0  0  0  0  0  0  0
  140.8160   68.3190  228.6900 Cl  0  0  0  0  0  0  0  0  0  0  0  0
  141.0360   70.8340  227.6110 C   0  0  0  0  0  0  0  0  0  0  0  0
  140.9090   71.7620  226.5760 C   0  0  0  0  0  0  0  0  0  0  0  0
  140.4240   71.3840  225.3480 C   0  0  0  0  0  0  0  0  0  0  0  0
  140.2890   72.2500  224.3280 N   0  0  0  0  0  0  0  0  0  0  0  0
  138.2530   74.0510  223.0780 H   0  0  0  0  0  0  0  0  0  0  0  0
  139.2252   74.5755  220.2462 H   0  0  0  0  0  0  0  0  0  0  0  0
  137.5850   75.0351  220.8899 H   0  0  0  0  0  0  0  0  0  0  0  0
  142.2206   75.2804  221.1091 H   0  0  0  0  0  0  0  0  0  0  0  0
  141.0246   74.9075  219.9220 H   0  0  0  0  0  0  0  0  0  0  0  0
  143.1730   76.6708  219.4832 H   0  0  0  0  0  0  0  0  0  0  0  0
  141.6566   76.8074  218.5649 H   0  0  0  0  0  0  0  0  0  0  0  0
  142.7318   78.7770  220.3366 H   0  0  0  0  0  0  0  0  0  0  0  0
  141.1093   78.8168  219.7052 H   0  0  0  0  0  0  0  0  0  0  0  0
  142.1404   77.5040  222.2914 H   0  0  0  0  0  0  0  0  0  0  0  0
  139.7196   78.3985  222.6842 H   0  0  0  0  0  0  0  0  0  0  0  0
  140.9290   78.8721  224.6409 H   0  0  0  0  0  0  0  0  0  0  0  0
  142.2326   77.9651  223.9028 H   0  0  0  0  0  0  0  0  0  0  0  0
  142.6863   80.5203  224.5306 H   0  0  0  0  0  0  0  0  0  0  0  0
  143.2297   80.0288  222.9450 H   0  0  0  0  0  0  0  0  0  0  0  0
  140.5142   81.3175  223.7061 H   0  0  0  0  0  0  0  0  0  0  0  0
  141.6596   81.9958  222.5937 H   0  0  0  0  0  0  0  0  0  0  0  0
  139.6698   80.4079  221.6540 H   0  0  0  0  0  0  0  0  0  0  0  0
  141.2744   80.1842  220.9529 H   0  0  0  0  0  0  0  0  0  0  0  0
  139.0549   70.2947  221.9011 H   0  0  0  0  0  0  0  0  0  0  0  0
  139.2796   68.6554  223.7293 H   0  0  0  0  0  0  0  0  0  0  0  0
  139.8846   68.1129  225.9684 H   0  0  0  0  0  0  0  0  0  0  0  0
  141.4272   71.1526  228.5885 H   0  0  0  0  0  0  0  0  0  0  0  0
  141.2009   72.8088  226.7461 H   0  0  0  0  0  0  0  0  0  0  0  0
  1  2  2  0
  2  3  1  0
  3  4  1  0
  4  5  1  0
  5  6  2  0
  5  7  1  0
  7  8  1  0
  8  9  1  0
  9 10  1  0
 10 11  1  0
 11 12  1  0
 12 13  1  0
 13 14  1  0
 14 15  1  0
 15 16  1  0
  2 17  1  0
 17 18  2  0
 18 19  1  0
 19 20  2  0
 20 21  1  0
 21 22  2  0
 22 23  1  0
 22 24  1  0
 24 25  2  0
 25 26  1  0
 26 27  2  0
 11  7  1  0
 16 12  1  0
 27 17  1  0
 26 20  1  0
  3 28  1  0
  4 29  1  0
  4 30  1  0
  8 31  1  0
  8 32  1  0
  9 33  1  0
  9 34  1  0
 10 35  1  0
 10 36  1  0
 11 37  1  1
 12 38  1  0
 13 39  1  0
 13 40  1  0
 14 41  1  0
 14 42  1  0
 15 43  1  0
 15 44  1  0
 16 45  1  0
 16 46  1  0
 18 47  1  0
 19 48  1  0
 21 49  1  0
 24 50  1  0
 25 51  1  0
M  END
>  <smiles>  (75) 
O=C(NCC(=O)N1CCCC1C1CCCC1)c1ccc2cc(Cl)ccc2n1

>  <score_type>  (75) 
oracle

>  <origin>  (75) 
autodockgpu

>  <m_score__min__energy>  (75) 
-8.9199999999999999

>  <m_primary>  (75) 
energy

>  <rmsd>  (75) 
2.033072911044391

>  <m_score__min__rmsd>  (75) 
2.033072911044391

>  <meeko>  (75) 
{"free_energy": -8.6, "intermolecular_energy": -10.09, "internal_energy": -1.37, "cluster_size": 32, "cluster_id": 1, "rank_in_cluster": 12}

>  <energy>  (75) 
-7.82

>  <cluster_rmsd>  (75) 
1.18

>  <cluster>  (75) 
1

$$$$

     RDKit          3D

 51 54  0  0  0  0  0  0  0  0999 V2000
  140.3450   72.3620  220.7440 O   0  0  0  0  0  0  0  0  0  0  0  0
  139.9850   72.7090  221.8980 C   0  0  0  0  0  0  0  0  0  0  0  0
  139.5260   74.0440  222.1110 N   0  0  0  0  0  0  0  0  0  0  0  0
  139.4830   74.9630  221.0200 C   0  0  0  0  0  0  0  0  0  0  0  0
  140.7630   75.7140  220.8460 C   0  0  0  0  0  0  0  0  0  0  0  0
  141.1080   76.4550  221.7890 O   0  0  0  0  0  0  0  0  0  0  0  0
  141.4870   75.5390  219.6420 N   0  0  0  0  0  0  0  0  0  0  0  0
  141.0430   75.9520  218.2880 C   0  0  0  0  0  0  0  0  0  0  0  0
  142.3270   76.6100  217.8040 C   0  0  0  0  0  0  0  0  0  0  0  0
  143.4590   76.0780  218.6800 C   0  0  0  0  0  0  0  0  0  0  0  0
  142.7850   74.9560  219.3920 C   0  0  1  0  0  0  0  0  0  0  0  0
  143.4780   74.3060  220.4990 C   0  0  0  0  0  0  0  0  0  0  0  0
  143.2620   72.8120  220.4340 C   0  0  0  0  0  0  0  0  0  0  0  0
  144.5890   72.2970  219.9240 C   0  0  0  0  0  0  0  0  0  0  0  0
  145.5810   73.1500  220.6810 C   0  0  0  0  0  0  0  0  0  0  0  0
  144.9710   74.5290  220.4820 C   0  0  0  0  0  0  0  0  0  0  0  0
  140.0280   71.7730  223.0160 C   0  0  0  0  0  0  0  0  0  0  0  0
  139.5410   70.4890  222.8280 C   0  0  0  0  0  0  0  0  0  0  0  0
  139.5840   69.6170  223.8780 C   0  0  0  0  0  0  0  0  0  0  0  0
  140.0960   69.9870  225.1020 C   0  0  0  0  0  0  0  0  0  0  0  0
  140.1360   69.1020  226.1530 C   0  0  0  0  0  0  0  0  0  0  0  0
  140.6470   69.4500  227.4000 C   0  0  0  0  0  0  0  0  0  0  0  0
  140.6850   68.3050  228.7230 Cl  0  0  0  0  0  0  0  0  0  0  0  0
  141.1290   70.7500  227.5570 C   0  0  0  0  0  0  0  0  0  0  0  0
  141.0880   71.6470  226.4880 C   0  0  0  0  0  0  0  0  0  0  0  0
  140.5770   71.2690  225.2710 C   0  0  0  0  0  0  0  0  0  0  0  0
  140.5210   72.1060  224.2200 N   0  0  0  0  0  0  0  0  0  0  0  0
  139.2340   74.2960  223.0910 H   0  0  0  0  0  0  0  0  0  0  0  0
  139.2756   74.4028  220.0963 H   0  0  0  0  0  0  0  0  0  0  0  0
  138.6940   75.6982  221.2366 H   0  0  0  0  0  0  0  0  0  0  0  0
  140.7620   75.0896  217.6656 H   0  0  0  0  0  0  0  0  0  0  0  0
  140.1463   76.5885  218.2589 H   0  0  0  0  0  0  0  0  0  0  0  0
  142.5106   76.3508  216.7509 H   0  0  0  0  0  0  0  0  0  0  0  0
  142.2575   77.7055  217.8748 H   0  0  0  0  0  0  0  0  0  0  0  0
  144.3022   75.7186  218.0718 H   0  0  0  0  0  0  0  0  0  0  0  0
  143.8994   76.8321  219.3488 H   0  0  0  0  0  0  0  0  0  0  0  0
  142.7473   74.0294  218.8003 H   0  0  0  0  0  0  0  0  0  0  0  0
  143.0605   74.7512  221.4141 H   0  0  0  0  0  0  0  0  0  0  0  0
  143.0351   72.4019  221.4292 H   0  0  0  0  0  0  0  0  0  0  0  0
  142.4124   72.5247  219.7971 H   0  0  0  0  0  0  0  0  0  0  0  0
  144.7194   71.2306  220.1603 H   0  0  0  0  0  0  0  0  0  0  0  0
  144.6957   72.3640  218.8312 H   0  0  0  0  0  0  0  0  0  0  0  0
  145.6240   72.8749  221.7452 H   0  0  0  0  0  0  0  0  0  0  0  0
  146.6218   73.0557  220.3378 H   0  0  0  0  0  0  0  0  0  0  0  0
  145.2697   75.2045  221.2972 H   0  0  0  0  0  0  0  0  0  0  0  0
  145.3068   74.9964  219.5445 H   0  0  0  0  0  0  0  0  0  0  0  0
  139.1296   70.1797  221.8559 H   0  0  0  0  0  0  0  0  0  0  0  0
  139.2007   68.5948  223.7431 H   0  0  0  0  0  0  0  0  0  0  0  0
  139.7505   68.0827  226.0032 H   0  0  0  0  0  0  0  0  0  0  0  0
  141.5422   71.0688  228.5253 H   0  0  0  0  0  0  0  0  0  0  0  0
  141.4700   72.6697  226.6225 H   0  0  0  0  0  0  0  0  0  0  0  0
  1  2  2  0
  2  3  1  0
  3  4  1  0
  4  5  1  0
  5  6  2  0
  5  7  1  0
  7  8  1  0
  8  9  1  0
  9 10  1  0
 10 11  1  0
 11 12  1  0
 12 13  1  0
 13 14  1  0
 14 15  1  0
 15 16  1  0
  2 17  1  0
 17 18  2  0
 18 19  1  0
 19 20  2  0
 20 21  1  0
 21 22  2  0
 22 23  1  0
 22 24  1  0
 24 25  2  0
 25 26  1  0
 26 27  2  0
 11  7  1  0
 16 12  1  0
 27 17  1  0
 26 20  1  0
  3 28  1  0
  4 29  1  0
  4 30  1  0
  8 31  1  0
  8 32  1  0
  9 33  1  0
  9 34  1  0
 10 35  1  0
 10 36  1  0
 11 37  1  6
 12 38  1  0
 13 39  1  0
 13 40  1  0
 14 41  1  0
 14 42  1  0
 15 43  1  0
 15 44  1  0
 16 45  1  0
 16 46  1  0
 18 47  1  0
 19 48  1  0
 21 49  1  0
 24 50  1  0
 25 51  1  0
M  END
>  <smiles>  (76) 
O=C(NCC(=O)N1CCCC1C1CCCC1)c1ccc2cc(Cl)ccc2n1

>  <score_type>  (76) 
oracle

>  <origin>  (76) 
autodockgpu

>  <m_score__min__energy>  (76) 
-8.9199999999999999

>  <m_primary>  (76) 
energy

>  <rmsd>  (76) 
1.9840013119736006

>  <m_score__min__rmsd>  (76) 
1.9840013119736006

>  <meeko>  (76) 
{"free_energy": -7.92, "intermolecular_energy": -9.42, "internal_energy": -1.81, "cluster_size": 32, "cluster_id": 1, "rank_in_cluster": 18}

>  <energy>  (76) 
-7.79

>  <cluster_rmsd>  (76) 
1.3

>  <cluster>  (76) 
1

$$$$

     RDKit          3D

 51 54  0  0  0  0  0  0  0  0999 V2000
  138.5560   79.8860  220.8270 O   0  0  0  0  0  0  0  0  0  0  0  0
  138.1390   79.6370  221.9870 C   0  0  0  0  0  0  0  0  0  0  0  0
  138.0940   78.2810  222.4340 N   0  0  0  0  0  0  0  0  0  0  0  0
  138.5200   77.2330  221.5640 C   0  0  0  0  0  0  0  0  0  0  0  0
  139.8910   76.7350  221.8880 C   0  0  0  0  0  0  0  0  0  0  0  0
  139.9640   75.7810  222.6910 O   0  0  0  0  0  0  0  0  0  0  0  0
  140.9990   77.3670  221.2730 N   0  0  0  0  0  0  0  0  0  0  0  0
  141.7940   76.8300  220.1430 C   0  0  0  0  0  0  0  0  0  0  0  0
  141.8620   78.0810  219.2780 C   0  0  0  0  0  0  0  0  0  0  0  0
  141.5620   79.2690  220.1910 C   0  0  0  0  0  0  0  0  0  0  0  0
  141.6330   78.6380  221.5380 C   0  0  1  0  0  0  0  0  0  0  0  0
  141.1930   79.4030  222.7000 C   0  0  0  0  0  0  0  0  0  0  0  0
  142.1550   79.1950  223.8470 C   0  0  0  0  0  0  0  0  0  0  0  0
  142.9320   80.4910  223.8810 C   0  0  0  0  0  0  0  0  0  0  0  0
  141.8550   81.5220  223.6290 C   0  0  0  0  0  0  0  0  0  0  0  0
  141.1370   80.8910  222.4480 C   0  0  0  0  0  0  0  0  0  0  0  0
  137.7020   80.7060  222.8780 C   0  0  0  0  0  0  0  0  0  0  0  0
  137.4640   81.9620  222.3440 C   0  0  0  0  0  0  0  0  0  0  0  0
  137.0550   82.9590  223.1840 C   0  0  0  0  0  0  0  0  0  0  0  0
  136.8780   82.7390  224.5310 C   0  0  0  0  0  0  0  0  0  0  0  0
  136.4660   83.7480  225.3690 C   0  0  0  0  0  0  0  0  0  0  0  0
  136.2810   83.5540  226.7340 C   0  0  0  0  0  0  0  0  0  0  0  0
  135.7560   84.8560  227.7800 Cl  0  0  0  0  0  0  0  0  0  0  0  0
  136.5300   82.2780  227.2410 C   0  0  0  0  0  0  0  0  0  0  0  0
  136.9480   81.2540  226.3890 C   0  0  0  0  0  0  0  0  0  0  0  0
  137.1210   81.4820  225.0460 C   0  0  0  0  0  0  0  0  0  0  0  0
  137.5220   80.5200  224.1960 N   0  0  0  0  0  0  0  0  0  0  0  0
  137.7380   78.1140  223.4110 H   0  0  0  0  0  0  0  0  0  0  0  0
  137.8122   76.3953  221.6494 H   0  0  0  0  0  0  0  0  0  0  0  0
  138.5476   77.6402  220.5425 H   0  0  0  0  0  0  0  0  0  0  0  0
  142.7920   76.4963  220.4636 H   0  0  0  0  0  0  0  0  0  0  0  0
  141.3739   75.9397  219.6521 H   0  0  0  0  0  0  0  0  0  0  0  0
  142.8660   78.1842  218.8405 H   0  0  0  0  0  0  0  0  0  0  0  0
  141.1387   78.0276  218.4510 H   0  0  0  0  0  0  0  0  0  0  0  0
  142.3164   80.0617  220.0790 H   0  0  0  0  0  0  0  0  0  0  0  0
  140.6031   79.7646  219.9794 H   0  0  0  0  0  0  0  0  0  0  0  0
  142.6612   78.5488  221.9185 H   0  0  0  0  0  0  0  0  0  0  0  0
  140.1805   79.0396  222.9296 H   0  0  0  0  0  0  0  0  0  0  0  0
  141.6146   79.0335  224.7914 H   0  0  0  0  0  0  0  0  0  0  0  0
  142.7954   78.3098  223.7195 H   0  0  0  0  0  0  0  0  0  0  0  0
  143.4080   80.6440  224.8608 H   0  0  0  0  0  0  0  0  0  0  0  0
  143.7557   80.5289  223.1529 H   0  0  0  0  0  0  0  0  0  0  0  0
  141.1885   81.6332  224.4970 H   0  0  0  0  0  0  0  0  0  0  0  0
  142.2293   82.5401  223.4466 H   0  0  0  0  0  0  0  0  0  0  0  0
  140.0933   81.2355  222.4021 H   0  0  0  0  0  0  0  0  0  0  0  0
  141.6033   81.1637  221.4898 H   0  0  0  0  0  0  0  0  0  0  0  0
  137.6011   82.1521  221.2692 H   0  0  0  0  0  0  0  0  0  0  0  0
  136.8626   83.9614  222.7739 H   0  0  0  0  0  0  0  0  0  0  0  0
  136.2757   84.7449  224.9447 H   0  0  0  0  0  0  0  0  0  0  0  0
  136.3966   82.0785  228.3145 H   0  0  0  0  0  0  0  0  0  0  0  0
  137.1412   80.2517  226.7988 H   0  0  0  0  0  0  0  0  0  0  0  0
  1  2  2  0
  2  3  1  0
  3  4  1  0
  4  5  1  0
  5  6  2  0
  5  7  1  0
  7  8  1  0
  8  9  1  0
  9 10  1  0
 10 11  1  0
 11 12  1  0
 12 13  1  0
 13 14  1  0
 14 15  1  0
 15 16  1  0
  2 17  1  0
 17 18  2  0
 18 19  1  0
 19 20  2  0
 20 21  1  0
 21 22  2  0
 22 23  1  0
 22 24  1  0
 24 25  2  0
 25 26  1  0
 26 27  2  0
 11  7  1  0
 16 12  1  0
 27 17  1  0
 26 20  1  0
  3 28  1  0
  4 29  1  0
  4 30  1  0
  8 31  1  0
  8 32  1  0
  9 33  1  0
  9 34  1  0
 10 35  1  0
 10 36  1  0
 11 37  1  1
 12 38  1  0
 13 39  1  0
 13 40  1  0
 14 41  1  0
 14 42  1  0
 15 43  1  0
 15 44  1  0
 16 45  1  0
 16 46  1  0
 18 47  1  0
 19 48  1  0
 21 49  1  0
 24 50  1  0
 25 51  1  0
M  END
>  <smiles>  (77) 
O=C(NCC(=O)N1CCCC1C1CCCC1)c1ccc2cc(Cl)ccc2n1

>  <score_type>  (77) 
oracle

>  <origin>  (77) 
autodockgpu

>  <m_score__min__energy>  (77) 
-8.9199999999999999

>  <m_primary>  (77) 
energy

>  <rmsd>  (77) 
9.179138220316654

>  <m_score__min__rmsd>  (77) 
9.179138220316654

>  <meeko>  (77) 
{"free_energy": -6.55, "intermolecular_energy": -8.04, "internal_energy": -2.4, "cluster_size": 1, "cluster_id": 7, "rank_in_cluster": 1}

>  <energy>  (77) 
-7.71

>  <cluster_rmsd>  (77) 
1.38

>  <cluster>  (77) 
1

$$$$

     RDKit          3D

 51 54  0  0  0  0  0  0  0  0999 V2000
  140.6970   72.6510  220.9760 O   0  0  0  0  0  0  0  0  0  0  0  0
  140.0380   72.8280  222.0320 C   0  0  0  0  0  0  0  0  0  0  0  0
  139.2330   74.0010  222.1610 N   0  0  0  0  0  0  0  0  0  0  0  0
  139.1890   74.9510  221.0970 C   0  0  0  0  0  0  0  0  0  0  0  0
  140.0590   76.1400  221.3470 C   0  0  0  0  0  0  0  0  0  0  0  0
  141.2910   75.9350  221.3760 O   0  0  0  0  0  0  0  0  0  0  0  0
  139.4390   77.4000  221.5330 N   0  0  0  0  0  0  0  0  0  0  0  0
  138.0390   77.7420  221.1850 C   0  0  0  0  0  0  0  0  0  0  0  0
  137.6440   78.4700  222.4630 C   0  0  0  0  0  0  0  0  0  0  0  0
  138.9400   78.8940  223.1520 C   0  0  0  0  0  0  0  0  0  0  0  0
  139.9460   78.6340  222.0850 C   0  0  1  0  0  0  0  0  0  0  0  0
  141.3640   78.7140  222.4190 C   0  0  0  0  0  0  0  0  0  0  0  0
  142.0260   79.7940  221.5950 C   0  0  0  0  0  0  0  0  0  0  0  0
  142.2150   80.9160  222.5910 C   0  0  0  0  0  0  0  0  0  0  0  0
  142.6480   80.1750  223.8360 C   0  0  0  0  0  0  0  0  0  0  0  0
  141.6180   79.0570  223.8660 C   0  0  0  0  0  0  0  0  0  0  0  0
  140.0810   71.8590  223.1220 C   0  0  0  0  0  0  0  0  0  0  0  0
  139.6280   70.5710  222.8850 C   0  0  0  0  0  0  0  0  0  0  0  0
  139.6710   69.6680  223.9090 C   0  0  0  0  0  0  0  0  0  0  0  0
  140.1510   70.0120  225.1530 C   0  0  0  0  0  0  0  0  0  0  0  0
  140.1900   69.0960  226.1780 C   0  0  0  0  0  0  0  0  0  0  0  0
  140.6690   69.4160  227.4440 C   0  0  0  0  0  0  0  0  0  0  0  0
  140.7080   68.2320  228.7330 Cl  0  0  0  0  0  0  0  0  0  0  0  0
  141.1170   70.7210  227.6500 C   0  0  0  0  0  0  0  0  0  0  0  0
  141.0760   71.6500  226.6090 C   0  0  0  0  0  0  0  0  0  0  0  0
  140.5970   71.2980  225.3710 C   0  0  0  0  0  0  0  0  0  0  0  0
  140.5430   72.1660  224.3450 N   0  0  0  0  0  0  0  0  0  0  0  0
  138.6960   74.1140  223.0600 H   0  0  0  0  0  0  0  0  0  0  0  0
  139.5237   74.4587  220.1720 H   0  0  0  0  0  0  0  0  0  0  0  0
  138.1524   75.3099  221.0157 H   0  0  0  0  0  0  0  0  0  0  0  0
  137.9819   78.3971  220.3032 H   0  0  0  0  0  0  0  0  0  0  0  0
  137.3994   76.8904  220.9099 H   0  0  0  0  0  0  0  0  0  0  0  0
  137.0370   79.3551  222.2218 H   0  0  0  0  0  0  0  0  0  0  0  0
  137.0453   77.8193  223.1173 H   0  0  0  0  0  0  0  0  0  0  0  0
  138.9167   79.9578  223.4310 H   0  0  0  0  0  0  0  0  0  0  0  0
  139.1400   78.3629  224.0943 H   0  0  0  0  0  0  0  0  0  0  0  0
  140.0174   79.4497  221.3505 H   0  0  0  0  0  0  0  0  0  0  0  0
  141.7754   77.7153  222.2108 H   0  0  0  0  0  0  0  0  0  0  0  0
  142.9928   79.4512  221.1978 H   0  0  0  0  0  0  0  0  0  0  0  0
  141.4356   80.0907  220.7156 H   0  0  0  0  0  0  0  0  0  0  0  0
  142.9918   81.6191  222.2559 H   0  0  0  0  0  0  0  0  0  0  0  0
  141.3148   81.5312  222.7363 H   0  0  0  0  0  0  0  0  0  0  0  0
  143.6709   79.7822  223.7396 H   0  0  0  0  0  0  0  0  0  0  0  0
  142.6826   80.7907  224.7469 H   0  0  0  0  0  0  0  0  0  0  0  0
  142.0124   78.1836  224.4059 H   0  0  0  0  0  0  0  0  0  0  0  0
  140.6965   79.3608  224.3843 H   0  0  0  0  0  0  0  0  0  0  0  0
  139.2430   70.2826  221.8958 H   0  0  0  0  0  0  0  0  0  0  0  0
  139.3139   68.6421  223.7359 H   0  0  0  0  0  0  0  0  0  0  0  0
  139.8296   68.0739  225.9900 H   0  0  0  0  0  0  0  0  0  0  0  0
  141.5037   71.0188  228.6358 H   0  0  0  0  0  0  0  0  0  0  0  0
  141.4316   72.6764  226.7823 H   0  0  0  0  0  0  0  0  0  0  0  0
  1  2  2  0
  2  3  1  0
  3  4  1  0
  4  5  1  0
  5  6  2  0
  5  7  1  0
  7  8  1  0
  8  9  1  0
  9 10  1  0
 10 11  1  0
 11 12  1  0
 12 13  1  0
 13 14  1  0
 14 15  1  0
 15 16  1  0
  2 17  1  0
 17 18  2  0
 18 19  1  0
 19 20  2  0
 20 21  1  0
 21 22  2  0
 22 23  1  0
 22 24  1  0
 24 25  2  0
 25 26  1  0
 26 27  2  0
 11  7  1  0
 16 12  1  0
 27 17  1  0
 26 20  1  0
  3 28  1  0
  4 29  1  0
  4 30  1  0
  8 31  1  0
  8 32  1  0
  9 33  1  0
  9 34  1  0
 10 35  1  0
 10 36  1  0
 11 37  1  6
 12 38  1  0
 13 39  1  0
 13 40  1  0
 14 41  1  0
 14 42  1  0
 15 43  1  0
 15 44  1  0
 16 45  1  0
 16 46  1  0
 18 47  1  0
 19 48  1  0
 21 49  1  0
 24 50  1  0
 25 51  1  0
M  END
>  <smiles>  (78) 
O=C(NCC(=O)N1CCCC1C1CCCC1)c1ccc2cc(Cl)ccc2n1

>  <score_type>  (78) 
oracle

>  <origin>  (78) 
autodockgpu

>  <m_score__min__energy>  (78) 
-8.9199999999999999

>  <m_primary>  (78) 
energy

>  <rmsd>  (78) 
2.9915049331260235

>  <m_score__min__rmsd>  (78) 
2.9915049331260235

>  <meeko>  (78) 
{"free_energy": -8.68, "intermolecular_energy": -10.17, "internal_energy": -1.24, "cluster_size": 32, "cluster_id": 1, "rank_in_cluster": 8}

>  <energy>  (78) 
-7.7

>  <cluster_rmsd>  (78) 
1.28

>  <cluster>  (78) 
1

$$$$

     RDKit          3D

 51 54  0  0  0  0  0  0  0  0999 V2000
  138.0060   72.4490  220.9150 O   0  0  0  0  0  0  0  0  0  0  0  0
  137.7870   73.0390  222.0040 C   0  0  0  0  0  0  0  0  0  0  0  0
  137.1870   72.3150  223.0790 N   0  0  0  0  0  0  0  0  0  0  0  0
  136.8450   70.9400  222.9050 C   0  0  0  0  0  0  0  0  0  0  0  0
  137.5940   70.0370  223.8300 C   0  0  0  0  0  0  0  0  0  0  0  0
  136.9200   69.1850  224.4460 O   0  0  0  0  0  0  0  0  0  0  0  0
  138.9950   70.2040  223.9460 N   0  0  0  0  0  0  0  0  0  0  0  0
  139.8910   70.7880  222.9190 C   0  0  0  0  0  0  0  0  0  0  0  0
  140.7040   71.7180  223.8090 C   0  0  0  0  0  0  0  0  0  0  0  0
  140.5460   71.2140  225.2420 C   0  0  0  0  0  0  0  0  0  0  0  0
  139.9020   69.8880  225.0240 C   0  0  1  0  0  0  0  0  0  0  0  0
  139.3830   69.1590  226.1760 C   0  0  0  0  0  0  0  0  0  0  0  0
  139.9230   67.7470  226.1770 C   0  0  0  0  0  0  0  0  0  0  0  0
  140.9680   67.7820  227.2690 C   0  0  0  0  0  0  0  0  0  0  0  0
  140.2950   68.6150  228.3360 C   0  0  0  0  0  0  0  0  0  0  0  0
  139.7760   69.7730  227.4980 C   0  0  0  0  0  0  0  0  0  0  0  0
  138.1360   74.4440  222.1850 C   0  0  0  0  0  0  0  0  0  0  0  0
  137.1150   75.3660  222.3470 C   0  0  0  0  0  0  0  0  0  0  0  0
  137.4470   76.6810  222.5170 C   0  0  0  0  0  0  0  0  0  0  0  0
  138.7600   77.0960  222.5300 C   0  0  0  0  0  0  0  0  0  0  0  0
  139.0850   78.4210  222.7020 C   0  0  0  0  0  0  0  0  0  0  0  0
  140.4020   78.8680  222.7190 C   0  0  0  0  0  0  0  0  0  0  0  0
  140.7900   80.5610  222.9380 Cl  0  0  0  0  0  0  0  0  0  0  0  0
  141.4070   77.9140  222.5530 C   0  0  0  0  0  0  0  0  0  0  0  0
  141.0750   76.5690  222.3780 C   0  0  0  0  0  0  0  0  0  0  0  0
  139.7630   76.1630  222.3670 C   0  0  0  0  0  0  0  0  0  0  0  0
  139.4070   74.8770  222.2020 N   0  0  0  0  0  0  0  0  0  0  0  0
  137.0200   72.8440  223.9740 H   0  0  0  0  0  0  0  0  0  0  0  0
  135.7677   70.8192  223.0914 H   0  0  0  0  0  0  0  0  0  0  0  0
  137.1145   70.6587  221.8763 H   0  0  0  0  0  0  0  0  0  0  0  0
  140.5197   70.0240  222.4383 H   0  0  0  0  0  0  0  0  0  0  0  0
  139.3845   71.2705  222.0701 H   0  0  0  0  0  0  0  0  0  0  0  0
  141.7634   71.6928  223.5141 H   0  0  0  0  0  0  0  0  0  0  0  0
  140.3531   72.7564  223.7167 H   0  0  0  0  0  0  0  0  0  0  0  0
  141.5210   71.1096  225.7406 H   0  0  0  0  0  0  0  0  0  0  0  0
  139.9711   71.8891  225.8930 H   0  0  0  0  0  0  0  0  0  0  0  0
  140.6218   69.0937  224.7770 H   0  0  0  0  0  0  0  0  0  0  0  0
  138.2878   69.1900  226.0785 H   0  0  0  0  0  0  0  0  0  0  0  0
  139.1306   67.0210  226.4115 H   0  0  0  0  0  0  0  0  0  0  0  0
  140.3262   67.4369  225.2017 H   0  0  0  0  0  0  0  0  0  0  0  0
  141.1929   66.7701  227.6371 H   0  0  0  0  0  0  0  0  0  0  0  0
  141.9352   68.1889  226.9388 H   0  0  0  0  0  0  0  0  0  0  0  0
  139.4750   68.0663  228.8224 H   0  0  0  0  0  0  0  0  0  0  0  0
  140.9507   68.9097  229.1686 H   0  0  0  0  0  0  0  0  0  0  0  0
  138.9046   70.2389  227.9813 H   0  0  0  0  0  0  0  0  0  0  0  0
  140.5311   70.5636  227.3762 H   0  0  0  0  0  0  0  0  0  0  0  0
  136.0622   75.0475  222.3390 H   0  0  0  0  0  0  0  0  0  0  0  0
  136.6470   77.4248  222.6464 H   0  0  0  0  0  0  0  0  0  0  0  0
  138.2746   79.1535  222.8307 H   0  0  0  0  0  0  0  0  0  0  0  0
  142.4629   78.2222  222.5600 H   0  0  0  0  0  0  0  0  0  0  0  0
  141.8746   75.8250  222.2473 H   0  0  0  0  0  0  0  0  0  0  0  0
  1  2  2  0
  2  3  1  0
  3  4  1  0
  4  5  1  0
  5  6  2  0
  5  7  1  0
  7  8  1  0
  8  9  1  0
  9 10  1  0
 10 11  1  0
 11 12  1  0
 12 13  1  0
 13 14  1  0
 14 15  1  0
 15 16  1  0
  2 17  1  0
 17 18  2  0
 18 19  1  0
 19 20  2  0
 20 21  1  0
 21 22  2  0
 22 23  1  0
 22 24  1  0
 24 25  2  0
 25 26  1  0
 26 27  2  0
 11  7  1  0
 16 12  1  0
 27 17  1  0
 26 20  1  0
  3 28  1  0
  4 29  1  0
  4 30  1  0
  8 31  1  0
  8 32  1  0
  9 33  1  0
  9 34  1  0
 10 35  1  0
 10 36  1  0
 11 37  1  6
 12 38  1  0
 13 39  1  0
 13 40  1  0
 14 41  1  0
 14 42  1  0
 15 43  1  0
 15 44  1  0
 16 45  1  0
 16 46  1  0
 18 47  1  0
 19 48  1  0
 21 49  1  0
 24 50  1  0
 25 51  1  0
M  END
>  <smiles>  (79) 
O=C(NCC(=O)N1CCCC1C1CCCC1)c1ccc2cc(Cl)ccc2n1

>  <score_type>  (79) 
oracle

>  <origin>  (79) 
autodockgpu

>  <m_score__min__energy>  (79) 
-8.9199999999999999

>  <m_primary>  (79) 
energy

>  <rmsd>  (79) 
7.433994649241141

>  <m_score__min__rmsd>  (79) 
7.433994649241141

>  <meeko>  (79) 
{"free_energy": -7.95, "intermolecular_energy": -9.44, "internal_energy": -1.55, "cluster_size": 5, "cluster_id": 5, "rank_in_cluster": 2}

>  <energy>  (79) 
-7.64

>  <cluster_rmsd>  (79) 
1.35

>  <cluster>  (79) 
1

$$$$

     RDKit          3D

 51 54  0  0  0  0  0  0  0  0999 V2000
  139.1550   72.5950  220.8120 O   0  0  0  0  0  0  0  0  0  0  0  0
  139.8670   72.8370  221.8200 C   0  0  0  0  0  0  0  0  0  0  0  0
  140.6310   74.0430  221.8580 N   0  0  0  0  0  0  0  0  0  0  0  0
  140.5780   74.9510  220.7590 C   0  0  0  0  0  0  0  0  0  0  0  0
  140.4190   76.3730  221.1910 C   0  0  0  0  0  0  0  0  0  0  0  0
  139.4610   76.6220  221.9510 O   0  0  0  0  0  0  0  0  0  0  0  0
  141.3500   77.3280  220.7160 N   0  0  0  0  0  0  0  0  0  0  0  0
  142.0580   77.2840  219.4140 C   0  0  0  0  0  0  0  0  0  0  0  0
  141.8560   78.7290  218.9800 C   0  0  0  0  0  0  0  0  0  0  0  0
  141.5250   79.5300  220.2380 C   0  0  0  0  0  0  0  0  0  0  0  0
  141.8450   78.5480  221.3110 C   0  0  1  0  0  0  0  0  0  0  0  0
  141.4620   78.8540  222.6840 C   0  0  0  0  0  0  0  0  0  0  0  0
  142.4940   79.7590  223.3180 C   0  0  0  0  0  0  0  0  0  0  0  0
  141.8070   81.1060  223.3270 C   0  0  0  0  0  0  0  0  0  0  0  0
  140.3920   80.7460  223.7180 C   0  0  0  0  0  0  0  0  0  0  0  0
  140.1370   79.5700  222.7890 C   0  0  0  0  0  0  0  0  0  0  0  0
  139.9230   71.9100  222.9450 C   0  0  0  0  0  0  0  0  0  0  0  0
  139.4440   70.6220  222.7710 C   0  0  0  0  0  0  0  0  0  0  0  0
  139.5000   69.7590  223.8280 C   0  0  0  0  0  0  0  0  0  0  0  0
  140.0170   70.1430  225.0450 C   0  0  0  0  0  0  0  0  0  0  0  0
  140.0690   69.2670  226.1030 C   0  0  0  0  0  0  0  0  0  0  0  0
  140.5860   69.6280  227.3440 C   0  0  0  0  0  0  0  0  0  0  0  0
  140.6410   68.4950  228.6760 Cl  0  0  0  0  0  0  0  0  0  0  0  0
  141.0600   70.9330  227.4870 C   0  0  0  0  0  0  0  0  0  0  0  0
  141.0060   71.8210  226.4110 C   0  0  0  0  0  0  0  0  0  0  0  0
  140.4890   71.4290  225.2000 C   0  0  0  0  0  0  0  0  0  0  0  0
  140.4210   72.2570  224.1430 N   0  0  0  0  0  0  0  0  0  0  0  0
  141.2150   74.2090  222.7190 H   0  0  0  0  0  0  0  0  0  0  0  0
  141.5107   74.8607  220.1830 H   0  0  0  0  0  0  0  0  0  0  0  0
  139.6980   74.6879  220.1536 H   0  0  0  0  0  0  0  0  0  0  0  0
  143.1228   77.0345  219.5324 H   0  0  0  0  0  0  0  0  0  0  0  0
  141.6964   76.5238  218.7059 H   0  0  0  0  0  0  0  0  0  0  0  0
  142.7752   79.1164  218.5163 H   0  0  0  0  0  0  0  0  0  0  0  0
  141.0461   78.8074  218.2398 H   0  0  0  0  0  0  0  0  0  0  0  0
  142.1524   80.4300  220.3175 H   0  0  0  0  0  0  0  0  0  0  0  0
  140.4920   79.9068  220.2698 H   0  0  0  0  0  0  0  0  0  0  0  0
  142.9160   78.5155  221.5598 H   0  0  0  0  0  0  0  0  0  0  0  0
  141.3859   77.8823  223.1940 H   0  0  0  0  0  0  0  0  0  0  0  0
  142.7331   79.4305  224.3402 H   0  0  0  0  0  0  0  0  0  0  0  0
  143.4533   79.7657  222.7798 H   0  0  0  0  0  0  0  0  0  0  0  0
  142.2644   81.7811  224.0653 H   0  0  0  0  0  0  0  0  0  0  0  0
  141.8755   81.6408  222.3682 H   0  0  0  0  0  0  0  0  0  0  0  0
  140.3260   80.4497  224.7753 H   0  0  0  0  0  0  0  0  0  0  0  0
  139.6678   81.5687  223.6246 H   0  0  0  0  0  0  0  0  0  0  0  0
  139.3708   78.9035  223.2118 H   0  0  0  0  0  0  0  0  0  0  0  0
  139.7665   79.8956  221.8058 H   0  0  0  0  0  0  0  0  0  0  0  0
  139.0283   70.3018  221.8042 H   0  0  0  0  0  0  0  0  0  0  0  0
  139.1232   68.7330  223.7042 H   0  0  0  0  0  0  0  0  0  0  0  0
  139.6885   68.2443  225.9640 H   0  0  0  0  0  0  0  0  0  0  0  0
  141.4772   71.2627  228.4499 H   0  0  0  0  0  0  0  0  0  0  0  0
  141.3821   72.8473  226.5344 H   0  0  0  0  0  0  0  0  0  0  0  0
  1  2  2  0
  2  3  1  0
  3  4  1  0
  4  5  1  0
  5  6  2  0
  5  7  1  0
  7  8  1  0
  8  9  1  0
  9 10  1  0
 10 11  1  0
 11 12  1  0
 12 13  1  0
 13 14  1  0
 14 15  1  0
 15 16  1  0
  2 17  1  0
 17 18  2  0
 18 19  1  0
 19 20  2  0
 20 21  1  0
 21 22  2  0
 22 23  1  0
 22 24  1  0
 24 25  2  0
 25 26  1  0
 26 27  2  0
 11  7  1  0
 16 12  1  0
 27 17  1  0
 26 20  1  0
  3 28  1  0
  4 29  1  0
  4 30  1  0
  8 31  1  0
  8 32  1  0
  9 33  1  0
  9 34  1  0
 10 35  1  0
 10 36  1  0
 11 37  1  1
 12 38  1  0
 13 39  1  0
 13 40  1  0
 14 41  1  0
 14 42  1  0
 15 43  1  0
 15 44  1  0
 16 45  1  0
 16 46  1  0
 18 47  1  0
 19 48  1  0
 21 49  1  0
 24 50  1  0
 25 51  1  0
M  END
>  <smiles>  (80) 
O=C(NCC(=O)N1CCCC1C1CCCC1)c1ccc2cc(Cl)ccc2n1

>  <score_type>  (80) 
oracle

>  <origin>  (80) 
autodockgpu

>  <m_score__min__energy>  (80) 
-8.9199999999999999

>  <m_primary>  (80) 
energy

>  <rmsd>  (80) 
2.487862609184839

>  <m_score__min__rmsd>  (80) 
2.487862609184839

>  <meeko>  (80) 
{"free_energy": -8.08, "intermolecular_energy": -9.58, "internal_energy": -1.44, "cluster_size": 32, "cluster_id": 1, "rank_in_cluster": 14}

>  <energy>  (80) 
-7.59

>  <cluster_rmsd>  (80) 
1.38

>  <cluster>  (80) 
1

$$$$

     RDKit          3D

 51 54  0  0  0  0  0  0  0  0999 V2000
  139.0960   72.0270  220.8420 O   0  0  0  0  0  0  0  0  0  0  0  0
  139.3240   72.4430  222.0060 C   0  0  0  0  0  0  0  0  0  0  0  0
  139.3320   73.8510  222.2530 N   0  0  0  0  0  0  0  0  0  0  0  0
  139.0850   74.7600  221.1800 C   0  0  0  0  0  0  0  0  0  0  0  0
  139.4330   76.1710  221.5280 C   0  0  0  0  0  0  0  0  0  0  0  0
  138.5450   76.8420  222.0940 O   0  0  0  0  0  0  0  0  0  0  0  0
  140.7260   76.6450  221.1970 N   0  0  0  0  0  0  0  0  0  0  0  0
  141.6850   75.9930  220.2730 C   0  0  0  0  0  0  0  0  0  0  0  0
  142.1130   77.2120  219.4680 C   0  0  0  0  0  0  0  0  0  0  0  0
  141.7660   78.4420  220.3050 C   0  0  0  0  0  0  0  0  0  0  0  0
  141.4400   77.8270  221.6220 C   0  0  1  0  0  0  0  0  0  0  0  0
  140.8460   78.6600  222.6610 C   0  0  0  0  0  0  0  0  0  0  0  0
  141.7810   78.7510  223.8450 C   0  0  0  0  0  0  0  0  0  0  0  0
  142.3540   80.1450  223.7200 C   0  0  0  0  0  0  0  0  0  0  0  0
  141.1470   80.9580  223.3110 C   0  0  0  0  0  0  0  0  0  0  0  0
  140.5780   80.0760  222.2110 C   0  0  0  0  0  0  0  0  0  0  0  0
  139.5760   71.5170  223.1040 C   0  0  0  0  0  0  0  0  0  0  0  0
  139.2880   70.1740  222.9210 C   0  0  0  0  0  0  0  0  0  0  0  0
  139.5270   69.3110  223.9530 C   0  0  0  0  0  0  0  0  0  0  0  0
  140.0420   69.7480  225.1530 C   0  0  0  0  0  0  0  0  0  0  0  0
  140.2800   68.8720  226.1860 C   0  0  0  0  0  0  0  0  0  0  0  0
  140.7990   69.2860  227.4080 C   0  0  0  0  0  0  0  0  0  0  0  0
  141.0910   68.1510  228.7080 Cl  0  0  0  0  0  0  0  0  0  0  0  0
  141.0780   70.6450  227.5610 C   0  0  0  0  0  0  0  0  0  0  0  0
  140.8360   71.5330  226.5120 C   0  0  0  0  0  0  0  0  0  0  0  0
  140.3230   71.0880  225.3170 C   0  0  0  0  0  0  0  0  0  0  0  0
  140.0770   71.9150  224.2850 N   0  0  0  0  0  0  0  0  0  0  0  0
  139.5260   74.1600  223.2400 H   0  0  0  0  0  0  0  0  0  0  0  0
  139.6876   74.4526  220.3126 H   0  0  0  0  0  0  0  0  0  0  0  0
  138.0079   74.7282  220.9588 H   0  0  0  0  0  0  0  0  0  0  0  0
  142.5296   75.5372  220.8105 H   0  0  0  0  0  0  0  0  0  0  0  0
  141.2784   75.1579  219.6837 H   0  0  0  0  0  0  0  0  0  0  0  0
  143.1958   77.1778  219.2770 H   0  0  0  0  0  0  0  0  0  0  0  0
  141.6003   77.2408  218.4952 H   0  0  0  0  0  0  0  0  0  0  0  0
  142.6220   79.1284  220.3836 H   0  0  0  0  0  0  0  0  0  0  0  0
  140.9549   79.0546  219.8845 H   0  0  0  0  0  0  0  0  0  0  0  0
  142.3309   77.6103  222.2297 H   0  0  0  0  0  0  0  0  0  0  0  0
  139.8903   78.1792  222.9169 H   0  0  0  0  0  0  0  0  0  0  0  0
  141.2331   78.6322  224.7914 H   0  0  0  0  0  0  0  0  0  0  0  0
  142.5506   77.9650  223.8509 H   0  0  0  0  0  0  0  0  0  0  0  0
  142.7625   80.4946  224.6796 H   0  0  0  0  0  0  0  0  0  0  0  0
  143.1908   80.2136  223.0093 H   0  0  0  0  0  0  0  0  0  0  0  0
  140.4375   81.0781  224.1430 H   0  0  0  0  0  0  0  0  0  0  0  0
  141.3727   81.9890  223.0009 H   0  0  0  0  0  0  0  0  0  0  0  0
  139.4972   80.2473  222.0995 H   0  0  0  0  0  0  0  0  0  0  0  0
  141.0355   80.2905  221.2339 H   0  0  0  0  0  0  0  0  0  0  0  0
  138.8767   69.8112  221.9675 H   0  0  0  0  0  0  0  0  0  0  0  0
  139.3027   68.2421  223.8222 H   0  0  0  0  0  0  0  0  0  0  0  0
  140.0517   67.8058  226.0406 H   0  0  0  0  0  0  0  0  0  0  0  0
  141.4897   71.0170  228.5108 H   0  0  0  0  0  0  0  0  0  0  0  0
  141.0585   72.6022  226.6431 H   0  0  0  0  0  0  0  0  0  0  0  0
  1  2  2  0
  2  3  1  0
  3  4  1  0
  4  5  1  0
  5  6  2  0
  5  7  1  0
  7  8  1  0
  8  9  1  0
  9 10  1  0
 10 11  1  0
 11 12  1  0
 12 13  1  0
 13 14  1  0
 14 15  1  0
 15 16  1  0
  2 17  1  0
 17 18  2  0
 18 19  1  0
 19 20  2  0
 20 21  1  0
 21 22  2  0
 22 23  1  0
 22 24  1  0
 24 25  2  0
 25 26  1  0
 26 27  2  0
 11  7  1  0
 16 12  1  0
 27 17  1  0
 26 20  1  0
  3 28  1  0
  4 29  1  0
  4 30  1  0
  8 31  1  0
  8 32  1  0
  9 33  1  0
  9 34  1  0
 10 35  1  0
 10 36  1  0
 11 37  1  1
 12 38  1  0
 13 39  1  0
 13 40  1  0
 14 41  1  0
 14 42  1  0
 15 43  1  0
 15 44  1  0
 16 45  1  0
 16 46  1  0
 18 47  1  0
 19 48  1  0
 21 49  1  0
 24 50  1  0
 25 51  1  0
M  END
>  <smiles>  (81) 
O=C(NCC(=O)N1CCCC1C1CCCC1)c1ccc2cc(Cl)ccc2n1

>  <score_type>  (81) 
oracle

>  <origin>  (81) 
autodockgpu

>  <m_score__min__energy>  (81) 
-8.9199999999999999

>  <m_primary>  (81) 
energy

>  <rmsd>  (81) 
1.9826860094259808

>  <m_score__min__rmsd>  (81) 
1.9826860094259808

>  <meeko>  (81) 
{"free_energy": -8.64, "intermolecular_energy": -10.13, "internal_energy": -1.46, "cluster_size": 32, "cluster_id": 1, "rank_in_cluster": 9}

>  <energy>  (81) 
-7.52

>  <cluster_rmsd>  (81) 
1.08

>  <cluster>  (81) 
1

$$$$

     RDKit          3D

 51 54  0  0  0  0  0  0  0  0999 V2000
  140.0050   72.4660  220.6680 O   0  0  0  0  0  0  0  0  0  0  0  0
  139.8420   72.8480  221.8550 C   0  0  0  0  0  0  0  0  0  0  0  0
  139.5740   74.2280  222.1110 N   0  0  0  0  0  0  0  0  0  0  0  0
  139.4970   75.1490  221.0230 C   0  0  0  0  0  0  0  0  0  0  0  0
  140.7490   75.9450  220.8500 C   0  0  0  0  0  0  0  0  0  0  0  0
  141.0620   76.7070  221.7890 O   0  0  0  0  0  0  0  0  0  0  0  0
  141.4870   75.7860  219.6520 N   0  0  0  0  0  0  0  0  0  0  0  0
  141.0920   76.2830  218.3120 C   0  0  0  0  0  0  0  0  0  0  0  0
  142.4180   76.8930  217.8800 C   0  0  0  0  0  0  0  0  0  0  0  0
  143.5030   76.2610  218.7500 C   0  0  0  0  0  0  0  0  0  0  0  0
  142.7570   75.1460  219.3970 C   0  0  1  0  0  0  0  0  0  0  0  0
  143.3920   74.4100  220.4840 C   0  0  0  0  0  0  0  0  0  0  0  0
  143.0490   72.9420  220.3810 C   0  0  0  0  0  0  0  0  0  0  0  0
  144.3270   72.3290  219.8540 C   0  0  0  0  0  0  0  0  0  0  0  0
  145.3890   73.0740  220.6300 C   0  0  0  0  0  0  0  0  0  0  0  0
  144.8990   74.5040  220.4690 C   0  0  0  0  0  0  0  0  0  0  0  0
  139.9200   71.9100  222.9690 C   0  0  0  0  0  0  0  0  0  0  0  0
  139.4880   70.6080  222.7740 C   0  0  0  0  0  0  0  0  0  0  0  0
  139.5640   69.7330  223.8200 C   0  0  0  0  0  0  0  0  0  0  0  0
  140.0570   70.1190  225.0460 C   0  0  0  0  0  0  0  0  0  0  0  0
  140.1300   69.2310  226.0940 C   0  0  0  0  0  0  0  0  0  0  0  0
  140.6230   69.5940  227.3440 C   0  0  0  0  0  0  0  0  0  0  0  0
  140.7050   68.4460  228.6620 Cl  0  0  0  0  0  0  0  0  0  0  0  0
  141.0500   70.9120  227.5080 C   0  0  0  0  0  0  0  0  0  0  0  0
  140.9750   71.8120  226.4440 C   0  0  0  0  0  0  0  0  0  0  0  0
  140.4830   71.4190  225.2230 C   0  0  0  0  0  0  0  0  0  0  0  0
  140.3960   72.2580  224.1760 N   0  0  0  0  0  0  0  0  0  0  0  0
  139.4430   74.5090  223.1170 H   0  0  0  0  0  0  0  0  0  0  0  0
  139.3082   74.5851  220.0976 H   0  0  0  0  0  0  0  0  0  0  0  0
  138.6828   75.8551  221.2433 H   0  0  0  0  0  0  0  0  0  0  0  0
  140.7780   75.4660  217.6458 H   0  0  0  0  0  0  0  0  0  0  0  0
  140.2309   76.9674  218.2976 H   0  0  0  0  0  0  0  0  0  0  0  0
  142.6079   76.6724  216.8192 H   0  0  0  0  0  0  0  0  0  0  0  0
  142.4054   77.9864  217.9996 H   0  0  0  0  0  0  0  0  0  0  0  0
  144.3378   75.8848  218.1403 H   0  0  0  0  0  0  0  0  0  0  0  0
  143.9694   76.9590  219.4608 H   0  0  0  0  0  0  0  0  0  0  0  0
  142.6823   74.2510  218.7618 H   0  0  0  0  0  0  0  0  0  0  0  0
  143.0142   74.8655  221.4112 H   0  0  0  0  0  0  0  0  0  0  0  0
  142.7885   72.5270  221.3659 H   0  0  0  0  0  0  0  0  0  0  0  0
  142.1775   72.7449  219.7394 H   0  0  0  0  0  0  0  0  0  0  0  0
  144.3658   71.2496  220.0621 H   0  0  0  0  0  0  0  0  0  0  0  0
  144.4383   72.4153  218.7631 H   0  0  0  0  0  0  0  0  0  0  0  0
  145.4093   72.7683  221.6865 H   0  0  0  0  0  0  0  0  0  0  0  0
  146.4177   72.9003  220.2813 H   0  0  0  0  0  0  0  0  0  0  0  0
  145.2548   75.1297  221.3008 H   0  0  0  0  0  0  0  0  0  0  0  0
  145.2730   74.9650  219.5429 H   0  0  0  0  0  0  0  0  0  0  0  0
  139.0929   70.2864  221.7991 H   0  0  0  0  0  0  0  0  0  0  0  0
  139.2236   68.6965  223.6796 H   0  0  0  0  0  0  0  0  0  0  0  0
  139.7867   68.1976  225.9387 H   0  0  0  0  0  0  0  0  0  0  0  0
  141.4470   71.2429  228.4790 H   0  0  0  0  0  0  0  0  0  0  0  0
  141.3141   72.8489  226.5848 H   0  0  0  0  0  0  0  0  0  0  0  0
  1  2  2  0
  2  3  1  0
  3  4  1  0
  4  5  1  0
  5  6  2  0
  5  7  1  0
  7  8  1  0
  8  9  1  0
  9 10  1  0
 10 11  1  0
 11 12  1  0
 12 13  1  0
 13 14  1  0
 14 15  1  0
 15 16  1  0
  2 17  1  0
 17 18  2  0
 18 19  1  0
 19 20  2  0
 20 21  1  0
 21 22  2  0
 22 23  1  0
 22 24  1  0
 24 25  2  0
 25 26  1  0
 26 27  2  0
 11  7  1  0
 16 12  1  0
 27 17  1  0
 26 20  1  0
  3 28  1  0
  4 29  1  0
  4 30  1  0
  8 31  1  0
  8 32  1  0
  9 33  1  0
  9 34  1  0
 10 35  1  0
 10 36  1  0
 11 37  1  6
 12 38  1  0
 13 39  1  0
 13 40  1  0
 14 41  1  0
 14 42  1  0
 15 43  1  0
 15 44  1  0
 16 45  1  0
 16 46  1  0
 18 47  1  0
 19 48  1  0
 21 49  1  0
 24 50  1  0
 25 51  1  0
M  END
>  <smiles>  (82) 
O=C(NCC(=O)N1CCCC1C1CCCC1)c1ccc2cc(Cl)ccc2n1

>  <score_type>  (82) 
oracle

>  <origin>  (82) 
autodockgpu

>  <m_score__min__energy>  (82) 
-8.9199999999999999

>  <m_primary>  (82) 
energy

>  <rmsd>  (82) 
2.0504672238607795

>  <m_score__min__rmsd>  (82) 
2.0504672238607795

>  <meeko>  (82) 
{"free_energy": -7.89, "intermolecular_energy": -9.38, "internal_energy": -1.89, "cluster_size": 32, "cluster_id": 1, "rank_in_cluster": 21}

>  <energy>  (82) 
-7.42

>  <cluster_rmsd>  (82) 
1.84

>  <cluster>  (82) 
1

$$$$

     RDKit          3D

 51 54  0  0  0  0  0  0  0  0999 V2000
  140.1380   72.6730  220.8230 O   0  0  0  0  0  0  0  0  0  0  0  0
  139.8930   72.9700  222.0200 C   0  0  0  0  0  0  0  0  0  0  0  0
  139.5230   74.3110  222.3420 N   0  0  0  0  0  0  0  0  0  0  0  0
  139.4390   75.2920  221.3080 C   0  0  0  0  0  0  0  0  0  0  0  0
  138.7520   76.5420  221.7520 C   0  0  0  0  0  0  0  0  0  0  0  0
  137.9890   76.4420  222.7350 O   0  0  0  0  0  0  0  0  0  0  0  0
  139.0070   77.7390  221.0390 N   0  0  0  0  0  0  0  0  0  0  0  0
  138.5870   78.0310  219.6470 C   0  0  0  0  0  0  0  0  0  0  0  0
  138.0400   79.4380  219.8510 C   0  0  0  0  0  0  0  0  0  0  0  0
  138.6430   79.9660  221.1510 C   0  0  0  0  0  0  0  0  0  0  0  0
  139.6940   78.9480  221.4300 C   0  0  1  0  0  0  0  0  0  0  0  0
  140.3750   78.9720  222.7190 C   0  0  0  0  0  0  0  0  0  0  0  0
  141.8440   78.6670  222.5320 C   0  0  0  0  0  0  0  0  0  0  0  0
  142.4970   80.0210  222.6960 C   0  0  0  0  0  0  0  0  0  0  0  0
  141.7200   80.6190  223.8470 C   0  0  0  0  0  0  0  0  0  0  0  0
  140.2960   80.3110  223.4110 C   0  0  0  0  0  0  0  0  0  0  0  0
  139.9780   71.9700  223.0790 C   0  0  0  0  0  0  0  0  0  0  0  0
  139.5800   70.6720  222.8020 C   0  0  0  0  0  0  0  0  0  0  0  0
  139.6630   69.7400  223.7980 C   0  0  0  0  0  0  0  0  0  0  0  0
  140.1280   70.0660  225.0520 C   0  0  0  0  0  0  0  0  0  0  0  0
  140.2080   69.1210  226.0480 C   0  0  0  0  0  0  0  0  0  0  0  0
  140.6740   69.4220  227.3240 C   0  0  0  0  0  0  0  0  0  0  0  0
  140.7650   68.2020  228.5750 Cl  0  0  0  0  0  0  0  0  0  0  0  0
  141.0670   70.7380  227.5700 C   0  0  0  0  0  0  0  0  0  0  0  0
  140.9860   71.6960  226.5580 C   0  0  0  0  0  0  0  0  0  0  0  0
  140.5210   71.3630  225.3090 C   0  0  0  0  0  0  0  0  0  0  0  0
  140.4280   72.2590  224.3110 N   0  0  0  0  0  0  0  0  0  0  0  0
  139.3260   74.5200  223.3550 H   0  0  0  0  0  0  0  0  0  0  0  0
  140.4580   75.5476  220.9821 H   0  0  0  0  0  0  0  0  0  0  0  0
  138.8454   74.8604  220.4887 H   0  0  0  0  0  0  0  0  0  0  0  0
  139.4367   78.0164  218.9485 H   0  0  0  0  0  0  0  0  0  0  0  0
  137.8834   77.3102  219.2050 H   0  0  0  0  0  0  0  0  0  0  0  0
  138.3325   80.0830  219.0093 H   0  0  0  0  0  0  0  0  0  0  0  0
  136.9412   79.4289  219.9026 H   0  0  0  0  0  0  0  0  0  0  0  0
  139.0797   80.9662  221.0136 H   0  0  0  0  0  0  0  0  0  0  0  0
  137.9131   80.0896  221.9646 H   0  0  0  0  0  0  0  0  0  0  0  0
  140.6260   79.1269  220.8739 H   0  0  0  0  0  0  0  0  0  0  0  0
  139.8656   78.2185  223.3377 H   0  0  0  0  0  0  0  0  0  0  0  0
  142.2014   77.9608  223.2959 H   0  0  0  0  0  0  0  0  0  0  0  0
  142.0682   78.1922  221.5654 H   0  0  0  0  0  0  0  0  0  0  0  0
  143.5637   79.9208  222.9454 H   0  0  0  0  0  0  0  0  0  0  0  0
  142.4721   80.6344  221.7832 H   0  0  0  0  0  0  0  0  0  0  0  0
  141.9671   80.1303  224.8010 H   0  0  0  0  0  0  0  0  0  0  0  0
  141.9222   81.6844  224.0317 H   0  0  0  0  0  0  0  0  0  0  0  0
  139.6288   80.2554  224.2838 H   0  0  0  0  0  0  0  0  0  0  0  0
  139.8902   81.0917  222.7508 H   0  0  0  0  0  0  0  0  0  0  0  0
  139.2062   70.3983  221.8043 H   0  0  0  0  0  0  0  0  0  0  0  0
  139.3510   68.7053  223.5929 H   0  0  0  0  0  0  0  0  0  0  0  0
  139.8923   68.0905  225.8280 H   0  0  0  0  0  0  0  0  0  0  0  0
  141.4418   71.0214  228.5646 H   0  0  0  0  0  0  0  0  0  0  0  0
  141.2984   72.7305  226.7632 H   0  0  0  0  0  0  0  0  0  0  0  0
  1  2  2  0
  2  3  1  0
  3  4  1  0
  4  5  1  0
  5  6  2  0
  5  7  1  0
  7  8  1  0
  8  9  1  0
  9 10  1  0
 10 11  1  0
 11 12  1  0
 12 13  1  0
 13 14  1  0
 14 15  1  0
 15 16  1  0
  2 17  1  0
 17 18  2  0
 18 19  1  0
 19 20  2  0
 20 21  1  0
 21 22  2  0
 22 23  1  0
 22 24  1  0
 24 25  2  0
 25 26  1  0
 26 27  2  0
 11  7  1  0
 16 12  1  0
 27 17  1  0
 26 20  1  0
  3 28  1  0
  4 29  1  0
  4 30  1  0
  8 31  1  0
  8 32  1  0
  9 33  1  0
  9 34  1  0
 10 35  1  0
 10 36  1  0
 11 37  1  6
 12 38  1  0
 13 39  1  0
 13 40  1  0
 14 41  1  0
 14 42  1  0
 15 43  1  0
 15 44  1  0
 16 45  1  0
 16 46  1  0
 18 47  1  0
 19 48  1  0
 21 49  1  0
 24 50  1  0
 25 51  1  0
M  END
>  <smiles>  (83) 
O=C(NCC(=O)N1CCCC1C1CCCC1)c1ccc2cc(Cl)ccc2n1

>  <score_type>  (83) 
oracle

>  <origin>  (83) 
autodockgpu

>  <m_score__min__energy>  (83) 
-8.9199999999999999

>  <m_primary>  (83) 
energy

>  <rmsd>  (83) 
2.6475575402614564

>  <m_score__min__rmsd>  (83) 
2.6475575402614564

>  <meeko>  (83) 
{"free_energy": -7.79, "intermolecular_energy": -9.29, "internal_energy": -1.66, "cluster_size": 32, "cluster_id": 1, "rank_in_cluster": 26}

>  <energy>  (83) 
-8.51

>  <cluster_rmsd>  (83) 
0.0

>  <cluster>  (83) 
2

$$$$

     RDKit          3D

 51 54  0  0  0  0  0  0  0  0999 V2000
  136.4440   77.5630  222.7680 O   0  0  0  0  0  0  0  0  0  0  0  0
  136.7730   76.3950  223.0960 C   0  0  0  0  0  0  0  0  0  0  0  0
  138.0780   75.9200  222.7610 N   0  0  0  0  0  0  0  0  0  0  0  0
  138.9840   76.7720  222.0610 C   0  0  0  0  0  0  0  0  0  0  0  0
  140.3040   76.1210  221.8010 C   0  0  0  0  0  0  0  0  0  0  0  0
  140.4240   74.9330  222.1670 O   0  0  0  0  0  0  0  0  0  0  0  0
  141.3150   76.8830  221.1670 N   0  0  0  0  0  0  0  0  0  0  0  0
  142.2500   76.3960  220.1230 C   0  0  0  0  0  0  0  0  0  0  0  0
  142.1430   77.5570  219.1440 C   0  0  0  0  0  0  0  0  0  0  0  0
  141.5940   78.7500  219.9250 C   0  0  0  0  0  0  0  0  0  0  0  0
  141.7040   78.2650  221.3290 C   0  0  1  0  0  0  0  0  0  0  0  0
  141.0770   79.0410  222.3930 C   0  0  0  0  0  0  0  0  0  0  0  0
  141.8330   78.8420  223.6870 C   0  0  0  0  0  0  0  0  0  0  0  0
  142.5960   80.1380  223.8400 C   0  0  0  0  0  0  0  0  0  0  0  0
  141.5790   81.1670  223.4020 C   0  0  0  0  0  0  0  0  0  0  0  0
  141.0660   80.5260  222.1230 C   0  0  0  0  0  0  0  0  0  0  0  0
  135.8490   75.5220  223.8120 C   0  0  0  0  0  0  0  0  0  0  0  0
  135.7710   74.1900  223.4420 C   0  0  0  0  0  0  0  0  0  0  0  0
  134.9040   73.3770  224.1160 C   0  0  0  0  0  0  0  0  0  0  0  0
  134.1190   73.8540  225.1410 C   0  0  0  0  0  0  0  0  0  0  0  0
  133.2490   73.0280  225.8140 C   0  0  0  0  0  0  0  0  0  0  0  0
  132.4440   73.4840  226.8530 C   0  0  0  0  0  0  0  0  0  0  0  0
  131.3440   72.4130  227.6930 Cl  0  0  0  0  0  0  0  0  0  0  0  0
  132.5450   74.8310  227.2010 C   0  0  0  0  0  0  0  0  0  0  0  0
  133.4280   75.6680  226.5170 C   0  0  0  0  0  0  0  0  0  0  0  0
  134.2090   75.1840  225.4960 C   0  0  0  0  0  0  0  0  0  0  0  0
  135.0700   75.9600  224.8150 N   0  0  0  0  0  0  0  0  0  0  0  0
  138.3160   74.9370  223.0530 H   0  0  0  0  0  0  0  0  0  0  0  0
  138.5326   77.0495  221.0971 H   0  0  0  0  0  0  0  0  0  0  0  0
  139.1670   77.6533  222.6933 H   0  0  0  0  0  0  0  0  0  0  0  0
  143.2728   76.2758  220.5095 H   0  0  0  0  0  0  0  0  0  0  0  0
  142.0183   75.4045  219.7069 H   0  0  0  0  0  0  0  0  0  0  0  0
  143.1348   77.7980  218.7338 H   0  0  0  0  0  0  0  0  0  0  0  0
  141.4829   77.3013  218.3021 H   0  0  0  0  0  0  0  0  0  0  0  0
  142.2038   79.6510  219.7626 H   0  0  0  0  0  0  0  0  0  0  0  0
  140.5759   79.0462  219.6323 H   0  0  0  0  0  0  0  0  0  0  0  0
  142.7109   78.3938  221.7527 H   0  0  0  0  0  0  0  0  0  0  0  0
  140.0393   78.6809  222.4520 H   0  0  0  0  0  0  0  0  0  0  0  0
  141.1417   78.6888  224.5288 H   0  0  0  0  0  0  0  0  0  0  0  0
  142.4839   77.9553  223.6759 H   0  0  0  0  0  0  0  0  0  0  0  0
  142.9009   80.2994  224.8845 H   0  0  0  0  0  0  0  0  0  0  0  0
  143.5303   80.1690  223.2603 H   0  0  0  0  0  0  0  0  0  0  0  0
  140.7773   81.2871  224.1455 H   0  0  0  0  0  0  0  0  0  0  0  0
  141.9815   82.1828  223.2751 H   0  0  0  0  0  0  0  0  0  0  0  0
  140.0450   80.8703  221.9015 H   0  0  0  0  0  0  0  0  0  0  0  0
  141.6854   80.7905  221.2533 H   0  0  0  0  0  0  0  0  0  0  0  0
  136.3925   73.7956  222.6246 H   0  0  0  0  0  0  0  0  0  0  0  0
  134.8317   72.3165  223.8328 H   0  0  0  0  0  0  0  0  0  0  0  0
  133.1876   71.9697  225.5203 H   0  0  0  0  0  0  0  0  0  0  0  0
  131.9271   75.2347  228.0167 H   0  0  0  0  0  0  0  0  0  0  0  0
  133.4993   76.7288  226.7992 H   0  0  0  0  0  0  0  0  0  0  0  0
  1  2  2  0
  2  3  1  0
  3  4  1  0
  4  5  1  0
  5  6  2  0
  5  7  1  0
  7  8  1  0
  8  9  1  0
  9 10  1  0
 10 11  1  0
 11 12  1  0
 12 13  1  0
 13 14  1  0
 14 15  1  0
 15 16  1  0
  2 17  1  0
 17 18  2  0
 18 19  1  0
 19 20  2  0
 20 21  1  0
 21 22  2  0
 22 23  1  0
 22 24  1  0
 24 25  2  0
 25 26  1  0
 26 27  2  0
 11  7  1  0
 16 12  1  0
 27 17  1  0
 26 20  1  0
  3 28  1  0
  4 29  1  0
  4 30  1  0
  8 31  1  0
  8 32  1  0
  9 33  1  0
  9 34  1  0
 10 35  1  0
 10 36  1  0
 11 37  1  1
 12 38  1  0
 13 39  1  0
 13 40  1  0
 14 41  1  0
 14 42  1  0
 15 43  1  0
 15 44  1  0
 16 45  1  0
 16 46  1  0
 18 47  1  0
 19 48  1  0
 21 49  1  0
 24 50  1  0
 25 51  1  0
M  END
>  <smiles>  (84) 
O=C(NCC(=O)N1CCCC1C1CCCC1)c1ccc2cc(Cl)ccc2n1

>  <score_type>  (84) 
oracle

>  <origin>  (84) 
autodockgpu

>  <m_score__min__energy>  (84) 
-8.9199999999999999

>  <m_primary>  (84) 
energy

>  <rmsd>  (84) 
5.6946655350997135

>  <m_score__min__rmsd>  (84) 
5.6946655350997135

>  <meeko>  (84) 
{"free_energy": -7.93, "intermolecular_energy": -9.43, "internal_energy": -1.63, "cluster_size": 5, "cluster_id": 6, "rank_in_cluster": 1}

>  <energy>  (84) 
-8.42

>  <cluster_rmsd>  (84) 
0.31

>  <cluster>  (84) 
2

$$$$

     RDKit          3D

 51 54  0  0  0  0  0  0  0  0999 V2000
  140.6170   72.5590  220.8020 O   0  0  0  0  0  0  0  0  0  0  0  0
  140.0570   72.8410  221.8920 C   0  0  0  0  0  0  0  0  0  0  0  0
  139.3950   74.1000  222.0280 N   0  0  0  0  0  0  0  0  0  0  0  0
  139.3810   75.0160  220.9340 C   0  0  0  0  0  0  0  0  0  0  0  0
  140.2040   76.2370  221.1920 C   0  0  0  0  0  0  0  0  0  0  0  0
  141.4430   76.0930  221.1560 O   0  0  0  0  0  0  0  0  0  0  0  0
  139.5320   77.4550  221.4570 N   0  0  0  0  0  0  0  0  0  0  0  0
  138.1330   77.7790  221.0870 C   0  0  0  0  0  0  0  0  0  0  0  0
  137.6690   78.3840  222.4050 C   0  0  0  0  0  0  0  0  0  0  0  0
  138.9250   78.7920  223.1740 C   0  0  0  0  0  0  0  0  0  0  0  0
  139.9750   78.6560  222.1270 C   0  0  1  0  0  0  0  0  0  0  0  0
  141.3770   78.7550  222.5180 C   0  0  0  0  0  0  0  0  0  0  0  0
  142.0870   79.7580  221.6390 C   0  0  0  0  0  0  0  0  0  0  0  0
  142.2410   80.9580  222.5460 C   0  0  0  0  0  0  0  0  0  0  0  0
  142.6100   80.3210  223.8670 C   0  0  0  0  0  0  0  0  0  0  0  0
  141.5680   79.2160  223.9430 C   0  0  0  0  0  0  0  0  0  0  0  0
  140.0690   71.9070  223.0120 C   0  0  0  0  0  0  0  0  0  0  0  0
  139.5750   70.6270  222.8170 C   0  0  0  0  0  0  0  0  0  0  0  0
  139.5900   69.7570  223.8700 C   0  0  0  0  0  0  0  0  0  0  0  0
  140.0810   70.1250  225.1020 C   0  0  0  0  0  0  0  0  0  0  0  0
  140.0930   69.2420  226.1560 C   0  0  0  0  0  0  0  0  0  0  0  0
  140.5830   69.5880  227.4120 C   0  0  0  0  0  0  0  0  0  0  0  0
  140.5850   68.4450  228.7380 Cl  0  0  0  0  0  0  0  0  0  0  0  0
  141.0730   70.8840  227.5750 C   0  0  0  0  0  0  0  0  0  0  0  0
  141.0610   71.7790  226.5050 C   0  0  0  0  0  0  0  0  0  0  0  0
  140.5700   71.4030  225.2780 C   0  0  0  0  0  0  0  0  0  0  0  0
  140.5420   72.2380  224.2250 N   0  0  0  0  0  0  0  0  0  0  0  0
  138.9380   74.2990  222.9560 H   0  0  0  0  0  0  0  0  0  0  0  0
  139.7774   74.5063  220.0435 H   0  0  0  0  0  0  0  0  0  0  0  0
  138.3407   75.3420  220.7875 H   0  0  0  0  0  0  0  0  0  0  0  0
  138.0826   78.5034  220.2608 H   0  0  0  0  0  0  0  0  0  0  0  0
  137.5340   76.9329  220.7192 H   0  0  0  0  0  0  0  0  0  0  0  0
  137.0388   79.2654  222.2153 H   0  0  0  0  0  0  0  0  0  0  0  0
  137.0725   77.6613  222.9811 H   0  0  0  0  0  0  0  0  0  0  0  0
  138.8537   79.8273  223.5387 H   0  0  0  0  0  0  0  0  0  0  0  0
  139.1122   78.1909  224.0760 H   0  0  0  0  0  0  0  0  0  0  0  0
  140.0412   79.5323  221.4653 H   0  0  0  0  0  0  0  0  0  0  0  0
  141.7876   77.7400  222.4121 H   0  0  0  0  0  0  0  0  0  0  0  0
  143.0676   79.3773  221.3175 H   0  0  0  0  0  0  0  0  0  0  0  0
  141.5409   79.9837  220.7112 H   0  0  0  0  0  0  0  0  0  0  0  0
  143.0388   81.6263  222.1898 H   0  0  0  0  0  0  0  0  0  0  0  0
  141.3409   81.5881  222.5980 H   0  0  0  0  0  0  0  0  0  0  0  0
  143.6321   79.9148  223.8504 H   0  0  0  0  0  0  0  0  0  0  0  0
  142.6100   81.0105  224.7241 H   0  0  0  0  0  0  0  0  0  0  0  0
  141.9284   78.3882  224.5714 H   0  0  0  0  0  0  0  0  0  0  0  0
  140.6271   79.5676  224.3915 H   0  0  0  0  0  0  0  0  0  0  0  0
  139.1802   70.3189  221.8376 H   0  0  0  0  0  0  0  0  0  0  0  0
  139.2003   68.7379  223.7300 H   0  0  0  0  0  0  0  0  0  0  0  0
  139.7014   68.2258  226.0010 H   0  0  0  0  0  0  0  0  0  0  0  0
  141.4702   71.2012  228.5505 H   0  0  0  0  0  0  0  0  0  0  0  0
  141.4495   72.7985  226.6453 H   0  0  0  0  0  0  0  0  0  0  0  0
  1  2  2  0
  2  3  1  0
  3  4  1  0
  4  5  1  0
  5  6  2  0
  5  7  1  0
  7  8  1  0
  8  9  1  0
  9 10  1  0
 10 11  1  0
 11 12  1  0
 12 13  1  0
 13 14  1  0
 14 15  1  0
 15 16  1  0
  2 17  1  0
 17 18  2  0
 18 19  1  0
 19 20  2  0
 20 21  1  0
 21 22  2  0
 22 23  1  0
 22 24  1  0
 24 25  2  0
 25 26  1  0
 26 27  2  0
 11  7  1  0
 16 12  1  0
 27 17  1  0
 26 20  1  0
  3 28  1  0
  4 29  1  0
  4 30  1  0
  8 31  1  0
  8 32  1  0
  9 33  1  0
  9 34  1  0
 10 35  1  0
 10 36  1  0
 11 37  1  6
 12 38  1  0
 13 39  1  0
 13 40  1  0
 14 41  1  0
 14 42  1  0
 15 43  1  0
 15 44  1  0
 16 45  1  0
 16 46  1  0
 18 47  1  0
 19 48  1  0
 21 49  1  0
 24 50  1  0
 25 51  1  0
M  END
>  <smiles>  (85) 
O=C(NCC(=O)N1CCCC1C1CCCC1)c1ccc2cc(Cl)ccc2n1

>  <score_type>  (85) 
oracle

>  <origin>  (85) 
autodockgpu

>  <m_score__min__energy>  (85) 
-8.9199999999999999

>  <m_primary>  (85) 
energy

>  <rmsd>  (85) 
3.012304826705883

>  <m_score__min__rmsd>  (85) 
3.012304826705883

>  <meeko>  (85) 
{"free_energy": -8.61, "intermolecular_energy": -10.1, "internal_energy": -1.27, "cluster_size": 32, "cluster_id": 1, "rank_in_cluster": 10}

>  <energy>  (85) 
-7.7

>  <cluster_rmsd>  (85) 
1.76

>  <cluster>  (85) 
2

$$$$

     RDKit          3D

 51 54  0  0  0  0  0  0  0  0999 V2000
  141.6990   73.1140  220.9700 O   0  0  0  0  0  0  0  0  0  0  0  0
  140.9320   73.9260  221.5470 C   0  0  0  0  0  0  0  0  0  0  0  0
  139.8340   73.4240  222.3100 N   0  0  0  0  0  0  0  0  0  0  0  0
  139.6220   72.0160  222.4070 C   0  0  0  0  0  0  0  0  0  0  0  0
  139.9180   71.4790  223.7700 C   0  0  0  0  0  0  0  0  0  0  0  0
  141.0280   71.7750  224.2580 O   0  0  0  0  0  0  0  0  0  0  0  0
  138.9340   70.6830  224.4060 N   0  0  0  0  0  0  0  0  0  0  0  0
  137.4880   70.6570  224.0800 C   0  0  0  0  0  0  0  0  0  0  0  0
  137.2720   69.1500  224.0570 C   0  0  0  0  0  0  0  0  0  0  0  0
  138.4270   68.5230  224.8350 C   0  0  0  0  0  0  0  0  0  0  0  0
  139.0410   69.7190  225.4770 C   0  0  1  0  0  0  0  0  0  0  0  0
  140.3250   69.5750  226.1530 C   0  0  0  0  0  0  0  0  0  0  0  0
  140.2930   70.3030  227.4780 C   0  0  0  0  0  0  0  0  0  0  0  0
  140.1750   69.1790  228.4820 C   0  0  0  0  0  0  0  0  0  0  0  0
  141.1120   68.1370  227.9160 C   0  0  0  0  0  0  0  0  0  0  0  0
  140.6820   68.1400  226.4570 C   0  0  0  0  0  0  0  0  0  0  0  0
  141.1460   75.3660  221.4500 C   0  0  0  0  0  0  0  0  0  0  0  0
  141.9600   75.8520  220.4400 C   0  0  0  0  0  0  0  0  0  0  0  0
  142.1560   77.2010  220.3550 C   0  0  0  0  0  0  0  0  0  0  0  0
  141.5660   78.0720  221.2420 C   0  0  0  0  0  0  0  0  0  0  0  0
  141.7680   79.4290  221.1480 C   0  0  0  0  0  0  0  0  0  0  0  0
  141.1850   80.3320  222.0320 C   0  0  0  0  0  0  0  0  0  0  0  0
  141.4590   82.0550  221.8910 Cl  0  0  0  0  0  0  0  0  0  0  0  0
  140.3700   79.8110  223.0380 C   0  0  0  0  0  0  0  0  0  0  0  0
  140.1660   78.4330  223.1320 C   0  0  0  0  0  0  0  0  0  0  0  0
  140.7580   77.5710  222.2420 C   0  0  0  0  0  0  0  0  0  0  0  0
  140.5830   76.2390  222.3020 N   0  0  0  0  0  0  0  0  0  0  0  0
  139.2150   74.1360  222.7780 H   0  0  0  0  0  0  0  0  0  0  0  0
  138.5706   71.8013  222.1652 H   0  0  0  0  0  0  0  0  0  0  0  0
  140.3105   71.5277  221.7016 H   0  0  0  0  0  0  0  0  0  0  0  0
  136.8821   71.1481  224.8557 H   0  0  0  0  0  0  0  0  0  0  0  0
  137.2023   71.1884  223.1603 H   0  0  0  0  0  0  0  0  0  0  0  0
  136.3137   68.8981  224.5347 H   0  0  0  0  0  0  0  0  0  0  0  0
  137.2430   68.7727  223.0242 H   0  0  0  0  0  0  0  0  0  0  0  0
  138.0627   67.8069  225.5863 H   0  0  0  0  0  0  0  0  0  0  0  0
  139.1234   67.9431  224.2116 H   0  0  0  0  0  0  0  0  0  0  0  0
  138.5271   70.0244  226.4004 H   0  0  0  0  0  0  0  0  0  0  0  0
  141.0731   69.9915  225.4625 H   0  0  0  0  0  0  0  0  0  0  0  0
  141.2174   70.8780  227.6354 H   0  0  0  0  0  0  0  0  0  0  0  0
  139.4756   71.0356  227.5500 H   0  0  0  0  0  0  0  0  0  0  0  0
  140.4983   69.5034  229.4821 H   0  0  0  0  0  0  0  0  0  0  0  0
  139.1451   68.8167  228.6164 H   0  0  0  0  0  0  0  0  0  0  0  0
  142.1652   68.4335  228.0295 H   0  0  0  0  0  0  0  0  0  0  0  0
  141.0560   67.1548  228.4081 H   0  0  0  0  0  0  0  0  0  0  0  0
  141.5060   67.8023  225.8112 H   0  0  0  0  0  0  0  0  0  0  0  0
  139.8376   67.4588  226.2757 H   0  0  0  0  0  0  0  0  0  0  0  0
  142.4373   75.1675  219.7233 H   0  0  0  0  0  0  0  0  0  0  0  0
  142.8009   77.6007  219.5585 H   0  0  0  0  0  0  0  0  0  0  0  0
  142.4136   79.8146  220.3452 H   0  0  0  0  0  0  0  0  0  0  0  0
  139.8872   80.4876  223.7585 H   0  0  0  0  0  0  0  0  0  0  0  0
  139.5227   78.0326  223.9294 H   0  0  0  0  0  0  0  0  0  0  0  0
  1  2  2  0
  2  3  1  0
  3  4  1  0
  4  5  1  0
  5  6  2  0
  5  7  1  0
  7  8  1  0
  8  9  1  0
  9 10  1  0
 10 11  1  0
 11 12  1  0
 12 13  1  0
 13 14  1  0
 14 15  1  0
 15 16  1  0
  2 17  1  0
 17 18  2  0
 18 19  1  0
 19 20  2  0
 20 21  1  0
 21 22  2  0
 22 23  1  0
 22 24  1  0
 24 25  2  0
 25 26  1  0
 26 27  2  0
 11  7  1  0
 16 12  1  0
 27 17  1  0
 26 20  1  0
  3 28  1  0
  4 29  1  0
  4 30  1  0
  8 31  1  0
  8 32  1  0
  9 33  1  0
  9 34  1  0
 10 35  1  0
 10 36  1  0
 11 37  1  1
 12 38  1  0
 13 39  1  0
 13 40  1  0
 14 41  1  0
 14 42  1  0
 15 43  1  0
 15 44  1  0
 16 45  1  0
 16 46  1  0
 18 47  1  0
 19 48  1  0
 21 49  1  0
 24 50  1  0
 25 51  1  0
M  END
>  <smiles>  (86) 
O=C(NCC(=O)N1CCCC1C1CCCC1)c1ccc2cc(Cl)ccc2n1

>  <score_type>  (86) 
oracle

>  <origin>  (86) 
autodockgpu

>  <m_score__min__energy>  (86) 
-8.9199999999999999

>  <m_primary>  (86) 
energy

>  <rmsd>  (86) 
8.497968050612341

>  <m_score__min__rmsd>  (86) 
8.497968050612341

>  <meeko>  (86) 
{"free_energy": -8.42, "intermolecular_energy": -9.91, "internal_energy": -1.41, "cluster_size": 3, "cluster_id": 2, "rank_in_cluster": 2}

>  <energy>  (86) 
-8.22

>  <cluster_rmsd>  (86) 
0.0

>  <cluster>  (86) 
3

$$$$

     RDKit          3D

 51 54  0  0  0  0  0  0  0  0999 V2000
  139.6540   72.3360  220.8520 O   0  0  0  0  0  0  0  0  0  0  0  0
  139.6700   72.7100  222.0520 C   0  0  0  0  0  0  0  0  0  0  0  0
  139.5400   74.1020  222.3480 N   0  0  0  0  0  0  0  0  0  0  0  0
  139.3960   75.0420  221.2840 C   0  0  0  0  0  0  0  0  0  0  0  0
  139.0450   76.4120  221.7680 C   0  0  0  0  0  0  0  0  0  0  0  0
  138.4290   76.4820  222.8520 O   0  0  0  0  0  0  0  0  0  0  0  0
  139.4290   77.5230  220.9780 N   0  0  0  0  0  0  0  0  0  0  0  0
  139.3620   77.6060  219.4990 C   0  0  0  0  0  0  0  0  0  0  0  0
  138.7330   78.9860  219.3630 C   0  0  0  0  0  0  0  0  0  0  0  0
  138.9710   79.7160  220.6840 C   0  0  0  0  0  0  0  0  0  0  0  0
  139.9530   78.8160  221.3510 C   0  0  1  0  0  0  0  0  0  0  0  0
  140.2870   79.0520  222.7510 C   0  0  0  0  0  0  0  0  0  0  0  0
  141.5590   78.3180  223.1070 C   0  0  0  0  0  0  0  0  0  0  0  0
  142.5860   79.4260  223.1680 C   0  0  0  0  0  0  0  0  0  0  0  0
  141.8250   80.5370  223.8560 C   0  0  0  0  0  0  0  0  0  0  0  0
  140.5230   80.5080  223.0720 C   0  0  0  0  0  0  0  0  0  0  0  0
  139.8180   71.7510  223.1410 C   0  0  0  0  0  0  0  0  0  0  0  0
  139.4510   70.4340  222.9220 C   0  0  0  0  0  0  0  0  0  0  0  0
  139.5920   69.5400  223.9450 C   0  0  0  0  0  0  0  0  0  0  0  0
  140.0860   69.9220  225.1720 C   0  0  0  0  0  0  0  0  0  0  0  0
  140.2250   69.0160  226.1970 C   0  0  0  0  0  0  0  0  0  0  0  0
  140.7210   69.3750  227.4460 C   0  0  0  0  0  0  0  0  0  0  0  0
  140.8870   68.2020  228.7350 Cl  0  0  0  0  0  0  0  0  0  0  0  0
  141.0810   70.7100  227.6350 C   0  0  0  0  0  0  0  0  0  0  0  0
  140.9400   71.6290  226.5940 C   0  0  0  0  0  0  0  0  0  0  0  0
  140.4470   71.2380  225.3730 C   0  0  0  0  0  0  0  0  0  0  0  0
  140.2970   72.0960  224.3480 N   0  0  0  0  0  0  0  0  0  0  0  0
  139.5590   74.3760  223.3650 H   0  0  0  0  0  0  0  0  0  0  0  0
  140.3457   75.0965  220.7317 H   0  0  0  0  0  0  0  0  0  0  0  0
  138.5720   74.6948  220.6432 H   0  0  0  0  0  0  0  0  0  0  0  0
  140.3598   77.5609  219.0382 H   0  0  0  0  0  0  0  0  0  0  0  0
  138.8171   76.7882  219.0046 H   0  0  0  0  0  0  0  0  0  0  0  0
  139.2053   79.5369  218.5363 H   0  0  0  0  0  0  0  0  0  0  0  0
  137.6576   78.9081  219.1451 H   0  0  0  0  0  0  0  0  0  0  0  0
  139.3931   80.7182  220.5184 H   0  0  0  0  0  0  0  0  0  0  0  0
  138.0563   79.8921  221.2690 H   0  0  0  0  0  0  0  0  0  0  0  0
  140.9882   78.9849  221.0196 H   0  0  0  0  0  0  0  0  0  0  0  0
  139.4207   78.6950  223.3273 H   0  0  0  0  0  0  0  0  0  0  0  0
  141.4647   77.8125  224.0794 H   0  0  0  0  0  0  0  0  0  0  0  0
  141.8179   77.5263  222.3885 H   0  0  0  0  0  0  0  0  0  0  0  0
  143.4647   79.1222  223.7559 H   0  0  0  0  0  0  0  0  0  0  0  0
  142.9842   79.7107  222.1829 H   0  0  0  0  0  0  0  0  0  0  0  0
  141.6623   80.3183  224.9217 H   0  0  0  0  0  0  0  0  0  0  0  0
  142.3372   81.5105  223.8580 H   0  0  0  0  0  0  0  0  0  0  0  0
  139.6978   80.9078  223.6796 H   0  0  0  0  0  0  0  0  0  0  0  0
  140.5761   81.1260  222.1636 H   0  0  0  0  0  0  0  0  0  0  0  0
  139.0550   70.1150  221.9466 H   0  0  0  0  0  0  0  0  0  0  0  0
  139.3042   68.4905  223.7848 H   0  0  0  0  0  0  0  0  0  0  0  0
  139.9335   67.9697  226.0230 H   0  0  0  0  0  0  0  0  0  0  0  0
  141.4770   71.0389  228.6071 H   0  0  0  0  0  0  0  0  0  0  0  0
  141.2271   72.6789  226.7533 H   0  0  0  0  0  0  0  0  0  0  0  0
  1  2  2  0
  2  3  1  0
  3  4  1  0
  4  5  1  0
  5  6  2  0
  5  7  1  0
  7  8  1  0
  8  9  1  0
  9 10  1  0
 10 11  1  0
 11 12  1  0
 12 13  1  0
 13 14  1  0
 14 15  1  0
 15 16  1  0
  2 17  1  0
 17 18  2  0
 18 19  1  0
 19 20  2  0
 20 21  1  0
 21 22  2  0
 22 23  1  0
 22 24  1  0
 24 25  2  0
 25 26  1  0
 26 27  2  0
 11  7  1  0
 16 12  1  0
 27 17  1  0
 26 20  1  0
  3 28  1  0
  4 29  1  0
  4 30  1  0
  8 31  1  0
  8 32  1  0
  9 33  1  0
  9 34  1  0
 10 35  1  0
 10 36  1  0
 11 37  1  6
 12 38  1  0
 13 39  1  0
 13 40  1  0
 14 41  1  0
 14 42  1  0
 15 43  1  0
 15 44  1  0
 16 45  1  0
 16 46  1  0
 18 47  1  0
 19 48  1  0
 21 49  1  0
 24 50  1  0
 25 51  1  0
M  END
>  <smiles>  (87) 
O=C(NCC(=O)N1CCCC1C1CCCC1)c1ccc2cc(Cl)ccc2n1

>  <score_type>  (87) 
oracle

>  <origin>  (87) 
autodockgpu

>  <m_score__min__energy>  (87) 
-8.9199999999999999

>  <m_primary>  (87) 
energy

>  <rmsd>  (87) 
2.3041388455271474

>  <m_score__min__rmsd>  (87) 
2.3041388455271474

>  <meeko>  (87) 
{"free_energy": -7.82, "intermolecular_energy": -9.31, "internal_energy": -1.71, "cluster_size": 32, "cluster_id": 1, "rank_in_cluster": 25}

>  <energy>  (87) 
-7.39

>  <cluster_rmsd>  (87) 
1.86

>  <cluster>  (87) 
3

$$$$

     RDKit          3D

 51 54  0  0  0  0  0  0  0  0999 V2000
  140.7410   72.8690  221.1460 O   0  0  0  0  0  0  0  0  0  0  0  0
  139.9840   72.9450  222.1470 C   0  0  0  0  0  0  0  0  0  0  0  0
  139.0600   74.0310  222.2390 N   0  0  0  0  0  0  0  0  0  0  0  0
  139.0100   75.0090  221.2020 C   0  0  0  0  0  0  0  0  0  0  0  0
  139.5860   76.3240  221.6190 C   0  0  0  0  0  0  0  0  0  0  0  0
  138.8970   77.0130  222.4000 O   0  0  0  0  0  0  0  0  0  0  0  0
  140.8550   76.6940  221.1100 N   0  0  0  0  0  0  0  0  0  0  0  0
  141.7770   75.8200  220.3460 C   0  0  0  0  0  0  0  0  0  0  0  0
  142.1480   76.7810  219.2250 C   0  0  0  0  0  0  0  0  0  0  0  0
  141.8240   78.1890  219.7200 C   0  0  0  0  0  0  0  0  0  0  0  0
  141.5710   77.9470  221.1680 C   0  0  1  0  0  0  0  0  0  0  0  0
  141.0160   79.0260  221.9770 C   0  0  0  0  0  0  0  0  0  0  0  0
  141.4340   78.8560  223.4190 C   0  0  0  0  0  0  0  0  0  0  0  0
  142.5000   79.9140  223.5930 C   0  0  0  0  0  0  0  0  0  0  0  0
  141.9220   81.0850  222.8310 C   0  0  0  0  0  0  0  0  0  0  0  0
  141.4860   80.3960  221.5490 C   0  0  0  0  0  0  0  0  0  0  0  0
  140.0320   71.9460  223.2090 C   0  0  0  0  0  0  0  0  0  0  0  0
  139.6060   70.6570  222.9300 C   0  0  0  0  0  0  0  0  0  0  0  0
  139.6540   69.7260  223.9290 C   0  0  0  0  0  0  0  0  0  0  0  0
  140.1120   70.0430  225.1880 C   0  0  0  0  0  0  0  0  0  0  0  0
  140.1570   69.0990  226.1870 C   0  0  0  0  0  0  0  0  0  0  0  0
  140.6140   69.3920  227.4680 C   0  0  0  0  0  0  0  0  0  0  0  0
  140.6600   68.1730  228.7230 Cl  0  0  0  0  0  0  0  0  0  0  0  0
  141.0350   70.6990  227.7160 C   0  0  0  0  0  0  0  0  0  0  0  0
  140.9890   71.6560  226.7010 C   0  0  0  0  0  0  0  0  0  0  0  0
  140.5320   71.3310  225.4470 C   0  0  0  0  0  0  0  0  0  0  0  0
  140.4730   72.2270  224.4460 N   0  0  0  0  0  0  0  0  0  0  0  0
  138.4430   74.0590  223.0920 H   0  0  0  0  0  0  0  0  0  0  0  0
  139.5781   74.6345  220.3377 H   0  0  0  0  0  0  0  0  0  0  0  0
  137.9514   75.1746  220.9531 H   0  0  0  0  0  0  0  0  0  0  0  0
  142.6531   75.5246  220.9420 H   0  0  0  0  0  0  0  0  0  0  0  0
  141.3544   74.8576  220.0217 H   0  0  0  0  0  0  0  0  0  0  0  0
  143.2207   76.6984  218.9959 H   0  0  0  0  0  0  0  0  0  0  0  0
  141.5884   76.5487  218.3069 H   0  0  0  0  0  0  0  0  0  0  0  0
  142.6727   78.8725  219.5696 H   0  0  0  0  0  0  0  0  0  0  0  0
  140.9848   78.6665  219.1929 H   0  0  0  0  0  0  0  0  0  0  0  0
  142.4936   77.9016  221.7653 H   0  0  0  0  0  0  0  0  0  0  0  0
  139.9256   78.9644  221.8461 H   0  0  0  0  0  0  0  0  0  0  0  0
  140.5876   79.0324  224.0991 H   0  0  0  0  0  0  0  0  0  0  0  0
  141.7899   77.8410  223.6497 H   0  0  0  0  0  0  0  0  0  0  0  0
  142.6447   80.1624  224.6548 H   0  0  0  0  0  0  0  0  0  0  0  0
  143.4918   79.6021  223.2338 H   0  0  0  0  0  0  0  0  0  0  0  0
  141.0687   81.5328  223.3614 H   0  0  0  0  0  0  0  0  0  0  0  0
  142.6178   81.9244  222.6854 H   0  0  0  0  0  0  0  0  0  0  0  0
  140.6668   80.9531  221.0709 H   0  0  0  0  0  0  0  0  0  0  0  0
  142.3023   80.3399  220.8138 H   0  0  0  0  0  0  0  0  0  0  0  0
  139.2381   70.3898  221.9284 H   0  0  0  0  0  0  0  0  0  0  0  0
  139.3188   68.6989  223.7224 H   0  0  0  0  0  0  0  0  0  0  0  0
  139.8196   68.0757  225.9654 H   0  0  0  0  0  0  0  0  0  0  0  0
  141.4043   70.9760  228.7145 H   0  0  0  0  0  0  0  0  0  0  0  0
  141.3229   72.6835  226.9079 H   0  0  0  0  0  0  0  0  0  0  0  0
  1  2  2  0
  2  3  1  0
  3  4  1  0
  4  5  1  0
  5  6  2  0
  5  7  1  0
  7  8  1  0
  8  9  1  0
  9 10  1  0
 10 11  1  0
 11 12  1  0
 12 13  1  0
 13 14  1  0
 14 15  1  0
 15 16  1  0
  2 17  1  0
 17 18  2  0
 18 19  1  0
 19 20  2  0
 20 21  1  0
 21 22  2  0
 22 23  1  0
 22 24  1  0
 24 25  2  0
 25 26  1  0
 26 27  2  0
 11  7  1  0
 16 12  1  0
 27 17  1  0
 26 20  1  0
  3 28  1  0
  4 29  1  0
  4 30  1  0
  8 31  1  0
  8 32  1  0
  9 33  1  0
  9 34  1  0
 10 35  1  0
 10 36  1  0
 11 37  1  1
 12 38  1  0
 13 39  1  0
 13 40  1  0
 14 41  1  0
 14 42  1  0
 15 43  1  0
 15 44  1  0
 16 45  1  0
 16 46  1  0
 18 47  1  0
 19 48  1  0
 21 49  1  0
 24 50  1  0
 25 51  1  0
M  END
>  <smiles>  (88) 
O=C(NCC(=O)N1CCCC1C1CCCC1)c1ccc2cc(Cl)ccc2n1

>  <score_type>  (88) 
oracle

>  <origin>  (88) 
autodockgpu

>  <m_score__min__energy>  (88) 
-8.9199999999999999

>  <m_primary>  (88) 
energy

>  <rmsd>  (88) 
2.027911804230414

>  <m_score__min__rmsd>  (88) 
2.027911804230414

>  <meeko>  (88) 
{"free_energy": -8.78, "intermolecular_energy": -10.27, "internal_energy": -1.36, "cluster_size": 32, "cluster_id": 1, "rank_in_cluster": 5}

>  <energy>  (88) 
-7.39

>  <cluster_rmsd>  (88) 
1.87

>  <cluster>  (88) 
3

$$$$

     RDKit          3D

 51 54  0  0  0  0  0  0  0  0999 V2000
  140.4820   72.5640  220.7430 O   0  0  0  0  0  0  0  0  0  0  0  0
  140.1640   72.9270  221.9040 C   0  0  0  0  0  0  0  0  0  0  0  0
  139.8420   74.2980  222.1410 N   0  0  0  0  0  0  0  0  0  0  0  0
  139.8850   75.2330  221.0640 C   0  0  0  0  0  0  0  0  0  0  0  0
  141.2790   75.6280  220.6970 C   0  0  0  0  0  0  0  0  0  0  0  0
  142.1700   74.7750  220.8880 O   0  0  0  0  0  0  0  0  0  0  0  0
  141.4930   76.9240  220.1680 N   0  0  0  0  0  0  0  0  0  0  0  0
  141.7330   77.2560  218.7430 C   0  0  0  0  0  0  0  0  0  0  0  0
  140.7800   78.4360  218.6060 C   0  0  0  0  0  0  0  0  0  0  0  0
  140.5010   78.9490  220.0170 C   0  0  0  0  0  0  0  0  0  0  0  0
  141.5280   78.2170  220.8110 C   0  0  1  0  0  0  0  0  0  0  0  0
  141.4620   78.2700  222.2670 C   0  0  0  0  0  0  0  0  0  0  0  0
  142.3880   79.3460  222.7850 C   0  0  0  0  0  0  0  0  0  0  0  0
  141.4380   80.4550  223.1760 C   0  0  0  0  0  0  0  0  0  0  0  0
  140.2990   79.6960  223.8180 C   0  0  0  0  0  0  0  0  0  0  0  0
  140.0840   78.5950  222.7910 C   0  0  0  0  0  0  0  0  0  0  0  0
  140.1190   71.9740  223.0070 C   0  0  0  0  0  0  0  0  0  0  0  0
  139.5780   70.7190  222.7810 C   0  0  0  0  0  0  0  0  0  0  0  0
  139.5390   69.8300  223.8170 C   0  0  0  0  0  0  0  0  0  0  0  0
  140.0220   70.1570  225.0650 C   0  0  0  0  0  0  0  0  0  0  0  0
  139.9790   69.2550  226.1030 C   0  0  0  0  0  0  0  0  0  0  0  0
  140.4590   69.5590  227.3730 C   0  0  0  0  0  0  0  0  0  0  0  0
  140.3910   68.3950  228.6780 Cl  0  0  0  0  0  0  0  0  0  0  0  0
  140.9970   70.8320  227.5690 C   0  0  0  0  0  0  0  0  0  0  0  0
  141.0400   71.7450  226.5140 C   0  0  0  0  0  0  0  0  0  0  0  0
  140.5570   71.4110  225.2720 C   0  0  0  0  0  0  0  0  0  0  0  0
  140.5820   72.2650  224.2340 N   0  0  0  0  0  0  0  0  0  0  0  0
  139.5810   74.5620  223.1270 H   0  0  0  0  0  0  0  0  0  0  0  0
  139.4051   74.7788  220.1846 H   0  0  0  0  0  0  0  0  0  0  0  0
  139.3582   76.1413  221.3919 H   0  0  0  0  0  0  0  0  0  0  0  0
  142.7777   77.5466  218.5581 H   0  0  0  0  0  0  0  0  0  0  0  0
  141.5692   76.4323  218.0326 H   0  0  0  0  0  0  0  0  0  0  0  0
  141.2442   79.2285  218.0006 H   0  0  0  0  0  0  0  0  0  0  0  0
  139.8480   78.1327  218.1066 H   0  0  0  0  0  0  0  0  0  0  0  0
  140.6432   80.0377  220.0836 H   0  0  0  0  0  0  0  0  0  0  0  0
  139.4687   78.7813  220.3580 H   0  0  0  0  0  0  0  0  0  0  0  0
  142.5176   78.6966  220.7844 H   0  0  0  0  0  0  0  0  0  0  0  0
  141.7489   77.2665  222.6144 H   0  0  0  0  0  0  0  0  0  0  0  0
  142.9595   78.9903  223.6550 H   0  0  0  0  0  0  0  0  0  0  0  0
  143.1410   79.6609  222.0476 H   0  0  0  0  0  0  0  0  0  0  0  0
  141.9073   81.1475  223.8903 H   0  0  0  0  0  0  0  0  0  0  0  0
  141.1249   81.0841  222.3297 H   0  0  0  0  0  0  0  0  0  0  0  0
  140.5855   79.2866  224.7980 H   0  0  0  0  0  0  0  0  0  0  0  0
  139.4071   80.3033  224.0317 H   0  0  0  0  0  0  0  0  0  0  0  0
  139.6318   77.7101  223.2627 H   0  0  0  0  0  0  0  0  0  0  0  0
  139.4015   78.9090  221.9875 H   0  0  0  0  0  0  0  0  0  0  0  0
  139.1886   70.4446  221.7895 H   0  0  0  0  0  0  0  0  0  0  0  0
  139.1121   68.8299  223.6511 H   0  0  0  0  0  0  0  0  0  0  0  0
  139.5500   68.2583  225.9224 H   0  0  0  0  0  0  0  0  0  0  0  0
  141.3880   71.1164  228.5571 H   0  0  0  0  0  0  0  0  0  0  0  0
  141.4664   72.7454  226.6793 H   0  0  0  0  0  0  0  0  0  0  0  0
  1  2  2  0
  2  3  1  0
  3  4  1  0
  4  5  1  0
  5  6  2  0
  5  7  1  0
  7  8  1  0
  8  9  1  0
  9 10  1  0
 10 11  1  0
 11 12  1  0
 12 13  1  0
 13 14  1  0
 14 15  1  0
 15 16  1  0
  2 17  1  0
 17 18  2  0
 18 19  1  0
 19 20  2  0
 20 21  1  0
 21 22  2  0
 22 23  1  0
 22 24  1  0
 24 25  2  0
 25 26  1  0
 26 27  2  0
 11  7  1  0
 16 12  1  0
 27 17  1  0
 26 20  1  0
  3 28  1  0
  4 29  1  0
  4 30  1  0
  8 31  1  0
  8 32  1  0
  9 33  1  0
  9 34  1  0
 10 35  1  0
 10 36  1  0
 11 37  1  6
 12 38  1  0
 13 39  1  0
 13 40  1  0
 14 41  1  0
 14 42  1  0
 15 43  1  0
 15 44  1  0
 16 45  1  0
 16 46  1  0
 18 47  1  0
 19 48  1  0
 21 49  1  0
 24 50  1  0
 25 51  1  0
M  END
>  <smiles>  (89) 
O=C(NCC(=O)N1CCCC1C1CCCC1)c1ccc2cc(Cl)ccc2n1

>  <score_type>  (89) 
oracle

>  <origin>  (89) 
autodockgpu

>  <m_score__min__energy>  (89) 
-8.9199999999999999

>  <m_primary>  (89) 
energy

>  <rmsd>  (89) 
2.2157370168404373

>  <m_score__min__rmsd>  (89) 
2.2157370168404373

>  <meeko>  (89) 
{"free_energy": -8.11, "intermolecular_energy": -9.6, "internal_energy": -1.37, "cluster_size": 32, "cluster_id": 1, "rank_in_cluster": 13}

>  <energy>  (89) 
-7.99

>  <cluster_rmsd>  (89) 
0.0

>  <cluster>  (89) 
4

$$$$

     RDKit          3D

 51 54  0  0  0  0  0  0  0  0999 V2000
  138.8670   71.8430  220.7320 O   0  0  0  0  0  0  0  0  0  0  0  0
  139.0600   72.3100  221.8840 C   0  0  0  0  0  0  0  0  0  0  0  0
  138.9960   73.7230  222.0810 N   0  0  0  0  0  0  0  0  0  0  0  0
  138.7180   74.5820  220.9760 C   0  0  0  0  0  0  0  0  0  0  0  0
  139.7980   74.5630  219.9430 C   0  0  0  0  0  0  0  0  0  0  0  0
  139.4420   74.3510  218.7650 O   0  0  0  0  0  0  0  0  0  0  0  0
  141.1330   74.7830  220.3620 N   0  0  0  0  0  0  0  0  0  0  0  0
  142.2010   73.7580  220.4460 C   0  0  0  0  0  0  0  0  0  0  0  0
  143.3310   74.5320  219.7800 C   0  0  0  0  0  0  0  0  0  0  0  0
  142.9580   76.0120  219.8500 C   0  0  0  0  0  0  0  0  0  0  0  0
  141.8050   75.9870  220.7930 C   0  0  1  0  0  0  0  0  0  0  0  0
  141.0130   77.1980  220.9700 C   0  0  0  0  0  0  0  0  0  0  0  0
  140.4570   77.2490  222.3750 C   0  0  0  0  0  0  0  0  0  0  0  0
  141.3250   78.2870  223.0480 C   0  0  0  0  0  0  0  0  0  0  0  0
  141.4680   79.3390  221.9710 C   0  0  0  0  0  0  0  0  0  0  0  0
  141.8080   78.4660  220.7740 C   0  0  0  0  0  0  0  0  0  0  0  0
  139.3450   71.4350  223.0150 C   0  0  0  0  0  0  0  0  0  0  0  0
  139.0120   70.0940  222.9200 C   0  0  0  0  0  0  0  0  0  0  0  0
  139.2810   69.2790  223.9830 C   0  0  0  0  0  0  0  0  0  0  0  0
  139.8710   69.7620  225.1300 C   0  0  0  0  0  0  0  0  0  0  0  0
  140.1390   68.9350  226.1950 C   0  0  0  0  0  0  0  0  0  0  0  0
  140.7330   69.3970  227.3650 C   0  0  0  0  0  0  0  0  0  0  0  0
  141.0630   68.3230  228.7070 Cl  0  0  0  0  0  0  0  0  0  0  0  0
  141.0560   70.7530  227.4300 C   0  0  0  0  0  0  0  0  0  0  0  0
  140.7830   71.5920  226.3480 C   0  0  0  0  0  0  0  0  0  0  0  0
  140.1960   71.1010  225.2070 C   0  0  0  0  0  0  0  0  0  0  0  0
  139.9180   71.8790  224.1460 N   0  0  0  0  0  0  0  0  0  0  0  0
  139.1640   74.0750  223.0590 H   0  0  0  0  0  0  0  0  0  0  0  0
  137.7771   74.2584  220.5070 H   0  0  0  0  0  0  0  0  0  0  0  0
  138.6479   75.6090  221.3637 H   0  0  0  0  0  0  0  0  0  0  0  0
  142.4392   73.4956  221.4873 H   0  0  0  0  0  0  0  0  0  0  0  0
  141.9603   72.7870  219.9886 H   0  0  0  0  0  0  0  0  0  0  0  0
  144.2765   74.3547  220.3135 H   0  0  0  0  0  0  0  0  0  0  0  0
  143.4673   74.2096  218.7372 H   0  0  0  0  0  0  0  0  0  0  0  0
  143.7873   76.6165  220.2461 H   0  0  0  0  0  0  0  0  0  0  0  0
  142.7269   76.4616  218.8730 H   0  0  0  0  0  0  0  0  0  0  0  0
  142.1109   75.9686  221.8495 H   0  0  0  0  0  0  0  0  0  0  0  0
  140.2224   77.1495  220.2067 H   0  0  0  0  0  0  0  0  0  0  0  0
  139.4015   77.5588  222.3713 H   0  0  0  0  0  0  0  0  0  0  0  0
  140.4752   76.2738  222.8835 H   0  0  0  0  0  0  0  0  0  0  0  0
  140.8334   78.6975  223.9424 H   0  0  0  0  0  0  0  0  0  0  0  0
  142.2868   77.8906  223.4055 H   0  0  0  0  0  0  0  0  0  0  0  0
  140.5299   79.8922  221.8167 H   0  0  0  0  0  0  0  0  0  0  0  0
  142.2076   80.1228  222.1913 H   0  0  0  0  0  0  0  0  0  0  0  0
  141.5152   78.9640  219.8379 H   0  0  0  0  0  0  0  0  0  0  0  0
  142.8876   78.2674  220.7036 H   0  0  0  0  0  0  0  0  0  0  0  0
  138.5417   69.6943  222.0095 H   0  0  0  0  0  0  0  0  0  0  0  0
  139.0203   68.2121  223.9214 H   0  0  0  0  0  0  0  0  0  0  0  0
  139.8743   67.8700  226.1193 H   0  0  0  0  0  0  0  0  0  0  0  0
  141.5269   71.1619  228.3361 H   0  0  0  0  0  0  0  0  0  0  0  0
  141.0411   72.6595  226.4098 H   0  0  0  0  0  0  0  0  0  0  0  0
  1  2  2  0
  2  3  1  0
  3  4  1  0
  4  5  1  0
  5  6  2  0
  5  7  1  0
  7  8  1  0
  8  9  1  0
  9 10  1  0
 10 11  1  0
 11 12  1  0
 12 13  1  0
 13 14  1  0
 14 15  1  0
 15 16  1  0
  2 17  1  0
 17 18  2  0
 18 19  1  0
 19 20  2  0
 20 21  1  0
 21 22  2  0
 22 23  1  0
 22 24  1  0
 24 25  2  0
 25 26  1  0
 26 27  2  0
 11  7  1  0
 16 12  1  0
 27 17  1  0
 26 20  1  0
  3 28  1  0
  4 29  1  0
  4 30  1  0
  8 31  1  0
  8 32  1  0
  9 33  1  0
  9 34  1  0
 10 35  1  0
 10 36  1  0
 11 37  1  1
 12 38  1  0
 13 39  1  0
 13 40  1  0
 14 41  1  0
 14 42  1  0
 15 43  1  0
 15 44  1  0
 16 45  1  0
 16 46  1  0
 18 47  1  0
 19 48  1  0
 21 49  1  0
 24 50  1  0
 25 51  1  0
M  END
>  <smiles>  (90) 
O=C(NCC(=O)N1CCCC1C1CCCC1)c1ccc2cc(Cl)ccc2n1

>  <score_type>  (90) 
oracle

>  <origin>  (90) 
autodockgpu

>  <m_score__min__energy>  (90) 
-8.9199999999999999

>  <m_primary>  (90) 
energy

>  <rmsd>  (90) 
2.1929865961439203

>  <m_score__min__rmsd>  (90) 
2.1929865961439203

>  <meeko>  (90) 
{"free_energy": -7.64, "intermolecular_energy": -9.13, "internal_energy": -1.76, "cluster_size": 32, "cluster_id": 1, "rank_in_cluster": 29}

>  <energy>  (90) 
-7.95

>  <cluster_rmsd>  (90) 
0.0

>  <cluster>  (90) 
5

$$$$

     RDKit          3D

 51 54  0  0  0  0  0  0  0  0999 V2000
  137.9610   72.4770  220.8440 O   0  0  0  0  0  0  0  0  0  0  0  0
  137.7640   73.0460  221.9480 C   0  0  0  0  0  0  0  0  0  0  0  0
  137.1920   72.2980  223.0230 N   0  0  0  0  0  0  0  0  0  0  0  0
  136.8540   70.9250  222.8310 C   0  0  0  0  0  0  0  0  0  0  0  0
  137.6590   70.0060  223.6910 C   0  0  0  0  0  0  0  0  0  0  0  0
  137.0460   69.0550  224.2190 O   0  0  0  0  0  0  0  0  0  0  0  0
  139.0410   70.2710  223.8490 N   0  0  0  0  0  0  0  0  0  0  0  0
  139.9510   70.8070  222.8080 C   0  0  0  0  0  0  0  0  0  0  0  0
  140.6640   71.8680  223.6340 C   0  0  0  0  0  0  0  0  0  0  0  0
  140.4650   71.4970  225.1030 C   0  0  0  0  0  0  0  0  0  0  0  0
  139.9110   70.1190  224.9910 C   0  0  1  0  0  0  0  0  0  0  0  0
  139.3800   69.4740  226.1870 C   0  0  0  0  0  0  0  0  0  0  0  0
  139.6700   67.9910  226.1440 C   0  0  0  0  0  0  0  0  0  0  0  0
  140.7980   67.8350  227.1380 C   0  0  0  0  0  0  0  0  0  0  0  0
  140.3740   68.7570  228.2580 C   0  0  0  0  0  0  0  0  0  0  0  0
  139.9870   69.9960  227.4670 C   0  0  0  0  0  0  0  0  0  0  0  0
  138.1080   74.4490  222.1480 C   0  0  0  0  0  0  0  0  0  0  0  0
  137.0850   75.3650  222.3340 C   0  0  0  0  0  0  0  0  0  0  0  0
  137.4140   76.6780  222.5210 C   0  0  0  0  0  0  0  0  0  0  0  0
  138.7240   77.0980  222.5280 C   0  0  0  0  0  0  0  0  0  0  0  0
  139.0460   78.4220  222.7170 C   0  0  0  0  0  0  0  0  0  0  0  0
  140.3610   78.8740  222.7280 C   0  0  0  0  0  0  0  0  0  0  0  0
  140.7440   80.5650  222.9700 Cl  0  0  0  0  0  0  0  0  0  0  0  0
  141.3680   77.9270  222.5380 C   0  0  0  0  0  0  0  0  0  0  0  0
  141.0410   76.5840  222.3450 C   0  0  0  0  0  0  0  0  0  0  0  0
  139.7300   76.1730  222.3410 C   0  0  0  0  0  0  0  0  0  0  0  0
  139.3770   74.8880  222.1590 N   0  0  0  0  0  0  0  0  0  0  0  0
  137.0420   72.8100  223.9310 H   0  0  0  0  0  0  0  0  0  0  0  0
  135.7892   70.7882  223.0705 H   0  0  0  0  0  0  0  0  0  0  0  0
  137.0714   70.6734  221.7824 H   0  0  0  0  0  0  0  0  0  0  0  0
  140.6457   70.0406  222.4338 H   0  0  0  0  0  0  0  0  0  0  0  0
  139.4596   71.1718  221.8940 H   0  0  0  0  0  0  0  0  0  0  0  0
  141.7363   71.8802  223.3891 H   0  0  0  0  0  0  0  0  0  0  0  0
  140.2588   72.8686  223.4229 H   0  0  0  0  0  0  0  0  0  0  0  0
  141.4186   71.5030  225.6513 H   0  0  0  0  0  0  0  0  0  0  0  0
  139.8205   72.1949  225.6576 H   0  0  0  0  0  0  0  0  0  0  0  0
  140.6870   69.3512  224.8554 H   0  0  0  0  0  0  0  0  0  0  0  0
  138.3017   69.6914  226.1875 H   0  0  0  0  0  0  0  0  0  0  0  0
  138.7896   67.4071  226.4506 H   0  0  0  0  0  0  0  0  0  0  0  0
  139.9266   67.6289  225.1375 H   0  0  0  0  0  0  0  0  0  0  0  0
  140.8792   66.7952  227.4878 H   0  0  0  0  0  0  0  0  0  0  0  0
  141.7872   68.0758  226.7214 H   0  0  0  0  0  0  0  0  0  0  0  0
  139.5193   68.3494  228.8177 H   0  0  0  0  0  0  0  0  0  0  0  0
  141.1418   68.9262  229.0273 H   0  0  0  0  0  0  0  0  0  0  0  0
  139.2535   70.5965  228.0250 H   0  0  0  0  0  0  0  0  0  0  0  0
  140.8515   70.6489  227.2761 H   0  0  0  0  0  0  0  0  0  0  0  0
  136.0332   75.0429  222.3312 H   0  0  0  0  0  0  0  0  0  0  0  0
  136.6125   77.4166  222.6694 H   0  0  0  0  0  0  0  0  0  0  0  0
  138.2341   79.1493  222.8647 H   0  0  0  0  0  0  0  0  0  0  0  0
  142.4226   78.2398  222.5403 H   0  0  0  0  0  0  0  0  0  0  0  0
  141.8424   75.8458  222.1943 H   0  0  0  0  0  0  0  0  0  0  0  0
  1  2  2  0
  2  3  1  0
  3  4  1  0
  4  5  1  0
  5  6  2  0
  5  7  1  0
  7  8  1  0
  8  9  1  0
  9 10  1  0
 10 11  1  0
 11 12  1  0
 12 13  1  0
 13 14  1  0
 14 15  1  0
 15 16  1  0
  2 17  1  0
 17 18  2  0
 18 19  1  0
 19 20  2  0
 20 21  1  0
 21 22  2  0
 22 23  1  0
 22 24  1  0
 24 25  2  0
 25 26  1  0
 26 27  2  0
 11  7  1  0
 16 12  1  0
 27 17  1  0
 26 20  1  0
  3 28  1  0
  4 29  1  0
  4 30  1  0
  8 31  1  0
  8 32  1  0
  9 33  1  0
  9 34  1  0
 10 35  1  0
 10 36  1  0
 11 37  1  6
 12 38  1  0
 13 39  1  0
 13 40  1  0
 14 41  1  0
 14 42  1  0
 15 43  1  0
 15 44  1  0
 16 45  1  0
 16 46  1  0
 18 47  1  0
 19 48  1  0
 21 49  1  0
 24 50  1  0
 25 51  1  0
M  END
>  <smiles>  (91) 
O=C(NCC(=O)N1CCCC1C1CCCC1)c1ccc2cc(Cl)ccc2n1

>  <score_type>  (91) 
oracle

>  <origin>  (91) 
autodockgpu

>  <m_score__min__energy>  (91) 
-8.9199999999999999

>  <m_primary>  (91) 
energy

>  <rmsd>  (91) 
7.3620945868587135

>  <m_score__min__rmsd>  (91) 
7.3620945868587135

>  <meeko>  (91) 
{"free_energy": -7.92, "intermolecular_energy": -9.41, "internal_energy": -1.63, "cluster_size": 5, "cluster_id": 5, "rank_in_cluster": 4}

>  <energy>  (91) 
-7.95

>  <cluster_rmsd>  (91) 
0.13

>  <cluster>  (91) 
5

$$$$

     RDKit          3D

 51 54  0  0  0  0  0  0  0  0999 V2000
  137.1550   72.5550  220.9960 O   0  0  0  0  0  0  0  0  0  0  0  0
  137.2640   73.0620  222.1420 C   0  0  0  0  0  0  0  0  0  0  0  0
  136.9550   72.2650  223.2870 N   0  0  0  0  0  0  0  0  0  0  0  0
  136.5270   70.9150  223.1160 C   0  0  0  0  0  0  0  0  0  0  0  0
  137.4390   69.9320  223.7780 C   0  0  0  0  0  0  0  0  0  0  0  0
  136.9060   68.9070  224.2510 O   0  0  0  0  0  0  0  0  0  0  0  0
  138.8230   70.2250  223.8230 N   0  0  0  0  0  0  0  0  0  0  0  0
  139.6360   70.7760  222.7110 C   0  0  0  0  0  0  0  0  0  0  0  0
  140.3920   71.8540  223.4750 C   0  0  0  0  0  0  0  0  0  0  0  0
  140.3190   71.4840  224.9560 C   0  0  0  0  0  0  0  0  0  0  0  0
  139.7860   70.0950  224.8920 C   0  0  1  0  0  0  0  0  0  0  0  0
  139.3650   69.4440  226.1280 C   0  0  0  0  0  0  0  0  0  0  0  0
  139.6210   67.9570  226.0390 C   0  0  0  0  0  0  0  0  0  0  0  0
  140.8400   67.7680  226.9130 C   0  0  0  0  0  0  0  0  0  0  0  0
  140.5490   68.6830  228.0800 C   0  0  0  0  0  0  0  0  0  0  0  0
  140.1070   69.9390  227.3460 C   0  0  0  0  0  0  0  0  0  0  0  0
  137.7010   74.4420  222.3200 C   0  0  0  0  0  0  0  0  0  0  0  0
  136.7460   75.4160  222.5610 C   0  0  0  0  0  0  0  0  0  0  0  0
  137.1610   76.7070  222.7260 C   0  0  0  0  0  0  0  0  0  0  0  0
  138.4920   77.0500  222.6600 C   0  0  0  0  0  0  0  0  0  0  0  0
  138.9010   78.3520  222.8280 C   0  0  0  0  0  0  0  0  0  0  0  0
  140.2390   78.7260  222.7650 C   0  0  0  0  0  0  0  0  0  0  0  0
  140.7340   80.3910  222.9820 Cl  0  0  0  0  0  0  0  0  0  0  0  0
  141.1760   77.7220  222.5210 C   0  0  0  0  0  0  0  0  0  0  0  0
  140.7600   76.4010  222.3500 C   0  0  0  0  0  0  0  0  0  0  0  0
  139.4300   76.0670  222.4190 C   0  0  0  0  0  0  0  0  0  0  0  0
  138.9920   74.8050  222.2590 N   0  0  0  0  0  0  0  0  0  0  0  0
  137.0590   72.7250  224.2290 H   0  0  0  0  0  0  0  0  0  0  0  0
  135.5209   70.8075  223.5475 H   0  0  0  0  0  0  0  0  0  0  0  0
  136.5323   70.6989  222.0374 H   0  0  0  0  0  0  0  0  0  0  0  0
  140.3136   70.0223  222.2834 H   0  0  0  0  0  0  0  0  0  0  0  0
  139.0653   71.1282  221.8390 H   0  0  0  0  0  0  0  0  0  0  0  0
  141.4407   71.8865  223.1447 H   0  0  0  0  0  0  0  0  0  0  0  0
  139.9514   72.8457  223.2952 H   0  0  0  0  0  0  0  0  0  0  0  0
  141.3132   71.5111  225.4259 H   0  0  0  0  0  0  0  0  0  0  0  0
  139.7069   72.1707  225.5590 H   0  0  0  0  0  0  0  0  0  0  0  0
  140.5647   69.3432  224.6962 H   0  0  0  0  0  0  0  0  0  0  0  0
  138.2964   69.6800  226.2397 H   0  0  0  0  0  0  0  0  0  0  0  0
  138.7649   67.3847  226.4257 H   0  0  0  0  0  0  0  0  0  0  0  0
  139.7685   67.6038  225.0077 H   0  0  0  0  0  0  0  0  0  0  0  0
  140.9357   66.7226  227.2415 H   0  0  0  0  0  0  0  0  0  0  0  0
  141.7867   67.9963  226.4015 H   0  0  0  0  0  0  0  0  0  0  0  0
  139.7479   68.2833  228.7191 H   0  0  0  0  0  0  0  0  0  0  0  0
  141.3939   68.8289  228.7691 H   0  0  0  0  0  0  0  0  0  0  0  0
  139.4444   70.5446  227.9818 H   0  0  0  0  0  0  0  0  0  0  0  0
  140.9596   70.5796  227.0763 H   0  0  0  0  0  0  0  0  0  0  0  0
  135.6787   75.1560  222.6182 H   0  0  0  0  0  0  0  0  0  0  0  0
  136.4133   77.4911  222.9162 H   0  0  0  0  0  0  0  0  0  0  0  0
  138.1426   79.1255  223.0191 H   0  0  0  0  0  0  0  0  0  0  0  0
  142.2456   77.9722  222.4632 H   0  0  0  0  0  0  0  0  0  0  0  0
  141.5073   75.6171  222.1574 H   0  0  0  0  0  0  0  0  0  0  0  0
  1  2  2  0
  2  3  1  0
  3  4  1  0
  4  5  1  0
  5  6  2  0
  5  7  1  0
  7  8  1  0
  8  9  1  0
  9 10  1  0
 10 11  1  0
 11 12  1  0
 12 13  1  0
 13 14  1  0
 14 15  1  0
 15 16  1  0
  2 17  1  0
 17 18  2  0
 18 19  1  0
 19 20  2  0
 20 21  1  0
 21 22  2  0
 22 23  1  0
 22 24  1  0
 24 25  2  0
 25 26  1  0
 26 27  2  0
 11  7  1  0
 16 12  1  0
 27 17  1  0
 26 20  1  0
  3 28  1  0
  4 29  1  0
  4 30  1  0
  8 31  1  0
  8 32  1  0
  9 33  1  0
  9 34  1  0
 10 35  1  0
 10 36  1  0
 11 37  1  6
 12 38  1  0
 13 39  1  0
 13 40  1  0
 14 41  1  0
 14 42  1  0
 15 43  1  0
 15 44  1  0
 16 45  1  0
 16 46  1  0
 18 47  1  0
 19 48  1  0
 21 49  1  0
 24 50  1  0
 25 51  1  0
M  END
>  <smiles>  (92) 
O=C(NCC(=O)N1CCCC1C1CCCC1)c1ccc2cc(Cl)ccc2n1

>  <score_type>  (92) 
oracle

>  <origin>  (92) 
autodockgpu

>  <m_score__min__energy>  (92) 
-8.9199999999999999

>  <m_primary>  (92) 
energy

>  <rmsd>  (92) 
7.34429375933906

>  <m_score__min__rmsd>  (92) 
7.34429375933906

>  <meeko>  (92) 
{"free_energy": -7.77, "intermolecular_energy": -9.26, "internal_energy": -1.68, "cluster_size": 5, "cluster_id": 5, "rank_in_cluster": 5}

>  <energy>  (92) 
-7.93

>  <cluster_rmsd>  (92) 
0.12

>  <cluster>  (92) 
5

$$$$

     RDKit          3D

 51 54  0  0  0  0  0  0  0  0999 V2000
  135.0510   68.3300  224.6550 O   0  0  0  0  0  0  0  0  0  0  0  0
  135.4540   69.4870  224.3750 C   0  0  0  0  0  0  0  0  0  0  0  0
  136.5100   69.6440  223.4250 N   0  0  0  0  0  0  0  0  0  0  0  0
  137.0890   68.4930  222.8120 C   0  0  0  0  0  0  0  0  0  0  0  0
  138.4730   68.2120  223.3030 C   0  0  0  0  0  0  0  0  0  0  0  0
  138.8260   67.0150  223.3240 O   0  0  0  0  0  0  0  0  0  0  0  0
  139.2780   69.3060  223.7050 N   0  0  0  0  0  0  0  0  0  0  0  0
  139.9390   70.2800  222.8040 C   0  0  0  0  0  0  0  0  0  0  0  0
  139.5670   71.5680  223.5260 C   0  0  0  0  0  0  0  0  0  0  0  0
  139.1960   71.1840  224.9570 C   0  0  0  0  0  0  0  0  0  0  0  0
  139.6600   69.7700  225.0180 C   0  0  1  0  0  0  0  0  0  0  0  0
  139.2950   68.9580  226.1740 C   0  0  0  0  0  0  0  0  0  0  0  0
  140.0620   67.6560  226.1500 C   0  0  0  0  0  0  0  0  0  0  0  0
  141.1110   67.8580  227.2210 C   0  0  0  0  0  0  0  0  0  0  0  0
  140.3320   68.5620  228.3090 C   0  0  0  0  0  0  0  0  0  0  0  0
  139.6090   69.6210  227.4930 C   0  0  0  0  0  0  0  0  0  0  0  0
  134.8640   70.6660  225.0000 C   0  0  0  0  0  0  0  0  0  0  0  0
  133.8940   70.4880  225.9720 C   0  0  0  0  0  0  0  0  0  0  0  0
  133.3450   71.5950  226.5550 C   0  0  0  0  0  0  0  0  0  0  0  0
  133.7350   72.8650  226.1960 C   0  0  0  0  0  0  0  0  0  0  0  0
  133.1770   73.9740  226.7870 C   0  0  0  0  0  0  0  0  0  0  0  0
  133.5520   75.2690  226.4440 C   0  0  0  0  0  0  0  0  0  0  0  0
  132.8260   76.6650  227.2110 Cl  0  0  0  0  0  0  0  0  0  0  0  0
  134.5320   75.4150  225.4600 C   0  0  0  0  0  0  0  0  0  0  0  0
  135.0970   74.2880  224.8610 C   0  0  0  0  0  0  0  0  0  0  0  0
  134.7030   73.0240  225.2260 C   0  0  0  0  0  0  0  0  0  0  0  0
  135.2250   71.9160  224.6700 N   0  0  0  0  0  0  0  0  0  0  0  0
  136.8200   70.6290  223.2170 H   0  0  0  0  0  0  0  0  0  0  0  0
  136.4545   67.6214  223.0303 H   0  0  0  0  0  0  0  0  0  0  0  0
  137.1534   68.6891  221.7315 H   0  0  0  0  0  0  0  0  0  0  0  0
  141.0280   70.1303  222.7634 H   0  0  0  0  0  0  0  0  0  0  0  0
  139.6360   70.2267  221.7479 H   0  0  0  0  0  0  0  0  0  0  0  0
  140.4221   72.2599  223.5298 H   0  0  0  0  0  0  0  0  0  0  0  0
  138.7282   72.0723  223.0239 H   0  0  0  0  0  0  0  0  0  0  0  0
  139.7235   71.8115  225.6905 H   0  0  0  0  0  0  0  0  0  0  0  0
  138.1298   71.3155  225.1933 H   0  0  0  0  0  0  0  0  0  0  0  0
  140.7366   69.6768  225.2238 H   0  0  0  0  0  0  0  0  0  0  0  0
  138.2080   68.8068  226.1000 H   0  0  0  0  0  0  0  0  0  0  0  0
  139.4067   66.8068  226.3938 H   0  0  0  0  0  0  0  0  0  0  0  0
  140.4895   67.4233  225.1635 H   0  0  0  0  0  0  0  0  0  0  0  0
  141.5086   66.8955  227.5753 H   0  0  0  0  0  0  0  0  0  0  0  0
  141.9901   68.4214  226.8748 H   0  0  0  0  0  0  0  0  0  0  0  0
  139.6259   67.8817  228.8077 H   0  0  0  0  0  0  0  0  0  0  0  0
  140.9478   68.9579  229.1300 H   0  0  0  0  0  0  0  0  0  0  0  0
  138.6829   69.9319  227.9986 H   0  0  0  0  0  0  0  0  0  0  0  0
  140.2188   70.5272  227.3628 H   0  0  0  0  0  0  0  0  0  0  0  0
  133.5728   69.4784  226.2680 H   0  0  0  0  0  0  0  0  0  0  0  0
  132.5737   71.4682  227.3290 H   0  0  0  0  0  0  0  0  0  0  0  0
  132.4063   73.8321  227.5589 H   0  0  0  0  0  0  0  0  0  0  0  0
  134.8594   76.4203  225.1563 H   0  0  0  0  0  0  0  0  0  0  0  0
  135.8679   74.4139  224.0865 H   0  0  0  0  0  0  0  0  0  0  0  0
  1  2  2  0
  2  3  1  0
  3  4  1  0
  4  5  1  0
  5  6  2  0
  5  7  1  0
  7  8  1  0
  8  9  1  0
  9 10  1  0
 10 11  1  0
 11 12  1  0
 12 13  1  0
 13 14  1  0
 14 15  1  0
 15 16  1  0
  2 17  1  0
 17 18  2  0
 18 19  1  0
 19 20  2  0
 20 21  1  0
 21 22  2  0
 22 23  1  0
 22 24  1  0
 24 25  2  0
 25 26  1  0
 26 27  2  0
 11  7  1  0
 16 12  1  0
 27 17  1  0
 26 20  1  0
  3 28  1  0
  4 29  1  0
  4 30  1  0
  8 31  1  0
  8 32  1  0
  9 33  1  0
  9 34  1  0
 10 35  1  0
 10 36  1  0
 11 37  1  6
 12 38  1  0
 13 39  1  0
 13 40  1  0
 14 41  1  0
 14 42  1  0
 15 43  1  0
 15 44  1  0
 16 45  1  0
 16 46  1  0
 18 47  1  0
 19 48  1  0
 21 49  1  0
 24 50  1  0
 25 51  1  0
M  END
>  <smiles>  (93) 
O=C(NCC(=O)N1CCCC1C1CCCC1)c1ccc2cc(Cl)ccc2n1

>  <score_type>  (93) 
oracle

>  <origin>  (93) 
autodockgpu

>  <m_score__min__energy>  (93) 
-8.9199999999999999

>  <m_primary>  (93) 
energy

>  <rmsd>  (93) 
7.273180519122115

>  <m_score__min__rmsd>  (93) 
7.273180519122115

>  <meeko>  (93) 
{"free_energy": -7.39, "intermolecular_energy": -8.89, "internal_energy": -2.09, "cluster_size": 3, "cluster_id": 3, "rank_in_cluster": 2}

>  <energy>  (93) 
-7.92

>  <cluster_rmsd>  (93) 
0.08

>  <cluster>  (93) 
5

$$$$

     RDKit          3D

 51 54  0  0  0  0  0  0  0  0999 V2000
  136.5950   77.6390  222.9820 O   0  0  0  0  0  0  0  0  0  0  0  0
  136.8700   76.4320  223.2020 C   0  0  0  0  0  0  0  0  0  0  0  0
  138.1280   75.9150  222.7640 N   0  0  0  0  0  0  0  0  0  0  0  0
  139.0480   76.7680  222.0850 C   0  0  0  0  0  0  0  0  0  0  0  0
  140.3250   76.0770  221.7310 C   0  0  0  0  0  0  0  0  0  0  0  0
  140.4080   74.8680  222.0330 O   0  0  0  0  0  0  0  0  0  0  0  0
  141.3390   76.8270  221.0880 N   0  0  0  0  0  0  0  0  0  0  0  0
  142.2780   76.3200  220.0580 C   0  0  0  0  0  0  0  0  0  0  0  0
  142.1770   77.4620  219.0560 C   0  0  0  0  0  0  0  0  0  0  0  0
  141.6240   78.6700  219.8120 C   0  0  0  0  0  0  0  0  0  0  0  0
  141.7270   78.2110  221.2250 C   0  0  1  0  0  0  0  0  0  0  0  0
  141.0950   79.0070  222.2720 C   0  0  0  0  0  0  0  0  0  0  0  0
  141.8460   78.8360  223.5720 C   0  0  0  0  0  0  0  0  0  0  0  0
  142.6070   80.1360  223.7010 C   0  0  0  0  0  0  0  0  0  0  0  0
  141.5890   81.1550  223.2400 C   0  0  0  0  0  0  0  0  0  0  0  0
  141.0830   80.4870  221.9720 C   0  0  0  0  0  0  0  0  0  0  0  0
  135.9320   75.5560  223.8960 C   0  0  0  0  0  0  0  0  0  0  0  0
  135.8290   74.2360  223.4900 C   0  0  0  0  0  0  0  0  0  0  0  0
  134.9490   73.4210  224.1430 C   0  0  0  0  0  0  0  0  0  0  0  0
  134.1750   73.8830  225.1830 C   0  0  0  0  0  0  0  0  0  0  0  0
  133.2920   73.0550  225.8350 C   0  0  0  0  0  0  0  0  0  0  0  0
  132.4970   73.4970  226.8890 C   0  0  0  0  0  0  0  0  0  0  0  0
  131.3790   72.4230  227.7020 Cl  0  0  0  0  0  0  0  0  0  0  0  0
  132.6240   74.8320  227.2740 C   0  0  0  0  0  0  0  0  0  0  0  0
  133.5210   75.6710  226.6110 C   0  0  0  0  0  0  0  0  0  0  0  0
  134.2900   75.2010  225.5740 C   0  0  0  0  0  0  0  0  0  0  0  0
  135.1640   75.9800  224.9130 N   0  0  0  0  0  0  0  0  0  0  0  0
  138.3220   74.9000  222.9670 H   0  0  0  0  0  0  0  0  0  0  0  0
  138.5754   77.1289  221.1596 H   0  0  0  0  0  0  0  0  0  0  0  0
  139.2968   77.5956  222.7656 H   0  0  0  0  0  0  0  0  0  0  0  0
  143.2989   76.2063  220.4515 H   0  0  0  0  0  0  0  0  0  0  0  0
  142.0469   75.3210  219.6597 H   0  0  0  0  0  0  0  0  0  0  0  0
  143.1711   77.6948  218.6467 H   0  0  0  0  0  0  0  0  0  0  0  0
  141.5217   77.1906  218.2152 H   0  0  0  0  0  0  0  0  0  0  0  0
  142.2347   79.5678  219.6360 H   0  0  0  0  0  0  0  0  0  0  0  0
  140.6075   78.9610  219.5087 H   0  0  0  0  0  0  0  0  0  0  0  0
  142.7322   78.3477  221.6503 H   0  0  0  0  0  0  0  0  0  0  0  0
  140.0580   78.6456  222.3348 H   0  0  0  0  0  0  0  0  0  0  0  0
  141.1517   78.6994  224.4142 H   0  0  0  0  0  0  0  0  0  0  0  0
  142.4980   77.9501  223.5818 H   0  0  0  0  0  0  0  0  0  0  0  0
  142.9092   80.3186  224.7428 H   0  0  0  0  0  0  0  0  0  0  0  0
  143.5427   80.1569  223.1231 H   0  0  0  0  0  0  0  0  0  0  0  0
  140.7842   81.2876  223.9781 H   0  0  0  0  0  0  0  0  0  0  0  0
  141.9890   82.1694  223.0954 H   0  0  0  0  0  0  0  0  0  0  0  0
  140.0625   80.8250  221.7389 H   0  0  0  0  0  0  0  0  0  0  0  0
  141.7062   80.7347  221.1001 H   0  0  0  0  0  0  0  0  0  0  0  0
  136.4418   73.8529  222.6607 H   0  0  0  0  0  0  0  0  0  0  0  0
  134.8566   72.3704  223.8304 H   0  0  0  0  0  0  0  0  0  0  0  0
  133.2108   72.0065  225.5125 H   0  0  0  0  0  0  0  0  0  0  0  0
  132.0156   75.2243  228.1022 H   0  0  0  0  0  0  0  0  0  0  0  0
  133.6134   76.7219  226.9227 H   0  0  0  0  0  0  0  0  0  0  0  0
  1  2  2  0
  2  3  1  0
  3  4  1  0
  4  5  1  0
  5  6  2  0
  5  7  1  0
  7  8  1  0
  8  9  1  0
  9 10  1  0
 10 11  1  0
 11 12  1  0
 12 13  1  0
 13 14  1  0
 14 15  1  0
 15 16  1  0
  2 17  1  0
 17 18  2  0
 18 19  1  0
 19 20  2  0
 20 21  1  0
 21 22  2  0
 22 23  1  0
 22 24  1  0
 24 25  2  0
 25 26  1  0
 26 27  2  0
 11  7  1  0
 16 12  1  0
 27 17  1  0
 26 20  1  0
  3 28  1  0
  4 29  1  0
  4 30  1  0
  8 31  1  0
  8 32  1  0
  9 33  1  0
  9 34  1  0
 10 35  1  0
 10 36  1  0
 11 37  1  1
 12 38  1  0
 13 39  1  0
 13 40  1  0
 14 41  1  0
 14 42  1  0
 15 43  1  0
 15 44  1  0
 16 45  1  0
 16 46  1  0
 18 47  1  0
 19 48  1  0
 21 49  1  0
 24 50  1  0
 25 51  1  0
M  END
>  <smiles>  (94) 
O=C(NCC(=O)N1CCCC1C1CCCC1)c1ccc2cc(Cl)ccc2n1

>  <score_type>  (94) 
oracle

>  <origin>  (94) 
autodockgpu

>  <m_score__min__energy>  (94) 
-8.9199999999999999

>  <m_primary>  (94) 
energy

>  <rmsd>  (94) 
5.667781638331085

>  <m_score__min__rmsd>  (94) 
5.667781638331085

>  <meeko>  (94) 
{"free_energy": -7.89, "intermolecular_energy": -9.38, "internal_energy": -1.6, "cluster_size": 5, "cluster_id": 6, "rank_in_cluster": 2}

>  <energy>  (94) 
-7.77

>  <cluster_rmsd>  (94) 
0.37

>  <cluster>  (94) 
5

$$$$

     RDKit          3D

 51 54  0  0  0  0  0  0  0  0999 V2000
  136.4480   77.6220  222.9410 O   0  0  0  0  0  0  0  0  0  0  0  0
  136.7750   76.4390  223.2130 C   0  0  0  0  0  0  0  0  0  0  0  0
  138.0800   75.9780  222.8560 N   0  0  0  0  0  0  0  0  0  0  0  0
  138.9880   76.8610  222.1990 C   0  0  0  0  0  0  0  0  0  0  0  0
  140.2520   76.1830  221.7790 C   0  0  0  0  0  0  0  0  0  0  0  0
  140.3210   74.9530  221.9850 O   0  0  0  0  0  0  0  0  0  0  0  0
  141.2700   76.9670  221.1860 N   0  0  0  0  0  0  0  0  0  0  0  0
  142.0320   76.6260  219.9600 C   0  0  0  0  0  0  0  0  0  0  0  0
  141.9540   77.9690  219.2460 C   0  0  0  0  0  0  0  0  0  0  0  0
  141.6240   79.0180  220.3060 C   0  0  0  0  0  0  0  0  0  0  0  0
  141.8240   78.2470  221.5640 C   0  0  1  0  0  0  0  0  0  0  0  0
  141.4010   78.8380  222.8290 C   0  0  0  0  0  0  0  0  0  0  0  0
  142.5580   79.5740  223.4650 C   0  0  0  0  0  0  0  0  0  0  0  0
  142.2170   81.0260  223.2170 C   0  0  0  0  0  0  0  0  0  0  0  0
  140.7270   81.0570  223.4710 C   0  0  0  0  0  0  0  0  0  0  0  0
  140.2830   79.8410  222.6740 C   0  0  0  0  0  0  0  0  0  0  0  0
  135.8490   75.5330  223.8840 C   0  0  0  0  0  0  0  0  0  0  0  0
  135.7930   74.2120  223.4720 C   0  0  0  0  0  0  0  0  0  0  0  0
  134.9250   73.3690  224.1040 C   0  0  0  0  0  0  0  0  0  0  0  0
  134.1160   73.8050  225.1300 C   0  0  0  0  0  0  0  0  0  0  0  0
  133.2450   72.9490  225.7620 C   0  0  0  0  0  0  0  0  0  0  0  0
  132.4170   73.3620  226.8010 C   0  0  0  0  0  0  0  0  0  0  0  0
  131.3150   72.2530  227.5880 Cl  0  0  0  0  0  0  0  0  0  0  0  0
  132.4970   74.6990  227.1920 C   0  0  0  0  0  0  0  0  0  0  0  0
  133.3820   75.5670  226.5510 C   0  0  0  0  0  0  0  0  0  0  0  0
  134.1850   75.1240  225.5280 C   0  0  0  0  0  0  0  0  0  0  0  0
  135.0490   75.9310  224.8870 N   0  0  0  0  0  0  0  0  0  0  0  0
  138.3160   74.9820  223.1010 H   0  0  0  0  0  0  0  0  0  0  0  0
  138.4951   77.2710  221.3051 H   0  0  0  0  0  0  0  0  0  0  0  0
  139.2578   77.6518  222.9145 H   0  0  0  0  0  0  0  0  0  0  0  0
  143.0696   76.3394  220.1862 H   0  0  0  0  0  0  0  0  0  0  0  0
  141.6497   75.7659  219.3907 H   0  0  0  0  0  0  0  0  0  0  0  0
  142.9188   78.2015  218.7715 H   0  0  0  0  0  0  0  0  0  0  0  0
  141.1867   77.9514  218.4580 H   0  0  0  0  0  0  0  0  0  0  0  0
  142.3095   79.8763  220.2482 H   0  0  0  0  0  0  0  0  0  0  0  0
  140.6199   79.4556  220.2046 H   0  0  0  0  0  0  0  0  0  0  0  0
  142.8776   78.1986  221.8763 H   0  0  0  0  0  0  0  0  0  0  0  0
  141.0469   77.9992  223.4462 H   0  0  0  0  0  0  0  0  0  0  0  0
  142.6176   79.3606  224.5425 H   0  0  0  0  0  0  0  0  0  0  0  0
  143.5354   79.2824  223.0531 H   0  0  0  0  0  0  0  0  0  0  0  0
  142.7535   81.6857  223.9148 H   0  0  0  0  0  0  0  0  0  0  0  0
  142.4995   81.3789  222.2142 H   0  0  0  0  0  0  0  0  0  0  0  0
  140.4953   80.9478  224.5408 H   0  0  0  0  0  0  0  0  0  0  0  0
  140.2333   81.9973  223.1845 H   0  0  0  0  0  0  0  0  0  0  0  0
  139.3431   79.4368  223.0780 H   0  0  0  0  0  0  0  0  0  0  0  0
  140.0940   80.0870  221.6186 H   0  0  0  0  0  0  0  0  0  0  0  0
  136.4334   73.8503  222.6541 H   0  0  0  0  0  0  0  0  0  0  0  0
  134.8704   72.3172  223.7866 H   0  0  0  0  0  0  0  0  0  0  0  0
  133.2013   71.8999  225.4343 H   0  0  0  0  0  0  0  0  0  0  0  0
  131.8602   75.0702  228.0085 H   0  0  0  0  0  0  0  0  0  0  0  0
  133.4373   76.6187  226.8687 H   0  0  0  0  0  0  0  0  0  0  0  0
  1  2  2  0
  2  3  1  0
  3  4  1  0
  4  5  1  0
  5  6  2  0
  5  7  1  0
  7  8  1  0
  8  9  1  0
  9 10  1  0
 10 11  1  0
 11 12  1  0
 12 13  1  0
 13 14  1  0
 14 15  1  0
 15 16  1  0
  2 17  1  0
 17 18  2  0
 18 19  1  0
 19 20  2  0
 20 21  1  0
 21 22  2  0
 22 23  1  0
 22 24  1  0
 24 25  2  0
 25 26  1  0
 26 27  2  0
 11  7  1  0
 16 12  1  0
 27 17  1  0
 26 20  1  0
  3 28  1  0
  4 29  1  0
  4 30  1  0
  8 31  1  0
  8 32  1  0
  9 33  1  0
  9 34  1  0
 10 35  1  0
 10 36  1  0
 11 37  1  1
 12 38  1  0
 13 39  1  0
 13 40  1  0
 14 41  1  0
 14 42  1  0
 15 43  1  0
 15 44  1  0
 16 45  1  0
 16 46  1  0
 18 47  1  0
 19 48  1  0
 21 49  1  0
 24 50  1  0
 25 51  1  0
M  END
>  <smiles>  (95) 
O=C(NCC(=O)N1CCCC1C1CCCC1)c1ccc2cc(Cl)ccc2n1

>  <score_type>  (95) 
oracle

>  <origin>  (95) 
autodockgpu

>  <m_score__min__energy>  (95) 
-8.9199999999999999

>  <m_primary>  (95) 
energy

>  <rmsd>  (95) 
5.721008101349727

>  <m_score__min__rmsd>  (95) 
5.721008101349727

>  <meeko>  (95) 
{"free_energy": -7.76, "intermolecular_energy": -9.25, "internal_energy": -1.66, "cluster_size": 5, "cluster_id": 6, "rank_in_cluster": 3}

>  <energy>  (95) 
-7.93

>  <cluster_rmsd>  (95) 
0.0

>  <cluster>  (95) 
6

$$$$

     RDKit          3D

 51 54  0  0  0  0  0  0  0  0999 V2000
  134.3030   70.6350  224.9240 O   0  0  0  0  0  0  0  0  0  0  0  0
  134.6930   71.8250  225.0400 C   0  0  0  0  0  0  0  0  0  0  0  0
  135.9160   72.2200  224.4170 N   0  0  0  0  0  0  0  0  0  0  0  0
  136.6760   71.2650  223.6770 C   0  0  0  0  0  0  0  0  0  0  0  0
  137.4570   70.3420  224.5550 C   0  0  0  0  0  0  0  0  0  0  0  0
  136.7980   69.5650  225.2760 O   0  0  0  0  0  0  0  0  0  0  0  0
  138.8710   70.4110  224.5130 N   0  0  0  0  0  0  0  0  0  0  0  0
  139.6840   70.9990  223.4210 C   0  0  0  0  0  0  0  0  0  0  0  0
  140.6580   71.8170  224.2570 C   0  0  0  0  0  0  0  0  0  0  0  0
  140.6280   71.2350  225.6700 C   0  0  0  0  0  0  0  0  0  0  0  0
  139.8710   69.9700  225.4580 C   0  0  1  0  0  0  0  0  0  0  0  0
  139.4360   69.2060  226.6210 C   0  0  0  0  0  0  0  0  0  0  0  0
  139.9420   67.7850  226.5210 C   0  0  0  0  0  0  0  0  0  0  0  0
  141.0770   67.7550  227.5190 C   0  0  0  0  0  0  0  0  0  0  0  0
  140.5170   68.5590  228.6720 C   0  0  0  0  0  0  0  0  0  0  0  0
  139.9540   69.7580  227.9270 C   0  0  0  0  0  0  0  0  0  0  0  0
  133.9190   72.8040  225.7960 C   0  0  0  0  0  0  0  0  0  0  0  0
  132.8060   72.3720  226.4980 C   0  0  0  0  0  0  0  0  0  0  0  0
  132.0850   73.2930  227.2040 C   0  0  0  0  0  0  0  0  0  0  0  0
  132.4430   74.6220  227.2290 C   0  0  0  0  0  0  0  0  0  0  0  0
  131.7110   75.5430  227.9430 C   0  0  0  0  0  0  0  0  0  0  0  0
  132.0500   76.8910  227.9850 C   0  0  0  0  0  0  0  0  0  0  0  0
  131.1020   78.0430  228.9010 Cl  0  0  0  0  0  0  0  0  0  0  0  0
  133.1760   77.2940  227.2670 C   0  0  0  0  0  0  0  0  0  0  0  0
  133.9180   76.3590  226.5430 C   0  0  0  0  0  0  0  0  0  0  0  0
  133.5540   75.0340  226.5240 C   0  0  0  0  0  0  0  0  0  0  0  0
  134.2440   74.1060  225.8380 N   0  0  0  0  0  0  0  0  0  0  0  0
  136.2090   73.2240  224.5370 H   0  0  0  0  0  0  0  0  0  0  0  0
  135.9867   70.6668  223.0629 H   0  0  0  0  0  0  0  0  0  0  0  0
  137.3952   71.8214  223.0580 H   0  0  0  0  0  0  0  0  0  0  0  0
  140.1973   70.2273  222.8285 H   0  0  0  0  0  0  0  0  0  0  0  0
  139.1196   71.5657  222.6659 H   0  0  0  0  0  0  0  0  0  0  0  0
  141.6723   71.7412  223.8381 H   0  0  0  0  0  0  0  0  0  0  0  0
  140.3753   72.8800  224.2630 H   0  0  0  0  0  0  0  0  0  0  0  0
  141.6434   71.0371  226.0440 H   0  0  0  0  0  0  0  0  0  0  0  0
  140.1800   71.9039  226.4196 H   0  0  0  0  0  0  0  0  0  0  0  0
  140.4997   69.1480  225.0851 H   0  0  0  0  0  0  0  0  0  0  0  0
  138.3375   69.2626  226.6195 H   0  0  0  0  0  0  0  0  0  0  0  0
  139.1561   67.0657  226.7948 H   0  0  0  0  0  0  0  0  0  0  0  0
  140.2533   67.5072  225.5032 H   0  0  0  0  0  0  0  0  0  0  0  0
  141.3085   66.7248  227.8275 H   0  0  0  0  0  0  0  0  0  0  0  0
  142.0218   68.1548  227.1223 H   0  0  0  0  0  0  0  0  0  0  0  0
  139.7300   68.0074  229.2071 H   0  0  0  0  0  0  0  0  0  0  0  0
  141.2486   68.8082  229.4547 H   0  0  0  0  0  0  0  0  0  0  0  0
  139.1375   70.2201  228.5012 H   0  0  0  0  0  0  0  0  0  0  0  0
  140.7135   70.5382  227.7708 H   0  0  0  0  0  0  0  0  0  0  0  0
  132.5096   71.3127  226.4874 H   0  0  0  0  0  0  0  0  0  0  0  0
  131.1978   72.9650  227.7655 H   0  0  0  0  0  0  0  0  0  0  0  0
  130.8265   75.2008  228.5002 H   0  0  0  0  0  0  0  0  0  0  0  0
  133.4800   78.3511  227.2713 H   0  0  0  0  0  0  0  0  0  0  0  0
  134.8048   76.6869  225.9809 H   0  0  0  0  0  0  0  0  0  0  0  0
  1  2  2  0
  2  3  1  0
  3  4  1  0
  4  5  1  0
  5  6  2  0
  5  7  1  0
  7  8  1  0
  8  9  1  0
  9 10  1  0
 10 11  1  0
 11 12  1  0
 12 13  1  0
 13 14  1  0
 14 15  1  0
 15 16  1  0
  2 17  1  0
 17 18  2  0
 18 19  1  0
 19 20  2  0
 20 21  1  0
 21 22  2  0
 22 23  1  0
 22 24  1  0
 24 25  2  0
 25 26  1  0
 26 27  2  0
 11  7  1  0
 16 12  1  0
 27 17  1  0
 26 20  1  0
  3 28  1  0
  4 29  1  0
  4 30  1  0
  8 31  1  0
  8 32  1  0
  9 33  1  0
  9 34  1  0
 10 35  1  0
 10 36  1  0
 11 37  1  6
 12 38  1  0
 13 39  1  0
 13 40  1  0
 14 41  1  0
 14 42  1  0
 15 43  1  0
 15 44  1  0
 16 45  1  0
 16 46  1  0
 18 47  1  0
 19 48  1  0
 21 49  1  0
 24 50  1  0
 25 51  1  0
M  END
>  <smiles>  (96) 
O=C(NCC(=O)N1CCCC1C1CCCC1)c1ccc2cc(Cl)ccc2n1

>  <score_type>  (96) 
oracle

>  <origin>  (96) 
autodockgpu

>  <m_score__min__energy>  (96) 
-8.9199999999999999

>  <m_primary>  (96) 
energy

>  <rmsd>  (96) 
8.046757948976001

>  <m_score__min__rmsd>  (96) 
8.046757948976001

>  <meeko>  (96) 
{"free_energy": -8.22, "intermolecular_energy": -9.71, "internal_energy": -1.48, "cluster_size": 3, "cluster_id": 3, "rank_in_cluster": 1}

>  <energy>  (96) 
-7.89

>  <cluster_rmsd>  (96) 
0.12

>  <cluster>  (96) 
6

$$$$

     RDKit          3D

 51 54  0  0  0  0  0  0  0  0999 V2000
  138.0070   72.5750  220.8730 O   0  0  0  0  0  0  0  0  0  0  0  0
  137.7880   73.1520  221.9680 C   0  0  0  0  0  0  0  0  0  0  0  0
  137.1900   72.4140  223.0350 N   0  0  0  0  0  0  0  0  0  0  0  0
  136.8500   71.0410  222.8450 C   0  0  0  0  0  0  0  0  0  0  0  0
  137.6180   70.1250  223.7420 C   0  0  0  0  0  0  0  0  0  0  0  0
  136.9650   69.2340  224.3230 O   0  0  0  0  0  0  0  0  0  0  0  0
  139.0140   70.3260  223.8710 N   0  0  0  0  0  0  0  0  0  0  0  0
  139.9210   70.8490  222.8210 C   0  0  0  0  0  0  0  0  0  0  0  0
  140.7000   71.8570  223.6540 C   0  0  0  0  0  0  0  0  0  0  0  0
  140.5200   71.4580  225.1180 C   0  0  0  0  0  0  0  0  0  0  0  0
  139.9040   70.1080  224.9870 C   0  0  1  0  0  0  0  0  0  0  0  0
  139.3740   69.4570  226.1800 C   0  0  0  0  0  0  0  0  0  0  0  0
  139.6630   67.9740  226.1280 C   0  0  0  0  0  0  0  0  0  0  0  0
  140.7920   67.8120  227.1200 C   0  0  0  0  0  0  0  0  0  0  0  0
  140.3700   68.7280  228.2460 C   0  0  0  0  0  0  0  0  0  0  0  0
  139.9820   69.9710  227.4620 C   0  0  0  0  0  0  0  0  0  0  0  0
  138.1340   74.5550  222.1670 C   0  0  0  0  0  0  0  0  0  0  0  0
  137.1120   75.4730  222.3440 C   0  0  0  0  0  0  0  0  0  0  0  0
  137.4420   76.7860  222.5300 C   0  0  0  0  0  0  0  0  0  0  0  0
  138.7540   77.2040  222.5430 C   0  0  0  0  0  0  0  0  0  0  0  0
  139.0770   78.5270  222.7310 C   0  0  0  0  0  0  0  0  0  0  0  0
  140.3940   78.9770  222.7490 C   0  0  0  0  0  0  0  0  0  0  0  0
  140.7790   80.6670  222.9890 Cl  0  0  0  0  0  0  0  0  0  0  0  0
  141.4000   78.0270  222.5670 C   0  0  0  0  0  0  0  0  0  0  0  0
  141.0700   76.6840  222.3770 C   0  0  0  0  0  0  0  0  0  0  0  0
  139.7590   76.2750  222.3650 C   0  0  0  0  0  0  0  0  0  0  0  0
  139.4040   74.9910  222.1840 N   0  0  0  0  0  0  0  0  0  0  0  0
  137.0220   72.9320  223.9370 H   0  0  0  0  0  0  0  0  0  0  0  0
  135.7765   70.9134  223.0481 H   0  0  0  0  0  0  0  0  0  0  0  0
  137.1030   70.7776  221.8074 H   0  0  0  0  0  0  0  0  0  0  0  0
  140.5722   70.0632  222.4105 H   0  0  0  0  0  0  0  0  0  0  0  0
  139.4236   71.2582  221.9293 H   0  0  0  0  0  0  0  0  0  0  0  0
  141.7656   71.8286  223.3827 H   0  0  0  0  0  0  0  0  0  0  0  0
  140.3347   72.8794  223.4772 H   0  0  0  0  0  0  0  0  0  0  0  0
  141.4857   71.4094  225.6424 H   0  0  0  0  0  0  0  0  0  0  0  0
  139.9197   72.1687  225.7050 H   0  0  0  0  0  0  0  0  0  0  0  0
  140.6424   69.3113  224.8137 H   0  0  0  0  0  0  0  0  0  0  0  0
  138.2959   69.6755  226.1830 H   0  0  0  0  0  0  0  0  0  0  0  0
  138.7826   67.3888  226.4322 H   0  0  0  0  0  0  0  0  0  0  0  0
  139.9182   67.6174  225.1192 H   0  0  0  0  0  0  0  0  0  0  0  0
  140.8730   66.7703  227.4638 H   0  0  0  0  0  0  0  0  0  0  0  0
  141.7807   68.0548  226.7035 H   0  0  0  0  0  0  0  0  0  0  0  0
  139.5161   68.3175  228.8049 H   0  0  0  0  0  0  0  0  0  0  0  0
  141.1389   68.8929  229.0151 H   0  0  0  0  0  0  0  0  0  0  0  0
  139.2490   70.5683  228.0241 H   0  0  0  0  0  0  0  0  0  0  0  0
  140.8465   70.6246  227.2737 H   0  0  0  0  0  0  0  0  0  0  0  0
  136.0597   75.1527  222.3350 H   0  0  0  0  0  0  0  0  0  0  0  0
  136.6409   77.5262  222.6727 H   0  0  0  0  0  0  0  0  0  0  0  0
  138.2655   79.2561  222.8723 H   0  0  0  0  0  0  0  0  0  0  0  0
  142.4553   78.3372  222.5733 H   0  0  0  0  0  0  0  0  0  0  0  0
  141.8708   75.9433  222.2350 H   0  0  0  0  0  0  0  0  0  0  0  0
  1  2  2  0
  2  3  1  0
  3  4  1  0
  4  5  1  0
  5  6  2  0
  5  7  1  0
  7  8  1  0
  8  9  1  0
  9 10  1  0
 10 11  1  0
 11 12  1  0
 12 13  1  0
 13 14  1  0
 14 15  1  0
 15 16  1  0
  2 17  1  0
 17 18  2  0
 18 19  1  0
 19 20  2  0
 20 21  1  0
 21 22  2  0
 22 23  1  0
 22 24  1  0
 24 25  2  0
 25 26  1  0
 26 27  2  0
 11  7  1  0
 16 12  1  0
 27 17  1  0
 26 20  1  0
  3 28  1  0
  4 29  1  0
  4 30  1  0
  8 31  1  0
  8 32  1  0
  9 33  1  0
  9 34  1  0
 10 35  1  0
 10 36  1  0
 11 37  1  6
 12 38  1  0
 13 39  1  0
 13 40  1  0
 14 41  1  0
 14 42  1  0
 15 43  1  0
 15 44  1  0
 16 45  1  0
 16 46  1  0
 18 47  1  0
 19 48  1  0
 21 49  1  0
 24 50  1  0
 25 51  1  0
M  END
>  <smiles>  (97) 
O=C(NCC(=O)N1CCCC1C1CCCC1)c1ccc2cc(Cl)ccc2n1

>  <score_type>  (97) 
oracle

>  <origin>  (97) 
autodockgpu

>  <m_score__min__energy>  (97) 
-8.9199999999999999

>  <m_primary>  (97) 
energy

>  <rmsd>  (97) 
7.397581130186338

>  <m_score__min__rmsd>  (97) 
7.397581130186338

>  <meeko>  (97) 
{"free_energy": -7.93, "intermolecular_energy": -9.42, "internal_energy": -1.6, "cluster_size": 5, "cluster_id": 5, "rank_in_cluster": 3}

>  <energy>  (97) 
-7.76

>  <cluster_rmsd>  (97) 
0.39

>  <cluster>  (97) 
6

$$$$

     RDKit          3D

 51 54  0  0  0  0  0  0  0  0999 V2000
  135.0690   68.1770  224.5360 O   0  0  0  0  0  0  0  0  0  0  0  0
  135.4230   69.3610  224.3010 C   0  0  0  0  0  0  0  0  0  0  0  0
  136.4820   69.5980  223.3720 N   0  0  0  0  0  0  0  0  0  0  0  0
  137.1200   68.4970  222.7270 C   0  0  0  0  0  0  0  0  0  0  0  0
  138.4680   68.1950  223.2970 C   0  0  0  0  0  0  0  0  0  0  0  0
  138.7830   66.9890  223.3780 O   0  0  0  0  0  0  0  0  0  0  0  0
  139.2840   69.2780  223.7020 N   0  0  0  0  0  0  0  0  0  0  0  0
  139.9510   70.2520  222.8040 C   0  0  0  0  0  0  0  0  0  0  0  0
  139.5930   71.5390  223.5330 C   0  0  0  0  0  0  0  0  0  0  0  0
  139.2240   71.1520  224.9640 C   0  0  0  0  0  0  0  0  0  0  0  0
  139.6740   69.7330  225.0170 C   0  0  1  0  0  0  0  0  0  0  0  0
  139.3060   68.9180  226.1690 C   0  0  0  0  0  0  0  0  0  0  0  0
  140.0830   67.6220  226.1520 C   0  0  0  0  0  0  0  0  0  0  0  0
  141.1210   67.8320  227.2310 C   0  0  0  0  0  0  0  0  0  0  0  0
  140.3290   68.5300  228.3130 C   0  0  0  0  0  0  0  0  0  0  0  0
  139.6040   69.5840  227.4910 C   0  0  0  0  0  0  0  0  0  0  0  0
  134.7740   70.4890  224.9590 C   0  0  0  0  0  0  0  0  0  0  0  0
  133.8320   70.2330  225.9420 C   0  0  0  0  0  0  0  0  0  0  0  0
  133.2260   71.2930  226.5550 C   0  0  0  0  0  0  0  0  0  0  0  0
  133.5340   72.5920  226.2170 C   0  0  0  0  0  0  0  0  0  0  0  0
  132.9200   73.6540  226.8400 C   0  0  0  0  0  0  0  0  0  0  0  0
  133.2110   74.9750  226.5170 C   0  0  0  0  0  0  0  0  0  0  0  0
  132.4150   76.3090  227.3240 Cl  0  0  0  0  0  0  0  0  0  0  0  0
  134.1640   75.1990  225.5230 C   0  0  0  0  0  0  0  0  0  0  0  0
  134.7860   74.1210  224.8920 C   0  0  0  0  0  0  0  0  0  0  0  0
  134.4740   72.8280  225.2360 C   0  0  0  0  0  0  0  0  0  0  0  0
  135.0530   71.7650  224.6500 N   0  0  0  0  0  0  0  0  0  0  0  0
  136.7500   70.6030  223.2030 H   0  0  0  0  0  0  0  0  0  0  0  0
  136.4834   67.6069  222.8390 H   0  0  0  0  0  0  0  0  0  0  0  0
  137.2600   68.7677  221.6700 H   0  0  0  0  0  0  0  0  0  0  0  0
  141.0385   70.0930  222.7593 H   0  0  0  0  0  0  0  0  0  0  0  0
  139.6439   70.2070  221.7487 H   0  0  0  0  0  0  0  0  0  0  0  0
  140.4541   72.2235  223.5366 H   0  0  0  0  0  0  0  0  0  0  0  0
  138.7565   72.0526  223.0364 H   0  0  0  0  0  0  0  0  0  0  0  0
  139.7608   71.7708  225.6981 H   0  0  0  0  0  0  0  0  0  0  0  0
  138.1601   71.2930  225.2051 H   0  0  0  0  0  0  0  0  0  0  0  0
  140.7502   69.6300  225.2201 H   0  0  0  0  0  0  0  0  0  0  0  0
  138.2209   68.7578  226.0854 H   0  0  0  0  0  0  0  0  0  0  0  0
  139.4321   66.7679  226.3907 H   0  0  0  0  0  0  0  0  0  0  0  0
  140.5205   67.3924  225.1692 H   0  0  0  0  0  0  0  0  0  0  0  0
  141.5230   66.8725  227.5884 H   0  0  0  0  0  0  0  0  0  0  0  0
  141.9982   68.4024  226.8915 H   0  0  0  0  0  0  0  0  0  0  0  0
  139.6243   67.8445  228.8065 H   0  0  0  0  0  0  0  0  0  0  0  0
  140.9356   68.9304  229.1386 H   0  0  0  0  0  0  0  0  0  0  0  0
  138.6714   69.8876  227.9890 H   0  0  0  0  0  0  0  0  0  0  0  0
  140.2075   70.4951  227.3659 H   0  0  0  0  0  0  0  0  0  0  0  0
  133.5778   69.2002  226.2225 H   0  0  0  0  0  0  0  0  0  0  0  0
  132.4750   71.1046  227.3363 H   0  0  0  0  0  0  0  0  0  0  0  0
  132.1726   73.4510  227.6211 H   0  0  0  0  0  0  0  0  0  0  0  0
  134.4258   76.2281  225.2359 H   0  0  0  0  0  0  0  0  0  0  0  0
  135.5356   74.3088  224.1092 H   0  0  0  0  0  0  0  0  0  0  0  0
  1  2  2  0
  2  3  1  0
  3  4  1  0
  4  5  1  0
  5  6  2  0
  5  7  1  0
  7  8  1  0
  8  9  1  0
  9 10  1  0
 10 11  1  0
 11 12  1  0
 12 13  1  0
 13 14  1  0
 14 15  1  0
 15 16  1  0
  2 17  1  0
 17 18  2  0
 18 19  1  0
 19 20  2  0
 20 21  1  0
 21 22  2  0
 22 23  1  0
 22 24  1  0
 24 25  2  0
 25 26  1  0
 26 27  2  0
 11  7  1  0
 16 12  1  0
 27 17  1  0
 26 20  1  0
  3 28  1  0
  4 29  1  0
  4 30  1  0
  8 31  1  0
  8 32  1  0
  9 33  1  0
  9 34  1  0
 10 35  1  0
 10 36  1  0
 11 37  1  6
 12 38  1  0
 13 39  1  0
 13 40  1  0
 14 41  1  0
 14 42  1  0
 15 43  1  0
 15 44  1  0
 16 45  1  0
 16 46  1  0
 18 47  1  0
 19 48  1  0
 21 49  1  0
 24 50  1  0
 25 51  1  0
M  END
>  <smiles>  (98) 
O=C(NCC(=O)N1CCCC1C1CCCC1)c1ccc2cc(Cl)ccc2n1

>  <score_type>  (98) 
oracle

>  <origin>  (98) 
autodockgpu

>  <m_score__min__energy>  (98) 
-8.9199999999999999

>  <m_primary>  (98) 
energy

>  <rmsd>  (98) 
7.304469958424965

>  <m_score__min__rmsd>  (98) 
7.304469958424965

>  <meeko>  (98) 
{"free_energy": -7.39, "intermolecular_energy": -8.88, "internal_energy": -2.05, "cluster_size": 3, "cluster_id": 3, "rank_in_cluster": 3}

>  <energy>  (98) 
-7.44

>  <cluster_rmsd>  (98) 
0.74

>  <cluster>  (98) 
6

$$$$

     RDKit          3D

 51 54  0  0  0  0  0  0  0  0999 V2000
  138.1020   72.4200  220.9230 O   0  0  0  0  0  0  0  0  0  0  0  0
  137.8370   73.0150  221.9990 C   0  0  0  0  0  0  0  0  0  0  0  0
  137.2020   72.2910  223.0540 N   0  0  0  0  0  0  0  0  0  0  0  0
  136.8790   70.9120  222.8750 C   0  0  0  0  0  0  0  0  0  0  0  0
  137.6670   70.0130  223.7720 C   0  0  0  0  0  0  0  0  0  0  0  0
  137.0370   69.0920  224.3320 O   0  0  0  0  0  0  0  0  0  0  0  0
  139.0520   70.2630  223.9260 N   0  0  0  0  0  0  0  0  0  0  0  0
  139.9600   70.8120  222.8900 C   0  0  0  0  0  0  0  0  0  0  0  0
  140.6890   71.8500  223.7330 C   0  0  0  0  0  0  0  0  0  0  0  0
  140.4960   71.4510  225.1950 C   0  0  0  0  0  0  0  0  0  0  0  0
  139.9290   70.0800  225.0600 C   0  0  1  0  0  0  0  0  0  0  0  0
  139.3990   69.4170  226.2450 C   0  0  0  0  0  0  0  0  0  0  0  0
  139.7320   67.9430  226.2020 C   0  0  0  0  0  0  0  0  0  0  0  0
  140.8500   67.8160  227.2120 C   0  0  0  0  0  0  0  0  0  0  0  0
  140.3840   68.7220  228.3290 C   0  0  0  0  0  0  0  0  0  0  0  0
  139.9720   69.9520  227.5350 C   0  0  0  0  0  0  0  0  0  0  0  0
  138.1650   74.4240  222.1850 C   0  0  0  0  0  0  0  0  0  0  0  0
  137.1330   75.3270  222.3800 C   0  0  0  0  0  0  0  0  0  0  0  0
  137.4460   76.6450  222.5540 C   0  0  0  0  0  0  0  0  0  0  0  0
  138.7510   77.0830  222.5400 C   0  0  0  0  0  0  0  0  0  0  0  0
  139.0580   78.4120  222.7170 C   0  0  0  0  0  0  0  0  0  0  0  0
  140.3670   78.8820  222.7060 C   0  0  0  0  0  0  0  0  0  0  0  0
  140.7310   80.5790  222.9320 Cl  0  0  0  0  0  0  0  0  0  0  0  0
  141.3840   77.9470  222.5070 C   0  0  0  0  0  0  0  0  0  0  0  0
  141.0710   76.5980  222.3280 C   0  0  0  0  0  0  0  0  0  0  0  0
  139.7660   76.1700  222.3450 C   0  0  0  0  0  0  0  0  0  0  0  0
  139.4280   74.8790  222.1750 N   0  0  0  0  0  0  0  0  0  0  0  0
  136.9960   72.8230  223.9390 H   0  0  0  0  0  0  0  0  0  0  0  0
  135.8090   70.7709  223.0875 H   0  0  0  0  0  0  0  0  0  0  0  0
  137.1267   70.6452  221.8370 H   0  0  0  0  0  0  0  0  0  0  0  0
  140.6450   70.0471  222.4954 H   0  0  0  0  0  0  0  0  0  0  0  0
  139.4658   71.2001  221.9872 H   0  0  0  0  0  0  0  0  0  0  0  0
  141.7598   71.8572  223.4812 H   0  0  0  0  0  0  0  0  0  0  0  0
  140.2921   72.8585  223.5449 H   0  0  0  0  0  0  0  0  0  0  0  0
  141.4531   71.4378  225.7370 H   0  0  0  0  0  0  0  0  0  0  0  0
  139.8609   72.1432  225.7673 H   0  0  0  0  0  0  0  0  0  0  0  0
  140.6976   69.3085  224.9050 H   0  0  0  0  0  0  0  0  0  0  0  0
  138.3150   69.6035  226.2302 H   0  0  0  0  0  0  0  0  0  0  0  0
  138.8644   67.3332  226.4942 H   0  0  0  0  0  0  0  0  0  0  0  0
  140.0133   67.5917  225.1983 H   0  0  0  0  0  0  0  0  0  0  0  0
  140.9559   66.7778  227.5598 H   0  0  0  0  0  0  0  0  0  0  0  0
  141.8376   68.0865  226.8102 H   0  0  0  0  0  0  0  0  0  0  0  0
  139.5338   68.2881  228.8758 H   0  0  0  0  0  0  0  0  0  0  0  0
  141.1357   68.9110  229.1095 H   0  0  0  0  0  0  0  0  0  0  0  0
  139.2133   70.5292  228.0840 H   0  0  0  0  0  0  0  0  0  0  0  0
  140.8199   70.6301  227.3581 H   0  0  0  0  0  0  0  0  0  0  0  0
  136.0858   74.9905  222.3944 H   0  0  0  0  0  0  0  0  0  0  0  0
  136.6365   77.3735  222.7089 H   0  0  0  0  0  0  0  0  0  0  0  0
  138.2386   79.1291  222.8729 H   0  0  0  0  0  0  0  0  0  0  0  0
  142.4343   78.2735  222.4912 H   0  0  0  0  0  0  0  0  0  0  0  0
  141.8797   75.8690  222.1714 H   0  0  0  0  0  0  0  0  0  0  0  0
  1  2  2  0
  2  3  1  0
  3  4  1  0
  4  5  1  0
  5  6  2  0
  5  7  1  0
  7  8  1  0
  8  9  1  0
  9 10  1  0
 10 11  1  0
 11 12  1  0
 12 13  1  0
 13 14  1  0
 14 15  1  0
 15 16  1  0
  2 17  1  0
 17 18  2  0
 18 19  1  0
 19 20  2  0
 20 21  1  0
 21 22  2  0
 22 23  1  0
 22 24  1  0
 24 25  2  0
 25 26  1  0
 26 27  2  0
 11  7  1  0
 16 12  1  0
 27 17  1  0
 26 20  1  0
  3 28  1  0
  4 29  1  0
  4 30  1  0
  8 31  1  0
  8 32  1  0
  9 33  1  0
  9 34  1  0
 10 35  1  0
 10 36  1  0
 11 37  1  6
 12 38  1  0
 13 39  1  0
 13 40  1  0
 14 41  1  0
 14 42  1  0
 15 43  1  0
 15 44  1  0
 16 45  1  0
 16 46  1  0
 18 47  1  0
 19 48  1  0
 21 49  1  0
 24 50  1  0
 25 51  1  0
M  END
>  <smiles>  (99) 
O=C(NCC(=O)N1CCCC1C1CCCC1)c1ccc2cc(Cl)ccc2n1

>  <score_type>  (99) 
oracle

>  <origin>  (99) 
autodockgpu

>  <m_score__min__energy>  (99) 
-8.9199999999999999

>  <m_primary>  (99) 
energy

>  <rmsd>  (99) 
7.386150982728275

>  <m_score__min__rmsd>  (99) 
7.386150982728275

>  <meeko>  (99) 
{"free_energy": -7.95, "intermolecular_energy": -9.44, "internal_energy": -1.6, "cluster_size": 5, "cluster_id": 5, "rank_in_cluster": 1}

>  <energy>  (99) 
-7.42

>  <cluster_rmsd>  (99) 
0.72

>  <cluster>  (99) 
6

$$$$

     RDKit          3D

 51 54  0  0  0  0  0  0  0  0999 V2000
  139.8270   72.0310  220.6990 O   0  0  0  0  0  0  0  0  0  0  0  0
  139.7730   72.4430  221.8860 C   0  0  0  0  0  0  0  0  0  0  0  0
  139.6060   73.8400  222.1300 N   0  0  0  0  0  0  0  0  0  0  0  0
  139.5050   74.7450  221.0310 C   0  0  0  0  0  0  0  0  0  0  0  0
  140.6070   75.7550  221.0090 C   0  0  0  0  0  0  0  0  0  0  0  0
  140.7250   76.4740  222.0230 O   0  0  0  0  0  0  0  0  0  0  0  0
  141.4290   75.8270  219.8590 N   0  0  0  0  0  0  0  0  0  0  0  0
  141.1190   76.5620  218.6090 C   0  0  0  0  0  0  0  0  0  0  0  0
  142.4580   77.2530  218.3950 C   0  0  0  0  0  0  0  0  0  0  0  0
  143.4930   76.4780  219.2100 C   0  0  0  0  0  0  0  0  0  0  0  0
  142.7270   75.2570  219.5840 C   0  0  1  0  0  0  0  0  0  0  0  0
  143.3010   74.3360  220.5590 C   0  0  0  0  0  0  0  0  0  0  0  0
  142.7510   72.9450  220.3390 C   0  0  0  0  0  0  0  0  0  0  0  0
  143.9060   72.2220  219.6840 C   0  0  0  0  0  0  0  0  0  0  0  0
  145.0950   72.7350  220.4640 C   0  0  0  0  0  0  0  0  0  0  0  0
  144.8030   74.2270  220.4660 C   0  0  0  0  0  0  0  0  0  0  0  0
  139.8770   71.5210  223.0110 C   0  0  0  0  0  0  0  0  0  0  0  0
  139.4580   70.2120  222.8400 C   0  0  0  0  0  0  0  0  0  0  0  0
  139.5580   69.3520  223.8970 C   0  0  0  0  0  0  0  0  0  0  0  0
  140.0610   69.7610  225.1120 C   0  0  0  0  0  0  0  0  0  0  0  0
  140.1590   68.8890  226.1710 C   0  0  0  0  0  0  0  0  0  0  0  0
  140.6620   69.2750  227.4090 C   0  0  0  0  0  0  0  0  0  0  0  0
  140.7750   68.1470  228.7420 Cl  0  0  0  0  0  0  0  0  0  0  0  0
  141.0750   70.6010  227.5490 C   0  0  0  0  0  0  0  0  0  0  0  0
  140.9760   71.4850  226.4740 C   0  0  0  0  0  0  0  0  0  0  0  0
  140.4740   71.0680  225.2650 C   0  0  0  0  0  0  0  0  0  0  0  0
  140.3630   71.8920  224.2070 N   0  0  0  0  0  0  0  0  0  0  0  0
  139.5660   74.1460  223.1370 H   0  0  0  0  0  0  0  0  0  0  0  0
  139.5392   74.1672  220.0956 H   0  0  0  0  0  0  0  0  0  0  0  0
  138.5567   75.2919  221.1385 H   0  0  0  0  0  0  0  0  0  0  0  0
  140.8704   75.8809  217.7818 H   0  0  0  0  0  0  0  0  0  0  0  0
  140.2466   77.2301  218.6592 H   0  0  0  0  0  0  0  0  0  0  0  0
  142.7264   77.2357  217.3284 H   0  0  0  0  0  0  0  0  0  0  0  0
  142.4135   78.3049  218.7136 H   0  0  0  0  0  0  0  0  0  0  0  0
  144.3759   76.2278  218.6035 H   0  0  0  0  0  0  0  0  0  0  0  0
  143.8941   77.0352  220.0695 H   0  0  0  0  0  0  0  0  0  0  0  0
  142.7153   74.4952  218.7906 H   0  0  0  0  0  0  0  0  0  0  0  0
  143.0326   74.7426  221.5452 H   0  0  0  0  0  0  0  0  0  0  0  0
  142.4790   72.4718  221.2941 H   0  0  0  0  0  0  0  0  0  0  0  0
  141.8327   72.9328  219.7335 H   0  0  0  0  0  0  0  0  0  0  0  0
  143.8029   71.1317  219.7872 H   0  0  0  0  0  0  0  0  0  0  0  0
  143.9799   72.4022  218.6014 H   0  0  0  0  0  0  0  0  0  0  0  0
  145.1189   72.3246  221.4843 H   0  0  0  0  0  0  0  0  0  0  0  0
  146.0729   72.4601  220.0420 H   0  0  0  0  0  0  0  0  0  0  0  0
  145.2792   74.7121  221.3308 H   0  0  0  0  0  0  0  0  0  0  0  0
  145.1964   74.7241  219.5671 H   0  0  0  0  0  0  0  0  0  0  0  0
  139.0538   69.8724  221.8750 H   0  0  0  0  0  0  0  0  0  0  0  0
  139.2293   68.3094  223.7747 H   0  0  0  0  0  0  0  0  0  0  0  0
  139.8277   67.8491  226.0341 H   0  0  0  0  0  0  0  0  0  0  0  0
  141.4800   70.9503  228.5103 H   0  0  0  0  0  0  0  0  0  0  0  0
  141.3037   72.5280  226.5959 H   0  0  0  0  0  0  0  0  0  0  0  0
  1  2  2  0
  2  3  1  0
  3  4  1  0
  4  5  1  0
  5  6  2  0
  5  7  1  0
  7  8  1  0
  8  9  1  0
  9 10  1  0
 10 11  1  0
 11 12  1  0
 12 13  1  0
 13 14  1  0
 14 15  1  0
 15 16  1  0
  2 17  1  0
 17 18  2  0
 18 19  1  0
 19 20  2  0
 20 21  1  0
 21 22  2  0
 22 23  1  0
 22 24  1  0
 24 25  2  0
 25 26  1  0
 26 27  2  0
 11  7  1  0
 16 12  1  0
 27 17  1  0
 26 20  1  0
  3 28  1  0
  4 29  1  0
  4 30  1  0
  8 31  1  0
  8 32  1  0
  9 33  1  0
  9 34  1  0
 10 35  1  0
 10 36  1  0
 11 37  1  6
 12 38  1  0
 13 39  1  0
 13 40  1  0
 14 41  1  0
 14 42  1  0
 15 43  1  0
 15 44  1  0
 16 45  1  0
 16 46  1  0
 18 47  1  0
 19 48  1  0
 21 49  1  0
 24 50  1  0
 25 51  1  0
M  END
>  <smiles>  (100) 
O=C(NCC(=O)N1CCCC1C1CCCC1)c1ccc2cc(Cl)ccc2n1

>  <score_type>  (100) 
oracle

>  <origin>  (100) 
autodockgpu

>  <m_score__min__energy>  (100) 
-8.9199999999999999

>  <m_primary>  (100) 
energy

>  <rmsd>  (100) 
1.9650556717284249

>  <m_score__min__rmsd>  (100) 
1.9650556717284249

>  <meeko>  (100) 
{"free_energy": -7.9, "intermolecular_energy": -9.39, "internal_energy": -1.9, "cluster_size": 32, "cluster_id": 1, "rank_in_cluster": 20}

>  <energy>  (100) 
-6.55

>  <cluster_rmsd>  (100) 
0.0

>  <cluster>  (100) 
7

$$$$
