
     RDKit          3D

 50 51  0  0  0  0  0  0  0  0999 V2000
  143.6760   75.5350  217.9440 C   0  0  0  0  0  0  0  0  0  0  0  0
  142.5540   76.2060  218.7490 C   0  0  0  0  0  0  0  0  0  0  0  0
  141.2700   75.8220  217.9630 C   0  0  0  0  0  0  0  0  0  0  0  0
  142.6790   77.6770  218.6020 C   0  0  0  0  0  0  0  0  0  0  0  0
  142.4700   75.6380  220.1260 C   0  0  0  0  0  0  0  0  0  0  0  0
  141.2550   75.7950  220.8460 N   0  0  0  0  0  0  0  0  0  0  0  0
  140.8250   76.8970  221.6100 C   0  0  0  0  0  0  0  0  0  0  0  0
  141.4820   77.9520  221.7610 O   0  0  0  0  0  0  0  0  0  0  0  0
  139.5040   76.8380  222.2970 C   0  0  0  0  0  0  0  0  0  0  0  0
  138.9230   75.5440  222.3040 N   0  0  0  0  0  0  0  0  0  0  0  0
  138.4080   74.9880  221.1290 C   0  0  0  0  0  0  0  0  0  0  0  0
  138.4960   75.7010  220.0690 O   0  0  0  0  0  0  0  0  0  0  0  0
  137.7780   73.6720  220.9790 C   0  0  0  0  0  0  0  0  0  0  0  0
  138.0890   72.6950  221.9650 N   0  0  0  0  0  0  0  0  0  0  0  0
  139.3470   72.6370  222.5900 C   0  0  0  0  0  0  0  0  0  0  0  0
  140.3010   73.4330  222.3470 O   0  0  0  0  0  0  0  0  0  0  0  0
  139.5940   71.5890  223.6000 C   0  0  0  0  0  0  0  0  0  0  0  0
  139.3400   70.2620  223.3510 C   0  0  0  0  0  0  0  0  0  0  0  0
  139.5810   69.2860  224.3240 C   0  0  0  0  0  0  0  0  0  0  0  0
  140.0820   69.6670  225.5500 C   0  0  0  0  0  0  0  0  0  0  0  0
  140.3540   68.7920  226.5730 C   0  0  0  0  0  0  0  0  0  0  0  0
  140.8560   69.2150  227.7880 C   0  0  0  0  0  0  0  0  0  0  0  0
  141.2040   68.1010  229.0970 Cl  0  0  0  0  0  0  0  0  0  0  0  0
  141.1080   70.5680  228.0290 C   0  0  0  0  0  0  0  0  0  0  0  0
  140.8310   71.4270  226.9970 C   0  0  0  0  0  0  0  0  0  0  0  0
  140.3330   71.0130  225.7870 C   0  0  0  0  0  0  0  0  0  0  0  0
  140.0810   71.9040  224.8120 N   0  0  0  0  0  0  0  0  0  0  0  0
  144.4106   75.0957  218.6349 H   0  0  0  0  0  0  0  0  0  0  0  0
  143.2496   74.7435  217.3102 H   0  0  0  0  0  0  0  0  0  0  0  0
  144.1716   76.2851  217.3102 H   0  0  0  0  0  0  0  0  0  0  0  0
  140.4643   75.5810  218.6721 H   0  0  0  0  0  0  0  0  0  0  0  0
  140.9610   76.6670  217.3302 H   0  0  0  0  0  0  0  0  0  0  0  0
  141.4757   74.9461  217.3302 H   0  0  0  0  0  0  0  0  0  0  0  0
  142.7186   78.1429  219.5977 H   0  0  0  0  0  0  0  0  0  0  0  0
  143.6005   77.9133  218.0497 H   0  0  0  0  0  0  0  0  0  0  0  0
  141.8106   78.0654  218.0497 H   0  0  0  0  0  0  0  0  0  0  0  0
  142.6637   74.5582  220.0454 H   0  0  0  0  0  0  0  0  0  0  0  0
  143.2052   76.2171  220.7041 H   0  0  0  0  0  0  0  0  0  0  0  0
  140.5650   74.9750  220.8150 H   0  0  0  0  0  0  0  0  0  0  0  0
  139.6394   77.1637  223.3389 H   0  0  0  0  0  0  0  0  0  0  0  0
  138.8209   77.4944  221.7379 H   0  0  0  0  0  0  0  0  0  0  0  0
  138.8820   74.9940  223.1810 H   0  0  0  0  0  0  0  0  0  0  0  0
  136.6883   73.8216  220.9911 H   0  0  0  0  0  0  0  0  0  0  0  0
  138.1779   73.2675  220.0374 H   0  0  0  0  0  0  0  0  0  0  0  0
  137.3600   71.9770  222.2520 H   0  0  0  0  0  0  0  0  0  0  0  0
  138.9407   69.9621  222.3709 H   0  0  0  0  0  0  0  0  0  0  0  0
  139.3730   68.2267  224.1129 H   0  0  0  0  0  0  0  0  0  0  0  0
  140.1659   67.7191  226.4196 H   0  0  0  0  0  0  0  0  0  0  0  0
  141.5056   70.9234  228.9911 H   0  0  0  0  0  0  0  0  0  0  0  0
  141.0170   72.5008  227.1461 H   0  0  0  0  0  0  0  0  0  0  0  0
  1  2  1  0
  2  3  1  0
  2  4  1  0
  2  5  1  0
  5  6  1  0
  6  7  1  0
  7  8  2  0
  7  9  1  0
  9 10  1  0
 10 11  1  0
 11 12  2  0
 11 13  1  0
 13 14  1  0
 14 15  1  0
 15 16  2  0
 15 17  1  0
 17 18  2  0
 18 19  1  0
 19 20  2  0
 20 21  1  0
 21 22  2  0
 22 23  1  0
 22 24  1  0
 24 25  2  0
 25 26  1  0
 26 27  2  0
 27 17  1  0
 26 20  1  0
  1 28  1  0
  1 29  1  0
  1 30  1  0
  3 31  1  0
  3 32  1  0
  3 33  1  0
  4 34  1  0
  4 35  1  0
  4 36  1  0
  5 37  1  0
  5 38  1  0
  6 39  1  0
  9 40  1  0
  9 41  1  0
 10 42  1  0
 13 43  1  0
 13 44  1  0
 14 45  1  0
 18 46  1  0
 19 47  1  0
 21 48  1  0
 24 49  1  0
 25 50  1  0
M  END
>  <smiles>  (1) 
CC(C)(C)CNC(=O)CNC(=O)CNC(=O)c1ccc2cc(Cl)ccc2n1

>  <score_type>  (1) 
oracle

>  <origin>  (1) 
autodockgpu

>  <m_score__min__energy>  (1) 
-8.0299999999999994

>  <m_primary>  (1) 
energy

>  <rmsd>  (1) 
2.9832617355199367

>  <m_score__min__rmsd>  (1) 
2.9832617355199367

>  <meeko>  (1) 
{"free_energy": -6.51, "intermolecular_energy": -8.59, "internal_energy": -2.79, "cluster_size": 39, "cluster_id": 1, "rank_in_cluster": 36}

>  <energy>  (1) 
-8.03

>  <cluster_rmsd>  (1) 
0.0

>  <cluster>  (1) 
1

$$$$

     RDKit          3D

 50 51  0  0  0  0  0  0  0  0999 V2000
  142.1870   79.1020  223.0620 C   0  0  0  0  0  0  0  0  0  0  0  0
  141.0330   80.0820  222.8010 C   0  0  0  0  0  0  0  0  0  0  0  0
  140.6760   79.8250  221.3110 C   0  0  0  0  0  0  0  0  0  0  0  0
  141.5670   81.4650  222.8440 C   0  0  0  0  0  0  0  0  0  0  0  0
  139.8510   79.7530  223.6490 C   0  0  0  0  0  0  0  0  0  0  0  0
  138.9070   78.8140  223.1540 N   0  0  0  0  0  0  0  0  0  0  0  0
  139.1300   77.4910  222.7220 C   0  0  0  0  0  0  0  0  0  0  0  0
  140.2470   76.9260  222.7250 O   0  0  0  0  0  0  0  0  0  0  0  0
  137.9810   76.6830  222.2240 C   0  0  0  0  0  0  0  0  0  0  0  0
  138.3060   75.3250  221.9760 N   0  0  0  0  0  0  0  0  0  0  0  0
  137.9670   74.7210  220.7620 C   0  0  0  0  0  0  0  0  0  0  0  0
  137.3640   75.4550  219.9030 O   0  0  0  0  0  0  0  0  0  0  0  0
  138.2300   73.3350  220.3630 C   0  0  0  0  0  0  0  0  0  0  0  0
  138.4460   72.3950  221.4100 N   0  0  0  0  0  0  0  0  0  0  0  0
  139.5000   72.5300  222.3300 C   0  0  0  0  0  0  0  0  0  0  0  0
  140.3370   73.4800  222.3220 O   0  0  0  0  0  0  0  0  0  0  0  0
  139.6610   71.5090  223.3840 C   0  0  0  0  0  0  0  0  0  0  0  0
  139.3090   70.1960  223.1870 C   0  0  0  0  0  0  0  0  0  0  0  0
  139.4710   69.2460  224.2020 C   0  0  0  0  0  0  0  0  0  0  0  0
  139.9910   69.6390  225.4150 C   0  0  0  0  0  0  0  0  0  0  0  0
  140.1910   68.7890  226.4760 C   0  0  0  0  0  0  0  0  0  0  0  0
  140.7160   69.2230  227.6770 C   0  0  0  0  0  0  0  0  0  0  0  0
  140.9720   68.1420  229.0340 Cl  0  0  0  0  0  0  0  0  0  0  0  0
  141.0700   70.5620  227.8640 C   0  0  0  0  0  0  0  0  0  0  0  0
  140.8640   71.3960  226.7960 C   0  0  0  0  0  0  0  0  0  0  0  0
  140.3430   70.9700  225.5990 C   0  0  0  0  0  0  0  0  0  0  0  0
  140.1640   71.8370  224.5870 N   0  0  0  0  0  0  0  0  0  0  0  0
  142.3281   78.9822  224.1463 H   0  0  0  0  0  0  0  0  0  0  0  0
  141.9482   78.1265  222.6133 H   0  0  0  0  0  0  0  0  0  0  0  0
  143.1109   79.4957  222.6133 H   0  0  0  0  0  0  0  0  0  0  0  0
  139.7845   79.1832  221.2530 H   0  0  0  0  0  0  0  0  0  0  0  0
  140.4706   80.7838  220.8125 H   0  0  0  0  0  0  0  0  0  0  0  0
  141.5201   79.3260  220.8125 H   0  0  0  0  0  0  0  0  0  0  0  0
  141.6882   81.7789  223.8913 H   0  0  0  0  0  0  0  0  0  0  0  0
  142.5423   81.4974  222.3363 H   0  0  0  0  0  0  0  0  0  0  0  0
  140.8666   82.1444  222.3363 H   0  0  0  0  0  0  0  0  0  0  0  0
  140.2336   79.3586  224.6019 H   0  0  0  0  0  0  0  0  0  0  0  0
  139.2890   80.6967  223.7089 H   0  0  0  0  0  0  0  0  0  0  0  0
  137.8870   79.1390  223.0920 H   0  0  0  0  0  0  0  0  0  0  0  0
  137.1800   76.7168  222.9772 H   0  0  0  0  0  0  0  0  0  0  0  0
  137.6715   77.1208  221.2635 H   0  0  0  0  0  0  0  0  0  0  0  0
  138.8050   74.7680  222.6940 H   0  0  0  0  0  0  0  0  0  0  0  0
  137.3661   72.9878  219.7773 H   0  0  0  0  0  0  0  0  0  0  0  0
  139.1792   73.3707  219.8083 H   0  0  0  0  0  0  0  0  0  0  0  0
  137.8010   71.5570  221.5150 H   0  0  0  0  0  0  0  0  0  0  0  0
  138.8935   69.8864  222.2167 H   0  0  0  0  0  0  0  0  0  0  0  0
  139.1861   68.1971  224.0326 H   0  0  0  0  0  0  0  0  0  0  0  0
  139.9240   67.7277  226.3648 H   0  0  0  0  0  0  0  0  0  0  0  0
  141.4898   70.9256  228.8135 H   0  0  0  0  0  0  0  0  0  0  0  0
  141.1289   72.4583  226.9029 H   0  0  0  0  0  0  0  0  0  0  0  0
  1  2  1  0
  2  3  1  0
  2  4  1  0
  2  5  1  0
  5  6  1  0
  6  7  1  0
  7  8  2  0
  7  9  1  0
  9 10  1  0
 10 11  1  0
 11 12  2  0
 11 13  1  0
 13 14  1  0
 14 15  1  0
 15 16  2  0
 15 17  1  0
 17 18  2  0
 18 19  1  0
 19 20  2  0
 20 21  1  0
 21 22  2  0
 22 23  1  0
 22 24  1  0
 24 25  2  0
 25 26  1  0
 26 27  2  0
 27 17  1  0
 26 20  1  0
  1 28  1  0
  1 29  1  0
  1 30  1  0
  3 31  1  0
  3 32  1  0
  3 33  1  0
  4 34  1  0
  4 35  1  0
  4 36  1  0
  5 37  1  0
  5 38  1  0
  6 39  1  0
  9 40  1  0
  9 41  1  0
 10 42  1  0
 13 43  1  0
 13 44  1  0
 14 45  1  0
 18 46  1  0
 19 47  1  0
 21 48  1  0
 24 49  1  0
 25 50  1  0
M  END
>  <smiles>  (2) 
CC(C)(C)CNC(=O)CNC(=O)CNC(=O)c1ccc2cc(Cl)ccc2n1

>  <score_type>  (2) 
oracle

>  <origin>  (2) 
autodockgpu

>  <m_score__min__energy>  (2) 
-8.0299999999999994

>  <m_primary>  (2) 
energy

>  <rmsd>  (2) 
2.2583189330548796

>  <m_score__min__rmsd>  (2) 
2.2583189330548796

>  <meeko>  (2) 
{"free_energy": -7.56, "intermolecular_energy": -9.64, "internal_energy": -1.9, "cluster_size": 39, "cluster_id": 1, "rank_in_cluster": 13}

>  <energy>  (2) 
-7.89

>  <cluster_rmsd>  (2) 
1.15

>  <cluster>  (2) 
1

$$$$

     RDKit          3D

 50 51  0  0  0  0  0  0  0  0999 V2000
  140.5300   80.8740  223.5290 C   0  0  0  0  0  0  0  0  0  0  0  0
  141.8270   80.1370  223.1680 C   0  0  0  0  0  0  0  0  0  0  0  0
  141.6620   78.7600  223.8680 C   0  0  0  0  0  0  0  0  0  0  0  0
  142.9580   80.7980  223.8630 C   0  0  0  0  0  0  0  0  0  0  0  0
  141.9290   79.9260  221.6940 C   0  0  0  0  0  0  0  0  0  0  0  0
  142.1030   78.5990  221.2150 N   0  0  0  0  0  0  0  0  0  0  0  0
  141.9420   78.1130  219.9020 C   0  0  0  0  0  0  0  0  0  0  0  0
  141.6160   78.8210  218.9220 O   0  0  0  0  0  0  0  0  0  0  0  0
  142.1680   76.6660  219.6270 C   0  0  0  0  0  0  0  0  0  0  0  0
  141.0050   75.8690  219.7830 N   0  0  0  0  0  0  0  0  0  0  0  0
  140.4560   75.6480  221.0500 C   0  0  0  0  0  0  0  0  0  0  0  0
  141.0520   76.2040  222.0390 O   0  0  0  0  0  0  0  0  0  0  0  0
  139.2690   74.8510  221.3690 C   0  0  0  0  0  0  0  0  0  0  0  0
  139.4250   73.8290  222.3460 N   0  0  0  0  0  0  0  0  0  0  0  0
  139.4350   72.4650  222.0070 C   0  0  0  0  0  0  0  0  0  0  0  0
  139.3160   72.0220  220.8270 O   0  0  0  0  0  0  0  0  0  0  0  0
  139.5960   71.4640  223.0810 C   0  0  0  0  0  0  0  0  0  0  0  0
  139.2120   70.1540  222.9220 C   0  0  0  0  0  0  0  0  0  0  0  0
  139.3740   69.2240  223.9550 C   0  0  0  0  0  0  0  0  0  0  0  0
  139.9280   69.6340  225.1480 C   0  0  0  0  0  0  0  0  0  0  0  0
  140.1310   68.8040  226.2240 C   0  0  0  0  0  0  0  0  0  0  0  0
  140.6900   69.2530  227.4040 C   0  0  0  0  0  0  0  0  0  0  0  0
  140.9500   68.1980  228.7800 Cl  0  0  0  0  0  0  0  0  0  0  0  0
  141.0750   70.5880  227.5530 C   0  0  0  0  0  0  0  0  0  0  0  0
  140.8650   71.4020  226.4700 C   0  0  0  0  0  0  0  0  0  0  0  0
  140.3110   70.9610  225.2940 C   0  0  0  0  0  0  0  0  0  0  0  0
  140.1300   71.8080  224.2660 N   0  0  0  0  0  0  0  0  0  0  0  0
  140.4322   80.9296  224.6232 H   0  0  0  0  0  0  0  0  0  0  0  0
  140.5578   81.8912  223.1113 H   0  0  0  0  0  0  0  0  0  0  0  0
  139.6704   80.3294  223.1113 H   0  0  0  0  0  0  0  0  0  0  0  0
  141.6787   78.8990  224.9591 H   0  0  0  0  0  0  0  0  0  0  0  0
  140.7035   78.3098  223.5703 H   0  0  0  0  0  0  0  0  0  0  0  0
  142.4870   78.0961  223.5703 H   0  0  0  0  0  0  0  0  0  0  0  0
  142.8180   80.7162  224.9510 H   0  0  0  0  0  0  0  0  0  0  0  0
  143.9006   80.3086  223.5768 H   0  0  0  0  0  0  0  0  0  0  0  0
  142.9943   81.8595  223.5768 H   0  0  0  0  0  0  0  0  0  0  0  0
  141.0042   80.3163  221.2441 H   0  0  0  0  0  0  0  0  0  0  0  0
  142.8576   80.4422  221.4088 H   0  0  0  0  0  0  0  0  0  0  0  0
  142.3940   77.8590  221.9340 H   0  0  0  0  0  0  0  0  0  0  0  0
  142.5253   76.5606  218.5920 H   0  0  0  0  0  0  0  0  0  0  0  0
  142.9040   76.3094  220.3626 H   0  0  0  0  0  0  0  0  0  0  0  0
  140.5470   75.4470  218.9550 H   0  0  0  0  0  0  0  0  0  0  0  0
  138.4924   75.5410  221.7307 H   0  0  0  0  0  0  0  0  0  0  0  0
  139.0191   74.3222  220.4374 H   0  0  0  0  0  0  0  0  0  0  0  0
  139.5380   74.0850  223.3720 H   0  0  0  0  0  0  0  0  0  0  0  0
  138.7703   69.8314  221.9676 H   0  0  0  0  0  0  0  0  0  0  0  0
  139.0627   68.1781  223.8162 H   0  0  0  0  0  0  0  0  0  0  0  0
  139.8385   67.7467  226.1427 H   0  0  0  0  0  0  0  0  0  0  0  0
  141.5209   70.9641  228.4856 H   0  0  0  0  0  0  0  0  0  0  0  0
  141.1547   72.4604  226.5472 H   0  0  0  0  0  0  0  0  0  0  0  0
  1  2  1  0
  2  3  1  0
  2  4  1  0
  2  5  1  0
  5  6  1  0
  6  7  1  0
  7  8  2  0
  7  9  1  0
  9 10  1  0
 10 11  1  0
 11 12  2  0
 11 13  1  0
 13 14  1  0
 14 15  1  0
 15 16  2  0
 15 17  1  0
 17 18  2  0
 18 19  1  0
 19 20  2  0
 20 21  1  0
 21 22  2  0
 22 23  1  0
 22 24  1  0
 24 25  2  0
 25 26  1  0
 26 27  2  0
 27 17  1  0
 26 20  1  0
  1 28  1  0
  1 29  1  0
  1 30  1  0
  3 31  1  0
  3 32  1  0
  3 33  1  0
  4 34  1  0
  4 35  1  0
  4 36  1  0
  5 37  1  0
  5 38  1  0
  6 39  1  0
  9 40  1  0
  9 41  1  0
 10 42  1  0
 13 43  1  0
 13 44  1  0
 14 45  1  0
 18 46  1  0
 19 47  1  0
 21 48  1  0
 24 49  1  0
 25 50  1  0
M  END
>  <smiles>  (3) 
CC(C)(C)CNC(=O)CNC(=O)CNC(=O)c1ccc2cc(Cl)ccc2n1

>  <score_type>  (3) 
oracle

>  <origin>  (3) 
autodockgpu

>  <m_score__min__energy>  (3) 
-8.0299999999999994

>  <m_primary>  (3) 
energy

>  <rmsd>  (3) 
1.733513265075659

>  <m_score__min__rmsd>  (3) 
1.733513265075659

>  <meeko>  (3) 
{"free_energy": -8.03, "intermolecular_energy": -10.12, "internal_energy": -2.1, "cluster_size": 39, "cluster_id": 1, "rank_in_cluster": 1}

>  <energy>  (3) 
-7.89

>  <cluster_rmsd>  (3) 
0.53

>  <cluster>  (3) 
1

$$$$

     RDKit          3D

 50 51  0  0  0  0  0  0  0  0999 V2000
  141.1150   81.5560  222.4830 C   0  0  0  0  0  0  0  0  0  0  0  0
  141.7620   80.1640  222.4570 C   0  0  0  0  0  0  0  0  0  0  0  0
  140.8840   79.3430  223.4410 C   0  0  0  0  0  0  0  0  0  0  0  0
  143.0960   80.2490  223.1000 C   0  0  0  0  0  0  0  0  0  0  0  0
  141.6700   79.5560  221.0970 C   0  0  0  0  0  0  0  0  0  0  0  0
  142.0490   78.1960  220.9410 N   0  0  0  0  0  0  0  0  0  0  0  0
  142.0670   77.4200  219.7650 C   0  0  0  0  0  0  0  0  0  0  0  0
  141.7450   77.8470  218.6330 O   0  0  0  0  0  0  0  0  0  0  0  0
  142.4930   75.9950  219.8380 C   0  0  0  0  0  0  0  0  0  0  0  0
  141.4190   75.0880  220.0230 N   0  0  0  0  0  0  0  0  0  0  0  0
  140.4990   75.2740  221.0600 C   0  0  0  0  0  0  0  0  0  0  0  0
  140.6800   76.2960  221.8110 O   0  0  0  0  0  0  0  0  0  0  0  0
  139.3460   74.4260  221.3780 C   0  0  0  0  0  0  0  0  0  0  0  0
  139.5290   73.4500  222.3970 N   0  0  0  0  0  0  0  0  0  0  0  0
  139.2370   72.0910  222.1900 C   0  0  0  0  0  0  0  0  0  0  0  0
  138.8000   71.6120  221.1030 O   0  0  0  0  0  0  0  0  0  0  0  0
  139.4480   71.1400  223.3000 C   0  0  0  0  0  0  0  0  0  0  0  0
  139.0740   69.8210  223.2130 C   0  0  0  0  0  0  0  0  0  0  0  0
  139.2830   68.9390  224.2780 C   0  0  0  0  0  0  0  0  0  0  0  0
  139.8750   69.4050  225.4310 C   0  0  0  0  0  0  0  0  0  0  0  0
  140.1270   68.6260  226.5340 C   0  0  0  0  0  0  0  0  0  0  0  0
  140.7230   69.1320  227.6720 C   0  0  0  0  0  0  0  0  0  0  0  0
  141.0450   68.1400  229.0820 Cl  0  0  0  0  0  0  0  0  0  0  0  0
  141.0980   70.4760  227.7490 C   0  0  0  0  0  0  0  0  0  0  0  0
  140.8400   71.2390  226.6400 C   0  0  0  0  0  0  0  0  0  0  0  0
  140.2490   70.7410  225.5050 C   0  0  0  0  0  0  0  0  0  0  0  0
  140.0200   71.5410  224.4480 N   0  0  0  0  0  0  0  0  0  0  0  0
  140.9679   81.8725  223.5262 H   0  0  0  0  0  0  0  0  0  0  0  0
  141.7712   82.2750  221.9707 H   0  0  0  0  0  0  0  0  0  0  0  0
  140.1423   81.5179  221.9707 H   0  0  0  0  0  0  0  0  0  0  0  0
  141.1566   79.5979  224.4757 H   0  0  0  0  0  0  0  0  0  0  0  0
  139.8234   79.5809  223.2720 H   0  0  0  0  0  0  0  0  0  0  0  0
  141.0503   78.2689  223.2720 H   0  0  0  0  0  0  0  0  0  0  0  0
  142.9771   80.2414  224.1935 H   0  0  0  0  0  0  0  0  0  0  0  0
  143.7072   79.3880  222.7917 H   0  0  0  0  0  0  0  0  0  0  0  0
  143.5930   81.1806  222.7917 H   0  0  0  0  0  0  0  0  0  0  0  0
  140.6226   79.6417  220.7720 H   0  0  0  0  0  0  0  0  0  0  0  0
  142.4064   80.1136  220.4997 H   0  0  0  0  0  0  0  0  0  0  0  0
  142.3630   77.6770  221.8250 H   0  0  0  0  0  0  0  0  0  0  0  0
  143.0072   75.7378  218.9002 H   0  0  0  0  0  0  0  0  0  0  0  0
  143.1489   75.9000  220.7159 H   0  0  0  0  0  0  0  0  0  0  0  0
  141.3010   74.2800  219.3860 H   0  0  0  0  0  0  0  0  0  0  0  0
  138.5243   75.0860  221.6931 H   0  0  0  0  0  0  0  0  0  0  0  0
  139.1498   73.8512  220.4609 H   0  0  0  0  0  0  0  0  0  0  0  0
  139.8970   73.7380  223.3520 H   0  0  0  0  0  0  0  0  0  0  0  0
  138.6022   69.4524  222.2902 H   0  0  0  0  0  0  0  0  0  0  0  0
  138.9781   67.8853  224.1958 H   0  0  0  0  0  0  0  0  0  0  0  0
  139.8444   67.5632  226.5098 H   0  0  0  0  0  0  0  0  0  0  0  0
  141.5727   70.8971  228.6475 H   0  0  0  0  0  0  0  0  0  0  0  0
  141.1201   72.3025  226.6602 H   0  0  0  0  0  0  0  0  0  0  0  0
  1  2  1  0
  2  3  1  0
  2  4  1  0
  2  5  1  0
  5  6  1  0
  6  7  1  0
  7  8  2  0
  7  9  1  0
  9 10  1  0
 10 11  1  0
 11 12  2  0
 11 13  1  0
 13 14  1  0
 14 15  1  0
 15 16  2  0
 15 17  1  0
 17 18  2  0
 18 19  1  0
 19 20  2  0
 20 21  1  0
 21 22  2  0
 22 23  1  0
 22 24  1  0
 24 25  2  0
 25 26  1  0
 26 27  2  0
 27 17  1  0
 26 20  1  0
  1 28  1  0
  1 29  1  0
  1 30  1  0
  3 31  1  0
  3 32  1  0
  3 33  1  0
  4 34  1  0
  4 35  1  0
  4 36  1  0
  5 37  1  0
  5 38  1  0
  6 39  1  0
  9 40  1  0
  9 41  1  0
 10 42  1  0
 13 43  1  0
 13 44  1  0
 14 45  1  0
 18 46  1  0
 19 47  1  0
 21 48  1  0
 24 49  1  0
 25 50  1  0
M  END
>  <smiles>  (4) 
CC(C)(C)CNC(=O)CNC(=O)CNC(=O)c1ccc2cc(Cl)ccc2n1

>  <score_type>  (4) 
oracle

>  <origin>  (4) 
autodockgpu

>  <m_score__min__energy>  (4) 
-8.0299999999999994

>  <m_primary>  (4) 
energy

>  <rmsd>  (4) 
1.5050414724088765

>  <m_score__min__rmsd>  (4) 
1.5050414724088765

>  <meeko>  (4) 
{"free_energy": -7.62, "intermolecular_energy": -9.7, "internal_energy": -1.87, "cluster_size": 39, "cluster_id": 1, "rank_in_cluster": 9}

>  <energy>  (4) 
-7.88

>  <cluster_rmsd>  (4) 
0.31

>  <cluster>  (4) 
1

$$$$

     RDKit          3D

 50 51  0  0  0  0  0  0  0  0999 V2000
  141.2410   69.1320  228.3180 C   0  0  0  0  0  0  0  0  0  0  0  0
  140.5670   70.1310  227.3670 C   0  0  0  0  0  0  0  0  0  0  0  0
  141.4930   70.1180  226.1200 C   0  0  0  0  0  0  0  0  0  0  0  0
  140.6970   71.4930  227.9390 C   0  0  0  0  0  0  0  0  0  0  0  0
  139.2080   69.6570  226.9690 C   0  0  0  0  0  0  0  0  0  0  0  0
  138.8260   69.7780  225.6060 N   0  0  0  0  0  0  0  0  0  0  0  0
  138.7740   68.7750  224.6170 C   0  0  0  0  0  0  0  0  0  0  0  0
  139.0640   67.5730  224.8150 O   0  0  0  0  0  0  0  0  0  0  0  0
  138.3510   69.1350  223.2350 C   0  0  0  0  0  0  0  0  0  0  0  0
  139.4160   69.5820  222.4120 N   0  0  0  0  0  0  0  0  0  0  0  0
  139.9290   70.8760  222.5490 C   0  0  0  0  0  0  0  0  0  0  0  0
  139.3930   71.6140  223.4490 O   0  0  0  0  0  0  0  0  0  0  0  0
  141.0170   71.4800  221.7750 C   0  0  0  0  0  0  0  0  0  0  0  0
  141.0600   72.9010  221.7280 N   0  0  0  0  0  0  0  0  0  0  0  0
  141.8630   73.5940  220.8050 C   0  0  0  0  0  0  0  0  0  0  0  0
  142.6040   73.0360  219.9440 O   0  0  0  0  0  0  0  0  0  0  0  0
  141.8570   75.0710  220.8240 C   0  0  0  0  0  0  0  0  0  0  0  0
  142.5930   75.8150  219.9330 C   0  0  0  0  0  0  0  0  0  0  0  0
  142.5710   77.2130  219.9700 C   0  0  0  0  0  0  0  0  0  0  0  0
  141.7980   77.8490  220.9170 C   0  0  0  0  0  0  0  0  0  0  0  0
  141.7050   79.2140  221.0410 C   0  0  0  0  0  0  0  0  0  0  0  0
  140.9180   79.8140  222.0040 C   0  0  0  0  0  0  0  0  0  0  0  0
  140.7980   81.5560  222.1650 Cl  0  0  0  0  0  0  0  0  0  0  0  0
  140.1760   79.0450  222.9040 C   0  0  0  0  0  0  0  0  0  0  0  0
  140.2800   77.6860  222.7670 C   0  0  0  0  0  0  0  0  0  0  0  0
  141.0600   77.0840  221.8110 C   0  0  0  0  0  0  0  0  0  0  0  0
  141.1220   75.7430  221.7250 N   0  0  0  0  0  0  0  0  0  0  0  0
  141.0427   69.4260  229.3593 H   0  0  0  0  0  0  0  0  0  0  0  0
  140.8371   68.1248  228.1381 H   0  0  0  0  0  0  0  0  0  0  0  0
  142.3262   69.1294  228.1381 H   0  0  0  0  0  0  0  0  0  0  0  0
  142.5441   70.1032  226.4440 H   0  0  0  0  0  0  0  0  0  0  0  0
  141.2827   69.2227  225.5165 H   0  0  0  0  0  0  0  0  0  0  0  0
  141.3079   71.0188  225.5165 H   0  0  0  0  0  0  0  0  0  0  0  0
  140.6911   71.4315  229.0373 H   0  0  0  0  0  0  0  0  0  0  0  0
  141.6422   71.9435  227.6020 H   0  0  0  0  0  0  0  0  0  0  0  0
  139.8541   72.1142  227.6020 H   0  0  0  0  0  0  0  0  0  0  0  0
  139.1449   68.5907  227.2317 H   0  0  0  0  0  0  0  0  0  0  0  0
  138.5188   70.3261  227.5050 H   0  0  0  0  0  0  0  0  0  0  0  0
  138.5370   70.7540  225.2690 H   0  0  0  0  0  0  0  0  0  0  0  0
  137.8995   68.2475  222.7675 H   0  0  0  0  0  0  0  0  0  0  0  0
  137.6401   69.9698  223.3231 H   0  0  0  0  0  0  0  0  0  0  0  0
  139.8300   68.9500  221.7030 H   0  0  0  0  0  0  0  0  0  0  0  0
  141.9663   71.1327  222.2088 H   0  0  0  0  0  0  0  0  0  0  0  0
  140.8409   71.1634  220.7364 H   0  0  0  0  0  0  0  0  0  0  0  0
  140.4740   73.4750  222.4030 H   0  0  0  0  0  0  0  0  0  0  0  0
  143.2090   75.3030  219.1791 H   0  0  0  0  0  0  0  0  0  0  0  0
  143.1639   77.7980  219.2515 H   0  0  0  0  0  0  0  0  0  0  0  0
  142.2768   79.8505  220.3498 H   0  0  0  0  0  0  0  0  0  0  0  0
  139.5443   79.5046  223.6784 H   0  0  0  0  0  0  0  0  0  0  0  0
  139.7106   77.0457  223.4568 H   0  0  0  0  0  0  0  0  0  0  0  0
  1  2  1  0
  2  3  1  0
  2  4  1  0
  2  5  1  0
  5  6  1  0
  6  7  1  0
  7  8  2  0
  7  9  1  0
  9 10  1  0
 10 11  1  0
 11 12  2  0
 11 13  1  0
 13 14  1  0
 14 15  1  0
 15 16  2  0
 15 17  1  0
 17 18  2  0
 18 19  1  0
 19 20  2  0
 20 21  1  0
 21 22  2  0
 22 23  1  0
 22 24  1  0
 24 25  2  0
 25 26  1  0
 26 27  2  0
 27 17  1  0
 26 20  1  0
  1 28  1  0
  1 29  1  0
  1 30  1  0
  3 31  1  0
  3 32  1  0
  3 33  1  0
  4 34  1  0
  4 35  1  0
  4 36  1  0
  5 37  1  0
  5 38  1  0
  6 39  1  0
  9 40  1  0
  9 41  1  0
 10 42  1  0
 13 43  1  0
 13 44  1  0
 14 45  1  0
 18 46  1  0
 19 47  1  0
 21 48  1  0
 24 49  1  0
 25 50  1  0
M  END
>  <smiles>  (5) 
CC(C)(C)CNC(=O)CNC(=O)CNC(=O)c1ccc2cc(Cl)ccc2n1

>  <score_type>  (5) 
oracle

>  <origin>  (5) 
autodockgpu

>  <m_score__min__energy>  (5) 
-8.0299999999999994

>  <m_primary>  (5) 
energy

>  <rmsd>  (5) 
9.128327951289249

>  <m_score__min__rmsd>  (5) 
9.128327951289249

>  <meeko>  (5) 
{"free_energy": -6.56, "intermolecular_energy": -8.64, "internal_energy": -2.6, "cluster_size": 1, "cluster_id": 4, "rank_in_cluster": 1}

>  <energy>  (5) 
-7.74

>  <cluster_rmsd>  (5) 
1.65

>  <cluster>  (5) 
1

$$$$

     RDKit          3D

 50 51  0  0  0  0  0  0  0  0999 V2000
  142.0110   79.8670  221.5700 C   0  0  0  0  0  0  0  0  0  0  0  0
  142.1420   79.9050  223.0990 C   0  0  0  0  0  0  0  0  0  0  0  0
  141.0680   80.9440  223.5240 C   0  0  0  0  0  0  0  0  0  0  0  0
  143.4450   80.5220  223.4490 C   0  0  0  0  0  0  0  0  0  0  0  0
  141.8030   78.5810  223.6980 C   0  0  0  0  0  0  0  0  0  0  0  0
  140.8410   77.7700  223.0380 N   0  0  0  0  0  0  0  0  0  0  0  0
  139.4440   77.9440  222.9710 C   0  0  0  0  0  0  0  0  0  0  0  0
  138.8250   78.8930  223.5040 O   0  0  0  0  0  0  0  0  0  0  0  0
  138.6200   76.9520  222.2260 C   0  0  0  0  0  0  0  0  0  0  0  0
  139.2510   75.6910  222.0680 N   0  0  0  0  0  0  0  0  0  0  0  0
  140.2900   75.5240  221.1480 C   0  0  0  0  0  0  0  0  0  0  0  0
  140.6350   76.5590  220.4760 O   0  0  0  0  0  0  0  0  0  0  0  0
  141.0330   74.2910  220.8720 C   0  0  0  0  0  0  0  0  0  0  0  0
  141.0000   73.2820  221.8750 N   0  0  0  0  0  0  0  0  0  0  0  0
  139.8040   72.6530  222.2640 C   0  0  0  0  0  0  0  0  0  0  0  0
  138.6690   72.9110  221.7680 O   0  0  0  0  0  0  0  0  0  0  0  0
  139.8520   71.6200  223.3180 C   0  0  0  0  0  0  0  0  0  0  0  0
  139.4000   70.3400  223.1060 C   0  0  0  0  0  0  0  0  0  0  0  0
  139.4560   69.3780  224.1200 C   0  0  0  0  0  0  0  0  0  0  0  0
  139.9740   69.7250  225.3490 C   0  0  0  0  0  0  0  0  0  0  0  0
  140.0750   68.8600  226.4110 C   0  0  0  0  0  0  0  0  0  0  0  0
  140.6010   69.2470  227.6280 C   0  0  0  0  0  0  0  0  0  0  0  0
  140.7310   68.1460  228.9860 Cl  0  0  0  0  0  0  0  0  0  0  0  0
  141.0560   70.5520  227.8300 C   0  0  0  0  0  0  0  0  0  0  0  0
  140.9480   71.4020  226.7600 C   0  0  0  0  0  0  0  0  0  0  0  0
  140.4270   71.0230  225.5480 C   0  0  0  0  0  0  0  0  0  0  0  0
  140.3470   71.9030  224.5350 N   0  0  0  0  0  0  0  0  0  0  0  0
  140.9876   79.5701  221.2969 H   0  0  0  0  0  0  0  0  0  0  0  0
  142.2255   80.8644  221.1587 H   0  0  0  0  0  0  0  0  0  0  0  0
  142.7260   79.1392  221.1587 H   0  0  0  0  0  0  0  0  0  0  0  0
  141.0184   80.9920  224.6218 H   0  0  0  0  0  0  0  0  0  0  0  0
  141.3370   81.9334  223.1255 H   0  0  0  0  0  0  0  0  0  0  0  0
  140.0881   80.6423  223.1255 H   0  0  0  0  0  0  0  0  0  0  0  0
  143.5459   80.5698  224.5433 H   0  0  0  0  0  0  0  0  0  0  0  0
  144.2620   79.9151  223.0316 H   0  0  0  0  0  0  0  0  0  0  0  0
  143.4932   81.5386  223.0316 H   0  0  0  0  0  0  0  0  0  0  0  0
  142.7355   78.0003  223.7536 H   0  0  0  0  0  0  0  0  0  0  0  0
  141.3332   78.8307  224.6608 H   0  0  0  0  0  0  0  0  0  0  0  0
  141.2100   76.9070  222.5190 H   0  0  0  0  0  0  0  0  0  0  0  0
  137.6774   76.8027  222.7730 H   0  0  0  0  0  0  0  0  0  0  0  0
  138.4594   77.3600  221.2172 H   0  0  0  0  0  0  0  0  0  0  0  0
  138.9500   74.8820  222.6400 H   0  0  0  0  0  0  0  0  0  0  0  0
  140.6232   73.8555  219.9487 H   0  0  0  0  0  0  0  0  0  0  0  0
  142.0871   74.5990  220.8092 H   0  0  0  0  0  0  0  0  0  0  0  0
  141.8970   72.9810  222.3580 H   0  0  0  0  0  0  0  0  0  0  0  0
  138.9875   70.0674  222.1234 H   0  0  0  0  0  0  0  0  0  0  0  0
  139.0908   68.3564  223.9385 H   0  0  0  0  0  0  0  0  0  0  0  0
  139.7253   67.8243  226.2882 H   0  0  0  0  0  0  0  0  0  0  0  0
  141.4768   70.8789  228.7923 H   0  0  0  0  0  0  0  0  0  0  0  0
  141.2960   72.4388  226.8785 H   0  0  0  0  0  0  0  0  0  0  0  0
  1  2  1  0
  2  3  1  0
  2  4  1  0
  2  5  1  0
  5  6  1  0
  6  7  1  0
  7  8  2  0
  7  9  1  0
  9 10  1  0
 10 11  1  0
 11 12  2  0
 11 13  1  0
 13 14  1  0
 14 15  1  0
 15 16  2  0
 15 17  1  0
 17 18  2  0
 18 19  1  0
 19 20  2  0
 20 21  1  0
 21 22  2  0
 22 23  1  0
 22 24  1  0
 24 25  2  0
 25 26  1  0
 26 27  2  0
 27 17  1  0
 26 20  1  0
  1 28  1  0
  1 29  1  0
  1 30  1  0
  3 31  1  0
  3 32  1  0
  3 33  1  0
  4 34  1  0
  4 35  1  0
  4 36  1  0
  5 37  1  0
  5 38  1  0
  6 39  1  0
  9 40  1  0
  9 41  1  0
 10 42  1  0
 13 43  1  0
 13 44  1  0
 14 45  1  0
 18 46  1  0
 19 47  1  0
 21 48  1  0
 24 49  1  0
 25 50  1  0
M  END
>  <smiles>  (6) 
CC(C)(C)CNC(=O)CNC(=O)CNC(=O)c1ccc2cc(Cl)ccc2n1

>  <score_type>  (6) 
oracle

>  <origin>  (6) 
autodockgpu

>  <m_score__min__energy>  (6) 
-8.0299999999999994

>  <m_primary>  (6) 
energy

>  <rmsd>  (6) 
2.1142554638986

>  <m_score__min__rmsd>  (6) 
2.1142554638986

>  <meeko>  (6) 
{"free_energy": -7.57, "intermolecular_energy": -9.66, "internal_energy": -2.54, "cluster_size": 39, "cluster_id": 1, "rank_in_cluster": 12}

>  <energy>  (6) 
-7.72

>  <cluster_rmsd>  (6) 
1.56

>  <cluster>  (6) 
1

$$$$

     RDKit          3D

 50 51  0  0  0  0  0  0  0  0999 V2000
  143.7920   68.8690  219.6440 C   0  0  0  0  0  0  0  0  0  0  0  0
  145.1670   68.7950  218.9660 C   0  0  0  0  0  0  0  0  0  0  0  0
  144.8660   68.0820  217.6200 C   0  0  0  0  0  0  0  0  0  0  0  0
  146.0220   67.8520  219.7280 C   0  0  0  0  0  0  0  0  0  0  0  0
  145.6980   70.1610  218.6860 C   0  0  0  0  0  0  0  0  0  0  0  0
  145.5670   71.1550  219.6940 N   0  0  0  0  0  0  0  0  0  0  0  0
  145.8780   72.5270  219.6180 C   0  0  0  0  0  0  0  0  0  0  0  0
  146.3260   73.0940  218.5960 O   0  0  0  0  0  0  0  0  0  0  0  0
  145.6700   73.3890  220.8160 C   0  0  0  0  0  0  0  0  0  0  0  0
  144.4010   74.0220  220.8480 N   0  0  0  0  0  0  0  0  0  0  0  0
  143.2260   73.2650  220.8320 C   0  0  0  0  0  0  0  0  0  0  0  0
  143.3630   71.9920  220.7930 O   0  0  0  0  0  0  0  0  0  0  0  0
  141.8510   73.7720  220.8580 C   0  0  0  0  0  0  0  0  0  0  0  0
  141.6840   75.1820  220.7620 N   0  0  0  0  0  0  0  0  0  0  0  0
  142.4140   75.9600  219.8460 C   0  0  0  0  0  0  0  0  0  0  0  0
  143.2650   75.4950  219.0340 O   0  0  0  0  0  0  0  0  0  0  0  0
  142.1880   77.4190  219.8120 C   0  0  0  0  0  0  0  0  0  0  0  0
  142.4330   78.1700  218.6880 C   0  0  0  0  0  0  0  0  0  0  0  0
  142.2110   79.5510  218.6800 C   0  0  0  0  0  0  0  0  0  0  0  0
  141.7400   80.1630  219.8200 C   0  0  0  0  0  0  0  0  0  0  0  0
  141.4880   81.5100  219.9200 C   0  0  0  0  0  0  0  0  0  0  0  0
  141.0150   82.0860  221.0820 C   0  0  0  0  0  0  0  0  0  0  0  0
  140.6930   83.8050  221.2140 Cl  0  0  0  0  0  0  0  0  0  0  0  0
  140.7710   81.3120  222.2190 C   0  0  0  0  0  0  0  0  0  0  0  0
  141.0260   79.9700  222.1030 C   0  0  0  0  0  0  0  0  0  0  0  0
  141.4960   79.3920  220.9490 C   0  0  0  0  0  0  0  0  0  0  0  0
  141.7290   78.0680  220.8960 N   0  0  0  0  0  0  0  0  0  0  0  0
  143.9210   68.8621  220.7364 H   0  0  0  0  0  0  0  0  0  0  0  0
  143.2831   69.7958  219.3408 H   0  0  0  0  0  0  0  0  0  0  0  0
  143.1865   68.0021  219.3408 H   0  0  0  0  0  0  0  0  0  0  0  0
  144.4452   67.0853  217.8191 H   0  0  0  0  0  0  0  0  0  0  0  0
  144.1423   68.6771  217.0437 H   0  0  0  0  0  0  0  0  0  0  0  0
  145.7972   67.9784  217.0437 H   0  0  0  0  0  0  0  0  0  0  0  0
  145.8755   68.0136  220.8062 H   0  0  0  0  0  0  0  0  0  0  0  0
  145.7468   66.8183  219.4714 H   0  0  0  0  0  0  0  0  0  0  0  0
  147.0776   68.0249  219.4714 H   0  0  0  0  0  0  0  0  0  0  0  0
  146.7715   70.0552  218.4706 H   0  0  0  0  0  0  0  0  0  0  0  0
  145.0745   70.5301  217.8583 H   0  0  0  0  0  0  0  0  0  0  0  0
  145.1850   70.8330  220.6430 H   0  0  0  0  0  0  0  0  0  0  0  0
  145.7693   72.7637  221.7155 H   0  0  0  0  0  0  0  0  0  0  0  0
  146.4267   74.1863  220.7744 H   0  0  0  0  0  0  0  0  0  0  0  0
  144.3340   75.0550  220.8910 H   0  0  0  0  0  0  0  0  0  0  0  0
  141.3121   73.3151  220.0149 H   0  0  0  0  0  0  0  0  0  0  0  0
  141.4647   73.5040  221.8525 H   0  0  0  0  0  0  0  0  0  0  0  0
  140.9900   75.6810  221.3940 H   0  0  0  0  0  0  0  0  0  0  0  0
  142.8099   77.6773  217.7796 H   0  0  0  0  0  0  0  0  0  0  0  0
  142.4104   80.1413  217.7735 H   0  0  0  0  0  0  0  0  0  0  0  0
  141.6693   82.1510  219.0446 H   0  0  0  0  0  0  0  0  0  0  0  0
  140.3958   81.7540  223.1538 H   0  0  0  0  0  0  0  0  0  0  0  0
  140.8456   79.3253  222.9758 H   0  0  0  0  0  0  0  0  0  0  0  0
  1  2  1  0
  2  3  1  0
  2  4  1  0
  2  5  1  0
  5  6  1  0
  6  7  1  0
  7  8  2  0
  7  9  1  0
  9 10  1  0
 10 11  1  0
 11 12  2  0
 11 13  1  0
 13 14  1  0
 14 15  1  0
 15 16  2  0
 15 17  1  0
 17 18  2  0
 18 19  1  0
 19 20  2  0
 20 21  1  0
 21 22  2  0
 22 23  1  0
 22 24  1  0
 24 25  2  0
 25 26  1  0
 26 27  2  0
 27 17  1  0
 26 20  1  0
  1 28  1  0
  1 29  1  0
  1 30  1  0
  3 31  1  0
  3 32  1  0
  3 33  1  0
  4 34  1  0
  4 35  1  0
  4 36  1  0
  5 37  1  0
  5 38  1  0
  6 39  1  0
  9 40  1  0
  9 41  1  0
 10 42  1  0
 13 43  1  0
 13 44  1  0
 14 45  1  0
 18 46  1  0
 19 47  1  0
 21 48  1  0
 24 49  1  0
 25 50  1  0
M  END
>  <smiles>  (7) 
CC(C)(C)CNC(=O)CNC(=O)CNC(=O)c1ccc2cc(Cl)ccc2n1

>  <score_type>  (7) 
oracle

>  <origin>  (7) 
autodockgpu

>  <m_score__min__energy>  (7) 
-8.0299999999999994

>  <m_primary>  (7) 
energy

>  <rmsd>  (7) 
9.959813932704174

>  <m_score__min__rmsd>  (7) 
9.959813932704174

>  <meeko>  (7) 
{"free_energy": -6.04, "intermolecular_energy": -8.13, "internal_energy": -2.52, "cluster_size": 1, "cluster_id": 6, "rank_in_cluster": 1}

>  <energy>  (7) 
-7.71

>  <cluster_rmsd>  (7) 
1.58

>  <cluster>  (7) 
1

$$$$

     RDKit          3D

 50 51  0  0  0  0  0  0  0  0999 V2000
  143.0390   80.6240  222.9570 C   0  0  0  0  0  0  0  0  0  0  0  0
  141.6810   80.0410  222.5440 C   0  0  0  0  0  0  0  0  0  0  0  0
  141.8360   79.8200  221.0150 C   0  0  0  0  0  0  0  0  0  0  0  0
  140.6480   81.0960  222.6860 C   0  0  0  0  0  0  0  0  0  0  0  0
  141.4410   78.7240  223.2050 C   0  0  0  0  0  0  0  0  0  0  0  0
  140.2880   77.9830  222.8300 N   0  0  0  0  0  0  0  0  0  0  0  0
  138.9340   78.2780  223.0870 C   0  0  0  0  0  0  0  0  0  0  0  0
  138.5370   79.2930  223.7030 O   0  0  0  0  0  0  0  0  0  0  0  0
  137.8800   77.3420  222.6050 C   0  0  0  0  0  0  0  0  0  0  0  0
  138.3400   76.0130  222.4220 N   0  0  0  0  0  0  0  0  0  0  0  0
  139.0840   75.6650  221.2900 C   0  0  0  0  0  0  0  0  0  0  0  0
  139.3260   76.6030  220.4520 O   0  0  0  0  0  0  0  0  0  0  0  0
  139.6220   74.3420  220.9620 C   0  0  0  0  0  0  0  0  0  0  0  0
  139.6970   73.3970  222.0230 N   0  0  0  0  0  0  0  0  0  0  0  0
  139.5660   72.0150  221.8050 C   0  0  0  0  0  0  0  0  0  0  0  0
  139.3780   71.4870  220.6700 O   0  0  0  0  0  0  0  0  0  0  0  0
  139.6500   71.1000  222.9610 C   0  0  0  0  0  0  0  0  0  0  0  0
  139.1830   69.8090  222.9050 C   0  0  0  0  0  0  0  0  0  0  0  0
  139.2730   68.9600  224.0130 C   0  0  0  0  0  0  0  0  0  0  0  0
  139.8400   69.4310  225.1770 C   0  0  0  0  0  0  0  0  0  0  0  0
  139.9780   68.6840  226.3210 C   0  0  0  0  0  0  0  0  0  0  0  0
  140.5530   69.1930  227.4680 C   0  0  0  0  0  0  0  0  0  0  0  0
  140.7300   68.2420  228.9310 Cl  0  0  0  0  0  0  0  0  0  0  0  0
  141.0230   70.5080  227.5120 C   0  0  0  0  0  0  0  0  0  0  0  0
  140.8770   71.2400  226.3630 C   0  0  0  0  0  0  0  0  0  0  0  0
  140.3080   70.7390  225.2180 C   0  0  0  0  0  0  0  0  0  0  0  0
  140.1930   71.5060  224.1210 N   0  0  0  0  0  0  0  0  0  0  0  0
  143.1070   80.6532  224.0545 H   0  0  0  0  0  0  0  0  0  0  0  0
  143.8461   79.9931  222.5563 H   0  0  0  0  0  0  0  0  0  0  0  0
  143.1374   81.6437  222.5563 H   0  0  0  0  0  0  0  0  0  0  0  0
  142.4590   78.9317  220.8342 H   0  0  0  0  0  0  0  0  0  0  0  0
  140.8441   79.6702  220.5638 H   0  0  0  0  0  0  0  0  0  0  0  0
  142.3147   80.7016  220.5638 H   0  0  0  0  0  0  0  0  0  0  0  0
  140.4621   81.2858  223.7534 H   0  0  0  0  0  0  0  0  0  0  0  0
  140.9997   82.0206  222.2049 H   0  0  0  0  0  0  0  0  0  0  0  0
  139.7162   80.7639  222.2049 H   0  0  0  0  0  0  0  0  0  0  0  0
  142.3166   78.0912  222.9979 H   0  0  0  0  0  0  0  0  0  0  0  0
  141.2694   78.9774  224.2616 H   0  0  0  0  0  0  0  0  0  0  0  0
  140.4530   77.0770  222.2810 H   0  0  0  0  0  0  0  0  0  0  0  0
  137.0635   77.3288  223.3420 H   0  0  0  0  0  0  0  0  0  0  0  0
  137.5504   77.7071  221.6211 H   0  0  0  0  0  0  0  0  0  0  0  0
  138.1320   75.2860  223.1300 H   0  0  0  0  0  0  0  0  0  0  0  0
  138.9851   73.9097  220.1762 H   0  0  0  0  0  0  0  0  0  0  0  0
  140.6654   74.5223  220.6640 H   0  0  0  0  0  0  0  0  0  0  0  0
  139.8580   73.7280  223.0210 H   0  0  0  0  0  0  0  0  0  0  0  0
  138.7310   69.4371  221.9737 H   0  0  0  0  0  0  0  0  0  0  0  0
  138.8955   67.9284  223.9557 H   0  0  0  0  0  0  0  0  0  0  0  0
  139.6180   67.6446  226.3234 H   0  0  0  0  0  0  0  0  0  0  0  0
  141.4836   70.9312  228.4168 H   0  0  0  0  0  0  0  0  0  0  0  0
  141.2333   72.2807  226.3575 H   0  0  0  0  0  0  0  0  0  0  0  0
  1  2  1  0
  2  3  1  0
  2  4  1  0
  2  5  1  0
  5  6  1  0
  6  7  1  0
  7  8  2  0
  7  9  1  0
  9 10  1  0
 10 11  1  0
 11 12  2  0
 11 13  1  0
 13 14  1  0
 14 15  1  0
 15 16  2  0
 15 17  1  0
 17 18  2  0
 18 19  1  0
 19 20  2  0
 20 21  1  0
 21 22  2  0
 22 23  1  0
 22 24  1  0
 24 25  2  0
 25 26  1  0
 26 27  2  0
 27 17  1  0
 26 20  1  0
  1 28  1  0
  1 29  1  0
  1 30  1  0
  3 31  1  0
  3 32  1  0
  3 33  1  0
  4 34  1  0
  4 35  1  0
  4 36  1  0
  5 37  1  0
  5 38  1  0
  6 39  1  0
  9 40  1  0
  9 41  1  0
 10 42  1  0
 13 43  1  0
 13 44  1  0
 14 45  1  0
 18 46  1  0
 19 47  1  0
 21 48  1  0
 24 49  1  0
 25 50  1  0
M  END
>  <smiles>  (8) 
CC(C)(C)CNC(=O)CNC(=O)CNC(=O)c1ccc2cc(Cl)ccc2n1

>  <score_type>  (8) 
oracle

>  <origin>  (8) 
autodockgpu

>  <m_score__min__energy>  (8) 
-8.0299999999999994

>  <m_primary>  (8) 
energy

>  <rmsd>  (8) 
2.1091789473290237

>  <m_score__min__rmsd>  (8) 
2.1091789473290237

>  <meeko>  (8) 
{"free_energy": -7.27, "intermolecular_energy": -9.36, "internal_energy": -2.0, "cluster_size": 39, "cluster_id": 1, "rank_in_cluster": 22}

>  <energy>  (8) 
-7.66

>  <cluster_rmsd>  (8) 
1.42

>  <cluster>  (8) 
1

$$$$

     RDKit          3D

 50 51  0  0  0  0  0  0  0  0999 V2000
  143.5720   80.5150  223.4340 C   0  0  0  0  0  0  0  0  0  0  0  0
  142.1310   80.0910  223.1170 C   0  0  0  0  0  0  0  0  0  0  0  0
  142.1080   80.0360  221.5640 C   0  0  0  0  0  0  0  0  0  0  0  0
  141.2180   81.2010  223.4840 C   0  0  0  0  0  0  0  0  0  0  0  0
  141.8430   78.7300  223.6560 C   0  0  0  0  0  0  0  0  0  0  0  0
  140.8210   77.9620  223.0360 N   0  0  0  0  0  0  0  0  0  0  0  0
  139.4270   78.1600  223.0790 C   0  0  0  0  0  0  0  0  0  0  0  0
  138.8650   79.0940  223.6940 O   0  0  0  0  0  0  0  0  0  0  0  0
  138.5330   77.2120  222.3560 C   0  0  0  0  0  0  0  0  0  0  0  0
  139.0890   75.9170  222.1930 N   0  0  0  0  0  0  0  0  0  0  0  0
  140.0360   75.6680  221.1950 C   0  0  0  0  0  0  0  0  0  0  0  0
  140.3690   76.6610  220.4580 O   0  0  0  0  0  0  0  0  0  0  0  0
  140.6930   74.3910  220.9030 C   0  0  0  0  0  0  0  0  0  0  0  0
  140.6660   73.4060  221.9290 N   0  0  0  0  0  0  0  0  0  0  0  0
  139.6590   72.4280  222.0010 C   0  0  0  0  0  0  0  0  0  0  0  0
  138.7030   72.3270  221.1780 O   0  0  0  0  0  0  0  0  0  0  0  0
  139.6980   71.4440  223.1010 C   0  0  0  0  0  0  0  0  0  0  0  0
  139.1460   70.1910  222.9800 C   0  0  0  0  0  0  0  0  0  0  0  0
  139.1950   69.2750  224.0360 C   0  0  0  0  0  0  0  0  0  0  0  0
  139.8090   69.6400  225.2140 C   0  0  0  0  0  0  0  0  0  0  0  0
  139.9130   68.8200  226.3110 C   0  0  0  0  0  0  0  0  0  0  0  0
  140.5370   69.2230  227.4750 C   0  0  0  0  0  0  0  0  0  0  0  0
  140.6710   68.1780  228.8780 Cl  0  0  0  0  0  0  0  0  0  0  0  0
  141.0940   70.4990  227.5860 C   0  0  0  0  0  0  0  0  0  0  0  0
  140.9810   71.3050  226.4830 C   0  0  0  0  0  0  0  0  0  0  0  0
  140.3630   70.9090  225.3220 C   0  0  0  0  0  0  0  0  0  0  0  0
  140.2840   71.7460  224.2720 N   0  0  0  0  0  0  0  0  0  0  0  0
  143.7107   80.5558  224.5245 H   0  0  0  0  0  0  0  0  0  0  0  0
  144.2724   79.7849  223.0023 H   0  0  0  0  0  0  0  0  0  0  0  0
  143.7654   81.5081  223.0023 H   0  0  0  0  0  0  0  0  0  0  0  0
  141.7028   79.0669  221.2374 H   0  0  0  0  0  0  0  0  0  0  0  0
  141.4738   80.8475  221.1777 H   0  0  0  0  0  0  0  0  0  0  0  0
  143.1311   80.1546  221.1777 H   0  0  0  0  0  0  0  0  0  0  0  0
  141.1553   81.2772  224.5796 H   0  0  0  0  0  0  0  0  0  0  0  0
  141.6045   82.1450  223.0723 H   0  0  0  0  0  0  0  0  0  0  0  0
  140.2172   81.0039  223.0723 H   0  0  0  0  0  0  0  0  0  0  0  0
  142.7743   78.1487  223.5871 H   0  0  0  0  0  0  0  0  0  0  0  0
  141.4646   78.9151  224.6721 H   0  0  0  0  0  0  0  0  0  0  0  0
  141.1360   77.1170  222.4560 H   0  0  0  0  0  0  0  0  0  0  0  0
  137.5948   77.1185  222.9225 H   0  0  0  0  0  0  0  0  0  0  0  0
  138.3749   77.6236  221.3483 H   0  0  0  0  0  0  0  0  0  0  0  0
  138.8000   75.1430  222.8180 H   0  0  0  0  0  0  0  0  0  0  0  0
  140.2049   73.9609  220.0160 H   0  0  0  0  0  0  0  0  0  0  0  0
  141.7565   74.6385  220.7698 H   0  0  0  0  0  0  0  0  0  0  0  0
  141.4240   73.3920  222.6750 H   0  0  0  0  0  0  0  0  0  0  0  0
  138.6576   69.9039  222.0371 H   0  0  0  0  0  0  0  0  0  0  0  0
  138.7488   68.2755  223.9272 H   0  0  0  0  0  0  0  0  0  0  0  0
  139.4847   67.8081  226.2606 H   0  0  0  0  0  0  0  0  0  0  0  0
  141.5943   70.8375  228.5053 H   0  0  0  0  0  0  0  0  0  0  0  0
  141.4060   72.3185  226.5300 H   0  0  0  0  0  0  0  0  0  0  0  0
  1  2  1  0
  2  3  1  0
  2  4  1  0
  2  5  1  0
  5  6  1  0
  6  7  1  0
  7  8  2  0
  7  9  1  0
  9 10  1  0
 10 11  1  0
 11 12  2  0
 11 13  1  0
 13 14  1  0
 14 15  1  0
 15 16  2  0
 15 17  1  0
 17 18  2  0
 18 19  1  0
 19 20  2  0
 20 21  1  0
 21 22  2  0
 22 23  1  0
 22 24  1  0
 24 25  2  0
 25 26  1  0
 26 27  2  0
 27 17  1  0
 26 20  1  0
  1 28  1  0
  1 29  1  0
  1 30  1  0
  3 31  1  0
  3 32  1  0
  3 33  1  0
  4 34  1  0
  4 35  1  0
  4 36  1  0
  5 37  1  0
  5 38  1  0
  6 39  1  0
  9 40  1  0
  9 41  1  0
 10 42  1  0
 13 43  1  0
 13 44  1  0
 14 45  1  0
 18 46  1  0
 19 47  1  0
 21 48  1  0
 24 49  1  0
 25 50  1  0
M  END
>  <smiles>  (9) 
CC(C)(C)CNC(=O)CNC(=O)CNC(=O)c1ccc2cc(Cl)ccc2n1

>  <score_type>  (9) 
oracle

>  <origin>  (9) 
autodockgpu

>  <m_score__min__energy>  (9) 
-8.0299999999999994

>  <m_primary>  (9) 
energy

>  <rmsd>  (9) 
2.2745469968382115

>  <m_score__min__rmsd>  (9) 
2.2745469968382115

>  <meeko>  (9) 
{"free_energy": -7.42, "intermolecular_energy": -9.51, "internal_energy": -2.12, "cluster_size": 39, "cluster_id": 1, "rank_in_cluster": 16}

>  <energy>  (9) 
-7.62

>  <cluster_rmsd>  (9) 
0.67

>  <cluster>  (9) 
1

$$$$

     RDKit          3D

 50 51  0  0  0  0  0  0  0  0999 V2000
  141.7420   81.9080  222.0800 C   0  0  0  0  0  0  0  0  0  0  0  0
  141.8950   80.4600  222.5660 C   0  0  0  0  0  0  0  0  0  0  0  0
  140.9640   80.3990  223.8080 C   0  0  0  0  0  0  0  0  0  0  0  0
  143.2690   80.2790  223.0970 C   0  0  0  0  0  0  0  0  0  0  0  0
  141.4010   79.4960  221.5400 C   0  0  0  0  0  0  0  0  0  0  0  0
  140.2070   78.7750  221.8120 N   0  0  0  0  0  0  0  0  0  0  0  0
  140.0660   77.4850  222.3590 C   0  0  0  0  0  0  0  0  0  0  0  0
  141.0240   76.7580  222.7090 O   0  0  0  0  0  0  0  0  0  0  0  0
  138.7020   76.9160  222.5460 C   0  0  0  0  0  0  0  0  0  0  0  0
  138.6310   75.5180  222.3180 N   0  0  0  0  0  0  0  0  0  0  0  0
  137.9680   75.0120  221.1960 C   0  0  0  0  0  0  0  0  0  0  0  0
  137.4450   75.8700  220.4010 O   0  0  0  0  0  0  0  0  0  0  0  0
  137.8080   73.6020  220.8280 C   0  0  0  0  0  0  0  0  0  0  0  0
  138.1010   72.6390  221.8340 N   0  0  0  0  0  0  0  0  0  0  0  0
  139.3500   72.5840  222.4760 C   0  0  0  0  0  0  0  0  0  0  0  0
  140.3120   73.3700  222.2330 O   0  0  0  0  0  0  0  0  0  0  0  0
  139.5770   71.5500  223.5060 C   0  0  0  0  0  0  0  0  0  0  0  0
  139.2990   70.2230  223.2820 C   0  0  0  0  0  0  0  0  0  0  0  0
  139.5220   69.2620  224.2730 C   0  0  0  0  0  0  0  0  0  0  0  0
  140.0300   69.6570  225.4920 C   0  0  0  0  0  0  0  0  0  0  0  0
  140.2860   68.7970  226.5310 C   0  0  0  0  0  0  0  0  0  0  0  0
  140.7960   69.2330  227.7380 C   0  0  0  0  0  0  0  0  0  0  0  0
  141.1240   68.1380  229.0680 Cl  0  0  0  0  0  0  0  0  0  0  0  0
  141.0740   70.5850  227.9530 C   0  0  0  0  0  0  0  0  0  0  0  0
  140.8120   71.4300  226.9060 C   0  0  0  0  0  0  0  0  0  0  0  0
  140.3070   71.0020  225.7030 C   0  0  0  0  0  0  0  0  0  0  0  0
  140.0700   71.8790  224.7120 N   0  0  0  0  0  0  0  0  0  0  0  0
  141.6710   82.5804  222.9477 H   0  0  0  0  0  0  0  0  0  0  0  0
  142.6159   82.1850  221.4720 H   0  0  0  0  0  0  0  0  0  0  0  0
  140.8295   81.9962  221.4720 H   0  0  0  0  0  0  0  0  0  0  0  0
  141.5717   80.4388  224.7241 H   0  0  0  0  0  0  0  0  0  0  0  0
  140.2718   81.2537  223.7897 H   0  0  0  0  0  0  0  0  0  0  0  0
  140.3893   79.4613  223.7897 H   0  0  0  0  0  0  0  0  0  0  0  0
  143.2406   80.2827  224.1966 H   0  0  0  0  0  0  0  0  0  0  0  0
  143.6751   79.3196  222.7440 H   0  0  0  0  0  0  0  0  0  0  0  0
  143.9097   81.1005  222.7440 H   0  0  0  0  0  0  0  0  0  0  0  0
  141.2342   80.0642  220.6130 H   0  0  0  0  0  0  0  0  0  0  0  0
  142.1814   78.7220  221.4970 H   0  0  0  0  0  0  0  0  0  0  0  0
  139.2830   79.2640  221.5740 H   0  0  0  0  0  0  0  0  0  0  0  0
  138.3809   77.1161  223.5789 H   0  0  0  0  0  0  0  0  0  0  0  0
  138.0487   77.3964  221.8027 H   0  0  0  0  0  0  0  0  0  0  0  0
  139.0770   74.8580  222.9790 H   0  0  0  0  0  0  0  0  0  0  0  0
  136.7620   73.4548  220.5210 H   0  0  0  0  0  0  0  0  0  0  0  0
  138.5502   73.4254  220.0356 H   0  0  0  0  0  0  0  0  0  0  0  0
  137.3640   71.9290  222.1230 H   0  0  0  0  0  0  0  0  0  0  0  0
  138.8946   69.9118  222.3075 H   0  0  0  0  0  0  0  0  0  0  0  0
  139.2946   68.2028  224.0820 H   0  0  0  0  0  0  0  0  0  0  0  0
  140.0780   67.7251  226.3977 H   0  0  0  0  0  0  0  0  0  0  0  0
  141.4799   70.9506  228.9078 H   0  0  0  0  0  0  0  0  0  0  0  0
  141.0162   72.5031  227.0358 H   0  0  0  0  0  0  0  0  0  0  0  0
  1  2  1  0
  2  3  1  0
  2  4  1  0
  2  5  1  0
  5  6  1  0
  6  7  1  0
  7  8  2  0
  7  9  1  0
  9 10  1  0
 10 11  1  0
 11 12  2  0
 11 13  1  0
 13 14  1  0
 14 15  1  0
 15 16  2  0
 15 17  1  0
 17 18  2  0
 18 19  1  0
 19 20  2  0
 20 21  1  0
 21 22  2  0
 22 23  1  0
 22 24  1  0
 24 25  2  0
 25 26  1  0
 26 27  2  0
 27 17  1  0
 26 20  1  0
  1 28  1  0
  1 29  1  0
  1 30  1  0
  3 31  1  0
  3 32  1  0
  3 33  1  0
  4 34  1  0
  4 35  1  0
  4 36  1  0
  5 37  1  0
  5 38  1  0
  6 39  1  0
  9 40  1  0
  9 41  1  0
 10 42  1  0
 13 43  1  0
 13 44  1  0
 14 45  1  0
 18 46  1  0
 19 47  1  0
 21 48  1  0
 24 49  1  0
 25 50  1  0
M  END
>  <smiles>  (10) 
CC(C)(C)CNC(=O)CNC(=O)CNC(=O)c1ccc2cc(Cl)ccc2n1

>  <score_type>  (10) 
oracle

>  <origin>  (10) 
autodockgpu

>  <m_score__min__energy>  (10) 
-8.0299999999999994

>  <m_primary>  (10) 
energy

>  <rmsd>  (10) 
1.9662675729670644

>  <m_score__min__rmsd>  (10) 
1.9662675729670644

>  <meeko>  (10) 
{"free_energy": -7.74, "intermolecular_energy": -9.83, "internal_energy": -1.89, "cluster_size": 39, "cluster_id": 1, "rank_in_cluster": 5}

>  <energy>  (10) 
-7.61

>  <cluster_rmsd>  (10) 
1.59

>  <cluster>  (10) 
1

$$$$

     RDKit          3D

 50 51  0  0  0  0  0  0  0  0999 V2000
  140.0580   80.6200  223.6970 C   0  0  0  0  0  0  0  0  0  0  0  0
  141.5460   80.3700  223.4150 C   0  0  0  0  0  0  0  0  0  0  0  0
  141.8190   79.0090  224.1140 C   0  0  0  0  0  0  0  0  0  0  0  0
  142.3470   81.3660  224.1690 C   0  0  0  0  0  0  0  0  0  0  0  0
  141.7960   80.2240  221.9510 C   0  0  0  0  0  0  0  0  0  0  0  0
  142.1900   78.9510  221.4580 N   0  0  0  0  0  0  0  0  0  0  0  0
  141.3970   77.9690  220.8320 C   0  0  0  0  0  0  0  0  0  0  0  0
  140.1730   78.0920  220.6000 O   0  0  0  0  0  0  0  0  0  0  0  0
  142.0260   76.6880  220.4040 C   0  0  0  0  0  0  0  0  0  0  0  0
  141.1090   75.6110  220.2990 N   0  0  0  0  0  0  0  0  0  0  0  0
  141.4550   74.4440  219.6110 C   0  0  0  0  0  0  0  0  0  0  0  0
  142.6280   74.4060  219.0980 O   0  0  0  0  0  0  0  0  0  0  0  0
  140.6200   73.2550  219.4160 C   0  0  0  0  0  0  0  0  0  0  0  0
  140.5090   72.3610  220.5170 N   0  0  0  0  0  0  0  0  0  0  0  0
  140.1990   72.8060  221.8130 C   0  0  0  0  0  0  0  0  0  0  0  0
  139.9870   74.0150  222.1210 O   0  0  0  0  0  0  0  0  0  0  0  0
  140.1080   71.8150  222.9040 C   0  0  0  0  0  0  0  0  0  0  0  0
  139.5520   70.5720  222.7160 C   0  0  0  0  0  0  0  0  0  0  0  0
  139.4770   69.6490  223.7660 C   0  0  0  0  0  0  0  0  0  0  0  0
  139.9690   69.9980  225.0040 C   0  0  0  0  0  0  0  0  0  0  0  0
  139.9450   69.1690  226.1000 C   0  0  0  0  0  0  0  0  0  0  0  0
  140.4480   69.5560  227.3260 C   0  0  0  0  0  0  0  0  0  0  0  0
  140.4180   68.5020  228.7270 Cl  0  0  0  0  0  0  0  0  0  0  0  0
  141.0090   70.8230  227.5040 C   0  0  0  0  0  0  0  0  0  0  0  0
  141.0250   71.6370  226.4010 C   0  0  0  0  0  0  0  0  0  0  0  0
  140.5270   71.2570  225.1790 C   0  0  0  0  0  0  0  0  0  0  0  0
  140.5710   72.1010  224.1330 N   0  0  0  0  0  0  0  0  0  0  0  0
  139.8905   80.6482  224.7838 H   0  0  0  0  0  0  0  0  0  0  0  0
  139.7574   81.5812  223.2547 H   0  0  0  0  0  0  0  0  0  0  0  0
  139.4598   79.8098  223.2547 H   0  0  0  0  0  0  0  0  0  0  0  0
  141.7917   79.1452  225.2052 H   0  0  0  0  0  0  0  0  0  0  0  0
  141.0487   78.2826  223.8158 H   0  0  0  0  0  0  0  0  0  0  0  0
  142.8099   78.6359  223.8158 H   0  0  0  0  0  0  0  0  0  0  0  0
  142.2147   81.2015  225.2486 H   0  0  0  0  0  0  0  0  0  0  0  0
  143.4099   81.2546  223.9087 H   0  0  0  0  0  0  0  0  0  0  0  0
  142.0101   82.3803  223.9087 H   0  0  0  0  0  0  0  0  0  0  0  0
  140.8659   80.5002  221.4328 H   0  0  0  0  0  0  0  0  0  0  0  0
  142.6652   80.8702  221.7586 H   0  0  0  0  0  0  0  0  0  0  0  0
  143.2230   78.6870  221.5730 H   0  0  0  0  0  0  0  0  0  0  0  0
  142.4947   76.8424  219.4209 H   0  0  0  0  0  0  0  0  0  0  0  0
  142.7574   76.4138  221.1785 H   0  0  0  0  0  0  0  0  0  0  0  0
  140.1730   75.6770  220.7380 H   0  0  0  0  0  0  0  0  0  0  0  0
  139.6061   73.5984  219.1628 H   0  0  0  0  0  0  0  0  0  0  0  0
  141.1221   72.6773  218.6260 H   0  0  0  0  0  0  0  0  0  0  0  0
  140.6620   71.3180  220.3740 H   0  0  0  0  0  0  0  0  0  0  0  0
  139.1600   70.2983  221.7253 H   0  0  0  0  0  0  0  0  0  0  0  0
  139.0304   68.6569  223.6041 H   0  0  0  0  0  0  0  0  0  0  0  0
  139.5106   68.1637  225.9969 H   0  0  0  0  0  0  0  0  0  0  0  0
  141.4145   71.1487  228.4733 H   0  0  0  0  0  0  0  0  0  0  0  0
  141.4578   72.6435  226.4997 H   0  0  0  0  0  0  0  0  0  0  0  0
  1  2  1  0
  2  3  1  0
  2  4  1  0
  2  5  1  0
  5  6  1  0
  6  7  1  0
  7  8  2  0
  7  9  1  0
  9 10  1  0
 10 11  1  0
 11 12  2  0
 11 13  1  0
 13 14  1  0
 14 15  1  0
 15 16  2  0
 15 17  1  0
 17 18  2  0
 18 19  1  0
 19 20  2  0
 20 21  1  0
 21 22  2  0
 22 23  1  0
 22 24  1  0
 24 25  2  0
 25 26  1  0
 26 27  2  0
 27 17  1  0
 26 20  1  0
  1 28  1  0
  1 29  1  0
  1 30  1  0
  3 31  1  0
  3 32  1  0
  3 33  1  0
  4 34  1  0
  4 35  1  0
  4 36  1  0
  5 37  1  0
  5 38  1  0
  6 39  1  0
  9 40  1  0
  9 41  1  0
 10 42  1  0
 13 43  1  0
 13 44  1  0
 14 45  1  0
 18 46  1  0
 19 47  1  0
 21 48  1  0
 24 49  1  0
 25 50  1  0
M  END
>  <smiles>  (11) 
CC(C)(C)CNC(=O)CNC(=O)CNC(=O)c1ccc2cc(Cl)ccc2n1

>  <score_type>  (11) 
oracle

>  <origin>  (11) 
autodockgpu

>  <m_score__min__energy>  (11) 
-8.0299999999999994

>  <m_primary>  (11) 
energy

>  <rmsd>  (11) 
2.1999657040002862

>  <m_score__min__rmsd>  (11) 
2.1999657040002862

>  <meeko>  (11) 
{"free_energy": -7.71, "intermolecular_energy": -9.8, "internal_energy": -2.04, "cluster_size": 39, "cluster_id": 1, "rank_in_cluster": 7}

>  <energy>  (11) 
-7.6

>  <cluster_rmsd>  (11) 
1.42

>  <cluster>  (11) 
1

$$$$

     RDKit          3D

 50 51  0  0  0  0  0  0  0  0999 V2000
  142.2650   79.1250  223.4230 C   0  0  0  0  0  0  0  0  0  0  0  0
  141.2720   80.2380  223.0600 C   0  0  0  0  0  0  0  0  0  0  0  0
  141.3220   80.2690  221.5070 C   0  0  0  0  0  0  0  0  0  0  0  0
  141.8380   81.5390  223.4960 C   0  0  0  0  0  0  0  0  0  0  0  0
  139.8900   79.8860  223.4960 C   0  0  0  0  0  0  0  0  0  0  0  0
  139.1370   78.9900  222.6900 N   0  0  0  0  0  0  0  0  0  0  0  0
  139.4390   77.6580  222.3430 C   0  0  0  0  0  0  0  0  0  0  0  0
  140.4610   77.0430  222.7250 O   0  0  0  0  0  0  0  0  0  0  0  0
  138.5020   76.9020  221.4660 C   0  0  0  0  0  0  0  0  0  0  0  0
  138.9290   75.5800  221.1820 N   0  0  0  0  0  0  0  0  0  0  0  0
  138.1960   74.7640  220.3140 C   0  0  0  0  0  0  0  0  0  0  0  0
  137.1420   75.2770  219.7980 O   0  0  0  0  0  0  0  0  0  0  0  0
  138.5060   73.3850  219.9290 C   0  0  0  0  0  0  0  0  0  0  0  0
  138.6560   72.4410  220.9830 N   0  0  0  0  0  0  0  0  0  0  0  0
  139.5780   72.6280  222.0280 C   0  0  0  0  0  0  0  0  0  0  0  0
  140.3420   73.6310  222.1340 O   0  0  0  0  0  0  0  0  0  0  0  0
  139.6780   71.5990  223.0820 C   0  0  0  0  0  0  0  0  0  0  0  0
  139.2280   70.3140  222.8930 C   0  0  0  0  0  0  0  0  0  0  0  0
  139.3330   69.3560  223.9080 C   0  0  0  0  0  0  0  0  0  0  0  0
  139.8970   69.7120  225.1130 C   0  0  0  0  0  0  0  0  0  0  0  0
  140.0490   68.8520  226.1730 C   0  0  0  0  0  0  0  0  0  0  0  0
  140.6190   69.2470  227.3660 C   0  0  0  0  0  0  0  0  0  0  0  0
  140.8140   68.1520  228.7220 Cl  0  0  0  0  0  0  0  0  0  0  0  0
  141.0710   70.5570  227.5460 C   0  0  0  0  0  0  0  0  0  0  0  0
  140.9130   71.4030  226.4790 C   0  0  0  0  0  0  0  0  0  0  0  0
  140.3470   71.0150  225.2900 C   0  0  0  0  0  0  0  0  0  0  0  0
  140.2180   71.8900  224.2780 N   0  0  0  0  0  0  0  0  0  0  0  0
  142.3389   79.0422  224.5174 H   0  0  0  0  0  0  0  0  0  0  0  0
  141.9136   78.1697  223.0059 H   0  0  0  0  0  0  0  0  0  0  0  0
  143.2540   79.3656  223.0059 H   0  0  0  0  0  0  0  0  0  0  0  0
  142.2146   80.8224  221.1799 H   0  0  0  0  0  0  0  0  0  0  0  0
  141.3666   79.2399  221.1210 H   0  0  0  0  0  0  0  0  0  0  0  0
  140.4202   80.7666  221.1210 H   0  0  0  0  0  0  0  0  0  0  0  0
  141.8563   81.5810  224.5950 H   0  0  0  0  0  0  0  0  0  0  0  0
  142.8622   81.6418  223.1080 H   0  0  0  0  0  0  0  0  0  0  0  0
  141.2150   82.3584  223.1080 H   0  0  0  0  0  0  0  0  0  0  0  0
  139.9689   79.4361  224.4967 H   0  0  0  0  0  0  0  0  0  0  0  0
  139.3367   80.8349  223.4368 H   0  0  0  0  0  0  0  0  0  0  0  0
  138.2170   79.3610  222.2840 H   0  0  0  0  0  0  0  0  0  0  0  0
  137.5233   76.8511  221.9655 H   0  0  0  0  0  0  0  0  0  0  0  0
  138.4559   77.4382  220.5067 H   0  0  0  0  0  0  0  0  0  0  0  0
  139.7940   75.2070  221.6130 H   0  0  0  0  0  0  0  0  0  0  0  0
  137.6927   73.0306  219.2787 H   0  0  0  0  0  0  0  0  0  0  0  0
  139.4936   73.4367  219.4474 H   0  0  0  0  0  0  0  0  0  0  0  0
  138.0610   71.5600  220.9990 H   0  0  0  0  0  0  0  0  0  0  0  0
  138.7783   70.0342  221.9289 H   0  0  0  0  0  0  0  0  0  0  0  0
  138.9693   68.3307  223.7452 H   0  0  0  0  0  0  0  0  0  0  0  0
  139.7045   67.8127  226.0674 H   0  0  0  0  0  0  0  0  0  0  0  0
  141.5274   70.8902  228.4898 H   0  0  0  0  0  0  0  0  0  0  0  0
  141.2563   72.4431  226.5804 H   0  0  0  0  0  0  0  0  0  0  0  0
  1  2  1  0
  2  3  1  0
  2  4  1  0
  2  5  1  0
  5  6  1  0
  6  7  1  0
  7  8  2  0
  7  9  1  0
  9 10  1  0
 10 11  1  0
 11 12  2  0
 11 13  1  0
 13 14  1  0
 14 15  1  0
 15 16  2  0
 15 17  1  0
 17 18  2  0
 18 19  1  0
 19 20  2  0
 20 21  1  0
 21 22  2  0
 22 23  1  0
 22 24  1  0
 24 25  2  0
 25 26  1  0
 26 27  2  0
 27 17  1  0
 26 20  1  0
  1 28  1  0
  1 29  1  0
  1 30  1  0
  3 31  1  0
  3 32  1  0
  3 33  1  0
  4 34  1  0
  4 35  1  0
  4 36  1  0
  5 37  1  0
  5 38  1  0
  6 39  1  0
  9 40  1  0
  9 41  1  0
 10 42  1  0
 13 43  1  0
 13 44  1  0
 14 45  1  0
 18 46  1  0
 19 47  1  0
 21 48  1  0
 24 49  1  0
 25 50  1  0
M  END
>  <smiles>  (12) 
CC(C)(C)CNC(=O)CNC(=O)CNC(=O)c1ccc2cc(Cl)ccc2n1

>  <score_type>  (12) 
oracle

>  <origin>  (12) 
autodockgpu

>  <m_score__min__energy>  (12) 
-8.0299999999999994

>  <m_primary>  (12) 
energy

>  <rmsd>  (12) 
2.1949450210121695

>  <m_score__min__rmsd>  (12) 
2.1949450210121695

>  <meeko>  (12) 
{"free_energy": -7.08, "intermolecular_energy": -9.17, "internal_energy": -2.21, "cluster_size": 39, "cluster_id": 1, "rank_in_cluster": 27}

>  <energy>  (12) 
-7.57

>  <cluster_rmsd>  (12) 
1.41

>  <cluster>  (12) 
1

$$$$

     RDKit          3D

 50 51  0  0  0  0  0  0  0  0999 V2000
  141.0800   68.0690  227.3250 C   0  0  0  0  0  0  0  0  0  0  0  0
  140.1350   69.1080  226.7050 C   0  0  0  0  0  0  0  0  0  0  0  0
  141.0750   70.3040  226.3890 C   0  0  0  0  0  0  0  0  0  0  0  0
  139.2140   69.6010  227.7590 C   0  0  0  0  0  0  0  0  0  0  0  0
  139.5450   68.6010  225.4320 C   0  0  0  0  0  0  0  0  0  0  0  0
  138.3420   69.1950  224.9640 N   0  0  0  0  0  0  0  0  0  0  0  0
  138.1670   70.4430  224.3340 C   0  0  0  0  0  0  0  0  0  0  0  0
  139.0970   71.2400  224.0760 O   0  0  0  0  0  0  0  0  0  0  0  0
  136.7970   70.8740  223.9360 C   0  0  0  0  0  0  0  0  0  0  0  0
  136.7450   72.1890  223.4080 N   0  0  0  0  0  0  0  0  0  0  0  0
  135.5640   72.6870  222.8490 C   0  0  0  0  0  0  0  0  0  0  0  0
  134.5530   71.9010  222.8490 O   0  0  0  0  0  0  0  0  0  0  0  0
  135.3570   74.0160  222.2650 C   0  0  0  0  0  0  0  0  0  0  0  0
  136.4120   74.9570  222.4210 N   0  0  0  0  0  0  0  0  0  0  0  0
  137.7270   74.6810  222.0080 C   0  0  0  0  0  0  0  0  0  0  0  0
  138.0920   73.5980  221.4660 O   0  0  0  0  0  0  0  0  0  0  0  0
  138.7680   75.7090  222.2100 C   0  0  0  0  0  0  0  0  0  0  0  0
  140.0870   75.4830  221.9000 C   0  0  0  0  0  0  0  0  0  0  0  0
  141.0560   76.4730  222.1010 C   0  0  0  0  0  0  0  0  0  0  0  0
  140.6750   77.6920  222.6180 C   0  0  0  0  0  0  0  0  0  0  0  0
  141.5430   78.7300  222.8530 C   0  0  0  0  0  0  0  0  0  0  0  0
  141.1210   79.9380  223.3730 C   0  0  0  0  0  0  0  0  0  0  0  0
  142.2260   81.2650  223.6760 Cl  0  0  0  0  0  0  0  0  0  0  0  0
  139.7770   80.1540  223.6850 C   0  0  0  0  0  0  0  0  0  0  0  0
  138.9240   79.1080  223.4440 C   0  0  0  0  0  0  0  0  0  0  0  0
  139.3370   77.9060  222.9260 C   0  0  0  0  0  0  0  0  0  0  0  0
  138.4530   76.9160  222.7120 N   0  0  0  0  0  0  0  0  0  0  0  0
  141.0239   68.1307  228.4218 H   0  0  0  0  0  0  0  0  0  0  0  0
  140.7822   67.0616  226.9987 H   0  0  0  0  0  0  0  0  0  0  0  0
  142.1110   68.2703  226.9987 H   0  0  0  0  0  0  0  0  0  0  0  0
  141.4272   70.7521  227.3298 H   0  0  0  0  0  0  0  0  0  0  0  0
  141.9378   69.9483  225.8067 H   0  0  0  0  0  0  0  0  0  0  0  0
  140.5255   71.0583  225.8067 H   0  0  0  0  0  0  0  0  0  0  0  0
  139.6359   69.3752  228.7495 H   0  0  0  0  0  0  0  0  0  0  0  0
  139.0856   70.6885  227.6544 H   0  0  0  0  0  0  0  0  0  0  0  0
  138.2379   69.1048  227.6544 H   0  0  0  0  0  0  0  0  0  0  0  0
  140.3022   68.7358  224.6456 H   0  0  0  0  0  0  0  0  0  0  0  0
  139.2648   67.5614  225.6575 H   0  0  0  0  0  0  0  0  0  0  0  0
  137.4390   68.6330  225.1030 H   0  0  0  0  0  0  0  0  0  0  0  0
  136.4220   70.1776  223.1716 H   0  0  0  0  0  0  0  0  0  0  0  0
  136.1804   70.8683  224.8469 H   0  0  0  0  0  0  0  0  0  0  0  0
  137.5830   72.7980  223.4380 H   0  0  0  0  0  0  0  0  0  0  0  0
  135.1870   73.8826  221.1864 H   0  0  0  0  0  0  0  0  0  0  0  0
  134.5066   74.4433  222.8167 H   0  0  0  0  0  0  0  0  0  0  0  0
  136.2200   75.9050  222.8620 H   0  0  0  0  0  0  0  0  0  0  0  0
  140.3866   74.5084  221.4872 H   0  0  0  0  0  0  0  0  0  0  0  0
  142.1093   76.2800  221.8492 H   0  0  0  0  0  0  0  0  0  0  0  0
  142.6094   78.5949  222.6194 H   0  0  0  0  0  0  0  0  0  0  0  0
  139.4229   81.1090  224.1005 H   0  0  0  0  0  0  0  0  0  0  0  0
  137.8569   79.2385  223.6771 H   0  0  0  0  0  0  0  0  0  0  0  0
  1  2  1  0
  2  3  1  0
  2  4  1  0
  2  5  1  0
  5  6  1  0
  6  7  1  0
  7  8  2  0
  7  9  1  0
  9 10  1  0
 10 11  1  0
 11 12  2  0
 11 13  1  0
 13 14  1  0
 14 15  1  0
 15 16  2  0
 15 17  1  0
 17 18  2  0
 18 19  1  0
 19 20  2  0
 20 21  1  0
 21 22  2  0
 22 23  1  0
 22 24  1  0
 24 25  2  0
 25 26  1  0
 26 27  2  0
 27 17  1  0
 26 20  1  0
  1 28  1  0
  1 29  1  0
  1 30  1  0
  3 31  1  0
  3 32  1  0
  3 33  1  0
  4 34  1  0
  4 35  1  0
  4 36  1  0
  5 37  1  0
  5 38  1  0
  6 39  1  0
  9 40  1  0
  9 41  1  0
 10 42  1  0
 13 43  1  0
 13 44  1  0
 14 45  1  0
 18 46  1  0
 19 47  1  0
 21 48  1  0
 24 49  1  0
 25 50  1  0
M  END
>  <smiles>  (13) 
CC(C)(C)CNC(=O)CNC(=O)CNC(=O)c1ccc2cc(Cl)ccc2n1

>  <score_type>  (13) 
oracle

>  <origin>  (13) 
autodockgpu

>  <m_score__min__energy>  (13) 
-8.0299999999999994

>  <m_primary>  (13) 
energy

>  <rmsd>  (13) 
8.846525252055612

>  <m_score__min__rmsd>  (13) 
8.846525252055612

>  <meeko>  (13) 
{"free_energy": -6.48, "intermolecular_energy": -8.57, "internal_energy": -2.67, "cluster_size": 1, "cluster_id": 5, "rank_in_cluster": 1}

>  <energy>  (13) 
-7.56

>  <cluster_rmsd>  (13) 
1.92

>  <cluster>  (13) 
1

$$$$

     RDKit          3D

 50 51  0  0  0  0  0  0  0  0999 V2000
  145.6280   72.0470  219.7490 C   0  0  0  0  0  0  0  0  0  0  0  0
  144.3180   72.8400  219.8500 C   0  0  0  0  0  0  0  0  0  0  0  0
  143.4930   72.0380  220.8940 C   0  0  0  0  0  0  0  0  0  0  0  0
  143.5770   72.6990  218.5730 C   0  0  0  0  0  0  0  0  0  0  0  0
  144.5640   74.2150  220.3760 C   0  0  0  0  0  0  0  0  0  0  0  0
  143.5570   75.1990  220.1850 N   0  0  0  0  0  0  0  0  0  0  0  0
  143.2670   75.9430  219.0240 C   0  0  0  0  0  0  0  0  0  0  0  0
  143.8820   75.8280  217.9400 O   0  0  0  0  0  0  0  0  0  0  0  0
  142.1620   76.9420  219.0550 C   0  0  0  0  0  0  0  0  0  0  0  0
  140.9180   76.4010  219.4680 N   0  0  0  0  0  0  0  0  0  0  0  0
  140.5710   76.3610  220.8220 C   0  0  0  0  0  0  0  0  0  0  0  0
  141.4260   76.8380  221.6480 O   0  0  0  0  0  0  0  0  0  0  0  0
  139.3310   75.8340  221.3990 C   0  0  0  0  0  0  0  0  0  0  0  0
  139.4470   74.6800  222.2240 N   0  0  0  0  0  0  0  0  0  0  0  0
  139.7510   73.4130  221.6990 C   0  0  0  0  0  0  0  0  0  0  0  0
  139.9530   73.1790  220.4720 O   0  0  0  0  0  0  0  0  0  0  0  0
  139.8470   72.2630  222.6210 C   0  0  0  0  0  0  0  0  0  0  0  0
  139.4400   71.0010  222.2600 C   0  0  0  0  0  0  0  0  0  0  0  0
  139.5410   69.9280  223.1510 C   0  0  0  0  0  0  0  0  0  0  0  0
  140.0570   70.1450  224.4100 C   0  0  0  0  0  0  0  0  0  0  0  0
  140.2000   69.1630  225.3600 C   0  0  0  0  0  0  0  0  0  0  0  0
  140.7220   69.4210  226.6120 C   0  0  0  0  0  0  0  0  0  0  0  0
  140.9050   68.1710  227.8280 Cl  0  0  0  0  0  0  0  0  0  0  0  0
  141.1310   70.7090  226.9670 C   0  0  0  0  0  0  0  0  0  0  0  0
  140.9820   71.6770  226.0080 C   0  0  0  0  0  0  0  0  0  0  0  0
  140.4640   71.4260  224.7610 C   0  0  0  0  0  0  0  0  0  0  0  0
  140.3420   72.4170  223.8610 N   0  0  0  0  0  0  0  0  0  0  0  0
  145.9994   71.8222  220.7597 H   0  0  0  0  0  0  0  0  0  0  0  0
  145.4467   71.1069  219.2074 H   0  0  0  0  0  0  0  0  0  0  0  0
  146.3769   72.6435  219.2074 H   0  0  0  0  0  0  0  0  0  0  0  0
  143.7980   72.3345  221.9084 H   0  0  0  0  0  0  0  0  0  0  0  0
  142.4224   72.2498  220.7564 H   0  0  0  0  0  0  0  0  0  0  0  0
  143.6745   70.9618  220.7564 H   0  0  0  0  0  0  0  0  0  0  0  0
  142.5166   72.4972  218.7847 H   0  0  0  0  0  0  0  0  0  0  0  0
  143.6645   73.6299  217.9936 H   0  0  0  0  0  0  0  0  0  0  0  0
  144.0003   71.8653  217.9936 H   0  0  0  0  0  0  0  0  0  0  0  0
  144.7296   74.1244  221.4597 H   0  0  0  0  0  0  0  0  0  0  0  0
  145.4177   74.5822  219.7876 H   0  0  0  0  0  0  0  0  0  0  0  0
  142.9280   75.4170  221.0250 H   0  0  0  0  0  0  0  0  0  0  0  0
  142.4399   77.7462  219.7521 H   0  0  0  0  0  0  0  0  0  0  0  0
  142.0288   77.3072  218.0260 H   0  0  0  0  0  0  0  0  0  0  0  0
  140.2490   76.0360  218.7660 H   0  0  0  0  0  0  0  0  0  0  0  0
  138.8804   76.6331  222.0060 H   0  0  0  0  0  0  0  0  0  0  0  0
  138.7265   75.5128  220.5379 H   0  0  0  0  0  0  0  0  0  0  0  0
  139.3010   74.7590  223.2740 H   0  0  0  0  0  0  0  0  0  0  0  0
  139.0282   70.8322  221.2540 H   0  0  0  0  0  0  0  0  0  0  0  0
  139.2123   68.9223  222.8502 H   0  0  0  0  0  0  0  0  0  0  0  0
  139.8882   68.1369  225.1151 H   0  0  0  0  0  0  0  0  0  0  0  0
  141.5488   70.9334  227.9595 H   0  0  0  0  0  0  0  0  0  0  0  0
  141.2923   72.7045  226.2488 H   0  0  0  0  0  0  0  0  0  0  0  0
  1  2  1  0
  2  3  1  0
  2  4  1  0
  2  5  1  0
  5  6  1  0
  6  7  1  0
  7  8  2  0
  7  9  1  0
  9 10  1  0
 10 11  1  0
 11 12  2  0
 11 13  1  0
 13 14  1  0
 14 15  1  0
 15 16  2  0
 15 17  1  0
 17 18  2  0
 18 19  1  0
 19 20  2  0
 20 21  1  0
 21 22  2  0
 22 23  1  0
 22 24  1  0
 24 25  2  0
 25 26  1  0
 26 27  2  0
 27 17  1  0
 26 20  1  0
  1 28  1  0
  1 29  1  0
  1 30  1  0
  3 31  1  0
  3 32  1  0
  3 33  1  0
  4 34  1  0
  4 35  1  0
  4 36  1  0
  5 37  1  0
  5 38  1  0
  6 39  1  0
  9 40  1  0
  9 41  1  0
 10 42  1  0
 13 43  1  0
 13 44  1  0
 14 45  1  0
 18 46  1  0
 19 47  1  0
 21 48  1  0
 24 49  1  0
 25 50  1  0
M  END
>  <smiles>  (14) 
CC(C)(C)CNC(=O)CNC(=O)CNC(=O)c1ccc2cc(Cl)ccc2n1

>  <score_type>  (14) 
oracle

>  <origin>  (14) 
autodockgpu

>  <m_score__min__energy>  (14) 
-8.0299999999999994

>  <m_primary>  (14) 
energy

>  <rmsd>  (14) 
4.19284447223062

>  <m_score__min__rmsd>  (14) 
4.19284447223062

>  <meeko>  (14) 
{"free_energy": -6.37, "intermolecular_energy": -8.46, "internal_energy": -2.6, "cluster_size": 5, "cluster_id": 2, "rank_in_cluster": 3}

>  <energy>  (14) 
-7.55

>  <cluster_rmsd>  (14) 
1.4

>  <cluster>  (14) 
1

$$$$

     RDKit          3D

 50 51  0  0  0  0  0  0  0  0999 V2000
  141.7670   81.4180  221.8320 C   0  0  0  0  0  0  0  0  0  0  0  0
  141.8380   80.6850  223.1790 C   0  0  0  0  0  0  0  0  0  0  0  0
  140.3480   80.3890  223.5040 C   0  0  0  0  0  0  0  0  0  0  0  0
  142.2840   81.6440  224.2190 C   0  0  0  0  0  0  0  0  0  0  0  0
  142.5740   79.3930  223.0470 C   0  0  0  0  0  0  0  0  0  0  0  0
  142.1950   78.5060  222.0040 N   0  0  0  0  0  0  0  0  0  0  0  0
  141.3200   77.4030  222.0660 C   0  0  0  0  0  0  0  0  0  0  0  0
  140.7150   77.0390  223.0990 O   0  0  0  0  0  0  0  0  0  0  0  0
  141.0750   76.5960  220.8370 C   0  0  0  0  0  0  0  0  0  0  0  0
  140.2470   75.4660  221.0540 N   0  0  0  0  0  0  0  0  0  0  0  0
  138.8710   75.5340  220.8190 C   0  0  0  0  0  0  0  0  0  0  0  0
  138.4150   76.6540  220.3970 O   0  0  0  0  0  0  0  0  0  0  0  0
  137.8910   74.4580  220.9990 C   0  0  0  0  0  0  0  0  0  0  0  0
  138.1730   73.4950  222.0080 N   0  0  0  0  0  0  0  0  0  0  0  0
  139.2450   72.5920  221.9010 C   0  0  0  0  0  0  0  0  0  0  0  0
  140.0490   72.5520  220.9240 O   0  0  0  0  0  0  0  0  0  0  0  0
  139.4680   71.6190  222.9890 C   0  0  0  0  0  0  0  0  0  0  0  0
  139.1210   70.2950  222.8650 C   0  0  0  0  0  0  0  0  0  0  0  0
  139.3420   69.3910  223.9100 C   0  0  0  0  0  0  0  0  0  0  0  0
  139.9160   69.8410  225.0790 C   0  0  0  0  0  0  0  0  0  0  0  0
  140.1760   69.0400  226.1640 C   0  0  0  0  0  0  0  0  0  0  0  0
  140.7530   69.5290  227.3190 C   0  0  0  0  0  0  0  0  0  0  0  0
  141.0860   68.5100  228.7070 Cl  0  0  0  0  0  0  0  0  0  0  0  0
  141.0990   70.8780  227.4320 C   0  0  0  0  0  0  0  0  0  0  0  0
  140.8330   71.6630  226.3400 C   0  0  0  0  0  0  0  0  0  0  0  0
  140.2610   71.1820  225.1890 C   0  0  0  0  0  0  0  0  0  0  0  0
  140.0230   72.0020  224.1510 N   0  0  0  0  0  0  0  0  0  0  0  0
  141.6623   82.4988  222.0078 H   0  0  0  0  0  0  0  0  0  0  0  0
  142.6879   81.2268  221.2615 H   0  0  0  0  0  0  0  0  0  0  0  0
  140.8999   81.0536  221.2615 H   0  0  0  0  0  0  0  0  0  0  0  0
  140.2091   80.3614  224.5948 H   0  0  0  0  0  0  0  0  0  0  0  0
  139.7149   81.1789  223.0736 H   0  0  0  0  0  0  0  0  0  0  0  0
  140.0649   79.4171  223.0736 H   0  0  0  0  0  0  0  0  0  0  0  0
  142.0876   81.2217  225.2156 H   0  0  0  0  0  0  0  0  0  0  0  0
  143.3619   81.8320  224.1063 H   0  0  0  0  0  0  0  0  0  0  0  0
  141.7332   82.5895  224.1063 H   0  0  0  0  0  0  0  0  0  0  0  0
  143.6361   79.6369  222.8973 H   0  0  0  0  0  0  0  0  0  0  0  0
  142.3311   78.8464  223.9702 H   0  0  0  0  0  0  0  0  0  0  0  0
  142.6230   78.6840  221.0370 H   0  0  0  0  0  0  0  0  0  0  0  0
  140.5928   77.2413  220.0880 H   0  0  0  0  0  0  0  0  0  0  0  0
  142.0517   76.2192  220.4993 H   0  0  0  0  0  0  0  0  0  0  0  0
  140.6580   74.5740  221.3850 H   0  0  0  0  0  0  0  0  0  0  0  0
  136.9258   74.9248  221.2450 H   0  0  0  0  0  0  0  0  0  0  0  0
  137.9038   73.8961  220.0534 H   0  0  0  0  0  0  0  0  0  0  0  0
  137.5640   73.4410  222.8780 H   0  0  0  0  0  0  0  0  0  0  0  0
  138.6626   69.9405  221.9300 H   0  0  0  0  0  0  0  0  0  0  0  0
  139.0607   68.3333  223.7995 H   0  0  0  0  0  0  0  0  0  0  0  0
  139.9156   67.9726  226.1109 H   0  0  0  0  0  0  0  0  0  0  0  0
  141.5582   71.2865  228.3443 H   0  0  0  0  0  0  0  0  0  0  0  0
  141.0908   72.7313  226.3888 H   0  0  0  0  0  0  0  0  0  0  0  0
  1  2  1  0
  2  3  1  0
  2  4  1  0
  2  5  1  0
  5  6  1  0
  6  7  1  0
  7  8  2  0
  7  9  1  0
  9 10  1  0
 10 11  1  0
 11 12  2  0
 11 13  1  0
 13 14  1  0
 14 15  1  0
 15 16  2  0
 15 17  1  0
 17 18  2  0
 18 19  1  0
 19 20  2  0
 20 21  1  0
 21 22  2  0
 22 23  1  0
 22 24  1  0
 24 25  2  0
 25 26  1  0
 26 27  2  0
 27 17  1  0
 26 20  1  0
  1 28  1  0
  1 29  1  0
  1 30  1  0
  3 31  1  0
  3 32  1  0
  3 33  1  0
  4 34  1  0
  4 35  1  0
  4 36  1  0
  5 37  1  0
  5 38  1  0
  6 39  1  0
  9 40  1  0
  9 41  1  0
 10 42  1  0
 13 43  1  0
 13 44  1  0
 14 45  1  0
 18 46  1  0
 19 47  1  0
 21 48  1  0
 24 49  1  0
 25 50  1  0
M  END
>  <smiles>  (15) 
CC(C)(C)CNC(=O)CNC(=O)CNC(=O)c1ccc2cc(Cl)ccc2n1

>  <score_type>  (15) 
oracle

>  <origin>  (15) 
autodockgpu

>  <m_score__min__energy>  (15) 
-8.0299999999999994

>  <m_primary>  (15) 
energy

>  <rmsd>  (15) 
1.4953321588851607

>  <m_score__min__rmsd>  (15) 
1.4953321588851607

>  <meeko>  (15) 
{"free_energy": -7.28, "intermolecular_energy": -9.37, "internal_energy": -1.91, "cluster_size": 39, "cluster_id": 1, "rank_in_cluster": 20}

>  <energy>  (15) 
-7.55

>  <cluster_rmsd>  (15) 
1.99

>  <cluster>  (15) 
1

$$$$

     RDKit          3D

 50 51  0  0  0  0  0  0  0  0999 V2000
  140.4490   80.8860  223.2270 C   0  0  0  0  0  0  0  0  0  0  0  0
  141.7700   80.1470  222.9710 C   0  0  0  0  0  0  0  0  0  0  0  0
  142.7950   80.9410  223.8260 C   0  0  0  0  0  0  0  0  0  0  0  0
  142.1750   80.3740  221.5620 C   0  0  0  0  0  0  0  0  0  0  0  0
  141.7020   78.7430  223.4700 C   0  0  0  0  0  0  0  0  0  0  0  0
  140.8220   77.8380  222.8160 N   0  0  0  0  0  0  0  0  0  0  0  0
  139.4150   77.8010  222.8560 C   0  0  0  0  0  0  0  0  0  0  0  0
  138.7050   78.6090  223.4970 O   0  0  0  0  0  0  0  0  0  0  0  0
  138.6910   76.7440  222.0950 C   0  0  0  0  0  0  0  0  0  0  0  0
  139.3920   75.5130  222.0230 N   0  0  0  0  0  0  0  0  0  0  0  0
  140.3530   75.2980  221.0300 C   0  0  0  0  0  0  0  0  0  0  0  0
  140.5610   76.2610  220.2130 O   0  0  0  0  0  0  0  0  0  0  0  0
  141.1530   74.0860  220.8260 C   0  0  0  0  0  0  0  0  0  0  0  0
  141.0960   73.0990  221.8500 N   0  0  0  0  0  0  0  0  0  0  0  0
  139.8810   72.5400  222.2830 C   0  0  0  0  0  0  0  0  0  0  0  0
  138.7470   72.8480  221.8120 O   0  0  0  0  0  0  0  0  0  0  0  0
  139.9050   71.5250  223.3550 C   0  0  0  0  0  0  0  0  0  0  0  0
  139.4190   70.2540  223.1670 C   0  0  0  0  0  0  0  0  0  0  0  0
  139.4530   69.3090  224.1980 C   0  0  0  0  0  0  0  0  0  0  0  0
  139.9830   69.6640  225.4190 C   0  0  0  0  0  0  0  0  0  0  0  0
  140.0650   68.8160  226.4960 C   0  0  0  0  0  0  0  0  0  0  0  0
  140.6040   69.2100  227.7050 C   0  0  0  0  0  0  0  0  0  0  0  0
  140.7090   68.1300  229.0820 Cl  0  0  0  0  0  0  0  0  0  0  0  0
  141.0930   70.5070  227.8830 C   0  0  0  0  0  0  0  0  0  0  0  0
  141.0040   71.3400  226.7980 C   0  0  0  0  0  0  0  0  0  0  0  0
  140.4710   70.9530  225.5940 C   0  0  0  0  0  0  0  0  0  0  0  0
  140.4100   71.8170  224.5650 N   0  0  0  0  0  0  0  0  0  0  0  0
  140.2844   80.9781  224.3107 H   0  0  0  0  0  0  0  0  0  0  0  0
  140.4965   81.8886  222.7769 H   0  0  0  0  0  0  0  0  0  0  0  0
  139.6195   80.3209  222.7769 H   0  0  0  0  0  0  0  0  0  0  0  0
  142.5856   80.7788  224.8936 H   0  0  0  0  0  0  0  0  0  0  0  0
  143.8127   80.5932  223.5950 H   0  0  0  0  0  0  0  0  0  0  0  0
  142.7127   82.0133  223.5950 H   0  0  0  0  0  0  0  0  0  0  0  0
  143.1343   80.9117  221.5383 H   0  0  0  0  0  0  0  0  0  0  0  0
  142.2846   79.4058  221.0515 H   0  0  0  0  0  0  0  0  0  0  0  0
  141.4064   80.9728  221.0515 H   0  0  0  0  0  0  0  0  0  0  0  0
  142.7156   78.3219  223.3972 H   0  0  0  0  0  0  0  0  0  0  0  0
  141.2911   78.8353  224.4862 H   0  0  0  0  0  0  0  0  0  0  0  0
  141.2740   77.0760  222.2110 H   0  0  0  0  0  0  0  0  0  0  0  0
  137.7228   76.5643  222.5853 H   0  0  0  0  0  0  0  0  0  0  0  0
  138.5773   77.1104  221.0641 H   0  0  0  0  0  0  0  0  0  0  0  0
  139.2020   74.7630  222.7110 H   0  0  0  0  0  0  0  0  0  0  0  0
  140.8125   73.6160  219.8916 H   0  0  0  0  0  0  0  0  0  0  0  0
  142.1979   74.4295  220.8154 H   0  0  0  0  0  0  0  0  0  0  0  0
  141.9900   72.7610  222.3140 H   0  0  0  0  0  0  0  0  0  0  0  0
  138.9965   69.9749  222.1905 H   0  0  0  0  0  0  0  0  0  0  0  0
  139.0610   68.2941  224.0356 H   0  0  0  0  0  0  0  0  0  0  0  0
  139.6885   67.7877  226.3922 H   0  0  0  0  0  0  0  0  0  0  0  0
  141.5244   70.8402  228.8385 H   0  0  0  0  0  0  0  0  0  0  0  0
  141.3783   72.3696  226.8973 H   0  0  0  0  0  0  0  0  0  0  0  0
  1  2  1  0
  2  3  1  0
  2  4  1  0
  2  5  1  0
  5  6  1  0
  6  7  1  0
  7  8  2  0
  7  9  1  0
  9 10  1  0
 10 11  1  0
 11 12  2  0
 11 13  1  0
 13 14  1  0
 14 15  1  0
 15 16  2  0
 15 17  1  0
 17 18  2  0
 18 19  1  0
 19 20  2  0
 20 21  1  0
 21 22  2  0
 22 23  1  0
 22 24  1  0
 24 25  2  0
 25 26  1  0
 26 27  2  0
 27 17  1  0
 26 20  1  0
  1 28  1  0
  1 29  1  0
  1 30  1  0
  3 31  1  0
  3 32  1  0
  3 33  1  0
  4 34  1  0
  4 35  1  0
  4 36  1  0
  5 37  1  0
  5 38  1  0
  6 39  1  0
  9 40  1  0
  9 41  1  0
 10 42  1  0
 13 43  1  0
 13 44  1  0
 14 45  1  0
 18 46  1  0
 19 47  1  0
 21 48  1  0
 24 49  1  0
 25 50  1  0
M  END
>  <smiles>  (16) 
CC(C)(C)CNC(=O)CNC(=O)CNC(=O)c1ccc2cc(Cl)ccc2n1

>  <score_type>  (16) 
oracle

>  <origin>  (16) 
autodockgpu

>  <m_score__min__energy>  (16) 
-8.0299999999999994

>  <m_primary>  (16) 
energy

>  <rmsd>  (16) 
2.2478956798432512

>  <m_score__min__rmsd>  (16) 
2.2478956798432512

>  <meeko>  (16) 
{"free_energy": -7.55, "intermolecular_energy": -9.64, "internal_energy": -2.38, "cluster_size": 39, "cluster_id": 1, "rank_in_cluster": 14}

>  <energy>  (16) 
-7.42

>  <cluster_rmsd>  (16) 
1.38

>  <cluster>  (16) 
1

$$$$

     RDKit          3D

 50 51  0  0  0  0  0  0  0  0999 V2000
  143.6720   80.5150  223.4290 C   0  0  0  0  0  0  0  0  0  0  0  0
  142.1940   80.2520  223.1100 C   0  0  0  0  0  0  0  0  0  0  0  0
  142.1540   80.2730  221.5570 C   0  0  0  0  0  0  0  0  0  0  0  0
  141.3990   81.4280  223.5390 C   0  0  0  0  0  0  0  0  0  0  0  0
  141.7750   78.9020  223.5890 C   0  0  0  0  0  0  0  0  0  0  0  0
  140.5600   78.3580  223.0920 N   0  0  0  0  0  0  0  0  0  0  0  0
  139.2380   78.7260  223.4120 C   0  0  0  0  0  0  0  0  0  0  0  0
  138.9340   79.6380  224.2140 O   0  0  0  0  0  0  0  0  0  0  0  0
  138.1040   78.0020  222.7720 C   0  0  0  0  0  0  0  0  0  0  0  0
  138.3800   76.6370  222.5020 N   0  0  0  0  0  0  0  0  0  0  0  0
  139.1880   76.2740  221.4200 C   0  0  0  0  0  0  0  0  0  0  0  0
  139.6590   77.2290  220.7080 O   0  0  0  0  0  0  0  0  0  0  0  0
  139.5580   74.9150  221.0140 C   0  0  0  0  0  0  0  0  0  0  0  0
  139.6070   73.9290  222.0380 N   0  0  0  0  0  0  0  0  0  0  0  0
  139.9080   72.5830  221.7670 C   0  0  0  0  0  0  0  0  0  0  0  0
  140.1640   72.1280  220.6140 O   0  0  0  0  0  0  0  0  0  0  0  0
  139.9330   71.6190  222.8850 C   0  0  0  0  0  0  0  0  0  0  0  0
  139.4500   70.3390  222.7560 C   0  0  0  0  0  0  0  0  0  0  0  0
  139.4840   69.4440  223.8310 C   0  0  0  0  0  0  0  0  0  0  0  0
  140.0110   69.8570  225.0350 C   0  0  0  0  0  0  0  0  0  0  0  0
  140.0930   69.0600  226.1500 C   0  0  0  0  0  0  0  0  0  0  0  0
  140.6290   69.5120  227.3400 C   0  0  0  0  0  0  0  0  0  0  0  0
  140.7350   68.4980  228.7670 Cl  0  0  0  0  0  0  0  0  0  0  0  0
  141.1160   70.8160  227.4580 C   0  0  0  0  0  0  0  0  0  0  0  0
  141.0270   71.5980  226.3350 C   0  0  0  0  0  0  0  0  0  0  0  0
  140.4960   71.1540  225.1500 C   0  0  0  0  0  0  0  0  0  0  0  0
  140.4350   71.9680  224.0820 N   0  0  0  0  0  0  0  0  0  0  0  0
  143.8129   80.5401  224.5197 H   0  0  0  0  0  0  0  0  0  0  0  0
  144.2886   79.7125  222.9980 H   0  0  0  0  0  0  0  0  0  0  0  0
  143.9739   81.4810  222.9980 H   0  0  0  0  0  0  0  0  0  0  0  0
  141.2268   80.7600  221.2207 H   0  0  0  0  0  0  0  0  0  0  0  0
  143.0211   80.8321  221.1754 H   0  0  0  0  0  0  0  0  0  0  0  0
  142.1859   79.2418  221.1754 H   0  0  0  0  0  0  0  0  0  0  0  0
  141.3705   81.4702  224.6378 H   0  0  0  0  0  0  0  0  0  0  0  0
  141.8625   82.3461  223.1487 H   0  0  0  0  0  0  0  0  0  0  0  0
  140.3743   81.3401  223.1487 H   0  0  0  0  0  0  0  0  0  0  0  0
  142.5787   78.1989  223.3250 H   0  0  0  0  0  0  0  0  0  0  0  0
  141.5904   79.0408  224.6645 H   0  0  0  0  0  0  0  0  0  0  0  0
  140.6430   77.5610  222.3790 H   0  0  0  0  0  0  0  0  0  0  0  0
  137.2347   78.0544  223.4440 H   0  0  0  0  0  0  0  0  0  0  0  0
  137.9157   78.4899  221.8043 H   0  0  0  0  0  0  0  0  0  0  0  0
  137.9880   75.8950  223.1090 H   0  0  0  0  0  0  0  0  0  0  0  0
  138.8249   74.5805  220.2652 H   0  0  0  0  0  0  0  0  0  0  0  0
  140.5909   74.9969  220.6447 H   0  0  0  0  0  0  0  0  0  0  0  0
  139.4120   74.2000  223.0480 H   0  0  0  0  0  0  0  0  0  0  0  0
  139.0302   70.0130  221.7929 H   0  0  0  0  0  0  0  0  0  0  0  0
  139.0942   68.4218  223.7160 H   0  0  0  0  0  0  0  0  0  0  0  0
  139.7193   68.0269  226.0937 H   0  0  0  0  0  0  0  0  0  0  0  0
  141.5460   71.1937  228.3974 H   0  0  0  0  0  0  0  0  0  0  0  0
  141.3994   72.6317  226.3866 H   0  0  0  0  0  0  0  0  0  0  0  0
  1  2  1  0
  2  3  1  0
  2  4  1  0
  2  5  1  0
  5  6  1  0
  6  7  1  0
  7  8  2  0
  7  9  1  0
  9 10  1  0
 10 11  1  0
 11 12  2  0
 11 13  1  0
 13 14  1  0
 14 15  1  0
 15 16  2  0
 15 17  1  0
 17 18  2  0
 18 19  1  0
 19 20  2  0
 20 21  1  0
 21 22  2  0
 22 23  1  0
 22 24  1  0
 24 25  2  0
 25 26  1  0
 26 27  2  0
 27 17  1  0
 26 20  1  0
  1 28  1  0
  1 29  1  0
  1 30  1  0
  3 31  1  0
  3 32  1  0
  3 33  1  0
  4 34  1  0
  4 35  1  0
  4 36  1  0
  5 37  1  0
  5 38  1  0
  6 39  1  0
  9 40  1  0
  9 41  1  0
 10 42  1  0
 13 43  1  0
 13 44  1  0
 14 45  1  0
 18 46  1  0
 19 47  1  0
 21 48  1  0
 24 49  1  0
 25 50  1  0
M  END
>  <smiles>  (17) 
CC(C)(C)CNC(=O)CNC(=O)CNC(=O)c1ccc2cc(Cl)ccc2n1

>  <score_type>  (17) 
oracle

>  <origin>  (17) 
autodockgpu

>  <m_score__min__energy>  (17) 
-8.0299999999999994

>  <m_primary>  (17) 
energy

>  <rmsd>  (17) 
2.3731562247045486

>  <m_score__min__rmsd>  (17) 
2.3731562247045486

>  <meeko>  (17) 
{"free_energy": -7.61, "intermolecular_energy": -9.7, "internal_energy": -1.9, "cluster_size": 39, "cluster_id": 1, "rank_in_cluster": 10}

>  <energy>  (17) 
-7.41

>  <cluster_rmsd>  (17) 
1.48

>  <cluster>  (17) 
1

$$$$

     RDKit          3D

 50 51  0  0  0  0  0  0  0  0999 V2000
  144.6930   73.1740  218.7710 C   0  0  0  0  0  0  0  0  0  0  0  0
  144.3060   73.9280  220.0510 C   0  0  0  0  0  0  0  0  0  0  0  0
  145.5690   73.7880  220.9440 C   0  0  0  0  0  0  0  0  0  0  0  0
  143.2440   73.1620  220.7510 C   0  0  0  0  0  0  0  0  0  0  0  0
  144.0660   75.3730  219.7690 C   0  0  0  0  0  0  0  0  0  0  0  0
  142.8410   75.9490  220.2020 N   0  0  0  0  0  0  0  0  0  0  0  0
  141.9750   76.8040  219.4930 C   0  0  0  0  0  0  0  0  0  0  0  0
  142.1680   77.1870  218.3160 O   0  0  0  0  0  0  0  0  0  0  0  0
  140.7380   77.3030  220.1560 C   0  0  0  0  0  0  0  0  0  0  0  0
  139.7060   76.3330  220.2420 N   0  0  0  0  0  0  0  0  0  0  0  0
  139.7980   75.2740  221.1490 C   0  0  0  0  0  0  0  0  0  0  0  0
  140.8440   75.2370  221.8870 O   0  0  0  0  0  0  0  0  0  0  0  0
  138.8210   74.1990  221.3510 C   0  0  0  0  0  0  0  0  0  0  0  0
  139.1130   73.2490  222.3690 N   0  0  0  0  0  0  0  0  0  0  0  0
  138.7830   71.8890  222.2390 C   0  0  0  0  0  0  0  0  0  0  0  0
  138.2150   71.3860  221.2260 O   0  0  0  0  0  0  0  0  0  0  0  0
  139.1130   70.9670  223.3440 C   0  0  0  0  0  0  0  0  0  0  0  0
  138.8080   69.6280  223.2930 C   0  0  0  0  0  0  0  0  0  0  0  0
  139.1310   68.7730  224.3530 C   0  0  0  0  0  0  0  0  0  0  0  0
  139.7650   69.2880  225.4630 C   0  0  0  0  0  0  0  0  0  0  0  0
  140.1260   68.5390  226.5560 C   0  0  0  0  0  0  0  0  0  0  0  0
  140.7610   69.0930  227.6500 C   0  0  0  0  0  0  0  0  0  0  0  0
  141.2230   68.1400  229.0480 Cl  0  0  0  0  0  0  0  0  0  0  0  0
  141.0650   70.4560  227.6890 C   0  0  0  0  0  0  0  0  0  0  0  0
  140.6980   71.1890  226.5910 C   0  0  0  0  0  0  0  0  0  0  0  0
  140.0670   70.6430  225.5000 C   0  0  0  0  0  0  0  0  0  0  0  0
  139.7310   71.4140  224.4500 N   0  0  0  0  0  0  0  0  0  0  0  0
  145.1803   72.2246  219.0378 H   0  0  0  0  0  0  0  0  0  0  0  0
  143.7890   72.9685  218.1790 H   0  0  0  0  0  0  0  0  0  0  0  0
  145.3870   73.7887  218.1790 H   0  0  0  0  0  0  0  0  0  0  0  0
  145.2745   73.8206  222.0033 H   0  0  0  0  0  0  0  0  0  0  0  0
  146.0646   72.8294  220.7306 H   0  0  0  0  0  0  0  0  0  0  0  0
  146.2625   74.6148  220.7306 H   0  0  0  0  0  0  0  0  0  0  0  0
  143.3783   73.2589  221.8385 H   0  0  0  0  0  0  0  0  0  0  0  0
  142.2581   73.5583  220.4666 H   0  0  0  0  0  0  0  0  0  0  0  0
  143.3089   72.1014  220.4666 H   0  0  0  0  0  0  0  0  0  0  0  0
  144.8791   75.9379  220.2484 H   0  0  0  0  0  0  0  0  0  0  0  0
  144.0210   75.4319  218.6715 H   0  0  0  0  0  0  0  0  0  0  0  0
  142.5210   75.7140  221.1980 H   0  0  0  0  0  0  0  0  0  0  0  0
  140.9965   77.6263  221.1751 H   0  0  0  0  0  0  0  0  0  0  0  0
  140.3530   78.1282  219.5389 H   0  0  0  0  0  0  0  0  0  0  0  0
  138.8700   76.4050  219.6350 H   0  0  0  0  0  0  0  0  0  0  0  0
  137.8574   74.6676  221.5998 H   0  0  0  0  0  0  0  0  0  0  0  0
  138.8263   73.6255  220.4124 H   0  0  0  0  0  0  0  0  0  0  0  0
  139.5940   73.5580  223.2650 H   0  0  0  0  0  0  0  0  0  0  0  0
  138.3019   69.2217  222.4049 H   0  0  0  0  0  0  0  0  0  0  0  0
  138.8818   67.7029  224.3007 H   0  0  0  0  0  0  0  0  0  0  0  0
  139.9019   67.4621  226.5602 H   0  0  0  0  0  0  0  0  0  0  0  0
  141.5701   70.9146  228.5519 H   0  0  0  0  0  0  0  0  0  0  0  0
  140.9193   72.2665  226.5829 H   0  0  0  0  0  0  0  0  0  0  0  0
  1  2  1  0
  2  3  1  0
  2  4  1  0
  2  5  1  0
  5  6  1  0
  6  7  1  0
  7  8  2  0
  7  9  1  0
  9 10  1  0
 10 11  1  0
 11 12  2  0
 11 13  1  0
 13 14  1  0
 14 15  1  0
 15 16  2  0
 15 17  1  0
 17 18  2  0
 18 19  1  0
 19 20  2  0
 20 21  1  0
 21 22  2  0
 22 23  1  0
 22 24  1  0
 24 25  2  0
 25 26  1  0
 26 27  2  0
 27 17  1  0
 26 20  1  0
  1 28  1  0
  1 29  1  0
  1 30  1  0
  3 31  1  0
  3 32  1  0
  3 33  1  0
  4 34  1  0
  4 35  1  0
  4 36  1  0
  5 37  1  0
  5 38  1  0
  6 39  1  0
  9 40  1  0
  9 41  1  0
 10 42  1  0
 13 43  1  0
 13 44  1  0
 14 45  1  0
 18 46  1  0
 19 47  1  0
 21 48  1  0
 24 49  1  0
 25 50  1  0
M  END
>  <smiles>  (18) 
CC(C)(C)CNC(=O)CNC(=O)CNC(=O)c1ccc2cc(Cl)ccc2n1

>  <score_type>  (18) 
oracle

>  <origin>  (18) 
autodockgpu

>  <m_score__min__energy>  (18) 
-8.0299999999999994

>  <m_primary>  (18) 
energy

>  <rmsd>  (18) 
3.507249794076214

>  <m_score__min__rmsd>  (18) 
3.507249794076214

>  <meeko>  (18) 
{"free_energy": -7.16, "intermolecular_energy": -9.25, "internal_energy": -2.55, "cluster_size": 39, "cluster_id": 1, "rank_in_cluster": 24}

>  <energy>  (18) 
-7.33

>  <cluster_rmsd>  (18) 
1.48

>  <cluster>  (18) 
1

$$$$

     RDKit          3D

 50 51  0  0  0  0  0  0  0  0999 V2000
  139.4720   67.7190  227.2210 C   0  0  0  0  0  0  0  0  0  0  0  0
  140.5420   68.7820  227.5080 C   0  0  0  0  0  0  0  0  0  0  0  0
  141.3870   68.1420  228.6430 C   0  0  0  0  0  0  0  0  0  0  0  0
  139.8860   69.9610  228.1240 C   0  0  0  0  0  0  0  0  0  0  0  0
  141.4120   69.0000  226.3150 C   0  0  0  0  0  0  0  0  0  0  0  0
  140.8420   69.6170  225.1690 N   0  0  0  0  0  0  0  0  0  0  0  0
  140.6610   70.9900  224.9110 C   0  0  0  0  0  0  0  0  0  0  0  0
  141.0060   71.9070  225.6910 O   0  0  0  0  0  0  0  0  0  0  0  0
  140.0220   71.4140  223.6340 C   0  0  0  0  0  0  0  0  0  0  0  0
  138.6080   71.5060  223.7080 N   0  0  0  0  0  0  0  0  0  0  0  0
  137.8220   70.3520  223.7820 C   0  0  0  0  0  0  0  0  0  0  0  0
  138.4430   69.2320  223.7850 O   0  0  0  0  0  0  0  0  0  0  0  0
  136.3590   70.2860  223.8600 C   0  0  0  0  0  0  0  0  0  0  0  0
  135.6990   71.3860  224.4760 N   0  0  0  0  0  0  0  0  0  0  0  0
  135.8070   72.6960  223.9800 C   0  0  0  0  0  0  0  0  0  0  0  0
  136.4810   73.0190  222.9590 O   0  0  0  0  0  0  0  0  0  0  0  0
  135.0950   73.7840  224.6800 C   0  0  0  0  0  0  0  0  0  0  0  0
  135.3430   75.1090  224.4120 C   0  0  0  0  0  0  0  0  0  0  0  0
  134.6550   76.1230  225.0890 C   0  0  0  0  0  0  0  0  0  0  0  0
  133.7170   75.7810  226.0380 C   0  0  0  0  0  0  0  0  0  0  0  0
  132.9870   76.6950  226.7590 C   0  0  0  0  0  0  0  0  0  0  0  0
  132.0550   76.3120  227.7030 C   0  0  0  0  0  0  0  0  0  0  0  0
  131.1220   77.4750  228.6260 Cl  0  0  0  0  0  0  0  0  0  0  0  0
  131.8140   74.9610  227.9660 C   0  0  0  0  0  0  0  0  0  0  0  0
  132.5500   74.0630  227.2380 C   0  0  0  0  0  0  0  0  0  0  0  0
  133.4780   74.4380  226.2980 C   0  0  0  0  0  0  0  0  0  0  0  0
  134.1700   73.5090  225.6150 N   0  0  0  0  0  0  0  0  0  0  0  0
  139.0789   67.3285  228.1713 H   0  0  0  0  0  0  0  0  0  0  0  0
  138.6522   68.1706  226.6430 H   0  0  0  0  0  0  0  0  0  0  0  0
  139.9182   66.8963  226.6430 H   0  0  0  0  0  0  0  0  0  0  0  0
  140.9823   68.4485  229.6188 H   0  0  0  0  0  0  0  0  0  0  0  0
  141.3463   67.0461  228.5571 H   0  0  0  0  0  0  0  0  0  0  0  0
  142.4309   68.4780  228.5571 H   0  0  0  0  0  0  0  0  0  0  0  0
  139.9333   69.8761  229.2197 H   0  0  0  0  0  0  0  0  0  0  0  0
  140.4039   70.8773  227.8046 H   0  0  0  0  0  0  0  0  0  0  0  0
  138.8343   70.0040  227.8046 H   0  0  0  0  0  0  0  0  0  0  0  0
  142.2554   69.6283  226.6375 H   0  0  0  0  0  0  0  0  0  0  0  0
  141.6687   67.9851  225.9773 H   0  0  0  0  0  0  0  0  0  0  0  0
  140.4970   68.9650  224.3910 H   0  0  0  0  0  0  0  0  0  0  0  0
  140.4204   72.4012  223.3571 H   0  0  0  0  0  0  0  0  0  0  0  0
  140.2557   70.6427  222.8854 H   0  0  0  0  0  0  0  0  0  0  0  0
  138.1450   72.4320  223.7140 H   0  0  0  0  0  0  0  0  0  0  0  0
  135.9745   70.2000  222.8330 H   0  0  0  0  0  0  0  0  0  0  0  0
  136.1439   69.4225  224.5066 H   0  0  0  0  0  0  0  0  0  0  0  0
  135.0990   71.2310  225.3400 H   0  0  0  0  0  0  0  0  0  0  0  0
  136.0937   75.3769  223.6539 H   0  0  0  0  0  0  0  0  0  0  0  0
  134.8610   77.1802  224.8658 H   0  0  0  0  0  0  0  0  0  0  0  0
  133.1506   77.7676  226.5781 H   0  0  0  0  0  0  0  0  0  0  0  0
  131.0759   74.6369  228.7144 H   0  0  0  0  0  0  0  0  0  0  0  0
  132.3895   72.9893  227.4154 H   0  0  0  0  0  0  0  0  0  0  0  0
  1  2  1  0
  2  3  1  0
  2  4  1  0
  2  5  1  0
  5  6  1  0
  6  7  1  0
  7  8  2  0
  7  9  1  0
  9 10  1  0
 10 11  1  0
 11 12  2  0
 11 13  1  0
 13 14  1  0
 14 15  1  0
 15 16  2  0
 15 17  1  0
 17 18  2  0
 18 19  1  0
 19 20  2  0
 20 21  1  0
 21 22  2  0
 22 23  1  0
 22 24  1  0
 24 25  2  0
 25 26  1  0
 26 27  2  0
 27 17  1  0
 26 20  1  0
  1 28  1  0
  1 29  1  0
  1 30  1  0
  3 31  1  0
  3 32  1  0
  3 33  1  0
  4 34  1  0
  4 35  1  0
  4 36  1  0
  5 37  1  0
  5 38  1  0
  6 39  1  0
  9 40  1  0
  9 41  1  0
 10 42  1  0
 13 43  1  0
 13 44  1  0
 14 45  1  0
 18 46  1  0
 19 47  1  0
 21 48  1  0
 24 49  1  0
 25 50  1  0
M  END
>  <smiles>  (19) 
CC(C)(C)CNC(=O)CNC(=O)CNC(=O)c1ccc2cc(Cl)ccc2n1

>  <score_type>  (19) 
oracle

>  <origin>  (19) 
autodockgpu

>  <m_score__min__energy>  (19) 
-8.0299999999999994

>  <m_primary>  (19) 
energy

>  <rmsd>  (19) 
8.971159802753926

>  <m_score__min__rmsd>  (19) 
8.971159802753926

>  <meeko>  (19) 
{"free_energy": -6.45, "intermolecular_energy": -8.54, "internal_energy": -2.91, "cluster_size": 3, "cluster_id": 3, "rank_in_cluster": 3}

>  <energy>  (19) 
-7.31

>  <cluster_rmsd>  (19) 
1.86

>  <cluster>  (19) 
1

$$$$

     RDKit          3D

 50 51  0  0  0  0  0  0  0  0999 V2000
  141.3760   79.4440  221.1530 C   0  0  0  0  0  0  0  0  0  0  0  0
  141.4690   79.2270  222.6700 C   0  0  0  0  0  0  0  0  0  0  0  0
  140.4320   80.2320  223.2400 C   0  0  0  0  0  0  0  0  0  0  0  0
  142.7890   79.7160  223.1390 C   0  0  0  0  0  0  0  0  0  0  0  0
  141.0580   77.8400  223.0380 C   0  0  0  0  0  0  0  0  0  0  0  0
  140.1310   77.1670  222.1970 N   0  0  0  0  0  0  0  0  0  0  0  0
  138.7770   77.4760  221.9610 C   0  0  0  0  0  0  0  0  0  0  0  0
  138.1720   78.4420  222.4780 O   0  0  0  0  0  0  0  0  0  0  0  0
  137.9830   76.6150  221.0390 C   0  0  0  0  0  0  0  0  0  0  0  0
  138.4850   75.2940  220.9200 N   0  0  0  0  0  0  0  0  0  0  0  0
  139.2760   74.9280  219.8270 C   0  0  0  0  0  0  0  0  0  0  0  0
  139.5200   75.8410  218.9620 O   0  0  0  0  0  0  0  0  0  0  0  0
  139.8610   73.6100  219.5640 C   0  0  0  0  0  0  0  0  0  0  0  0
  139.8330   72.6710  220.6330 N   0  0  0  0  0  0  0  0  0  0  0  0
  140.0670   73.0480  221.9660 C   0  0  0  0  0  0  0  0  0  0  0  0
  140.3120   74.2320  222.3400 O   0  0  0  0  0  0  0  0  0  0  0  0
  140.0270   72.0130  223.0180 C   0  0  0  0  0  0  0  0  0  0  0  0
  139.5040   70.7620  222.7910 C   0  0  0  0  0  0  0  0  0  0  0  0
  139.4770   69.7970  223.8030 C   0  0  0  0  0  0  0  0  0  0  0  0
  139.9830   70.1100  225.0460 C   0  0  0  0  0  0  0  0  0  0  0  0
  140.0060   69.2390  226.1070 C   0  0  0  0  0  0  0  0  0  0  0  0
  140.5230   69.5910  227.3380 C   0  0  0  0  0  0  0  0  0  0  0  0
  140.5530   68.4820  228.6960 Cl  0  0  0  0  0  0  0  0  0  0  0  0
  141.0510   70.8660  227.5550 C   0  0  0  0  0  0  0  0  0  0  0  0
  141.0210   71.7230  226.4860 C   0  0  0  0  0  0  0  0  0  0  0  0
  140.5090   71.3780  225.2600 C   0  0  0  0  0  0  0  0  0  0  0  0
  140.5070   72.2630  224.2480 N   0  0  0  0  0  0  0  0  0  0  0  0
  140.9502   80.4377  220.9502 H   0  0  0  0  0  0  0  0  0  0  0  0
  142.3812   79.3786  220.7110 H   0  0  0  0  0  0  0  0  0  0  0  0
  140.7301   78.6711  220.7110 H   0  0  0  0  0  0  0  0  0  0  0  0
  140.4605   80.2044  224.3393 H   0  0  0  0  0  0  0  0  0  0  0  0
  140.6754   81.2468  222.8923 H   0  0  0  0  0  0  0  0  0  0  0  0
  139.4253   79.9569  222.8923 H   0  0  0  0  0  0  0  0  0  0  0  0
  142.8078   79.7230  224.2388 H   0  0  0  0  0  0  0  0  0  0  0  0
  143.5809   79.0516  222.7630 H   0  0  0  0  0  0  0  0  0  0  0  0
  142.9569   80.7360  222.7630 H   0  0  0  0  0  0  0  0  0  0  0  0
  141.9712   77.2278  223.0718 H   0  0  0  0  0  0  0  0  0  0  0  0
  140.5228   77.9592  223.9916 H   0  0  0  0  0  0  0  0  0  0  0  0
  140.4940   76.3090  221.6660 H   0  0  0  0  0  0  0  0  0  0  0  0
  136.9509   76.5618  221.4157 H   0  0  0  0  0  0  0  0  0  0  0  0
  138.0418   77.0728  220.0405 H   0  0  0  0  0  0  0  0  0  0  0  0
  138.2740   74.5880  221.6480 H   0  0  0  0  0  0  0  0  0  0  0  0
  139.3161   73.1669  218.7174 H   0  0  0  0  0  0  0  0  0  0  0  0
  140.9279   73.8008  219.3761 H   0  0  0  0  0  0  0  0  0  0  0  0
  139.6320   71.6450  220.4360 H   0  0  0  0  0  0  0  0  0  0  0  0
  139.1004   70.5161  221.7977 H   0  0  0  0  0  0  0  0  0  0  0  0
  139.0565   68.7992  223.6089 H   0  0  0  0  0  0  0  0  0  0  0  0
  139.5987   68.2262  225.9718 H   0  0  0  0  0  0  0  0  0  0  0  0
  141.4671   71.1650  228.5284 H   0  0  0  0  0  0  0  0  0  0  0  0
  141.4271   72.7369  226.6168 H   0  0  0  0  0  0  0  0  0  0  0  0
  1  2  1  0
  2  3  1  0
  2  4  1  0
  2  5  1  0
  5  6  1  0
  6  7  1  0
  7  8  2  0
  7  9  1  0
  9 10  1  0
 10 11  1  0
 11 12  2  0
 11 13  1  0
 13 14  1  0
 14 15  1  0
 15 16  2  0
 15 17  1  0
 17 18  2  0
 18 19  1  0
 19 20  2  0
 20 21  1  0
 21 22  2  0
 22 23  1  0
 22 24  1  0
 24 25  2  0
 25 26  1  0
 26 27  2  0
 27 17  1  0
 26 20  1  0
  1 28  1  0
  1 29  1  0
  1 30  1  0
  3 31  1  0
  3 32  1  0
  3 33  1  0
  4 34  1  0
  4 35  1  0
  4 36  1  0
  5 37  1  0
  5 38  1  0
  6 39  1  0
  9 40  1  0
  9 41  1  0
 10 42  1  0
 13 43  1  0
 13 44  1  0
 14 45  1  0
 18 46  1  0
 19 47  1  0
 21 48  1  0
 24 49  1  0
 25 50  1  0
M  END
>  <smiles>  (20) 
CC(C)(C)CNC(=O)CNC(=O)CNC(=O)c1ccc2cc(Cl)ccc2n1

>  <score_type>  (20) 
oracle

>  <origin>  (20) 
autodockgpu

>  <m_score__min__energy>  (20) 
-8.0299999999999994

>  <m_primary>  (20) 
energy

>  <rmsd>  (20) 
2.120861616467578

>  <m_score__min__rmsd>  (20) 
2.120861616467578

>  <meeko>  (20) 
{"free_energy": -6.79, "intermolecular_energy": -8.88, "internal_energy": -2.5, "cluster_size": 39, "cluster_id": 1, "rank_in_cluster": 33}

>  <energy>  (20) 
-7.28

>  <cluster_rmsd>  (20) 
1.22

>  <cluster>  (20) 
1

$$$$

     RDKit          3D

 50 51  0  0  0  0  0  0  0  0999 V2000
  141.0730   79.4700  221.2150 C   0  0  0  0  0  0  0  0  0  0  0  0
  141.5710   79.2700  222.6530 C   0  0  0  0  0  0  0  0  0  0  0  0
  140.7360   80.2980  223.4660 C   0  0  0  0  0  0  0  0  0  0  0  0
  142.9730   79.7460  222.7410 C   0  0  0  0  0  0  0  0  0  0  0  0
  141.2590   77.8950  223.1410 C   0  0  0  0  0  0  0  0  0  0  0  0
  140.0940   77.2520  222.6430 N   0  0  0  0  0  0  0  0  0  0  0  0
  138.7640   77.7170  222.6530 C   0  0  0  0  0  0  0  0  0  0  0  0
  138.4060   78.8230  223.1170 O   0  0  0  0  0  0  0  0  0  0  0  0
  137.6880   76.8600  222.0800 C   0  0  0  0  0  0  0  0  0  0  0  0
  138.1050   75.5340  221.7970 N   0  0  0  0  0  0  0  0  0  0  0  0
  138.2150   75.0880  220.4760 C   0  0  0  0  0  0  0  0  0  0  0  0
  137.9270   75.9340  219.5580 O   0  0  0  0  0  0  0  0  0  0  0  0
  138.6270   73.7550  220.0280 C   0  0  0  0  0  0  0  0  0  0  0  0
  138.8080   72.7660  221.0350 N   0  0  0  0  0  0  0  0  0  0  0  0
  139.6570   72.9670  222.1370 C   0  0  0  0  0  0  0  0  0  0  0  0
  140.3230   74.0240  222.3400 O   0  0  0  0  0  0  0  0  0  0  0  0
  139.7960   71.8890  223.1360 C   0  0  0  0  0  0  0  0  0  0  0  0
  139.4480   70.5890  222.8600 C   0  0  0  0  0  0  0  0  0  0  0  0
  139.5880   69.5840  223.8240 C   0  0  0  0  0  0  0  0  0  0  0  0
  140.0830   69.9090  225.0670 C   0  0  0  0  0  0  0  0  0  0  0  0
  140.2610   69.0020  226.0830 C   0  0  0  0  0  0  0  0  0  0  0  0
  140.7600   69.3680  227.3170 C   0  0  0  0  0  0  0  0  0  0  0  0
  140.9880   68.2130  228.6170 Cl  0  0  0  0  0  0  0  0  0  0  0  0
  141.1100   70.6940  227.5860 C   0  0  0  0  0  0  0  0  0  0  0  0
  140.9260   71.5860  226.5610 C   0  0  0  0  0  0  0  0  0  0  0  0
  140.4310   71.2280  225.3320 C   0  0  0  0  0  0  0  0  0  0  0  0
  140.2730   72.1490  224.3650 N   0  0  0  0  0  0  0  0  0  0  0  0
  140.0524   79.8799  221.2341 H   0  0  0  0  0  0  0  0  0  0  0  0
  141.7396   80.1702  220.6902 H   0  0  0  0  0  0  0  0  0  0  0  0
  141.0701   78.5033  220.6902 H   0  0  0  0  0  0  0  0  0  0  0  0
  140.8811   80.1194  224.5417 H   0  0  0  0  0  0  0  0  0  0  0  0
  141.0651   81.3174  223.2159 H   0  0  0  0  0  0  0  0  0  0  0  0
  139.6708   80.1849  223.2159 H   0  0  0  0  0  0  0  0  0  0  0  0
  143.2613   79.8439  223.7980 H   0  0  0  0  0  0  0  0  0  0  0  0
  143.6375   79.0231  222.2451 H   0  0  0  0  0  0  0  0  0  0  0  0
  143.0600   80.7240  222.2451 H   0  0  0  0  0  0  0  0  0  0  0  0
  142.1176   77.2563  222.8863 H   0  0  0  0  0  0  0  0  0  0  0  0
  141.0586   78.0268  224.2145 H   0  0  0  0  0  0  0  0  0  0  0  0
  140.2270   76.2850  222.1990 H   0  0  0  0  0  0  0  0  0  0  0  0
  136.8579   76.8167  222.8005 H   0  0  0  0  0  0  0  0  0  0  0  0
  137.3903   77.3144  221.1235 H   0  0  0  0  0  0  0  0  0  0  0  0
  138.3400   74.8850  222.5690 H   0  0  0  0  0  0  0  0  0  0  0  0
  137.8585   73.3854  219.3332 H   0  0  0  0  0  0  0  0  0  0  0  0
  139.6226   73.8967  219.5822 H   0  0  0  0  0  0  0  0  0  0  0  0
  138.2930   71.8380  220.9690 H   0  0  0  0  0  0  0  0  0  0  0  0
  139.0530   70.3339  221.8656 H   0  0  0  0  0  0  0  0  0  0  0  0
  139.3058   68.5466  223.5913 H   0  0  0  0  0  0  0  0  0  0  0  0
  139.9971   67.9486  225.9075 H   0  0  0  0  0  0  0  0  0  0  0  0
  141.5097   71.0040  228.5628 H   0  0  0  0  0  0  0  0  0  0  0  0
  141.1880   72.6405  226.7322 H   0  0  0  0  0  0  0  0  0  0  0  0
  1  2  1  0
  2  3  1  0
  2  4  1  0
  2  5  1  0
  5  6  1  0
  6  7  1  0
  7  8  2  0
  7  9  1  0
  9 10  1  0
 10 11  1  0
 11 12  2  0
 11 13  1  0
 13 14  1  0
 14 15  1  0
 15 16  2  0
 15 17  1  0
 17 18  2  0
 18 19  1  0
 19 20  2  0
 20 21  1  0
 21 22  2  0
 22 23  1  0
 22 24  1  0
 24 25  2  0
 25 26  1  0
 26 27  2  0
 27 17  1  0
 26 20  1  0
  1 28  1  0
  1 29  1  0
  1 30  1  0
  3 31  1  0
  3 32  1  0
  3 33  1  0
  4 34  1  0
  4 35  1  0
  4 36  1  0
  5 37  1  0
  5 38  1  0
  6 39  1  0
  9 40  1  0
  9 41  1  0
 10 42  1  0
 13 43  1  0
 13 44  1  0
 14 45  1  0
 18 46  1  0
 19 47  1  0
 21 48  1  0
 24 49  1  0
 25 50  1  0
M  END
>  <smiles>  (21) 
CC(C)(C)CNC(=O)CNC(=O)CNC(=O)c1ccc2cc(Cl)ccc2n1

>  <score_type>  (21) 
oracle

>  <origin>  (21) 
autodockgpu

>  <m_score__min__energy>  (21) 
-8.0299999999999994

>  <m_primary>  (21) 
energy

>  <rmsd>  (21) 
2.143638016521826

>  <m_score__min__rmsd>  (21) 
2.143638016521826

>  <meeko>  (21) 
{"free_energy": -7.31, "intermolecular_energy": -9.4, "internal_energy": -2.37, "cluster_size": 39, "cluster_id": 1, "rank_in_cluster": 19}

>  <energy>  (21) 
-7.27

>  <cluster_rmsd>  (21) 
1.73

>  <cluster>  (21) 
1

$$$$

     RDKit          3D

 50 51  0  0  0  0  0  0  0  0999 V2000
  145.8230   72.2990  219.8200 C   0  0  0  0  0  0  0  0  0  0  0  0
  144.4790   73.0390  219.8880 C   0  0  0  0  0  0  0  0  0  0  0  0
  143.6420   72.1710  220.8680 C   0  0  0  0  0  0  0  0  0  0  0  0
  143.8010   72.9120  218.5740 C   0  0  0  0  0  0  0  0  0  0  0  0
  144.6490   74.4030  220.4670 C   0  0  0  0  0  0  0  0  0  0  0  0
  143.5470   75.2990  220.4140 N   0  0  0  0  0  0  0  0  0  0  0  0
  143.1480   76.1350  219.3530 C   0  0  0  0  0  0  0  0  0  0  0  0
  143.7320   76.2010  218.2470 O   0  0  0  0  0  0  0  0  0  0  0  0
  141.9550   77.0110  219.5240 C   0  0  0  0  0  0  0  0  0  0  0  0
  140.7350   76.2960  219.6390 N   0  0  0  0  0  0  0  0  0  0  0  0
  140.2790   75.8610  220.8870 C   0  0  0  0  0  0  0  0  0  0  0  0
  141.0110   76.1480  221.8990 O   0  0  0  0  0  0  0  0  0  0  0  0
  139.0490   75.1140  221.1650 C   0  0  0  0  0  0  0  0  0  0  0  0
  139.1310   74.0800  222.1390 N   0  0  0  0  0  0  0  0  0  0  0  0
  139.9550   72.9540  221.9660 C   0  0  0  0  0  0  0  0  0  0  0  0
  140.6900   72.7560  220.9550 O   0  0  0  0  0  0  0  0  0  0  0  0
  139.9800   71.9210  223.0210 C   0  0  0  0  0  0  0  0  0  0  0  0
  139.5360   70.6400  222.7990 C   0  0  0  0  0  0  0  0  0  0  0  0
  139.5690   69.6780  223.8140 C   0  0  0  0  0  0  0  0  0  0  0  0
  140.0560   70.0270  225.0550 C   0  0  0  0  0  0  0  0  0  0  0  0
  140.1330   69.1620  226.1190 C   0  0  0  0  0  0  0  0  0  0  0  0
  140.6280   69.5500  227.3480 C   0  0  0  0  0  0  0  0  0  0  0  0
  140.7280   68.4490  228.7100 Cl  0  0  0  0  0  0  0  0  0  0  0  0
  141.0760   70.8560  227.5610 C   0  0  0  0  0  0  0  0  0  0  0  0
  140.9920   71.7060  226.4890 C   0  0  0  0  0  0  0  0  0  0  0  0
  140.5020   71.3250  225.2650 C   0  0  0  0  0  0  0  0  0  0  0  0
  140.4440   72.2050  224.2500 N   0  0  0  0  0  0  0  0  0  0  0  0
  146.1841   72.1002  220.8398 H   0  0  0  0  0  0  0  0  0  0  0  0
  145.6906   71.3466  219.2857 H   0  0  0  0  0  0  0  0  0  0  0  0
  146.5570   72.9202  219.2857 H   0  0  0  0  0  0  0  0  0  0  0  0
  143.8985   72.4370  221.9041 H   0  0  0  0  0  0  0  0  0  0  0  0
  142.5709   72.3542  220.6968 H   0  0  0  0  0  0  0  0  0  0  0  0
  143.8640   71.1073  220.6968 H   0  0  0  0  0  0  0  0  0  0  0  0
  142.7309   72.7116  218.7314 H   0  0  0  0  0  0  0  0  0  0  0  0
  143.9194   73.8479  218.0083 H   0  0  0  0  0  0  0  0  0  0  0  0
  144.2501   72.0824  218.0083 H   0  0  0  0  0  0  0  0  0  0  0  0
  144.9152   74.2762  221.5268 H   0  0  0  0  0  0  0  0  0  0  0  0
  145.4134   74.8745  219.8318 H   0  0  0  0  0  0  0  0  0  0  0  0
  142.9300   75.3590  221.2890 H   0  0  0  0  0  0  0  0  0  0  0  0
  142.0928   77.6117  220.4351 H   0  0  0  0  0  0  0  0  0  0  0  0
  141.8798   77.6324  218.6194 H   0  0  0  0  0  0  0  0  0  0  0  0
  140.1670   76.0940  218.7970 H   0  0  0  0  0  0  0  0  0  0  0  0
  138.2925   75.8350  221.5084 H   0  0  0  0  0  0  0  0  0  0  0  0
  138.8048   74.6020  220.2225 H   0  0  0  0  0  0  0  0  0  0  0  0
  138.5590   74.1430  223.0320 H   0  0  0  0  0  0  0  0  0  0  0  0
  139.1481   70.3663  221.8067 H   0  0  0  0  0  0  0  0  0  0  0  0
  139.2106   68.6555  223.6239 H   0  0  0  0  0  0  0  0  0  0  0  0
  139.7888   68.1255  225.9876 H   0  0  0  0  0  0  0  0  0  0  0  0
  141.4733   71.1834  228.5331 H   0  0  0  0  0  0  0  0  0  0  0  0
  141.3339   72.7438  226.6159 H   0  0  0  0  0  0  0  0  0  0  0  0
  1  2  1  0
  2  3  1  0
  2  4  1  0
  2  5  1  0
  5  6  1  0
  6  7  1  0
  7  8  2  0
  7  9  1  0
  9 10  1  0
 10 11  1  0
 11 12  2  0
 11 13  1  0
 13 14  1  0
 14 15  1  0
 15 16  2  0
 15 17  1  0
 17 18  2  0
 18 19  1  0
 19 20  2  0
 20 21  1  0
 21 22  2  0
 22 23  1  0
 22 24  1  0
 24 25  2  0
 25 26  1  0
 26 27  2  0
 27 17  1  0
 26 20  1  0
  1 28  1  0
  1 29  1  0
  1 30  1  0
  3 31  1  0
  3 32  1  0
  3 33  1  0
  4 34  1  0
  4 35  1  0
  4 36  1  0
  5 37  1  0
  5 38  1  0
  6 39  1  0
  9 40  1  0
  9 41  1  0
 10 42  1  0
 13 43  1  0
 13 44  1  0
 14 45  1  0
 18 46  1  0
 19 47  1  0
 21 48  1  0
 24 49  1  0
 25 50  1  0
M  END
>  <smiles>  (22) 
CC(C)(C)CNC(=O)CNC(=O)CNC(=O)c1ccc2cc(Cl)ccc2n1

>  <score_type>  (22) 
oracle

>  <origin>  (22) 
autodockgpu

>  <m_score__min__energy>  (22) 
-8.0299999999999994

>  <m_primary>  (22) 
energy

>  <rmsd>  (22) 
3.9919070616645604

>  <m_score__min__rmsd>  (22) 
3.9919070616645604

>  <meeko>  (22) 
{"free_energy": -7.24, "intermolecular_energy": -9.33, "internal_energy": -2.41, "cluster_size": 5, "cluster_id": 2, "rank_in_cluster": 1}

>  <energy>  (22) 
-7.27

>  <cluster_rmsd>  (22) 
1.51

>  <cluster>  (22) 
1

$$$$

     RDKit          3D

 50 51  0  0  0  0  0  0  0  0999 V2000
  141.8220   78.4870  223.8060 C   0  0  0  0  0  0  0  0  0  0  0  0
  141.4590   79.8270  223.1510 C   0  0  0  0  0  0  0  0  0  0  0  0
  141.8490   79.6150  221.6620 C   0  0  0  0  0  0  0  0  0  0  0  0
  142.3870   80.8690  223.6550 C   0  0  0  0  0  0  0  0  0  0  0  0
  139.9920   80.0850  223.2390 C   0  0  0  0  0  0  0  0  0  0  0  0
  139.1020   79.0320  222.8950 N   0  0  0  0  0  0  0  0  0  0  0  0
  137.7080   78.9650  223.0870 C   0  0  0  0  0  0  0  0  0  0  0  0
  137.0210   79.8750  223.6040 O   0  0  0  0  0  0  0  0  0  0  0  0
  136.9700   77.7440  222.6570 C   0  0  0  0  0  0  0  0  0  0  0  0
  137.7880   76.5890  222.5590 N   0  0  0  0  0  0  0  0  0  0  0  0
  138.6580   76.4210  221.4770 C   0  0  0  0  0  0  0  0  0  0  0  0
  138.6750   77.3570  220.6030 O   0  0  0  0  0  0  0  0  0  0  0  0
  139.5570   75.2890  221.2380 C   0  0  0  0  0  0  0  0  0  0  0  0
  139.5350   74.2360  222.1950 N   0  0  0  0  0  0  0  0  0  0  0  0
  140.2710   73.0520  222.0220 C   0  0  0  0  0  0  0  0  0  0  0  0
  141.0130   72.8130  221.0250 O   0  0  0  0  0  0  0  0  0  0  0  0
  140.1900   72.0040  223.0590 C   0  0  0  0  0  0  0  0  0  0  0  0
  139.6630   70.7610  222.8010 C   0  0  0  0  0  0  0  0  0  0  0  0
  139.5970   69.7850  223.8010 C   0  0  0  0  0  0  0  0  0  0  0  0
  140.0680   70.0790  225.0610 C   0  0  0  0  0  0  0  0  0  0  0  0
  140.0510   69.1950  226.1120 C   0  0  0  0  0  0  0  0  0  0  0  0
  140.5340   69.5280  227.3620 C   0  0  0  0  0  0  0  0  0  0  0  0
  140.5120   68.4020  228.7070 Cl  0  0  0  0  0  0  0  0  0  0  0  0
  141.0660   70.7950  227.6110 C   0  0  0  0  0  0  0  0  0  0  0  0
  141.0760   71.6650  226.5520 C   0  0  0  0  0  0  0  0  0  0  0  0
  140.5990   71.3390  225.3070 C   0  0  0  0  0  0  0  0  0  0  0  0
  140.6350   72.2360  224.3060 N   0  0  0  0  0  0  0  0  0  0  0  0
  141.7930   78.5941  224.9004 H   0  0  0  0  0  0  0  0  0  0  0  0
  141.0997   77.7185  223.4935 H   0  0  0  0  0  0  0  0  0  0  0  0
  142.8335   78.1882  223.4935 H   0  0  0  0  0  0  0  0  0  0  0  0
  142.8142   79.0903  221.6069 H   0  0  0  0  0  0  0  0  0  0  0  0
  141.0755   79.0132  221.1625 H   0  0  0  0  0  0  0  0  0  0  0  0
  141.9334   80.5914  221.1625 H   0  0  0  0  0  0  0  0  0  0  0  0
  142.3820   80.8634  224.7550 H   0  0  0  0  0  0  0  0  0  0  0  0
  143.4042   80.6608  223.2919 H   0  0  0  0  0  0  0  0  0  0  0  0
  142.0628   81.8554  223.2919 H   0  0  0  0  0  0  0  0  0  0  0  0
  139.7731   80.3702  224.2786 H   0  0  0  0  0  0  0  0  0  0  0  0
  139.8057   80.8578  222.4787 H   0  0  0  0  0  0  0  0  0  0  0  0
  139.5320   78.1670  222.4300 H   0  0  0  0  0  0  0  0  0  0  0  0
  136.1729   77.5442  223.3883 H   0  0  0  0  0  0  0  0  0  0  0  0
  136.5747   77.9447  221.6503 H   0  0  0  0  0  0  0  0  0  0  0  0
  137.7530   75.8600  223.2950 H   0  0  0  0  0  0  0  0  0  0  0  0
  139.2939   74.8561  220.2616 H   0  0  0  0  0  0  0  0  0  0  0  0
  140.5712   75.7105  221.2988 H   0  0  0  0  0  0  0  0  0  0  0  0
  138.9480   74.3300  223.0770 H   0  0  0  0  0  0  0  0  0  0  0  0
  139.2875   70.5303  221.7931 H   0  0  0  0  0  0  0  0  0  0  0  0
  139.1735   68.7935  223.5831 H   0  0  0  0  0  0  0  0  0  0  0  0
  139.6387   68.1877  225.9526 H   0  0  0  0  0  0  0  0  0  0  0  0
  141.4547   71.0784  228.6002 H   0  0  0  0  0  0  0  0  0  0  0  0
  141.4863   72.6737  226.7074 H   0  0  0  0  0  0  0  0  0  0  0  0
  1  2  1  0
  2  3  1  0
  2  4  1  0
  2  5  1  0
  5  6  1  0
  6  7  1  0
  7  8  2  0
  7  9  1  0
  9 10  1  0
 10 11  1  0
 11 12  2  0
 11 13  1  0
 13 14  1  0
 14 15  1  0
 15 16  2  0
 15 17  1  0
 17 18  2  0
 18 19  1  0
 19 20  2  0
 20 21  1  0
 21 22  2  0
 22 23  1  0
 22 24  1  0
 24 25  2  0
 25 26  1  0
 26 27  2  0
 27 17  1  0
 26 20  1  0
  1 28  1  0
  1 29  1  0
  1 30  1  0
  3 31  1  0
  3 32  1  0
  3 33  1  0
  4 34  1  0
  4 35  1  0
  4 36  1  0
  5 37  1  0
  5 38  1  0
  6 39  1  0
  9 40  1  0
  9 41  1  0
 10 42  1  0
 13 43  1  0
 13 44  1  0
 14 45  1  0
 18 46  1  0
 19 47  1  0
 21 48  1  0
 24 49  1  0
 25 50  1  0
M  END
>  <smiles>  (23) 
CC(C)(C)CNC(=O)CNC(=O)CNC(=O)c1ccc2cc(Cl)ccc2n1

>  <score_type>  (23) 
oracle

>  <origin>  (23) 
autodockgpu

>  <m_score__min__energy>  (23) 
-8.0299999999999994

>  <m_primary>  (23) 
energy

>  <rmsd>  (23) 
2.6998676408291855

>  <m_score__min__rmsd>  (23) 
2.6998676408291855

>  <meeko>  (23) 
{"free_energy": -7.55, "intermolecular_energy": -9.64, "internal_energy": -1.83, "cluster_size": 39, "cluster_id": 1, "rank_in_cluster": 15}

>  <energy>  (23) 
-7.22

>  <cluster_rmsd>  (23) 
1.59

>  <cluster>  (23) 
1

$$$$

     RDKit          3D

 50 51  0  0  0  0  0  0  0  0999 V2000
  141.3540   81.4320  222.0590 C   0  0  0  0  0  0  0  0  0  0  0  0
  141.5900   80.1460  222.8630 C   0  0  0  0  0  0  0  0  0  0  0  0
  142.7210   80.5450  223.8510 C   0  0  0  0  0  0  0  0  0  0  0  0
  142.1930   79.1290  221.9660 C   0  0  0  0  0  0  0  0  0  0  0  0
  140.3740   79.7700  223.6410 C   0  0  0  0  0  0  0  0  0  0  0  0
  139.3920   78.9630  223.0060 N   0  0  0  0  0  0  0  0  0  0  0  0
  138.3230   79.3680  222.1820 C   0  0  0  0  0  0  0  0  0  0  0  0
  138.0830   80.5570  221.8700 O   0  0  0  0  0  0  0  0  0  0  0  0
  137.3980   78.3400  221.6290 C   0  0  0  0  0  0  0  0  0  0  0  0
  138.0630   77.2330  221.0420 N   0  0  0  0  0  0  0  0  0  0  0  0
  138.4480   76.1370  221.8210 C   0  0  0  0  0  0  0  0  0  0  0  0
  138.1630   76.1910  223.0680 O   0  0  0  0  0  0  0  0  0  0  0  0
  139.1410   74.9300  221.3610 C   0  0  0  0  0  0  0  0  0  0  0  0
  139.3520   73.9040  222.3250 N   0  0  0  0  0  0  0  0  0  0  0  0
  139.3000   72.5400  221.9890 C   0  0  0  0  0  0  0  0  0  0  0  0
  139.0720   72.1010  220.8250 O   0  0  0  0  0  0  0  0  0  0  0  0
  139.5240   71.5370  223.0490 C   0  0  0  0  0  0  0  0  0  0  0  0
  139.2310   70.2060  222.8670 C   0  0  0  0  0  0  0  0  0  0  0  0
  139.4520   69.2730  223.8870 C   0  0  0  0  0  0  0  0  0  0  0  0
  139.9710   69.7010  225.0890 C   0  0  0  0  0  0  0  0  0  0  0  0
  140.2260   68.8710  226.1530 C   0  0  0  0  0  0  0  0  0  0  0  0
  140.7470   69.3380  227.3430 C   0  0  0  0  0  0  0  0  0  0  0  0
  141.0740   68.2820  228.7040 Cl  0  0  0  0  0  0  0  0  0  0  0  0
  141.0400   70.6940  227.5150 C   0  0  0  0  0  0  0  0  0  0  0  0
  140.7790   71.5080  226.4430 C   0  0  0  0  0  0  0  0  0  0  0  0
  140.2620   71.0490  225.2570 C   0  0  0  0  0  0  0  0  0  0  0  0
  140.0280   71.8970  224.2410 N   0  0  0  0  0  0  0  0  0  0  0  0
  141.1996   82.2735  222.7504 H   0  0  0  0  0  0  0  0  0  0  0  0
  142.2300   81.6342  221.4252 H   0  0  0  0  0  0  0  0  0  0  0  0
  140.4633   81.3099  221.4252 H   0  0  0  0  0  0  0  0  0  0  0  0
  142.3660   80.4198  224.8846 H   0  0  0  0  0  0  0  0  0  0  0  0
  143.5976   79.9019  223.6839 H   0  0  0  0  0  0  0  0  0  0  0  0
  143.0000   81.5958  223.6839 H   0  0  0  0  0  0  0  0  0  0  0  0
  142.6617   78.3386  222.5706 H   0  0  0  0  0  0  0  0  0  0  0  0
  141.4096   78.6893  221.3313 H   0  0  0  0  0  0  0  0  0  0  0  0
  142.9547   79.6054  221.3313 H   0  0  0  0  0  0  0  0  0  0  0  0
  140.7142   79.2265  224.5348 H   0  0  0  0  0  0  0  0  0  0  0  0
  139.8625   80.7263  223.8251 H   0  0  0  0  0  0  0  0  0  0  0  0
  139.4580   77.9050  223.1670 H   0  0  0  0  0  0  0  0  0  0  0  0
  136.7615   77.9697  222.4461 H   0  0  0  0  0  0  0  0  0  0  0  0
  136.8161   78.8258  220.8319 H   0  0  0  0  0  0  0  0  0  0  0  0
  138.2650   77.2240  220.0260 H   0  0  0  0  0  0  0  0  0  0  0  0
  138.5490   74.4988  220.5403 H   0  0  0  0  0  0  0  0  0  0  0  0
  140.1481   75.2677  221.0751 H   0  0  0  0  0  0  0  0  0  0  0  0
  139.5560   74.1580  223.3370 H   0  0  0  0  0  0  0  0  0  0  0  0
  138.8166   69.8692  221.9053 H   0  0  0  0  0  0  0  0  0  0  0  0
  139.2140   68.2105  223.7304 H   0  0  0  0  0  0  0  0  0  0  0  0
  140.0077   67.7975  226.0536 H   0  0  0  0  0  0  0  0  0  0  0  0
  141.4556   71.0851  228.4554 H   0  0  0  0  0  0  0  0  0  0  0  0
  140.9947   72.5825  226.5380 H   0  0  0  0  0  0  0  0  0  0  0  0
  1  2  1  0
  2  3  1  0
  2  4  1  0
  2  5  1  0
  5  6  1  0
  6  7  1  0
  7  8  2  0
  7  9  1  0
  9 10  1  0
 10 11  1  0
 11 12  2  0
 11 13  1  0
 13 14  1  0
 14 15  1  0
 15 16  2  0
 15 17  1  0
 17 18  2  0
 18 19  1  0
 19 20  2  0
 20 21  1  0
 21 22  2  0
 22 23  1  0
 22 24  1  0
 24 25  2  0
 25 26  1  0
 26 27  2  0
 27 17  1  0
 26 20  1  0
  1 28  1  0
  1 29  1  0
  1 30  1  0
  3 31  1  0
  3 32  1  0
  3 33  1  0
  4 34  1  0
  4 35  1  0
  4 36  1  0
  5 37  1  0
  5 38  1  0
  6 39  1  0
  9 40  1  0
  9 41  1  0
 10 42  1  0
 13 43  1  0
 13 44  1  0
 14 45  1  0
 18 46  1  0
 19 47  1  0
 21 48  1  0
 24 49  1  0
 25 50  1  0
M  END
>  <smiles>  (24) 
CC(C)(C)CNC(=O)CNC(=O)CNC(=O)c1ccc2cc(Cl)ccc2n1

>  <score_type>  (24) 
oracle

>  <origin>  (24) 
autodockgpu

>  <m_score__min__energy>  (24) 
-8.0299999999999994

>  <m_primary>  (24) 
energy

>  <rmsd>  (24) 
2.163345622583165

>  <m_score__min__rmsd>  (24) 
2.163345622583165

>  <meeko>  (24) 
{"free_energy": -7.05, "intermolecular_energy": -9.14, "internal_energy": -2.42, "cluster_size": 39, "cluster_id": 1, "rank_in_cluster": 29}

>  <energy>  (24) 
-7.16

>  <cluster_rmsd>  (24) 
1.84

>  <cluster>  (24) 
1

$$$$

     RDKit          3D

 50 51  0  0  0  0  0  0  0  0999 V2000
  141.7660   78.9890  224.2320 C   0  0  0  0  0  0  0  0  0  0  0  0
  141.6190   80.1740  223.2670 C   0  0  0  0  0  0  0  0  0  0  0  0
  142.5770   81.2420  223.8630 C   0  0  0  0  0  0  0  0  0  0  0  0
  140.2560   80.7410  223.4170 C   0  0  0  0  0  0  0  0  0  0  0  0
  142.0860   79.8090  221.8980 C   0  0  0  0  0  0  0  0  0  0  0  0
  142.0470   78.4410  221.5150 N   0  0  0  0  0  0  0  0  0  0  0  0
  140.9680   77.5390  221.5940 C   0  0  0  0  0  0  0  0  0  0  0  0
  139.8310   77.8340  222.0250 O   0  0  0  0  0  0  0  0  0  0  0  0
  141.1590   76.1320  221.1430 C   0  0  0  0  0  0  0  0  0  0  0  0
  140.1790   75.2360  221.6410 N   0  0  0  0  0  0  0  0  0  0  0  0
  138.9670   75.0580  220.9670 C   0  0  0  0  0  0  0  0  0  0  0  0
  138.8030   75.7350  219.8920 O   0  0  0  0  0  0  0  0  0  0  0  0
  137.8630   74.1770  221.3570 C   0  0  0  0  0  0  0  0  0  0  0  0
  138.1470   73.1870  222.3390 N   0  0  0  0  0  0  0  0  0  0  0  0
  139.3700   72.4940  222.3690 C   0  0  0  0  0  0  0  0  0  0  0  0
  140.3170   72.6820  221.5510 O   0  0  0  0  0  0  0  0  0  0  0  0
  139.5860   71.4760  223.4170 C   0  0  0  0  0  0  0  0  0  0  0  0
  139.2820   70.1500  223.2210 C   0  0  0  0  0  0  0  0  0  0  0  0
  139.4960   69.2040  224.2290 C   0  0  0  0  0  0  0  0  0  0  0  0
  140.0190   69.6130  225.4360 C   0  0  0  0  0  0  0  0  0  0  0  0
  140.2680   68.7690  226.4900 C   0  0  0  0  0  0  0  0  0  0  0  0
  140.7940   69.2180  227.6850 C   0  0  0  0  0  0  0  0  0  0  0  0
  141.1120   68.1430  229.0330 Cl  0  0  0  0  0  0  0  0  0  0  0  0
  141.0980   70.5690  227.8720 C   0  0  0  0  0  0  0  0  0  0  0  0
  140.8440   71.3980  226.8100 C   0  0  0  0  0  0  0  0  0  0  0  0
  140.3220   70.9570  225.6190 C   0  0  0  0  0  0  0  0  0  0  0  0
  140.0940   71.8190  224.6130 N   0  0  0  0  0  0  0  0  0  0  0  0
  141.7209   79.3529  225.2691 H   0  0  0  0  0  0  0  0  0  0  0  0
  140.9499   78.2720  224.0592 H   0  0  0  0  0  0  0  0  0  0  0  0
  142.7326   78.4931  224.0592 H   0  0  0  0  0  0  0  0  0  0  0  0
  142.5374   81.1979  224.9614 H   0  0  0  0  0  0  0  0  0  0  0  0
  143.6045   81.0424  223.5248 H   0  0  0  0  0  0  0  0  0  0  0  0
  142.2674   82.2419  223.5248 H   0  0  0  0  0  0  0  0  0  0  0  0
  140.0160   80.8408  224.4859 H   0  0  0  0  0  0  0  0  0  0  0  0
  140.2157   81.7305  222.9382 H   0  0  0  0  0  0  0  0  0  0  0  0
  139.5258   80.0720  222.9382 H   0  0  0  0  0  0  0  0  0  0  0  0
  141.4630   80.3654  221.1823 H   0  0  0  0  0  0  0  0  0  0  0  0
  143.1571   80.0595  221.9009 H   0  0  0  0  0  0  0  0  0  0  0  0
  142.9500   78.0260  221.1130 H   0  0  0  0  0  0  0  0  0  0  0  0
  141.1218   76.1115  220.0438 H   0  0  0  0  0  0  0  0  0  0  0  0
  142.1302   75.7973  221.5362 H   0  0  0  0  0  0  0  0  0  0  0  0
  140.3560   74.6980  222.5090 H   0  0  0  0  0  0  0  0  0  0  0  0
  137.0538   74.8111  221.7483 H   0  0  0  0  0  0  0  0  0  0  0  0
  137.6092   73.6142  220.4466 H   0  0  0  0  0  0  0  0  0  0  0  0
  137.4250   72.9490  223.0820 H   0  0  0  0  0  0  0  0  0  0  0  0
  138.8637   69.8275  222.2561 H   0  0  0  0  0  0  0  0  0  0  0  0
  139.2494   68.1454  224.0598 H   0  0  0  0  0  0  0  0  0  0  0  0
  140.0407   67.6985  226.3785 H   0  0  0  0  0  0  0  0  0  0  0  0
  141.5170   70.9456  228.8168 H   0  0  0  0  0  0  0  0  0  0  0  0
  141.0695   72.4693  226.9173 H   0  0  0  0  0  0  0  0  0  0  0  0
  1  2  1  0
  2  3  1  0
  2  4  1  0
  2  5  1  0
  5  6  1  0
  6  7  1  0
  7  8  2  0
  7  9  1  0
  9 10  1  0
 10 11  1  0
 11 12  2  0
 11 13  1  0
 13 14  1  0
 14 15  1  0
 15 16  2  0
 15 17  1  0
 17 18  2  0
 18 19  1  0
 19 20  2  0
 20 21  1  0
 21 22  2  0
 22 23  1  0
 22 24  1  0
 24 25  2  0
 25 26  1  0
 26 27  2  0
 27 17  1  0
 26 20  1  0
  1 28  1  0
  1 29  1  0
  1 30  1  0
  3 31  1  0
  3 32  1  0
  3 33  1  0
  4 34  1  0
  4 35  1  0
  4 36  1  0
  5 37  1  0
  5 38  1  0
  6 39  1  0
  9 40  1  0
  9 41  1  0
 10 42  1  0
 13 43  1  0
 13 44  1  0
 14 45  1  0
 18 46  1  0
 19 47  1  0
 21 48  1  0
 24 49  1  0
 25 50  1  0
M  END
>  <smiles>  (25) 
CC(C)(C)CNC(=O)CNC(=O)CNC(=O)c1ccc2cc(Cl)ccc2n1

>  <score_type>  (25) 
oracle

>  <origin>  (25) 
autodockgpu

>  <m_score__min__energy>  (25) 
-8.0299999999999994

>  <m_primary>  (25) 
energy

>  <rmsd>  (25) 
1.7661961051850368

>  <m_score__min__rmsd>  (25) 
1.7661961051850368

>  <meeko>  (25) 
{"free_energy": -7.89, "intermolecular_energy": -9.98, "internal_energy": -1.53, "cluster_size": 39, "cluster_id": 1, "rank_in_cluster": 2}

>  <energy>  (25) 
-7.16

>  <cluster_rmsd>  (25) 
1.83

>  <cluster>  (25) 
1

$$$$

     RDKit          3D

 50 51  0  0  0  0  0  0  0  0999 V2000
  142.1910   81.6020  224.2040 C   0  0  0  0  0  0  0  0  0  0  0  0
  141.3640   80.6420  223.3370 C   0  0  0  0  0  0  0  0  0  0  0  0
  141.7410   81.0530  221.8870 C   0  0  0  0  0  0  0  0  0  0  0  0
  139.9290   80.9870  223.4830 C   0  0  0  0  0  0  0  0  0  0  0  0
  141.7770   79.2260  223.5650 C   0  0  0  0  0  0  0  0  0  0  0  0
  141.9360   78.3810  222.4330 N   0  0  0  0  0  0  0  0  0  0  0  0
  141.0600   77.3890  221.9500 C   0  0  0  0  0  0  0  0  0  0  0  0
  139.9570   77.1050  222.4720 O   0  0  0  0  0  0  0  0  0  0  0  0
  141.4400   76.6060  220.7410 C   0  0  0  0  0  0  0  0  0  0  0  0
  140.7710   75.3600  220.6360 N   0  0  0  0  0  0  0  0  0  0  0  0
  141.2000   74.3950  219.7190 C   0  0  0  0  0  0  0  0  0  0  0  0
  142.2170   74.6980  219.0000 O   0  0  0  0  0  0  0  0  0  0  0  0
  140.6140   73.0710  219.4940 C   0  0  0  0  0  0  0  0  0  0  0  0
  140.5420   72.2000  220.6170 N   0  0  0  0  0  0  0  0  0  0  0  0
  139.8470   72.5470  221.7880 C   0  0  0  0  0  0  0  0  0  0  0  0
  139.2270   73.6380  221.9530 O   0  0  0  0  0  0  0  0  0  0  0  0
  139.8250   71.5900  222.9130 C   0  0  0  0  0  0  0  0  0  0  0  0
  139.2250   70.3580  222.8120 C   0  0  0  0  0  0  0  0  0  0  0  0
  139.2160   69.4690  223.8920 C   0  0  0  0  0  0  0  0  0  0  0  0
  139.8210   69.8390  225.0730 C   0  0  0  0  0  0  0  0  0  0  0  0
  139.8710   69.0440  226.1910 C   0  0  0  0  0  0  0  0  0  0  0  0
  140.4870   69.4510  227.3580 C   0  0  0  0  0  0  0  0  0  0  0  0
  140.5520   68.4390  228.7880 Cl  0  0  0  0  0  0  0  0  0  0  0  0
  141.0930   70.7070  227.4480 C   0  0  0  0  0  0  0  0  0  0  0  0
  141.0350   71.4880  226.3230 C   0  0  0  0  0  0  0  0  0  0  0  0
  140.4240   71.0870  225.1600 C   0  0  0  0  0  0  0  0  0  0  0  0
  140.3990   71.8990  224.0880 N   0  0  0  0  0  0  0  0  0  0  0  0
  142.0063   81.3876  225.2670 H   0  0  0  0  0  0  0  0  0  0  0  0
  143.2601   81.4669  223.9831 H   0  0  0  0  0  0  0  0  0  0  0  0
  141.8991   82.6393  223.9831 H   0  0  0  0  0  0  0  0  0  0  0  0
  142.4843   81.8633  221.9171 H   0  0  0  0  0  0  0  0  0  0  0  0
  142.1647   80.1862  221.3586 H   0  0  0  0  0  0  0  0  0  0  0  0
  140.8409   81.4005  221.3586 H   0  0  0  0  0  0  0  0  0  0  0  0
  139.6735   81.0484  224.5512 H   0  0  0  0  0  0  0  0  0  0  0  0
  139.7345   81.9575  223.0031 H   0  0  0  0  0  0  0  0  0  0  0  0
  139.3146   80.2110  223.0031 H   0  0  0  0  0  0  0  0  0  0  0  0
  142.7419   79.2489  224.0928 H   0  0  0  0  0  0  0  0  0  0  0  0
  140.9361   78.7832  224.1190 H   0  0  0  0  0  0  0  0  0  0  0  0
  142.8350   78.5000  221.8630 H   0  0  0  0  0  0  0  0  0  0  0  0
  141.2008   77.2049  219.8499 H   0  0  0  0  0  0  0  0  0  0  0  0
  142.5150   76.3880  220.8236 H   0  0  0  0  0  0  0  0  0  0  0  0
  139.9590   75.1500  221.2440 H   0  0  0  0  0  0  0  0  0  0  0  0
  139.5894   73.2198  219.1225 H   0  0  0  0  0  0  0  0  0  0  0  0
  141.2939   72.5726  218.7874 H   0  0  0  0  0  0  0  0  0  0  0  0
  141.0240   71.2530  220.5880 H   0  0  0  0  0  0  0  0  0  0  0  0
  138.7441   70.0661  221.8667 H   0  0  0  0  0  0  0  0  0  0  0  0
  138.7314   68.4858  223.7993 H   0  0  0  0  0  0  0  0  0  0  0  0
  139.4043   68.0485  226.1561 H   0  0  0  0  0  0  0  0  0  0  0  0
  141.5881   71.0493  228.3687 H   0  0  0  0  0  0  0  0  0  0  0  0
  141.5004   72.4843  226.3530 H   0  0  0  0  0  0  0  0  0  0  0  0
  1  2  1  0
  2  3  1  0
  2  4  1  0
  2  5  1  0
  5  6  1  0
  6  7  1  0
  7  8  2  0
  7  9  1  0
  9 10  1  0
 10 11  1  0
 11 12  2  0
 11 13  1  0
 13 14  1  0
 14 15  1  0
 15 16  2  0
 15 17  1  0
 17 18  2  0
 18 19  1  0
 19 20  2  0
 20 21  1  0
 21 22  2  0
 22 23  1  0
 22 24  1  0
 24 25  2  0
 25 26  1  0
 26 27  2  0
 27 17  1  0
 26 20  1  0
  1 28  1  0
  1 29  1  0
  1 30  1  0
  3 31  1  0
  3 32  1  0
  3 33  1  0
  4 34  1  0
  4 35  1  0
  4 36  1  0
  5 37  1  0
  5 38  1  0
  6 39  1  0
  9 40  1  0
  9 41  1  0
 10 42  1  0
 13 43  1  0
 13 44  1  0
 14 45  1  0
 18 46  1  0
 19 47  1  0
 21 48  1  0
 24 49  1  0
 25 50  1  0
M  END
>  <smiles>  (26) 
CC(C)(C)CNC(=O)CNC(=O)CNC(=O)c1ccc2cc(Cl)ccc2n1

>  <score_type>  (26) 
oracle

>  <origin>  (26) 
autodockgpu

>  <m_score__min__energy>  (26) 
-8.0299999999999994

>  <m_primary>  (26) 
energy

>  <rmsd>  (26) 
2.1247362437138815

>  <m_score__min__rmsd>  (26) 
2.1247362437138815

>  <meeko>  (26) 
{"free_energy": -7.22, "intermolecular_energy": -9.3, "internal_energy": -2.23, "cluster_size": 39, "cluster_id": 1, "rank_in_cluster": 23}

>  <energy>  (26) 
-7.1

>  <cluster_rmsd>  (26) 
1.84

>  <cluster>  (26) 
1

$$$$

     RDKit          3D

 50 51  0  0  0  0  0  0  0  0999 V2000
  143.3330   80.5160  223.4670 C   0  0  0  0  0  0  0  0  0  0  0  0
  141.9420   79.9640  223.1230 C   0  0  0  0  0  0  0  0  0  0  0  0
  141.9430   79.9340  221.5700 C   0  0  0  0  0  0  0  0  0  0  0  0
  140.9240   80.9770  223.4960 C   0  0  0  0  0  0  0  0  0  0  0  0
  141.7760   78.5740  223.6380 C   0  0  0  0  0  0  0  0  0  0  0  0
  140.7880   77.7470  223.0380 N   0  0  0  0  0  0  0  0  0  0  0  0
  139.3940   77.9420  222.9900 C   0  0  0  0  0  0  0  0  0  0  0  0
  138.8010   78.9270  223.4850 O   0  0  0  0  0  0  0  0  0  0  0  0
  138.5380   76.9290  222.3110 C   0  0  0  0  0  0  0  0  0  0  0  0
  139.1730   75.6720  222.1380 N   0  0  0  0  0  0  0  0  0  0  0  0
  140.1920   75.5110  221.1940 C   0  0  0  0  0  0  0  0  0  0  0  0
  140.5140   76.5480  220.5140 O   0  0  0  0  0  0  0  0  0  0  0  0
  140.9350   74.2820  220.9000 C   0  0  0  0  0  0  0  0  0  0  0  0
  140.9320   73.2740  221.9040 N   0  0  0  0  0  0  0  0  0  0  0  0
  139.7500   72.6400  222.3230 C   0  0  0  0  0  0  0  0  0  0  0  0
  138.6010   72.8920  221.8560 O   0  0  0  0  0  0  0  0  0  0  0  0
  139.8300   71.6070  223.3760 C   0  0  0  0  0  0  0  0  0  0  0  0
  139.4080   70.3160  223.1650 C   0  0  0  0  0  0  0  0  0  0  0  0
  139.4940   69.3550  224.1790 C   0  0  0  0  0  0  0  0  0  0  0  0
  140.0110   69.7140  225.4040 C   0  0  0  0  0  0  0  0  0  0  0  0
  140.1390   68.8500  226.4640 C   0  0  0  0  0  0  0  0  0  0  0  0
  140.6630   69.2480  227.6780 C   0  0  0  0  0  0  0  0  0  0  0  0
  140.8290   68.1490  229.0350 Cl  0  0  0  0  0  0  0  0  0  0  0  0
  141.0880   70.5640  227.8790 C   0  0  0  0  0  0  0  0  0  0  0  0
  140.9530   71.4120  226.8110 C   0  0  0  0  0  0  0  0  0  0  0  0
  140.4340   71.0220  225.6020 C   0  0  0  0  0  0  0  0  0  0  0  0
  140.3260   71.9010  224.5900 N   0  0  0  0  0  0  0  0  0  0  0  0
  143.4492   80.5621  224.5599 H   0  0  0  0  0  0  0  0  0  0  0  0
  144.1044   79.8558  223.0438 H   0  0  0  0  0  0  0  0  0  0  0  0
  143.4418   81.5255  223.0438 H   0  0  0  0  0  0  0  0  0  0  0  0
  141.9775   78.8906  221.2235 H   0  0  0  0  0  0  0  0  0  0  0  0
  141.0284   80.4154  221.1934 H   0  0  0  0  0  0  0  0  0  0  0  0
  142.8238   80.4748  221.1934 H   0  0  0  0  0  0  0  0  0  0  0  0
  140.8572   81.0434  224.5920 H   0  0  0  0  0  0  0  0  0  0  0  0
  141.2135   81.9559  223.0863 H   0  0  0  0  0  0  0  0  0  0  0  0
  139.9465   80.6826  223.0863 H   0  0  0  0  0  0  0  0  0  0  0  0
  142.7436   78.0646  223.5185 H   0  0  0  0  0  0  0  0  0  0  0  0
  141.4268   78.7075  224.6725 H   0  0  0  0  0  0  0  0  0  0  0  0
  141.1320   76.8530  222.5560 H   0  0  0  0  0  0  0  0  0  0  0  0
  137.6306   76.7799  222.9146 H   0  0  0  0  0  0  0  0  0  0  0  0
  138.3137   77.3177  221.3067 H   0  0  0  0  0  0  0  0  0  0  0  0
  138.8910   74.8600  222.7170 H   0  0  0  0  0  0  0  0  0  0  0  0
  140.5050   73.8437  219.9873 H   0  0  0  0  0  0  0  0  0  0  0  0
  141.9856   74.5956  220.8106 H   0  0  0  0  0  0  0  0  0  0  0  0
  141.8440   72.9780  222.3650 H   0  0  0  0  0  0  0  0  0  0  0  0
  138.9966   70.0339  222.1846 H   0  0  0  0  0  0  0  0  0  0  0  0
  139.1526   68.3248  223.9995 H   0  0  0  0  0  0  0  0  0  0  0  0
  139.8133   67.8064  226.3418 H   0  0  0  0  0  0  0  0  0  0  0  0
  141.5068   70.8998  228.8391 H   0  0  0  0  0  0  0  0  0  0  0  0
  141.2766   72.4567  226.9286 H   0  0  0  0  0  0  0  0  0  0  0  0
  1  2  1  0
  2  3  1  0
  2  4  1  0
  2  5  1  0
  5  6  1  0
  6  7  1  0
  7  8  2  0
  7  9  1  0
  9 10  1  0
 10 11  1  0
 11 12  2  0
 11 13  1  0
 13 14  1  0
 14 15  1  0
 15 16  2  0
 15 17  1  0
 17 18  2  0
 18 19  1  0
 19 20  2  0
 20 21  1  0
 21 22  2  0
 22 23  1  0
 22 24  1  0
 24 25  2  0
 25 26  1  0
 26 27  2  0
 27 17  1  0
 26 20  1  0
  1 28  1  0
  1 29  1  0
  1 30  1  0
  3 31  1  0
  3 32  1  0
  3 33  1  0
  4 34  1  0
  4 35  1  0
  4 36  1  0
  5 37  1  0
  5 38  1  0
  6 39  1  0
  9 40  1  0
  9 41  1  0
 10 42  1  0
 13 43  1  0
 13 44  1  0
 14 45  1  0
 18 46  1  0
 19 47  1  0
 21 48  1  0
 24 49  1  0
 25 50  1  0
M  END
>  <smiles>  (27) 
CC(C)(C)CNC(=O)CNC(=O)CNC(=O)c1ccc2cc(Cl)ccc2n1

>  <score_type>  (27) 
oracle

>  <origin>  (27) 
autodockgpu

>  <m_score__min__energy>  (27) 
-8.0299999999999994

>  <m_primary>  (27) 
energy

>  <rmsd>  (27) 
2.317995871439107

>  <m_score__min__rmsd>  (27) 
2.317995871439107

>  <meeko>  (27) 
{"free_energy": -7.66, "intermolecular_energy": -9.75, "internal_energy": -2.49, "cluster_size": 39, "cluster_id": 1, "rank_in_cluster": 8}

>  <energy>  (27) 
-7.08

>  <cluster_rmsd>  (27) 
1.88

>  <cluster>  (27) 
1

$$$$

     RDKit          3D

 50 51  0  0  0  0  0  0  0  0999 V2000
  144.4490   73.7380  218.4790 C   0  0  0  0  0  0  0  0  0  0  0  0
  144.0720   74.3060  219.8540 C   0  0  0  0  0  0  0  0  0  0  0  0
  145.3660   74.1060  220.6910 C   0  0  0  0  0  0  0  0  0  0  0  0
  143.0620   73.4150  220.4750 C   0  0  0  0  0  0  0  0  0  0  0  0
  143.7690   75.7650  219.7660 C   0  0  0  0  0  0  0  0  0  0  0  0
  142.5080   76.2200  220.2360 N   0  0  0  0  0  0  0  0  0  0  0  0
  141.5180   76.9380  219.5360 C   0  0  0  0  0  0  0  0  0  0  0  0
  141.6130   77.2850  218.3370 O   0  0  0  0  0  0  0  0  0  0  0  0
  140.2640   77.3270  220.2400 C   0  0  0  0  0  0  0  0  0  0  0  0
  139.3020   76.2860  220.3050 N   0  0  0  0  0  0  0  0  0  0  0  0
  139.4850   75.1990  221.1660 C   0  0  0  0  0  0  0  0  0  0  0  0
  140.5480   75.2040  221.8800 O   0  0  0  0  0  0  0  0  0  0  0  0
  138.5880   74.0530  221.3410 C   0  0  0  0  0  0  0  0  0  0  0  0
  138.9330   73.1170  222.3550 N   0  0  0  0  0  0  0  0  0  0  0  0
  138.4180   71.8090  222.3720 C   0  0  0  0  0  0  0  0  0  0  0  0
  137.6220   71.3450  221.5040 O   0  0  0  0  0  0  0  0  0  0  0  0
  138.8190   70.8990  223.4630 C   0  0  0  0  0  0  0  0  0  0  0  0
  138.4910   69.5640  223.4580 C   0  0  0  0  0  0  0  0  0  0  0  0
  138.8830   68.7210  224.5040 C   0  0  0  0  0  0  0  0  0  0  0  0
  139.6090   69.2430  225.5530 C   0  0  0  0  0  0  0  0  0  0  0  0
  140.0420   68.5050  226.6270 C   0  0  0  0  0  0  0  0  0  0  0  0
  140.7680   69.0650  227.6590 C   0  0  0  0  0  0  0  0  0  0  0  0
  141.3240   68.1270  229.0330 Cl  0  0  0  0  0  0  0  0  0  0  0  0
  141.0940   70.4230  227.6520 C   0  0  0  0  0  0  0  0  0  0  0  0
  140.6540   71.1450  226.5730 C   0  0  0  0  0  0  0  0  0  0  0  0
  139.9330   70.5930  225.5430 C   0  0  0  0  0  0  0  0  0  0  0  0
  139.5280   71.3530  224.5110 N   0  0  0  0  0  0  0  0  0  0  0  0
  145.0529   72.8281  218.6112 H   0  0  0  0  0  0  0  0  0  0  0  0
  143.5338   73.4927  217.9202 H   0  0  0  0  0  0  0  0  0  0  0  0
  145.0305   74.4861  217.9202 H   0  0  0  0  0  0  0  0  0  0  0  0
  145.1193   74.1441  221.7623 H   0  0  0  0  0  0  0  0  0  0  0  0
  145.8101   73.1285  220.4516 H   0  0  0  0  0  0  0  0  0  0  0  0
  146.0845   74.9038  220.4516 H   0  0  0  0  0  0  0  0  0  0  0  0
  143.1379   73.4820  221.5703 H   0  0  0  0  0  0  0  0  0  0  0  0
  142.0553   73.7246  220.1576 H   0  0  0  0  0  0  0  0  0  0  0  0
  143.2436   72.3776  220.1576 H   0  0  0  0  0  0  0  0  0  0  0  0
  144.5419   76.2936  220.3432 H   0  0  0  0  0  0  0  0  0  0  0  0
  143.7478   75.9734  218.6861 H   0  0  0  0  0  0  0  0  0  0  0  0
  142.2620   75.9960  221.2560 H   0  0  0  0  0  0  0  0  0  0  0  0
  140.5206   77.6278  221.2665 H   0  0  0  0  0  0  0  0  0  0  0  0
  139.8122   78.1478  219.6637 H   0  0  0  0  0  0  0  0  0  0  0  0
  138.4500   76.3250  219.7180 H   0  0  0  0  0  0  0  0  0  0  0  0
  137.5882   74.4461  221.5774 H   0  0  0  0  0  0  0  0  0  0  0  0
  138.6515   73.4913  220.3974 H   0  0  0  0  0  0  0  0  0  0  0  0
  139.5990   73.3960  223.1350 H   0  0  0  0  0  0  0  0  0  0  0  0
  137.9114   69.1520  222.6188 H   0  0  0  0  0  0  0  0  0  0  0  0
  138.6149   67.6543  224.4892 H   0  0  0  0  0  0  0  0  0  0  0  0
  139.8025   67.4321  226.6663 H   0  0  0  0  0  0  0  0  0  0  0  0
  141.6708   70.8867  228.4658 H   0  0  0  0  0  0  0  0  0  0  0  0
  140.8900   72.2185  226.5302 H   0  0  0  0  0  0  0  0  0  0  0  0
  1  2  1  0
  2  3  1  0
  2  4  1  0
  2  5  1  0
  5  6  1  0
  6  7  1  0
  7  8  2  0
  7  9  1  0
  9 10  1  0
 10 11  1  0
 11 12  2  0
 11 13  1  0
 13 14  1  0
 14 15  1  0
 15 16  2  0
 15 17  1  0
 17 18  2  0
 18 19  1  0
 19 20  2  0
 20 21  1  0
 21 22  2  0
 22 23  1  0
 22 24  1  0
 24 25  2  0
 25 26  1  0
 26 27  2  0
 27 17  1  0
 26 20  1  0
  1 28  1  0
  1 29  1  0
  1 30  1  0
  3 31  1  0
  3 32  1  0
  3 33  1  0
  4 34  1  0
  4 35  1  0
  4 36  1  0
  5 37  1  0
  5 38  1  0
  6 39  1  0
  9 40  1  0
  9 41  1  0
 10 42  1  0
 13 43  1  0
 13 44  1  0
 14 45  1  0
 18 46  1  0
 19 47  1  0
 21 48  1  0
 24 49  1  0
 25 50  1  0
M  END
>  <smiles>  (28) 
CC(C)(C)CNC(=O)CNC(=O)CNC(=O)c1ccc2cc(Cl)ccc2n1

>  <score_type>  (28) 
oracle

>  <origin>  (28) 
autodockgpu

>  <m_score__min__energy>  (28) 
-8.0299999999999994

>  <m_primary>  (28) 
energy

>  <rmsd>  (28) 
3.3211403690003434

>  <m_score__min__rmsd>  (28) 
3.3211403690003434

>  <meeko>  (28) 
{"free_energy": -6.98, "intermolecular_energy": -9.07, "internal_energy": -2.62, "cluster_size": 39, "cluster_id": 1, "rank_in_cluster": 30}

>  <energy>  (28) 
-7.06

>  <cluster_rmsd>  (28) 
1.71

>  <cluster>  (28) 
1

$$$$

     RDKit          3D

 50 51  0  0  0  0  0  0  0  0999 V2000
  145.5910   73.3500  221.1750 C   0  0  0  0  0  0  0  0  0  0  0  0
  144.7170   72.7330  220.0740 C   0  0  0  0  0  0  0  0  0  0  0  0
  143.7050   71.8610  220.8670 C   0  0  0  0  0  0  0  0  0  0  0  0
  145.5400   71.7720  219.2980 C   0  0  0  0  0  0  0  0  0  0  0  0
  143.9720   73.7890  219.3280 C   0  0  0  0  0  0  0  0  0  0  0  0
  143.0010   74.5510  220.0320 N   0  0  0  0  0  0  0  0  0  0  0  0
  142.8070   75.9470  220.0230 C   0  0  0  0  0  0  0  0  0  0  0  0
  143.4930   76.7510  219.3510 O   0  0  0  0  0  0  0  0  0  0  0  0
  141.7240   76.5380  220.8570 C   0  0  0  0  0  0  0  0  0  0  0  0
  140.7250   75.6050  221.2380 N   0  0  0  0  0  0  0  0  0  0  0  0
  139.4540   75.6450  220.6590 C   0  0  0  0  0  0  0  0  0  0  0  0
  139.2520   76.5520  219.7780 O   0  0  0  0  0  0  0  0  0  0  0  0
  138.3240   74.7570  220.9510 C   0  0  0  0  0  0  0  0  0  0  0  0
  138.5330   73.7570  221.9420 N   0  0  0  0  0  0  0  0  0  0  0  0
  139.6480   72.9020  221.9180 C   0  0  0  0  0  0  0  0  0  0  0  0
  140.5570   72.9400  221.0380 O   0  0  0  0  0  0  0  0  0  0  0  0
  139.7890   71.8860  222.9790 C   0  0  0  0  0  0  0  0  0  0  0  0
  139.4290   70.5740  222.7870 C   0  0  0  0  0  0  0  0  0  0  0  0
  139.5710   69.6280  223.8080 C   0  0  0  0  0  0  0  0  0  0  0  0
  140.0830   70.0240  225.0240 C   0  0  0  0  0  0  0  0  0  0  0  0
  140.2640   69.1790  226.0920 C   0  0  0  0  0  0  0  0  0  0  0  0
  140.7800   69.6150  227.2960 C   0  0  0  0  0  0  0  0  0  0  0  0
  141.0130   68.5400  228.6620 Cl  0  0  0  0  0  0  0  0  0  0  0  0
  141.1420   70.9520  227.4800 C   0  0  0  0  0  0  0  0  0  0  0  0
  140.9550   71.7820  226.4050 C   0  0  0  0  0  0  0  0  0  0  0  0
  140.4430   71.3540  225.2050 C   0  0  0  0  0  0  0  0  0  0  0  0
  140.2820   72.2160  224.1860 N   0  0  0  0  0  0  0  0  0  0  0  0
  145.1921   73.0684  222.1607 H   0  0  0  0  0  0  0  0  0  0  0  0
  146.6215   72.9781  221.0766 H   0  0  0  0  0  0  0  0  0  0  0  0
  145.5856   74.4456  221.0766 H   0  0  0  0  0  0  0  0  0  0  0  0
  143.8672   72.0008  221.9460 H   0  0  0  0  0  0  0  0  0  0  0  0
  142.6793   72.1628  220.6083 H   0  0  0  0  0  0  0  0  0  0  0  0
  143.8519   70.8020  220.6083 H   0  0  0  0  0  0  0  0  0  0  0  0
  146.0960   71.1228  219.9904 H   0  0  0  0  0  0  0  0  0  0  0  0
  144.8848   71.1563  218.6643 H   0  0  0  0  0  0  0  0  0  0  0  0
  146.2491   72.3247  218.6643 H   0  0  0  0  0  0  0  0  0  0  0  0
  144.7166   74.4954  218.9323 H   0  0  0  0  0  0  0  0  0  0  0  0
  143.3903   73.2333  218.5777 H   0  0  0  0  0  0  0  0  0  0  0  0
  142.3200   74.0090  220.6570 H   0  0  0  0  0  0  0  0  0  0  0  0
  142.1761   76.9548  221.7691 H   0  0  0  0  0  0  0  0  0  0  0  0
  141.2297   77.3068  220.2450 H   0  0  0  0  0  0  0  0  0  0  0  0
  140.9330   74.8790  221.9480 H   0  0  0  0  0  0  0  0  0  0  0  0
  137.4846   75.3851  221.2839 H   0  0  0  0  0  0  0  0  0  0  0  0
  138.1440   74.2038  220.0174 H   0  0  0  0  0  0  0  0  0  0  0  0
  137.8330   73.6370  222.7330 H   0  0  0  0  0  0  0  0  0  0  0  0
  139.0221   70.2620  221.8138 H   0  0  0  0  0  0  0  0  0  0  0  0
  139.2774   68.5810  223.6418 H   0  0  0  0  0  0  0  0  0  0  0  0
  139.9886   68.1195  225.9842 H   0  0  0  0  0  0  0  0  0  0  0  0
  141.5533   71.3175  228.4325 H   0  0  0  0  0  0  0  0  0  0  0  0
  141.2284   72.8424  226.5088 H   0  0  0  0  0  0  0  0  0  0  0  0
  1  2  1  0
  2  3  1  0
  2  4  1  0
  2  5  1  0
  5  6  1  0
  6  7  1  0
  7  8  2  0
  7  9  1  0
  9 10  1  0
 10 11  1  0
 11 12  2  0
 11 13  1  0
 13 14  1  0
 14 15  1  0
 15 16  2  0
 15 17  1  0
 17 18  2  0
 18 19  1  0
 19 20  2  0
 20 21  1  0
 21 22  2  0
 22 23  1  0
 22 24  1  0
 24 25  2  0
 25 26  1  0
 26 27  2  0
 27 17  1  0
 26 20  1  0
  1 28  1  0
  1 29  1  0
  1 30  1  0
  3 31  1  0
  3 32  1  0
  3 33  1  0
  4 34  1  0
  4 35  1  0
  4 36  1  0
  5 37  1  0
  5 38  1  0
  6 39  1  0
  9 40  1  0
  9 41  1  0
 10 42  1  0
 13 43  1  0
 13 44  1  0
 14 45  1  0
 18 46  1  0
 19 47  1  0
 21 48  1  0
 24 49  1  0
 25 50  1  0
M  END
>  <smiles>  (29) 
CC(C)(C)CNC(=O)CNC(=O)CNC(=O)c1ccc2cc(Cl)ccc2n1

>  <score_type>  (29) 
oracle

>  <origin>  (29) 
autodockgpu

>  <m_score__min__energy>  (29) 
-8.0299999999999994

>  <m_primary>  (29) 
energy

>  <rmsd>  (29) 
3.9751518375613073

>  <m_score__min__rmsd>  (29) 
3.9751518375613073

>  <meeko>  (29) 
{"free_energy": -6.55, "intermolecular_energy": -8.64, "internal_energy": -2.79, "cluster_size": 5, "cluster_id": 2, "rank_in_cluster": 2}

>  <energy>  (29) 
-7.05

>  <cluster_rmsd>  (29) 
1.9

>  <cluster>  (29) 
1

$$$$

     RDKit          3D

 50 51  0  0  0  0  0  0  0  0999 V2000
  142.9560   80.5310  223.8260 C   0  0  0  0  0  0  0  0  0  0  0  0
  141.6930   80.0130  223.1230 C   0  0  0  0  0  0  0  0  0  0  0  0
  141.9940   80.2570  221.6190 C   0  0  0  0  0  0  0  0  0  0  0  0
  140.5630   80.9180  223.4500 C   0  0  0  0  0  0  0  0  0  0  0  0
  141.5150   78.5490  223.3530 C   0  0  0  0  0  0  0  0  0  0  0  0
  140.6440   77.8330  222.4890 N   0  0  0  0  0  0  0  0  0  0  0  0
  139.2430   77.9260  222.3820 C   0  0  0  0  0  0  0  0  0  0  0  0
  138.5330   78.7010  223.0630 O   0  0  0  0  0  0  0  0  0  0  0  0
  138.5260   77.0600  221.4050 C   0  0  0  0  0  0  0  0  0  0  0  0
  139.1090   75.7760  221.2480 N   0  0  0  0  0  0  0  0  0  0  0  0
  138.9640   75.0690  220.0500 C   0  0  0  0  0  0  0  0  0  0  0  0
  138.2930   75.6420  219.1220 O   0  0  0  0  0  0  0  0  0  0  0  0
  139.5020   73.7410  219.7400 C   0  0  0  0  0  0  0  0  0  0  0  0
  139.5050   72.7870  220.7960 N   0  0  0  0  0  0  0  0  0  0  0  0
  140.1290   73.0390  222.0300 C   0  0  0  0  0  0  0  0  0  0  0  0
  140.7300   74.1140  222.3180 O   0  0  0  0  0  0  0  0  0  0  0  0
  140.0930   71.9940  223.0730 C   0  0  0  0  0  0  0  0  0  0  0  0
  139.5700   70.7460  222.8380 C   0  0  0  0  0  0  0  0  0  0  0  0
  139.5460   69.7720  223.8420 C   0  0  0  0  0  0  0  0  0  0  0  0
  140.0570   70.0760  225.0850 C   0  0  0  0  0  0  0  0  0  0  0  0
  140.0840   69.1960  226.1390 C   0  0  0  0  0  0  0  0  0  0  0  0
  140.6050   69.5380  227.3710 C   0  0  0  0  0  0  0  0  0  0  0  0
  140.6400   68.4180  228.7200 Cl  0  0  0  0  0  0  0  0  0  0  0  0
  141.1330   70.8120  227.5970 C   0  0  0  0  0  0  0  0  0  0  0  0
  141.0990   71.6770  226.5350 C   0  0  0  0  0  0  0  0  0  0  0  0
  140.5830   71.3420  225.3080 C   0  0  0  0  0  0  0  0  0  0  0  0
  140.5770   72.2350  224.3030 N   0  0  0  0  0  0  0  0  0  0  0  0
  142.8183   80.4745  224.9159 H   0  0  0  0  0  0  0  0  0  0  0  0
  143.8181   79.9138  223.5329 H   0  0  0  0  0  0  0  0  0  0  0  0
  143.1364   81.5758  223.5329 H   0  0  0  0  0  0  0  0  0  0  0  0
  142.8452   80.9470  221.5227 H   0  0  0  0  0  0  0  0  0  0  0  0
  142.2406   79.3007  221.1346 H   0  0  0  0  0  0  0  0  0  0  0  0
  141.1094   80.6961  221.1346 H   0  0  0  0  0  0  0  0  0  0  0  0
  140.4622   80.9987  224.5424 H   0  0  0  0  0  0  0  0  0  0  0  0
  140.7561   81.9140  223.0250 H   0  0  0  0  0  0  0  0  0  0  0  0
  139.6332   80.5120  223.0250 H   0  0  0  0  0  0  0  0  0  0  0  0
  142.5084   78.0835  223.2729 H   0  0  0  0  0  0  0  0  0  0  0  0
  141.0318   78.4857  224.3392 H   0  0  0  0  0  0  0  0  0  0  0  0
  141.0980   77.1230  221.8250 H   0  0  0  0  0  0  0  0  0  0  0  0
  137.4894   76.9313  221.7499 H   0  0  0  0  0  0  0  0  0  0  0  0
  138.5830   77.5614  220.4276 H   0  0  0  0  0  0  0  0  0  0  0  0
  139.6540   75.3520  222.0200 H   0  0  0  0  0  0  0  0  0  0  0  0
  138.9040   73.3237  218.9164 H   0  0  0  0  0  0  0  0  0  0  0  0
  140.5625   73.9089  219.5010 H   0  0  0  0  0  0  0  0  0  0  0  0
  139.0250   71.8470  220.6660 H   0  0  0  0  0  0  0  0  0  0  0  0
  139.1633   70.5083  221.8440 H   0  0  0  0  0  0  0  0  0  0  0  0
  139.1245   68.7759  223.6416 H   0  0  0  0  0  0  0  0  0  0  0  0
  139.6766   68.1842  225.9968 H   0  0  0  0  0  0  0  0  0  0  0  0
  141.5518   71.1036  228.5715 H   0  0  0  0  0  0  0  0  0  0  0  0
  141.5053   72.6899  226.6725 H   0  0  0  0  0  0  0  0  0  0  0  0
  1  2  1  0
  2  3  1  0
  2  4  1  0
  2  5  1  0
  5  6  1  0
  6  7  1  0
  7  8  2  0
  7  9  1  0
  9 10  1  0
 10 11  1  0
 11 12  2  0
 11 13  1  0
 13 14  1  0
 14 15  1  0
 15 16  2  0
 15 17  1  0
 17 18  2  0
 18 19  1  0
 19 20  2  0
 20 21  1  0
 21 22  2  0
 22 23  1  0
 22 24  1  0
 24 25  2  0
 25 26  1  0
 26 27  2  0
 27 17  1  0
 26 20  1  0
  1 28  1  0
  1 29  1  0
  1 30  1  0
  3 31  1  0
  3 32  1  0
  3 33  1  0
  4 34  1  0
  4 35  1  0
  4 36  1  0
  5 37  1  0
  5 38  1  0
  6 39  1  0
  9 40  1  0
  9 41  1  0
 10 42  1  0
 13 43  1  0
 13 44  1  0
 14 45  1  0
 18 46  1  0
 19 47  1  0
 21 48  1  0
 24 49  1  0
 25 50  1  0
M  END
>  <smiles>  (30) 
CC(C)(C)CNC(=O)CNC(=O)CNC(=O)c1ccc2cc(Cl)ccc2n1

>  <score_type>  (30) 
oracle

>  <origin>  (30) 
autodockgpu

>  <m_score__min__energy>  (30) 
-8.0299999999999994

>  <m_primary>  (30) 
energy

>  <rmsd>  (30) 
2.259767326007862

>  <m_score__min__rmsd>  (30) 
2.259767326007862

>  <meeko>  (30) 
{"free_energy": -7.27, "intermolecular_energy": -9.36, "internal_energy": -1.82, "cluster_size": 39, "cluster_id": 1, "rank_in_cluster": 21}

>  <energy>  (30) 
-6.98

>  <cluster_rmsd>  (30) 
1.77

>  <cluster>  (30) 
1

$$$$

     RDKit          3D

 50 51  0  0  0  0  0  0  0  0999 V2000
  142.4930   80.9560  223.9170 C   0  0  0  0  0  0  0  0  0  0  0  0
  141.5890   80.0050  223.1210 C   0  0  0  0  0  0  0  0  0  0  0  0
  141.8040   78.6360  223.8230 C   0  0  0  0  0  0  0  0  0  0  0  0
  142.1550   79.8410  221.7590 C   0  0  0  0  0  0  0  0  0  0  0  0
  140.1550   80.3980  223.2470 C   0  0  0  0  0  0  0  0  0  0  0  0
  139.1620   79.4420  222.9010 N   0  0  0  0  0  0  0  0  0  0  0  0
  138.3760   79.3780  221.7340 C   0  0  0  0  0  0  0  0  0  0  0  0
  138.4550   80.1910  220.7840 O   0  0  0  0  0  0  0  0  0  0  0  0
  137.3760   78.2840  221.5870 C   0  0  0  0  0  0  0  0  0  0  0  0
  137.9130   77.0930  221.0330 N   0  0  0  0  0  0  0  0  0  0  0  0
  138.8070   76.3060  221.7640 C   0  0  0  0  0  0  0  0  0  0  0  0
  139.1000   76.7130  222.9430 O   0  0  0  0  0  0  0  0  0  0  0  0
  139.4430   75.0590  221.3290 C   0  0  0  0  0  0  0  0  0  0  0  0
  139.5590   74.0240  222.2980 N   0  0  0  0  0  0  0  0  0  0  0  0
  139.6930   72.6720  221.9360 C   0  0  0  0  0  0  0  0  0  0  0  0
  139.7290   72.2540  220.7420 O   0  0  0  0  0  0  0  0  0  0  0  0
  139.8010   71.6570  223.0020 C   0  0  0  0  0  0  0  0  0  0  0  0
  139.4160   70.3510  222.8090 C   0  0  0  0  0  0  0  0  0  0  0  0
  139.5280   69.4070  223.8350 C   0  0  0  0  0  0  0  0  0  0  0  0
  140.0320   69.7960  225.0560 C   0  0  0  0  0  0  0  0  0  0  0  0
  140.1840   68.9510  226.1280 C   0  0  0  0  0  0  0  0  0  0  0  0
  140.6930   69.3800  227.3370 C   0  0  0  0  0  0  0  0  0  0  0  0
  140.8880   68.3050  228.7090 Cl  0  0  0  0  0  0  0  0  0  0  0  0
  141.0790   70.7110  227.5210 C   0  0  0  0  0  0  0  0  0  0  0  0
  140.9220   71.5400  226.4420 C   0  0  0  0  0  0  0  0  0  0  0  0
  140.4160   71.1190  225.2370 C   0  0  0  0  0  0  0  0  0  0  0  0
  140.2850   71.9810  224.2130 N   0  0  0  0  0  0  0  0  0  0  0  0
  142.3384   80.7933  224.9939 H   0  0  0  0  0  0  0  0  0  0  0  0
  143.5453   80.7594  223.6639 H   0  0  0  0  0  0  0  0  0  0  0  0
  142.2433   81.9969  223.6639 H   0  0  0  0  0  0  0  0  0  0  0  0
  141.7820   78.7759  224.9138 H   0  0  0  0  0  0  0  0  0  0  0  0
  141.0038   77.9420  223.5261 H   0  0  0  0  0  0  0  0  0  0  0  0
  142.7784   78.2207  223.5261 H   0  0  0  0  0  0  0  0  0  0  0  0
  143.2091   79.5356  221.8343 H   0  0  0  0  0  0  0  0  0  0  0  0
  141.5878   79.0703  221.2166 H   0  0  0  0  0  0  0  0  0  0  0  0
  142.0877   80.7956  221.2166 H   0  0  0  0  0  0  0  0  0  0  0  0
  139.9852   80.6787  224.2969 H   0  0  0  0  0  0  0  0  0  0  0  0
  140.0276   81.2020  222.5071 H   0  0  0  0  0  0  0  0  0  0  0  0
  138.9730   78.6620  223.6120 H   0  0  0  0  0  0  0  0  0  0  0  0
  136.9668   78.0512  222.5812 H   0  0  0  0  0  0  0  0  0  0  0  0
  136.6046   78.6441  220.8904 H   0  0  0  0  0  0  0  0  0  0  0  0
  137.6410   76.7920  220.0790 H   0  0  0  0  0  0  0  0  0  0  0  0
  138.8558   74.6623  220.4876 H   0  0  0  0  0  0  0  0  0  0  0  0
  140.4779   75.3364  221.0801 H   0  0  0  0  0  0  0  0  0  0  0  0
  139.5450   74.2600  223.3350 H   0  0  0  0  0  0  0  0  0  0  0  0
  139.0136   70.0439  221.8324 H   0  0  0  0  0  0  0  0  0  0  0  0
  139.2169   68.3652  223.6683 H   0  0  0  0  0  0  0  0  0  0  0  0
  139.8901   67.8966  226.0193 H   0  0  0  0  0  0  0  0  0  0  0  0
  141.4854   71.0718  228.4774 H   0  0  0  0  0  0  0  0  0  0  0  0
  141.2157   72.5949  226.5460 H   0  0  0  0  0  0  0  0  0  0  0  0
  1  2  1  0
  2  3  1  0
  2  4  1  0
  2  5  1  0
  5  6  1  0
  6  7  1  0
  7  8  2  0
  7  9  1  0
  9 10  1  0
 10 11  1  0
 11 12  2  0
 11 13  1  0
 13 14  1  0
 14 15  1  0
 15 16  2  0
 15 17  1  0
 17 18  2  0
 18 19  1  0
 19 20  2  0
 20 21  1  0
 21 22  2  0
 22 23  1  0
 22 24  1  0
 24 25  2  0
 25 26  1  0
 26 27  2  0
 27 17  1  0
 26 20  1  0
  1 28  1  0
  1 29  1  0
  1 30  1  0
  3 31  1  0
  3 32  1  0
  3 33  1  0
  4 34  1  0
  4 35  1  0
  4 36  1  0
  5 37  1  0
  5 38  1  0
  6 39  1  0
  9 40  1  0
  9 41  1  0
 10 42  1  0
 13 43  1  0
 13 44  1  0
 14 45  1  0
 18 46  1  0
 19 47  1  0
 21 48  1  0
 24 49  1  0
 25 50  1  0
M  END
>  <smiles>  (31) 
CC(C)(C)CNC(=O)CNC(=O)CNC(=O)c1ccc2cc(Cl)ccc2n1

>  <score_type>  (31) 
oracle

>  <origin>  (31) 
autodockgpu

>  <m_score__min__energy>  (31) 
-8.0299999999999994

>  <m_primary>  (31) 
energy

>  <rmsd>  (31) 
2.3928069953520463

>  <m_score__min__rmsd>  (31) 
2.3928069953520463

>  <meeko>  (31) 
{"free_energy": -7.1, "intermolecular_energy": -9.19, "internal_energy": -2.37, "cluster_size": 39, "cluster_id": 1, "rank_in_cluster": 26}

>  <energy>  (31) 
-6.89

>  <cluster_rmsd>  (31) 
1.66

>  <cluster>  (31) 
1

$$$$

     RDKit          3D

 50 51  0  0  0  0  0  0  0  0999 V2000
  140.2060   71.5810  228.3340 C   0  0  0  0  0  0  0  0  0  0  0  0
  140.4870   70.3780  227.4220 C   0  0  0  0  0  0  0  0  0  0  0  0
  141.2930   69.4160  228.3370 C   0  0  0  0  0  0  0  0  0  0  0  0
  141.4360   70.7980  226.3620 C   0  0  0  0  0  0  0  0  0  0  0  0
  139.2180   69.7110  227.0110 C   0  0  0  0  0  0  0  0  0  0  0  0
  139.0230   69.4260  225.6320 N   0  0  0  0  0  0  0  0  0  0  0  0
  139.1380   68.1890  224.9680 C   0  0  0  0  0  0  0  0  0  0  0  0
  139.4330   67.1100  225.5310 O   0  0  0  0  0  0  0  0  0  0  0  0
  138.9000   68.1250  223.4990 C   0  0  0  0  0  0  0  0  0  0  0  0
  138.0890   69.1800  223.0070 N   0  0  0  0  0  0  0  0  0  0  0  0
  138.6120   70.4670  222.8510 C   0  0  0  0  0  0  0  0  0  0  0  0
  139.8430   70.6300  223.1680 O   0  0  0  0  0  0  0  0  0  0  0  0
  137.9030   71.6530  222.3620 C   0  0  0  0  0  0  0  0  0  0  0  0
  136.9860   72.2690  223.2580 N   0  0  0  0  0  0  0  0  0  0  0  0
  135.9460   71.5510  223.8740 C   0  0  0  0  0  0  0  0  0  0  0  0
  135.7330   70.3150  223.7010 O   0  0  0  0  0  0  0  0  0  0  0  0
  135.0310   72.2640  224.7880 C   0  0  0  0  0  0  0  0  0  0  0  0
  134.1270   71.5990  225.5810 C   0  0  0  0  0  0  0  0  0  0  0  0
  133.2700   72.2970  226.4390 C   0  0  0  0  0  0  0  0  0  0  0  0
  133.3380   73.6720  226.4850 C   0  0  0  0  0  0  0  0  0  0  0  0
  132.5450   74.4520  227.2900 C   0  0  0  0  0  0  0  0  0  0  0  0
  132.6440   75.8290  227.3080 C   0  0  0  0  0  0  0  0  0  0  0  0
  131.6320   76.8300  228.3340 Cl  0  0  0  0  0  0  0  0  0  0  0  0
  133.5670   76.4930  226.4960 C   0  0  0  0  0  0  0  0  0  0  0  0
  134.3500   75.7000  225.6990 C   0  0  0  0  0  0  0  0  0  0  0  0
  134.2570   74.3300  225.6780 C   0  0  0  0  0  0  0  0  0  0  0  0
  135.0540   73.6050  224.8740 N   0  0  0  0  0  0  0  0  0  0  0  0
  140.2790   71.2684  229.3861 H   0  0  0  0  0  0  0  0  0  0  0  0
  140.9434   72.3725  228.1346 H   0  0  0  0  0  0  0  0  0  0  0  0
  139.1942   71.9639  228.1346 H   0  0  0  0  0  0  0  0  0  0  0  0
  141.0909   69.6572  229.3910 H   0  0  0  0  0  0  0  0  0  0  0  0
  140.9910   68.3779  228.1340 H   0  0  0  0  0  0  0  0  0  0  0  0
  142.3679   69.5315  228.1340 H   0  0  0  0  0  0  0  0  0  0  0  0
  142.3482   71.2017  226.8255 H   0  0  0  0  0  0  0  0  0  0  0  0
  141.6952   69.9305  225.7372 H   0  0  0  0  0  0  0  0  0  0  0  0
  140.9683   71.5732  225.7372 H   0  0  0  0  0  0  0  0  0  0  0  0
  139.1623   68.7550  227.5523 H   0  0  0  0  0  0  0  0  0  0  0  0
  138.4351   70.4458  227.2500 H   0  0  0  0  0  0  0  0  0  0  0  0
  138.7550   70.2500  225.0010 H   0  0  0  0  0  0  0  0  0  0  0  0
  139.8728   68.1669  222.9872 H   0  0  0  0  0  0  0  0  0  0  0  0
  138.3621   67.1862  223.3007 H   0  0  0  0  0  0  0  0  0  0  0  0
  137.1010   69.0040  222.7520 H   0  0  0  0  0  0  0  0  0  0  0  0
  138.6594   72.4046  222.0918 H   0  0  0  0  0  0  0  0  0  0  0  0
  137.2879   71.2943  221.5236 H   0  0  0  0  0  0  0  0  0  0  0  0
  137.0720   73.3050  223.4820 H   0  0  0  0  0  0  0  0  0  0  0  0
  134.0763   70.5009  225.5406 H   0  0  0  0  0  0  0  0  0  0  0  0
  132.5504   71.7541  227.0694 H   0  0  0  0  0  0  0  0  0  0  0  0
  131.8062   73.9635  227.9423 H   0  0  0  0  0  0  0  0  0  0  0  0
  133.6597   77.5891  226.4966 H   0  0  0  0  0  0  0  0  0  0  0  0
  135.0892   76.1843  225.0440 H   0  0  0  0  0  0  0  0  0  0  0  0
  1  2  1  0
  2  3  1  0
  2  4  1  0
  2  5  1  0
  5  6  1  0
  6  7  1  0
  7  8  2  0
  7  9  1  0
  9 10  1  0
 10 11  1  0
 11 12  2  0
 11 13  1  0
 13 14  1  0
 14 15  1  0
 15 16  2  0
 15 17  1  0
 17 18  2  0
 18 19  1  0
 19 20  2  0
 20 21  1  0
 21 22  2  0
 22 23  1  0
 22 24  1  0
 24 25  2  0
 25 26  1  0
 26 27  2  0
 27 17  1  0
 26 20  1  0
  1 28  1  0
  1 29  1  0
  1 30  1  0
  3 31  1  0
  3 32  1  0
  3 33  1  0
  4 34  1  0
  4 35  1  0
  4 36  1  0
  5 37  1  0
  5 38  1  0
  6 39  1  0
  9 40  1  0
  9 41  1  0
 10 42  1  0
 13 43  1  0
 13 44  1  0
 14 45  1  0
 18 46  1  0
 19 47  1  0
 21 48  1  0
 24 49  1  0
 25 50  1  0
M  END
>  <smiles>  (32) 
CC(C)(C)CNC(=O)CNC(=O)CNC(=O)c1ccc2cc(Cl)ccc2n1

>  <score_type>  (32) 
oracle

>  <origin>  (32) 
autodockgpu

>  <m_score__min__energy>  (32) 
-8.0299999999999994

>  <m_primary>  (32) 
energy

>  <rmsd>  (32) 
8.39444745447319

>  <m_score__min__rmsd>  (32) 
8.39444745447319

>  <meeko>  (32) 
{"free_energy": -6.56, "intermolecular_energy": -8.65, "internal_energy": -3.03, "cluster_size": 3, "cluster_id": 3, "rank_in_cluster": 1}

>  <energy>  (32) 
-6.88

>  <cluster_rmsd>  (32) 
1.68

>  <cluster>  (32) 
1

$$$$

     RDKit          3D

 50 51  0  0  0  0  0  0  0  0999 V2000
  143.6180   73.7540  218.3800 C   0  0  0  0  0  0  0  0  0  0  0  0
  143.2570   74.2560  219.7850 C   0  0  0  0  0  0  0  0  0  0  0  0
  144.6410   74.5070  220.4430 C   0  0  0  0  0  0  0  0  0  0  0  0
  142.6560   73.1350  220.5490 C   0  0  0  0  0  0  0  0  0  0  0  0
  142.5090   75.5450  219.7170 C   0  0  0  0  0  0  0  0  0  0  0  0
  141.4080   75.7320  220.5950 N   0  0  0  0  0  0  0  0  0  0  0  0
  141.0820   76.8680  221.3640 C   0  0  0  0  0  0  0  0  0  0  0  0
  141.7460   77.9290  221.3720 O   0  0  0  0  0  0  0  0  0  0  0  0
  139.8740   76.8370  222.2350 C   0  0  0  0  0  0  0  0  0  0  0  0
  139.2320   75.5720  222.2730 N   0  0  0  0  0  0  0  0  0  0  0  0
  138.5150   75.1030  221.1690 C   0  0  0  0  0  0  0  0  0  0  0  0
  138.4790   75.8650  220.1400 O   0  0  0  0  0  0  0  0  0  0  0  0
  137.8000   73.8270  221.0600 C   0  0  0  0  0  0  0  0  0  0  0  0
  138.0940   72.8400  222.0420 N   0  0  0  0  0  0  0  0  0  0  0  0
  139.3900   72.6570  222.5530 C   0  0  0  0  0  0  0  0  0  0  0  0
  140.3980   73.3390  222.2040 O   0  0  0  0  0  0  0  0  0  0  0  0
  139.6150   71.6070  223.5660 C   0  0  0  0  0  0  0  0  0  0  0  0
  139.3430   70.2830  223.3180 C   0  0  0  0  0  0  0  0  0  0  0  0
  139.5640   69.3050  224.2940 C   0  0  0  0  0  0  0  0  0  0  0  0
  140.0620   69.6810  225.5220 C   0  0  0  0  0  0  0  0  0  0  0  0
  140.3150   68.8040  226.5480 C   0  0  0  0  0  0  0  0  0  0  0  0
  140.8150   69.2210  227.7660 C   0  0  0  0  0  0  0  0  0  0  0  0
  141.1380   68.1050  229.0790 Cl  0  0  0  0  0  0  0  0  0  0  0  0
  141.0860   70.5700  228.0060 C   0  0  0  0  0  0  0  0  0  0  0  0
  140.8280   71.4320  226.9720 C   0  0  0  0  0  0  0  0  0  0  0  0
  140.3320   71.0230  225.7590 C   0  0  0  0  0  0  0  0  0  0  0  0
  140.0990   71.9160  224.7810 N   0  0  0  0  0  0  0  0  0  0  0  0
  144.2584   72.8634  218.4621 H   0  0  0  0  0  0  0  0  0  0  0  0
  142.6979   73.4951  217.8355 H   0  0  0  0  0  0  0  0  0  0  0  0
  144.1563   74.5438  217.8355 H   0  0  0  0  0  0  0  0  0  0  0  0
  144.5354   74.4879  221.5377 H   0  0  0  0  0  0  0  0  0  0  0  0
  145.3443   73.7218  220.1287 H   0  0  0  0  0  0  0  0  0  0  0  0
  145.0237   75.4892  220.1287 H   0  0  0  0  0  0  0  0  0  0  0  0
  142.7598   73.3286  221.6268 H   0  0  0  0  0  0  0  0  0  0  0  0
  141.5898   73.0470  220.2933 H   0  0  0  0  0  0  0  0  0  0  0  0
  143.1729   72.1983  220.2933 H   0  0  0  0  0  0  0  0  0  0  0  0
  143.2293   76.3507  219.9218 H   0  0  0  0  0  0  0  0  0  0  0  0
  142.0588   75.5449  218.7133 H   0  0  0  0  0  0  0  0  0  0  0  0
  140.7270   74.9110  220.7000 H   0  0  0  0  0  0  0  0  0  0  0  0
  140.1764   77.1041  223.2583 H   0  0  0  0  0  0  0  0  0  0  0  0
  139.1530   77.5515  221.8112 H   0  0  0  0  0  0  0  0  0  0  0  0
  139.2940   74.9810  223.1220 H   0  0  0  0  0  0  0  0  0  0  0  0
  136.7230   74.0432  221.1178 H   0  0  0  0  0  0  0  0  0  0  0  0
  138.1328   73.3916  220.1062 H   0  0  0  0  0  0  0  0  0  0  0  0
  137.3220   72.2110  222.4130 H   0  0  0  0  0  0  0  0  0  0  0  0
  138.9450   69.9872  222.3361 H   0  0  0  0  0  0  0  0  0  0  0  0
  139.3426   68.2483  224.0831 H   0  0  0  0  0  0  0  0  0  0  0  0
  140.1127   67.7337  226.3946 H   0  0  0  0  0  0  0  0  0  0  0  0
  141.4838   70.9206  228.9698 H   0  0  0  0  0  0  0  0  0  0  0  0
  141.0281   72.5033  227.1213 H   0  0  0  0  0  0  0  0  0  0  0  0
  1  2  1  0
  2  3  1  0
  2  4  1  0
  2  5  1  0
  5  6  1  0
  6  7  1  0
  7  8  2  0
  7  9  1  0
  9 10  1  0
 10 11  1  0
 11 12  2  0
 11 13  1  0
 13 14  1  0
 14 15  1  0
 15 16  2  0
 15 17  1  0
 17 18  2  0
 18 19  1  0
 19 20  2  0
 20 21  1  0
 21 22  2  0
 22 23  1  0
 22 24  1  0
 24 25  2  0
 25 26  1  0
 26 27  2  0
 27 17  1  0
 26 20  1  0
  1 28  1  0
  1 29  1  0
  1 30  1  0
  3 31  1  0
  3 32  1  0
  3 33  1  0
  4 34  1  0
  4 35  1  0
  4 36  1  0
  5 37  1  0
  5 38  1  0
  6 39  1  0
  9 40  1  0
  9 41  1  0
 10 42  1  0
 13 43  1  0
 13 44  1  0
 14 45  1  0
 18 46  1  0
 19 47  1  0
 21 48  1  0
 24 49  1  0
 25 50  1  0
M  END
>  <smiles>  (33) 
CC(C)(C)CNC(=O)CNC(=O)CNC(=O)c1ccc2cc(Cl)ccc2n1

>  <score_type>  (33) 
oracle

>  <origin>  (33) 
autodockgpu

>  <m_score__min__energy>  (33) 
-8.0299999999999994

>  <m_primary>  (33) 
energy

>  <rmsd>  (33) 
3.3503736047277677

>  <m_score__min__rmsd>  (33) 
3.3503736047277677

>  <meeko>  (33) 
{"free_energy": -6.74, "intermolecular_energy": -8.83, "internal_energy": -2.77, "cluster_size": 39, "cluster_id": 1, "rank_in_cluster": 34}

>  <energy>  (33) 
-6.79

>  <cluster_rmsd>  (33) 
1.83

>  <cluster>  (33) 
1

$$$$

     RDKit          3D

 50 51  0  0  0  0  0  0  0  0999 V2000
  143.3450   71.5560  220.8940 C   0  0  0  0  0  0  0  0  0  0  0  0
  143.2230   70.9250  219.5000 C   0  0  0  0  0  0  0  0  0  0  0  0
  142.1750   69.7970  219.7080 C   0  0  0  0  0  0  0  0  0  0  0  0
  144.4930   70.2270  219.1820 C   0  0  0  0  0  0  0  0  0  0  0  0
  142.6900   71.9090  218.5120 C   0  0  0  0  0  0  0  0  0  0  0  0
  142.4900   73.2500  218.9390 N   0  0  0  0  0  0  0  0  0  0  0  0
  143.4510   74.2630  219.1240 C   0  0  0  0  0  0  0  0  0  0  0  0
  144.6780   74.1190  218.9180 O   0  0  0  0  0  0  0  0  0  0  0  0
  143.0130   75.6070  219.5950 C   0  0  0  0  0  0  0  0  0  0  0  0
  142.0300   75.5590  220.6170 N   0  0  0  0  0  0  0  0  0  0  0  0
  140.6830   75.3580  220.3030 C   0  0  0  0  0  0  0  0  0  0  0  0
  140.3970   75.2170  219.0620 O   0  0  0  0  0  0  0  0  0  0  0  0
  139.5600   75.2890  221.2420 C   0  0  0  0  0  0  0  0  0  0  0  0
  139.5990   74.2520  222.2150 N   0  0  0  0  0  0  0  0  0  0  0  0
  140.0090   72.9450  221.8990 C   0  0  0  0  0  0  0  0  0  0  0  0
  140.3800   72.5730  220.7480 O   0  0  0  0  0  0  0  0  0  0  0  0
  140.0170   71.9240  222.9650 C   0  0  0  0  0  0  0  0  0  0  0  0
  139.5630   70.6440  222.7520 C   0  0  0  0  0  0  0  0  0  0  0  0
  139.5800   69.6930  223.7780 C   0  0  0  0  0  0  0  0  0  0  0  0
  140.0600   70.0500  225.0190 C   0  0  0  0  0  0  0  0  0  0  0  0
  140.1210   69.1960  226.0930 C   0  0  0  0  0  0  0  0  0  0  0  0
  140.6100   69.5920  227.3220 C   0  0  0  0  0  0  0  0  0  0  0  0
  140.6890   68.5050  228.6960 Cl  0  0  0  0  0  0  0  0  0  0  0  0
  141.0670   70.8970  227.5250 C   0  0  0  0  0  0  0  0  0  0  0  0
  141.0000   71.7360  226.4430 C   0  0  0  0  0  0  0  0  0  0  0  0
  140.5160   71.3470  225.2190 C   0  0  0  0  0  0  0  0  0  0  0  0
  140.4740   72.2170  224.1940 N   0  0  0  0  0  0  0  0  0  0  0  0
  143.1954   70.7820  221.6612 H   0  0  0  0  0  0  0  0  0  0  0  0
  144.3453   71.9986  221.0099 H   0  0  0  0  0  0  0  0  0  0  0  0
  142.5817   72.3396  221.0099 H   0  0  0  0  0  0  0  0  0  0  0  0
  142.0222   69.6325  220.7848 H   0  0  0  0  0  0  0  0  0  0  0  0
  141.2224   70.0913  219.2432 H   0  0  0  0  0  0  0  0  0  0  0  0
  142.5384   68.8686  219.2432 H   0  0  0  0  0  0  0  0  0  0  0  0
  145.0017   69.9474  220.1164 H   0  0  0  0  0  0  0  0  0  0  0  0
  144.2769   69.3209  218.5969 H   0  0  0  0  0  0  0  0  0  0  0  0
  145.1421   70.8951  218.5969 H   0  0  0  0  0  0  0  0  0  0  0  0
  143.3946   71.9374  217.6677 H   0  0  0  0  0  0  0  0  0  0  0  0
  141.6785   71.5430  218.2821 H   0  0  0  0  0  0  0  0  0  0  0  0
  141.4820   73.5440  219.1530 H   0  0  0  0  0  0  0  0  0  0  0  0
  143.8919   76.1428  219.9829 H   0  0  0  0  0  0  0  0  0  0  0  0
  142.5577   76.1177  218.7337 H   0  0  0  0  0  0  0  0  0  0  0  0
  142.3050   75.6670  221.6100 H   0  0  0  0  0  0  0  0  0  0  0  0
  139.5165   76.2478  221.7794 H   0  0  0  0  0  0  0  0  0  0  0  0
  138.6794   75.0675  220.6211 H   0  0  0  0  0  0  0  0  0  0  0  0
  139.3130   74.4520  223.2190 H   0  0  0  0  0  0  0  0  0  0  0  0
  139.1805   70.3632  221.7596 H   0  0  0  0  0  0  0  0  0  0  0  0
  139.2142   68.6717  223.5958 H   0  0  0  0  0  0  0  0  0  0  0  0
  139.7683   68.1614  225.9698 H   0  0  0  0  0  0  0  0  0  0  0  0
  141.4580   71.2317  228.4972 H   0  0  0  0  0  0  0  0  0  0  0  0
  141.3513   72.7716  226.5615 H   0  0  0  0  0  0  0  0  0  0  0  0
  1  2  1  0
  2  3  1  0
  2  4  1  0
  2  5  1  0
  5  6  1  0
  6  7  1  0
  7  8  2  0
  7  9  1  0
  9 10  1  0
 10 11  1  0
 11 12  2  0
 11 13  1  0
 13 14  1  0
 14 15  1  0
 15 16  2  0
 15 17  1  0
 17 18  2  0
 18 19  1  0
 19 20  2  0
 20 21  1  0
 21 22  2  0
 22 23  1  0
 22 24  1  0
 24 25  2  0
 25 26  1  0
 26 27  2  0
 27 17  1  0
 26 20  1  0
  1 28  1  0
  1 29  1  0
  1 30  1  0
  3 31  1  0
  3 32  1  0
  3 33  1  0
  4 34  1  0
  4 35  1  0
  4 36  1  0
  5 37  1  0
  5 38  1  0
  6 39  1  0
  9 40  1  0
  9 41  1  0
 10 42  1  0
 13 43  1  0
 13 44  1  0
 14 45  1  0
 18 46  1  0
 19 47  1  0
 21 48  1  0
 24 49  1  0
 25 50  1  0
M  END
>  <smiles>  (34) 
CC(C)(C)CNC(=O)CNC(=O)CNC(=O)c1ccc2cc(Cl)ccc2n1

>  <score_type>  (34) 
oracle

>  <origin>  (34) 
autodockgpu

>  <m_score__min__energy>  (34) 
-8.0299999999999994

>  <m_primary>  (34) 
energy

>  <rmsd>  (34) 
4.740085891658116

>  <m_score__min__rmsd>  (34) 
4.740085891658116

>  <meeko>  (34) 
{"free_energy": -6.13, "intermolecular_energy": -8.22, "internal_energy": -3.31, "cluster_size": 5, "cluster_id": 2, "rank_in_cluster": 4}

>  <energy>  (34) 
-6.74

>  <cluster_rmsd>  (34) 
1.77

>  <cluster>  (34) 
1

$$$$

     RDKit          3D

 50 51  0  0  0  0  0  0  0  0999 V2000
  140.0020   80.1730  219.3700 C   0  0  0  0  0  0  0  0  0  0  0  0
  141.4190   79.6510  219.6460 C   0  0  0  0  0  0  0  0  0  0  0  0
  141.8380   80.4150  220.9310 C   0  0  0  0  0  0  0  0  0  0  0  0
  142.3230   80.1490  218.5800 C   0  0  0  0  0  0  0  0  0  0  0  0
  141.4030   78.1870  219.9320 C   0  0  0  0  0  0  0  0  0  0  0  0
  140.3340   77.6650  220.7100 N   0  0  0  0  0  0  0  0  0  0  0  0
  140.1970   77.6450  222.1120 C   0  0  0  0  0  0  0  0  0  0  0  0
  141.0380   78.1180  222.9100 O   0  0  0  0  0  0  0  0  0  0  0  0
  138.9840   77.0270  222.7180 C   0  0  0  0  0  0  0  0  0  0  0  0
  138.8660   75.6370  222.4640 N   0  0  0  0  0  0  0  0  0  0  0  0
  138.1970   75.1740  221.3270 C   0  0  0  0  0  0  0  0  0  0  0  0
  137.7150   76.0640  220.5420 O   0  0  0  0  0  0  0  0  0  0  0  0
  137.9910   73.7780  220.9330 C   0  0  0  0  0  0  0  0  0  0  0  0
  138.2480   72.7870  221.9210 N   0  0  0  0  0  0  0  0  0  0  0  0
  139.5070   72.6480  222.5300 C   0  0  0  0  0  0  0  0  0  0  0  0
  140.5090   73.3760  222.2710 O   0  0  0  0  0  0  0  0  0  0  0  0
  139.6960   71.5900  223.5430 C   0  0  0  0  0  0  0  0  0  0  0  0
  139.3890   70.2750  223.2910 C   0  0  0  0  0  0  0  0  0  0  0  0
  139.5760   69.2900  224.2670 C   0  0  0  0  0  0  0  0  0  0  0  0
  140.0760   69.6510  225.4990 C   0  0  0  0  0  0  0  0  0  0  0  0
  140.2980   68.7650  226.5260 C   0  0  0  0  0  0  0  0  0  0  0  0
  140.8010   69.1660  227.7470 C   0  0  0  0  0  0  0  0  0  0  0  0
  141.0850   68.0400  229.0610 Cl  0  0  0  0  0  0  0  0  0  0  0  0
  141.1080   70.5070  227.9910 C   0  0  0  0  0  0  0  0  0  0  0  0
  140.8810   71.3770  226.9570 C   0  0  0  0  0  0  0  0  0  0  0  0
  140.3820   70.9840  225.7390 C   0  0  0  0  0  0  0  0  0  0  0  0
  140.1800   71.8850  224.7620 N   0  0  0  0  0  0  0  0  0  0  0  0
  139.4886   80.3621  220.3243 H   0  0  0  0  0  0  0  0  0  0  0  0
  140.0615   81.1082  218.7940 H   0  0  0  0  0  0  0  0  0  0  0  0
  139.4406   79.4227  218.7940 H   0  0  0  0  0  0  0  0  0  0  0  0
  141.5242   79.8428  221.8165 H   0  0  0  0  0  0  0  0  0  0  0  0
  142.9308   80.5399  220.9435 H   0  0  0  0  0  0  0  0  0  0  0  0
  141.3558   81.4036  220.9435 H   0  0  0  0  0  0  0  0  0  0  0  0
  143.1990   80.6316  219.0380 H   0  0  0  0  0  0  0  0  0  0  0  0
  142.6535   79.3056  217.9559 H   0  0  0  0  0  0  0  0  0  0  0  0
  141.7867   80.8790  217.9559 H   0  0  0  0  0  0  0  0  0  0  0  0
  141.3859   77.6659  218.9634 H   0  0  0  0  0  0  0  0  0  0  0  0
  142.2966   78.0212  220.5517 H   0  0  0  0  0  0  0  0  0  0  0  0
  139.5170   77.2230  220.1740 H   0  0  0  0  0  0  0  0  0  0  0  0
  139.0236   77.1791  223.8067 H   0  0  0  0  0  0  0  0  0  0  0  0
  138.1111   77.5134  222.2582 H   0  0  0  0  0  0  0  0  0  0  0  0
  139.2810   74.9490  223.1190 H   0  0  0  0  0  0  0  0  0  0  0  0
  136.9416   73.6720  220.6207 H   0  0  0  0  0  0  0  0  0  0  0  0
  138.7298   73.5913  220.1397 H   0  0  0  0  0  0  0  0  0  0  0  0
  137.4760   72.1200  222.2210 H   0  0  0  0  0  0  0  0  0  0  0  0
  138.9897   69.9918  222.3059 H   0  0  0  0  0  0  0  0  0  0  0  0
  139.3268   68.2401  224.0532 H   0  0  0  0  0  0  0  0  0  0  0  0
  140.0671   67.7009  226.3696 H   0  0  0  0  0  0  0  0  0  0  0  0
  141.5090   70.8451  228.9579 H   0  0  0  0  0  0  0  0  0  0  0  0
  141.1095   72.4421  227.1097 H   0  0  0  0  0  0  0  0  0  0  0  0
  1  2  1  0
  2  3  1  0
  2  4  1  0
  2  5  1  0
  5  6  1  0
  6  7  1  0
  7  8  2  0
  7  9  1  0
  9 10  1  0
 10 11  1  0
 11 12  2  0
 11 13  1  0
 13 14  1  0
 14 15  1  0
 15 16  2  0
 15 17  1  0
 17 18  2  0
 18 19  1  0
 19 20  2  0
 20 21  1  0
 21 22  2  0
 22 23  1  0
 22 24  1  0
 24 25  2  0
 25 26  1  0
 26 27  2  0
 27 17  1  0
 26 20  1  0
  1 28  1  0
  1 29  1  0
  1 30  1  0
  3 31  1  0
  3 32  1  0
  3 33  1  0
  4 34  1  0
  4 35  1  0
  4 36  1  0
  5 37  1  0
  5 38  1  0
  6 39  1  0
  9 40  1  0
  9 41  1  0
 10 42  1  0
 13 43  1  0
 13 44  1  0
 14 45  1  0
 18 46  1  0
 19 47  1  0
 21 48  1  0
 24 49  1  0
 25 50  1  0
M  END
>  <smiles>  (35) 
CC(C)(C)CNC(=O)CNC(=O)CNC(=O)c1ccc2cc(Cl)ccc2n1

>  <score_type>  (35) 
oracle

>  <origin>  (35) 
autodockgpu

>  <m_score__min__energy>  (35) 
-8.0299999999999994

>  <m_primary>  (35) 
energy

>  <rmsd>  (35) 
2.0633665223749764

>  <m_score__min__rmsd>  (35) 
2.0633665223749764

>  <meeko>  (35) 
{"free_energy": -6.63, "intermolecular_energy": -8.72, "internal_energy": -2.5, "cluster_size": 39, "cluster_id": 1, "rank_in_cluster": 35}

>  <energy>  (35) 
-6.63

>  <cluster_rmsd>  (35) 
1.69

>  <cluster>  (35) 
1

$$$$

     RDKit          3D

 50 51  0  0  0  0  0  0  0  0999 V2000
  142.1800   80.3330  219.3820 C   0  0  0  0  0  0  0  0  0  0  0  0
  141.5180   79.6780  220.6020 C   0  0  0  0  0  0  0  0  0  0  0  0
  140.0960   80.3020  220.6150 C   0  0  0  0  0  0  0  0  0  0  0  0
  142.1800   80.1830  221.8300 C   0  0  0  0  0  0  0  0  0  0  0  0
  141.4010   78.2010  220.4180 C   0  0  0  0  0  0  0  0  0  0  0  0
  140.2090   77.5610  220.8530 N   0  0  0  0  0  0  0  0  0  0  0  0
  139.6240   77.5740  222.1350 C   0  0  0  0  0  0  0  0  0  0  0  0
  140.0920   78.1920  223.1180 O   0  0  0  0  0  0  0  0  0  0  0  0
  138.3650   76.8130  222.3690 C   0  0  0  0  0  0  0  0  0  0  0  0
  138.4840   75.4230  222.1130 N   0  0  0  0  0  0  0  0  0  0  0  0
  138.2400   74.9100  220.8360 C   0  0  0  0  0  0  0  0  0  0  0  0
  137.9160   75.7550  219.9290 O   0  0  0  0  0  0  0  0  0  0  0  0
  138.3180   73.5060  220.4200 C   0  0  0  0  0  0  0  0  0  0  0  0
  138.5280   72.5430  221.4460 N   0  0  0  0  0  0  0  0  0  0  0  0
  139.6060   72.6300  222.3440 C   0  0  0  0  0  0  0  0  0  0  0  0
  140.4710   73.5540  222.3330 O   0  0  0  0  0  0  0  0  0  0  0  0
  139.7580   71.5870  223.3780 C   0  0  0  0  0  0  0  0  0  0  0  0
  139.4130   70.2770  223.1490 C   0  0  0  0  0  0  0  0  0  0  0  0
  139.5660   69.3060  224.1450 C   0  0  0  0  0  0  0  0  0  0  0  0
  140.0720   69.6750  225.3720 C   0  0  0  0  0  0  0  0  0  0  0  0
  140.2630   68.8030  226.4160 C   0  0  0  0  0  0  0  0  0  0  0  0
  140.7730   69.2120  227.6320 C   0  0  0  0  0  0  0  0  0  0  0  0
  141.0170   68.1030  228.9680 Cl  0  0  0  0  0  0  0  0  0  0  0  0
  141.1190   70.5470  227.8520 C   0  0  0  0  0  0  0  0  0  0  0  0
  140.9230   71.4040  226.8000 C   0  0  0  0  0  0  0  0  0  0  0  0
  140.4170   71.0030  225.5880 C   0  0  0  0  0  0  0  0  0  0  0  0
  140.2460   71.8900  224.5930 N   0  0  0  0  0  0  0  0  0  0  0  0
  142.9241   81.0693  219.7198 H   0  0  0  0  0  0  0  0  0  0  0  0
  142.6768   79.5611  218.7759 H   0  0  0  0  0  0  0  0  0  0  0  0
  141.4134   80.8380  218.7759 H   0  0  0  0  0  0  0  0  0  0  0  0
  139.7682   80.4458  221.6551 H   0  0  0  0  0  0  0  0  0  0  0  0
  140.1172   81.2735  220.0995 H   0  0  0  0  0  0  0  0  0  0  0  0
  139.3954   79.6286  220.0995 H   0  0  0  0  0  0  0  0  0  0  0  0
  141.6611   79.7872  222.7155 H   0  0  0  0  0  0  0  0  0  0  0  0
  143.2296   79.8540  221.8425 H   0  0  0  0  0  0  0  0  0  0  0  0
  142.1401   81.2822  221.8425 H   0  0  0  0  0  0  0  0  0  0  0  0
  141.5062   77.9973  219.3422 H   0  0  0  0  0  0  0  0  0  0  0  0
  142.1858   77.7833  221.0658 H   0  0  0  0  0  0  0  0  0  0  0  0
  139.6740   76.9880  220.1220 H   0  0  0  0  0  0  0  0  0  0  0  0
  138.0671   76.9486  223.4192 H   0  0  0  0  0  0  0  0  0  0  0  0
  137.6157   77.2067  221.6665 H   0  0  0  0  0  0  0  0  0  0  0  0
  138.7600   74.7740  222.8720 H   0  0  0  0  0  0  0  0  0  0  0  0
  137.3725   73.2551  219.9168 H   0  0  0  0  0  0  0  0  0  0  0  0
  139.2112   73.4447  219.7809 H   0  0  0  0  0  0  0  0  0  0  0  0
  137.8590   71.7240  221.5530 H   0  0  0  0  0  0  0  0  0  0  0  0
  139.0102   69.9869  222.1674 H   0  0  0  0  0  0  0  0  0  0  0  0
  139.2855   68.2603  223.9504 H   0  0  0  0  0  0  0  0  0  0  0  0
  140.0009   67.7436  226.2786 H   0  0  0  0  0  0  0  0  0  0  0  0
  141.5256   70.8912  228.8144 H   0  0  0  0  0  0  0  0  0  0  0  0
  141.1837   72.4643  226.9332 H   0  0  0  0  0  0  0  0  0  0  0  0
  1  2  1  0
  2  3  1  0
  2  4  1  0
  2  5  1  0
  5  6  1  0
  6  7  1  0
  7  8  2  0
  7  9  1  0
  9 10  1  0
 10 11  1  0
 11 12  2  0
 11 13  1  0
 13 14  1  0
 14 15  1  0
 15 16  2  0
 15 17  1  0
 17 18  2  0
 18 19  1  0
 19 20  2  0
 20 21  1  0
 21 22  2  0
 22 23  1  0
 22 24  1  0
 24 25  2  0
 25 26  1  0
 26 27  2  0
 27 17  1  0
 26 20  1  0
  1 28  1  0
  1 29  1  0
  1 30  1  0
  3 31  1  0
  3 32  1  0
  3 33  1  0
  4 34  1  0
  4 35  1  0
  4 36  1  0
  5 37  1  0
  5 38  1  0
  6 39  1  0
  9 40  1  0
  9 41  1  0
 10 42  1  0
 13 43  1  0
 13 44  1  0
 14 45  1  0
 18 46  1  0
 19 47  1  0
 21 48  1  0
 24 49  1  0
 25 50  1  0
M  END
>  <smiles>  (36) 
CC(C)(C)CNC(=O)CNC(=O)CNC(=O)c1ccc2cc(Cl)ccc2n1

>  <score_type>  (36) 
oracle

>  <origin>  (36) 
autodockgpu

>  <m_score__min__energy>  (36) 
-8.0299999999999994

>  <m_primary>  (36) 
energy

>  <rmsd>  (36) 
1.9926826360028875

>  <m_score__min__rmsd>  (36) 
1.9926826360028875

>  <meeko>  (36) 
{"free_energy": -6.88, "intermolecular_energy": -8.97, "internal_energy": -2.45, "cluster_size": 39, "cluster_id": 1, "rank_in_cluster": 32}

>  <energy>  (36) 
-6.51

>  <cluster_rmsd>  (36) 
1.54

>  <cluster>  (36) 
1

$$$$

     RDKit          3D

 50 51  0  0  0  0  0  0  0  0999 V2000
  140.0610   80.2250  223.5190 C   0  0  0  0  0  0  0  0  0  0  0  0
  140.9830   79.2800  222.7360 C   0  0  0  0  0  0  0  0  0  0  0  0
  141.8140   78.5870  223.8510 C   0  0  0  0  0  0  0  0  0  0  0  0
  141.9570   80.0940  221.9680 C   0  0  0  0  0  0  0  0  0  0  0  0
  140.1920   78.2470  222.0040 C   0  0  0  0  0  0  0  0  0  0  0  0
  140.8720   77.0960  221.5230 N   0  0  0  0  0  0  0  0  0  0  0  0
  141.8300   77.0090  220.4930 C   0  0  0  0  0  0  0  0  0  0  0  0
  142.2440   77.9870  219.8300 O   0  0  0  0  0  0  0  0  0  0  0  0
  142.4070   75.6810  220.1440 C   0  0  0  0  0  0  0  0  0  0  0  0
  141.5040   74.6020  220.3230 N   0  0  0  0  0  0  0  0  0  0  0  0
  140.3800   74.4690  219.5030 C   0  0  0  0  0  0  0  0  0  0  0  0
  140.2230   75.3580  218.5950 O   0  0  0  0  0  0  0  0  0  0  0  0
  139.3610   73.4170  219.5690 C   0  0  0  0  0  0  0  0  0  0  0  0
  139.4570   72.4960  220.6480 N   0  0  0  0  0  0  0  0  0  0  0  0
  139.7290   72.9100  221.9630 C   0  0  0  0  0  0  0  0  0  0  0  0
  139.9040   74.1150  222.3090 O   0  0  0  0  0  0  0  0  0  0  0  0
  139.8200   71.8910  223.0280 C   0  0  0  0  0  0  0  0  0  0  0  0
  139.3950   70.5980  222.8380 C   0  0  0  0  0  0  0  0  0  0  0  0
  139.4910   69.6490  223.8620 C   0  0  0  0  0  0  0  0  0  0  0  0
  140.0200   70.0230  225.0780 C   0  0  0  0  0  0  0  0  0  0  0  0
  140.1600   69.1730  226.1470 C   0  0  0  0  0  0  0  0  0  0  0  0
  140.6960   69.5860  227.3510 C   0  0  0  0  0  0  0  0  0  0  0  0
  140.8750   68.5040  228.7190 Cl  0  0  0  0  0  0  0  0  0  0  0  0
  141.1220   70.9040  227.5310 C   0  0  0  0  0  0  0  0  0  0  0  0
  140.9760   71.7390  226.4540 C   0  0  0  0  0  0  0  0  0  0  0  0
  140.4450   71.3330  225.2550 C   0  0  0  0  0  0  0  0  0  0  0  0
  140.3270   72.2000  224.2330 N   0  0  0  0  0  0  0  0  0  0  0  0
  140.2102   80.0721  224.5980 H   0  0  0  0  0  0  0  0  0  0  0  0
  140.2989   81.2673  223.2600 H   0  0  0  0  0  0  0  0  0  0  0  0
  139.0132   80.0128  223.2600 H   0  0  0  0  0  0  0  0  0  0  0  0
  141.4385   78.9001  224.8364 H   0  0  0  0  0  0  0  0  0  0  0  0
  141.7207   77.4954  223.7530 H   0  0  0  0  0  0  0  0  0  0  0  0
  142.8711   78.8749  223.7530 H   0  0  0  0  0  0  0  0  0  0  0  0
  142.6097   80.6394  222.6655 H   0  0  0  0  0  0  0  0  0  0  0  0
  142.5677   79.4339  221.3345 H   0  0  0  0  0  0  0  0  0  0  0  0
  141.4158   80.8122  221.3345 H   0  0  0  0  0  0  0  0  0  0  0  0
  139.4020   77.8980  222.6853 H   0  0  0  0  0  0  0  0  0  0  0  0
  139.8493   78.7610  221.0938 H   0  0  0  0  0  0  0  0  0  0  0  0
  140.6350   76.1620  221.9940 H   0  0  0  0  0  0  0  0  0  0  0  0
  142.7165   75.7034  219.0887 H   0  0  0  0  0  0  0  0  0  0  0  0
  143.2527   75.5088  220.8259 H   0  0  0  0  0  0  0  0  0  0  0  0
  141.6740   73.8970  221.0630 H   0  0  0  0  0  0  0  0  0  0  0  0
  138.3795   73.9088  219.6380 H   0  0  0  0  0  0  0  0  0  0  0  0
  139.5125   72.8133  218.6620 H   0  0  0  0  0  0  0  0  0  0  0  0
  139.3230   71.4550  220.4750 H   0  0  0  0  0  0  0  0  0  0  0  0
  138.9727   70.3044  221.8657 H   0  0  0  0  0  0  0  0  0  0  0  0
  139.1482   68.6167  223.6980 H   0  0  0  0  0  0  0  0  0  0  0  0
  139.8343   68.1277  226.0410 H   0  0  0  0  0  0  0  0  0  0  0  0
  141.5501   71.2519  228.4827 H   0  0  0  0  0  0  0  0  0  0  0  0
  141.3001   72.7853  226.5553 H   0  0  0  0  0  0  0  0  0  0  0  0
  1  2  1  0
  2  3  1  0
  2  4  1  0
  2  5  1  0
  5  6  1  0
  6  7  1  0
  7  8  2  0
  7  9  1  0
  9 10  1  0
 10 11  1  0
 11 12  2  0
 11 13  1  0
 13 14  1  0
 14 15  1  0
 15 16  2  0
 15 17  1  0
 17 18  2  0
 18 19  1  0
 19 20  2  0
 20 21  1  0
 21 22  2  0
 22 23  1  0
 22 24  1  0
 24 25  2  0
 25 26  1  0
 26 27  2  0
 27 17  1  0
 26 20  1  0
  1 28  1  0
  1 29  1  0
  1 30  1  0
  3 31  1  0
  3 32  1  0
  3 33  1  0
  4 34  1  0
  4 35  1  0
  4 36  1  0
  5 37  1  0
  5 38  1  0
  6 39  1  0
  9 40  1  0
  9 41  1  0
 10 42  1  0
 13 43  1  0
 13 44  1  0
 14 45  1  0
 18 46  1  0
 19 47  1  0
 21 48  1  0
 24 49  1  0
 25 50  1  0
M  END
>  <smiles>  (37) 
CC(C)(C)CNC(=O)CNC(=O)CNC(=O)c1ccc2cc(Cl)ccc2n1

>  <score_type>  (37) 
oracle

>  <origin>  (37) 
autodockgpu

>  <m_score__min__energy>  (37) 
-8.0299999999999994

>  <m_primary>  (37) 
energy

>  <rmsd>  (37) 
2.1256192762750676

>  <m_score__min__rmsd>  (37) 
2.1256192762750676

>  <meeko>  (37) 
{"free_energy": -6.89, "intermolecular_energy": -8.98, "internal_energy": -2.47, "cluster_size": 39, "cluster_id": 1, "rank_in_cluster": 31}

>  <energy>  (37) 
-6.48

>  <cluster_rmsd>  (37) 
1.8

>  <cluster>  (37) 
1

$$$$

     RDKit          3D

 50 51  0  0  0  0  0  0  0  0999 V2000
  143.6260   80.4910  223.4230 C   0  0  0  0  0  0  0  0  0  0  0  0
  142.1710   80.1660  223.0550 C   0  0  0  0  0  0  0  0  0  0  0  0
  142.1760   80.2090  221.5030 C   0  0  0  0  0  0  0  0  0  0  0  0
  141.3100   81.2990  223.4770 C   0  0  0  0  0  0  0  0  0  0  0  0
  141.8010   78.7920  223.5040 C   0  0  0  0  0  0  0  0  0  0  0  0
  140.5780   78.2380  223.0370 N   0  0  0  0  0  0  0  0  0  0  0  0
  139.2620   78.6260  223.3540 C   0  0  0  0  0  0  0  0  0  0  0  0
  138.9700   79.5690  224.1240 O   0  0  0  0  0  0  0  0  0  0  0  0
  138.1170   77.8870  222.7510 C   0  0  0  0  0  0  0  0  0  0  0  0
  138.3960   76.5210  222.4920 N   0  0  0  0  0  0  0  0  0  0  0  0
  139.0950   76.1410  221.3420 C   0  0  0  0  0  0  0  0  0  0  0  0
  139.4670   77.0820  220.5580 O   0  0  0  0  0  0  0  0  0  0  0  0
  139.4520   74.7770  220.9390 C   0  0  0  0  0  0  0  0  0  0  0  0
  139.4870   73.7920  221.9650 N   0  0  0  0  0  0  0  0  0  0  0  0
  139.9540   72.4870  221.7320 C   0  0  0  0  0  0  0  0  0  0  0  0
  140.3860   72.0720  220.6170 O   0  0  0  0  0  0  0  0  0  0  0  0
  139.9520   71.5200  222.8480 C   0  0  0  0  0  0  0  0  0  0  0  0
  139.4560   70.2460  222.7090 C   0  0  0  0  0  0  0  0  0  0  0  0
  139.4640   69.3470  223.7810 C   0  0  0  0  0  0  0  0  0  0  0  0
  139.9790   69.7510  224.9930 C   0  0  0  0  0  0  0  0  0  0  0  0
  140.0360   68.9500  226.1080 C   0  0  0  0  0  0  0  0  0  0  0  0
  140.5600   69.3930  227.3060 C   0  0  0  0  0  0  0  0  0  0  0  0
  140.6340   68.3740  228.7320 Cl  0  0  0  0  0  0  0  0  0  0  0  0
  141.0610   70.6910  227.4340 C   0  0  0  0  0  0  0  0  0  0  0  0
  140.9970   71.4760  226.3130 C   0  0  0  0  0  0  0  0  0  0  0  0
  140.4780   71.0420  225.1190 C   0  0  0  0  0  0  0  0  0  0  0  0
  140.4420   71.8600  224.0520 N   0  0  0  0  0  0  0  0  0  0  0  0
  143.7309   80.5144  224.5177 H   0  0  0  0  0  0  0  0  0  0  0  0
  144.2905   79.7191  223.0074 H   0  0  0  0  0  0  0  0  0  0  0  0
  143.8989   81.4722  223.0074 H   0  0  0  0  0  0  0  0  0  0  0  0
  142.2967   81.2489  221.1654 H   0  0  0  0  0  0  0  0  0  0  0  0
  143.0096   79.6007  221.1220 H   0  0  0  0  0  0  0  0  0  0  0  0
  141.2253   79.8078  221.1220 H   0  0  0  0  0  0  0  0  0  0  0  0
  141.2757   81.3441  224.5755 H   0  0  0  0  0  0  0  0  0  0  0  0
  141.7232   82.2397  223.0841 H   0  0  0  0  0  0  0  0  0  0  0  0
  140.2930   81.1529  223.0841 H   0  0  0  0  0  0  0  0  0  0  0  0
  142.6080   78.1163  223.1843 H   0  0  0  0  0  0  0  0  0  0  0  0
  141.6579   78.8902  224.5902 H   0  0  0  0  0  0  0  0  0  0  0  0
  140.6500   77.4150  222.3540 H   0  0  0  0  0  0  0  0  0  0  0  0
  137.2640   77.9425  223.4433 H   0  0  0  0  0  0  0  0  0  0  0  0
  137.9012   78.3614  221.7823 H   0  0  0  0  0  0  0  0  0  0  0  0
  138.0870   75.7900  223.1580 H   0  0  0  0  0  0  0  0  0  0  0  0
  138.7179   74.4492  220.1883 H   0  0  0  0  0  0  0  0  0  0  0  0
  140.4869   74.8473  220.5729 H   0  0  0  0  0  0  0  0  0  0  0  0
  139.1520   74.0310  222.9450 H   0  0  0  0  0  0  0  0  0  0  0  0
  139.0460   69.9278  221.7391 H   0  0  0  0  0  0  0  0  0  0  0  0
  139.0639   68.3298  223.6575 H   0  0  0  0  0  0  0  0  0  0  0  0
  139.6513   67.9215  226.0439 H   0  0  0  0  0  0  0  0  0  0  0  0
  141.4825   71.0612  228.3802 H   0  0  0  0  0  0  0  0  0  0  0  0
  141.3806   72.5052  226.3730 H   0  0  0  0  0  0  0  0  0  0  0  0
  1  2  1  0
  2  3  1  0
  2  4  1  0
  2  5  1  0
  5  6  1  0
  6  7  1  0
  7  8  2  0
  7  9  1  0
  9 10  1  0
 10 11  1  0
 11 12  2  0
 11 13  1  0
 13 14  1  0
 14 15  1  0
 15 16  2  0
 15 17  1  0
 17 18  2  0
 18 19  1  0
 19 20  2  0
 20 21  1  0
 21 22  2  0
 22 23  1  0
 22 24  1  0
 24 25  2  0
 25 26  1  0
 26 27  2  0
 27 17  1  0
 26 20  1  0
  1 28  1  0
  1 29  1  0
  1 30  1  0
  3 31  1  0
  3 32  1  0
  3 33  1  0
  4 34  1  0
  4 35  1  0
  4 36  1  0
  5 37  1  0
  5 38  1  0
  6 39  1  0
  9 40  1  0
  9 41  1  0
 10 42  1  0
 13 43  1  0
 13 44  1  0
 14 45  1  0
 18 46  1  0
 19 47  1  0
 21 48  1  0
 24 49  1  0
 25 50  1  0
M  END
>  <smiles>  (38) 
CC(C)(C)CNC(=O)CNC(=O)CNC(=O)c1ccc2cc(Cl)ccc2n1

>  <score_type>  (38) 
oracle

>  <origin>  (38) 
autodockgpu

>  <m_score__min__energy>  (38) 
-8.0299999999999994

>  <m_primary>  (38) 
energy

>  <rmsd>  (38) 
2.3279948922998983

>  <m_score__min__rmsd>  (38) 
2.3279948922998983

>  <meeko>  (38) 
{"free_energy": -7.72, "intermolecular_energy": -9.8, "internal_energy": -1.85, "cluster_size": 39, "cluster_id": 1, "rank_in_cluster": 6}

>  <energy>  (38) 
-6.44

>  <cluster_rmsd>  (38) 
1.9

>  <cluster>  (38) 
1

$$$$

     RDKit          3D

 50 51  0  0  0  0  0  0  0  0999 V2000
  141.7930   79.6060  221.3030 C   0  0  0  0  0  0  0  0  0  0  0  0
  141.9190   79.9130  222.8020 C   0  0  0  0  0  0  0  0  0  0  0  0
  141.1500   81.2530  222.9580 C   0  0  0  0  0  0  0  0  0  0  0  0
  143.3360   80.2360  223.1030 C   0  0  0  0  0  0  0  0  0  0  0  0
  141.2440   78.8650  223.6210 C   0  0  0  0  0  0  0  0  0  0  0  0
  140.3950   77.9360  222.9590 N   0  0  0  0  0  0  0  0  0  0  0  0
  138.9880   77.9230  222.8990 C   0  0  0  0  0  0  0  0  0  0  0  0
  138.2500   78.7780  223.4390 O   0  0  0  0  0  0  0  0  0  0  0  0
  138.3000   76.8340  222.1500 C   0  0  0  0  0  0  0  0  0  0  0  0
  139.0510   75.6330  222.0740 N   0  0  0  0  0  0  0  0  0  0  0  0
  140.1040   75.5080  221.1640 C   0  0  0  0  0  0  0  0  0  0  0  0
  140.3480   76.5240  220.4230 O   0  0  0  0  0  0  0  0  0  0  0  0
  140.9640   74.3360  220.9670 C   0  0  0  0  0  0  0  0  0  0  0  0
  140.9180   73.3300  221.9710 N   0  0  0  0  0  0  0  0  0  0  0  0
  139.7270   72.6610  222.3050 C   0  0  0  0  0  0  0  0  0  0  0  0
  138.6090   72.8780  221.7550 O   0  0  0  0  0  0  0  0  0  0  0  0
  139.7610   71.6320  223.3640 C   0  0  0  0  0  0  0  0  0  0  0  0
  139.2080   70.3860  223.1890 C   0  0  0  0  0  0  0  0  0  0  0  0
  139.2520   69.4280  224.2070 C   0  0  0  0  0  0  0  0  0  0  0  0
  139.8610   69.7430  225.4020 C   0  0  0  0  0  0  0  0  0  0  0  0
  139.9600   68.8790  226.4640 C   0  0  0  0  0  0  0  0  0  0  0  0
  140.5790   69.2330  227.6470 C   0  0  0  0  0  0  0  0  0  0  0  0
  140.7060   68.1320  229.0060 Cl  0  0  0  0  0  0  0  0  0  0  0  0
  141.1370   70.5030  227.8120 C   0  0  0  0  0  0  0  0  0  0  0  0
  141.0300   71.3540  226.7420 C   0  0  0  0  0  0  0  0  0  0  0  0
  140.4160   71.0060  225.5640 C   0  0  0  0  0  0  0  0  0  0  0  0
  140.3420   71.8850  224.5490 N   0  0  0  0  0  0  0  0  0  0  0  0
  141.3784   78.5959  221.1692 H   0  0  0  0  0  0  0  0  0  0  0  0
  141.1243   80.3421  220.8329 H   0  0  0  0  0  0  0  0  0  0  0  0
  142.7860   79.6600  220.8329 H   0  0  0  0  0  0  0  0  0  0  0  0
  141.0203   81.4790  224.0267 H   0  0  0  0  0  0  0  0  0  0  0  0
  141.7215   82.0616  222.4789 H   0  0  0  0  0  0  0  0  0  0  0  0
  140.1635   81.1675  222.4789 H   0  0  0  0  0  0  0  0  0  0  0  0
  143.4810   80.2691  224.1929 H   0  0  0  0  0  0  0  0  0  0  0  0
  143.9882   79.4635  222.6696 H   0  0  0  0  0  0  0  0  0  0  0  0
  143.5890   81.2149  222.6696 H   0  0  0  0  0  0  0  0  0  0  0  0
  142.0328   78.2853  224.1227 H   0  0  0  0  0  0  0  0  0  0  0  0
  140.5679   79.4290  224.2804 H   0  0  0  0  0  0  0  0  0  0  0  0
  140.8740   77.1330  222.4340 H   0  0  0  0  0  0  0  0  0  0  0  0
  137.3459   76.6160  222.6521 H   0  0  0  0  0  0  0  0  0  0  0  0
  138.1591   77.1914  221.1193 H   0  0  0  0  0  0  0  0  0  0  0  0
  138.8280   74.8380  222.6990 H   0  0  0  0  0  0  0  0  0  0  0  0
  140.6757   73.8683  220.0140 H   0  0  0  0  0  0  0  0  0  0  0  0
  141.9922   74.7256  220.9973 H   0  0  0  0  0  0  0  0  0  0  0  0
  141.8010   73.0610  222.4980 H   0  0  0  0  0  0  0  0  0  0  0  0
  138.7231   70.1383  222.2332 H   0  0  0  0  0  0  0  0  0  0  0  0
  138.8054   68.4342  224.0553 H   0  0  0  0  0  0  0  0  0  0  0  0
  139.5318   67.8702  226.3698 H   0  0  0  0  0  0  0  0  0  0  0  0
  141.6336   70.8031  228.7465 H   0  0  0  0  0  0  0  0  0  0  0  0
  141.4565   72.3640  226.8316 H   0  0  0  0  0  0  0  0  0  0  0  0
  1  2  1  0
  2  3  1  0
  2  4  1  0
  2  5  1  0
  5  6  1  0
  6  7  1  0
  7  8  2  0
  7  9  1  0
  9 10  1  0
 10 11  1  0
 11 12  2  0
 11 13  1  0
 13 14  1  0
 14 15  1  0
 15 16  2  0
 15 17  1  0
 17 18  2  0
 18 19  1  0
 19 20  2  0
 20 21  1  0
 21 22  2  0
 22 23  1  0
 22 24  1  0
 24 25  2  0
 25 26  1  0
 26 27  2  0
 27 17  1  0
 26 20  1  0
  1 28  1  0
  1 29  1  0
  1 30  1  0
  3 31  1  0
  3 32  1  0
  3 33  1  0
  4 34  1  0
  4 35  1  0
  4 36  1  0
  5 37  1  0
  5 38  1  0
  6 39  1  0
  9 40  1  0
  9 41  1  0
 10 42  1  0
 13 43  1  0
 13 44  1  0
 14 45  1  0
 18 46  1  0
 19 47  1  0
 21 48  1  0
 24 49  1  0
 25 50  1  0
M  END
>  <smiles>  (39) 
CC(C)(C)CNC(=O)CNC(=O)CNC(=O)c1ccc2cc(Cl)ccc2n1

>  <score_type>  (39) 
oracle

>  <origin>  (39) 
autodockgpu

>  <m_score__min__energy>  (39) 
-8.0299999999999994

>  <m_primary>  (39) 
energy

>  <rmsd>  (39) 
2.1071220260035797

>  <m_score__min__rmsd>  (39) 
2.1071220260035797

>  <meeko>  (39) 
{"free_energy": -7.33, "intermolecular_energy": -9.42, "internal_energy": -2.6, "cluster_size": 39, "cluster_id": 1, "rank_in_cluster": 18}

>  <energy>  (39) 
-6.0

>  <cluster_rmsd>  (39) 
1.9

>  <cluster>  (39) 
1

$$$$

     RDKit          3D

 50 51  0  0  0  0  0  0  0  0999 V2000
  144.2770   73.1220  218.4370 C   0  0  0  0  0  0  0  0  0  0  0  0
  144.4030   72.6980  219.9080 C   0  0  0  0  0  0  0  0  0  0  0  0
  145.9260   72.4480  220.0790 C   0  0  0  0  0  0  0  0  0  0  0  0
  143.7650   71.3690  220.0740 C   0  0  0  0  0  0  0  0  0  0  0  0
  143.9840   73.8020  220.8200 C   0  0  0  0  0  0  0  0  0  0  0  0
  142.8260   74.5530  220.4810 N   0  0  0  0  0  0  0  0  0  0  0  0
  142.7460   75.8800  220.0140 C   0  0  0  0  0  0  0  0  0  0  0  0
  143.7370   76.6170  219.8120 O   0  0  0  0  0  0  0  0  0  0  0  0
  141.4100   76.4750  219.7320 C   0  0  0  0  0  0  0  0  0  0  0  0
  140.3280   75.5930  219.9880 N   0  0  0  0  0  0  0  0  0  0  0  0
  140.1810   74.4130  219.2530 C   0  0  0  0  0  0  0  0  0  0  0  0
  141.0670   74.1790  218.3580 O   0  0  0  0  0  0  0  0  0  0  0  0
  139.1210   73.4110  219.3990 C   0  0  0  0  0  0  0  0  0  0  0  0
  139.2370   72.5080  220.4920 N   0  0  0  0  0  0  0  0  0  0  0  0
  139.7670   72.9010  221.7340 C   0  0  0  0  0  0  0  0  0  0  0  0
  140.1770   74.0690  221.9960 O   0  0  0  0  0  0  0  0  0  0  0  0
  139.8590   71.9020  222.8170 C   0  0  0  0  0  0  0  0  0  0  0  0
  139.4660   70.5970  222.6420 C   0  0  0  0  0  0  0  0  0  0  0  0
  139.5630   69.6680  223.6850 C   0  0  0  0  0  0  0  0  0  0  0  0
  140.0620   70.0740  224.9030 C   0  0  0  0  0  0  0  0  0  0  0  0
  140.1990   69.2460  225.9900 C   0  0  0  0  0  0  0  0  0  0  0  0
  140.7040   69.6910  227.1960 C   0  0  0  0  0  0  0  0  0  0  0  0
  140.8800   68.6370  228.5860 Cl  0  0  0  0  0  0  0  0  0  0  0  0
  141.0990   71.0210  227.3600 C   0  0  0  0  0  0  0  0  0  0  0  0
  140.9550   71.8340  226.2660 C   0  0  0  0  0  0  0  0  0  0  0  0
  140.4550   71.3970  225.0650 C   0  0  0  0  0  0  0  0  0  0  0  0
  140.3370   72.2420  224.0260 N   0  0  0  0  0  0  0  0  0  0  0  0
  143.9640   74.1752  218.3845 H   0  0  0  0  0  0  0  0  0  0  0  0
  145.2493   73.0031  217.9365 H   0  0  0  0  0  0  0  0  0  0  0  0
  143.5274   72.4914  217.9365 H   0  0  0  0  0  0  0  0  0  0  0  0
  146.1729   72.4075  221.1502 H   0  0  0  0  0  0  0  0  0  0  0  0
  146.1965   71.4934  219.6040 H   0  0  0  0  0  0  0  0  0  0  0  0
  146.4875   73.2660  219.6040 H   0  0  0  0  0  0  0  0  0  0  0  0
  143.6575   71.1451  221.1456 H   0  0  0  0  0  0  0  0  0  0  0  0
  142.7725   71.3769  219.5997 H   0  0  0  0  0  0  0  0  0  0  0  0
  144.3919   70.5995  219.5997 H   0  0  0  0  0  0  0  0  0  0  0  0
  143.8051   73.3566  221.8098 H   0  0  0  0  0  0  0  0  0  0  0  0
  144.8066   74.5299  220.7609 H   0  0  0  0  0  0  0  0  0  0  0  0
  141.8800   74.0590  220.5920 H   0  0  0  0  0  0  0  0  0  0  0  0
  141.2872   77.3678  220.3627 H   0  0  0  0  0  0  0  0  0  0  0  0
  141.3839   76.7132  218.6584 H   0  0  0  0  0  0  0  0  0  0  0  0
  139.6390   75.8140  220.7300 H   0  0  0  0  0  0  0  0  0  0  0  0
  138.1681   73.9489  219.5116 H   0  0  0  0  0  0  0  0  0  0  0  0
  139.1930   72.7832  218.4986 H   0  0  0  0  0  0  0  0  0  0  0  0
  138.9180   71.4990  220.3870 H   0  0  0  0  0  0  0  0  0  0  0  0
  139.0690   70.2772  221.6673 H   0  0  0  0  0  0  0  0  0  0  0  0
  139.2445   68.6261  223.5335 H   0  0  0  0  0  0  0  0  0  0  0  0
  139.8963   68.1926  225.8970 H   0  0  0  0  0  0  0  0  0  0  0  0
  141.5025   71.3944  228.3128 H   0  0  0  0  0  0  0  0  0  0  0  0
  141.2549   72.8886  226.3550 H   0  0  0  0  0  0  0  0  0  0  0  0
  1  2  1  0
  2  3  1  0
  2  4  1  0
  2  5  1  0
  5  6  1  0
  6  7  1  0
  7  8  2  0
  7  9  1  0
  9 10  1  0
 10 11  1  0
 11 12  2  0
 11 13  1  0
 13 14  1  0
 14 15  1  0
 15 16  2  0
 15 17  1  0
 17 18  2  0
 18 19  1  0
 19 20  2  0
 20 21  1  0
 21 22  2  0
 22 23  1  0
 22 24  1  0
 24 25  2  0
 25 26  1  0
 26 27  2  0
 27 17  1  0
 26 20  1  0
  1 28  1  0
  1 29  1  0
  1 30  1  0
  3 31  1  0
  3 32  1  0
  3 33  1  0
  4 34  1  0
  4 35  1  0
  4 36  1  0
  5 37  1  0
  5 38  1  0
  6 39  1  0
  9 40  1  0
  9 41  1  0
 10 42  1  0
 13 43  1  0
 13 44  1  0
 14 45  1  0
 18 46  1  0
 19 47  1  0
 21 48  1  0
 24 49  1  0
 25 50  1  0
M  END
>  <smiles>  (40) 
CC(C)(C)CNC(=O)CNC(=O)CNC(=O)c1ccc2cc(Cl)ccc2n1

>  <score_type>  (40) 
oracle

>  <origin>  (40) 
autodockgpu

>  <m_score__min__energy>  (40) 
-8.0299999999999994

>  <m_primary>  (40) 
energy

>  <rmsd>  (40) 
3.97231417070496

>  <m_score__min__rmsd>  (40) 
3.97231417070496

>  <meeko>  (40) 
{"free_energy": -6.03, "intermolecular_energy": -8.12, "internal_energy": -3.05, "cluster_size": 5, "cluster_id": 2, "rank_in_cluster": 5}

>  <energy>  (40) 
-7.24

>  <cluster_rmsd>  (40) 
0.0

>  <cluster>  (40) 
2

$$$$

     RDKit          3D

 50 51  0  0  0  0  0  0  0  0999 V2000
  142.1980   80.0510  221.6770 C   0  0  0  0  0  0  0  0  0  0  0  0
  142.0700   80.0280  223.2070 C   0  0  0  0  0  0  0  0  0  0  0  0
  140.8040   80.8880  223.4730 C   0  0  0  0  0  0  0  0  0  0  0  0
  143.1970   80.7980  223.7890 C   0  0  0  0  0  0  0  0  0  0  0  0
  141.8310   78.6420  223.7030 C   0  0  0  0  0  0  0  0  0  0  0  0
  141.0160   77.7780  222.9220 N   0  0  0  0  0  0  0  0  0  0  0  0
  139.6140   77.7840  222.7830 C   0  0  0  0  0  0  0  0  0  0  0  0
  138.8520   78.5990  223.3500 O   0  0  0  0  0  0  0  0  0  0  0  0
  138.9640   76.7660  221.9110 C   0  0  0  0  0  0  0  0  0  0  0  0
  139.6580   75.5290  221.8640 N   0  0  0  0  0  0  0  0  0  0  0  0
  140.5250   75.2380  220.8060 C   0  0  0  0  0  0  0  0  0  0  0  0
  140.6560   76.1400  219.9060 O   0  0  0  0  0  0  0  0  0  0  0  0
  141.3050   74.0110  220.6180 C   0  0  0  0  0  0  0  0  0  0  0  0
  141.2210   73.0330  221.6480 N   0  0  0  0  0  0  0  0  0  0  0  0
  139.9880   72.5720  222.1420 C   0  0  0  0  0  0  0  0  0  0  0  0
  138.8600   72.9670  221.7270 O   0  0  0  0  0  0  0  0  0  0  0  0
  139.9860   71.5590  223.2170 C   0  0  0  0  0  0  0  0  0  0  0  0
  139.4970   70.2890  223.0220 C   0  0  0  0  0  0  0  0  0  0  0  0
  139.5050   69.3470  224.0560 C   0  0  0  0  0  0  0  0  0  0  0  0
  140.0120   69.7020  225.2860 C   0  0  0  0  0  0  0  0  0  0  0  0
  140.0680   68.8550  226.3660 C   0  0  0  0  0  0  0  0  0  0  0  0
  140.5850   69.2490  227.5840 C   0  0  0  0  0  0  0  0  0  0  0  0
  140.6570   68.1720  228.9660 Cl  0  0  0  0  0  0  0  0  0  0  0  0
  141.0790   70.5430  227.7690 C   0  0  0  0  0  0  0  0  0  0  0  0
  141.0160   71.3750  226.6820 C   0  0  0  0  0  0  0  0  0  0  0  0
  140.5040   70.9880  225.4680 C   0  0  0  0  0  0  0  0  0  0  0  0
  140.4690   71.8500  224.4360 N   0  0  0  0  0  0  0  0  0  0  0  0
  143.2456   80.2393  221.3995 H   0  0  0  0  0  0  0  0  0  0  0  0
  141.8789   79.0811  221.2677 H   0  0  0  0  0  0  0  0  0  0  0  0
  141.5612   80.8491  221.2677 H   0  0  0  0  0  0  0  0  0  0  0  0
  140.6521   80.9912  224.5576 H   0  0  0  0  0  0  0  0  0  0  0  0
  140.9364   81.8838  223.0249 H   0  0  0  0  0  0  0  0  0  0  0  0
  139.9270   80.3979  223.0249 H   0  0  0  0  0  0  0  0  0  0  0  0
  143.1396   80.7588  224.8868 H   0  0  0  0  0  0  0  0  0  0  0  0
  144.1501   80.3614  223.4558 H   0  0  0  0  0  0  0  0  0  0  0  0
  143.1368   81.8446  223.4558 H   0  0  0  0  0  0  0  0  0  0  0  0
  142.8138   78.1586  223.8050 H   0  0  0  0  0  0  0  0  0  0  0  0
  141.2637   78.7813  224.6351 H   0  0  0  0  0  0  0  0  0  0  0  0
  141.5190   77.0170  222.3600 H   0  0  0  0  0  0  0  0  0  0  0  0
  137.9486   76.5804  222.2911 H   0  0  0  0  0  0  0  0  0  0  0  0
  138.9614   77.1725  220.8888 H   0  0  0  0  0  0  0  0  0  0  0  0
  139.5320   74.8310  222.6190 H   0  0  0  0  0  0  0  0  0  0  0  0
  140.9648   73.5404  219.6838 H   0  0  0  0  0  0  0  0  0  0  0  0
  142.3559   74.3358  220.6147 H   0  0  0  0  0  0  0  0  0  0  0  0
  142.1070   72.6260  222.0700 H   0  0  0  0  0  0  0  0  0  0  0  0
  139.0932   70.0093  222.0377 H   0  0  0  0  0  0  0  0  0  0  0  0
  139.1107   68.3339  223.8884 H   0  0  0  0  0  0  0  0  0  0  0  0
  139.6882   67.8285  226.2567 H   0  0  0  0  0  0  0  0  0  0  0  0
  141.4946   70.8747  228.7319 H   0  0  0  0  0  0  0  0  0  0  0  0
  141.3939   72.4027  226.7870 H   0  0  0  0  0  0  0  0  0  0  0  0
  1  2  1  0
  2  3  1  0
  2  4  1  0
  2  5  1  0
  5  6  1  0
  6  7  1  0
  7  8  2  0
  7  9  1  0
  9 10  1  0
 10 11  1  0
 11 12  2  0
 11 13  1  0
 13 14  1  0
 14 15  1  0
 15 16  2  0
 15 17  1  0
 17 18  2  0
 18 19  1  0
 19 20  2  0
 20 21  1  0
 21 22  2  0
 22 23  1  0
 22 24  1  0
 24 25  2  0
 25 26  1  0
 26 27  2  0
 27 17  1  0
 26 20  1  0
  1 28  1  0
  1 29  1  0
  1 30  1  0
  3 31  1  0
  3 32  1  0
  3 33  1  0
  4 34  1  0
  4 35  1  0
  4 36  1  0
  5 37  1  0
  5 38  1  0
  6 39  1  0
  9 40  1  0
  9 41  1  0
 10 42  1  0
 13 43  1  0
 13 44  1  0
 14 45  1  0
 18 46  1  0
 19 47  1  0
 21 48  1  0
 24 49  1  0
 25 50  1  0
M  END
>  <smiles>  (41) 
CC(C)(C)CNC(=O)CNC(=O)CNC(=O)c1ccc2cc(Cl)ccc2n1

>  <score_type>  (41) 
oracle

>  <origin>  (41) 
autodockgpu

>  <m_score__min__energy>  (41) 
-8.0299999999999994

>  <m_primary>  (41) 
energy

>  <rmsd>  (41) 
2.0921416081317403

>  <m_score__min__rmsd>  (41) 
2.0921416081317403

>  <meeko>  (41) 
{"free_energy": -7.6, "intermolecular_energy": -9.68, "internal_energy": -2.01, "cluster_size": 39, "cluster_id": 1, "rank_in_cluster": 11}

>  <energy>  (41) 
-6.55

>  <cluster_rmsd>  (41) 
1.02

>  <cluster>  (41) 
2

$$$$

     RDKit          3D

 50 51  0  0  0  0  0  0  0  0999 V2000
  142.1910   79.0520  222.1020 C   0  0  0  0  0  0  0  0  0  0  0  0
  141.8350   80.2210  223.0310 C   0  0  0  0  0  0  0  0  0  0  0  0
  141.6720   81.4180  222.0540 C   0  0  0  0  0  0  0  0  0  0  0  0
  143.0230   80.5480  223.8580 C   0  0  0  0  0  0  0  0  0  0  0  0
  140.5370   79.9770  223.7250 C   0  0  0  0  0  0  0  0  0  0  0  0
  139.5680   79.1660  223.0740 N   0  0  0  0  0  0  0  0  0  0  0  0
  138.6090   79.5460  222.1130 C   0  0  0  0  0  0  0  0  0  0  0  0
  138.4780   80.7090  221.6690 O   0  0  0  0  0  0  0  0  0  0  0  0
  137.6760   78.5200  221.5700 C   0  0  0  0  0  0  0  0  0  0  0  0
  138.3310   77.3960  221.0060 N   0  0  0  0  0  0  0  0  0  0  0  0
  138.6840   76.3020  221.8030 C   0  0  0  0  0  0  0  0  0  0  0  0
  138.3800   76.3750  223.0450 O   0  0  0  0  0  0  0  0  0  0  0  0
  139.3630   75.0780  221.3680 C   0  0  0  0  0  0  0  0  0  0  0  0
  139.4830   74.0350  222.3280 N   0  0  0  0  0  0  0  0  0  0  0  0
  139.6990   72.6970  221.9560 C   0  0  0  0  0  0  0  0  0  0  0  0
  139.8110   72.2990  220.7590 O   0  0  0  0  0  0  0  0  0  0  0  0
  139.8060   71.6710  223.0120 C   0  0  0  0  0  0  0  0  0  0  0  0
  139.4300   70.3660  222.8030 C   0  0  0  0  0  0  0  0  0  0  0  0
  139.5400   69.4120  223.8210 C   0  0  0  0  0  0  0  0  0  0  0  0
  140.0350   69.7920  225.0490 C   0  0  0  0  0  0  0  0  0  0  0  0
  140.1850   68.9370  226.1130 C   0  0  0  0  0  0  0  0  0  0  0  0
  140.6850   69.3570  227.3300 C   0  0  0  0  0  0  0  0  0  0  0  0
  140.8770   68.2680  228.6910 Cl  0  0  0  0  0  0  0  0  0  0  0  0
  141.0630   70.6870  227.5290 C   0  0  0  0  0  0  0  0  0  0  0  0
  140.9070   71.5260  226.4570 C   0  0  0  0  0  0  0  0  0  0  0  0
  140.4110   71.1140  225.2450 C   0  0  0  0  0  0  0  0  0  0  0  0
  140.2810   71.9860  224.2290 N   0  0  0  0  0  0  0  0  0  0  0  0
  142.4589   78.1723  222.7057 H   0  0  0  0  0  0  0  0  0  0  0  0
  141.3254   78.8113  221.4673 H   0  0  0  0  0  0  0  0  0  0  0  0
  143.0438   79.3346  221.4673 H   0  0  0  0  0  0  0  0  0  0  0  0
  141.5455   82.3467  222.6298 H   0  0  0  0  0  0  0  0  0  0  0  0
  142.5675   81.4986  221.4202 H   0  0  0  0  0  0  0  0  0  0  0  0
  140.7876   81.2562  221.4202 H   0  0  0  0  0  0  0  0  0  0  0  0
  142.7593   80.4754  224.9235 H   0  0  0  0  0  0  0  0  0  0  0  0
  143.8335   79.8395  223.6318 H   0  0  0  0  0  0  0  0  0  0  0  0
  143.3568   81.5714  223.6318 H   0  0  0  0  0  0  0  0  0  0  0  0
  140.7675   79.4993  224.6887 H   0  0  0  0  0  0  0  0  0  0  0  0
  140.0674   80.9702  223.7806 H   0  0  0  0  0  0  0  0  0  0  0  0
  139.5500   78.1280  223.3390 H   0  0  0  0  0  0  0  0  0  0  0  0
  137.0294   78.1707  222.3884 H   0  0  0  0  0  0  0  0  0  0  0  0
  137.1061   78.9997  220.7607 H   0  0  0  0  0  0  0  0  0  0  0  0
  138.5490   77.3720  219.9930 H   0  0  0  0  0  0  0  0  0  0  0  0
  138.8066   74.6765  220.5082 H   0  0  0  0  0  0  0  0  0  0  0  0
  140.3957   75.3851  221.1462 H   0  0  0  0  0  0  0  0  0  0  0  0
  139.4090   74.2540  223.3660 H   0  0  0  0  0  0  0  0  0  0  0  0
  139.0365   70.0665  221.8204 H   0  0  0  0  0  0  0  0  0  0  0  0
  139.2346   68.3704  223.6425 H   0  0  0  0  0  0  0  0  0  0  0  0
  139.8973   67.8822  225.9920 H   0  0  0  0  0  0  0  0  0  0  0  0
  141.4629   71.0404  228.4909 H   0  0  0  0  0  0  0  0  0  0  0  0
  141.1933   72.5817  226.5732 H   0  0  0  0  0  0  0  0  0  0  0  0
  1  2  1  0
  2  3  1  0
  2  4  1  0
  2  5  1  0
  5  6  1  0
  6  7  1  0
  7  8  2  0
  7  9  1  0
  9 10  1  0
 10 11  1  0
 11 12  2  0
 11 13  1  0
 13 14  1  0
 14 15  1  0
 15 16  2  0
 15 17  1  0
 17 18  2  0
 18 19  1  0
 19 20  2  0
 20 21  1  0
 21 22  2  0
 22 23  1  0
 22 24  1  0
 24 25  2  0
 25 26  1  0
 26 27  2  0
 27 17  1  0
 26 20  1  0
  1 28  1  0
  1 29  1  0
  1 30  1  0
  3 31  1  0
  3 32  1  0
  3 33  1  0
  4 34  1  0
  4 35  1  0
  4 36  1  0
  5 37  1  0
  5 38  1  0
  6 39  1  0
  9 40  1  0
  9 41  1  0
 10 42  1  0
 13 43  1  0
 13 44  1  0
 14 45  1  0
 18 46  1  0
 19 47  1  0
 21 48  1  0
 24 49  1  0
 25 50  1  0
M  END
>  <smiles>  (42) 
CC(C)(C)CNC(=O)CNC(=O)CNC(=O)c1ccc2cc(Cl)ccc2n1

>  <score_type>  (42) 
oracle

>  <origin>  (42) 
autodockgpu

>  <m_score__min__energy>  (42) 
-8.0299999999999994

>  <m_primary>  (42) 
energy

>  <rmsd>  (42) 
2.214067102075664

>  <m_score__min__rmsd>  (42) 
2.214067102075664

>  <meeko>  (42) 
{"free_energy": -7.16, "intermolecular_energy": -9.25, "internal_energy": -2.47, "cluster_size": 39, "cluster_id": 1, "rank_in_cluster": 25}

>  <energy>  (42) 
-6.37

>  <cluster_rmsd>  (42) 
0.59

>  <cluster>  (42) 
2

$$$$

     RDKit          3D

 50 51  0  0  0  0  0  0  0  0999 V2000
  141.3910   70.1200  226.1130 C   0  0  0  0  0  0  0  0  0  0  0  0
  140.4420   69.9420  227.3070 C   0  0  0  0  0  0  0  0  0  0  0  0
  140.4580   71.3370  227.9890 C   0  0  0  0  0  0  0  0  0  0  0  0
  141.0740   69.0200  228.2830 C   0  0  0  0  0  0  0  0  0  0  0  0
  139.0540   69.6410  226.8470 C   0  0  0  0  0  0  0  0  0  0  0  0
  138.8490   69.3560  225.4690 N   0  0  0  0  0  0  0  0  0  0  0  0
  139.1260   68.1660  224.7690 C   0  0  0  0  0  0  0  0  0  0  0  0
  139.6070   67.1350  225.2920 O   0  0  0  0  0  0  0  0  0  0  0  0
  138.8390   68.0950  223.3090 C   0  0  0  0  0  0  0  0  0  0  0  0
  138.1020   69.2040  222.8190 N   0  0  0  0  0  0  0  0  0  0  0  0
  138.6660   70.4830  222.8040 C   0  0  0  0  0  0  0  0  0  0  0  0
  139.8640   70.5890  223.2440 O   0  0  0  0  0  0  0  0  0  0  0  0
  138.0330   71.7200  222.3350 C   0  0  0  0  0  0  0  0  0  0  0  0
  137.0660   72.3120  223.1930 N   0  0  0  0  0  0  0  0  0  0  0  0
  136.2260   71.5420  224.0170 C   0  0  0  0  0  0  0  0  0  0  0  0
  136.2520   70.2790  224.0790 O   0  0  0  0  0  0  0  0  0  0  0  0
  135.2430   72.2330  224.8760 C   0  0  0  0  0  0  0  0  0  0  0  0
  134.3250   71.5450  225.6320 C   0  0  0  0  0  0  0  0  0  0  0  0
  133.4020   72.2210  226.4380 C   0  0  0  0  0  0  0  0  0  0  0  0
  133.4200   73.5980  226.4700 C   0  0  0  0  0  0  0  0  0  0  0  0
  132.5610   74.3590  227.2250 C   0  0  0  0  0  0  0  0  0  0  0  0
  132.6100   75.7390  227.2300 C   0  0  0  0  0  0  0  0  0  0  0  0
  131.5150   76.7130  228.1920 Cl  0  0  0  0  0  0  0  0  0  0  0  0
  133.5480   76.4260  226.4560 C   0  0  0  0  0  0  0  0  0  0  0  0
  134.3970   75.6520  225.7080 C   0  0  0  0  0  0  0  0  0  0  0  0
  134.3540   74.2800  225.7000 C   0  0  0  0  0  0  0  0  0  0  0  0
  135.2140   73.5740  224.9450 N   0  0  0  0  0  0  0  0  0  0  0  0
  142.4102   70.3112  226.4800 H   0  0  0  0  0  0  0  0  0  0  0  0
  141.3869   69.2054  225.5018 H   0  0  0  0  0  0  0  0  0  0  0  0
  141.0557   70.9709  225.5018 H   0  0  0  0  0  0  0  0  0  0  0  0
  140.4565   71.2109  229.0818 H   0  0  0  0  0  0  0  0  0  0  0  0
  141.3625   71.8838  227.6842 H   0  0  0  0  0  0  0  0  0  0  0  0
  139.5663   71.9044  227.6842 H   0  0  0  0  0  0  0  0  0  0  0  0
  140.8445   69.3548  229.3054 H   0  0  0  0  0  0  0  0  0  0  0  0
  140.6822   68.0031  228.1336 H   0  0  0  0  0  0  0  0  0  0  0  0
  142.1638   69.0187  228.1336 H   0  0  0  0  0  0  0  0  0  0  0  0
  138.7042   68.7671  227.4162 H   0  0  0  0  0  0  0  0  0  0  0  0
  138.5021   70.5773  227.0164 H   0  0  0  0  0  0  0  0  0  0  0  0
  138.4310   70.1410  224.8710 H   0  0  0  0  0  0  0  0  0  0  0  0
  139.7960   68.0477  222.7687 H   0  0  0  0  0  0  0  0  0  0  0  0
  138.2207   67.2000  223.1456 H   0  0  0  0  0  0  0  0  0  0  0  0
  137.1390   69.0740  222.4610 H   0  0  0  0  0  0  0  0  0  0  0  0
  138.8301   72.4602  222.1717 H   0  0  0  0  0  0  0  0  0  0  0  0
  137.4769   71.4330  221.4303 H   0  0  0  0  0  0  0  0  0  0  0  0
  136.9590   73.3690  223.2270 H   0  0  0  0  0  0  0  0  0  0  0  0
  134.3153   70.4454  225.6033 H   0  0  0  0  0  0  0  0  0  0  0  0
  132.6711   71.6596  227.0386 H   0  0  0  0  0  0  0  0  0  0  0  0
  131.8085   73.8518  227.8468 H   0  0  0  0  0  0  0  0  0  0  0  0
  133.6024   77.5246  226.4471 H   0  0  0  0  0  0  0  0  0  0  0  0
  135.1498   76.1552  225.0834 H   0  0  0  0  0  0  0  0  0  0  0  0
  1  2  1  0
  2  3  1  0
  2  4  1  0
  2  5  1  0
  5  6  1  0
  6  7  1  0
  7  8  2  0
  7  9  1  0
  9 10  1  0
 10 11  1  0
 11 12  2  0
 11 13  1  0
 13 14  1  0
 14 15  1  0
 15 16  2  0
 15 17  1  0
 17 18  2  0
 18 19  1  0
 19 20  2  0
 20 21  1  0
 21 22  2  0
 22 23  1  0
 22 24  1  0
 24 25  2  0
 25 26  1  0
 26 27  2  0
 27 17  1  0
 26 20  1  0
  1 28  1  0
  1 29  1  0
  1 30  1  0
  3 31  1  0
  3 32  1  0
  3 33  1  0
  4 34  1  0
  4 35  1  0
  4 36  1  0
  5 37  1  0
  5 38  1  0
  6 39  1  0
  9 40  1  0
  9 41  1  0
 10 42  1  0
 13 43  1  0
 13 44  1  0
 14 45  1  0
 18 46  1  0
 19 47  1  0
 21 48  1  0
 24 49  1  0
 25 50  1  0
M  END
>  <smiles>  (43) 
CC(C)(C)CNC(=O)CNC(=O)CNC(=O)c1ccc2cc(Cl)ccc2n1

>  <score_type>  (43) 
oracle

>  <origin>  (43) 
autodockgpu

>  <m_score__min__energy>  (43) 
-8.0299999999999994

>  <m_primary>  (43) 
energy

>  <rmsd>  (43) 
8.245626920492123

>  <m_score__min__rmsd>  (43) 
8.245626920492123

>  <meeko>  (43) 
{"free_energy": -6.45, "intermolecular_energy": -8.54, "internal_energy": -3.2, "cluster_size": 3, "cluster_id": 3, "rank_in_cluster": 2}

>  <energy>  (43) 
-6.13

>  <cluster_rmsd>  (43) 
1.42

>  <cluster>  (43) 
2

$$$$

     RDKit          3D

 50 51  0  0  0  0  0  0  0  0999 V2000
  140.0260   79.9170  222.9170 C   0  0  0  0  0  0  0  0  0  0  0  0
  141.5560   79.9040  223.0460 C   0  0  0  0  0  0  0  0  0  0  0  0
  141.8310   78.6350  223.9000 C   0  0  0  0  0  0  0  0  0  0  0  0
  141.9700   81.0470  223.8970 C   0  0  0  0  0  0  0  0  0  0  0  0
  142.2040   79.7440  221.7120 C   0  0  0  0  0  0  0  0  0  0  0  0
  142.1540   78.4680  221.0880 N   0  0  0  0  0  0  0  0  0  0  0  0
  142.0460   78.1670  219.7150 C   0  0  0  0  0  0  0  0  0  0  0  0
  141.9860   79.0270  218.8070 O   0  0  0  0  0  0  0  0  0  0  0  0
  141.9960   76.7430  219.2830 C   0  0  0  0  0  0  0  0  0  0  0  0
  140.7350   76.1280  219.4890 N   0  0  0  0  0  0  0  0  0  0  0  0
  140.4150   75.5530  220.7230 C   0  0  0  0  0  0  0  0  0  0  0  0
  141.3100   75.6200  221.6370 O   0  0  0  0  0  0  0  0  0  0  0  0
  139.1620   74.8830  221.0850 C   0  0  0  0  0  0  0  0  0  0  0  0
  139.2410   73.8660  222.0760 N   0  0  0  0  0  0  0  0  0  0  0  0
  139.8900   72.6410  221.8410 C   0  0  0  0  0  0  0  0  0  0  0  0
  140.4600   72.3330  220.7540 O   0  0  0  0  0  0  0  0  0  0  0  0
  139.9240   71.6340  222.9200 C   0  0  0  0  0  0  0  0  0  0  0  0
  139.4480   70.3570  222.7410 C   0  0  0  0  0  0  0  0  0  0  0  0
  139.4900   69.4190  223.7780 C   0  0  0  0  0  0  0  0  0  0  0  0
  140.0170   69.7870  224.9970 C   0  0  0  0  0  0  0  0  0  0  0  0
  140.1060   68.9470  226.0790 C   0  0  0  0  0  0  0  0  0  0  0  0
  140.6420   69.3530  227.2850 C   0  0  0  0  0  0  0  0  0  0  0  0
  140.7570   68.2840  228.6700 Cl  0  0  0  0  0  0  0  0  0  0  0  0
  141.1210   70.6550  227.4540 C   0  0  0  0  0  0  0  0  0  0  0  0
  141.0250   71.4810  226.3640 C   0  0  0  0  0  0  0  0  0  0  0  0
  140.4940   71.0810  225.1630 C   0  0  0  0  0  0  0  0  0  0  0  0
  140.4270   71.9380  224.1280 N   0  0  0  0  0  0  0  0  0  0  0  0
  139.5735   79.9208  223.9196 H   0  0  0  0  0  0  0  0  0  0  0  0
  139.7118   80.8178  222.3695 H   0  0  0  0  0  0  0  0  0  0  0  0
  139.6966   79.0216  222.3695 H   0  0  0  0  0  0  0  0  0  0  0  0
  141.7752   78.8926  224.9680 H   0  0  0  0  0  0  0  0  0  0  0  0
  141.0784   77.8669  223.6682 H   0  0  0  0  0  0  0  0  0  0  0  0
  142.8340   78.2473  223.6682 H   0  0  0  0  0  0  0  0  0  0  0  0
  141.8698   80.7702  224.9569 H   0  0  0  0  0  0  0  0  0  0  0  0
  143.0180   81.3032  223.6825 H   0  0  0  0  0  0  0  0  0  0  0  0
  141.3291   81.9149  223.6825 H   0  0  0  0  0  0  0  0  0  0  0  0
  141.7239   80.4599  221.0286 H   0  0  0  0  0  0  0  0  0  0  0  0
  143.2738   79.9089  221.9080 H   0  0  0  0  0  0  0  0  0  0  0  0
  142.2010   77.6120  221.7310 H   0  0  0  0  0  0  0  0  0  0  0  0
  142.2334   76.6973  218.2099 H   0  0  0  0  0  0  0  0  0  0  0  0
  142.7248   76.1950  219.8982 H   0  0  0  0  0  0  0  0  0  0  0  0
  140.0340   76.1050  218.7270 H   0  0  0  0  0  0  0  0  0  0  0  0
  138.4675   75.6526  221.4528 H   0  0  0  0  0  0  0  0  0  0  0  0
  138.8366   74.3676  220.1693 H   0  0  0  0  0  0  0  0  0  0  0  0
  138.8010   74.0170  223.0320 H   0  0  0  0  0  0  0  0  0  0  0  0
  139.0273   70.0680  221.7666 H   0  0  0  0  0  0  0  0  0  0  0  0
  139.1069   68.3997  223.6222 H   0  0  0  0  0  0  0  0  0  0  0  0
  139.7377   67.9150  225.9820 H   0  0  0  0  0  0  0  0  0  0  0  0
  141.5505   70.9974  228.4070 H   0  0  0  0  0  0  0  0  0  0  0  0
  141.3911   72.5142  226.4563 H   0  0  0  0  0  0  0  0  0  0  0  0
  1  2  1  0
  2  3  1  0
  2  4  1  0
  2  5  1  0
  5  6  1  0
  6  7  1  0
  7  8  2  0
  7  9  1  0
  9 10  1  0
 10 11  1  0
 11 12  2  0
 11 13  1  0
 13 14  1  0
 14 15  1  0
 15 16  2  0
 15 17  1  0
 17 18  2  0
 18 19  1  0
 19 20  2  0
 20 21  1  0
 21 22  2  0
 22 23  1  0
 22 24  1  0
 24 25  2  0
 25 26  1  0
 26 27  2  0
 27 17  1  0
 26 20  1  0
  1 28  1  0
  1 29  1  0
  1 30  1  0
  3 31  1  0
  3 32  1  0
  3 33  1  0
  4 34  1  0
  4 35  1  0
  4 36  1  0
  5 37  1  0
  5 38  1  0
  6 39  1  0
  9 40  1  0
  9 41  1  0
 10 42  1  0
 13 43  1  0
 13 44  1  0
 14 45  1  0
 18 46  1  0
 19 47  1  0
 21 48  1  0
 24 49  1  0
 25 50  1  0
M  END
>  <smiles>  (44) 
CC(C)(C)CNC(=O)CNC(=O)CNC(=O)c1ccc2cc(Cl)ccc2n1

>  <score_type>  (44) 
oracle

>  <origin>  (44) 
autodockgpu

>  <m_score__min__energy>  (44) 
-8.0299999999999994

>  <m_primary>  (44) 
energy

>  <rmsd>  (44) 
1.826276790085768

>  <m_score__min__rmsd>  (44) 
1.826276790085768

>  <meeko>  (44) 
{"free_energy": -7.89, "intermolecular_energy": -9.98, "internal_energy": -2.02, "cluster_size": 39, "cluster_id": 1, "rank_in_cluster": 3}

>  <energy>  (44) 
-6.03

>  <cluster_rmsd>  (44) 
1.4

>  <cluster>  (44) 
2

$$$$

     RDKit          3D

 50 51  0  0  0  0  0  0  0  0999 V2000
  139.7950   79.0700  223.3650 C   0  0  0  0  0  0  0  0  0  0  0  0
  139.7180   77.9750  222.2920 C   0  0  0  0  0  0  0  0  0  0  0  0
  139.1030   78.7130  221.0710 C   0  0  0  0  0  0  0  0  0  0  0  0
  138.6990   76.9780  222.7030 C   0  0  0  0  0  0  0  0  0  0  0  0
  141.0800   77.4850  221.9290 C   0  0  0  0  0  0  0  0  0  0  0  0
  141.1830   76.3320  221.1050 N   0  0  0  0  0  0  0  0  0  0  0  0
  142.2040   75.9940  220.1940 C   0  0  0  0  0  0  0  0  0  0  0  0
  143.2200   76.6940  219.9810 O   0  0  0  0  0  0  0  0  0  0  0  0
  142.0980   74.7270  219.4170 C   0  0  0  0  0  0  0  0  0  0  0  0
  141.0570   73.8730  219.8610 N   0  0  0  0  0  0  0  0  0  0  0  0
  139.7170   74.2000  219.6300 C   0  0  0  0  0  0  0  0  0  0  0  0
  139.4940   75.2930  219.0000 O   0  0  0  0  0  0  0  0  0  0  0  0
  138.5390   73.4250  220.0280 C   0  0  0  0  0  0  0  0  0  0  0  0
  138.7200   72.4690  221.0660 N   0  0  0  0  0  0  0  0  0  0  0  0
  139.6020   72.6870  222.1380 C   0  0  0  0  0  0  0  0  0  0  0  0
  140.3000   73.7330  222.2860 O   0  0  0  0  0  0  0  0  0  0  0  0
  139.7380   71.6430  223.1730 C   0  0  0  0  0  0  0  0  0  0  0  0
  139.3490   70.3430  222.9540 C   0  0  0  0  0  0  0  0  0  0  0  0
  139.4870   69.3710  223.9500 C   0  0  0  0  0  0  0  0  0  0  0  0
  140.0230   69.7270  225.1680 C   0  0  0  0  0  0  0  0  0  0  0  0
  140.2040   68.8530  226.2120 C   0  0  0  0  0  0  0  0  0  0  0  0
  140.7450   69.2490  227.4190 C   0  0  0  0  0  0  0  0  0  0  0  0
  140.9760   68.1370  228.7540 Cl  0  0  0  0  0  0  0  0  0  0  0  0
  141.1360   70.5740  227.6290 C   0  0  0  0  0  0  0  0  0  0  0  0
  140.9490   71.4330  226.5770 C   0  0  0  0  0  0  0  0  0  0  0  0
  140.4130   71.0440  225.3750 C   0  0  0  0  0  0  0  0  0  0  0  0
  140.2540   71.9340  224.3790 N   0  0  0  0  0  0  0  0  0  0  0  0
  139.7625   78.6084  224.3629 H   0  0  0  0  0  0  0  0  0  0  0  0
  140.7347   79.6301  223.2505 H   0  0  0  0  0  0  0  0  0  0  0  0
  138.9429   79.7561  223.2505 H   0  0  0  0  0  0  0  0  0  0  0  0
  138.4361   79.5133  221.4241 H   0  0  0  0  0  0  0  0  0  0  0  0
  139.9087   79.1491  220.4622 H   0  0  0  0  0  0  0  0  0  0  0  0
  138.5288   77.9991  220.4622 H   0  0  0  0  0  0  0  0  0  0  0  0
  138.6525   76.9325  223.8011 H   0  0  0  0  0  0  0  0  0  0  0  0
  137.7164   77.2731  222.3063 H   0  0  0  0  0  0  0  0  0  0  0  0
  138.9726   75.9892  222.3063 H   0  0  0  0  0  0  0  0  0  0  0  0
  141.5930   78.3058  221.4064 H   0  0  0  0  0  0  0  0  0  0  0  0
  141.5214   77.1744  222.8875 H   0  0  0  0  0  0  0  0  0  0  0  0
  140.3870   75.6170  221.1710 H   0  0  0  0  0  0  0  0  0  0  0  0
  141.9138   74.9803  218.3626 H   0  0  0  0  0  0  0  0  0  0  0  0
  143.0434   74.1826  219.5581 H   0  0  0  0  0  0  0  0  0  0  0  0
  141.2810   72.9910  220.3580 H   0  0  0  0  0  0  0  0  0  0  0  0
  137.7697   74.1369  220.3619 H   0  0  0  0  0  0  0  0  0  0  0  0
  138.2683   72.8364  219.1390 H   0  0  0  0  0  0  0  0  0  0  0  0
  138.1800   71.5530  221.0470 H   0  0  0  0  0  0  0  0  0  0  0  0
  138.9223   70.0627  221.9797 H   0  0  0  0  0  0  0  0  0  0  0  0
  139.1711   68.3341  223.7629 H   0  0  0  0  0  0  0  0  0  0  0  0
  139.9078   67.8016  226.0821 H   0  0  0  0  0  0  0  0  0  0  0  0
  141.5689   70.9085  228.5833 H   0  0  0  0  0  0  0  0  0  0  0  0
  141.2430   72.4855  226.7025 H   0  0  0  0  0  0  0  0  0  0  0  0
  1  2  1  0
  2  3  1  0
  2  4  1  0
  2  5  1  0
  5  6  1  0
  6  7  1  0
  7  8  2  0
  7  9  1  0
  9 10  1  0
 10 11  1  0
 11 12  2  0
 11 13  1  0
 13 14  1  0
 14 15  1  0
 15 16  2  0
 15 17  1  0
 17 18  2  0
 18 19  1  0
 19 20  2  0
 20 21  1  0
 21 22  2  0
 22 23  1  0
 22 24  1  0
 24 25  2  0
 25 26  1  0
 26 27  2  0
 27 17  1  0
 26 20  1  0
  1 28  1  0
  1 29  1  0
  1 30  1  0
  3 31  1  0
  3 32  1  0
  3 33  1  0
  4 34  1  0
  4 35  1  0
  4 36  1  0
  5 37  1  0
  5 38  1  0
  6 39  1  0
  9 40  1  0
  9 41  1  0
 10 42  1  0
 13 43  1  0
 13 44  1  0
 14 45  1  0
 18 46  1  0
 19 47  1  0
 21 48  1  0
 24 49  1  0
 25 50  1  0
M  END
>  <smiles>  (45) 
CC(C)(C)CNC(=O)CNC(=O)CNC(=O)c1ccc2cc(Cl)ccc2n1

>  <score_type>  (45) 
oracle

>  <origin>  (45) 
autodockgpu

>  <m_score__min__energy>  (45) 
-8.0299999999999994

>  <m_primary>  (45) 
energy

>  <rmsd>  (45) 
2.1476018975453854

>  <m_score__min__rmsd>  (45) 
2.1476018975453854

>  <meeko>  (45) 
{"free_energy": -6.0, "intermolecular_energy": -8.09, "internal_energy": -2.86, "cluster_size": 39, "cluster_id": 1, "rank_in_cluster": 39}

>  <energy>  (45) 
-6.56

>  <cluster_rmsd>  (45) 
0.0

>  <cluster>  (45) 
3

$$$$

     RDKit          3D

 50 51  0  0  0  0  0  0  0  0999 V2000
  143.2890   80.3440  222.9260 C   0  0  0  0  0  0  0  0  0  0  0  0
  141.8110   80.0360  222.6470 C   0  0  0  0  0  0  0  0  0  0  0  0
  141.8080   79.6290  221.1480 C   0  0  0  0  0  0  0  0  0  0  0  0
  141.0420   81.3030  222.7120 C   0  0  0  0  0  0  0  0  0  0  0  0
  141.3420   78.8810  223.4660 C   0  0  0  0  0  0  0  0  0  0  0  0
  140.4760   77.9320  222.8580 N   0  0  0  0  0  0  0  0  0  0  0  0
  139.0670   77.9010  222.8630 C   0  0  0  0  0  0  0  0  0  0  0  0
  138.3440   78.7560  223.4240 O   0  0  0  0  0  0  0  0  0  0  0  0
  138.3590   76.7930  222.1630 C   0  0  0  0  0  0  0  0  0  0  0  0
  139.1210   75.5990  222.0720 N   0  0  0  0  0  0  0  0  0  0  0  0
  140.1120   75.4590  221.0960 C   0  0  0  0  0  0  0  0  0  0  0  0
  140.2900   76.4550  220.3100 O   0  0  0  0  0  0  0  0  0  0  0  0
  140.9730   74.2930  220.8750 C   0  0  0  0  0  0  0  0  0  0  0  0
  140.9560   73.2840  221.8790 N   0  0  0  0  0  0  0  0  0  0  0  0
  139.7700   72.6440  222.2760 C   0  0  0  0  0  0  0  0  0  0  0  0
  138.6280   72.8910  221.7880 O   0  0  0  0  0  0  0  0  0  0  0  0
  139.8360   71.6110  223.3280 C   0  0  0  0  0  0  0  0  0  0  0  0
  139.3940   70.3260  223.1200 C   0  0  0  0  0  0  0  0  0  0  0  0
  139.4660   69.3640  224.1330 C   0  0  0  0  0  0  0  0  0  0  0  0
  139.9900   69.7160  225.3580 C   0  0  0  0  0  0  0  0  0  0  0  0
  140.1070   68.8510  226.4190 C   0  0  0  0  0  0  0  0  0  0  0  0
  140.6380   69.2420  227.6320 C   0  0  0  0  0  0  0  0  0  0  0  0
  140.7890   68.1420  228.9890 Cl  0  0  0  0  0  0  0  0  0  0  0  0
  141.0830   70.5520  227.8310 C   0  0  0  0  0  0  0  0  0  0  0  0
  140.9590   71.4010  226.7630 C   0  0  0  0  0  0  0  0  0  0  0  0
  140.4330   71.0180  225.5540 C   0  0  0  0  0  0  0  0  0  0  0  0
  140.3370   71.8980  224.5420 N   0  0  0  0  0  0  0  0  0  0  0  0
  143.4575   80.3791  224.0124 H   0  0  0  0  0  0  0  0  0  0  0  0
  143.9175   79.5575  222.4827 H   0  0  0  0  0  0  0  0  0  0  0  0
  143.5510   81.3160  222.4827 H   0  0  0  0  0  0  0  0  0  0  0  0
  141.7999   78.5321  221.0659 H   0  0  0  0  0  0  0  0  0  0  0  0
  140.9129   80.0400  220.6583 H   0  0  0  0  0  0  0  0  0  0  0  0
  142.7091   80.0267  220.6583 H   0  0  0  0  0  0  0  0  0  0  0  0
  140.8755   81.5773  223.7642 H   0  0  0  0  0  0  0  0  0  0  0  0
  141.6079   82.1016  222.2100 H   0  0  0  0  0  0  0  0  0  0  0  0
  140.0724   81.1696  222.2100 H   0  0  0  0  0  0  0  0  0  0  0  0
  142.2362   78.3366  223.8037 H   0  0  0  0  0  0  0  0  0  0  0  0
  140.7303   79.3394  224.2570 H   0  0  0  0  0  0  0  0  0  0  0  0
  140.9390   77.1270  222.3230 H   0  0  0  0  0  0  0  0  0  0  0  0
  137.4311   76.5723  222.7110 H   0  0  0  0  0  0  0  0  0  0  0  0
  138.1671   77.1321  221.1343 H   0  0  0  0  0  0  0  0  0  0  0  0
  138.9520   74.8210  222.7340 H   0  0  0  0  0  0  0  0  0  0  0  0
  140.6643   73.8258  219.9282 H   0  0  0  0  0  0  0  0  0  0  0  0
  141.9997   74.6877  220.8805 H   0  0  0  0  0  0  0  0  0  0  0  0
  141.8610   72.9910  222.3550 H   0  0  0  0  0  0  0  0  0  0  0  0
  138.9767   70.0496  222.1405 H   0  0  0  0  0  0  0  0  0  0  0  0
  139.1088   68.3391  223.9540 H   0  0  0  0  0  0  0  0  0  0  0  0
  139.7662   67.8121  226.2980 H   0  0  0  0  0  0  0  0  0  0  0  0
  141.5084   70.8823  228.7901 H   0  0  0  0  0  0  0  0  0  0  0  0
  141.2976   72.4410  226.8799 H   0  0  0  0  0  0  0  0  0  0  0  0
  1  2  1  0
  2  3  1  0
  2  4  1  0
  2  5  1  0
  5  6  1  0
  6  7  1  0
  7  8  2  0
  7  9  1  0
  9 10  1  0
 10 11  1  0
 11 12  2  0
 11 13  1  0
 13 14  1  0
 14 15  1  0
 15 16  2  0
 15 17  1  0
 17 18  2  0
 18 19  1  0
 19 20  2  0
 20 21  1  0
 21 22  2  0
 22 23  1  0
 22 24  1  0
 24 25  2  0
 25 26  1  0
 26 27  2  0
 27 17  1  0
 26 20  1  0
  1 28  1  0
  1 29  1  0
  1 30  1  0
  3 31  1  0
  3 32  1  0
  3 33  1  0
  4 34  1  0
  4 35  1  0
  4 36  1  0
  5 37  1  0
  5 38  1  0
  6 39  1  0
  9 40  1  0
  9 41  1  0
 10 42  1  0
 13 43  1  0
 13 44  1  0
 14 45  1  0
 18 46  1  0
 19 47  1  0
 21 48  1  0
 24 49  1  0
 25 50  1  0
M  END
>  <smiles>  (46) 
CC(C)(C)CNC(=O)CNC(=O)CNC(=O)c1ccc2cc(Cl)ccc2n1

>  <score_type>  (46) 
oracle

>  <origin>  (46) 
autodockgpu

>  <m_score__min__energy>  (46) 
-8.0299999999999994

>  <m_primary>  (46) 
energy

>  <rmsd>  (46) 
2.2553688304907182

>  <m_score__min__rmsd>  (46) 
2.2553688304907182

>  <meeko>  (46) 
{"free_energy": -7.41, "intermolecular_energy": -9.5, "internal_energy": -2.54, "cluster_size": 39, "cluster_id": 1, "rank_in_cluster": 17}

>  <energy>  (46) 
-6.45

>  <cluster_rmsd>  (46) 
0.3

>  <cluster>  (46) 
3

$$$$

     RDKit          3D

 50 51  0  0  0  0  0  0  0  0999 V2000
  142.2670   79.4220  222.5120 C   0  0  0  0  0  0  0  0  0  0  0  0
  141.2690   78.4800  221.8240 C   0  0  0  0  0  0  0  0  0  0  0  0
  139.9540   79.3070  221.8010 C   0  0  0  0  0  0  0  0  0  0  0  0
  140.9960   77.3360  222.7290 C   0  0  0  0  0  0  0  0  0  0  0  0
  141.6870   78.1890  220.4220 C   0  0  0  0  0  0  0  0  0  0  0  0
  141.7680   76.8300  220.0120 N   0  0  0  0  0  0  0  0  0  0  0  0
  142.9150   76.0260  219.8650 C   0  0  0  0  0  0  0  0  0  0  0  0
  144.0830   76.4120  220.0970 O   0  0  0  0  0  0  0  0  0  0  0  0
  142.7630   74.6170  219.4050 C   0  0  0  0  0  0  0  0  0  0  0  0
  141.6190   73.9650  219.9330 N   0  0  0  0  0  0  0  0  0  0  0  0
  140.3700   74.1100  219.3220 C   0  0  0  0  0  0  0  0  0  0  0  0
  140.3250   74.8470  218.2750 O   0  0  0  0  0  0  0  0  0  0  0  0
  139.1050   73.5070  219.7500 C   0  0  0  0  0  0  0  0  0  0  0  0
  139.1700   72.5600  220.8100 N   0  0  0  0  0  0  0  0  0  0  0  0
  139.7710   72.8610  222.0440 C   0  0  0  0  0  0  0  0  0  0  0  0
  140.2950   73.9770  222.3300 O   0  0  0  0  0  0  0  0  0  0  0  0
  139.8040   71.8210  223.0920 C   0  0  0  0  0  0  0  0  0  0  0  0
  139.2940   70.5620  222.8880 C   0  0  0  0  0  0  0  0  0  0  0  0
  139.3370   69.5930  223.8970 C   0  0  0  0  0  0  0  0  0  0  0  0
  139.9010   69.9120  225.1120 C   0  0  0  0  0  0  0  0  0  0  0  0
  139.9940   69.0380  226.1670 C   0  0  0  0  0  0  0  0  0  0  0  0
  140.5680   69.3960  227.3710 C   0  0  0  0  0  0  0  0  0  0  0  0
  140.6880   68.2840  228.7220 Cl  0  0  0  0  0  0  0  0  0  0  0  0
  141.0820   70.6810  227.5670 C   0  0  0  0  0  0  0  0  0  0  0  0
  140.9820   71.5400  226.5040 C   0  0  0  0  0  0  0  0  0  0  0  0
  140.4130   71.1890  225.3040 C   0  0  0  0  0  0  0  0  0  0  0  0
  140.3430   72.0770  224.2970 N   0  0  0  0  0  0  0  0  0  0  0  0
  142.1674   79.3280  223.6034 H   0  0  0  0  0  0  0  0  0  0  0  0
  143.2909   79.1534  222.2128 H   0  0  0  0  0  0  0  0  0  0  0  0
  142.0579   80.4597  222.2128 H   0  0  0  0  0  0  0  0  0  0  0  0
  139.6306   79.5104  222.8325 H   0  0  0  0  0  0  0  0  0  0  0  0
  140.1283   80.2584  221.2771 H   0  0  0  0  0  0  0  0  0  0  0  0
  139.1720   78.7378  221.2771 H   0  0  0  0  0  0  0  0  0  0  0  0
  141.0754   77.6685  223.7745 H   0  0  0  0  0  0  0  0  0  0  0  0
  139.9815   76.9542  222.5416 H   0  0  0  0  0  0  0  0  0  0  0  0
  141.7288   76.5373  222.5416 H   0  0  0  0  0  0  0  0  0  0  0  0
  140.9665   78.6876  219.7570 H   0  0  0  0  0  0  0  0  0  0  0  0
  142.7239   78.5520  220.3665 H   0  0  0  0  0  0  0  0  0  0  0  0
  140.8440   76.3400  219.7790 H   0  0  0  0  0  0  0  0  0  0  0  0
  142.6876   74.6162  218.3076 H   0  0  0  0  0  0  0  0  0  0  0  0
  143.6431   74.0644  219.7657 H   0  0  0  0  0  0  0  0  0  0  0  0
  141.7010   73.3690  220.7760 H   0  0  0  0  0  0  0  0  0  0  0  0
  138.4406   74.3221  220.0727 H   0  0  0  0  0  0  0  0  0  0  0  0
  138.7488   72.9382  218.8784 H   0  0  0  0  0  0  0  0  0  0  0  0
  138.7570   71.5890  220.6830 H   0  0  0  0  0  0  0  0  0  0  0  0
  138.8445   70.3113  221.9158 H   0  0  0  0  0  0  0  0  0  0  0  0
  138.9250   68.5883  223.7215 H   0  0  0  0  0  0  0  0  0  0  0  0
  139.5980   68.0185  226.0492 H   0  0  0  0  0  0  0  0  0  0  0  0
  141.5403   70.9852  228.5196 H   0  0  0  0  0  0  0  0  0  0  0  0
  141.3767   72.5605  226.6172 H   0  0  0  0  0  0  0  0  0  0  0  0
  1  2  1  0
  2  3  1  0
  2  4  1  0
  2  5  1  0
  5  6  1  0
  6  7  1  0
  7  8  2  0
  7  9  1  0
  9 10  1  0
 10 11  1  0
 11 12  2  0
 11 13  1  0
 13 14  1  0
 14 15  1  0
 15 16  2  0
 15 17  1  0
 17 18  2  0
 18 19  1  0
 19 20  2  0
 20 21  1  0
 21 22  2  0
 22 23  1  0
 22 24  1  0
 24 25  2  0
 25 26  1  0
 26 27  2  0
 27 17  1  0
 26 20  1  0
  1 28  1  0
  1 29  1  0
  1 30  1  0
  3 31  1  0
  3 32  1  0
  3 33  1  0
  4 34  1  0
  4 35  1  0
  4 36  1  0
  5 37  1  0
  5 38  1  0
  6 39  1  0
  9 40  1  0
  9 41  1  0
 10 42  1  0
 13 43  1  0
 13 44  1  0
 14 45  1  0
 18 46  1  0
 19 47  1  0
 21 48  1  0
 24 49  1  0
 25 50  1  0
M  END
>  <smiles>  (47) 
CC(C)(C)CNC(=O)CNC(=O)CNC(=O)c1ccc2cc(Cl)ccc2n1

>  <score_type>  (47) 
oracle

>  <origin>  (47) 
autodockgpu

>  <m_score__min__energy>  (47) 
-8.0299999999999994

>  <m_primary>  (47) 
energy

>  <rmsd>  (47) 
2.2597727640473684

>  <m_score__min__rmsd>  (47) 
2.2597727640473684

>  <meeko>  (47) 
{"free_energy": -6.48, "intermolecular_energy": -8.57, "internal_energy": -2.64, "cluster_size": 39, "cluster_id": 1, "rank_in_cluster": 37}

>  <energy>  (47) 
-6.45

>  <cluster_rmsd>  (47) 
1.69

>  <cluster>  (47) 
3

$$$$

     RDKit          3D

 50 51  0  0  0  0  0  0  0  0999 V2000
  141.5280   80.8930  223.5030 C   0  0  0  0  0  0  0  0  0  0  0  0
  141.1240   79.5140  222.9630 C   0  0  0  0  0  0  0  0  0  0  0  0
  141.8010   78.5280  223.9540 C   0  0  0  0  0  0  0  0  0  0  0  0
  141.8070   79.2950  221.6640 C   0  0  0  0  0  0  0  0  0  0  0  0
  139.6450   79.3280  223.0240 C   0  0  0  0  0  0  0  0  0  0  0  0
  139.0950   78.1250  222.5050 N   0  0  0  0  0  0  0  0  0  0  0  0
  137.7700   77.6540  222.5970 C   0  0  0  0  0  0  0  0  0  0  0  0
  136.8420   78.2680  223.1710 O   0  0  0  0  0  0  0  0  0  0  0  0
  137.4170   76.3440  221.9830 C   0  0  0  0  0  0  0  0  0  0  0  0
  138.4620   75.3860  222.0440 N   0  0  0  0  0  0  0  0  0  0  0  0
  139.5110   75.4150  221.1200 C   0  0  0  0  0  0  0  0  0  0  0  0
  139.4750   76.3430  220.2380 O   0  0  0  0  0  0  0  0  0  0  0  0
  140.6520   74.4970  221.0540 C   0  0  0  0  0  0  0  0  0  0  0  0
  140.7090   73.4710  222.0390 N   0  0  0  0  0  0  0  0  0  0  0  0
  139.6090   72.6450  222.3220 C   0  0  0  0  0  0  0  0  0  0  0  0
  138.4880   72.7250  221.7390 O   0  0  0  0  0  0  0  0  0  0  0  0
  139.7460   71.6060  223.3630 C   0  0  0  0  0  0  0  0  0  0  0  0
  139.3580   70.3050  223.1520 C   0  0  0  0  0  0  0  0  0  0  0  0
  139.4980   69.3390  224.1540 C   0  0  0  0  0  0  0  0  0  0  0  0
  140.0350   69.7030  225.3690 C   0  0  0  0  0  0  0  0  0  0  0  0
  140.2160   68.8360  226.4180 C   0  0  0  0  0  0  0  0  0  0  0  0
  140.7590   69.2400  227.6220 C   0  0  0  0  0  0  0  0  0  0  0  0
  140.9910   68.1350  228.9650 Cl  0  0  0  0  0  0  0  0  0  0  0  0
  141.1490   70.5660  227.8240 C   0  0  0  0  0  0  0  0  0  0  0  0
  140.9610   71.4180  226.7670 C   0  0  0  0  0  0  0  0  0  0  0  0
  140.4230   71.0220  225.5680 C   0  0  0  0  0  0  0  0  0  0  0  0
  140.2630   71.9050  224.5670 N   0  0  0  0  0  0  0  0  0  0  0  0
  141.5219   80.8723  224.6028 H   0  0  0  0  0  0  0  0  0  0  0  0
  142.5377   81.1449  223.1466 H   0  0  0  0  0  0  0  0  0  0  0  0
  140.8139   81.6500  223.1466 H   0  0  0  0  0  0  0  0  0  0  0  0
  141.5863   78.8407  224.9865 H   0  0  0  0  0  0  0  0  0  0  0  0
  141.4077   77.5141  223.7886 H   0  0  0  0  0  0  0  0  0  0  0  0
  142.8885   78.5309  223.7886 H   0  0  0  0  0  0  0  0  0  0  0  0
  142.8403   78.9637  221.8443 H   0  0  0  0  0  0  0  0  0  0  0  0
  141.2693   78.5242  221.0924 H   0  0  0  0  0  0  0  0  0  0  0  0
  141.8177   80.2347  221.0924 H   0  0  0  0  0  0  0  0  0  0  0  0
  139.3525   79.3896  224.0826 H   0  0  0  0  0  0  0  0  0  0  0  0
  139.2454   80.1146  222.3670 H   0  0  0  0  0  0  0  0  0  0  0  0
  139.7640   77.4790  221.9720 H   0  0  0  0  0  0  0  0  0  0  0  0
  136.5418   75.9375  222.5110 H   0  0  0  0  0  0  0  0  0  0  0  0
  137.2145   76.5319  220.9182 H   0  0  0  0  0  0  0  0  0  0  0  0
  138.4600   74.6580  222.7810 H   0  0  0  0  0  0  0  0  0  0  0  0
  140.6308   74.0104  220.0677 H   0  0  0  0  0  0  0  0  0  0  0  0
  141.5365   75.1239  221.2404 H   0  0  0  0  0  0  0  0  0  0  0  0
  141.6050   73.3100  222.5890 H   0  0  0  0  0  0  0  0  0  0  0  0
  138.9305   70.0185  222.1798 H   0  0  0  0  0  0  0  0  0  0  0  0
  139.1829   68.3006  223.9737 H   0  0  0  0  0  0  0  0  0  0  0  0
  139.9185   67.7841  226.2955 H   0  0  0  0  0  0  0  0  0  0  0  0
  141.5819   70.9066  228.7761 H   0  0  0  0  0  0  0  0  0  0  0  0
  141.2558   72.4711  226.8854 H   0  0  0  0  0  0  0  0  0  0  0  0
  1  2  1  0
  2  3  1  0
  2  4  1  0
  2  5  1  0
  5  6  1  0
  6  7  1  0
  7  8  2  0
  7  9  1  0
  9 10  1  0
 10 11  1  0
 11 12  2  0
 11 13  1  0
 13 14  1  0
 14 15  1  0
 15 16  2  0
 15 17  1  0
 17 18  2  0
 18 19  1  0
 19 20  2  0
 20 21  1  0
 21 22  2  0
 22 23  1  0
 22 24  1  0
 24 25  2  0
 25 26  1  0
 26 27  2  0
 27 17  1  0
 26 20  1  0
  1 28  1  0
  1 29  1  0
  1 30  1  0
  3 31  1  0
  3 32  1  0
  3 33  1  0
  4 34  1  0
  4 35  1  0
  4 36  1  0
  5 37  1  0
  5 38  1  0
  6 39  1  0
  9 40  1  0
  9 41  1  0
 10 42  1  0
 13 43  1  0
 13 44  1  0
 14 45  1  0
 18 46  1  0
 19 47  1  0
 21 48  1  0
 24 49  1  0
 25 50  1  0
M  END
>  <smiles>  (48) 
CC(C)(C)CNC(=O)CNC(=O)CNC(=O)c1ccc2cc(Cl)ccc2n1

>  <score_type>  (48) 
oracle

>  <origin>  (48) 
autodockgpu

>  <m_score__min__energy>  (48) 
-8.0299999999999994

>  <m_primary>  (48) 
energy

>  <rmsd>  (48) 
2.393553765777058

>  <m_score__min__rmsd>  (48) 
2.393553765777058

>  <meeko>  (48) 
{"free_energy": -7.06, "intermolecular_energy": -9.15, "internal_energy": -2.56, "cluster_size": 39, "cluster_id": 1, "rank_in_cluster": 28}

>  <energy>  (48) 
-6.56

>  <cluster_rmsd>  (48) 
0.0

>  <cluster>  (48) 
4

$$$$

     RDKit          3D

 50 51  0  0  0  0  0  0  0  0999 V2000
  140.2760   80.3640  223.3270 C   0  0  0  0  0  0  0  0  0  0  0  0
  141.7520   79.9660  223.1940 C   0  0  0  0  0  0  0  0  0  0  0  0
  141.8010   78.5540  223.8400 C   0  0  0  0  0  0  0  0  0  0  0  0
  142.5600   80.8340  224.0870 C   0  0  0  0  0  0  0  0  0  0  0  0
  142.1520   79.8610  221.7600 C   0  0  0  0  0  0  0  0  0  0  0  0
  142.1070   78.5820  221.1410 N   0  0  0  0  0  0  0  0  0  0  0  0
  141.8240   78.2680  219.7970 C   0  0  0  0  0  0  0  0  0  0  0  0
  141.5680   79.1170  218.9130 O   0  0  0  0  0  0  0  0  0  0  0  0
  141.8200   76.8420  219.3670 C   0  0  0  0  0  0  0  0  0  0  0  0
  140.6050   76.1660  219.6480 N   0  0  0  0  0  0  0  0  0  0  0  0
  140.3550   75.6500  220.9240 C   0  0  0  0  0  0  0  0  0  0  0  0
  141.2680   75.8290  221.8050 O   0  0  0  0  0  0  0  0  0  0  0  0
  139.1570   74.9290  221.3630 C   0  0  0  0  0  0  0  0  0  0  0  0
  139.3440   73.9020  222.3300 N   0  0  0  0  0  0  0  0  0  0  0  0
  139.2530   72.5390  222.0000 C   0  0  0  0  0  0  0  0  0  0  0  0
  139.0080   72.1010  220.8390 O   0  0  0  0  0  0  0  0  0  0  0  0
  139.4540   71.5340  223.0630 C   0  0  0  0  0  0  0  0  0  0  0  0
  139.0940   70.2180  222.9000 C   0  0  0  0  0  0  0  0  0  0  0  0
  139.2940   69.2830  223.9220 C   0  0  0  0  0  0  0  0  0  0  0  0
  139.8620   69.6940  225.1080 C   0  0  0  0  0  0  0  0  0  0  0  0
  140.1030   68.8610  226.1730 C   0  0  0  0  0  0  0  0  0  0  0  0
  140.6750   69.3110  227.3460 C   0  0  0  0  0  0  0  0  0  0  0  0
  140.9830   68.2510  228.7080 Cl  0  0  0  0  0  0  0  0  0  0  0  0
  141.0360   70.6530  227.4980 C   0  0  0  0  0  0  0  0  0  0  0  0
  140.7900   71.4700  226.4270 C   0  0  0  0  0  0  0  0  0  0  0  0
  140.2220   71.0280  225.2580 C   0  0  0  0  0  0  0  0  0  0  0  0
  140.0040   71.8790  224.2400 N   0  0  0  0  0  0  0  0  0  0  0  0
  140.0101   80.4357  224.3920 H   0  0  0  0  0  0  0  0  0  0  0  0
  140.1137   81.3380  222.8422 H   0  0  0  0  0  0  0  0  0  0  0  0
  139.6461   79.6036  222.8422 H   0  0  0  0  0  0  0  0  0  0  0  0
  141.7976   78.6517  224.9356 H   0  0  0  0  0  0  0  0  0  0  0  0
  140.9224   77.9741  223.5209 H   0  0  0  0  0  0  0  0  0  0  0  0
  142.7176   78.0364  223.5209 H   0  0  0  0  0  0  0  0  0  0  0  0
  142.3345   80.5918  225.1360 H   0  0  0  0  0  0  0  0  0  0  0  0
  143.6295   80.6648  223.8933 H   0  0  0  0  0  0  0  0  0  0  0  0
  142.3147   81.8887  223.8933 H   0  0  0  0  0  0  0  0  0  0  0  0
  141.4873   80.5241  221.1868 H   0  0  0  0  0  0  0  0  0  0  0  0
  143.2190   80.1284  221.7549 H   0  0  0  0  0  0  0  0  0  0  0  0
  142.3130   77.7350  221.7650 H   0  0  0  0  0  0  0  0  0  0  0  0
  141.9947   76.8059  218.2816 H   0  0  0  0  0  0  0  0  0  0  0  0
  142.6112   76.3320  219.9361 H   0  0  0  0  0  0  0  0  0  0  0  0
  139.8880   76.0520  218.9100 H   0  0  0  0  0  0  0  0  0  0  0  0
  138.4629   75.6670  221.7915 H   0  0  0  0  0  0  0  0  0  0  0  0
  138.7859   74.4140  220.4646 H   0  0  0  0  0  0  0  0  0  0  0  0
  139.5610   74.1540  223.3400 H   0  0  0  0  0  0  0  0  0  0  0  0
  138.6414   69.8942  221.9511 H   0  0  0  0  0  0  0  0  0  0  0  0
  139.0011   68.2323  223.7800 H   0  0  0  0  0  0  0  0  0  0  0  0
  139.8308   67.7986  226.0884 H   0  0  0  0  0  0  0  0  0  0  0  0
  141.4917   71.0311  228.4251 H   0  0  0  0  0  0  0  0  0  0  0  0
  141.0609   72.5331  226.5073 H   0  0  0  0  0  0  0  0  0  0  0  0
  1  2  1  0
  2  3  1  0
  2  4  1  0
  2  5  1  0
  5  6  1  0
  6  7  1  0
  7  8  2  0
  7  9  1  0
  9 10  1  0
 10 11  1  0
 11 12  2  0
 11 13  1  0
 13 14  1  0
 14 15  1  0
 15 16  2  0
 15 17  1  0
 17 18  2  0
 18 19  1  0
 19 20  2  0
 20 21  1  0
 21 22  2  0
 22 23  1  0
 22 24  1  0
 24 25  2  0
 25 26  1  0
 26 27  2  0
 27 17  1  0
 26 20  1  0
  1 28  1  0
  1 29  1  0
  1 30  1  0
  3 31  1  0
  3 32  1  0
  3 33  1  0
  4 34  1  0
  4 35  1  0
  4 36  1  0
  5 37  1  0
  5 38  1  0
  6 39  1  0
  9 40  1  0
  9 41  1  0
 10 42  1  0
 13 43  1  0
 13 44  1  0
 14 45  1  0
 18 46  1  0
 19 47  1  0
 21 48  1  0
 24 49  1  0
 25 50  1  0
M  END
>  <smiles>  (49) 
CC(C)(C)CNC(=O)CNC(=O)CNC(=O)c1ccc2cc(Cl)ccc2n1

>  <score_type>  (49) 
oracle

>  <origin>  (49) 
autodockgpu

>  <m_score__min__energy>  (49) 
-8.0299999999999994

>  <m_primary>  (49) 
energy

>  <rmsd>  (49) 
1.763136297414216

>  <m_score__min__rmsd>  (49) 
1.763136297414216

>  <meeko>  (49) 
{"free_energy": -7.88, "intermolecular_energy": -9.97, "internal_energy": -2.22, "cluster_size": 39, "cluster_id": 1, "rank_in_cluster": 4}

>  <energy>  (49) 
-6.48

>  <cluster_rmsd>  (49) 
0.0

>  <cluster>  (49) 
5

$$$$

     RDKit          3D

 50 51  0  0  0  0  0  0  0  0999 V2000
  142.0580   78.5090  219.3070 C   0  0  0  0  0  0  0  0  0  0  0  0
  141.2150   78.0550  220.5070 C   0  0  0  0  0  0  0  0  0  0  0  0
  141.8320   78.8420  221.6950 C   0  0  0  0  0  0  0  0  0  0  0  0
  141.5140   76.6280  220.7830 C   0  0  0  0  0  0  0  0  0  0  0  0
  139.7880   78.4590  220.3420 C   0  0  0  0  0  0  0  0  0  0  0  0
  138.7790   77.5610  220.7810 N   0  0  0  0  0  0  0  0  0  0  0  0
  138.2990   77.3520  222.0890 C   0  0  0  0  0  0  0  0  0  0  0  0
  138.7090   77.9690  223.0990 O   0  0  0  0  0  0  0  0  0  0  0  0
  137.2330   76.3380  222.3220 C   0  0  0  0  0  0  0  0  0  0  0  0
  137.6480   75.0060  222.0650 N   0  0  0  0  0  0  0  0  0  0  0  0
  137.7230   74.5220  220.7550 C   0  0  0  0  0  0  0  0  0  0  0  0
  137.4070   75.3400  219.8220 O   0  0  0  0  0  0  0  0  0  0  0  0
  138.1290   73.1780  220.3340 C   0  0  0  0  0  0  0  0  0  0  0  0
  138.4130   72.2400  221.3660 N   0  0  0  0  0  0  0  0  0  0  0  0
  139.3110   72.5260  222.4090 C   0  0  0  0  0  0  0  0  0  0  0  0
  139.9350   73.6200  222.5330 O   0  0  0  0  0  0  0  0  0  0  0  0
  139.5580   71.4970  223.4380 C   0  0  0  0  0  0  0  0  0  0  0  0
  139.2970   70.1660  223.2170 C   0  0  0  0  0  0  0  0  0  0  0  0
  139.5390   69.2090  224.2090 C   0  0  0  0  0  0  0  0  0  0  0  0
  140.0470   69.6130  225.4240 C   0  0  0  0  0  0  0  0  0  0  0  0
  140.3200   68.7570  226.4630 C   0  0  0  0  0  0  0  0  0  0  0  0
  140.8290   69.2010  227.6670 C   0  0  0  0  0  0  0  0  0  0  0  0
  141.1790   68.1130  228.9970 Cl  0  0  0  0  0  0  0  0  0  0  0  0
  141.0890   70.5580  227.8800 C   0  0  0  0  0  0  0  0  0  0  0  0
  140.8110   71.3970  226.8330 C   0  0  0  0  0  0  0  0  0  0  0  0
  140.3060   70.9610  225.6330 C   0  0  0  0  0  0  0  0  0  0  0  0
  140.0520   71.8340  224.6420 N   0  0  0  0  0  0  0  0  0  0  0  0
  142.9731   79.0018  219.6672 H   0  0  0  0  0  0  0  0  0  0  0  0
  142.3283   77.6345  218.6970 H   0  0  0  0  0  0  0  0  0  0  0  0
  141.4766   79.2160  218.6970 H   0  0  0  0  0  0  0  0  0  0  0  0
  141.4882   78.4034  222.6434 H   0  0  0  0  0  0  0  0  0  0  0  0
  142.9293   78.7859  221.6416 H   0  0  0  0  0  0  0  0  0  0  0  0
  141.5156   79.8942  221.6416 H   0  0  0  0  0  0  0  0  0  0  0  0
  141.5483   76.4642  221.8702 H   0  0  0  0  0  0  0  0  0  0  0  0
  140.7286   75.9968  220.3417 H   0  0  0  0  0  0  0  0  0  0  0  0
  142.4867   76.3652  220.3417 H   0  0  0  0  0  0  0  0  0  0  0  0
  139.6498   79.3998  220.8950 H   0  0  0  0  0  0  0  0  0  0  0  0
  139.6460   78.5154  219.2527 H   0  0  0  0  0  0  0  0  0  0  0  0
  138.3130   76.9530  220.0310 H   0  0  0  0  0  0  0  0  0  0  0  0
  136.9128   76.4056  223.3722 H   0  0  0  0  0  0  0  0  0  0  0  0
  136.4167   76.5620  221.6195 H   0  0  0  0  0  0  0  0  0  0  0  0
  137.9060   74.3790  222.8490 H   0  0  0  0  0  0  0  0  0  0  0  0
  137.3162   72.7618  219.7207 H   0  0  0  0  0  0  0  0  0  0  0  0
  139.0821   73.3187  219.8031 H   0  0  0  0  0  0  0  0  0  0  0  0
  137.9420   71.2870  221.3650 H   0  0  0  0  0  0  0  0  0  0  0  0
  138.8915   69.8479  222.2452 H   0  0  0  0  0  0  0  0  0  0  0  0
  139.3260   68.1464  224.0207 H   0  0  0  0  0  0  0  0  0  0  0  0
  140.1267   67.6822  226.3313 H   0  0  0  0  0  0  0  0  0  0  0  0
  141.4933   70.9305  228.8328 H   0  0  0  0  0  0  0  0  0  0  0  0
  141.0018   72.4728  226.9601 H   0  0  0  0  0  0  0  0  0  0  0  0
  1  2  1  0
  2  3  1  0
  2  4  1  0
  2  5  1  0
  5  6  1  0
  6  7  1  0
  7  8  2  0
  7  9  1  0
  9 10  1  0
 10 11  1  0
 11 12  2  0
 11 13  1  0
 13 14  1  0
 14 15  1  0
 15 16  2  0
 15 17  1  0
 17 18  2  0
 18 19  1  0
 19 20  2  0
 20 21  1  0
 21 22  2  0
 22 23  1  0
 22 24  1  0
 24 25  2  0
 25 26  1  0
 26 27  2  0
 27 17  1  0
 26 20  1  0
  1 28  1  0
  1 29  1  0
  1 30  1  0
  3 31  1  0
  3 32  1  0
  3 33  1  0
  4 34  1  0
  4 35  1  0
  4 36  1  0
  5 37  1  0
  5 38  1  0
  6 39  1  0
  9 40  1  0
  9 41  1  0
 10 42  1  0
 13 43  1  0
 13 44  1  0
 14 45  1  0
 18 46  1  0
 19 47  1  0
 21 48  1  0
 24 49  1  0
 25 50  1  0
M  END
>  <smiles>  (50) 
CC(C)(C)CNC(=O)CNC(=O)CNC(=O)c1ccc2cc(Cl)ccc2n1

>  <score_type>  (50) 
oracle

>  <origin>  (50) 
autodockgpu

>  <m_score__min__energy>  (50) 
-8.0299999999999994

>  <m_primary>  (50) 
energy

>  <rmsd>  (50) 
2.3400085316070656

>  <m_score__min__rmsd>  (50) 
2.3400085316070656

>  <meeko>  (50) 
{"free_energy": -6.44, "intermolecular_energy": -8.53, "internal_energy": -2.65, "cluster_size": 39, "cluster_id": 1, "rank_in_cluster": 38}

>  <energy>  (50) 
-6.04

>  <cluster_rmsd>  (50) 
0.0

>  <cluster>  (50) 
6

$$$$
