
     RDKit          3D

 52 55  0  0  0  0  0  0  0  0999 V2000
  140.9400   73.1210  222.3480 O   0  0  0  0  0  0  0  0  0  0  0  0
  140.4300   73.9540  221.5550 C   0  0  0  0  0  0  0  0  0  0  0  0
  140.2310   73.5150  220.2150 N   0  0  0  0  0  0  0  0  0  0  0  0
  140.6220   72.1750  219.8720 C   0  0  0  0  0  0  0  0  0  0  0  0
  141.7090   72.1470  218.8600 C   0  0  0  0  0  0  0  0  0  0  0  0
  141.5910   71.6170  217.7270 O   0  0  0  0  0  0  0  0  0  0  0  0
  142.9520   72.7530  219.1910 N   0  0  0  0  0  0  0  0  0  0  0  0
  144.2280   72.1380  218.8810 C   0  0  0  0  0  0  0  0  0  0  0  0
  145.2800   73.0190  219.5190 C   0  0  2  0  0  0  0  0  0  0  0  0
  146.3260   72.2690  220.0520 O   0  0  0  0  0  0  0  0  0  0  0  0
  144.4920   73.7350  220.5790 C   0  0  0  0  0  0  0  0  0  0  0  0
  143.2030   74.0160  219.8580 C   0  0  1  0  0  0  0  0  0  0  0  0
  143.3200   75.0820  218.8090 C   0  0  0  0  0  0  0  0  0  0  0  0
  142.3330   76.1760  218.9830 C   0  0  0  0  0  0  0  0  0  0  0  0
  142.6210   77.3670  219.6140 C   0  0  0  0  0  0  0  0  0  0  0  0
  141.6280   78.3450  219.7330 C   0  0  0  0  0  0  0  0  0  0  0  0
  140.3580   78.0840  219.2050 C   0  0  0  0  0  0  0  0  0  0  0  0
  139.0690   79.2790  219.3270 Cl  0  0  0  0  0  0  0  0  0  0  0  0
  140.0660   76.8910  218.5730 C   0  0  0  0  0  0  0  0  0  0  0  0
  141.0580   75.9390  218.4640 C   0  0  0  0  0  0  0  0  0  0  0  0
  140.0520   75.3040  221.9610 C   0  0  0  0  0  0  0  0  0  0  0  0
  138.6910   75.6160  221.9270 C   0  0  0  0  0  0  0  0  0  0  0  0
  138.2890   76.8820  222.3030 C   0  0  0  0  0  0  0  0  0  0  0  0
  139.2240   77.8210  222.7040 C   0  0  0  0  0  0  0  0  0  0  0  0
  138.7660   79.0720  223.0700 C   0  0  0  0  0  0  0  0  0  0  0  0
  139.7210   80.0020  223.4700 C   0  0  0  0  0  0  0  0  0  0  0  0
  139.3210   81.2360  223.8350 F   0  0  0  0  0  0  0  0  0  0  0  0
  141.0560   79.6480  223.4870 C   0  0  0  0  0  0  0  0  0  0  0  0
  141.5090   78.3960  223.1220 C   0  0  0  0  0  0  0  0  0  0  0  0
  140.5580   77.4710  222.7220 C   0  0  0  0  0  0  0  0  0  0  0  0
  140.9700   76.2230  222.3540 N   0  0  0  0  0  0  0  0  0  0  0  0
  139.8070   74.2030  219.5530 H   0  0  0  0  0  0  0  0  0  0  0  0
  140.9720   71.6648  220.7815 H   0  0  0  0  0  0  0  0  0  0  0  0
  139.7462   71.6690  219.4396 H   0  0  0  0  0  0  0  0  0  0  0  0
  144.2747   71.1220  219.2999 H   0  0  0  0  0  0  0  0  0  0  0  0
  144.3801   72.0497  217.7952 H   0  0  0  0  0  0  0  0  0  0  0  0
  145.7765   73.7010  218.8131 H   0  0  0  0  0  0  0  0  0  0  0  0
  146.0400   71.8390  220.9060 H   0  0  0  0  0  0  0  0  0  0  0  0
  144.3288   73.0953  221.4589 H   0  0  0  0  0  0  0  0  0  0  0  0
  144.9881   74.6329  220.9760 H   0  0  0  0  0  0  0  0  0  0  0  0
  142.4257   74.3701  220.5511 H   0  0  0  0  0  0  0  0  0  0  0  0
  144.3316   75.5114  218.8567 H   0  0  0  0  0  0  0  0  0  0  0  0
  143.1204   74.6098  217.8358 H   0  0  0  0  0  0  0  0  0  0  0  0
  143.6265   77.5475  220.0219 H   0  0  0  0  0  0  0  0  0  0  0  0
  141.8411   79.3017  220.2323 H   0  0  0  0  0  0  0  0  0  0  0  0
  139.0619   76.7039  218.1646 H   0  0  0  0  0  0  0  0  0  0  0  0
  140.8430   74.9835  217.9633 H   0  0  0  0  0  0  0  0  0  0  0  0
  137.9526   74.8663  221.6064 H   0  0  0  0  0  0  0  0  0  0  0  0
  137.2213   77.1458  222.2839 H   0  0  0  0  0  0  0  0  0  0  0  0
  137.6950   79.3217  223.0463 H   0  0  0  0  0  0  0  0  0  0  0  0
  141.7932   80.3993  223.8065 H   0  0  0  0  0  0  0  0  0  0  0  0
  142.5793   78.1435  223.1476 H   0  0  0  0  0  0  0  0  0  0  0  0
  1  2  2  0
  2  3  1  0
  3  4  1  0
  4  5  1  0
  5  6  2  0
  5  7  1  0
  7  8  1  0
  8  9  1  0
  9 10  1  0
  9 11  1  0
 11 12  1  0
 12 13  1  0
 13 14  1  0
 14 15  2  0
 15 16  1  0
 16 17  2  0
 17 18  1  0
 17 19  1  0
 19 20  2  0
  2 21  1  0
 21 22  2  0
 22 23  1  0
 23 24  2  0
 24 25  1  0
 25 26  2  0
 26 27  1  0
 26 28  1  0
 28 29  2  0
 29 30  1  0
 30 31  2  0
 12  7  1  0
 20 14  1  0
 31 21  1  0
 30 24  1  0
  3 32  1  0
  4 33  1  0
  4 34  1  0
  8 35  1  0
  8 36  1  0
  9 37  1  6
 10 38  1  0
 11 39  1  0
 11 40  1  0
 12 41  1  1
 13 42  1  0
 13 43  1  0
 15 44  1  0
 16 45  1  0
 19 46  1  0
 20 47  1  0
 22 48  1  0
 23 49  1  0
 25 50  1  0
 28 51  1  0
 29 52  1  0
M  END
>  <smiles>  (1) 
O=C(NCC(=O)N1C[C@H](O)C[C@H]1Cc1ccc(Cl)cc1)c1ccc2cc(F)ccc2n1

>  <score_type>  (1) 
oracle

>  <origin>  (1) 
autodockgpu

>  <m_score__min__energy>  (1) 
-9.0399999999999991

>  <m_primary>  (1) 
energy

>  <rmsd>  (1) 
7.092114705966132

>  <m_score__min__rmsd>  (1) 
7.092114705966132

>  <meeko>  (1) 
{"free_energy": -6.16, "intermolecular_energy": -8.25, "internal_energy": -3.23, "cluster_size": 7, "cluster_id": 8, "rank_in_cluster": 7}

>  <energy>  (1) 
-9.04

>  <cluster_rmsd>  (1) 
0.0

>  <cluster>  (1) 
1

$$$$

     RDKit          3D

 52 55  0  0  0  0  0  0  0  0999 V2000
  139.9080   73.5120  222.5210 O   0  0  0  0  0  0  0  0  0  0  0  0
  140.1540   72.2800  222.4710 C   0  0  0  0  0  0  0  0  0  0  0  0
  140.4540   71.7430  221.1860 N   0  0  0  0  0  0  0  0  0  0  0  0
  140.4520   72.6340  220.0590 C   0  0  0  0  0  0  0  0  0  0  0  0
  141.5760   72.3640  219.1250 C   0  0  0  0  0  0  0  0  0  0  0  0
  141.4500   71.7160  218.0560 O   0  0  0  0  0  0  0  0  0  0  0  0
  142.8630   72.8660  219.4590 N   0  0  0  0  0  0  0  0  0  0  0  0
  144.0730   72.4120  218.8010 C   0  0  0  0  0  0  0  0  0  0  0  0
  145.2190   73.0730  219.5370 C   0  0  2  0  0  0  0  0  0  0  0  0
  146.3130   72.2200  219.6590 O   0  0  0  0  0  0  0  0  0  0  0  0
  144.5960   73.3990  220.8650 C   0  0  0  0  0  0  0  0  0  0  0  0
  143.2270   73.8600  220.4510 C   0  0  1  0  0  0  0  0  0  0  0  0
  143.2200   75.2050  219.7860 C   0  0  0  0  0  0  0  0  0  0  0  0
  142.2910   76.1650  220.4320 C   0  0  0  0  0  0  0  0  0  0  0  0
  142.2230   77.5000  220.0960 C   0  0  0  0  0  0  0  0  0  0  0  0
  141.3160   78.3340  220.7580 C   0  0  0  0  0  0  0  0  0  0  0  0
  140.4970   77.7870  221.7520 C   0  0  0  0  0  0  0  0  0  0  0  0
  139.3370   78.7910  222.6190 Cl  0  0  0  0  0  0  0  0  0  0  0  0
  140.5640   76.4500  222.0920 C   0  0  0  0  0  0  0  0  0  0  0  0
  141.4630   75.6410  221.4280 C   0  0  0  0  0  0  0  0  0  0  0  0
  140.1400   71.4220  223.6520 C   0  0  0  0  0  0  0  0  0  0  0  0
  139.5820   70.1500  223.5030 C   0  0  0  0  0  0  0  0  0  0  0  0
  139.5480   69.3070  224.5940 C   0  0  0  0  0  0  0  0  0  0  0  0
  140.0590   69.7200  225.8130 C   0  0  0  0  0  0  0  0  0  0  0  0
  139.9990   68.8350  226.8720 C   0  0  0  0  0  0  0  0  0  0  0  0
  140.5180   69.2680  228.0880 C   0  0  0  0  0  0  0  0  0  0  0  0
  140.4800   68.4390  229.1490 F   0  0  0  0  0  0  0  0  0  0  0  0
  141.0600   70.5350  228.1880 C   0  0  0  0  0  0  0  0  0  0  0  0
  141.1180   71.4160  227.1270 C   0  0  0  0  0  0  0  0  0  0  0  0
  140.6010   70.9840  225.9170 C   0  0  0  0  0  0  0  0  0  0  0  0
  140.6410   71.8300  224.8460 N   0  0  0  0  0  0  0  0  0  0  0  0
  140.6580   70.7200  221.1400 H   0  0  0  0  0  0  0  0  0  0  0  0
  139.5034   72.5143  219.5150 H   0  0  0  0  0  0  0  0  0  0  0  0
  140.5698   73.6591  220.4401 H   0  0  0  0  0  0  0  0  0  0  0  0
  144.1567   71.3172  218.8671 H   0  0  0  0  0  0  0  0  0  0  0  0
  144.0744   72.6744  217.7328 H   0  0  0  0  0  0  0  0  0  0  0  0
  145.6281   73.9551  219.0227 H   0  0  0  0  0  0  0  0  0  0  0  0
  146.2310   71.6720  220.4890 H   0  0  0  0  0  0  0  0  0  0  0  0
  144.5420   72.5110  221.5119 H   0  0  0  0  0  0  0  0  0  0  0  0
  145.1584   74.1386  221.4538 H   0  0  0  0  0  0  0  0  0  0  0  0
  142.5587   73.9574  221.3192 H   0  0  0  0  0  0  0  0  0  0  0  0
  144.2375   75.6210  219.8253 H   0  0  0  0  0  0  0  0  0  0  0  0
  142.8764   75.0593  218.7513 H   0  0  0  0  0  0  0  0  0  0  0  0
  142.8782   77.9072  219.3118 H   0  0  0  0  0  0  0  0  0  0  0  0
  141.2477   79.4015  220.5016 H   0  0  0  0  0  0  0  0  0  0  0  0
  139.9130   76.0380  222.8772 H   0  0  0  0  0  0  0  0  0  0  0  0
  141.5285   74.5735  221.6851 H   0  0  0  0  0  0  0  0  0  0  0  0
  139.1769   69.8265  222.5328 H   0  0  0  0  0  0  0  0  0  0  0  0
  139.1128   68.3016  224.4954 H   0  0  0  0  0  0  0  0  0  0  0  0
  139.5604   67.8326  226.7588 H   0  0  0  0  0  0  0  0  0  0  0  0
  141.4644   70.8568  229.1590 H   0  0  0  0  0  0  0  0  0  0  0  0
  141.5563   72.4188  227.2378 H   0  0  0  0  0  0  0  0  0  0  0  0
  1  2  2  0
  2  3  1  0
  3  4  1  0
  4  5  1  0
  5  6  2  0
  5  7  1  0
  7  8  1  0
  8  9  1  0
  9 10  1  0
  9 11  1  0
 11 12  1  0
 12 13  1  0
 13 14  1  0
 14 15  2  0
 15 16  1  0
 16 17  2  0
 17 18  1  0
 17 19  1  0
 19 20  2  0
  2 21  1  0
 21 22  2  0
 22 23  1  0
 23 24  2  0
 24 25  1  0
 25 26  2  0
 26 27  1  0
 26 28  1  0
 28 29  2  0
 29 30  1  0
 30 31  2  0
 12  7  1  0
 20 14  1  0
 31 21  1  0
 30 24  1  0
  3 32  1  0
  4 33  1  0
  4 34  1  0
  8 35  1  0
  8 36  1  0
  9 37  1  6
 10 38  1  0
 11 39  1  0
 11 40  1  0
 12 41  1  1
 13 42  1  0
 13 43  1  0
 15 44  1  0
 16 45  1  0
 19 46  1  0
 20 47  1  0
 22 48  1  0
 23 49  1  0
 25 50  1  0
 28 51  1  0
 29 52  1  0
M  END
>  <smiles>  (2) 
O=C(NCC(=O)N1C[C@H](O)C[C@H]1Cc1ccc(Cl)cc1)c1ccc2cc(F)ccc2n1

>  <score_type>  (2) 
oracle

>  <origin>  (2) 
autodockgpu

>  <m_score__min__energy>  (2) 
-9.0399999999999991

>  <m_primary>  (2) 
energy

>  <rmsd>  (2) 
3.5086136349423644

>  <m_score__min__rmsd>  (2) 
3.5086136349423644

>  <meeko>  (2) 
{"free_energy": -8.76, "intermolecular_energy": -10.85, "internal_energy": -1.6, "cluster_size": 23, "cluster_id": 1, "rank_in_cluster": 12}

>  <energy>  (2) 
-9.03

>  <cluster_rmsd>  (2) 
0.08

>  <cluster>  (2) 
1

$$$$

     RDKit          3D

 52 55  0  0  0  0  0  0  0  0999 V2000
  140.3070   75.7270  222.7050 O   0  0  0  0  0  0  0  0  0  0  0  0
  140.5270   76.4750  221.7180 C   0  0  0  0  0  0  0  0  0  0  0  0
  140.5520   75.8480  220.4390 N   0  0  0  0  0  0  0  0  0  0  0  0
  140.3280   74.4310  220.3710 C   0  0  0  0  0  0  0  0  0  0  0  0
  141.3810   73.6580  221.0780 C   0  0  0  0  0  0  0  0  0  0  0  0
  141.1610   72.9450  222.0890 O   0  0  0  0  0  0  0  0  0  0  0  0
  142.7130   73.7300  220.5850 N   0  0  0  0  0  0  0  0  0  0  0  0
  143.5840   72.5720  220.5150 C   0  0  0  0  0  0  0  0  0  0  0  0
  144.9350   73.0950  220.0790 C   0  0  2  0  0  0  0  0  0  0  0  0
  145.9760   72.4310  220.7230 O   0  0  0  0  0  0  0  0  0  0  0  0
  144.8540   74.5440  220.4660 C   0  0  0  0  0  0  0  0  0  0  0  0
  143.4400   74.8800  220.0830 C   0  0  1  0  0  0  0  0  0  0  0  0
  143.2200   74.9600  218.6010 C   0  0  0  0  0  0  0  0  0  0  0  0
  142.9560   76.3410  218.1290 C   0  0  0  0  0  0  0  0  0  0  0  0
  142.8270   76.6790  216.7980 C   0  0  0  0  0  0  0  0  0  0  0  0
  142.5780   78.0080  216.4430 C   0  0  0  0  0  0  0  0  0  0  0  0
  142.4670   78.9680  217.4550 C   0  0  0  0  0  0  0  0  0  0  0  0
  142.1550   80.6580  217.0660 Cl  0  0  0  0  0  0  0  0  0  0  0  0
  142.5970   78.6340  218.7890 C   0  0  0  0  0  0  0  0  0  0  0  0
  142.8420   77.3170  219.1220 C   0  0  0  0  0  0  0  0  0  0  0  0
  140.7490   77.9120  221.8490 C   0  0  0  0  0  0  0  0  0  0  0  0
  141.3630   78.3520  223.0230 C   0  0  0  0  0  0  0  0  0  0  0  0
  141.5910   79.7030  223.1890 C   0  0  0  0  0  0  0  0  0  0  0  0
  141.2150   80.6000  222.2040 C   0  0  0  0  0  0  0  0  0  0  0  0
  141.4680   81.9410  222.4220 C   0  0  0  0  0  0  0  0  0  0  0  0
  141.0840   82.8270  221.4200 C   0  0  0  0  0  0  0  0  0  0  0  0
  141.3090   84.1450  221.5890 F   0  0  0  0  0  0  0  0  0  0  0  0
  140.4790   82.3460  220.2760 C   0  0  0  0  0  0  0  0  0  0  0  0
  140.2280   81.0050  220.0620 C   0  0  0  0  0  0  0  0  0  0  0  0
  140.6110   80.1230  221.0590 C   0  0  0  0  0  0  0  0  0  0  0  0
  140.3780   78.7900  220.8820 N   0  0  0  0  0  0  0  0  0  0  0  0
  140.7350   76.4650  219.6170 H   0  0  0  0  0  0  0  0  0  0  0  0
  139.3546   74.2045  220.8305 H   0  0  0  0  0  0  0  0  0  0  0  0
  140.3506   74.1378  219.3110 H   0  0  0  0  0  0  0  0  0  0  0  0
  143.6602   72.0904  221.5010 H   0  0  0  0  0  0  0  0  0  0  0  0
  143.1975   71.8177  219.8138 H   0  0  0  0  0  0  0  0  0  0  0  0
  145.1464   72.9442  219.0101 H   0  0  0  0  0  0  0  0  0  0  0  0
  145.6300   71.9410  221.5200 H   0  0  0  0  0  0  0  0  0  0  0  0
  145.0213   74.6815  221.5445 H   0  0  0  0  0  0  0  0  0  0  0  0
  145.6115   75.1792  219.9836 H   0  0  0  0  0  0  0  0  0  0  0  0
  143.1413   75.8624  220.4775 H   0  0  0  0  0  0  0  0  0  0  0  0
  144.1186   74.5812  218.0921 H   0  0  0  0  0  0  0  0  0  0  0  0
  142.3309   74.3562  218.3669 H   0  0  0  0  0  0  0  0  0  0  0  0
  142.9196   75.9069  216.0200 H   0  0  0  0  0  0  0  0  0  0  0  0
  142.4712   78.2942  215.3863 H   0  0  0  0  0  0  0  0  0  0  0  0
  142.5070   79.4026  219.5708 H   0  0  0  0  0  0  0  0  0  0  0  0
  142.9485   77.0333  220.1794 H   0  0  0  0  0  0  0  0  0  0  0  0
  141.6599   77.6345  223.8021 H   0  0  0  0  0  0  0  0  0  0  0  0
  142.0734   80.0684  224.1076 H   0  0  0  0  0  0  0  0  0  0  0  0
  141.9511   82.2921  223.3458 H   0  0  0  0  0  0  0  0  0  0  0  0
  140.1828   83.0651  219.4980 H   0  0  0  0  0  0  0  0  0  0  0  0
  139.7445   80.6523  219.1391 H   0  0  0  0  0  0  0  0  0  0  0  0
  1  2  2  0
  2  3  1  0
  3  4  1  0
  4  5  1  0
  5  6  2  0
  5  7  1  0
  7  8  1  0
  8  9  1  0
  9 10  1  0
  9 11  1  0
 11 12  1  0
 12 13  1  0
 13 14  1  0
 14 15  2  0
 15 16  1  0
 16 17  2  0
 17 18  1  0
 17 19  1  0
 19 20  2  0
  2 21  1  0
 21 22  2  0
 22 23  1  0
 23 24  2  0
 24 25  1  0
 25 26  2  0
 26 27  1  0
 26 28  1  0
 28 29  2  0
 29 30  1  0
 30 31  2  0
 12  7  1  0
 20 14  1  0
 31 21  1  0
 30 24  1  0
  3 32  1  0
  4 33  1  0
  4 34  1  0
  8 35  1  0
  8 36  1  0
  9 37  1  6
 10 38  1  0
 11 39  1  0
 11 40  1  0
 12 41  1  1
 13 42  1  0
 13 43  1  0
 15 44  1  0
 16 45  1  0
 19 46  1  0
 20 47  1  0
 22 48  1  0
 23 49  1  0
 25 50  1  0
 28 51  1  0
 29 52  1  0
M  END
>  <smiles>  (3) 
O=C(NCC(=O)N1C[C@H](O)C[C@H]1Cc1ccc(Cl)cc1)c1ccc2cc(F)ccc2n1

>  <score_type>  (3) 
oracle

>  <origin>  (3) 
autodockgpu

>  <m_score__min__energy>  (3) 
-9.0399999999999991

>  <m_primary>  (3) 
energy

>  <rmsd>  (3) 
8.941076549975342

>  <m_score__min__rmsd>  (3) 
8.941076549975342

>  <meeko>  (3) 
{"free_energy": -6.78, "intermolecular_energy": -8.87, "internal_energy": -2.59, "cluster_size": 7, "cluster_id": 8, "rank_in_cluster": 5}

>  <energy>  (3) 
-9.01

>  <cluster_rmsd>  (3) 
0.25

>  <cluster>  (3) 
1

$$$$

     RDKit          3D

 52 55  0  0  0  0  0  0  0  0999 V2000
  141.2140   72.1010  221.4240 O   0  0  0  0  0  0  0  0  0  0  0  0
  140.4670   72.4120  222.3860 C   0  0  0  0  0  0  0  0  0  0  0  0
  139.7840   73.6580  222.2830 N   0  0  0  0  0  0  0  0  0  0  0  0
  139.9950   74.4550  221.1070 C   0  0  0  0  0  0  0  0  0  0  0  0
  140.7400   75.7060  221.4000 C   0  0  0  0  0  0  0  0  0  0  0  0
  140.6770   76.3120  222.4990 O   0  0  0  0  0  0  0  0  0  0  0  0
  141.5710   76.2490  220.3820 N   0  0  0  0  0  0  0  0  0  0  0  0
  141.6820   77.6740  220.1420 C   0  0  0  0  0  0  0  0  0  0  0  0
  142.5360   77.8210  218.9000 C   0  0  2  0  0  0  0  0  0  0  0  0
  142.0910   78.8630  218.0900 O   0  0  0  0  0  0  0  0  0  0  0  0
  142.3750   76.4780  218.2460 C   0  0  0  0  0  0  0  0  0  0  0  0
  142.4220   75.5570  219.4320 C   0  0  1  0  0  0  0  0  0  0  0  0
  143.7870   75.4260  220.0400 C   0  0  0  0  0  0  0  0  0  0  0  0
  144.3870   74.0850  219.8300 C   0  0  0  0  0  0  0  0  0  0  0  0
  145.5380   73.6600  220.4600 C   0  0  0  0  0  0  0  0  0  0  0  0
  146.0340   72.3780  220.2030 C   0  0  0  0  0  0  0  0  0  0  0  0
  145.3430   71.5550  219.3060 C   0  0  0  0  0  0  0  0  0  0  0  0
  145.9230   69.9310  218.9430 Cl  0  0  0  0  0  0  0  0  0  0  0  0
  144.1910   71.9780  218.6730 C   0  0  0  0  0  0  0  0  0  0  0  0
  143.7150   73.2450  218.9390 C   0  0  0  0  0  0  0  0  0  0  0  0
  140.2910   71.5600  223.5590 C   0  0  0  0  0  0  0  0  0  0  0  0
  139.6590   70.3310  223.3580 C   0  0  0  0  0  0  0  0  0  0  0  0
  139.4720   69.4940  224.4380 C   0  0  0  0  0  0  0  0  0  0  0  0
  139.9050   69.8730  225.6980 C   0  0  0  0  0  0  0  0  0  0  0  0
  139.6920   68.9960  226.7440 C   0  0  0  0  0  0  0  0  0  0  0  0
  140.1350   69.3940  228.0020 C   0  0  0  0  0  0  0  0  0  0  0  0
  139.9480   68.5720  229.0530 F   0  0  0  0  0  0  0  0  0  0  0  0
  140.7540   70.6190  228.1530 C   0  0  0  0  0  0  0  0  0  0  0  0
  140.9650   71.4920  227.1050 C   0  0  0  0  0  0  0  0  0  0  0  0
  140.5240   71.0960  225.8530 C   0  0  0  0  0  0  0  0  0  0  0  0
  140.7160   71.9340  224.7930 N   0  0  0  0  0  0  0  0  0  0  0  0
  139.1620   73.9200  223.0810 H   0  0  0  0  0  0  0  0  0  0  0  0
  140.5686   73.8643  220.3776 H   0  0  0  0  0  0  0  0  0  0  0  0
  139.0086   74.7361  220.7096 H   0  0  0  0  0  0  0  0  0  0  0  0
  140.6870   78.1126  219.9762 H   0  0  0  0  0  0  0  0  0  0  0  0
  142.1278   78.1947  221.0023 H   0  0  0  0  0  0  0  0  0  0  0  0
  143.5850   78.0782  219.1083 H   0  0  0  0  0  0  0  0  0  0  0  0
  141.1490   78.6980  217.8040 H   0  0  0  0  0  0  0  0  0  0  0  0
  141.4138   76.4020  217.7166 H   0  0  0  0  0  0  0  0  0  0  0  0
  143.1332   76.2597  217.4795 H   0  0  0  0  0  0  0  0  0  0  0  0
  142.1240   74.5347  219.1561 H   0  0  0  0  0  0  0  0  0  0  0  0
  144.4468   76.1805  219.5869 H   0  0  0  0  0  0  0  0  0  0  0  0
  143.6805   75.5735  221.1248 H   0  0  0  0  0  0  0  0  0  0  0  0
  146.0629   74.3258  221.1608 H   0  0  0  0  0  0  0  0  0  0  0  0
  146.9505   72.0228  220.6968 H   0  0  0  0  0  0  0  0  0  0  0  0
  143.6629   71.3171  217.9699 H   0  0  0  0  0  0  0  0  0  0  0  0
  142.7976   73.5972  218.4448 H   0  0  0  0  0  0  0  0  0  0  0  0
  139.3162   70.0356  222.3554 H   0  0  0  0  0  0  0  0  0  0  0  0
  138.9771   68.5216  224.2983 H   0  0  0  0  0  0  0  0  0  0  0  0
  139.1948   68.0270  226.5896 H   0  0  0  0  0  0  0  0  0  0  0  0
  141.0953   70.9132  229.1565 H   0  0  0  0  0  0  0  0  0  0  0  0
  141.4623   72.4612  227.2575 H   0  0  0  0  0  0  0  0  0  0  0  0
  1  2  2  0
  2  3  1  0
  3  4  1  0
  4  5  1  0
  5  6  2  0
  5  7  1  0
  7  8  1  0
  8  9  1  0
  9 10  1  0
  9 11  1  0
 11 12  1  0
 12 13  1  0
 13 14  1  0
 14 15  2  0
 15 16  1  0
 16 17  2  0
 17 18  1  0
 17 19  1  0
 19 20  2  0
  2 21  1  0
 21 22  2  0
 22 23  1  0
 23 24  2  0
 24 25  1  0
 25 26  2  0
 26 27  1  0
 26 28  1  0
 28 29  2  0
 29 30  1  0
 30 31  2  0
 12  7  1  0
 20 14  1  0
 31 21  1  0
 30 24  1  0
  3 32  1  0
  4 33  1  0
  4 34  1  0
  8 35  1  0
  8 36  1  0
  9 37  1  1
 10 38  1  0
 11 39  1  0
 11 40  1  0
 12 41  1  6
 13 42  1  0
 13 43  1  0
 15 44  1  0
 16 45  1  0
 19 46  1  0
 20 47  1  0
 22 48  1  0
 23 49  1  0
 25 50  1  0
 28 51  1  0
 29 52  1  0
M  END
>  <smiles>  (4) 
O=C(NCC(=O)N1C[C@H](O)C[C@H]1Cc1ccc(Cl)cc1)c1ccc2cc(F)ccc2n1

>  <score_type>  (4) 
oracle

>  <origin>  (4) 
autodockgpu

>  <m_score__min__energy>  (4) 
-9.0399999999999991

>  <m_primary>  (4) 
energy

>  <rmsd>  (4) 
2.2339461576060957

>  <m_score__min__rmsd>  (4) 
2.2339461576060957

>  <meeko>  (4) 
{"free_energy": -8.37, "intermolecular_energy": -10.46, "internal_energy": -1.6, "cluster_size": 12, "cluster_id": 2, "rank_in_cluster": 6}

>  <energy>  (4) 
-8.99

>  <cluster_rmsd>  (4) 
0.21

>  <cluster>  (4) 
1

$$$$

     RDKit          3D

 52 55  0  0  0  0  0  0  0  0999 V2000
  139.7720   71.0160  221.7350 O   0  0  0  0  0  0  0  0  0  0  0  0
  139.2150   71.1940  222.8490 C   0  0  0  0  0  0  0  0  0  0  0  0
  138.2500   72.2380  222.9170 N   0  0  0  0  0  0  0  0  0  0  0  0
  137.9860   73.0010  221.7290 C   0  0  0  0  0  0  0  0  0  0  0  0
  138.8050   74.2380  221.6600 C   0  0  0  0  0  0  0  0  0  0  0  0
  139.9490   74.3440  222.1690 O   0  0  0  0  0  0  0  0  0  0  0  0
  138.2660   75.3650  220.9810 N   0  0  0  0  0  0  0  0  0  0  0  0
  136.9720   75.3380  220.3260 C   0  0  0  0  0  0  0  0  0  0  0  0
  136.8400   76.6650  219.6110 C   0  0  2  0  0  0  0  0  0  0  0  0
  136.2060   76.5260  218.3790 O   0  0  0  0  0  0  0  0  0  0  0  0
  138.2730   77.0940  219.4730 C   0  0  0  0  0  0  0  0  0  0  0  0
  138.8400   76.6850  220.8040 C   0  0  1  0  0  0  0  0  0  0  0  0
  138.3850   77.5480  221.9430 C   0  0  0  0  0  0  0  0  0  0  0  0
  139.4590   78.4280  222.4670 C   0  0  0  0  0  0  0  0  0  0  0  0
  139.2200   79.5270  223.2650 C   0  0  0  0  0  0  0  0  0  0  0  0
  140.2930   80.3010  223.7150 C   0  0  0  0  0  0  0  0  0  0  0  0
  141.5920   79.9370  223.3400 C   0  0  0  0  0  0  0  0  0  0  0  0
  142.9820   80.8770  223.8780 Cl  0  0  0  0  0  0  0  0  0  0  0  0
  141.8350   78.8370  222.5410 C   0  0  0  0  0  0  0  0  0  0  0  0
  140.7640   78.0840  222.1070 C   0  0  0  0  0  0  0  0  0  0  0  0
  139.5240   70.3860  224.0250 C   0  0  0  0  0  0  0  0  0  0  0  0
  139.1970   69.0290  223.9630 C   0  0  0  0  0  0  0  0  0  0  0  0
  139.4720   68.2280  225.0530 C   0  0  0  0  0  0  0  0  0  0  0  0
  140.0600   68.7670  226.1850 C   0  0  0  0  0  0  0  0  0  0  0  0
  140.3130   67.9200  227.2460 C   0  0  0  0  0  0  0  0  0  0  0  0
  140.9050   68.4790  228.3740 C   0  0  0  0  0  0  0  0  0  0  0  0
  141.1690   67.6910  229.4340 F   0  0  0  0  0  0  0  0  0  0  0  0
  141.2100   69.8260  228.3900 C   0  0  0  0  0  0  0  0  0  0  0  0
  140.9560   70.6690  227.3270 C   0  0  0  0  0  0  0  0  0  0  0  0
  140.3660   70.1120  226.2040 C   0  0  0  0  0  0  0  0  0  0  0  0
  140.1010   70.9160  225.1340 N   0  0  0  0  0  0  0  0  0  0  0  0
  137.7850   72.3890  223.8410 H   0  0  0  0  0  0  0  0  0  0  0  0
  138.2116   72.3779  220.8510 H   0  0  0  0  0  0  0  0  0  0  0  0
  136.9273   73.2990  221.7488 H   0  0  0  0  0  0  0  0  0  0  0  0
  136.9257   74.5087  219.6048 H   0  0  0  0  0  0  0  0  0  0  0  0
  136.1570   75.1866  221.0491 H   0  0  0  0  0  0  0  0  0  0  0  0
  136.2184   77.3983  220.1457 H   0  0  0  0  0  0  0  0  0  0  0  0
  136.5030   77.2480  217.7570 H   0  0  0  0  0  0  0  0  0  0  0  0
  138.7716   76.5681  218.6455 H   0  0  0  0  0  0  0  0  0  0  0  0
  138.4003   78.1617  219.2412 H   0  0  0  0  0  0  0  0  0  0  0  0
  139.9381   76.7490  220.8078 H   0  0  0  0  0  0  0  0  0  0  0  0
  137.5535   78.1785  221.5950 H   0  0  0  0  0  0  0  0  0  0  0  0
  138.0781   76.8795  222.7609 H   0  0  0  0  0  0  0  0  0  0  0  0
  138.1902   79.7930  223.5458 H   0  0  0  0  0  0  0  0  0  0  0  0
  140.1202   81.1806  224.3525 H   0  0  0  0  0  0  0  0  0  0  0  0
  142.8626   78.5667  222.2563 H   0  0  0  0  0  0  0  0  0  0  0  0
  140.9393   77.2038  221.4710 H   0  0  0  0  0  0  0  0  0  0  0  0
  138.7288   68.6066  223.0617 H   0  0  0  0  0  0  0  0  0  0  0  0
  139.2230   67.1570  225.0223 H   0  0  0  0  0  0  0  0  0  0  0  0
  140.0578   66.8510  227.2012 H   0  0  0  0  0  0  0  0  0  0  0  0
  141.6774   70.2468  229.2925 H   0  0  0  0  0  0  0  0  0  0  0  0
  141.2113   71.7381  227.3697 H   0  0  0  0  0  0  0  0  0  0  0  0
  1  2  2  0
  2  3  1  0
  3  4  1  0
  4  5  1  0
  5  6  2  0
  5  7  1  0
  7  8  1  0
  8  9  1  0
  9 10  1  0
  9 11  1  0
 11 12  1  0
 12 13  1  0
 13 14  1  0
 14 15  2  0
 15 16  1  0
 16 17  2  0
 17 18  1  0
 17 19  1  0
 19 20  2  0
  2 21  1  0
 21 22  2  0
 22 23  1  0
 23 24  2  0
 24 25  1  0
 25 26  2  0
 26 27  1  0
 26 28  1  0
 28 29  2  0
 29 30  1  0
 30 31  2  0
 12  7  1  0
 20 14  1  0
 31 21  1  0
 30 24  1  0
  3 32  1  0
  4 33  1  0
  4 34  1  0
  8 35  1  0
  8 36  1  0
  9 37  1  1
 10 38  1  0
 11 39  1  0
 11 40  1  0
 12 41  1  6
 13 42  1  0
 13 43  1  0
 15 44  1  0
 16 45  1  0
 19 46  1  0
 20 47  1  0
 22 48  1  0
 23 49  1  0
 25 50  1  0
 28 51  1  0
 29 52  1  0
M  END
>  <smiles>  (5) 
O=C(NCC(=O)N1C[C@H](O)C[C@H]1Cc1ccc(Cl)cc1)c1ccc2cc(F)ccc2n1

>  <score_type>  (5) 
oracle

>  <origin>  (5) 
autodockgpu

>  <m_score__min__energy>  (5) 
-9.0399999999999991

>  <m_primary>  (5) 
energy

>  <rmsd>  (5) 
1.9251764865163958

>  <m_score__min__rmsd>  (5) 
1.9251764865163958

>  <meeko>  (5) 
{"free_energy": -8.17, "intermolecular_energy": -10.26, "internal_energy": -1.26, "cluster_size": 3, "cluster_id": 5, "rank_in_cluster": 2}

>  <energy>  (5) 
-8.96

>  <cluster_rmsd>  (5) 
0.29

>  <cluster>  (5) 
1

$$$$

     RDKit          3D

 52 55  0  0  0  0  0  0  0  0999 V2000
  139.9760   73.2460  222.6900 O   0  0  0  0  0  0  0  0  0  0  0  0
  140.0900   71.9940  222.6330 C   0  0  0  0  0  0  0  0  0  0  0  0
  140.2580   71.4290  221.3370 N   0  0  0  0  0  0  0  0  0  0  0  0
  140.2840   72.3150  220.2060 C   0  0  0  0  0  0  0  0  0  0  0  0
  141.4400   72.0530  219.3110 C   0  0  0  0  0  0  0  0  0  0  0  0
  141.4760   71.1100  218.4800 O   0  0  0  0  0  0  0  0  0  0  0  0
  142.5680   72.9140  219.3980 N   0  0  0  0  0  0  0  0  0  0  0  0
  143.7400   72.7520  218.5600 C   0  0  0  0  0  0  0  0  0  0  0  0
  144.7510   73.7630  219.0600 C   0  0  2  0  0  0  0  0  0  0  0  0
  146.0470   73.2540  219.0270 O   0  0  0  0  0  0  0  0  0  0  0  0
  144.2720   74.0200  220.4620 C   0  0  0  0  0  0  0  0  0  0  0  0
  142.7820   74.0520  220.2710 C   0  0  1  0  0  0  0  0  0  0  0  0
  142.2920   75.2810  219.5630 C   0  0  0  0  0  0  0  0  0  0  0  0
  141.8770   76.3580  220.4950 C   0  0  0  0  0  0  0  0  0  0  0  0
  142.1770   77.6900  220.3000 C   0  0  0  0  0  0  0  0  0  0  0  0
  141.7450   78.6400  221.2300 C   0  0  0  0  0  0  0  0  0  0  0  0
  141.0140   78.2100  222.3430 C   0  0  0  0  0  0  0  0  0  0  0  0
  140.4440   79.3620  223.5490 Cl  0  0  0  0  0  0  0  0  0  0  0  0
  140.7120   76.8770  222.5420 C   0  0  0  0  0  0  0  0  0  0  0  0
  141.1460   75.9530  221.6140 C   0  0  0  0  0  0  0  0  0  0  0  0
  140.0550   71.1430  223.8190 C   0  0  0  0  0  0  0  0  0  0  0  0
  139.4380   69.8970  223.6830 C   0  0  0  0  0  0  0  0  0  0  0  0
  139.3820   69.0590  224.7790 C   0  0  0  0  0  0  0  0  0  0  0  0
  139.9280   69.4550  225.9880 C   0  0  0  0  0  0  0  0  0  0  0  0
  139.8440   68.5770  227.0520 C   0  0  0  0  0  0  0  0  0  0  0  0
  140.3990   68.9920  228.2580 C   0  0  0  0  0  0  0  0  0  0  0  0
  140.3400   68.1700  229.3240 F   0  0  0  0  0  0  0  0  0  0  0  0
  140.9980   70.2340  228.3460 C   0  0  0  0  0  0  0  0  0  0  0  0
  141.0800   71.1070  227.2800 C   0  0  0  0  0  0  0  0  0  0  0  0
  140.5270   70.6940  226.0790 C   0  0  0  0  0  0  0  0  0  0  0  0
  140.5900   71.5330  225.0040 N   0  0  0  0  0  0  0  0  0  0  0  0
  140.3520   70.3900  221.2850 H   0  0  0  0  0  0  0  0  0  0  0  0
  139.3551   72.1830  219.6318 H   0  0  0  0  0  0  0  0  0  0  0  0
  140.3788   73.3429  220.5860 H   0  0  0  0  0  0  0  0  0  0  0  0
  144.1401   71.7318  218.6549 H   0  0  0  0  0  0  0  0  0  0  0  0
  143.5020   72.9104  217.4978 H   0  0  0  0  0  0  0  0  0  0  0  0
  144.8097   74.6750  218.4479 H   0  0  0  0  0  0  0  0  0  0  0  0
  146.7060   74.0000  218.9510 H   0  0  0  0  0  0  0  0  0  0  0  0
  144.5720   73.2103  221.1435 H   0  0  0  0  0  0  0  0  0  0  0  0
  144.6848   74.9331  220.9156 H   0  0  0  0  0  0  0  0  0  0  0  0
  142.2544   74.0388  221.2361 H   0  0  0  0  0  0  0  0  0  0  0  0
  143.1009   75.6632  218.9230 H   0  0  0  0  0  0  0  0  0  0  0  0
  141.4070   74.9931  218.9766 H   0  0  0  0  0  0  0  0  0  0  0  0
  142.7534   78.0032  219.4170 H   0  0  0  0  0  0  0  0  0  0  0  0
  141.9755   79.7063  221.0894 H   0  0  0  0  0  0  0  0  0  0  0  0
  140.1365   76.5582  223.4236 H   0  0  0  0  0  0  0  0  0  0  0  0
  140.9141   74.8872  221.7568 H   0  0  0  0  0  0  0  0  0  0  0  0
  139.0046   69.5890  222.7200 H   0  0  0  0  0  0  0  0  0  0  0  0
  138.9018   68.0732  224.6912 H   0  0  0  0  0  0  0  0  0  0  0  0
  139.3601   67.5945  226.9497 H   0  0  0  0  0  0  0  0  0  0  0  0
  141.4294   70.5412  229.3101 H   0  0  0  0  0  0  0  0  0  0  0  0
  141.5642   72.0896  227.3800 H   0  0  0  0  0  0  0  0  0  0  0  0
  1  2  2  0
  2  3  1  0
  3  4  1  0
  4  5  1  0
  5  6  2  0
  5  7  1  0
  7  8  1  0
  8  9  1  0
  9 10  1  0
  9 11  1  0
 11 12  1  0
 12 13  1  0
 13 14  1  0
 14 15  2  0
 15 16  1  0
 16 17  2  0
 17 18  1  0
 17 19  1  0
 19 20  2  0
  2 21  1  0
 21 22  2  0
 22 23  1  0
 23 24  2  0
 24 25  1  0
 25 26  2  0
 26 27  1  0
 26 28  1  0
 28 29  2  0
 29 30  1  0
 30 31  2  0
 12  7  1  0
 20 14  1  0
 31 21  1  0
 30 24  1  0
  3 32  1  0
  4 33  1  0
  4 34  1  0
  8 35  1  0
  8 36  1  0
  9 37  1  6
 10 38  1  0
 11 39  1  0
 11 40  1  0
 12 41  1  1
 13 42  1  0
 13 43  1  0
 15 44  1  0
 16 45  1  0
 19 46  1  0
 20 47  1  0
 22 48  1  0
 23 49  1  0
 25 50  1  0
 28 51  1  0
 29 52  1  0
M  END
>  <smiles>  (6) 
O=C(NCC(=O)N1C[C@H](O)C[C@H]1Cc1ccc(Cl)cc1)c1ccc2cc(F)ccc2n1

>  <score_type>  (6) 
oracle

>  <origin>  (6) 
autodockgpu

>  <m_score__min__energy>  (6) 
-9.0399999999999991

>  <m_primary>  (6) 
energy

>  <rmsd>  (6) 
3.1976306504175214

>  <m_score__min__rmsd>  (6) 
3.1976306504175214

>  <meeko>  (6) 
{"free_energy": -9.04, "intermolecular_energy": -11.13, "internal_energy": -1.51, "cluster_size": 23, "cluster_id": 1, "rank_in_cluster": 1}

>  <energy>  (6) 
-8.95

>  <cluster_rmsd>  (6) 
0.25

>  <cluster>  (6) 
1

$$$$

     RDKit          3D

 52 55  0  0  0  0  0  0  0  0999 V2000
  140.3330   73.2530  222.5390 O   0  0  0  0  0  0  0  0  0  0  0  0
  140.2820   71.9960  222.5240 C   0  0  0  0  0  0  0  0  0  0  0  0
  140.3140   71.3730  221.2440 N   0  0  0  0  0  0  0  0  0  0  0  0
  140.4000   72.2130  220.0810 C   0  0  0  0  0  0  0  0  0  0  0  0
  141.5770   71.8860  219.2360 C   0  0  0  0  0  0  0  0  0  0  0  0
  141.5450   71.0630  218.2870 O   0  0  0  0  0  0  0  0  0  0  0  0
  142.8080   72.5400  219.5160 N   0  0  0  0  0  0  0  0  0  0  0  0
  144.0510   72.1780  218.8630 C   0  0  0  0  0  0  0  0  0  0  0  0
  145.1290   73.0000  219.5380 C   0  0  2  0  0  0  0  0  0  0  0  0
  146.3090   72.2760  219.6890 O   0  0  0  0  0  0  0  0  0  0  0  0
  144.4910   73.3380  220.8550 C   0  0  0  0  0  0  0  0  0  0  0  0
  143.0760   73.6260  220.4400 C   0  0  1  0  0  0  0  0  0  0  0  0
  142.9170   74.9190  219.6980 C   0  0  0  0  0  0  0  0  0  0  0  0
  142.2010   75.9540  220.4840 C   0  0  0  0  0  0  0  0  0  0  0  0
  141.3920   75.6650  221.5630 C   0  0  0  0  0  0  0  0  0  0  0  0
  140.7540   76.7040  222.2470 C   0  0  0  0  0  0  0  0  0  0  0  0
  140.9550   78.0200  221.8150 C   0  0  0  0  0  0  0  0  0  0  0  0
  140.1770   79.3690  222.6380 Cl  0  0  0  0  0  0  0  0  0  0  0  0
  141.7640   78.3130  220.7340 C   0  0  0  0  0  0  0  0  0  0  0  0
  142.3860   77.2750  220.0710 C   0  0  0  0  0  0  0  0  0  0  0  0
  140.1940   71.1940  223.7410 C   0  0  0  0  0  0  0  0  0  0  0  0
  139.5710   69.9490  223.6340 C   0  0  0  0  0  0  0  0  0  0  0  0
  139.4660   69.1580  224.7590 C   0  0  0  0  0  0  0  0  0  0  0  0
  139.9710   69.5980  225.9710 C   0  0  0  0  0  0  0  0  0  0  0  0
  139.8390   68.7650  227.0650 C   0  0  0  0  0  0  0  0  0  0  0  0
  140.3530   69.2240  228.2740 C   0  0  0  0  0  0  0  0  0  0  0  0
  140.2460   68.4460  229.3690 F   0  0  0  0  0  0  0  0  0  0  0  0
  140.9610   70.4630  228.3330 C   0  0  0  0  0  0  0  0  0  0  0  0
  141.0920   71.2910  227.2360 C   0  0  0  0  0  0  0  0  0  0  0  0
  140.5790   70.8340  226.0340 C   0  0  0  0  0  0  0  0  0  0  0  0
  140.6900   71.6280  224.9280 N   0  0  0  0  0  0  0  0  0  0  0  0
  140.2710   70.3300  221.2270 H   0  0  0  0  0  0  0  0  0  0  0  0
  139.4869   72.0822  219.4817 H   0  0  0  0  0  0  0  0  0  0  0  0
  140.5098   73.2525  220.4237 H   0  0  0  0  0  0  0  0  0  0  0  0
  144.2520   71.1042  218.9912 H   0  0  0  0  0  0  0  0  0  0  0  0
  144.0111   72.3743  217.7814 H   0  0  0  0  0  0  0  0  0  0  0  0
  145.4357   73.8881  218.9659 H   0  0  0  0  0  0  0  0  0  0  0  0
  146.2620   71.7100  220.5100 H   0  0  0  0  0  0  0  0  0  0  0  0
  144.5396   72.4900  221.5540 H   0  0  0  0  0  0  0  0  0  0  0  0
  144.9784   74.1672  221.3887 H   0  0  0  0  0  0  0  0  0  0  0  0
  142.4116   73.7054  221.3131 H   0  0  0  0  0  0  0  0  0  0  0  0
  143.9161   75.3017  219.4424 H   0  0  0  0  0  0  0  0  0  0  0  0
  142.3149   74.7118  218.8010 H   0  0  0  0  0  0  0  0  0  0  0  0
  141.2495   74.6225  221.8837 H   0  0  0  0  0  0  0  0  0  0  0  0
  140.1054   76.4910  223.1095 H   0  0  0  0  0  0  0  0  0  0  0  0
  141.9094   79.3535  220.4082 H   0  0  0  0  0  0  0  0  0  0  0  0
  143.0340   77.4903  219.2086 H   0  0  0  0  0  0  0  0  0  0  0  0
  139.1707   69.6049  222.6689 H   0  0  0  0  0  0  0  0  0  0  0  0
  138.9792   68.1738  224.6932 H   0  0  0  0  0  0  0  0  0  0  0  0
  139.3497   67.7831  226.9842 H   0  0  0  0  0  0  0  0  0  0  0  0
  141.3594   70.8060  229.2992 H   0  0  0  0  0  0  0  0  0  0  0  0
  141.5831   72.2722  227.3137 H   0  0  0  0  0  0  0  0  0  0  0  0
  1  2  2  0
  2  3  1  0
  3  4  1  0
  4  5  1  0
  5  6  2  0
  5  7  1  0
  7  8  1  0
  8  9  1  0
  9 10  1  0
  9 11  1  0
 11 12  1  0
 12 13  1  0
 13 14  1  0
 14 15  2  0
 15 16  1  0
 16 17  2  0
 17 18  1  0
 17 19  1  0
 19 20  2  0
  2 21  1  0
 21 22  2  0
 22 23  1  0
 23 24  2  0
 24 25  1  0
 25 26  2  0
 26 27  1  0
 26 28  1  0
 28 29  2  0
 29 30  1  0
 30 31  2  0
 12  7  1  0
 20 14  1  0
 31 21  1  0
 30 24  1  0
  3 32  1  0
  4 33  1  0
  4 34  1  0
  8 35  1  0
  8 36  1  0
  9 37  1  6
 10 38  1  0
 11 39  1  0
 11 40  1  0
 12 41  1  1
 13 42  1  0
 13 43  1  0
 15 44  1  0
 16 45  1  0
 19 46  1  0
 20 47  1  0
 22 48  1  0
 23 49  1  0
 25 50  1  0
 28 51  1  0
 29 52  1  0
M  END
>  <smiles>  (7) 
O=C(NCC(=O)N1C[C@H](O)C[C@H]1Cc1ccc(Cl)cc1)c1ccc2cc(F)ccc2n1

>  <score_type>  (7) 
oracle

>  <origin>  (7) 
autodockgpu

>  <m_score__min__energy>  (7) 
-9.0399999999999991

>  <m_primary>  (7) 
energy

>  <rmsd>  (7) 
3.5450612077383985

>  <m_score__min__rmsd>  (7) 
3.5450612077383985

>  <meeko>  (7) 
{"free_energy": -8.76, "intermolecular_energy": -10.85, "internal_energy": -1.54, "cluster_size": 23, "cluster_id": 1, "rank_in_cluster": 13}

>  <energy>  (7) 
-8.83

>  <cluster_rmsd>  (7) 
1.47

>  <cluster>  (7) 
1

$$$$

     RDKit          3D

 52 55  0  0  0  0  0  0  0  0999 V2000
  140.9730   71.7990  221.6870 O   0  0  0  0  0  0  0  0  0  0  0  0
  140.0780   71.8780  222.5680 C   0  0  0  0  0  0  0  0  0  0  0  0
  139.0470   72.8340  222.3430 N   0  0  0  0  0  0  0  0  0  0  0  0
  139.1030   73.6270  221.1460 C   0  0  0  0  0  0  0  0  0  0  0  0
  139.9410   74.8420  221.3130 C   0  0  0  0  0  0  0  0  0  0  0  0
  140.0350   75.4790  222.3920 O   0  0  0  0  0  0  0  0  0  0  0  0
  140.6780   75.3110  220.1910 N   0  0  0  0  0  0  0  0  0  0  0  0
  140.4030   74.8700  218.8370 C   0  0  0  0  0  0  0  0  0  0  0  0
  141.4850   75.4820  217.9730 C   0  0  2  0  0  0  0  0  0  0  0  0
  141.8980   74.6090  216.9690 O   0  0  0  0  0  0  0  0  0  0  0  0
  142.5710   75.7570  218.9750 C   0  0  0  0  0  0  0  0  0  0  0  0
  141.7780   76.2550  220.1500 C   0  0  1  0  0  0  0  0  0  0  0  0
  141.2060   77.6280  219.9530 C   0  0  0  0  0  0  0  0  0  0  0  0
  141.5120   78.5490  221.0760 C   0  0  0  0  0  0  0  0  0  0  0  0
  141.4460   78.1790  222.4020 C   0  0  0  0  0  0  0  0  0  0  0  0
  141.7520   79.1130  223.3960 C   0  0  0  0  0  0  0  0  0  0  0  0
  142.1190   80.4090  223.0150 C   0  0  0  0  0  0  0  0  0  0  0  0
  142.5140   81.6280  224.2240 Cl  0  0  0  0  0  0  0  0  0  0  0  0
  142.1860   80.7830  221.6870 C   0  0  0  0  0  0  0  0  0  0  0  0
  141.8810   79.8480  220.7190 C   0  0  0  0  0  0  0  0  0  0  0  0
  140.0740   71.0450  223.7670 C   0  0  0  0  0  0  0  0  0  0  0  0
  139.5170   69.7700  223.6480 C   0  0  0  0  0  0  0  0  0  0  0  0
  139.4920   68.9480  224.7560 C   0  0  0  0  0  0  0  0  0  0  0  0
  140.0110   69.3880  225.9630 C   0  0  0  0  0  0  0  0  0  0  0  0
  139.9600   68.5240  227.0390 C   0  0  0  0  0  0  0  0  0  0  0  0
  140.4870   68.9830  228.2430 C   0  0  0  0  0  0  0  0  0  0  0  0
  140.4580   68.1760  229.3210 F   0  0  0  0  0  0  0  0  0  0  0  0
  141.0270   70.2520  228.3140 C   0  0  0  0  0  0  0  0  0  0  0  0
  141.0760   71.1120  227.2340 C   0  0  0  0  0  0  0  0  0  0  0  0
  140.5510   70.6550  226.0370 C   0  0  0  0  0  0  0  0  0  0  0  0
  140.5830   71.4780  224.9480 N   0  0  0  0  0  0  0  0  0  0  0  0
  138.3030   72.9030  223.0720 H   0  0  0  0  0  0  0  0  0  0  0  0
  139.5253   73.0147  220.3356 H   0  0  0  0  0  0  0  0  0  0  0  0
  138.0794   73.9541  220.9110 H   0  0  0  0  0  0  0  0  0  0  0  0
  140.4408   73.7723  218.7771 H   0  0  0  0  0  0  0  0  0  0  0  0
  139.4001   75.1794  218.5075 H   0  0  0  0  0  0  0  0  0  0  0  0
  141.1627   76.3801  217.4257 H   0  0  0  0  0  0  0  0  0  0  0  0
  141.1080   74.2700  216.4630 H   0  0  0  0  0  0  0  0  0  0  0  0
  143.1276   74.8418  219.2252 H   0  0  0  0  0  0  0  0  0  0  0  0
  143.3383   76.4616  218.6217 H   0  0  0  0  0  0  0  0  0  0  0  0
  142.4024   76.3237  221.0530 H   0  0  0  0  0  0  0  0  0  0  0  0
  141.6230   78.0523  219.0278 H   0  0  0  0  0  0  0  0  0  0  0  0
  140.1121   77.5248  219.9001 H   0  0  0  0  0  0  0  0  0  0  0  0
  141.1542   77.1546  222.6765 H   0  0  0  0  0  0  0  0  0  0  0  0
  141.7052   78.8344  224.4591 H   0  0  0  0  0  0  0  0  0  0  0  0
  142.4768   81.8061  221.4065 H   0  0  0  0  0  0  0  0  0  0  0  0
  141.9289   80.1283  219.6564 H   0  0  0  0  0  0  0  0  0  0  0  0
  139.1052   69.4268  222.6874 H   0  0  0  0  0  0  0  0  0  0  0  0
  139.0585   67.9398  224.6808 H   0  0  0  0  0  0  0  0  0  0  0  0
  139.5228   67.5187  226.9489 H   0  0  0  0  0  0  0  0  0  0  0  0
  141.4373   70.5941  229.2756 H   0  0  0  0  0  0  0  0  0  0  0  0
  141.5136   72.1174  227.3213 H   0  0  0  0  0  0  0  0  0  0  0  0
  1  2  2  0
  2  3  1  0
  3  4  1  0
  4  5  1  0
  5  6  2  0
  5  7  1  0
  7  8  1  0
  8  9  1  0
  9 10  1  0
  9 11  1  0
 11 12  1  0
 12 13  1  0
 13 14  1  0
 14 15  2  0
 15 16  1  0
 16 17  2  0
 17 18  1  0
 17 19  1  0
 19 20  2  0
  2 21  1  0
 21 22  2  0
 22 23  1  0
 23 24  2  0
 24 25  1  0
 25 26  2  0
 26 27  1  0
 26 28  1  0
 28 29  2  0
 29 30  1  0
 30 31  2  0
 12  7  1  0
 20 14  1  0
 31 21  1  0
 30 24  1  0
  3 32  1  0
  4 33  1  0
  4 34  1  0
  8 35  1  0
  8 36  1  0
  9 37  1  6
 10 38  1  0
 11 39  1  0
 11 40  1  0
 12 41  1  1
 13 42  1  0
 13 43  1  0
 15 44  1  0
 16 45  1  0
 19 46  1  0
 20 47  1  0
 22 48  1  0
 23 49  1  0
 25 50  1  0
 28 51  1  0
 29 52  1  0
M  END
>  <smiles>  (8) 
O=C(NCC(=O)N1C[C@H](O)C[C@H]1Cc1ccc(Cl)cc1)c1ccc2cc(F)ccc2n1

>  <score_type>  (8) 
oracle

>  <origin>  (8) 
autodockgpu

>  <m_score__min__energy>  (8) 
-9.0399999999999991

>  <m_primary>  (8) 
energy

>  <rmsd>  (8) 
1.273816876356432

>  <m_score__min__rmsd>  (8) 
1.273816876356432

>  <meeko>  (8) 
{"free_energy": -8.62, "intermolecular_energy": -10.71, "internal_energy": -1.34, "cluster_size": 2, "cluster_id": 3, "rank_in_cluster": 1}

>  <energy>  (8) 
-8.82

>  <cluster_rmsd>  (8) 
1.44

>  <cluster>  (8) 
1

$$$$

     RDKit          3D

 52 55  0  0  0  0  0  0  0  0999 V2000
  140.9600   71.9270  221.2850 O   0  0  0  0  0  0  0  0  0  0  0  0
  140.3370   72.3070  222.3100 C   0  0  0  0  0  0  0  0  0  0  0  0
  139.7500   73.6030  222.2540 N   0  0  0  0  0  0  0  0  0  0  0  0
  139.9100   74.3710  221.0500 C   0  0  0  0  0  0  0  0  0  0  0  0
  141.1190   75.2330  221.0880 C   0  0  0  0  0  0  0  0  0  0  0  0
  142.2690   74.8320  220.7790 O   0  0  0  0  0  0  0  0  0  0  0  0
  140.9670   76.5870  221.4950 N   0  0  0  0  0  0  0  0  0  0  0  0
  141.7530   77.6660  220.9280 C   0  0  0  0  0  0  0  0  0  0  0  0
  141.3950   78.9030  221.7240 C   0  0  2  0  0  0  0  0  0  0  0  0
  142.5040   79.7180  221.9370 O   0  0  0  0  0  0  0  0  0  0  0  0
  140.8630   78.3150  223.0010 C   0  0  0  0  0  0  0  0  0  0  0  0
  140.0680   77.1470  222.4870 C   0  0  1  0  0  0  0  0  0  0  0  0
  138.7980   77.5410  221.7940 C   0  0  0  0  0  0  0  0  0  0  0  0
  137.5830   77.0570  222.4950 C   0  0  0  0  0  0  0  0  0  0  0  0
  137.3590   75.7320  222.8030 C   0  0  0  0  0  0  0  0  0  0  0  0
  136.1840   75.3650  223.4670 C   0  0  0  0  0  0  0  0  0  0  0  0
  135.2590   76.3610  223.8010 C   0  0  0  0  0  0  0  0  0  0  0  0
  133.7610   75.9570  224.6370 Cl  0  0  0  0  0  0  0  0  0  0  0  0
  135.4800   77.6890  223.4930 C   0  0  0  0  0  0  0  0  0  0  0  0
  136.6450   78.0330  222.8390 C   0  0  0  0  0  0  0  0  0  0  0  0
  140.2080   71.4810  223.5070 C   0  0  0  0  0  0  0  0  0  0  0  0
  139.5610   70.2520  223.3600 C   0  0  0  0  0  0  0  0  0  0  0  0
  139.4160   69.4390  224.4650 C   0  0  0  0  0  0  0  0  0  0  0  0
  139.9060   69.8420  225.6970 C   0  0  0  0  0  0  0  0  0  0  0  0
  139.7340   68.9890  226.7690 C   0  0  0  0  0  0  0  0  0  0  0  0
  140.2330   69.4110  227.9980 C   0  0  0  0  0  0  0  0  0  0  0  0
  140.0870   68.6120  229.0730 F   0  0  0  0  0  0  0  0  0  0  0  0
  140.8650   70.6350  228.0960 C   0  0  0  0  0  0  0  0  0  0  0  0
  141.0350   71.4840  227.0210 C   0  0  0  0  0  0  0  0  0  0  0  0
  140.5380   71.0640  225.7980 C   0  0  0  0  0  0  0  0  0  0  0  0
  140.6880   71.8780  224.7130 N   0  0  0  0  0  0  0  0  0  0  0  0
  139.2320   73.9210  223.1030 H   0  0  0  0  0  0  0  0  0  0  0  0
  139.9948   73.6801  220.1983 H   0  0  0  0  0  0  0  0  0  0  0  0
  139.0323   75.0264  220.9497 H   0  0  0  0  0  0  0  0  0  0  0  0
  142.8270   77.4477  221.0226 H   0  0  0  0  0  0  0  0  0  0  0  0
  141.5416   77.7999  219.8568 H   0  0  0  0  0  0  0  0  0  0  0  0
  140.6752   79.5636  221.2186 H   0  0  0  0  0  0  0  0  0  0  0  0
  143.3390   79.1710  221.9220 H   0  0  0  0  0  0  0  0  0  0  0  0
  141.6785   77.9860  223.6619 H   0  0  0  0  0  0  0  0  0  0  0  0
  140.2791   79.0209  223.6099 H   0  0  0  0  0  0  0  0  0  0  0  0
  139.7608   76.4806  223.3065 H   0  0  0  0  0  0  0  0  0  0  0  0
  138.7559   78.6387  221.7361 H   0  0  0  0  0  0  0  0  0  0  0  0
  138.8095   77.0783  220.7961 H   0  0  0  0  0  0  0  0  0  0  0  0
  138.1005   74.9675  222.5280 H   0  0  0  0  0  0  0  0  0  0  0  0
  135.9903   74.3127  223.7221 H   0  0  0  0  0  0  0  0  0  0  0  0
  134.7413   78.4577  223.7639 H   0  0  0  0  0  0  0  0  0  0  0  0
  136.8370   79.0862  222.5860 H   0  0  0  0  0  0  0  0  0  0  0  0
  139.1736   69.9376  222.3796 H   0  0  0  0  0  0  0  0  0  0  0  0
  138.9096   68.4673  224.3678 H   0  0  0  0  0  0  0  0  0  0  0  0
  139.2257   68.0199  226.6569 H   0  0  0  0  0  0  0  0  0  0  0  0
  141.2512   70.9482  229.0772 H   0  0  0  0  0  0  0  0  0  0  0  0
  141.5436   72.4531  227.1308 H   0  0  0  0  0  0  0  0  0  0  0  0
  1  2  2  0
  2  3  1  0
  3  4  1  0
  4  5  1  0
  5  6  2  0
  5  7  1  0
  7  8  1  0
  8  9  1  0
  9 10  1  0
  9 11  1  0
 11 12  1  0
 12 13  1  0
 13 14  1  0
 14 15  2  0
 15 16  1  0
 16 17  2  0
 17 18  1  0
 17 19  1  0
 19 20  2  0
  2 21  1  0
 21 22  2  0
 22 23  1  0
 23 24  2  0
 24 25  1  0
 25 26  2  0
 26 27  1  0
 26 28  1  0
 28 29  2  0
 29 30  1  0
 30 31  2  0
 12  7  1  0
 20 14  1  0
 31 21  1  0
 30 24  1  0
  3 32  1  0
  4 33  1  0
  4 34  1  0
  8 35  1  0
  8 36  1  0
  9 37  1  6
 10 38  1  0
 11 39  1  0
 11 40  1  0
 12 41  1  1
 13 42  1  0
 13 43  1  0
 15 44  1  0
 16 45  1  0
 19 46  1  0
 20 47  1  0
 22 48  1  0
 23 49  1  0
 25 50  1  0
 28 51  1  0
 29 52  1  0
M  END
>  <smiles>  (9) 
O=C(NCC(=O)N1C[C@H](O)C[C@H]1Cc1ccc(Cl)cc1)c1ccc2cc(F)ccc2n1

>  <score_type>  (9) 
oracle

>  <origin>  (9) 
autodockgpu

>  <m_score__min__energy>  (9) 
-9.0399999999999991

>  <m_primary>  (9) 
energy

>  <rmsd>  (9) 
2.7944268916581825

>  <m_score__min__rmsd>  (9) 
2.7944268916581825

>  <meeko>  (9) 
{"free_energy": -8.25, "intermolecular_energy": -10.34, "internal_energy": -1.49, "cluster_size": 1, "cluster_id": 4, "rank_in_cluster": 1}

>  <energy>  (9) 
-8.81

>  <cluster_rmsd>  (9) 
1.53

>  <cluster>  (9) 
1

$$$$

     RDKit          3D

 52 55  0  0  0  0  0  0  0  0999 V2000
  141.0920   72.0630  221.4410 O   0  0  0  0  0  0  0  0  0  0  0  0
  140.3280   72.3420  222.4000 C   0  0  0  0  0  0  0  0  0  0  0  0
  139.5690   73.5410  222.2810 N   0  0  0  0  0  0  0  0  0  0  0  0
  139.7290   74.3330  221.0930 C   0  0  0  0  0  0  0  0  0  0  0  0
  140.7080   75.4350  221.2770 C   0  0  0  0  0  0  0  0  0  0  0  0
  140.9110   76.0070  222.3770 O   0  0  0  0  0  0  0  0  0  0  0  0
  141.4560   75.8660  220.1480 N   0  0  0  0  0  0  0  0  0  0  0  0
  141.2630   75.3090  218.8230 C   0  0  0  0  0  0  0  0  0  0  0  0
  142.3370   75.9240  217.9520 C   0  0  2  0  0  0  0  0  0  0  0  0
  142.8420   75.0090  217.0330 O   0  0  0  0  0  0  0  0  0  0  0  0
  143.3630   76.3440  218.9660 C   0  0  0  0  0  0  0  0  0  0  0  0
  142.4950   76.8750  220.0720 C   0  0  1  0  0  0  0  0  0  0  0  0
  141.8460   78.1890  219.7510 C   0  0  0  0  0  0  0  0  0  0  0  0
  141.1270   78.7770  220.9080 C   0  0  0  0  0  0  0  0  0  0  0  0
  141.7500   79.1540  222.0790 C   0  0  0  0  0  0  0  0  0  0  0  0
  140.9930   79.7010  223.1190 C   0  0  0  0  0  0  0  0  0  0  0  0
  139.6130   79.8520  222.9430 C   0  0  0  0  0  0  0  0  0  0  0  0
  138.6100   80.5350  224.2200 Cl  0  0  0  0  0  0  0  0  0  0  0  0
  138.9860   79.4750  221.7710 C   0  0  0  0  0  0  0  0  0  0  0  0
  139.7480   78.9380  220.7550 C   0  0  0  0  0  0  0  0  0  0  0  0
  140.2070   71.4980  223.5850 C   0  0  0  0  0  0  0  0  0  0  0  0
  139.5710   70.2650  223.4210 C   0  0  0  0  0  0  0  0  0  0  0  0
  139.4350   69.4350  224.5140 C   0  0  0  0  0  0  0  0  0  0  0  0
  139.9200   69.8250  225.7510 C   0  0  0  0  0  0  0  0  0  0  0  0
  139.7570   68.9550  226.8120 C   0  0  0  0  0  0  0  0  0  0  0  0
  140.2520   69.3630  228.0460 C   0  0  0  0  0  0  0  0  0  0  0  0
  140.1140   68.5480  229.1100 F   0  0  0  0  0  0  0  0  0  0  0  0
  140.8730   70.5920  228.1620 C   0  0  0  0  0  0  0  0  0  0  0  0
  141.0350   71.4580  227.0990 C   0  0  0  0  0  0  0  0  0  0  0  0
  140.5410   71.0510  225.8700 C   0  0  0  0  0  0  0  0  0  0  0  0
  140.6830   71.8820  224.7970 N   0  0  0  0  0  0  0  0  0  0  0  0
  138.9330   73.7760  223.0750 H   0  0  0  0  0  0  0  0  0  0  0  0
  140.0786   73.6818  220.2783 H   0  0  0  0  0  0  0  0  0  0  0  0
  138.7545   74.7850  220.8564 H   0  0  0  0  0  0  0  0  0  0  0  0
  141.3718   74.2147  218.8488 H   0  0  0  0  0  0  0  0  0  0  0  0
  140.2565   75.5274  218.4366 H   0  0  0  0  0  0  0  0  0  0  0  0
  141.9807   76.7556  217.3263 H   0  0  0  0  0  0  0  0  0  0  0  0
  142.9930   75.4530  216.1520 H   0  0  0  0  0  0  0  0  0  0  0  0
  143.9663   75.4888  219.3046 H   0  0  0  0  0  0  0  0  0  0  0  0
  144.0972   77.0696  218.5857 H   0  0  0  0  0  0  0  0  0  0  0  0
  143.0781   77.0517  220.9878 H   0  0  0  0  0  0  0  0  0  0  0  0
  142.6247   78.8948  219.4264 H   0  0  0  0  0  0  0  0  0  0  0  0
  141.1036   78.0055  218.9603 H   0  0  0  0  0  0  0  0  0  0  0  0
  142.8363   79.0250  222.1940 H   0  0  0  0  0  0  0  0  0  0  0  0
  141.4738   80.0075  224.0597 H   0  0  0  0  0  0  0  0  0  0  0  0
  137.8998   79.6008  221.6507 H   0  0  0  0  0  0  0  0  0  0  0  0
  139.2651   78.6334  219.8148 H   0  0  0  0  0  0  0  0  0  0  0  0
  139.1852   69.9613  222.4367 H   0  0  0  0  0  0  0  0  0  0  0  0
  138.9393   68.4593  224.4027 H   0  0  0  0  0  0  0  0  0  0  0  0
  139.2579   67.9829  226.6862 H   0  0  0  0  0  0  0  0  0  0  0  0
  141.2563   70.8946  229.1477 H   0  0  0  0  0  0  0  0  0  0  0  0
  141.5351   72.4299  227.2225 H   0  0  0  0  0  0  0  0  0  0  0  0
  1  2  2  0
  2  3  1  0
  3  4  1  0
  4  5  1  0
  5  6  2  0
  5  7  1  0
  7  8  1  0
  8  9  1  0
  9 10  1  0
  9 11  1  0
 11 12  1  0
 12 13  1  0
 13 14  1  0
 14 15  2  0
 15 16  1  0
 16 17  2  0
 17 18  1  0
 17 19  1  0
 19 20  2  0
  2 21  1  0
 21 22  2  0
 22 23  1  0
 23 24  2  0
 24 25  1  0
 25 26  2  0
 26 27  1  0
 26 28  1  0
 28 29  2  0
 29 30  1  0
 30 31  2  0
 12  7  1  0
 20 14  1  0
 31 21  1  0
 30 24  1  0
  3 32  1  0
  4 33  1  0
  4 34  1  0
  8 35  1  0
  8 36  1  0
  9 37  1  6
 10 38  1  0
 11 39  1  0
 11 40  1  0
 12 41  1  1
 13 42  1  0
 13 43  1  0
 15 44  1  0
 16 45  1  0
 19 46  1  0
 20 47  1  0
 22 48  1  0
 23 49  1  0
 25 50  1  0
 28 51  1  0
 29 52  1  0
M  END
>  <smiles>  (10) 
O=C(NCC(=O)N1C[C@H](O)C[C@H]1Cc1ccc(Cl)cc1)c1ccc2cc(F)ccc2n1

>  <score_type>  (10) 
oracle

>  <origin>  (10) 
autodockgpu

>  <m_score__min__energy>  (10) 
-9.0399999999999991

>  <m_primary>  (10) 
energy

>  <rmsd>  (10) 
1.680736891355614

>  <m_score__min__rmsd>  (10) 
1.680736891355614

>  <meeko>  (10) 
{"free_energy": -8.09, "intermolecular_energy": -10.17, "internal_energy": -1.57, "cluster_size": 2, "cluster_id": 3, "rank_in_cluster": 2}

>  <energy>  (10) 
-8.81

>  <cluster_rmsd>  (10) 
0.63

>  <cluster>  (10) 
1

$$$$

     RDKit          3D

 52 55  0  0  0  0  0  0  0  0999 V2000
  141.0920   72.0920  221.2950 O   0  0  0  0  0  0  0  0  0  0  0  0
  140.4320   72.4510  222.3040 C   0  0  0  0  0  0  0  0  0  0  0  0
  139.8460   73.7480  222.2510 N   0  0  0  0  0  0  0  0  0  0  0  0
  140.0490   74.5390  221.0690 C   0  0  0  0  0  0  0  0  0  0  0  0
  140.9330   75.7070  221.3170 C   0  0  0  0  0  0  0  0  0  0  0  0
  140.9590   76.3420  222.4020 O   0  0  0  0  0  0  0  0  0  0  0  0
  141.7980   76.1300  220.2710 N   0  0  0  0  0  0  0  0  0  0  0  0
  142.0640   77.5280  219.9940 C   0  0  0  0  0  0  0  0  0  0  0  0
  142.9020   77.5510  218.7340 C   0  0  2  0  0  0  0  0  0  0  0  0
  142.5610   78.6170  217.9070 O   0  0  0  0  0  0  0  0  0  0  0  0
  142.5790   76.2200  218.1160 C   0  0  0  0  0  0  0  0  0  0  0  0
  142.5470   75.3250  219.3240 C   0  0  1  0  0  0  0  0  0  0  0  0
  143.9000   75.0550  219.9100 C   0  0  0  0  0  0  0  0  0  0  0  0
  144.4150   73.7030  219.5790 C   0  0  0  0  0  0  0  0  0  0  0  0
  143.8820   72.9090  218.5860 C   0  0  0  0  0  0  0  0  0  0  0  0
  144.4310   71.6460  218.3420 C   0  0  0  0  0  0  0  0  0  0  0  0
  145.5130   71.2190  219.1200 C   0  0  0  0  0  0  0  0  0  0  0  0
  146.2440   69.6370  218.8570 Cl  0  0  0  0  0  0  0  0  0  0  0  0
  146.0490   72.0120  220.1160 C   0  0  0  0  0  0  0  0  0  0  0  0
  145.4950   73.2550  220.3420 C   0  0  0  0  0  0  0  0  0  0  0  0
  140.2600   71.6020  223.4790 C   0  0  0  0  0  0  0  0  0  0  0  0
  139.5950   70.3880  223.2900 C   0  0  0  0  0  0  0  0  0  0  0  0
  139.4110   69.5550  224.3740 C   0  0  0  0  0  0  0  0  0  0  0  0
  139.8770   69.9230  225.6250 C   0  0  0  0  0  0  0  0  0  0  0  0
  139.6650   69.0500  226.6750 C   0  0  0  0  0  0  0  0  0  0  0  0
  140.1420   69.4370  227.9240 C   0  0  0  0  0  0  0  0  0  0  0  0
  139.9570   68.6180  228.9780 F   0  0  0  0  0  0  0  0  0  0  0  0
  140.7920   70.6470  228.0630 C   0  0  0  0  0  0  0  0  0  0  0  0
  141.0030   71.5160  227.0110 C   0  0  0  0  0  0  0  0  0  0  0  0
  140.5280   71.1310  225.7680 C   0  0  0  0  0  0  0  0  0  0  0  0
  140.7180   71.9650  224.7050 N   0  0  0  0  0  0  0  0  0  0  0  0
  139.2980   74.0500  223.0870 H   0  0  0  0  0  0  0  0  0  0  0  0
  140.5075   73.9065  220.2946 H   0  0  0  0  0  0  0  0  0  0  0  0
  139.0689   74.9211  220.7474 H   0  0  0  0  0  0  0  0  0  0  0  0
  141.1214   78.0725  219.8362 H   0  0  0  0  0  0  0  0  0  0  0  0
  142.5842   78.0133  220.8330 H   0  0  0  0  0  0  0  0  0  0  0  0
  143.9771   77.6942  218.9175 H   0  0  0  0  0  0  0  0  0  0  0  0
  143.3740   78.9700  217.4480 H   0  0  0  0  0  0  0  0  0  0  0  0
  141.6048   76.2403  217.6057 H   0  0  0  0  0  0  0  0  0  0  0  0
  143.2926   75.9013  217.3419 H   0  0  0  0  0  0  0  0  0  0  0  0
  142.1313   74.3364  219.0791 H   0  0  0  0  0  0  0  0  0  0  0  0
  144.6061   75.8039  219.5220 H   0  0  0  0  0  0  0  0  0  0  0  0
  143.8024   75.1116  221.0042 H   0  0  0  0  0  0  0  0  0  0  0  0
  143.0300   73.2667  217.9892 H   0  0  0  0  0  0  0  0  0  0  0  0
  144.0196   70.9998  217.5526 H   0  0  0  0  0  0  0  0  0  0  0  0
  146.9003   71.6595  220.7168 H   0  0  0  0  0  0  0  0  0  0  0  0
  145.9084   73.8998  221.1315 H   0  0  0  0  0  0  0  0  0  0  0  0
  139.2248   70.1015  222.2946 H   0  0  0  0  0  0  0  0  0  0  0  0
  138.8917   68.5940  224.2441 H   0  0  0  0  0  0  0  0  0  0  0  0
  139.1429   68.0927  226.5303 H   0  0  0  0  0  0  0  0  0  0  0  0
  141.1595   70.9325  229.0597 H   0  0  0  0  0  0  0  0  0  0  0  0
  141.5260   72.4731  227.1538 H   0  0  0  0  0  0  0  0  0  0  0  0
  1  2  2  0
  2  3  1  0
  3  4  1  0
  4  5  1  0
  5  6  2  0
  5  7  1  0
  7  8  1  0
  8  9  1  0
  9 10  1  0
  9 11  1  0
 11 12  1  0
 12 13  1  0
 13 14  1  0
 14 15  2  0
 15 16  1  0
 16 17  2  0
 17 18  1  0
 17 19  1  0
 19 20  2  0
  2 21  1  0
 21 22  2  0
 22 23  1  0
 23 24  2  0
 24 25  1  0
 25 26  2  0
 26 27  1  0
 26 28  1  0
 28 29  2  0
 29 30  1  0
 30 31  2  0
 12  7  1  0
 20 14  1  0
 31 21  1  0
 30 24  1  0
  3 32  1  0
  4 33  1  0
  4 34  1  0
  8 35  1  0
  8 36  1  0
  9 37  1  1
 10 38  1  0
 11 39  1  0
 11 40  1  0
 12 41  1  6
 13 42  1  0
 13 43  1  0
 15 44  1  0
 16 45  1  0
 19 46  1  0
 20 47  1  0
 22 48  1  0
 23 49  1  0
 25 50  1  0
 28 51  1  0
 29 52  1  0
M  END
>  <smiles>  (11) 
O=C(NCC(=O)N1C[C@H](O)C[C@H]1Cc1ccc(Cl)cc1)c1ccc2cc(F)ccc2n1

>  <score_type>  (11) 
oracle

>  <origin>  (11) 
autodockgpu

>  <m_score__min__energy>  (11) 
-9.0399999999999991

>  <m_primary>  (11) 
energy

>  <rmsd>  (11) 
2.3205518468880406

>  <m_score__min__rmsd>  (11) 
2.3205518468880406

>  <meeko>  (11) 
{"free_energy": -8.62, "intermolecular_energy": -10.71, "internal_energy": -1.54, "cluster_size": 12, "cluster_id": 2, "rank_in_cluster": 1}

>  <energy>  (11) 
-8.79

>  <cluster_rmsd>  (11) 
0.71

>  <cluster>  (11) 
1

$$$$

     RDKit          3D

 52 55  0  0  0  0  0  0  0  0999 V2000
  139.6150   73.1340  222.6990 O   0  0  0  0  0  0  0  0  0  0  0  0
  140.1290   71.9860  222.6990 C   0  0  0  0  0  0  0  0  0  0  0  0
  140.7510   71.5690  221.4880 N   0  0  0  0  0  0  0  0  0  0  0  0
  140.7450   72.4740  220.3720 C   0  0  0  0  0  0  0  0  0  0  0  0
  141.5270   73.7080  220.6420 C   0  0  0  0  0  0  0  0  0  0  0  0
  141.0560   74.7150  221.2270 O   0  0  0  0  0  0  0  0  0  0  0  0
  142.8830   73.7510  220.2170 N   0  0  0  0  0  0  0  0  0  0  0  0
  143.5820   72.5850  219.7130 C   0  0  0  0  0  0  0  0  0  0  0  0
  145.0190   73.0160  219.5110 C   0  0  2  0  0  0  0  0  0  0  0  0
  145.9130   72.0060  219.8560 O   0  0  0  0  0  0  0  0  0  0  0  0
  145.1220   74.2080  220.4210 C   0  0  0  0  0  0  0  0  0  0  0  0
  143.7960   74.8780  220.1920 C   0  0  1  0  0  0  0  0  0  0  0  0
  143.6810   75.5420  218.8520 C   0  0  0  0  0  0  0  0  0  0  0  0
  143.0350   76.8760  218.9210 C   0  0  0  0  0  0  0  0  0  0  0  0
  143.0130   77.7660  217.8680 C   0  0  0  0  0  0  0  0  0  0  0  0
  142.3800   79.0030  218.0210 C   0  0  0  0  0  0  0  0  0  0  0  0
  141.7830   79.3080  219.2490 C   0  0  0  0  0  0  0  0  0  0  0  0
  140.9720   80.8530  219.4990 Cl  0  0  0  0  0  0  0  0  0  0  0  0
  141.8040   78.4200  220.3070 C   0  0  0  0  0  0  0  0  0  0  0  0
  142.4320   77.2030  220.1370 C   0  0  0  0  0  0  0  0  0  0  0  0
  140.1040   71.1090  223.8650 C   0  0  0  0  0  0  0  0  0  0  0  0
  139.5300   69.8470  223.6940 C   0  0  0  0  0  0  0  0  0  0  0  0
  139.4850   68.9850  224.7700 C   0  0  0  0  0  0  0  0  0  0  0  0
  140.0000   69.3700  225.9960 C   0  0  0  0  0  0  0  0  0  0  0  0
  139.9290   68.4670  227.0390 C   0  0  0  0  0  0  0  0  0  0  0  0
  140.4530   68.8730  228.2620 C   0  0  0  0  0  0  0  0  0  0  0  0
  140.4050   68.0250  229.3090 F   0  0  0  0  0  0  0  0  0  0  0  0
  141.0110   70.1300  228.3850 C   0  0  0  0  0  0  0  0  0  0  0  0
  141.0810   71.0290  227.3400 C   0  0  0  0  0  0  0  0  0  0  0  0
  140.5580   70.6250  226.1220 C   0  0  0  0  0  0  0  0  0  0  0  0
  140.6100   71.4890  225.0660 N   0  0  0  0  0  0  0  0  0  0  0  0
  141.1790   70.6160  221.4830 H   0  0  0  0  0  0  0  0  0  0  0  0
  141.1800   71.9633  219.5002 H   0  0  0  0  0  0  0  0  0  0  0  0
  139.7024   72.7707  220.1852 H   0  0  0  0  0  0  0  0  0  0  0  0
  143.5283   71.7625  220.4414 H   0  0  0  0  0  0  0  0  0  0  0  0
  143.1349   72.2204  218.7764 H   0  0  0  0  0  0  0  0  0  0  0  0
  145.2719   73.2461  218.4655 H   0  0  0  0  0  0  0  0  0  0  0  0
  145.9050   71.8630  220.8430 H   0  0  0  0  0  0  0  0  0  0  0  0
  145.2414   73.9024  221.4709 H   0  0  0  0  0  0  0  0  0  0  0  0
  145.9901   74.8524  220.2182 H   0  0  0  0  0  0  0  0  0  0  0  0
  143.6164   75.6735  220.9302 H   0  0  0  0  0  0  0  0  0  0  0  0
  144.6907   75.6625  218.4324 H   0  0  0  0  0  0  0  0  0  0  0  0
  143.0482   74.9016  218.2200 H   0  0  0  0  0  0  0  0  0  0  0  0
  143.4910   77.5040  216.9126 H   0  0  0  0  0  0  0  0  0  0  0  0
  142.3518   79.7238  217.1906 H   0  0  0  0  0  0  0  0  0  0  0  0
  141.3298   78.6777  221.2655 H   0  0  0  0  0  0  0  0  0  0  0  0
  142.4578   76.4830  220.9682 H   0  0  0  0  0  0  0  0  0  0  0  0
  139.1210   69.5459  222.7183 H   0  0  0  0  0  0  0  0  0  0  0  0
  139.0377   67.9868  224.6533 H   0  0  0  0  0  0  0  0  0  0  0  0
  139.4785   67.4720  226.9084 H   0  0  0  0  0  0  0  0  0  0  0  0
  141.4190   70.4290  229.3618 H   0  0  0  0  0  0  0  0  0  0  0  0
  141.5327   72.0237  227.4686 H   0  0  0  0  0  0  0  0  0  0  0  0
  1  2  2  0
  2  3  1  0
  3  4  1  0
  4  5  1  0
  5  6  2  0
  5  7  1  0
  7  8  1  0
  8  9  1  0
  9 10  1  0
  9 11  1  0
 11 12  1  0
 12 13  1  0
 13 14  1  0
 14 15  2  0
 15 16  1  0
 16 17  2  0
 17 18  1  0
 17 19  1  0
 19 20  2  0
  2 21  1  0
 21 22  2  0
 22 23  1  0
 23 24  2  0
 24 25  1  0
 25 26  2  0
 26 27  1  0
 26 28  1  0
 28 29  2  0
 29 30  1  0
 30 31  2  0
 12  7  1  0
 20 14  1  0
 31 21  1  0
 30 24  1  0
  3 32  1  0
  4 33  1  0
  4 34  1  0
  8 35  1  0
  8 36  1  0
  9 37  1  6
 10 38  1  0
 11 39  1  0
 11 40  1  0
 12 41  1  1
 13 42  1  0
 13 43  1  0
 15 44  1  0
 16 45  1  0
 19 46  1  0
 20 47  1  0
 22 48  1  0
 23 49  1  0
 25 50  1  0
 28 51  1  0
 29 52  1  0
M  END
>  <smiles>  (12) 
O=C(NCC(=O)N1C[C@H](O)C[C@H]1Cc1ccc(Cl)cc1)c1ccc2cc(F)ccc2n1

>  <score_type>  (12) 
oracle

>  <origin>  (12) 
autodockgpu

>  <m_score__min__energy>  (12) 
-9.0399999999999991

>  <m_primary>  (12) 
energy

>  <rmsd>  (12) 
3.251350889064002

>  <m_score__min__rmsd>  (12) 
3.251350889064002

>  <meeko>  (12) 
{"free_energy": -8.82, "intermolecular_energy": -10.91, "internal_energy": -1.23, "cluster_size": 23, "cluster_id": 1, "rank_in_cluster": 8}

>  <energy>  (12) 
-8.76

>  <cluster_rmsd>  (12) 
0.78

>  <cluster>  (12) 
1

$$$$

     RDKit          3D

 52 55  0  0  0  0  0  0  0  0999 V2000
  140.3220   73.2790  222.6410 O   0  0  0  0  0  0  0  0  0  0  0  0
  140.2710   72.0230  222.5820 C   0  0  0  0  0  0  0  0  0  0  0  0
  140.2950   71.4460  221.2800 N   0  0  0  0  0  0  0  0  0  0  0  0
  140.3740   72.3260  220.1470 C   0  0  0  0  0  0  0  0  0  0  0  0
  141.5370   72.0190  219.2750 C   0  0  0  0  0  0  0  0  0  0  0  0
  141.4900   71.2130  218.3120 O   0  0  0  0  0  0  0  0  0  0  0  0
  142.7700   72.6730  219.5430 N   0  0  0  0  0  0  0  0  0  0  0  0
  144.0130   72.2920  218.9000 C   0  0  0  0  0  0  0  0  0  0  0  0
  145.0940   73.1220  219.5590 C   0  0  2  0  0  0  0  0  0  0  0  0
  146.2700   72.3960  219.7270 O   0  0  0  0  0  0  0  0  0  0  0  0
  144.4550   73.4900  220.8690 C   0  0  0  0  0  0  0  0  0  0  0  0
  143.0420   73.7760  220.4450 C   0  0  1  0  0  0  0  0  0  0  0  0
  142.8910   75.0550  219.6760 C   0  0  0  0  0  0  0  0  0  0  0  0
  142.1960   76.1150  220.4470 C   0  0  0  0  0  0  0  0  0  0  0  0
  142.2840   77.4580  220.1440 C   0  0  0  0  0  0  0  0  0  0  0  0
  141.5940   78.3900  220.9250 C   0  0  0  0  0  0  0  0  0  0  0  0
  140.8290   77.9310  222.0040 C   0  0  0  0  0  0  0  0  0  0  0  0
  139.9400   79.0610  223.0230 Cl  0  0  0  0  0  0  0  0  0  0  0  0
  140.7390   76.5880  222.3110 C   0  0  0  0  0  0  0  0  0  0  0  0
  141.4260   75.6820  221.5280 C   0  0  0  0  0  0  0  0  0  0  0  0
  140.1910   71.1790  223.7700 C   0  0  0  0  0  0  0  0  0  0  0  0
  139.5860   69.9290  223.6180 C   0  0  0  0  0  0  0  0  0  0  0  0
  139.4890   69.0980  224.7150 C   0  0  0  0  0  0  0  0  0  0  0  0
  139.9840   69.5030  225.9430 C   0  0  0  0  0  0  0  0  0  0  0  0
  139.8600   68.6320  227.0080 C   0  0  0  0  0  0  0  0  0  0  0  0
  140.3640   69.0560  228.2330 C   0  0  0  0  0  0  0  0  0  0  0  0
  140.2650   68.2390  229.3010 F   0  0  0  0  0  0  0  0  0  0  0  0
  140.9540   70.3000  228.3370 C   0  0  0  0  0  0  0  0  0  0  0  0
  141.0760   71.1680  227.2700 C   0  0  0  0  0  0  0  0  0  0  0  0
  140.5730   70.7450  226.0500 C   0  0  0  0  0  0  0  0  0  0  0  0
  140.6770   71.5780  224.9740 N   0  0  0  0  0  0  0  0  0  0  0  0
  140.2530   70.4040  221.2270 H   0  0  0  0  0  0  0  0  0  0  0  0
  139.4520   72.2250  219.5556 H   0  0  0  0  0  0  0  0  0  0  0  0
  140.4982   73.3514  220.5252 H   0  0  0  0  0  0  0  0  0  0  0  0
  144.2086   71.2201  219.0508 H   0  0  0  0  0  0  0  0  0  0  0  0
  143.9757   72.4667  217.8146 H   0  0  0  0  0  0  0  0  0  0  0  0
  145.4061   73.9963  218.9689 H   0  0  0  0  0  0  0  0  0  0  0  0
  146.2210   71.8520  220.5630 H   0  0  0  0  0  0  0  0  0  0  0  0
  144.4984   72.6562  221.5852 H   0  0  0  0  0  0  0  0  0  0  0  0
  144.9454   74.3274  221.3869 H   0  0  0  0  0  0  0  0  0  0  0  0
  142.3764   73.8761  221.3150 H   0  0  0  0  0  0  0  0  0  0  0  0
  143.8919   75.4197  219.4019 H   0  0  0  0  0  0  0  0  0  0  0  0
  142.2774   74.8361  218.7896 H   0  0  0  0  0  0  0  0  0  0  0  0
  142.8939   77.7938  219.2924 H   0  0  0  0  0  0  0  0  0  0  0  0
  141.6511   79.4644  220.6959 H   0  0  0  0  0  0  0  0  0  0  0  0
  140.1320   76.2466  223.1625 H   0  0  0  0  0  0  0  0  0  0  0  0
  141.3661   74.6080  221.7582 H   0  0  0  0  0  0  0  0  0  0  0  0
  139.1936   69.6127  222.6402 H   0  0  0  0  0  0  0  0  0  0  0  0
  139.0166   68.1098  224.6136 H   0  0  0  0  0  0  0  0  0  0  0  0
  139.3839   67.6471  226.8924 H   0  0  0  0  0  0  0  0  0  0  0  0
  141.3452   70.6144  229.3158 H   0  0  0  0  0  0  0  0  0  0  0  0
  141.5521   72.1531  227.3836 H   0  0  0  0  0  0  0  0  0  0  0  0
  1  2  2  0
  2  3  1  0
  3  4  1  0
  4  5  1  0
  5  6  2  0
  5  7  1  0
  7  8  1  0
  8  9  1  0
  9 10  1  0
  9 11  1  0
 11 12  1  0
 12 13  1  0
 13 14  1  0
 14 15  2  0
 15 16  1  0
 16 17  2  0
 17 18  1  0
 17 19  1  0
 19 20  2  0
  2 21  1  0
 21 22  2  0
 22 23  1  0
 23 24  2  0
 24 25  1  0
 25 26  2  0
 26 27  1  0
 26 28  1  0
 28 29  2  0
 29 30  1  0
 30 31  2  0
 12  7  1  0
 20 14  1  0
 31 21  1  0
 30 24  1  0
  3 32  1  0
  4 33  1  0
  4 34  1  0
  8 35  1  0
  8 36  1  0
  9 37  1  6
 10 38  1  0
 11 39  1  0
 11 40  1  0
 12 41  1  1
 13 42  1  0
 13 43  1  0
 15 44  1  0
 16 45  1  0
 19 46  1  0
 20 47  1  0
 22 48  1  0
 23 49  1  0
 25 50  1  0
 28 51  1  0
 29 52  1  0
M  END
>  <smiles>  (13) 
O=C(NCC(=O)N1C[C@H](O)C[C@H]1Cc1ccc(Cl)cc1)c1ccc2cc(F)ccc2n1

>  <score_type>  (13) 
oracle

>  <origin>  (13) 
autodockgpu

>  <m_score__min__energy>  (13) 
-9.0399999999999991

>  <m_primary>  (13) 
energy

>  <rmsd>  (13) 
3.4793635143718986

>  <m_score__min__rmsd>  (13) 
3.4793635143718986

>  <meeko>  (13) 
{"free_energy": -8.81, "intermolecular_energy": -10.9, "internal_energy": -1.57, "cluster_size": 23, "cluster_id": 1, "rank_in_cluster": 10}

>  <energy>  (13) 
-8.76

>  <cluster_rmsd>  (13) 
0.69

>  <cluster>  (13) 
1

$$$$

     RDKit          3D

 52 55  0  0  0  0  0  0  0  0999 V2000
  141.2080   72.3610  221.7100 O   0  0  0  0  0  0  0  0  0  0  0  0
  140.2730   72.4130  222.5500 C   0  0  0  0  0  0  0  0  0  0  0  0
  139.2700   73.3980  222.3250 N   0  0  0  0  0  0  0  0  0  0  0  0
  139.3960   74.2480  221.1740 C   0  0  0  0  0  0  0  0  0  0  0  0
  140.5770   75.1440  221.2620 C   0  0  0  0  0  0  0  0  0  0  0  0
  141.0350   75.5870  222.3450 O   0  0  0  0  0  0  0  0  0  0  0  0
  141.2260   75.5240  220.0550 N   0  0  0  0  0  0  0  0  0  0  0  0
  140.9130   74.9170  218.7760 C   0  0  0  0  0  0  0  0  0  0  0  0
  141.9090   75.4870  217.7900 C   0  0  2  0  0  0  0  0  0  0  0  0
  142.3260   74.5310  216.8670 O   0  0  0  0  0  0  0  0  0  0  0  0
  143.0240   75.9370  218.6920 C   0  0  0  0  0  0  0  0  0  0  0  0
  142.2600   76.5190  219.8480 C   0  0  1  0  0  0  0  0  0  0  0  0
  141.5940   77.8250  219.5330 C   0  0  0  0  0  0  0  0  0  0  0  0
  141.7530   78.8310  220.6120 C   0  0  0  0  0  0  0  0  0  0  0  0
  141.8520   80.1870  220.3790 C   0  0  0  0  0  0  0  0  0  0  0  0
  141.9990   81.0650  221.4570 C   0  0  0  0  0  0  0  0  0  0  0  0
  142.0450   80.5390  222.7540 C   0  0  0  0  0  0  0  0  0  0  0  0
  142.2310   81.5980  224.1500 Cl  0  0  0  0  0  0  0  0  0  0  0  0
  141.9470   79.1820  222.9900 C   0  0  0  0  0  0  0  0  0  0  0  0
  141.8010   78.3310  221.9140 C   0  0  0  0  0  0  0  0  0  0  0  0
  140.1970   71.5210  223.7040 C   0  0  0  0  0  0  0  0  0  0  0  0
  139.5970   70.2760  223.5020 C   0  0  0  0  0  0  0  0  0  0  0  0
  139.5040   69.4020  224.5650 C   0  0  0  0  0  0  0  0  0  0  0  0
  139.9980   69.7590  225.8080 C   0  0  0  0  0  0  0  0  0  0  0  0
  139.8780   68.8450  226.8370 C   0  0  0  0  0  0  0  0  0  0  0  0
  140.3810   69.2230  228.0790 C   0  0  0  0  0  0  0  0  0  0  0  0
  140.2850   68.3640  229.1120 F   0  0  0  0  0  0  0  0  0  0  0  0
  140.9650   70.4640  228.2320 C   0  0  0  0  0  0  0  0  0  0  0  0
  141.0830   71.3750  227.2000 C   0  0  0  0  0  0  0  0  0  0  0  0
  140.5820   70.9990  225.9650 C   0  0  0  0  0  0  0  0  0  0  0  0
  140.6810   71.8740  224.9220 N   0  0  0  0  0  0  0  0  0  0  0  0
  138.4920   73.4440  223.0210 H   0  0  0  0  0  0  0  0  0  0  0  0
  139.4960   73.6178  220.2780 H   0  0  0  0  0  0  0  0  0  0  0  0
  138.4971   74.8799  221.1222 H   0  0  0  0  0  0  0  0  0  0  0  0
  141.0173   73.8236  218.8360 H   0  0  0  0  0  0  0  0  0  0  0  0
  139.8775   75.1293  218.4715 H   0  0  0  0  0  0  0  0  0  0  0  0
  141.5031   76.2966  217.1656 H   0  0  0  0  0  0  0  0  0  0  0  0
  142.7110   73.7410  217.3410 H   0  0  0  0  0  0  0  0  0  0  0  0
  143.6499   75.0901  219.0099 H   0  0  0  0  0  0  0  0  0  0  0  0
  143.7261   76.6399  218.2198 H   0  0  0  0  0  0  0  0  0  0  0  0
  142.9223   76.7257  220.7016 H   0  0  0  0  0  0  0  0  0  0  0  0
  142.0337   78.2291  218.6092 H   0  0  0  0  0  0  0  0  0  0  0  0
  140.5175   77.6276  219.4227 H   0  0  0  0  0  0  0  0  0  0  0  0
  141.8155   80.5754  219.3505 H   0  0  0  0  0  0  0  0  0  0  0  0
  142.0771   82.1494  221.2894 H   0  0  0  0  0  0  0  0  0  0  0  0
  141.9846   78.7872  224.0160 H   0  0  0  0  0  0  0  0  0  0  0  0
  141.7216   77.2471  222.0841 H   0  0  0  0  0  0  0  0  0  0  0  0
  139.2055   69.9974  222.5125 H   0  0  0  0  0  0  0  0  0  0  0  0
  139.0352   68.4169  224.4245 H   0  0  0  0  0  0  0  0  0  0  0  0
  139.4065   67.8633  226.6821 H   0  0  0  0  0  0  0  0  0  0  0  0
  141.3550   70.7410  229.2225 H   0  0  0  0  0  0  0  0  0  0  0  0
  141.5547   72.3569  227.3528 H   0  0  0  0  0  0  0  0  0  0  0  0
  1  2  2  0
  2  3  1  0
  3  4  1  0
  4  5  1  0
  5  6  2  0
  5  7  1  0
  7  8  1  0
  8  9  1  0
  9 10  1  0
  9 11  1  0
 11 12  1  0
 12 13  1  0
 13 14  1  0
 14 15  2  0
 15 16  1  0
 16 17  2  0
 17 18  1  0
 17 19  1  0
 19 20  2  0
  2 21  1  0
 21 22  2  0
 22 23  1  0
 23 24  2  0
 24 25  1  0
 25 26  2  0
 26 27  1  0
 26 28  1  0
 28 29  2  0
 29 30  1  0
 30 31  2  0
 12  7  1  0
 20 14  1  0
 31 21  1  0
 30 24  1  0
  3 32  1  0
  4 33  1  0
  4 34  1  0
  8 35  1  0
  8 36  1  0
  9 37  1  6
 10 38  1  0
 11 39  1  0
 11 40  1  0
 12 41  1  1
 13 42  1  0
 13 43  1  0
 15 44  1  0
 16 45  1  0
 19 46  1  0
 20 47  1  0
 22 48  1  0
 23 49  1  0
 25 50  1  0
 28 51  1  0
 29 52  1  0
M  END
>  <smiles>  (14) 
O=C(NCC(=O)N1C[C@H](O)C[C@H]1Cc1ccc(Cl)cc1)c1ccc2cc(F)ccc2n1

>  <score_type>  (14) 
oracle

>  <origin>  (14) 
autodockgpu

>  <m_score__min__energy>  (14) 
-9.0399999999999991

>  <m_primary>  (14) 
energy

>  <rmsd>  (14) 
1.5270631076203762

>  <m_score__min__rmsd>  (14) 
1.5270631076203762

>  <meeko>  (14) 
{"free_energy": -8.58, "intermolecular_energy": -10.66, "internal_energy": -1.34, "cluster_size": 23, "cluster_id": 1, "rank_in_cluster": 15}

>  <energy>  (14) 
-8.7

>  <cluster_rmsd>  (14) 
0.99

>  <cluster>  (14) 
1

$$$$

     RDKit          3D

 52 55  0  0  0  0  0  0  0  0999 V2000
  140.4550   72.9860  222.7160 O   0  0  0  0  0  0  0  0  0  0  0  0
  140.4300   71.7410  222.8980 C   0  0  0  0  0  0  0  0  0  0  0  0
  140.3570   70.9300  221.7300 N   0  0  0  0  0  0  0  0  0  0  0  0
  140.3160   71.5810  220.4500 C   0  0  0  0  0  0  0  0  0  0  0  0
  141.5180   71.2840  219.6280 C   0  0  0  0  0  0  0  0  0  0  0  0
  141.6000   70.3030  218.8460 O   0  0  0  0  0  0  0  0  0  0  0  0
  142.6360   72.1560  219.7320 N   0  0  0  0  0  0  0  0  0  0  0  0
  143.8820   71.9160  219.0300 C   0  0  0  0  0  0  0  0  0  0  0  0
  144.8440   72.9780  219.5160 C   0  0  2  0  0  0  0  0  0  0  0  0
  146.1350   72.4770  219.6580 O   0  0  0  0  0  0  0  0  0  0  0  0
  144.2370   73.3760  220.8320 C   0  0  0  0  0  0  0  0  0  0  0  0
  142.7710   73.3800  220.4980 C   0  0  1  0  0  0  0  0  0  0  0  0
  142.3550   74.5260  219.6240 C   0  0  0  0  0  0  0  0  0  0  0  0
  141.9340   75.7200  220.3970 C   0  0  0  0  0  0  0  0  0  0  0  0
  142.2590   77.0110  220.0390 C   0  0  0  0  0  0  0  0  0  0  0  0
  141.8190   78.0790  220.8270 C   0  0  0  0  0  0  0  0  0  0  0  0
  141.0560   77.8060  221.9680 C   0  0  0  0  0  0  0  0  0  0  0  0
  140.4750   79.1120  222.9980 Cl  0  0  0  0  0  0  0  0  0  0  0  0
  140.7290   76.5140  222.3300 C   0  0  0  0  0  0  0  0  0  0  0  0
  141.1710   75.4730  221.5410 C   0  0  0  0  0  0  0  0  0  0  0  0
  140.4740   71.1360  224.2260 C   0  0  0  0  0  0  0  0  0  0  0  0
  140.9070   71.9470  225.2770 C   0  0  0  0  0  0  0  0  0  0  0  0
  140.9640   71.4150  226.5490 C   0  0  0  0  0  0  0  0  0  0  0  0
  140.5980   70.0990  226.7720 C   0  0  0  0  0  0  0  0  0  0  0  0
  140.6740   69.6180  228.0640 C   0  0  0  0  0  0  0  0  0  0  0  0
  140.3010   68.2930  228.2690 C   0  0  0  0  0  0  0  0  0  0  0  0
  140.3600   67.7810  229.5140 F   0  0  0  0  0  0  0  0  0  0  0  0
  139.8790   67.5280  227.1990 C   0  0  0  0  0  0  0  0  0  0  0  0
  139.8040   68.0130  225.9090 C   0  0  0  0  0  0  0  0  0  0  0  0
  140.1760   69.3320  225.7060 C   0  0  0  0  0  0  0  0  0  0  0  0
  140.1150   69.8440  224.4420 N   0  0  0  0  0  0  0  0  0  0  0  0
  140.3360   69.8960  221.8770 H   0  0  0  0  0  0  0  0  0  0  0  0
  139.4227   71.2384  219.9072 H   0  0  0  0  0  0  0  0  0  0  0  0
  140.2876   72.6666  220.6251 H   0  0  0  0  0  0  0  0  0  0  0  0
  144.2675   70.9134  219.2670 H   0  0  0  0  0  0  0  0  0  0  0  0
  143.7463   71.9631  217.9394 H   0  0  0  0  0  0  0  0  0  0  0  0
  144.9629   73.8221  218.8207 H   0  0  0  0  0  0  0  0  0  0  0  0
  146.1840   71.8720  220.4500 H   0  0  0  0  0  0  0  0  0  0  0  0
  144.4677   72.6428  221.6189 H   0  0  0  0  0  0  0  0  0  0  0  0
  144.6094   74.3331  221.2261 H   0  0  0  0  0  0  0  0  0  0  0  0
  142.1541   73.4644  221.4048 H   0  0  0  0  0  0  0  0  0  0  0  0
  143.2045   74.8047  218.9831 H   0  0  0  0  0  0  0  0  0  0  0  0
  141.4883   74.1929  219.0342 H   0  0  0  0  0  0  0  0  0  0  0  0
  142.8613   77.2000  219.1382 H   0  0  0  0  0  0  0  0  0  0  0  0
  142.0681   79.1153  220.5549 H   0  0  0  0  0  0  0  0  0  0  0  0
  140.1277   76.3191  223.2302 H   0  0  0  0  0  0  0  0  0  0  0  0
  140.9203   74.4376  221.8151 H   0  0  0  0  0  0  0  0  0  0  0  0
  141.1977   72.9920  225.0941 H   0  0  0  0  0  0  0  0  0  0  0  0
  141.3017   72.0395  227.3892 H   0  0  0  0  0  0  0  0  0  0  0  0
  141.0143   70.2539  228.8945 H   0  0  0  0  0  0  0  0  0  0  0  0
  139.5891   66.4831  227.3838 H   0  0  0  0  0  0  0  0  0  0  0  0
  139.4632   67.3790  225.0772 H   0  0  0  0  0  0  0  0  0  0  0  0
  1  2  2  0
  2  3  1  0
  3  4  1  0
  4  5  1  0
  5  6  2  0
  5  7  1  0
  7  8  1  0
  8  9  1  0
  9 10  1  0
  9 11  1  0
 11 12  1  0
 12 13  1  0
 13 14  1  0
 14 15  2  0
 15 16  1  0
 16 17  2  0
 17 18  1  0
 17 19  1  0
 19 20  2  0
  2 21  1  0
 21 22  2  0
 22 23  1  0
 23 24  2  0
 24 25  1  0
 25 26  2  0
 26 27  1  0
 26 28  1  0
 28 29  2  0
 29 30  1  0
 30 31  2  0
 12  7  1  0
 20 14  1  0
 31 21  1  0
 30 24  1  0
  3 32  1  0
  4 33  1  0
  4 34  1  0
  8 35  1  0
  8 36  1  0
  9 37  1  6
 10 38  1  0
 11 39  1  0
 11 40  1  0
 12 41  1  1
 13 42  1  0
 13 43  1  0
 15 44  1  0
 16 45  1  0
 19 46  1  0
 20 47  1  0
 22 48  1  0
 23 49  1  0
 25 50  1  0
 28 51  1  0
 29 52  1  0
M  END
>  <smiles>  (15) 
O=C(NCC(=O)N1C[C@H](O)C[C@H]1Cc1ccc(Cl)cc1)c1ccc2cc(F)ccc2n1

>  <score_type>  (15) 
oracle

>  <origin>  (15) 
autodockgpu

>  <m_score__min__energy>  (15) 
-9.0399999999999991

>  <m_primary>  (15) 
energy

>  <rmsd>  (15) 
4.201512793677364

>  <m_score__min__rmsd>  (15) 
4.201512793677364

>  <meeko>  (15) 
{"free_energy": -8.53, "intermolecular_energy": -10.62, "internal_energy": -1.84, "cluster_size": 23, "cluster_id": 1, "rank_in_cluster": 16}

>  <energy>  (15) 
-8.58

>  <cluster_rmsd>  (15) 
1.99

>  <cluster>  (15) 
1

$$$$

     RDKit          3D

 52 55  0  0  0  0  0  0  0  0999 V2000
  140.2420   70.8290  221.2440 O   0  0  0  0  0  0  0  0  0  0  0  0
  139.9060   71.3920  222.3180 C   0  0  0  0  0  0  0  0  0  0  0  0
  139.5340   72.7630  222.2280 N   0  0  0  0  0  0  0  0  0  0  0  0
  139.5700   73.3950  220.9380 C   0  0  0  0  0  0  0  0  0  0  0  0
  139.6450   74.8750  221.0370 C   0  0  0  0  0  0  0  0  0  0  0  0
  140.7220   75.5210  220.9990 O   0  0  0  0  0  0  0  0  0  0  0  0
  138.4320   75.6020  221.1830 N   0  0  0  0  0  0  0  0  0  0  0  0
  137.1390   74.9530  221.2820 C   0  0  0  0  0  0  0  0  0  0  0  0
  136.1130   76.0660  221.2780 C   0  0  2  0  0  0  0  0  0  0  0  0
  134.9740   75.7130  220.5590 O   0  0  0  0  0  0  0  0  0  0  0  0
  136.8710   77.1920  220.6330 C   0  0  0  0  0  0  0  0  0  0  0  0
  138.2300   77.0370  221.2570 C   0  0  1  0  0  0  0  0  0  0  0  0
  138.2790   77.4390  222.7010 C   0  0  0  0  0  0  0  0  0  0  0  0
  139.4010   78.3600  223.0070 C   0  0  0  0  0  0  0  0  0  0  0  0
  139.2250   79.6480  223.4670 C   0  0  0  0  0  0  0  0  0  0  0  0
  140.3410   80.4480  223.7310 C   0  0  0  0  0  0  0  0  0  0  0  0
  141.6180   79.9150  223.5180 C   0  0  0  0  0  0  0  0  0  0  0  0
  143.0600   80.8770  223.8320 Cl  0  0  0  0  0  0  0  0  0  0  0  0
  141.7980   78.6260  223.0570 C   0  0  0  0  0  0  0  0  0  0  0  0
  140.6850   77.8510  222.8020 C   0  0  0  0  0  0  0  0  0  0  0  0
  139.8900   70.6980  223.6020 C   0  0  0  0  0  0  0  0  0  0  0  0
  139.2470   69.4580  223.6420 C   0  0  0  0  0  0  0  0  0  0  0  0
  139.2080   68.7670  224.8360 C   0  0  0  0  0  0  0  0  0  0  0  0
  139.7950   69.3000  225.9710 C   0  0  0  0  0  0  0  0  0  0  0  0
  139.7260   68.5660  227.1380 C   0  0  0  0  0  0  0  0  0  0  0  0
  140.3230   69.1170  228.2680 C   0  0  0  0  0  0  0  0  0  0  0  0
  140.2790   68.4370  229.4300 F   0  0  0  0  0  0  0  0  0  0  0  0
  140.9460   70.3460  228.1820 C   0  0  0  0  0  0  0  0  0  0  0  0
  141.0130   71.0770  227.0120 C   0  0  0  0  0  0  0  0  0  0  0  0
  140.4190   70.5280  225.8880 C   0  0  0  0  0  0  0  0  0  0  0  0
  140.4660   71.2220  224.7140 N   0  0  0  0  0  0  0  0  0  0  0  0
  139.2550   73.2340  223.1170 H   0  0  0  0  0  0  0  0  0  0  0  0
  140.4525   73.0320  220.3908 H   0  0  0  0  0  0  0  0  0  0  0  0
  138.6381   73.1398  220.4123 H   0  0  0  0  0  0  0  0  0  0  0  0
  136.9804   74.2837  220.4236 H   0  0  0  0  0  0  0  0  0  0  0  0
  137.0645   74.3392  222.1918 H   0  0  0  0  0  0  0  0  0  0  0  0
  135.7274   76.3196  222.2765 H   0  0  0  0  0  0  0  0  0  0  0  0
  134.1570   76.0520  221.0220 H   0  0  0  0  0  0  0  0  0  0  0  0
  136.9149   77.0725  219.5404 H   0  0  0  0  0  0  0  0  0  0  0  0
  136.4181   78.1826  220.7866 H   0  0  0  0  0  0  0  0  0  0  0  0
  138.9762   77.6668  220.7506 H   0  0  0  0  0  0  0  0  0  0  0  0
  137.3340   77.9398  222.9580 H   0  0  0  0  0  0  0  0  0  0  0  0
  138.4323   76.5245  223.2928 H   0  0  0  0  0  0  0  0  0  0  0  0
  138.2112   80.0443  223.6255 H   0  0  0  0  0  0  0  0  0  0  0  0
  140.2179   81.4772  224.0993 H   0  0  0  0  0  0  0  0  0  0  0  0
  142.8094   78.2245  222.8961 H   0  0  0  0  0  0  0  0  0  0  0  0
  140.8106   76.8221  222.4336 H   0  0  0  0  0  0  0  0  0  0  0  0
  138.7802   69.0401  222.7379 H   0  0  0  0  0  0  0  0  0  0  0  0
  138.7083   67.7883  224.8861 H   0  0  0  0  0  0  0  0  0  0  0  0
  139.2216   67.5891  227.1733 H   0  0  0  0  0  0  0  0  0  0  0  0
  141.4108   70.7626  229.0878 H   0  0  0  0  0  0  0  0  0  0  0  0
  141.5169   72.0541  226.9746 H   0  0  0  0  0  0  0  0  0  0  0  0
  1  2  2  0
  2  3  1  0
  3  4  1  0
  4  5  1  0
  5  6  2  0
  5  7  1  0
  7  8  1  0
  8  9  1  0
  9 10  1  0
  9 11  1  0
 11 12  1  0
 12 13  1  0
 13 14  1  0
 14 15  2  0
 15 16  1  0
 16 17  2  0
 17 18  1  0
 17 19  1  0
 19 20  2  0
  2 21  1  0
 21 22  2  0
 22 23  1  0
 23 24  2  0
 24 25  1  0
 25 26  2  0
 26 27  1  0
 26 28  1  0
 28 29  2  0
 29 30  1  0
 30 31  2  0
 12  7  1  0
 20 14  1  0
 31 21  1  0
 30 24  1  0
  3 32  1  0
  4 33  1  0
  4 34  1  0
  8 35  1  0
  8 36  1  0
  9 37  1  1
 10 38  1  0
 11 39  1  0
 11 40  1  0
 12 41  1  6
 13 42  1  0
 13 43  1  0
 15 44  1  0
 16 45  1  0
 19 46  1  0
 20 47  1  0
 22 48  1  0
 23 49  1  0
 25 50  1  0
 28 51  1  0
 29 52  1  0
M  END
>  <smiles>  (16) 
O=C(NCC(=O)N1C[C@H](O)C[C@H]1Cc1ccc(Cl)cc1)c1ccc2cc(F)ccc2n1

>  <score_type>  (16) 
oracle

>  <origin>  (16) 
autodockgpu

>  <m_score__min__energy>  (16) 
-9.0399999999999991

>  <m_primary>  (16) 
energy

>  <rmsd>  (16) 
2.5353064180646334

>  <m_score__min__rmsd>  (16) 
2.5353064180646334

>  <meeko>  (16) 
{"free_energy": -7.8, "intermolecular_energy": -9.89, "internal_energy": -1.34, "cluster_size": 3, "cluster_id": 5, "rank_in_cluster": 3}

>  <energy>  (16) 
-8.53

>  <cluster_rmsd>  (16) 
0.95

>  <cluster>  (16) 
1

$$$$

     RDKit          3D

 52 55  0  0  0  0  0  0  0  0999 V2000
  140.3130   72.9930  222.7100 O   0  0  0  0  0  0  0  0  0  0  0  0
  140.4160   71.7520  222.8840 C   0  0  0  0  0  0  0  0  0  0  0  0
  140.4890   70.9490  221.7100 N   0  0  0  0  0  0  0  0  0  0  0  0
  140.4400   71.6060  220.4330 C   0  0  0  0  0  0  0  0  0  0  0  0
  141.6650   71.3660  219.6280 C   0  0  0  0  0  0  0  0  0  0  0  0
  141.8510   70.3350  218.9340 O   0  0  0  0  0  0  0  0  0  0  0  0
  142.6850   72.3570  219.6430 N   0  0  0  0  0  0  0  0  0  0  0  0
  143.7980   72.3470  218.7140 C   0  0  0  0  0  0  0  0  0  0  0  0
  144.7160   73.4680  219.1540 C   0  0  2  0  0  0  0  0  0  0  0  0
  146.0570   73.1210  219.0100 O   0  0  0  0  0  0  0  0  0  0  0  0
  144.3230   73.6520  220.5930 C   0  0  0  0  0  0  0  0  0  0  0  0
  142.8290   73.5050  220.5190 C   0  0  1  0  0  0  0  0  0  0  0  0
  142.1400   74.6710  219.8760 C   0  0  0  0  0  0  0  0  0  0  0  0
  140.9650   75.1460  220.6470 C   0  0  0  0  0  0  0  0  0  0  0  0
  141.0580   75.9980  221.7270 C   0  0  0  0  0  0  0  0  0  0  0  0
  139.8960   76.3960  222.3960 C   0  0  0  0  0  0  0  0  0  0  0  0
  138.6610   75.9130  221.9480 C   0  0  0  0  0  0  0  0  0  0  0  0
  137.1650   76.3790  222.7540 Cl  0  0  0  0  0  0  0  0  0  0  0  0
  138.5640   75.0580  220.8670 C   0  0  0  0  0  0  0  0  0  0  0  0
  139.7210   74.6770  220.2190 C   0  0  0  0  0  0  0  0  0  0  0  0
  140.4610   71.1400  224.2090 C   0  0  0  0  0  0  0  0  0  0  0  0
  140.9250   71.9380  225.2580 C   0  0  0  0  0  0  0  0  0  0  0  0
  140.9840   71.4000  226.5270 C   0  0  0  0  0  0  0  0  0  0  0  0
  140.5900   70.0910  226.7500 C   0  0  0  0  0  0  0  0  0  0  0  0
  140.6690   69.6040  228.0400 C   0  0  0  0  0  0  0  0  0  0  0  0
  140.2680   68.2880  228.2440 C   0  0  0  0  0  0  0  0  0  0  0  0
  140.3300   67.7690  229.4860 F   0  0  0  0  0  0  0  0  0  0  0  0
  139.8170   67.5360  227.1770 C   0  0  0  0  0  0  0  0  0  0  0  0
  139.7380   68.0270  225.8890 C   0  0  0  0  0  0  0  0  0  0  0  0
  140.1380   69.3380  225.6860 C   0  0  0  0  0  0  0  0  0  0  0  0
  140.0740   69.8570  224.4250 N   0  0  0  0  0  0  0  0  0  0  0  0
  140.5750   69.9180  221.8500 H   0  0  0  0  0  0  0  0  0  0  0  0
  139.5704   71.2293  219.8746 H   0  0  0  0  0  0  0  0  0  0  0  0
  140.3632   72.6883  220.6142 H   0  0  0  0  0  0  0  0  0  0  0  0
  144.3243   71.3820  218.7578 H   0  0  0  0  0  0  0  0  0  0  0  0
  143.4594   72.4859  217.6767 H   0  0  0  0  0  0  0  0  0  0  0  0
  144.6152   74.3865  218.5572 H   0  0  0  0  0  0  0  0  0  0  0  0
  146.6070   73.9370  218.8430 H   0  0  0  0  0  0  0  0  0  0  0  0
  144.7713   72.8783  221.2337 H   0  0  0  0  0  0  0  0  0  0  0  0
  144.6580   74.6041  221.0303 H   0  0  0  0  0  0  0  0  0  0  0  0
  142.3852   73.4189  221.5218 H   0  0  0  0  0  0  0  0  0  0  0  0
  142.8594   75.4984  219.7879 H   0  0  0  0  0  0  0  0  0  0  0  0
  141.7761   74.3375  218.8930 H   0  0  0  0  0  0  0  0  0  0  0  0
  142.0407   76.3627  222.0607 H   0  0  0  0  0  0  0  0  0  0  0  0
  139.9517   77.0763  223.2586 H   0  0  0  0  0  0  0  0  0  0  0  0
  137.5843   74.6886  220.5299 H   0  0  0  0  0  0  0  0  0  0  0  0
  139.6630   73.9969  219.3564 H   0  0  0  0  0  0  0  0  0  0  0  0
  141.2377   72.9767  225.0752 H   0  0  0  0  0  0  0  0  0  0  0  0
  141.3456   72.0134  227.3655 H   0  0  0  0  0  0  0  0  0  0  0  0
  141.0328   70.2290  228.8689 H   0  0  0  0  0  0  0  0  0  0  0  0
  139.5062   66.4972  227.3620 H   0  0  0  0  0  0  0  0  0  0  0  0
  139.3730   67.4039  225.0592 H   0  0  0  0  0  0  0  0  0  0  0  0
  1  2  2  0
  2  3  1  0
  3  4  1  0
  4  5  1  0
  5  6  2  0
  5  7  1  0
  7  8  1  0
  8  9  1  0
  9 10  1  0
  9 11  1  0
 11 12  1  0
 12 13  1  0
 13 14  1  0
 14 15  2  0
 15 16  1  0
 16 17  2  0
 17 18  1  0
 17 19  1  0
 19 20  2  0
  2 21  1  0
 21 22  2  0
 22 23  1  0
 23 24  2  0
 24 25  1  0
 25 26  2  0
 26 27  1  0
 26 28  1  0
 28 29  2  0
 29 30  1  0
 30 31  2  0
 12  7  1  0
 20 14  1  0
 31 21  1  0
 30 24  1  0
  3 32  1  0
  4 33  1  0
  4 34  1  0
  8 35  1  0
  8 36  1  0
  9 37  1  6
 10 38  1  0
 11 39  1  0
 11 40  1  0
 12 41  1  1
 13 42  1  0
 13 43  1  0
 15 44  1  0
 16 45  1  0
 19 46  1  0
 20 47  1  0
 22 48  1  0
 23 49  1  0
 25 50  1  0
 28 51  1  0
 29 52  1  0
M  END
>  <smiles>  (17) 
O=C(NCC(=O)N1C[C@H](O)C[C@H]1Cc1ccc(Cl)cc1)c1ccc2cc(F)ccc2n1

>  <score_type>  (17) 
oracle

>  <origin>  (17) 
autodockgpu

>  <m_score__min__energy>  (17) 
-9.0399999999999991

>  <m_primary>  (17) 
energy

>  <rmsd>  (17) 
4.097271955863429

>  <m_score__min__rmsd>  (17) 
4.097271955863429

>  <meeko>  (17) 
{"free_energy": -8.0, "intermolecular_energy": -10.09, "internal_energy": -2.09, "cluster_size": 23, "cluster_id": 1, "rank_in_cluster": 22}

>  <energy>  (17) 
-8.42

>  <cluster_rmsd>  (17) 
1.01

>  <cluster>  (17) 
1

$$$$

     RDKit          3D

 52 55  0  0  0  0  0  0  0  0999 V2000
  136.2140   76.0350  221.5920 O   0  0  0  0  0  0  0  0  0  0  0  0
  137.3560   75.9700  222.1160 C   0  0  0  0  0  0  0  0  0  0  0  0
  137.8760   74.6640  222.3430 N   0  0  0  0  0  0  0  0  0  0  0  0
  137.0720   73.5350  221.9660 C   0  0  0  0  0  0  0  0  0  0  0  0
  137.8880   72.4160  221.4270 C   0  0  0  0  0  0  0  0  0  0  0  0
  137.3980   71.4160  220.8440 O   0  0  0  0  0  0  0  0  0  0  0  0
  139.3000   72.4790  221.5800 N   0  0  0  0  0  0  0  0  0  0  0  0
  140.1150   73.4740  220.9100 C   0  0  0  0  0  0  0  0  0  0  0  0
  141.5510   73.1100  221.2170 C   0  0  2  0  0  0  0  0  0  0  0  0
  142.3830   73.3300  220.1220 O   0  0  0  0  0  0  0  0  0  0  0  0
  141.4400   71.6530  221.5680 C   0  0  0  0  0  0  0  0  0  0  0  0
  140.1710   71.6330  222.3730 C   0  0  1  0  0  0  0  0  0  0  0  0
  140.3100   72.2520  223.7320 C   0  0  0  0  0  0  0  0  0  0  0  0
  140.3750   71.2470  224.8220 C   0  0  0  0  0  0  0  0  0  0  0  0
  139.9000   69.9580  224.6980 C   0  0  0  0  0  0  0  0  0  0  0  0
  140.0020   69.0760  225.7780 C   0  0  0  0  0  0  0  0  0  0  0  0
  140.5890   69.5290  226.9660 C   0  0  0  0  0  0  0  0  0  0  0  0
  140.7430   68.4620  228.3590 Cl  0  0  0  0  0  0  0  0  0  0  0  0
  141.0650   70.8190  227.0930 C   0  0  0  0  0  0  0  0  0  0  0  0
  140.9560   71.6760  226.0170 C   0  0  0  0  0  0  0  0  0  0  0  0
  138.1280   77.1540  222.4800 C   0  0  0  0  0  0  0  0  0  0  0  0
  137.4110   78.3320  222.7010 C   0  0  0  0  0  0  0  0  0  0  0  0
  138.1010   79.4760  223.0470 C   0  0  0  0  0  0  0  0  0  0  0  0
  139.4800   79.4490  223.1700 C   0  0  0  0  0  0  0  0  0  0  0  0
  140.1190   80.6230  223.5190 C   0  0  0  0  0  0  0  0  0  0  0  0
  141.5040   80.5760  223.6390 C   0  0  0  0  0  0  0  0  0  0  0  0
  142.1710   81.6970  223.9760 F   0  0  0  0  0  0  0  0  0  0  0  0
  142.1710   79.3890  223.4100 C   0  0  0  0  0  0  0  0  0  0  0  0
  141.5280   78.2180  223.0620 C   0  0  0  0  0  0  0  0  0  0  0  0
  140.1490   78.2650  222.9430 C   0  0  0  0  0  0  0  0  0  0  0  0
  139.4800   77.1260  222.6000 N   0  0  0  0  0  0  0  0  0  0  0  0
  138.8240   74.6050  222.7780 H   0  0  0  0  0  0  0  0  0  0  0  0
  136.5247   73.1792  222.8513 H   0  0  0  0  0  0  0  0  0  0  0  0
  136.3838   73.8620  221.1727 H   0  0  0  0  0  0  0  0  0  0  0  0
  139.9371   73.4465  219.8248 H   0  0  0  0  0  0  0  0  0  0  0  0
  139.8741   74.4908  221.2536 H   0  0  0  0  0  0  0  0  0  0  0  0
  142.0019   73.7149  222.0175 H   0  0  0  0  0  0  0  0  0  0  0  0
  142.8640   74.1980  220.2250 H   0  0  0  0  0  0  0  0  0  0  0  0
  141.3537   71.0283  220.6667 H   0  0  0  0  0  0  0  0  0  0  0  0
  142.3150   71.2528  222.1011 H   0  0  0  0  0  0  0  0  0  0  0  0
  139.8279   70.6035  222.5528 H   0  0  0  0  0  0  0  0  0  0  0  0
  141.2324   72.8511  223.7518 H   0  0  0  0  0  0  0  0  0  0  0  0
  139.4162   72.8692  223.9058 H   0  0  0  0  0  0  0  0  0  0  0  0
  139.4432   69.6256  223.7541 H   0  0  0  0  0  0  0  0  0  0  0  0
  139.6279   68.0448  225.6960 H   0  0  0  0  0  0  0  0  0  0  0  0
  141.5226   71.1572  228.0344 H   0  0  0  0  0  0  0  0  0  0  0  0
  141.3303   72.7069  226.1015 H   0  0  0  0  0  0  0  0  0  0  0  0
  136.3157   78.3477  222.6011 H   0  0  0  0  0  0  0  0  0  0  0  0
  137.5533   80.4131  223.2258 H   0  0  0  0  0  0  0  0  0  0  0  0
  139.5580   81.5528  223.6941 H   0  0  0  0  0  0  0  0  0  0  0  0
  143.2664   79.3758  223.5095 H   0  0  0  0  0  0  0  0  0  0  0  0
  142.0872   77.2871  222.8867 H   0  0  0  0  0  0  0  0  0  0  0  0
  1  2  2  0
  2  3  1  0
  3  4  1  0
  4  5  1  0
  5  6  2  0
  5  7  1  0
  7  8  1  0
  8  9  1  0
  9 10  1  0
  9 11  1  0
 11 12  1  0
 12 13  1  0
 13 14  1  0
 14 15  2  0
 15 16  1  0
 16 17  2  0
 17 18  1  0
 17 19  1  0
 19 20  2  0
  2 21  1  0
 21 22  2  0
 22 23  1  0
 23 24  2  0
 24 25  1  0
 25 26  2  0
 26 27  1  0
 26 28  1  0
 28 29  2  0
 29 30  1  0
 30 31  2  0
 12  7  1  0
 20 14  1  0
 31 21  1  0
 30 24  1  0
  3 32  1  0
  4 33  1  0
  4 34  1  0
  8 35  1  0
  8 36  1  0
  9 37  1  1
 10 38  1  0
 11 39  1  0
 11 40  1  0
 12 41  1  1
 13 42  1  0
 13 43  1  0
 15 44  1  0
 16 45  1  0
 19 46  1  0
 20 47  1  0
 22 48  1  0
 23 49  1  0
 25 50  1  0
 28 51  1  0
 29 52  1  0
M  END
>  <smiles>  (18) 
O=C(NCC(=O)N1C[C@H](O)C[C@H]1Cc1ccc(Cl)cc1)c1ccc2cc(F)ccc2n1

>  <score_type>  (18) 
oracle

>  <origin>  (18) 
autodockgpu

>  <m_score__min__energy>  (18) 
-9.0399999999999991

>  <m_primary>  (18) 
energy

>  <rmsd>  (18) 
7.7319342294754065

>  <m_score__min__rmsd>  (18) 
7.7319342294754065

>  <meeko>  (18) 
{"free_energy": -7.53, "intermolecular_energy": -9.62, "internal_energy": -1.59, "cluster_size": 1, "cluster_id": 7, "rank_in_cluster": 1}

>  <energy>  (18) 
-8.31

>  <cluster_rmsd>  (18) 
1.56

>  <cluster>  (18) 
1

$$$$

     RDKit          3D

 52 55  0  0  0  0  0  0  0  0999 V2000
  140.5430   72.9540  222.7080 O   0  0  0  0  0  0  0  0  0  0  0  0
  140.4380   71.7150  222.9000 C   0  0  0  0  0  0  0  0  0  0  0  0
  140.2860   70.9020  221.7410 N   0  0  0  0  0  0  0  0  0  0  0  0
  140.2630   71.5460  220.4560 C   0  0  0  0  0  0  0  0  0  0  0  0
  141.4600   71.2180  219.6400 C   0  0  0  0  0  0  0  0  0  0  0  0
  141.5210   70.2340  218.8600 O   0  0  0  0  0  0  0  0  0  0  0  0
  142.5990   72.0620  219.7460 N   0  0  0  0  0  0  0  0  0  0  0  0
  143.8330   71.8020  219.0320 C   0  0  0  0  0  0  0  0  0  0  0  0
  144.8240   72.8350  219.5250 C   0  0  2  0  0  0  0  0  0  0  0  0
  146.1040   72.3010  219.6500 O   0  0  0  0  0  0  0  0  0  0  0  0
  144.2360   73.2300  220.8500 C   0  0  0  0  0  0  0  0  0  0  0  0
  142.7680   73.2720  220.5280 C   0  0  1  0  0  0  0  0  0  0  0  0
  142.3730   74.4390  219.6720 C   0  0  0  0  0  0  0  0  0  0  0  0
  141.8920   75.5990  220.4610 C   0  0  0  0  0  0  0  0  0  0  0  0
  141.0960   75.4800  221.5810 C   0  0  0  0  0  0  0  0  0  0  0  0
  140.6890   76.6300  222.2650 C   0  0  0  0  0  0  0  0  0  0  0  0
  141.1020   77.8800  221.7900 C   0  0  0  0  0  0  0  0  0  0  0  0
  140.6180   79.3610  222.6120 Cl  0  0  0  0  0  0  0  0  0  0  0  0
  141.8990   78.0030  220.6690 C   0  0  0  0  0  0  0  0  0  0  0  0
  142.2920   76.8580  220.0060 C   0  0  0  0  0  0  0  0  0  0  0  0
  140.4670   71.1170  224.2320 C   0  0  0  0  0  0  0  0  0  0  0  0
  140.8190   71.9540  225.2930 C   0  0  0  0  0  0  0  0  0  0  0  0
  140.8600   71.4300  226.5690 C   0  0  0  0  0  0  0  0  0  0  0  0
  140.5580   70.0960  226.7850 C   0  0  0  0  0  0  0  0  0  0  0  0
  140.6140   69.6240  228.0820 C   0  0  0  0  0  0  0  0  0  0  0  0
  140.3060   68.2810  228.2800 C   0  0  0  0  0  0  0  0  0  0  0  0
  140.3490   67.7760  229.5290 F   0  0  0  0  0  0  0  0  0  0  0  0
  139.9650   67.4910  227.2000 C   0  0  0  0  0  0  0  0  0  0  0  0
  139.9090   67.9670  225.9060 C   0  0  0  0  0  0  0  0  0  0  0  0
  140.2160   69.3040  225.7090 C   0  0  0  0  0  0  0  0  0  0  0  0
  140.1710   69.8080  224.4420 N   0  0  0  0  0  0  0  0  0  0  0  0
  140.1980   69.8730  221.8960 H   0  0  0  0  0  0  0  0  0  0  0  0
  139.3641   71.2194  219.9126 H   0  0  0  0  0  0  0  0  0  0  0  0
  140.2578   72.6330  220.6242 H   0  0  0  0  0  0  0  0  0  0  0  0
  144.1962   70.7875  219.2529 H   0  0  0  0  0  0  0  0  0  0  0  0
  143.6906   71.8667  217.9432 H   0  0  0  0  0  0  0  0  0  0  0  0
  144.9583   73.6856  218.8406 H   0  0  0  0  0  0  0  0  0  0  0  0
  146.1760   71.7760  220.4960 H   0  0  0  0  0  0  0  0  0  0  0  0
  144.4556   72.4818  221.6258 H   0  0  0  0  0  0  0  0  0  0  0  0
  144.6332   74.1734  221.2528 H   0  0  0  0  0  0  0  0  0  0  0  0
  142.1600   73.3578  221.4407 H   0  0  0  0  0  0  0  0  0  0  0  0
  143.2472   74.7537  219.0831 H   0  0  0  0  0  0  0  0  0  0  0  0
  141.5425   74.1103  219.0299 H   0  0  0  0  0  0  0  0  0  0  0  0
  140.7831   74.4864  221.9342 H   0  0  0  0  0  0  0  0  0  0  0  0
  140.0552   76.5533  223.1608 H   0  0  0  0  0  0  0  0  0  0  0  0
  142.2145   78.9942  220.3114 H   0  0  0  0  0  0  0  0  0  0  0  0
  142.9262   76.9375  219.1108 H   0  0  0  0  0  0  0  0  0  0  0  0
  141.0594   73.0125  225.1148 H   0  0  0  0  0  0  0  0  0  0  0  0
  141.1336   72.0743  227.4175 H   0  0  0  0  0  0  0  0  0  0  0  0
  140.8896   70.2800  228.9208 H   0  0  0  0  0  0  0  0  0  0  0  0
  139.7267   66.4322  227.3797 H   0  0  0  0  0  0  0  0  0  0  0  0
  139.6323   67.3127  225.0661 H   0  0  0  0  0  0  0  0  0  0  0  0
  1  2  2  0
  2  3  1  0
  3  4  1  0
  4  5  1  0
  5  6  2  0
  5  7  1  0
  7  8  1  0
  8  9  1  0
  9 10  1  0
  9 11  1  0
 11 12  1  0
 12 13  1  0
 13 14  1  0
 14 15  2  0
 15 16  1  0
 16 17  2  0
 17 18  1  0
 17 19  1  0
 19 20  2  0
  2 21  1  0
 21 22  2  0
 22 23  1  0
 23 24  2  0
 24 25  1  0
 25 26  2  0
 26 27  1  0
 26 28  1  0
 28 29  2  0
 29 30  1  0
 30 31  2  0
 12  7  1  0
 20 14  1  0
 31 21  1  0
 30 24  1  0
  3 32  1  0
  4 33  1  0
  4 34  1  0
  8 35  1  0
  8 36  1  0
  9 37  1  6
 10 38  1  0
 11 39  1  0
 11 40  1  0
 12 41  1  1
 13 42  1  0
 13 43  1  0
 15 44  1  0
 16 45  1  0
 19 46  1  0
 20 47  1  0
 22 48  1  0
 23 49  1  0
 25 50  1  0
 28 51  1  0
 29 52  1  0
M  END
>  <smiles>  (19) 
O=C(NCC(=O)N1C[C@H](O)C[C@H]1Cc1ccc(Cl)cc1)c1ccc2cc(F)ccc2n1

>  <score_type>  (19) 
oracle

>  <origin>  (19) 
autodockgpu

>  <m_score__min__energy>  (19) 
-9.0399999999999991

>  <m_primary>  (19) 
energy

>  <rmsd>  (19) 
4.225800930040808

>  <m_score__min__rmsd>  (19) 
4.225800930040808

>  <meeko>  (19) 
{"free_energy": -8.42, "intermolecular_energy": -10.51, "internal_energy": -1.84, "cluster_size": 23, "cluster_id": 1, "rank_in_cluster": 17}

>  <energy>  (19) 
-8.28

>  <cluster_rmsd>  (19) 
0.56

>  <cluster>  (19) 
1

$$$$

     RDKit          3D

 52 55  0  0  0  0  0  0  0  0999 V2000
  139.9500   73.4410  222.3490 O   0  0  0  0  0  0  0  0  0  0  0  0
  139.8680   74.4120  221.5530 C   0  0  0  0  0  0  0  0  0  0  0  0
  140.2220   74.1530  220.1980 N   0  0  0  0  0  0  0  0  0  0  0  0
  140.6410   72.8250  219.8440 C   0  0  0  0  0  0  0  0  0  0  0  0
  141.8250   72.3820  220.6230 C   0  0  0  0  0  0  0  0  0  0  0  0
  141.7580   71.6080  221.6110 O   0  0  0  0  0  0  0  0  0  0  0  0
  143.1060   72.8590  220.2300 N   0  0  0  0  0  0  0  0  0  0  0  0
  144.1530   71.9790  219.7480 C   0  0  0  0  0  0  0  0  0  0  0  0
  145.3810   72.8480  219.5800 C   0  0  2  0  0  0  0  0  0  0  0  0
  146.5430   72.1750  219.9490 O   0  0  0  0  0  0  0  0  0  0  0  0
  145.0760   74.0060  220.4880 C   0  0  0  0  0  0  0  0  0  0  0  0
  143.6110   74.2180  220.2240 C   0  0  1  0  0  0  0  0  0  0  0  0
  143.3220   74.8170  218.8790 C   0  0  0  0  0  0  0  0  0  0  0  0
  142.8800   76.2310  218.9580 C   0  0  0  0  0  0  0  0  0  0  0  0
  142.2710   76.7770  220.0680 C   0  0  0  0  0  0  0  0  0  0  0  0
  141.8870   78.1210  220.0550 C   0  0  0  0  0  0  0  0  0  0  0  0
  142.1320   78.8810  218.9060 C   0  0  0  0  0  0  0  0  0  0  0  0
  141.6680   80.5800  218.8330 Cl  0  0  0  0  0  0  0  0  0  0  0  0
  142.7400   78.3380  217.7920 C   0  0  0  0  0  0  0  0  0  0  0  0
  143.1140   77.0100  217.8230 C   0  0  0  0  0  0  0  0  0  0  0  0
  139.4360   75.7420  221.9700 C   0  0  0  0  0  0  0  0  0  0  0  0
  138.0610   75.9880  221.9710 C   0  0  0  0  0  0  0  0  0  0  0  0
  137.6070   77.2320  222.3590 C   0  0  0  0  0  0  0  0  0  0  0  0
  138.5060   78.2160  222.7360 C   0  0  0  0  0  0  0  0  0  0  0  0
  137.9970   79.4430  223.1150 C   0  0  0  0  0  0  0  0  0  0  0  0
  138.9150   80.4180  223.4920 C   0  0  0  0  0  0  0  0  0  0  0  0
  138.4650   81.6320  223.8680 F   0  0  0  0  0  0  0  0  0  0  0  0
  140.2660   80.1310  223.4740 C   0  0  0  0  0  0  0  0  0  0  0  0
  140.7700   78.9020  223.0960 C   0  0  0  0  0  0  0  0  0  0  0  0
  139.8550   77.9320  222.7200 C   0  0  0  0  0  0  0  0  0  0  0  0
  140.3180   76.7050  222.3400 N   0  0  0  0  0  0  0  0  0  0  0  0
  140.1550   74.9570  219.5330 H   0  0  0  0  0  0  0  0  0  0  0  0
  139.8109   72.1292  220.0355 H   0  0  0  0  0  0  0  0  0  0  0  0
  140.9212   72.8325  218.7803 H   0  0  0  0  0  0  0  0  0  0  0  0
  144.3471   71.1795  220.4782 H   0  0  0  0  0  0  0  0  0  0  0  0
  143.8692   71.4939  218.8024 H   0  0  0  0  0  0  0  0  0  0  0  0
  145.5717   73.1522  218.5403 H   0  0  0  0  0  0  0  0  0  0  0  0
  146.4370   71.7820  220.8610 H   0  0  0  0  0  0  0  0  0  0  0  0
  145.2612   73.7498  221.5416 H   0  0  0  0  0  0  0  0  0  0  0  0
  145.6975   74.8949  220.3045 H   0  0  0  0  0  0  0  0  0  0  0  0
  143.1689   74.9108  220.9551 H   0  0  0  0  0  0  0  0  0  0  0  0
  144.2367   74.7690  218.2699 H   0  0  0  0  0  0  0  0  0  0  0  0
  142.5000   74.2395  218.4309 H   0  0  0  0  0  0  0  0  0  0  0  0
  142.0883   76.1583  220.9590 H   0  0  0  0  0  0  0  0  0  0  0  0
  141.4010   78.5730  220.9322 H   0  0  0  0  0  0  0  0  0  0  0  0
  142.9227   78.9516  216.8975 H   0  0  0  0  0  0  0  0  0  0  0  0
  143.6012   76.5607  216.9450 H   0  0  0  0  0  0  0  0  0  0  0  0
  137.3522   75.2034  221.6676 H   0  0  0  0  0  0  0  0  0  0  0  0
  136.5275   77.4429  222.3689 H   0  0  0  0  0  0  0  0  0  0  0  0
  136.9148   79.6402  223.1186 H   0  0  0  0  0  0  0  0  0  0  0  0
  140.9734   80.9179  223.7747 H   0  0  0  0  0  0  0  0  0  0  0  0
  141.8516   78.7018  223.0935 H   0  0  0  0  0  0  0  0  0  0  0  0
  1  2  2  0
  2  3  1  0
  3  4  1  0
  4  5  1  0
  5  6  2  0
  5  7  1  0
  7  8  1  0
  8  9  1  0
  9 10  1  0
  9 11  1  0
 11 12  1  0
 12 13  1  0
 13 14  1  0
 14 15  2  0
 15 16  1  0
 16 17  2  0
 17 18  1  0
 17 19  1  0
 19 20  2  0
  2 21  1  0
 21 22  2  0
 22 23  1  0
 23 24  2  0
 24 25  1  0
 25 26  2  0
 26 27  1  0
 26 28  1  0
 28 29  2  0
 29 30  1  0
 30 31  2  0
 12  7  1  0
 20 14  1  0
 31 21  1  0
 30 24  1  0
  3 32  1  0
  4 33  1  0
  4 34  1  0
  8 35  1  0
  8 36  1  0
  9 37  1  6
 10 38  1  0
 11 39  1  0
 11 40  1  0
 12 41  1  1
 13 42  1  0
 13 43  1  0
 15 44  1  0
 16 45  1  0
 19 46  1  0
 20 47  1  0
 22 48  1  0
 23 49  1  0
 25 50  1  0
 28 51  1  0
 29 52  1  0
M  END
>  <smiles>  (20) 
O=C(NCC(=O)N1C[C@H](O)C[C@H]1Cc1ccc(Cl)cc1)c1ccc2cc(F)ccc2n1

>  <score_type>  (20) 
oracle

>  <origin>  (20) 
autodockgpu

>  <m_score__min__energy>  (20) 
-9.0399999999999991

>  <m_primary>  (20) 
energy

>  <rmsd>  (20) 
7.313230113336114

>  <m_score__min__rmsd>  (20) 
7.313230113336114

>  <meeko>  (20) 
{"free_energy": -7.38, "intermolecular_energy": -9.47, "internal_energy": -2.2, "cluster_size": 7, "cluster_id": 8, "rank_in_cluster": 2}

>  <energy>  (20) 
-8.15

>  <cluster_rmsd>  (20) 
1.98

>  <cluster>  (20) 
1

$$$$

     RDKit          3D

 52 55  0  0  0  0  0  0  0  0999 V2000
  139.6000   73.0500  222.7130 O   0  0  0  0  0  0  0  0  0  0  0  0
  140.1290   71.9090  222.7140 C   0  0  0  0  0  0  0  0  0  0  0  0
  140.7880   71.5120  221.5160 N   0  0  0  0  0  0  0  0  0  0  0  0
  140.8000   72.4290  220.4100 C   0  0  0  0  0  0  0  0  0  0  0  0
  141.6050   73.6450  220.6940 C   0  0  0  0  0  0  0  0  0  0  0  0
  141.1660   74.6370  221.3280 O   0  0  0  0  0  0  0  0  0  0  0  0
  142.9460   73.6890  220.2240 N   0  0  0  0  0  0  0  0  0  0  0  0
  143.6250   72.5250  219.6880 C   0  0  0  0  0  0  0  0  0  0  0  0
  145.0550   72.9550  219.4420 C   0  0  2  0  0  0  0  0  0  0  0  0
  145.9580   71.9410  219.7490 O   0  0  0  0  0  0  0  0  0  0  0  0
  145.1910   74.1390  220.3570 C   0  0  0  0  0  0  0  0  0  0  0  0
  143.8600   74.8140  220.1770 C   0  0  1  0  0  0  0  0  0  0  0  0
  143.7020   75.4890  218.8470 C   0  0  0  0  0  0  0  0  0  0  0  0
  143.0330   76.8100  218.9440 C   0  0  0  0  0  0  0  0  0  0  0  0
  142.3630   77.2430  220.0680 C   0  0  0  0  0  0  0  0  0  0  0  0
  141.7620   78.5050  220.0720 C   0  0  0  0  0  0  0  0  0  0  0  0
  141.8560   79.3010  218.9240 C   0  0  0  0  0  0  0  0  0  0  0  0
  141.1170   80.8990  218.8720 Cl  0  0  0  0  0  0  0  0  0  0  0  0
  142.5260   78.8700  217.7960 C   0  0  0  0  0  0  0  0  0  0  0  0
  143.1140   77.6220  217.8100 C   0  0  0  0  0  0  0  0  0  0  0  0
  140.0830   71.0180  223.8700 C   0  0  0  0  0  0  0  0  0  0  0  0
  139.4740   69.7750  223.6870 C   0  0  0  0  0  0  0  0  0  0  0  0
  139.4090   68.9020  224.7530 C   0  0  0  0  0  0  0  0  0  0  0  0
  139.9390   69.2590  225.9810 C   0  0  0  0  0  0  0  0  0  0  0  0
  139.8470   68.3460  227.0140 C   0  0  0  0  0  0  0  0  0  0  0  0
  140.3860   68.7220  228.2400 C   0  0  0  0  0  0  0  0  0  0  0  0
  140.3180   67.8650  229.2770 F   0  0  0  0  0  0  0  0  0  0  0  0
  140.9790   69.9630  228.3750 C   0  0  0  0  0  0  0  0  0  0  0  0
  141.0700   70.8720  227.3400 C   0  0  0  0  0  0  0  0  0  0  0  0
  140.5320   70.4970  226.1200 C   0  0  0  0  0  0  0  0  0  0  0  0
  140.6040   71.3710  225.0740 N   0  0  0  0  0  0  0  0  0  0  0  0
  141.2280   70.5650  221.5130 H   0  0  0  0  0  0  0  0  0  0  0  0
  141.2260   71.9197  219.5330 H   0  0  0  0  0  0  0  0  0  0  0  0
  139.7633   72.7474  220.2258 H   0  0  0  0  0  0  0  0  0  0  0  0
  143.5936   71.6970  220.4115 H   0  0  0  0  0  0  0  0  0  0  0  0
  143.1462   72.1682  218.7642 H   0  0  0  0  0  0  0  0  0  0  0  0
  145.2730   73.1930  218.3904 H   0  0  0  0  0  0  0  0  0  0  0  0
  145.8800   71.6910  220.7120 H   0  0  0  0  0  0  0  0  0  0  0  0
  145.3440   73.8248  221.4000 H   0  0  0  0  0  0  0  0  0  0  0  0
  146.0537   74.7829  220.1307 H   0  0  0  0  0  0  0  0  0  0  0  0
  143.7071   75.6045  220.9265 H   0  0  0  0  0  0  0  0  0  0  0  0
  144.6994   75.6326  218.4059 H   0  0  0  0  0  0  0  0  0  0  0  0
  143.0667   74.8430  218.2232 H   0  0  0  0  0  0  0  0  0  0  0  0
  142.3016   76.5987  220.9574 H   0  0  0  0  0  0  0  0  0  0  0  0
  141.2247   78.8663  220.9613 H   0  0  0  0  0  0  0  0  0  0  0  0
  142.5897   79.5096  216.9033 H   0  0  0  0  0  0  0  0  0  0  0  0
  143.6516   77.2630  216.9200 H   0  0  0  0  0  0  0  0  0  0  0  0
  139.0533   69.4967  222.7095 H   0  0  0  0  0  0  0  0  0  0  0  0
  138.9340   67.9179  224.6268 H   0  0  0  0  0  0  0  0  0  0  0  0
  139.3688   67.3654  226.8732 H   0  0  0  0  0  0  0  0  0  0  0  0
  141.3984   70.2396  229.3536 H   0  0  0  0  0  0  0  0  0  0  0  0
  141.5494   71.8524  227.4783 H   0  0  0  0  0  0  0  0  0  0  0  0
  1  2  2  0
  2  3  1  0
  3  4  1  0
  4  5  1  0
  5  6  2  0
  5  7  1  0
  7  8  1  0
  8  9  1  0
  9 10  1  0
  9 11  1  0
 11 12  1  0
 12 13  1  0
 13 14  1  0
 14 15  2  0
 15 16  1  0
 16 17  2  0
 17 18  1  0
 17 19  1  0
 19 20  2  0
  2 21  1  0
 21 22  2  0
 22 23  1  0
 23 24  2  0
 24 25  1  0
 25 26  2  0
 26 27  1  0
 26 28  1  0
 28 29  2  0
 29 30  1  0
 30 31  2  0
 12  7  1  0
 20 14  1  0
 31 21  1  0
 30 24  1  0
  3 32  1  0
  4 33  1  0
  4 34  1  0
  8 35  1  0
  8 36  1  0
  9 37  1  6
 10 38  1  0
 11 39  1  0
 11 40  1  0
 12 41  1  1
 13 42  1  0
 13 43  1  0
 15 44  1  0
 16 45  1  0
 19 46  1  0
 20 47  1  0
 22 48  1  0
 23 49  1  0
 25 50  1  0
 28 51  1  0
 29 52  1  0
M  END
>  <smiles>  (21) 
O=C(NCC(=O)N1C[C@H](O)C[C@H]1Cc1ccc(Cl)cc1)c1ccc2cc(F)ccc2n1

>  <score_type>  (21) 
oracle

>  <origin>  (21) 
autodockgpu

>  <m_score__min__energy>  (21) 
-9.0399999999999991

>  <m_primary>  (21) 
energy

>  <rmsd>  (21) 
3.2864079672515043

>  <m_score__min__rmsd>  (21) 
3.2864079672515043

>  <meeko>  (21) 
{"free_energy": -8.81, "intermolecular_energy": -10.9, "internal_energy": -1.23, "cluster_size": 23, "cluster_id": 1, "rank_in_cluster": 9}

>  <energy>  (21) 
-8.1

>  <cluster_rmsd>  (21) 
0.92

>  <cluster>  (21) 
1

$$$$

     RDKit          3D

 52 55  0  0  0  0  0  0  0  0999 V2000
  139.4020   70.8650  221.5160 O   0  0  0  0  0  0  0  0  0  0  0  0
  139.6030   71.3730  222.6500 C   0  0  0  0  0  0  0  0  0  0  0  0
  139.7120   72.7920  222.7010 N   0  0  0  0  0  0  0  0  0  0  0  0
  139.5860   73.5290  221.4740 C   0  0  0  0  0  0  0  0  0  0  0  0
  140.2050   74.8760  221.5600 C   0  0  0  0  0  0  0  0  0  0  0  0
  139.8010   75.7790  222.3360 O   0  0  0  0  0  0  0  0  0  0  0  0
  141.3160   75.1620  220.7200 N   0  0  0  0  0  0  0  0  0  0  0  0
  141.8440   76.5010  220.5510 C   0  0  0  0  0  0  0  0  0  0  0  0
  142.9110   76.3960  219.4820 C   0  0  2  0  0  0  0  0  0  0  0  0
  142.9100   77.5070  218.6430 O   0  0  0  0  0  0  0  0  0  0  0  0
  142.5160   75.1360  218.7650 C   0  0  0  0  0  0  0  0  0  0  0  0
  142.1050   74.2530  219.9100 C   0  0  1  0  0  0  0  0  0  0  0  0
  143.2570   73.7690  220.7410 C   0  0  0  0  0  0  0  0  0  0  0  0
  143.8040   72.4720  220.2720 C   0  0  0  0  0  0  0  0  0  0  0  0
  143.0920   71.2920  220.3000 C   0  0  0  0  0  0  0  0  0  0  0  0
  143.6870   70.1140  219.8370 C   0  0  0  0  0  0  0  0  0  0  0  0
  145.0000   70.1660  219.3550 C   0  0  0  0  0  0  0  0  0  0  0  0
  145.8000   68.7130  218.7600 Cl  0  0  0  0  0  0  0  0  0  0  0  0
  145.7160   71.3470  219.3260 C   0  0  0  0  0  0  0  0  0  0  0  0
  145.1130   72.4990  219.7860 C   0  0  0  0  0  0  0  0  0  0  0  0
  139.7220   70.5710  223.8640 C   0  0  0  0  0  0  0  0  0  0  0  0
  139.2140   69.2710  223.8160 C   0  0  0  0  0  0  0  0  0  0  0  0
  139.3050   68.4790  224.9420 C   0  0  0  0  0  0  0  0  0  0  0  0
  139.8910   68.9710  226.0960 C   0  0  0  0  0  0  0  0  0  0  0  0
  139.9560   68.1340  227.1930 C   0  0  0  0  0  0  0  0  0  0  0  0
  140.5480   68.6460  228.3440 C   0  0  0  0  0  0  0  0  0  0  0  0
  140.6330   67.8660  229.4400 F   0  0  0  0  0  0  0  0  0  0  0  0
  141.0370   69.9380  228.3460 C   0  0  0  0  0  0  0  0  0  0  0  0
  140.9700   70.7700  227.2460 C   0  0  0  0  0  0  0  0  0  0  0  0
  140.3800   70.2600  226.1020 C   0  0  0  0  0  0  0  0  0  0  0  0
  140.2960   71.0560  224.9950 N   0  0  0  0  0  0  0  0  0  0  0  0
  139.8780   73.2170  223.6400 H   0  0  0  0  0  0  0  0  0  0  0  0
  140.0792   72.9637  220.6695 H   0  0  0  0  0  0  0  0  0  0  0  0
  138.5134   73.6637  221.2708 H   0  0  0  0  0  0  0  0  0  0  0  0
  141.0475   77.1884  220.2300 H   0  0  0  0  0  0  0  0  0  0  0  0
  142.2540   76.8947  221.4928 H   0  0  0  0  0  0  0  0  0  0  0  0
  143.9368   76.3655  219.8779 H   0  0  0  0  0  0  0  0  0  0  0  0
  143.4710   78.2340  219.0340 H   0  0  0  0  0  0  0  0  0  0  0  0
  141.6787   75.3130  218.0740 H   0  0  0  0  0  0  0  0  0  0  0  0
  143.3117   74.7111  218.1354 H   0  0  0  0  0  0  0  0  0  0  0  0
  141.5981   73.3444  219.5529 H   0  0  0  0  0  0  0  0  0  0  0  0
  144.0580   74.5220  220.7026 H   0  0  0  0  0  0  0  0  0  0  0  0
  142.8845   73.6186  221.7650 H   0  0  0  0  0  0  0  0  0  0  0  0
  142.0615   71.2769  220.6844 H   0  0  0  0  0  0  0  0  0  0  0  0
  143.1331   69.1638  219.8514 H   0  0  0  0  0  0  0  0  0  0  0  0
  146.7471   71.3682  218.9435 H   0  0  0  0  0  0  0  0  0  0  0  0
  145.6685   73.4483  219.7699 H   0  0  0  0  0  0  0  0  0  0  0  0
  138.7495   68.8853  222.8965 H   0  0  0  0  0  0  0  0  0  0  0  0
  138.9103   67.4524  224.9229 H   0  0  0  0  0  0  0  0  0  0  0  0
  139.5579   67.1092  227.1585 H   0  0  0  0  0  0  0  0  0  0  0  0
  141.5012   70.3217  229.2664 H   0  0  0  0  0  0  0  0  0  0  0  0
  141.3686   71.7948  227.2773 H   0  0  0  0  0  0  0  0  0  0  0  0
  1  2  2  0
  2  3  1  0
  3  4  1  0
  4  5  1  0
  5  6  2  0
  5  7  1  0
  7  8  1  0
  8  9  1  0
  9 10  1  0
  9 11  1  0
 11 12  1  0
 12 13  1  0
 13 14  1  0
 14 15  2  0
 15 16  1  0
 16 17  2  0
 17 18  1  0
 17 19  1  0
 19 20  2  0
  2 21  1  0
 21 22  2  0
 22 23  1  0
 23 24  2  0
 24 25  1  0
 25 26  2  0
 26 27  1  0
 26 28  1  0
 28 29  2  0
 29 30  1  0
 30 31  2  0
 12  7  1  0
 20 14  1  0
 31 21  1  0
 30 24  1  0
  3 32  1  0
  4 33  1  0
  4 34  1  0
  8 35  1  0
  8 36  1  0
  9 37  1  1
 10 38  1  0
 11 39  1  0
 11 40  1  0
 12 41  1  6
 13 42  1  0
 13 43  1  0
 15 44  1  0
 16 45  1  0
 19 46  1  0
 20 47  1  0
 22 48  1  0
 23 49  1  0
 25 50  1  0
 28 51  1  0
 29 52  1  0
M  END
>  <smiles>  (22) 
O=C(NCC(=O)N1C[C@H](O)C[C@H]1Cc1ccc(Cl)cc1)c1ccc2cc(F)ccc2n1

>  <score_type>  (22) 
oracle

>  <origin>  (22) 
autodockgpu

>  <m_score__min__energy>  (22) 
-9.0399999999999991

>  <m_primary>  (22) 
energy

>  <rmsd>  (22) 
2.2232469334617644

>  <m_score__min__rmsd>  (22) 
2.2232469334617644

>  <meeko>  (22) 
{"free_energy": -8.25, "intermolecular_energy": -10.34, "internal_energy": -1.74, "cluster_size": 12, "cluster_id": 2, "rank_in_cluster": 8}

>  <energy>  (22) 
-8.0

>  <cluster_rmsd>  (22) 
1.34

>  <cluster>  (22) 
1

$$$$

     RDKit          3D

 52 55  0  0  0  0  0  0  0  0999 V2000
  140.1320   74.4580  222.3440 O   0  0  0  0  0  0  0  0  0  0  0  0
  140.3420   75.2010  221.3510 C   0  0  0  0  0  0  0  0  0  0  0  0
  140.5160   74.5510  220.0960 N   0  0  0  0  0  0  0  0  0  0  0  0
  140.4410   73.1170  220.0550 C   0  0  0  0  0  0  0  0  0  0  0  0
  141.6270   72.4730  220.6760 C   0  0  0  0  0  0  0  0  0  0  0  0
  141.5530   71.6170  221.5930 O   0  0  0  0  0  0  0  0  0  0  0  0
  142.9170   72.8450  220.2080 N   0  0  0  0  0  0  0  0  0  0  0  0
  143.9580   71.8740  219.9310 C   0  0  0  0  0  0  0  0  0  0  0  0
  145.1980   72.6770  219.6000 C   0  0  2  0  0  0  0  0  0  0  0  0
  146.3470   72.0840  220.1160 O   0  0  0  0  0  0  0  0  0  0  0  0
  144.8980   74.0010  220.2450 C   0  0  0  0  0  0  0  0  0  0  0  0
  143.4390   74.1690  219.9250 C   0  0  1  0  0  0  0  0  0  0  0  0
  143.1700   74.4770  218.4820 C   0  0  0  0  0  0  0  0  0  0  0  0
  142.9380   75.9210  218.2330 C   0  0  0  0  0  0  0  0  0  0  0  0
  142.8680   76.4730  216.9710 C   0  0  0  0  0  0  0  0  0  0  0  0
  142.6460   77.8460  216.8290 C   0  0  0  0  0  0  0  0  0  0  0  0
  142.5010   78.6300  217.9800 C   0  0  0  0  0  0  0  0  0  0  0  0
  142.2200   80.3650  217.8600 Cl  0  0  0  0  0  0  0  0  0  0  0  0
  142.5710   78.0800  219.2450 C   0  0  0  0  0  0  0  0  0  0  0  0
  142.7900   76.7230  219.3670 C   0  0  0  0  0  0  0  0  0  0  0  0
  140.4080   76.6560  221.4520 C   0  0  0  0  0  0  0  0  0  0  0  0
  139.4200   77.3820  220.7830 C   0  0  0  0  0  0  0  0  0  0  0  0
  139.4440   78.7600  220.8520 C   0  0  0  0  0  0  0  0  0  0  0  0
  140.4340   79.4050  221.5730 C   0  0  0  0  0  0  0  0  0  0  0  0
  140.4100   80.7860  221.6090 C   0  0  0  0  0  0  0  0  0  0  0  0
  141.4130   81.4160  222.3390 C   0  0  0  0  0  0  0  0  0  0  0  0
  141.4310   82.7620  222.4010 F   0  0  0  0  0  0  0  0  0  0  0  0
  142.3700   80.6580  222.9840 C   0  0  0  0  0  0  0  0  0  0  0  0
  142.3900   79.2780  222.9470 C   0  0  0  0  0  0  0  0  0  0  0  0
  141.3910   78.6510  222.2190 C   0  0  0  0  0  0  0  0  0  0  0  0
  141.3800   77.2870  222.1600 N   0  0  0  0  0  0  0  0  0  0  0  0
  140.6900   75.1650  219.2690 H   0  0  0  0  0  0  0  0  0  0  0  0
  139.5392   72.7942  220.5960 H   0  0  0  0  0  0  0  0  0  0  0  0
  140.4064   72.8116  218.9988 H   0  0  0  0  0  0  0  0  0  0  0  0
  144.1360   71.2418  220.8134 H   0  0  0  0  0  0  0  0  0  0  0  0
  143.6770   71.2060  219.1035 H   0  0  0  0  0  0  0  0  0  0  0  0
  145.4026   72.7569  218.5222 H   0  0  0  0  0  0  0  0  0  0  0  0
  146.1990   71.8150  221.0660 H   0  0  0  0  0  0  0  0  0  0  0  0
  145.0694   73.9665  221.3310 H   0  0  0  0  0  0  0  0  0  0  0  0
  145.5322   74.8263  219.8891 H   0  0  0  0  0  0  0  0  0  0  0  0
  142.9990   75.0039  220.4901 H   0  0  0  0  0  0  0  0  0  0  0  0
  144.0363   74.1530  217.8866 H   0  0  0  0  0  0  0  0  0  0  0  0
  142.2529   73.9413  218.1957 H   0  0  0  0  0  0  0  0  0  0  0  0
  142.9861   75.8367  216.0815 H   0  0  0  0  0  0  0  0  0  0  0  0
  142.5862   78.3026  215.8300 H   0  0  0  0  0  0  0  0  0  0  0  0
  142.4544   78.7115  220.1381 H   0  0  0  0  0  0  0  0  0  0  0  0
  142.8486   76.2685  220.3670 H   0  0  0  0  0  0  0  0  0  0  0  0
  138.6361   76.8641  220.2109 H   0  0  0  0  0  0  0  0  0  0  0  0
  138.6734   79.3481  220.3321 H   0  0  0  0  0  0  0  0  0  0  0  0
  139.6331   81.3613  221.0842 H   0  0  0  0  0  0  0  0  0  0  0  0
  143.1536   81.1783  223.5543 H   0  0  0  0  0  0  0  0  0  0  0  0
  143.1652   78.7011  223.4726 H   0  0  0  0  0  0  0  0  0  0  0  0
  1  2  2  0
  2  3  1  0
  3  4  1  0
  4  5  1  0
  5  6  2  0
  5  7  1  0
  7  8  1  0
  8  9  1  0
  9 10  1  0
  9 11  1  0
 11 12  1  0
 12 13  1  0
 13 14  1  0
 14 15  2  0
 15 16  1  0
 16 17  2  0
 17 18  1  0
 17 19  1  0
 19 20  2  0
  2 21  1  0
 21 22  2  0
 22 23  1  0
 23 24  2  0
 24 25  1  0
 25 26  2  0
 26 27  1  0
 26 28  1  0
 28 29  2  0
 29 30  1  0
 30 31  2  0
 12  7  1  0
 20 14  1  0
 31 21  1  0
 30 24  1  0
  3 32  1  0
  4 33  1  0
  4 34  1  0
  8 35  1  0
  8 36  1  0
  9 37  1  6
 10 38  1  0
 11 39  1  0
 11 40  1  0
 12 41  1  1
 13 42  1  0
 13 43  1  0
 15 44  1  0
 16 45  1  0
 19 46  1  0
 20 47  1  0
 22 48  1  0
 23 49  1  0
 25 50  1  0
 28 51  1  0
 29 52  1  0
M  END
>  <smiles>  (23) 
O=C(NCC(=O)N1C[C@H](O)C[C@H]1Cc1ccc(Cl)cc1)c1ccc2cc(F)ccc2n1

>  <score_type>  (23) 
oracle

>  <origin>  (23) 
autodockgpu

>  <m_score__min__energy>  (23) 
-9.0399999999999991

>  <m_primary>  (23) 
energy

>  <rmsd>  (23) 
8.04440239906022

>  <m_score__min__rmsd>  (23) 
8.04440239906022

>  <meeko>  (23) 
{"free_energy": -7.05, "intermolecular_energy": -9.14, "internal_energy": -2.62, "cluster_size": 7, "cluster_id": 8, "rank_in_cluster": 4}

>  <energy>  (23) 
-7.67

>  <cluster_rmsd>  (23) 
1.42

>  <cluster>  (23) 
1

$$$$

     RDKit          3D

 52 55  0  0  0  0  0  0  0  0999 V2000
  139.6040   70.9950  221.4290 O   0  0  0  0  0  0  0  0  0  0  0  0
  139.6670   71.5150  222.5720 C   0  0  0  0  0  0  0  0  0  0  0  0
  139.6320   72.9380  222.6260 N   0  0  0  0  0  0  0  0  0  0  0  0
  139.5300   73.6630  221.3900 C   0  0  0  0  0  0  0  0  0  0  0  0
  140.6730   74.5890  221.1840 C   0  0  0  0  0  0  0  0  0  0  0  0
  140.6080   75.8290  221.3810 O   0  0  0  0  0  0  0  0  0  0  0  0
  141.9090   74.0440  220.7400 N   0  0  0  0  0  0  0  0  0  0  0  0
  142.0980   72.6260  220.5040 C   0  0  0  0  0  0  0  0  0  0  0  0
  143.5670   72.4490  220.1890 C   0  0  2  0  0  0  0  0  0  0  0  0
  144.0750   71.2760  220.7410 O   0  0  0  0  0  0  0  0  0  0  0  0
  144.1730   73.6800  220.8030 C   0  0  0  0  0  0  0  0  0  0  0  0
  143.1550   74.7270  220.4470 C   0  0  1  0  0  0  0  0  0  0  0  0
  143.1530   75.0960  218.9930 C   0  0  0  0  0  0  0  0  0  0  0  0
  142.8530   76.5300  218.7600 C   0  0  0  0  0  0  0  0  0  0  0  0
  142.4500   77.3940  219.7550 C   0  0  0  0  0  0  0  0  0  0  0  0
  142.1890   78.7320  219.4450 C   0  0  0  0  0  0  0  0  0  0  0  0
  142.3430   79.1610  218.1220 C   0  0  0  0  0  0  0  0  0  0  0  0
  142.0270   80.8360  217.6730 Cl  0  0  0  0  0  0  0  0  0  0  0  0
  142.7460   78.2980  217.1220 C   0  0  0  0  0  0  0  0  0  0  0  0
  143.0010   76.9810  217.4460 C   0  0  0  0  0  0  0  0  0  0  0  0
  139.7700   70.7250  223.7950 C   0  0  0  0  0  0  0  0  0  0  0  0
  139.2490   69.4290  223.7560 C   0  0  0  0  0  0  0  0  0  0  0  0
  139.3250   68.6470  224.8910 C   0  0  0  0  0  0  0  0  0  0  0  0
  139.9070   69.1450  226.0440 C   0  0  0  0  0  0  0  0  0  0  0  0
  139.9570   68.3190  227.1500 C   0  0  0  0  0  0  0  0  0  0  0  0
  140.5460   68.8360  228.2990 C   0  0  0  0  0  0  0  0  0  0  0  0
  140.6160   68.0670  229.4030 F   0  0  0  0  0  0  0  0  0  0  0  0
  141.0470   70.1230  228.2920 C   0  0  0  0  0  0  0  0  0  0  0  0
  140.9960   70.9460  227.1840 C   0  0  0  0  0  0  0  0  0  0  0  0
  140.4080   70.4300  226.0400 C   0  0  0  0  0  0  0  0  0  0  0  0
  140.3400   71.2150  224.9250 N   0  0  0  0  0  0  0  0  0  0  0  0
  139.6830   73.3730  223.5740 H   0  0  0  0  0  0  0  0  0  0  0  0
  139.5036   72.9431  220.5587 H   0  0  0  0  0  0  0  0  0  0  0  0
  138.6108   74.2661  221.4283 H   0  0  0  0  0  0  0  0  0  0  0  0
  141.8271   72.0496  221.4009 H   0  0  0  0  0  0  0  0  0  0  0  0
  141.4628   72.2659  219.6813 H   0  0  0  0  0  0  0  0  0  0  0  0
  143.7823   72.3499  219.1148 H   0  0  0  0  0  0  0  0  0  0  0  0
  144.8100   71.4880  221.3820 H   0  0  0  0  0  0  0  0  0  0  0  0
  144.2770   73.5754  221.8931 H   0  0  0  0  0  0  0  0  0  0  0  0
  145.1893   73.9042  220.4467 H   0  0  0  0  0  0  0  0  0  0  0  0
  143.3415   75.6665  220.9879 H   0  0  0  0  0  0  0  0  0  0  0  0
  144.1449   74.8725  218.5732 H   0  0  0  0  0  0  0  0  0  0  0  0
  142.3597   74.5102  218.5056 H   0  0  0  0  0  0  0  0  0  0  0  0
  142.3343   77.0329  220.7876 H   0  0  0  0  0  0  0  0  0  0  0  0
  141.8681   79.4353  220.2275 H   0  0  0  0  0  0  0  0  0  0  0  0
  142.8615   78.6534  216.0874 H   0  0  0  0  0  0  0  0  0  0  0  0
  143.3238   76.2798  216.6624 H   0  0  0  0  0  0  0  0  0  0  0  0
  138.7866   69.0389  222.8373 H   0  0  0  0  0  0  0  0  0  0  0  0
  138.9214   67.6238  224.8792 H   0  0  0  0  0  0  0  0  0  0  0  0
  139.5491   67.2978  227.1232 H   0  0  0  0  0  0  0  0  0  0  0  0
  141.5083   70.5108  229.2122 H   0  0  0  0  0  0  0  0  0  0  0  0
  141.4045   71.9670  227.2085 H   0  0  0  0  0  0  0  0  0  0  0  0
  1  2  2  0
  2  3  1  0
  3  4  1  0
  4  5  1  0
  5  6  2  0
  5  7  1  0
  7  8  1  0
  8  9  1  0
  9 10  1  0
  9 11  1  0
 11 12  1  0
 12 13  1  0
 13 14  1  0
 14 15  2  0
 15 16  1  0
 16 17  2  0
 17 18  1  0
 17 19  1  0
 19 20  2  0
  2 21  1  0
 21 22  2  0
 22 23  1  0
 23 24  2  0
 24 25  1  0
 25 26  2  0
 26 27  1  0
 26 28  1  0
 28 29  2  0
 29 30  1  0
 30 31  2  0
 12  7  1  0
 20 14  1  0
 31 21  1  0
 30 24  1  0
  3 32  1  0
  4 33  1  0
  4 34  1  0
  8 35  1  0
  8 36  1  0
  9 37  1  6
 10 38  1  0
 11 39  1  0
 11 40  1  0
 12 41  1  1
 13 42  1  0
 13 43  1  0
 15 44  1  0
 16 45  1  0
 19 46  1  0
 20 47  1  0
 22 48  1  0
 23 49  1  0
 25 50  1  0
 28 51  1  0
 29 52  1  0
M  END
>  <smiles>  (24) 
O=C(NCC(=O)N1C[C@H](O)C[C@H]1Cc1ccc(Cl)cc1)c1ccc2cc(F)ccc2n1

>  <score_type>  (24) 
oracle

>  <origin>  (24) 
autodockgpu

>  <m_score__min__energy>  (24) 
-9.0399999999999991

>  <m_primary>  (24) 
energy

>  <rmsd>  (24) 
2.75819810116607

>  <m_score__min__rmsd>  (24) 
2.75819810116607

>  <meeko>  (24) 
{"free_energy": -8.01, "intermolecular_energy": -10.1, "internal_energy": -1.6, "cluster_size": 1, "cluster_id": 6, "rank_in_cluster": 1}

>  <energy>  (24) 
-8.62

>  <cluster_rmsd>  (24) 
0.0

>  <cluster>  (24) 
2

$$$$

     RDKit          3D

 52 55  0  0  0  0  0  0  0  0999 V2000
  140.1080   73.4240  222.4360 O   0  0  0  0  0  0  0  0  0  0  0  0
  140.1140   72.1670  222.3960 C   0  0  0  0  0  0  0  0  0  0  0  0
  140.1490   71.5720  221.1020 N   0  0  0  0  0  0  0  0  0  0  0  0
  140.1730   72.4380  219.9550 C   0  0  0  0  0  0  0  0  0  0  0  0
  141.3480   72.1850  219.0830 C   0  0  0  0  0  0  0  0  0  0  0  0
  141.3760   71.2970  218.1940 O   0  0  0  0  0  0  0  0  0  0  0  0
  142.5060   72.9910  219.2630 N   0  0  0  0  0  0  0  0  0  0  0  0
  143.6930   72.8460  218.4440 C   0  0  0  0  0  0  0  0  0  0  0  0
  144.7280   73.7740  219.0440 C   0  0  2  0  0  0  0  0  0  0  0  0
  146.0040   73.2180  219.0030 O   0  0  0  0  0  0  0  0  0  0  0  0
  144.2220   73.9440  220.4490 C   0  0  0  0  0  0  0  0  0  0  0  0
  142.7400   74.0500  220.2250 C   0  0  1  0  0  0  0  0  0  0  0  0
  142.3160   75.3470  219.6030 C   0  0  0  0  0  0  0  0  0  0  0  0
  141.8280   76.3340  220.5970 C   0  0  0  0  0  0  0  0  0  0  0  0
  141.0780   75.9930  221.7030 C   0  0  0  0  0  0  0  0  0  0  0  0
  140.6600   76.9900  222.5890 C   0  0  0  0  0  0  0  0  0  0  0  0
  141.0160   78.3180  222.3270 C   0  0  0  0  0  0  0  0  0  0  0  0
  140.5150   79.6160  223.4090 Cl  0  0  0  0  0  0  0  0  0  0  0  0
  141.7660   78.6640  221.2200 C   0  0  0  0  0  0  0  0  0  0  0  0
  142.1710   77.6670  220.3570 C   0  0  0  0  0  0  0  0  0  0  0  0
  140.0880   71.3380  223.5970 C   0  0  0  0  0  0  0  0  0  0  0  0
  139.5080   70.0730  223.4790 C   0  0  0  0  0  0  0  0  0  0  0  0
  139.4620   69.2560  224.5900 C   0  0  0  0  0  0  0  0  0  0  0  0
  139.9820   69.6900  225.7980 C   0  0  0  0  0  0  0  0  0  0  0  0
  139.9090   68.8310  226.8770 C   0  0  0  0  0  0  0  0  0  0  0  0
  140.4380   69.2840  228.0820 C   0  0  0  0  0  0  0  0  0  0  0  0
  140.3880   68.4810  229.1630 F   0  0  0  0  0  0  0  0  0  0  0  0
  141.0010   70.5430  228.1520 C   0  0  0  0  0  0  0  0  0  0  0  0
  141.0720   71.3980  227.0700 C   0  0  0  0  0  0  0  0  0  0  0  0
  140.5450   70.9470  225.8710 C   0  0  0  0  0  0  0  0  0  0  0  0
  140.5980   71.7660  224.7800 N   0  0  0  0  0  0  0  0  0  0  0  0
  140.1540   70.5290  221.0650 H   0  0  0  0  0  0  0  0  0  0  0  0
  139.2562   72.2751  219.3694 H   0  0  0  0  0  0  0  0  0  0  0  0
  140.2393   73.4746  220.3170 H   0  0  0  0  0  0  0  0  0  0  0  0
  144.0508   71.8062  218.4698 H   0  0  0  0  0  0  0  0  0  0  0  0
  143.4901   73.0943  217.3918 H   0  0  0  0  0  0  0  0  0  0  0  0
  144.8381   74.7264  218.5047 H   0  0  0  0  0  0  0  0  0  0  0  0
  146.6890   73.9380  218.9140 H   0  0  0  0  0  0  0  0  0  0  0  0
  144.4724   73.0741  221.0739 H   0  0  0  0  0  0  0  0  0  0  0  0
  144.6570   74.8031  220.9807 H   0  0  0  0  0  0  0  0  0  0  0  0
  142.1867   73.9848  221.1735 H   0  0  0  0  0  0  0  0  0  0  0  0
  143.1773   75.7797  219.0730 H   0  0  0  0  0  0  0  0  0  0  0  0
  141.4819   75.1275  218.9203 H   0  0  0  0  0  0  0  0  0  0  0  0
  140.8102   74.9421  221.8869 H   0  0  0  0  0  0  0  0  0  0  0  0
  140.0619   76.7354  223.4764 H   0  0  0  0  0  0  0  0  0  0  0  0
  142.0350   79.7136  221.0304 H   0  0  0  0  0  0  0  0  0  0  0  0
  142.7700   77.9240  219.4709 H   0  0  0  0  0  0  0  0  0  0  0  0
  139.0952   69.7340  222.5174 H   0  0  0  0  0  0  0  0  0  0  0  0
  139.0104   68.2557  224.5159 H   0  0  0  0  0  0  0  0  0  0  0  0
  139.4533   67.8338  226.7880 H   0  0  0  0  0  0  0  0  0  0  0  0
  141.4122   70.8806  229.1148 H   0  0  0  0  0  0  0  0  0  0  0  0
  141.5279   72.3953  227.1566 H   0  0  0  0  0  0  0  0  0  0  0  0
  1  2  2  0
  2  3  1  0
  3  4  1  0
  4  5  1  0
  5  6  2  0
  5  7  1  0
  7  8  1  0
  8  9  1  0
  9 10  1  0
  9 11  1  0
 11 12  1  0
 12 13  1  0
 13 14  1  0
 14 15  2  0
 15 16  1  0
 16 17  2  0
 17 18  1  0
 17 19  1  0
 19 20  2  0
  2 21  1  0
 21 22  2  0
 22 23  1  0
 23 24  2  0
 24 25  1  0
 25 26  2  0
 26 27  1  0
 26 28  1  0
 28 29  2  0
 29 30  1  0
 30 31  2  0
 12  7  1  0
 20 14  1  0
 31 21  1  0
 30 24  1  0
  3 32  1  0
  4 33  1  0
  4 34  1  0
  8 35  1  0
  8 36  1  0
  9 37  1  6
 10 38  1  0
 11 39  1  0
 11 40  1  0
 12 41  1  1
 13 42  1  0
 13 43  1  0
 15 44  1  0
 16 45  1  0
 19 46  1  0
 20 47  1  0
 22 48  1  0
 23 49  1  0
 25 50  1  0
 28 51  1  0
 29 52  1  0
M  END
>  <smiles>  (25) 
O=C(NCC(=O)N1C[C@H](O)C[C@H]1Cc1ccc(Cl)cc1)c1ccc2cc(F)ccc2n1

>  <score_type>  (25) 
oracle

>  <origin>  (25) 
autodockgpu

>  <m_score__min__energy>  (25) 
-9.0399999999999991

>  <m_primary>  (25) 
energy

>  <rmsd>  (25) 
3.177919649044326

>  <m_score__min__rmsd>  (25) 
3.177919649044326

>  <meeko>  (25) 
{"free_energy": -9.01, "intermolecular_energy": -11.1, "internal_energy": -1.52, "cluster_size": 23, "cluster_id": 1, "rank_in_cluster": 3}

>  <energy>  (25) 
-8.61

>  <cluster_rmsd>  (25) 
0.44

>  <cluster>  (25) 
2

$$$$

     RDKit          3D

 52 55  0  0  0  0  0  0  0  0999 V2000
  140.2530   73.3970  222.6270 O   0  0  0  0  0  0  0  0  0  0  0  0
  140.1330   72.1480  222.5350 C   0  0  0  0  0  0  0  0  0  0  0  0
  140.0110   71.6170  221.2190 N   0  0  0  0  0  0  0  0  0  0  0  0
  140.0320   72.5310  220.1110 C   0  0  0  0  0  0  0  0  0  0  0  0
  141.1150   72.2200  219.1440 C   0  0  0  0  0  0  0  0  0  0  0  0
  140.9740   71.4400  218.1690 O   0  0  0  0  0  0  0  0  0  0  0  0
  142.3820   72.8390  219.3300 N   0  0  0  0  0  0  0  0  0  0  0  0
  143.5450   72.4930  218.5360 C   0  0  0  0  0  0  0  0  0  0  0  0
  144.7020   73.2590  219.1390 C   0  0  2  0  0  0  0  0  0  0  0  0
  145.8760   72.5100  219.1320 O   0  0  0  0  0  0  0  0  0  0  0  0
  144.2080   73.5360  220.5310 C   0  0  0  0  0  0  0  0  0  0  0  0
  142.7640   73.8690  220.2780 C   0  0  1  0  0  0  0  0  0  0  0  0
  142.5590   75.2030  219.6240 C   0  0  0  0  0  0  0  0  0  0  0  0
  141.9660   76.2100  220.5370 C   0  0  0  0  0  0  0  0  0  0  0  0
  141.1740   75.8840  221.6180 C   0  0  0  0  0  0  0  0  0  0  0  0
  140.6560   76.9000  222.4270 C   0  0  0  0  0  0  0  0  0  0  0  0
  140.9560   78.2310  222.1150 C   0  0  0  0  0  0  0  0  0  0  0  0
  140.3300   79.5520  223.0990 Cl  0  0  0  0  0  0  0  0  0  0  0  0
  141.7490   78.5610  221.0320 C   0  0  0  0  0  0  0  0  0  0  0  0
  142.2520   77.5460  220.2450 C   0  0  0  0  0  0  0  0  0  0  0  0
  140.1180   71.2670  223.6990 C   0  0  0  0  0  0  0  0  0  0  0  0
  139.5780   69.9920  223.5190 C   0  0  0  0  0  0  0  0  0  0  0  0
  139.5430   69.1260  224.5930 C   0  0  0  0  0  0  0  0  0  0  0  0
  140.0370   69.5210  225.8250 C   0  0  0  0  0  0  0  0  0  0  0  0
  139.9780   68.6140  226.8650 C   0  0  0  0  0  0  0  0  0  0  0  0
  140.4790   69.0300  228.0950 C   0  0  0  0  0  0  0  0  0  0  0  0
  140.4410   68.1790  229.1390 F   0  0  0  0  0  0  0  0  0  0  0  0
  141.0040   70.3010  228.2260 C   0  0  0  0  0  0  0  0  0  0  0  0
  141.0610   71.2040  227.1830 C   0  0  0  0  0  0  0  0  0  0  0  0
  140.5620   70.7900  225.9590 C   0  0  0  0  0  0  0  0  0  0  0  0
  140.6020   71.6570  224.9060 N   0  0  0  0  0  0  0  0  0  0  0  0
  139.9120   70.5800  221.1380 H   0  0  0  0  0  0  0  0  0  0  0  0
  139.0653   72.4763  219.5890 H   0  0  0  0  0  0  0  0  0  0  0  0
  140.2167   73.5393  220.5101 H   0  0  0  0  0  0  0  0  0  0  0  0
  143.7348   71.4107  218.5869 H   0  0  0  0  0  0  0  0  0  0  0  0
  143.4006   72.7483  217.4758 H   0  0  0  0  0  0  0  0  0  0  0  0
  144.9676   74.1711  218.5845 H   0  0  0  0  0  0  0  0  0  0  0  0
  145.6740   71.5580  218.9080 H   0  0  0  0  0  0  0  0  0  0  0  0
  144.3088   72.6509  221.1764 H   0  0  0  0  0  0  0  0  0  0  0  0
  144.7648   74.3271  221.0546 H   0  0  0  0  0  0  0  0  0  0  0  0
  142.1926   73.9117  221.2170 H   0  0  0  0  0  0  0  0  0  0  0  0
  143.5333   75.5762  219.2756 H   0  0  0  0  0  0  0  0  0  0  0  0
  141.8543   75.0572  218.7921 H   0  0  0  0  0  0  0  0  0  0  0  0
  140.9510   74.8305  221.8425 H   0  0  0  0  0  0  0  0  0  0  0  0
  140.0236   76.6574  223.2937 H   0  0  0  0  0  0  0  0  0  0  0  0
  141.9746   79.6128  220.8022 H   0  0  0  0  0  0  0  0  0  0  0  0
  142.8845   77.7908  219.3790 H   0  0  0  0  0  0  0  0  0  0  0  0
  139.1873   69.6832  222.5382 H   0  0  0  0  0  0  0  0  0  0  0  0
  139.1209   68.1177  224.4699 H   0  0  0  0  0  0  0  0  0  0  0  0
  139.5542   67.6083  226.7273 H   0  0  0  0  0  0  0  0  0  0  0  0
  141.3950   70.6081  229.2072 H   0  0  0  0  0  0  0  0  0  0  0  0
  141.4849   72.2100  227.3184 H   0  0  0  0  0  0  0  0  0  0  0  0
  1  2  2  0
  2  3  1  0
  3  4  1  0
  4  5  1  0
  5  6  2  0
  5  7  1  0
  7  8  1  0
  8  9  1  0
  9 10  1  0
  9 11  1  0
 11 12  1  0
 12 13  1  0
 13 14  1  0
 14 15  2  0
 15 16  1  0
 16 17  2  0
 17 18  1  0
 17 19  1  0
 19 20  2  0
  2 21  1  0
 21 22  2  0
 22 23  1  0
 23 24  2  0
 24 25  1  0
 25 26  2  0
 26 27  1  0
 26 28  1  0
 28 29  2  0
 29 30  1  0
 30 31  2  0
 12  7  1  0
 20 14  1  0
 31 21  1  0
 30 24  1  0
  3 32  1  0
  4 33  1  0
  4 34  1  0
  8 35  1  0
  8 36  1  0
  9 37  1  6
 10 38  1  0
 11 39  1  0
 11 40  1  0
 12 41  1  1
 13 42  1  0
 13 43  1  0
 15 44  1  0
 16 45  1  0
 19 46  1  0
 20 47  1  0
 22 48  1  0
 23 49  1  0
 25 50  1  0
 28 51  1  0
 29 52  1  0
M  END
>  <smiles>  (26) 
O=C(NCC(=O)N1C[C@H](O)C[C@H]1Cc1ccc(Cl)cc1)c1ccc2cc(F)ccc2n1

>  <score_type>  (26) 
oracle

>  <origin>  (26) 
autodockgpu

>  <m_score__min__energy>  (26) 
-9.0399999999999991

>  <m_primary>  (26) 
energy

>  <rmsd>  (26) 
3.2330627330531567

>  <m_score__min__rmsd>  (26) 
3.2330627330531567

>  <meeko>  (26) 
{"free_energy": -8.28, "intermolecular_energy": -10.37, "internal_energy": -1.55, "cluster_size": 23, "cluster_id": 1, "rank_in_cluster": 19}

>  <energy>  (26) 
-8.59

>  <cluster_rmsd>  (26) 
0.33

>  <cluster>  (26) 
2

$$$$

     RDKit          3D

 52 55  0  0  0  0  0  0  0  0999 V2000
  140.0950   72.9980  222.6790 O   0  0  0  0  0  0  0  0  0  0  0  0
  140.2940   71.7660  222.8420 C   0  0  0  0  0  0  0  0  0  0  0  0
  140.4330   70.9830  221.6610 N   0  0  0  0  0  0  0  0  0  0  0  0
  140.3350   71.6440  220.3900 C   0  0  0  0  0  0  0  0  0  0  0  0
  141.5440   71.4360  219.5520 C   0  0  0  0  0  0  0  0  0  0  0  0
  141.7090   70.4400  218.8040 O   0  0  0  0  0  0  0  0  0  0  0  0
  142.5720   72.4170  219.5990 N   0  0  0  0  0  0  0  0  0  0  0  0
  143.7600   72.3450  218.7700 C   0  0  0  0  0  0  0  0  0  0  0  0
  144.6530   73.4800  219.2230 C   0  0  2  0  0  0  0  0  0  0  0  0
  145.9960   73.1140  219.2130 O   0  0  0  0  0  0  0  0  0  0  0  0
  144.1420   73.7500  220.6100 C   0  0  0  0  0  0  0  0  0  0  0  0
  142.6580   73.6120  220.4170 C   0  0  1  0  0  0  0  0  0  0  0  0
  142.0420   74.7460  219.6520 C   0  0  0  0  0  0  0  0  0  0  0  0
  141.7600   75.9300  220.5000 C   0  0  0  0  0  0  0  0  0  0  0  0
  142.1350   77.2140  220.1620 C   0  0  0  0  0  0  0  0  0  0  0  0
  141.8270   78.2730  221.0220 C   0  0  0  0  0  0  0  0  0  0  0  0
  141.1440   77.9990  222.2130 C   0  0  0  0  0  0  0  0  0  0  0  0
  140.7320   79.2940  223.3340 Cl  0  0  0  0  0  0  0  0  0  0  0  0
  140.7680   76.7140  222.5550 C   0  0  0  0  0  0  0  0  0  0  0  0
  141.0790   75.6820  221.6940 C   0  0  0  0  0  0  0  0  0  0  0  0
  140.3840   71.1480  224.1620 C   0  0  0  0  0  0  0  0  0  0  0  0
  140.9540   71.9140  225.1810 C   0  0  0  0  0  0  0  0  0  0  0  0
  141.0590   71.3690  226.4440 C   0  0  0  0  0  0  0  0  0  0  0  0
  140.6050   70.0840  226.6900 C   0  0  0  0  0  0  0  0  0  0  0  0
  140.7340   69.5890  227.9730 C   0  0  0  0  0  0  0  0  0  0  0  0
  140.2710   68.2970  228.2010 C   0  0  0  0  0  0  0  0  0  0  0  0
  140.3770   67.7710  229.4370 F   0  0  0  0  0  0  0  0  0  0  0  0
  139.7140   67.5760  227.1620 C   0  0  0  0  0  0  0  0  0  0  0  0
  139.5870   68.0760  225.8810 C   0  0  0  0  0  0  0  0  0  0  0  0
  140.0480   69.3620  225.6550 C   0  0  0  0  0  0  0  0  0  0  0  0
  139.9380   69.8880  224.4010 N   0  0  0  0  0  0  0  0  0  0  0  0
  140.5980   69.9600  221.7930 H   0  0  0  0  0  0  0  0  0  0  0  0
  139.4599   71.2496  219.8527 H   0  0  0  0  0  0  0  0  0  0  0  0
  140.2376   72.7233  220.5785 H   0  0  0  0  0  0  0  0  0  0  0  0
  144.2673   71.3793  218.9118 H   0  0  0  0  0  0  0  0  0  0  0  0
  143.5119   72.4287  217.7016 H   0  0  0  0  0  0  0  0  0  0  0  0
  144.6162   74.3637  218.5690 H   0  0  0  0  0  0  0  0  0  0  0  0
  146.5450   73.8320  218.7890 H   0  0  0  0  0  0  0  0  0  0  0  0
  144.5237   73.0107  221.3295 H   0  0  0  0  0  0  0  0  0  0  0  0
  144.4516   74.7228  221.0197 H   0  0  0  0  0  0  0  0  0  0  0  0
  142.1299   73.5875  221.3816 H   0  0  0  0  0  0  0  0  0  0  0  0
  142.7337   75.0452  218.8507 H   0  0  0  0  0  0  0  0  0  0  0  0
  141.0809   74.3903  219.2523 H   0  0  0  0  0  0  0  0  0  0  0  0
  142.6731   77.4037  219.2216 H   0  0  0  0  0  0  0  0  0  0  0  0
  142.1163   79.3032  220.7671 H   0  0  0  0  0  0  0  0  0  0  0  0
  140.2314   76.5179  223.4950 H   0  0  0  0  0  0  0  0  0  0  0  0
  140.7875   74.6528  221.9505 H   0  0  0  0  0  0  0  0  0  0  0  0
  141.3130   72.9342  224.9801 H   0  0  0  0  0  0  0  0  0  0  0  0
  141.5052   71.9576  227.2591 H   0  0  0  0  0  0  0  0  0  0  0  0
  141.1826   70.1893  228.7783 H   0  0  0  0  0  0  0  0  0  0  0  0
  139.3550   66.5562  227.3648 H   0  0  0  0  0  0  0  0  0  0  0  0
  139.1385   67.4778  225.0741 H   0  0  0  0  0  0  0  0  0  0  0  0
  1  2  2  0
  2  3  1  0
  3  4  1  0
  4  5  1  0
  5  6  2  0
  5  7  1  0
  7  8  1  0
  8  9  1  0
  9 10  1  0
  9 11  1  0
 11 12  1  0
 12 13  1  0
 13 14  1  0
 14 15  2  0
 15 16  1  0
 16 17  2  0
 17 18  1  0
 17 19  1  0
 19 20  2  0
  2 21  1  0
 21 22  2  0
 22 23  1  0
 23 24  2  0
 24 25  1  0
 25 26  2  0
 26 27  1  0
 26 28  1  0
 28 29  2  0
 29 30  1  0
 30 31  2  0
 12  7  1  0
 20 14  1  0
 31 21  1  0
 30 24  1  0
  3 32  1  0
  4 33  1  0
  4 34  1  0
  8 35  1  0
  8 36  1  0
  9 37  1  6
 10 38  1  0
 11 39  1  0
 11 40  1  0
 12 41  1  1
 13 42  1  0
 13 43  1  0
 15 44  1  0
 16 45  1  0
 19 46  1  0
 20 47  1  0
 22 48  1  0
 23 49  1  0
 25 50  1  0
 28 51  1  0
 29 52  1  0
M  END
>  <smiles>  (27) 
O=C(NCC(=O)N1C[C@H](O)C[C@H]1Cc1ccc(Cl)cc1)c1ccc2cc(F)ccc2n1

>  <score_type>  (27) 
oracle

>  <origin>  (27) 
autodockgpu

>  <m_score__min__energy>  (27) 
-9.0399999999999991

>  <m_primary>  (27) 
energy

>  <rmsd>  (27) 
4.039221506181917

>  <m_score__min__rmsd>  (27) 
4.039221506181917

>  <meeko>  (27) 
{"free_energy": -8.79, "intermolecular_energy": -10.88, "internal_energy": -1.76, "cluster_size": 23, "cluster_id": 1, "rank_in_cluster": 11}

>  <energy>  (27) 
-8.55

>  <cluster_rmsd>  (27) 
0.38

>  <cluster>  (27) 
2

$$$$

     RDKit          3D

 52 55  0  0  0  0  0  0  0  0999 V2000
  140.8720   71.9870  221.1680 O   0  0  0  0  0  0  0  0  0  0  0  0
  140.2910   72.3610  222.2190 C   0  0  0  0  0  0  0  0  0  0  0  0
  139.7190   73.6650  222.2000 N   0  0  0  0  0  0  0  0  0  0  0  0
  139.8460   74.4470  221.0010 C   0  0  0  0  0  0  0  0  0  0  0  0
  140.5960   75.7080  221.2270 C   0  0  0  0  0  0  0  0  0  0  0  0
  140.4100   76.4610  222.2160 O   0  0  0  0  0  0  0  0  0  0  0  0
  141.5800   76.0860  220.2720 N   0  0  0  0  0  0  0  0  0  0  0  0
  141.9480   77.4680  220.0350 C   0  0  0  0  0  0  0  0  0  0  0  0
  142.9040   77.4490  218.8610 C   0  0  2  0  0  0  0  0  0  0  0  0
  142.7030   78.5360  218.0160 O   0  0  0  0  0  0  0  0  0  0  0  0
  142.5670   76.1410  218.2020 C   0  0  0  0  0  0  0  0  0  0  0  0
  142.3690   75.2450  219.3930 C   0  0  1  0  0  0  0  0  0  0  0  0
  143.6430   74.8960  220.1020 C   0  0  0  0  0  0  0  0  0  0  0  0
  144.1300   73.5320  219.7810 C   0  0  0  0  0  0  0  0  0  0  0  0
  143.3320   72.5480  219.2360 C   0  0  0  0  0  0  0  0  0  0  0  0
  143.8750   71.2880  218.9640 C   0  0  0  0  0  0  0  0  0  0  0  0
  145.2250   71.0590  219.2550 C   0  0  0  0  0  0  0  0  0  0  0  0
  145.9620   69.4910  218.9340 Cl  0  0  0  0  0  0  0  0  0  0  0  0
  146.0270   72.0420  219.8010 C   0  0  0  0  0  0  0  0  0  0  0  0
  145.4750   73.2790  220.0620 C   0  0  0  0  0  0  0  0  0  0  0  0
  140.1940   71.5220  223.4100 C   0  0  0  0  0  0  0  0  0  0  0  0
  139.5690   70.2820  223.2600 C   0  0  0  0  0  0  0  0  0  0  0  0
  139.4560   69.4560  224.3600 C   0  0  0  0  0  0  0  0  0  0  0  0
  139.9540   69.8570  225.5880 C   0  0  0  0  0  0  0  0  0  0  0  0
  139.8130   68.9910  226.6550 C   0  0  0  0  0  0  0  0  0  0  0  0
  140.3210   69.4110  227.8800 C   0  0  0  0  0  0  0  0  0  0  0  0
  140.2050   68.6000  228.9500 F   0  0  0  0  0  0  0  0  0  0  0  0
  140.9300   70.6460  227.9820 C   0  0  0  0  0  0  0  0  0  0  0  0
  141.0690   71.5090  226.9120 C   0  0  0  0  0  0  0  0  0  0  0  0
  140.5640   71.0900  225.6930 C   0  0  0  0  0  0  0  0  0  0  0  0
  140.6830   71.9170  224.6130 N   0  0  0  0  0  0  0  0  0  0  0  0
  139.2360   73.9800  223.0720 H   0  0  0  0  0  0  0  0  0  0  0  0
  140.3768   73.8506  220.2444 H   0  0  0  0  0  0  0  0  0  0  0  0
  138.8332   74.7138  220.6647 H   0  0  0  0  0  0  0  0  0  0  0  0
  141.0564   78.0649  219.7925 H   0  0  0  0  0  0  0  0  0  0  0  0
  142.4107   77.9203  220.9246 H   0  0  0  0  0  0  0  0  0  0  0  0
  143.9630   77.5300  219.1473 H   0  0  0  0  0  0  0  0  0  0  0  0
  143.5410   78.7390  217.5120 H   0  0  0  0  0  0  0  0  0  0  0  0
  141.6489   76.2190  217.6012 H   0  0  0  0  0  0  0  0  0  0  0  0
  143.3321   75.7851  217.4963 H   0  0  0  0  0  0  0  0  0  0  0  0
  141.9229   74.2830  219.1003 H   0  0  0  0  0  0  0  0  0  0  0  0
  144.4164   75.6219  219.8108 H   0  0  0  0  0  0  0  0  0  0  0  0
  143.4374   74.9263  221.1822 H   0  0  0  0  0  0  0  0  0  0  0  0
  142.2738   72.7530  219.0163 H   0  0  0  0  0  0  0  0  0  0  0  0
  143.2527   70.4918  218.5295 H   0  0  0  0  0  0  0  0  0  0  0  0
  147.0856   71.8423  220.0235 H   0  0  0  0  0  0  0  0  0  0  0  0
  146.0998   74.0738  220.4955 H   0  0  0  0  0  0  0  0  0  0  0  0
  139.1737   69.9692  222.2823 H   0  0  0  0  0  0  0  0  0  0  0  0
  138.9683   68.4751  224.2606 H   0  0  0  0  0  0  0  0  0  0  0  0
  139.3213   68.0136  226.5411 H   0  0  0  0  0  0  0  0  0  0  0  0
  141.3229   70.9574  228.9611 H   0  0  0  0  0  0  0  0  0  0  0  0
  141.5599   72.4870  227.0239 H   0  0  0  0  0  0  0  0  0  0  0  0
  1  2  2  0
  2  3  1  0
  3  4  1  0
  4  5  1  0
  5  6  2  0
  5  7  1  0
  7  8  1  0
  8  9  1  0
  9 10  1  0
  9 11  1  0
 11 12  1  0
 12 13  1  0
 13 14  1  0
 14 15  2  0
 15 16  1  0
 16 17  2  0
 17 18  1  0
 17 19  1  0
 19 20  2  0
  2 21  1  0
 21 22  2  0
 22 23  1  0
 23 24  2  0
 24 25  1  0
 25 26  2  0
 26 27  1  0
 26 28  1  0
 28 29  2  0
 29 30  1  0
 30 31  2  0
 12  7  1  0
 20 14  1  0
 31 21  1  0
 30 24  1  0
  3 32  1  0
  4 33  1  0
  4 34  1  0
  8 35  1  0
  8 36  1  0
  9 37  1  1
 10 38  1  0
 11 39  1  0
 11 40  1  0
 12 41  1  6
 13 42  1  0
 13 43  1  0
 15 44  1  0
 16 45  1  0
 19 46  1  0
 20 47  1  0
 22 48  1  0
 23 49  1  0
 25 50  1  0
 28 51  1  0
 29 52  1  0
M  END
>  <smiles>  (28) 
O=C(NCC(=O)N1C[C@H](O)C[C@H]1Cc1ccc(Cl)cc1)c1ccc2cc(F)ccc2n1

>  <score_type>  (28) 
oracle

>  <origin>  (28) 
autodockgpu

>  <m_score__min__energy>  (28) 
-9.0399999999999991

>  <m_primary>  (28) 
energy

>  <rmsd>  (28) 
2.2442179562998854

>  <m_score__min__rmsd>  (28) 
2.2442179562998854

>  <meeko>  (28) 
{"free_energy": -8.59, "intermolecular_energy": -10.68, "internal_energy": -1.66, "cluster_size": 12, "cluster_id": 2, "rank_in_cluster": 3}

>  <energy>  (28) 
-8.37

>  <cluster_rmsd>  (28) 
0.63

>  <cluster>  (28) 
2

$$$$

     RDKit          3D

 52 55  0  0  0  0  0  0  0  0999 V2000
  140.7480   71.7460  221.1360 O   0  0  0  0  0  0  0  0  0  0  0  0
  140.3220   72.2340  222.2150 C   0  0  0  0  0  0  0  0  0  0  0  0
  139.9710   73.6140  222.1940 N   0  0  0  0  0  0  0  0  0  0  0  0
  140.1280   74.3380  220.9630 C   0  0  0  0  0  0  0  0  0  0  0  0
  140.7760   75.6590  221.1640 C   0  0  0  0  0  0  0  0  0  0  0  0
  140.5440   76.4040  222.1500 O   0  0  0  0  0  0  0  0  0  0  0  0
  141.7080   76.1070  220.1890 N   0  0  0  0  0  0  0  0  0  0  0  0
  142.0460   77.5070  220.0160 C   0  0  0  0  0  0  0  0  0  0  0  0
  142.9460   77.5700  218.8000 C   0  0  2  0  0  0  0  0  0  0  0  0
  142.6910   78.7010  218.0290 O   0  0  0  0  0  0  0  0  0  0  0  0
  142.5970   76.2970  218.0820 C   0  0  0  0  0  0  0  0  0  0  0  0
  142.4670   75.3310  219.2270 C   0  0  1  0  0  0  0  0  0  0  0  0
  143.7780   74.9630  219.8560 C   0  0  0  0  0  0  0  0  0  0  0  0
  144.0660   73.5090  219.7840 C   0  0  0  0  0  0  0  0  0  0  0  0
  143.5120   72.5800  220.6400 C   0  0  0  0  0  0  0  0  0  0  0  0
  143.8400   71.2290  220.5000 C   0  0  0  0  0  0  0  0  0  0  0  0
  144.7300   70.8520  219.4870 C   0  0  0  0  0  0  0  0  0  0  0  0
  145.1790   69.1630  219.2650 Cl  0  0  0  0  0  0  0  0  0  0  0  0
  145.2870   71.7790  218.6290 C   0  0  0  0  0  0  0  0  0  0  0  0
  144.9510   73.1090  218.7810 C   0  0  0  0  0  0  0  0  0  0  0  0
  140.1840   71.4480  223.4370 C   0  0  0  0  0  0  0  0  0  0  0  0
  139.5130   70.2270  223.3320 C   0  0  0  0  0  0  0  0  0  0  0  0
  139.3600   69.4520  224.4630 C   0  0  0  0  0  0  0  0  0  0  0  0
  139.8640   69.8830  225.6780 C   0  0  0  0  0  0  0  0  0  0  0  0
  139.6820   69.0670  226.7780 C   0  0  0  0  0  0  0  0  0  0  0  0
  140.1960   69.5170  227.9900 C   0  0  0  0  0  0  0  0  0  0  0  0
  140.0410   68.7550  229.0910 F   0  0  0  0  0  0  0  0  0  0  0  0
  140.8520   70.7310  228.0470 C   0  0  0  0  0  0  0  0  0  0  0  0
  141.0320   71.5430  226.9450 C   0  0  0  0  0  0  0  0  0  0  0  0
  140.5190   71.0950  225.7390 C   0  0  0  0  0  0  0  0  0  0  0  0
  140.6780   71.8730  224.6280 N   0  0  0  0  0  0  0  0  0  0  0  0
  139.6170   74.0220  223.0880 H   0  0  0  0  0  0  0  0  0  0  0  0
  140.7477   73.7407  220.2780 H   0  0  0  0  0  0  0  0  0  0  0  0
  139.1253   74.5152  220.5469 H   0  0  0  0  0  0  0  0  0  0  0  0
  141.1362   78.1025  219.8498 H   0  0  0  0  0  0  0  0  0  0  0  0
  142.5436   77.9153  220.9080 H   0  0  0  0  0  0  0  0  0  0  0  0
  144.0160   77.6511  219.0421 H   0  0  0  0  0  0  0  0  0  0  0  0
  143.5000   78.9440  217.4980 H   0  0  0  0  0  0  0  0  0  0  0  0
  141.6510   76.3942  217.5292 H   0  0  0  0  0  0  0  0  0  0  0  0
  143.3332   75.9949  217.3226 H   0  0  0  0  0  0  0  0  0  0  0  0
  142.0211   74.3803  218.8994 H   0  0  0  0  0  0  0  0  0  0  0  0
  144.5812   75.5059  219.3362 H   0  0  0  0  0  0  0  0  0  0  0  0
  143.7212   75.2356  220.9202 H   0  0  0  0  0  0  0  0  0  0  0  0
  142.8156   72.9010  221.4287 H   0  0  0  0  0  0  0  0  0  0  0  0
  143.4067   70.4750  221.1736 H   0  0  0  0  0  0  0  0  0  0  0  0
  145.9851   71.4638  217.8395 H   0  0  0  0  0  0  0  0  0  0  0  0
  145.3846   73.8611  218.1055 H   0  0  0  0  0  0  0  0  0  0  0  0
  139.1136   69.8895  222.3642 H   0  0  0  0  0  0  0  0  0  0  0  0
  138.8352   68.4874  224.3990 H   0  0  0  0  0  0  0  0  0  0  0  0
  139.1545   68.1050  226.6991 H   0  0  0  0  0  0  0  0  0  0  0  0
  141.2498   71.0668  229.0160 H   0  0  0  0  0  0  0  0  0  0  0  0
  141.5603   72.5048  227.0216 H   0  0  0  0  0  0  0  0  0  0  0  0
  1  2  2  0
  2  3  1  0
  3  4  1  0
  4  5  1  0
  5  6  2  0
  5  7  1  0
  7  8  1  0
  8  9  1  0
  9 10  1  0
  9 11  1  0
 11 12  1  0
 12 13  1  0
 13 14  1  0
 14 15  2  0
 15 16  1  0
 16 17  2  0
 17 18  1  0
 17 19  1  0
 19 20  2  0
  2 21  1  0
 21 22  2  0
 22 23  1  0
 23 24  2  0
 24 25  1  0
 25 26  2  0
 26 27  1  0
 26 28  1  0
 28 29  2  0
 29 30  1  0
 30 31  2  0
 12  7  1  0
 20 14  1  0
 31 21  1  0
 30 24  1  0
  3 32  1  0
  4 33  1  0
  4 34  1  0
  8 35  1  0
  8 36  1  0
  9 37  1  1
 10 38  1  0
 11 39  1  0
 11 40  1  0
 12 41  1  6
 13 42  1  0
 13 43  1  0
 15 44  1  0
 16 45  1  0
 19 46  1  0
 20 47  1  0
 22 48  1  0
 23 49  1  0
 25 50  1  0
 28 51  1  0
 29 52  1  0
M  END
>  <smiles>  (29) 
O=C(NCC(=O)N1C[C@H](O)C[C@H]1Cc1ccc(Cl)cc1)c1ccc2cc(F)ccc2n1

>  <score_type>  (29) 
oracle

>  <origin>  (29) 
autodockgpu

>  <m_score__min__energy>  (29) 
-9.0399999999999991

>  <m_primary>  (29) 
energy

>  <rmsd>  (29) 
2.2907055838048374

>  <m_score__min__rmsd>  (29) 
2.2907055838048374

>  <meeko>  (29) 
{"free_energy": -8.35, "intermolecular_energy": -10.44, "internal_energy": -1.81, "cluster_size": 12, "cluster_id": 2, "rank_in_cluster": 7}

>  <energy>  (29) 
-8.37

>  <cluster_rmsd>  (29) 
0.5

>  <cluster>  (29) 
2

$$$$

     RDKit          3D

 52 55  0  0  0  0  0  0  0  0999 V2000
  140.3720   73.3960  222.4320 O   0  0  0  0  0  0  0  0  0  0  0  0
  140.2110   72.1490  222.3980 C   0  0  0  0  0  0  0  0  0  0  0  0
  140.0900   71.5590  221.1070 N   0  0  0  0  0  0  0  0  0  0  0  0
  140.1590   72.4170  219.9570 C   0  0  0  0  0  0  0  0  0  0  0  0
  141.3530   72.1400  219.1170 C   0  0  0  0  0  0  0  0  0  0  0  0
  141.4050   71.2160  218.2660 O   0  0  0  0  0  0  0  0  0  0  0  0
  142.4990   72.9630  219.2850 N   0  0  0  0  0  0  0  0  0  0  0  0
  143.7070   72.7900  218.5010 C   0  0  0  0  0  0  0  0  0  0  0  0
  144.7200   73.7540  219.0800 C   0  0  2  0  0  0  0  0  0  0  0  0
  146.0010   73.2080  219.0940 O   0  0  0  0  0  0  0  0  0  0  0  0
  144.1810   73.9860  220.4630 C   0  0  0  0  0  0  0  0  0  0  0  0
  142.7030   74.0690  220.2010 C   0  0  1  0  0  0  0  0  0  0  0  0
  142.2840   75.3320  219.5080 C   0  0  0  0  0  0  0  0  0  0  0  0
  141.8860   76.4050  220.4520 C   0  0  0  0  0  0  0  0  0  0  0  0
  142.1690   77.7400  220.2490 C   0  0  0  0  0  0  0  0  0  0  0  0
  141.7540   78.6850  221.1920 C   0  0  0  0  0  0  0  0  0  0  0  0
  141.0600   78.2480  222.3260 C   0  0  0  0  0  0  0  0  0  0  0  0
  140.5150   79.3950  223.5480 Cl  0  0  0  0  0  0  0  0  0  0  0  0
  140.7770   76.9120  222.5330 C   0  0  0  0  0  0  0  0  0  0  0  0
  141.1920   75.9930  221.5910 C   0  0  0  0  0  0  0  0  0  0  0  0
  140.1480   71.3270  223.6020 C   0  0  0  0  0  0  0  0  0  0  0  0
  139.5550   70.0690  223.4780 C   0  0  0  0  0  0  0  0  0  0  0  0
  139.4750   69.2580  224.5920 C   0  0  0  0  0  0  0  0  0  0  0  0
  139.9740   69.6920  225.8090 C   0  0  0  0  0  0  0  0  0  0  0  0
  139.8670   68.8400  226.8910 C   0  0  0  0  0  0  0  0  0  0  0  0
  140.3750   69.2930  228.1040 C   0  0  0  0  0  0  0  0  0  0  0  0
  140.2910   68.4960  229.1880 F   0  0  0  0  0  0  0  0  0  0  0  0
  140.9520   70.5450  228.1800 C   0  0  0  0  0  0  0  0  0  0  0  0
  141.0570   71.3930  227.0960 C   0  0  0  0  0  0  0  0  0  0  0  0
  140.5510   70.9420  225.8880 C   0  0  0  0  0  0  0  0  0  0  0  0
  140.6380   71.7540  224.7940 N   0  0  0  0  0  0  0  0  0  0  0  0
  139.9570   70.5240  221.0750 H   0  0  0  0  0  0  0  0  0  0  0  0
  139.2554   72.2657  219.3482 H   0  0  0  0  0  0  0  0  0  0  0  0
  140.2332   73.4544  220.3153 H   0  0  0  0  0  0  0  0  0  0  0  0
  144.0722   71.7557  218.5843 H   0  0  0  0  0  0  0  0  0  0  0  0
  143.5270   72.9866  217.4338 H   0  0  0  0  0  0  0  0  0  0  0  0
  144.8347   74.6810  218.4991 H   0  0  0  0  0  0  0  0  0  0  0  0
  146.6820   73.9270  218.9710 H   0  0  0  0  0  0  0  0  0  0  0  0
  144.4234   73.1487  221.1340 H   0  0  0  0  0  0  0  0  0  0  0  0
  144.5975   74.8730  220.9628 H   0  0  0  0  0  0  0  0  0  0  0  0
  142.1284   74.0444  221.1387 H   0  0  0  0  0  0  0  0  0  0  0  0
  143.1260   75.6943  218.8999 H   0  0  0  0  0  0  0  0  0  0  0  0
  141.4053   75.0934  218.8908 H   0  0  0  0  0  0  0  0  0  0  0  0
  142.7178   78.0589  219.3506 H   0  0  0  0  0  0  0  0  0  0  0  0
  141.9693   79.7537  221.0452 H   0  0  0  0  0  0  0  0  0  0  0  0
  140.2315   76.5870  223.4312 H   0  0  0  0  0  0  0  0  0  0  0  0
  140.9738   74.9251  221.7391 H   0  0  0  0  0  0  0  0  0  0  0  0
  139.1585   69.7302  222.5095 H   0  0  0  0  0  0  0  0  0  0  0  0
  139.0130   68.2628  224.5130 H   0  0  0  0  0  0  0  0  0  0  0  0
  139.4010   67.8480  226.7976 H   0  0  0  0  0  0  0  0  0  0  0  0
  141.3465   70.8825  229.1498 H   0  0  0  0  0  0  0  0  0  0  0  0
  141.5229   72.3852  227.1876 H   0  0  0  0  0  0  0  0  0  0  0  0
  1  2  2  0
  2  3  1  0
  3  4  1  0
  4  5  1  0
  5  6  2  0
  5  7  1  0
  7  8  1  0
  8  9  1  0
  9 10  1  0
  9 11  1  0
 11 12  1  0
 12 13  1  0
 13 14  1  0
 14 15  2  0
 15 16  1  0
 16 17  2  0
 17 18  1  0
 17 19  1  0
 19 20  2  0
  2 21  1  0
 21 22  2  0
 22 23  1  0
 23 24  2  0
 24 25  1  0
 25 26  2  0
 26 27  1  0
 26 28  1  0
 28 29  2  0
 29 30  1  0
 30 31  2  0
 12  7  1  0
 20 14  1  0
 31 21  1  0
 30 24  1  0
  3 32  1  0
  4 33  1  0
  4 34  1  0
  8 35  1  0
  8 36  1  0
  9 37  1  6
 10 38  1  0
 11 39  1  0
 11 40  1  0
 12 41  1  1
 13 42  1  0
 13 43  1  0
 15 44  1  0
 16 45  1  0
 19 46  1  0
 20 47  1  0
 22 48  1  0
 23 49  1  0
 25 50  1  0
 28 51  1  0
 29 52  1  0
M  END
>  <smiles>  (30) 
O=C(NCC(=O)N1C[C@H](O)C[C@H]1Cc1ccc(Cl)cc1)c1ccc2cc(F)ccc2n1

>  <score_type>  (30) 
oracle

>  <origin>  (30) 
autodockgpu

>  <m_score__min__energy>  (30) 
-9.0399999999999991

>  <m_primary>  (30) 
energy

>  <rmsd>  (30) 
3.178148859050406

>  <m_score__min__rmsd>  (30) 
3.178148859050406

>  <meeko>  (30) 
{"free_energy": -8.95, "intermolecular_energy": -11.04, "internal_energy": -1.55, "cluster_size": 23, "cluster_id": 1, "rank_in_cluster": 6}

>  <energy>  (30) 
-8.35

>  <cluster_rmsd>  (30) 
0.64

>  <cluster>  (30) 
2

$$$$

     RDKit          3D

 52 55  0  0  0  0  0  0  0  0999 V2000
  140.0230   73.3190  222.7140 O   0  0  0  0  0  0  0  0  0  0  0  0
  140.1060   72.0670  222.6370 C   0  0  0  0  0  0  0  0  0  0  0  0
  140.2260   71.5170  221.3290 N   0  0  0  0  0  0  0  0  0  0  0  0
  140.2440   72.4180  220.2100 C   0  0  0  0  0  0  0  0  0  0  0  0
  141.3750   72.1470  219.2850 C   0  0  0  0  0  0  0  0  0  0  0  0
  141.3660   71.2280  218.4270 O   0  0  0  0  0  0  0  0  0  0  0  0
  142.5300   72.9700  219.3750 N   0  0  0  0  0  0  0  0  0  0  0  0
  143.6990   72.7690  218.5420 C   0  0  0  0  0  0  0  0  0  0  0  0
  144.7410   73.7460  219.0440 C   0  0  2  0  0  0  0  0  0  0  0  0
  146.0200   73.1950  219.0160 O   0  0  0  0  0  0  0  0  0  0  0  0
  144.2670   74.0210  220.4440 C   0  0  0  0  0  0  0  0  0  0  0  0
  142.7790   74.1020  220.2480 C   0  0  1  0  0  0  0  0  0  0  0  0
  142.3320   75.3450  219.5370 C   0  0  0  0  0  0  0  0  0  0  0  0
  141.8810   76.4110  220.4650 C   0  0  0  0  0  0  0  0  0  0  0  0
  142.1440   77.7510  220.2700 C   0  0  0  0  0  0  0  0  0  0  0  0
  141.6790   78.6890  221.1970 C   0  0  0  0  0  0  0  0  0  0  0  0
  140.9550   78.2390  222.3070 C   0  0  0  0  0  0  0  0  0  0  0  0
  140.3470   79.3760  223.5080 Cl  0  0  0  0  0  0  0  0  0  0  0  0
  140.6910   76.8980  222.5060 C   0  0  0  0  0  0  0  0  0  0  0  0
  141.1560   75.9860  221.5810 C   0  0  0  0  0  0  0  0  0  0  0  0
  140.0810   71.2000  223.8110 C   0  0  0  0  0  0  0  0  0  0  0  0
  139.5040   69.9370  223.6520 C   0  0  0  0  0  0  0  0  0  0  0  0
  139.4600   69.0850  224.7370 C   0  0  0  0  0  0  0  0  0  0  0  0
  139.9790   69.4810  225.9580 C   0  0  0  0  0  0  0  0  0  0  0  0
  139.9080   68.5880  227.0090 C   0  0  0  0  0  0  0  0  0  0  0  0
  140.4360   69.0030  228.2280 C   0  0  0  0  0  0  0  0  0  0  0  0
  140.3880   68.1660  229.2820 F   0  0  0  0  0  0  0  0  0  0  0  0
  140.9960   70.2610  228.3380 C   0  0  0  0  0  0  0  0  0  0  0  0
  141.0650   71.1500  227.2840 C   0  0  0  0  0  0  0  0  0  0  0  0
  140.5400   70.7360  226.0710 C   0  0  0  0  0  0  0  0  0  0  0  0
  140.5910   71.5900  225.0070 N   0  0  0  0  0  0  0  0  0  0  0  0
  140.2950   70.4770  221.2610 H   0  0  0  0  0  0  0  0  0  0  0  0
  139.3001   72.3117  219.6552 H   0  0  0  0  0  0  0  0  0  0  0  0
  140.3673   73.4384  220.6019 H   0  0  0  0  0  0  0  0  0  0  0  0
  144.0649   71.7362  218.6394 H   0  0  0  0  0  0  0  0  0  0  0  0
  143.4700   72.9346  217.4789 H   0  0  0  0  0  0  0  0  0  0  0  0
  144.8313   74.6545  218.4304 H   0  0  0  0  0  0  0  0  0  0  0  0
  146.7020   73.9170  218.9160 H   0  0  0  0  0  0  0  0  0  0  0  0
  144.5380   73.2030  221.1276 H   0  0  0  0  0  0  0  0  0  0  0  0
  144.7085   74.9206  220.8977 H   0  0  0  0  0  0  0  0  0  0  0  0
  142.2485   74.1075  221.2116 H   0  0  0  0  0  0  0  0  0  0  0  0
  143.1730   75.7305  218.9419 H   0  0  0  0  0  0  0  0  0  0  0  0
  141.4737   75.0730  218.9050 H   0  0  0  0  0  0  0  0  0  0  0  0
  142.7164   78.0799  219.3901 H   0  0  0  0  0  0  0  0  0  0  0  0
  141.8787   79.7615  221.0563 H   0  0  0  0  0  0  0  0  0  0  0  0
  140.1208   76.5635  223.3852 H   0  0  0  0  0  0  0  0  0  0  0  0
  140.9540   74.9142  221.7236 H   0  0  0  0  0  0  0  0  0  0  0  0
  139.0925   69.6276  222.6799 H   0  0  0  0  0  0  0  0  0  0  0  0
  139.0105   68.0866  224.6312 H   0  0  0  0  0  0  0  0  0  0  0  0
  139.4544   67.5932  226.8881 H   0  0  0  0  0  0  0  0  0  0  0  0
  141.4062   70.5689  229.3111 H   0  0  0  0  0  0  0  0  0  0  0  0
  141.5179   72.1454  227.4026 H   0  0  0  0  0  0  0  0  0  0  0  0
  1  2  2  0
  2  3  1  0
  3  4  1  0
  4  5  1  0
  5  6  2  0
  5  7  1  0
  7  8  1  0
  8  9  1  0
  9 10  1  0
  9 11  1  0
 11 12  1  0
 12 13  1  0
 13 14  1  0
 14 15  2  0
 15 16  1  0
 16 17  2  0
 17 18  1  0
 17 19  1  0
 19 20  2  0
  2 21  1  0
 21 22  2  0
 22 23  1  0
 23 24  2  0
 24 25  1  0
 25 26  2  0
 26 27  1  0
 26 28  1  0
 28 29  2  0
 29 30  1  0
 30 31  2  0
 12  7  1  0
 20 14  1  0
 31 21  1  0
 30 24  1  0
  3 32  1  0
  4 33  1  0
  4 34  1  0
  8 35  1  0
  8 36  1  0
  9 37  1  6
 10 38  1  0
 11 39  1  0
 11 40  1  0
 12 41  1  1
 13 42  1  0
 13 43  1  0
 15 44  1  0
 16 45  1  0
 19 46  1  0
 20 47  1  0
 22 48  1  0
 23 49  1  0
 25 50  1  0
 28 51  1  0
 29 52  1  0
M  END
>  <smiles>  (31) 
O=C(NCC(=O)N1C[C@H](O)C[C@H]1Cc1ccc(Cl)cc1)c1ccc2cc(F)ccc2n1

>  <score_type>  (31) 
oracle

>  <origin>  (31) 
autodockgpu

>  <m_score__min__energy>  (31) 
-9.0399999999999991

>  <m_primary>  (31) 
energy

>  <rmsd>  (31) 
3.174890581345331

>  <m_score__min__rmsd>  (31) 
3.174890581345331

>  <meeko>  (31) 
{"free_energy": -9.03, "intermolecular_energy": -11.11, "internal_energy": -1.52, "cluster_size": 23, "cluster_id": 1, "rank_in_cluster": 2}

>  <energy>  (31) 
-8.25

>  <cluster_rmsd>  (31) 
1.25

>  <cluster>  (31) 
2

$$$$

     RDKit          3D

 52 55  0  0  0  0  0  0  0  0999 V2000
  139.4060   71.4150  221.1390 O   0  0  0  0  0  0  0  0  0  0  0  0
  139.4320   71.9310  222.2860 C   0  0  0  0  0  0  0  0  0  0  0  0
  139.2210   73.3380  222.3540 N   0  0  0  0  0  0  0  0  0  0  0  0
  139.0000   74.0540  221.1280 C   0  0  0  0  0  0  0  0  0  0  0  0
  139.8080   75.2980  221.0480 C   0  0  0  0  0  0  0  0  0  0  0  0
  139.4070   76.4150  221.4610 O   0  0  0  0  0  0  0  0  0  0  0  0
  141.1050   75.2220  220.4710 N   0  0  0  0  0  0  0  0  0  0  0  0
  142.0050   76.3570  220.4190 C   0  0  0  0  0  0  0  0  0  0  0  0
  143.2020   75.9030  219.6110 C   0  0  2  0  0  0  0  0  0  0  0  0
  143.6830   76.9180  218.7890 O   0  0  0  0  0  0  0  0  0  0  0  0
  142.6350   74.7520  218.8280 C   0  0  0  0  0  0  0  0  0  0  0  0
  141.7660   74.0860  219.8570 C   0  0  1  0  0  0  0  0  0  0  0  0
  142.5380   73.3640  220.9210 C   0  0  0  0  0  0  0  0  0  0  0  0
  143.5430   72.4220  220.3690 C   0  0  0  0  0  0  0  0  0  0  0  0
  144.8720   72.7470  220.1910 C   0  0  0  0  0  0  0  0  0  0  0  0
  145.7510   71.7950  219.6640 C   0  0  0  0  0  0  0  0  0  0  0  0
  145.2540   70.5310  219.3280 C   0  0  0  0  0  0  0  0  0  0  0  0
  146.3150   69.2940  218.6590 Cl  0  0  0  0  0  0  0  0  0  0  0  0
  143.9240   70.2030  219.5040 C   0  0  0  0  0  0  0  0  0  0  0  0
  143.0710   71.1540  220.0260 C   0  0  0  0  0  0  0  0  0  0  0  0
  139.6620   71.1520  223.4990 C   0  0  0  0  0  0  0  0  0  0  0  0
  139.3230   69.7980  223.4540 C   0  0  0  0  0  0  0  0  0  0  0  0
  139.5240   69.0240  224.5780 C   0  0  0  0  0  0  0  0  0  0  0  0
  140.0510   69.5870  225.7280 C   0  0  0  0  0  0  0  0  0  0  0  0
  140.2310   68.7650  226.8240 C   0  0  0  0  0  0  0  0  0  0  0  0
  140.7630   69.3490  227.9700 C   0  0  0  0  0  0  0  0  0  0  0  0
  140.9560   68.5860  229.0640 F   0  0  0  0  0  0  0  0  0  0  0  0
  141.0830   70.6920  227.9680 C   0  0  0  0  0  0  0  0  0  0  0  0
  140.9020   71.5090  226.8700 C   0  0  0  0  0  0  0  0  0  0  0  0
  140.3720   70.9280  225.7300 C   0  0  0  0  0  0  0  0  0  0  0  0
  140.1790   71.7060  224.6250 N   0  0  0  0  0  0  0  0  0  0  0  0
  139.2420   73.7710  223.3040 H   0  0  0  0  0  0  0  0  0  0  0  0
  139.2698   73.4021  220.2841 H   0  0  0  0  0  0  0  0  0  0  0  0
  137.9383   74.3395  221.0918 H   0  0  0  0  0  0  0  0  0  0  0  0
  141.5149   77.2114  219.9292 H   0  0  0  0  0  0  0  0  0  0  0  0
  142.2997   76.6843  221.4270 H   0  0  0  0  0  0  0  0  0  0  0  0
  144.0727   75.6241  220.2227 H   0  0  0  0  0  0  0  0  0  0  0  0
  143.8980   77.7280  219.3320 H   0  0  0  0  0  0  0  0  0  0  0  0
  142.0435   75.1031  217.9696 H   0  0  0  0  0  0  0  0  0  0  0  0
  143.3967   74.0905  218.3895 H   0  0  0  0  0  0  0  0  0  0  0  0
  141.1155   73.3258  219.4000 H   0  0  0  0  0  0  0  0  0  0  0  0
  143.0585   74.1077  221.5422 H   0  0  0  0  0  0  0  0  0  0  0  0
  141.8184   72.7723  221.5058 H   0  0  0  0  0  0  0  0  0  0  0  0
  145.2380   73.7484  220.4618 H   0  0  0  0  0  0  0  0  0  0  0  0
  146.8141   72.0358  219.5164 H   0  0  0  0  0  0  0  0  0  0  0  0
  143.5521   69.2038  219.2335 H   0  0  0  0  0  0  0  0  0  0  0  0
  142.0085   70.9103  220.1732 H   0  0  0  0  0  0  0  0  0  0  0  0
  138.9030   69.3564  222.5382 H   0  0  0  0  0  0  0  0  0  0  0  0
  139.2646   67.9552  224.5606 H   0  0  0  0  0  0  0  0  0  0  0  0
  139.9660   67.6979  226.7923 H   0  0  0  0  0  0  0  0  0  0  0  0
  141.5021   71.1320  228.8849 H   0  0  0  0  0  0  0  0  0  0  0  0
  141.1674   72.5761  226.8993 H   0  0  0  0  0  0  0  0  0  0  0  0
  1  2  2  0
  2  3  1  0
  3  4  1  0
  4  5  1  0
  5  6  2  0
  5  7  1  0
  7  8  1  0
  8  9  1  0
  9 10  1  0
  9 11  1  0
 11 12  1  0
 12 13  1  0
 13 14  1  0
 14 15  2  0
 15 16  1  0
 16 17  2  0
 17 18  1  0
 17 19  1  0
 19 20  2  0
  2 21  1  0
 21 22  2  0
 22 23  1  0
 23 24  2  0
 24 25  1  0
 25 26  2  0
 26 27  1  0
 26 28  1  0
 28 29  2  0
 29 30  1  0
 30 31  2  0
 12  7  1  0
 20 14  1  0
 31 21  1  0
 30 24  1  0
  3 32  1  0
  4 33  1  0
  4 34  1  0
  8 35  1  0
  8 36  1  0
  9 37  1  1
 10 38  1  0
 11 39  1  0
 11 40  1  0
 12 41  1  6
 13 42  1  0
 13 43  1  0
 15 44  1  0
 16 45  1  0
 19 46  1  0
 20 47  1  0
 22 48  1  0
 23 49  1  0
 25 50  1  0
 28 51  1  0
 29 52  1  0
M  END
>  <smiles>  (32) 
O=C(NCC(=O)N1C[C@H](O)C[C@H]1Cc1ccc(Cl)cc1)c1ccc2cc(F)ccc2n1

>  <score_type>  (32) 
oracle

>  <origin>  (32) 
autodockgpu

>  <m_score__min__energy>  (32) 
-9.0399999999999991

>  <m_primary>  (32) 
energy

>  <rmsd>  (32) 
2.2517688263102564

>  <m_score__min__rmsd>  (32) 
2.2517688263102564

>  <meeko>  (32) 
{"free_energy": -7.81, "intermolecular_energy": -9.9, "internal_energy": -1.87, "cluster_size": 12, "cluster_id": 2, "rank_in_cluster": 12}

>  <energy>  (32) 
-8.01

>  <cluster_rmsd>  (32) 
1.85

>  <cluster>  (32) 
2

$$$$

     RDKit          3D

 52 55  0  0  0  0  0  0  0  0999 V2000
  140.3460   73.5340  222.3440 O   0  0  0  0  0  0  0  0  0  0  0  0
  140.4400   72.2810  222.3960 C   0  0  0  0  0  0  0  0  0  0  0  0
  140.7900   71.6190  221.1850 N   0  0  0  0  0  0  0  0  0  0  0  0
  141.0060   72.4170  220.0100 C   0  0  0  0  0  0  0  0  0  0  0  0
  142.3970   72.9310  219.9260 C   0  0  0  0  0  0  0  0  0  0  0  0
  143.4110   72.2450  220.2100 O   0  0  0  0  0  0  0  0  0  0  0  0
  142.5940   74.2740  219.5000 N   0  0  0  0  0  0  0  0  0  0  0  0
  142.6810   74.6450  218.1010 C   0  0  0  0  0  0  0  0  0  0  0  0
  143.0330   76.1170  218.0830 C   0  0  2  0  0  0  0  0  0  0  0  0
  143.9210   76.4220  217.0540 O   0  0  0  0  0  0  0  0  0  0  0  0
  143.6430   76.3130  219.4430 C   0  0  0  0  0  0  0  0  0  0  0  0
  142.7400   75.4740  220.3020 C   0  0  1  0  0  0  0  0  0  0  0  0
  141.3780   76.0680  220.5040 C   0  0  0  0  0  0  0  0  0  0  0  0
  141.4020   77.3050  221.3220 C   0  0  0  0  0  0  0  0  0  0  0  0
  141.0770   77.3380  222.6620 C   0  0  0  0  0  0  0  0  0  0  0  0
  141.1270   78.5510  223.3560 C   0  0  0  0  0  0  0  0  0  0  0  0
  141.5070   79.7080  222.6660 C   0  0  0  0  0  0  0  0  0  0  0  0
  141.5870   81.2640  223.4890 Cl  0  0  0  0  0  0  0  0  0  0  0  0
  141.8320   79.6790  221.3240 C   0  0  0  0  0  0  0  0  0  0  0  0
  141.7780   78.4730  220.6550 C   0  0  0  0  0  0  0  0  0  0  0  0
  140.2080   71.5210  223.6210 C   0  0  0  0  0  0  0  0  0  0  0  0
  139.3850   70.3970  223.5200 C   0  0  0  0  0  0  0  0  0  0  0  0
  139.1390   69.6490  224.6540 C   0  0  0  0  0  0  0  0  0  0  0  0
  139.6990   70.0140  225.8660 C   0  0  0  0  0  0  0  0  0  0  0  0
  139.4190   69.2300  226.9680 C   0  0  0  0  0  0  0  0  0  0  0  0
  139.9920   69.6120  228.1780 C   0  0  0  0  0  0  0  0  0  0  0  0
  139.7460   68.8780  229.2800 F   0  0  0  0  0  0  0  0  0  0  0  0
  140.7990   70.7320  228.2290 C   0  0  0  0  0  0  0  0  0  0  0  0
  141.0760   71.5130  227.1250 C   0  0  0  0  0  0  0  0  0  0  0  0
  140.5050   71.1320  225.9220 C   0  0  0  0  0  0  0  0  0  0  0  0
  140.7580   71.8810  224.8090 N   0  0  0  0  0  0  0  0  0  0  0  0
  140.8690   70.5780  221.2240 H   0  0  0  0  0  0  0  0  0  0  0  0
  140.8021   71.8011  219.1217 H   0  0  0  0  0  0  0  0  0  0  0  0
  140.3297   73.2829  220.0621 H   0  0  0  0  0  0  0  0  0  0  0  0
  143.4636   74.0583  217.5976 H   0  0  0  0  0  0  0  0  0  0  0  0
  141.7367   74.4492  217.5719 H   0  0  0  0  0  0  0  0  0  0  0  0
  142.1738   76.7775  217.8945 H   0  0  0  0  0  0  0  0  0  0  0  0
  144.8310   76.0740  217.2710 H   0  0  0  0  0  0  0  0  0  0  0  0
  144.6801   75.9478  219.4743 H   0  0  0  0  0  0  0  0  0  0  0  0
  143.7089   77.3652  219.7568 H   0  0  0  0  0  0  0  0  0  0  0  0
  143.1561   75.3441  221.3119 H   0  0  0  0  0  0  0  0  0  0  0  0
  140.9500   76.3069  219.5193 H   0  0  0  0  0  0  0  0  0  0  0  0
  140.7721   75.3266  221.0455 H   0  0  0  0  0  0  0  0  0  0  0  0
  140.7801   76.4152  223.1819 H   0  0  0  0  0  0  0  0  0  0  0  0
  140.8722   78.5951  224.4252 H   0  0  0  0  0  0  0  0  0  0  0  0
  142.1281   80.5990  220.7987 H   0  0  0  0  0  0  0  0  0  0  0  0
  142.0336   78.4314  219.5859 H   0  0  0  0  0  0  0  0  0  0  0  0
  138.9409   70.1130  222.5545 H   0  0  0  0  0  0  0  0  0  0  0  0
  138.4952   68.7591  224.5941 H   0  0  0  0  0  0  0  0  0  0  0  0
  138.7722   68.3434  226.8931 H   0  0  0  0  0  0  0  0  0  0  0  0
  141.2419   71.0150  229.1953 H   0  0  0  0  0  0  0  0  0  0  0  0
  141.7225   72.4000  227.1976 H   0  0  0  0  0  0  0  0  0  0  0  0
  1  2  2  0
  2  3  1  0
  3  4  1  0
  4  5  1  0
  5  6  2  0
  5  7  1  0
  7  8  1  0
  8  9  1  0
  9 10  1  0
  9 11  1  0
 11 12  1  0
 12 13  1  0
 13 14  1  0
 14 15  2  0
 15 16  1  0
 16 17  2  0
 17 18  1  0
 17 19  1  0
 19 20  2  0
  2 21  1  0
 21 22  2  0
 22 23  1  0
 23 24  2  0
 24 25  1  0
 25 26  2  0
 26 27  1  0
 26 28  1  0
 28 29  2  0
 29 30  1  0
 30 31  2  0
 12  7  1  0
 20 14  1  0
 31 21  1  0
 30 24  1  0
  3 32  1  0
  4 33  1  0
  4 34  1  0
  8 35  1  0
  8 36  1  0
  9 37  1  1
 10 38  1  0
 11 39  1  0
 11 40  1  0
 12 41  1  1
 13 42  1  0
 13 43  1  0
 15 44  1  0
 16 45  1  0
 19 46  1  0
 20 47  1  0
 22 48  1  0
 23 49  1  0
 25 50  1  0
 28 51  1  0
 29 52  1  0
M  END
>  <smiles>  (33) 
O=C(NCC(=O)N1C[C@H](O)C[C@H]1Cc1ccc(Cl)cc1)c1ccc2cc(F)ccc2n1

>  <score_type>  (33) 
oracle

>  <origin>  (33) 
autodockgpu

>  <m_score__min__energy>  (33) 
-9.0399999999999991

>  <m_primary>  (33) 
energy

>  <rmsd>  (33) 
2.5194250403506344

>  <m_score__min__rmsd>  (33) 
2.5194250403506344

>  <meeko>  (33) 
{"free_energy": -8.83, "intermolecular_energy": -10.92, "internal_energy": -1.4, "cluster_size": 23, "cluster_id": 1, "rank_in_cluster": 7}

>  <energy>  (33) 
-8.0

>  <cluster_rmsd>  (33) 
1.16

>  <cluster>  (33) 
2

$$$$

     RDKit          3D

 52 55  0  0  0  0  0  0  0  0999 V2000
  139.3660   74.7740  222.3520 O   0  0  0  0  0  0  0  0  0  0  0  0
  140.3960   75.3580  221.9280 C   0  0  0  0  0  0  0  0  0  0  0  0
  141.4600   74.5240  221.4810 N   0  0  0  0  0  0  0  0  0  0  0  0
  141.2830   73.1000  221.5470 C   0  0  0  0  0  0  0  0  0  0  0  0
  141.8950   72.4010  220.3880 C   0  0  0  0  0  0  0  0  0  0  0  0
  141.2990   71.5260  219.7100 O   0  0  0  0  0  0  0  0  0  0  0  0
  143.2270   72.7400  220.0240 N   0  0  0  0  0  0  0  0  0  0  0  0
  144.2380   71.7390  219.7430 C   0  0  0  0  0  0  0  0  0  0  0  0
  145.5310   72.5000  219.5430 C   0  0  2  0  0  0  0  0  0  0  0  0
  146.6190   71.8190  220.0830 O   0  0  0  0  0  0  0  0  0  0  0  0
  145.2520   73.7920  220.2590 C   0  0  0  0  0  0  0  0  0  0  0  0
  143.8240   74.0520  219.8660 C   0  0  1  0  0  0  0  0  0  0  0  0
  143.6600   74.4690  218.4350 C   0  0  0  0  0  0  0  0  0  0  0  0
  143.2990   75.9000  218.2870 C   0  0  0  0  0  0  0  0  0  0  0  0
  143.3170   76.5690  217.0810 C   0  0  0  0  0  0  0  0  0  0  0  0
  142.9610   77.9200  217.0340 C   0  0  0  0  0  0  0  0  0  0  0  0
  142.5930   78.5630  218.2220 C   0  0  0  0  0  0  0  0  0  0  0  0
  142.1350   80.2640  218.2230 Cl  0  0  0  0  0  0  0  0  0  0  0  0
  142.5750   77.8960  219.4320 C   0  0  0  0  0  0  0  0  0  0  0  0
  142.9290   76.5630  219.4590 C   0  0  0  0  0  0  0  0  0  0  0  0
  140.5200   76.8120  221.8850 C   0  0  0  0  0  0  0  0  0  0  0  0
  139.6360   77.4960  221.0470 C   0  0  0  0  0  0  0  0  0  0  0  0
  139.7180   78.8720  220.9750 C   0  0  0  0  0  0  0  0  0  0  0  0
  140.6620   79.5550  221.7220 C   0  0  0  0  0  0  0  0  0  0  0  0
  140.6990   80.9320  221.6120 C   0  0  0  0  0  0  0  0  0  0  0  0
  141.6540   81.6010  222.3710 C   0  0  0  0  0  0  0  0  0  0  0  0
  141.7290   82.9440  222.2950 F   0  0  0  0  0  0  0  0  0  0  0  0
  142.5080   80.8820  223.1850 C   0  0  0  0  0  0  0  0  0  0  0  0
  142.4660   79.5060  223.2930 C   0  0  0  0  0  0  0  0  0  0  0  0
  141.5160   78.8410  222.5370 C   0  0  0  0  0  0  0  0  0  0  0  0
  141.4470   77.4800  222.6180 N   0  0  0  0  0  0  0  0  0  0  0  0
  142.3180   75.0050  221.1280 H   0  0  0  0  0  0  0  0  0  0  0  0
  141.7498   72.7281  222.4710 H   0  0  0  0  0  0  0  0  0  0  0  0
  140.2025   72.8944  221.5314 H   0  0  0  0  0  0  0  0  0  0  0  0
  144.3314   71.0416  220.5885 H   0  0  0  0  0  0  0  0  0  0  0  0
  143.9795   71.1419  218.8561 H   0  0  0  0  0  0  0  0  0  0  0  0
  145.8051   72.6403  218.4870 H   0  0  0  0  0  0  0  0  0  0  0  0
  146.4140   71.5300  221.0170 H   0  0  0  0  0  0  0  0  0  0  0  0
  145.3543   73.6777  221.3483 H   0  0  0  0  0  0  0  0  0  0  0  0
  145.9437   74.6068  219.9987 H   0  0  0  0  0  0  0  0  0  0  0  0
  143.3871   74.8672  220.4614 H   0  0  0  0  0  0  0  0  0  0  0  0
  144.6081   74.2900  217.9067 H   0  0  0  0  0  0  0  0  0  0  0  0
  142.8361   73.8759  218.0114 H   0  0  0  0  0  0  0  0  0  0  0  0
  143.6100   76.0422  216.1609 H   0  0  0  0  0  0  0  0  0  0  0  0
  142.9698   78.4683  216.0804 H   0  0  0  0  0  0  0  0  0  0  0  0
  142.2841   78.4178  220.3557 H   0  0  0  0  0  0  0  0  0  0  0  0
  142.9197   76.0166  220.4137 H   0  0  0  0  0  0  0  0  0  0  0  0
  138.8881   76.9479  220.4552 H   0  0  0  0  0  0  0  0  0  0  0  0
  139.0301   79.4281  220.3211 H   0  0  0  0  0  0  0  0  0  0  0  0
  140.0046   81.4748  220.9539 H   0  0  0  0  0  0  0  0  0  0  0  0
  143.2565   81.4315  223.7747 H   0  0  0  0  0  0  0  0  0  0  0  0
  143.1582   78.9613  223.9519 H   0  0  0  0  0  0  0  0  0  0  0  0
  1  2  2  0
  2  3  1  0
  3  4  1  0
  4  5  1  0
  5  6  2  0
  5  7  1  0
  7  8  1  0
  8  9  1  0
  9 10  1  0
  9 11  1  0
 11 12  1  0
 12 13  1  0
 13 14  1  0
 14 15  2  0
 15 16  1  0
 16 17  2  0
 17 18  1  0
 17 19  1  0
 19 20  2  0
  2 21  1  0
 21 22  2  0
 22 23  1  0
 23 24  2  0
 24 25  1  0
 25 26  2  0
 26 27  1  0
 26 28  1  0
 28 29  2  0
 29 30  1  0
 30 31  2  0
 12  7  1  0
 20 14  1  0
 31 21  1  0
 30 24  1  0
  3 32  1  0
  4 33  1  0
  4 34  1  0
  8 35  1  0
  8 36  1  0
  9 37  1  6
 10 38  1  0
 11 39  1  0
 11 40  1  0
 12 41  1  1
 13 42  1  0
 13 43  1  0
 15 44  1  0
 16 45  1  0
 19 46  1  0
 20 47  1  0
 22 48  1  0
 23 49  1  0
 25 50  1  0
 28 51  1  0
 29 52  1  0
M  END
>  <smiles>  (34) 
O=C(NCC(=O)N1C[C@H](O)C[C@H]1Cc1ccc(Cl)cc1)c1ccc2cc(F)ccc2n1

>  <score_type>  (34) 
oracle

>  <origin>  (34) 
autodockgpu

>  <m_score__min__energy>  (34) 
-9.0399999999999991

>  <m_primary>  (34) 
energy

>  <rmsd>  (34) 
8.21793557837408

>  <m_score__min__rmsd>  (34) 
8.21793557837408

>  <meeko>  (34) 
{"free_energy": -7.34, "intermolecular_energy": -9.43, "internal_energy": -2.43, "cluster_size": 7, "cluster_id": 8, "rank_in_cluster": 3}

>  <energy>  (34) 
-7.95

>  <cluster_rmsd>  (34) 
0.85

>  <cluster>  (34) 
2

$$$$

     RDKit          3D

 52 55  0  0  0  0  0  0  0  0999 V2000
  140.8950   71.7970  221.2170 O   0  0  0  0  0  0  0  0  0  0  0  0
  140.3800   72.2510  222.2720 C   0  0  0  0  0  0  0  0  0  0  0  0
  139.9510   73.6080  222.2370 N   0  0  0  0  0  0  0  0  0  0  0  0
  140.1350   74.3490  221.0190 C   0  0  0  0  0  0  0  0  0  0  0  0
  140.8650   75.6240  221.2400 C   0  0  0  0  0  0  0  0  0  0  0  0
  140.7290   76.3330  222.2680 O   0  0  0  0  0  0  0  0  0  0  0  0
  141.7650   76.0670  220.2330 N   0  0  0  0  0  0  0  0  0  0  0  0
  142.0960   77.4650  220.0410 C   0  0  0  0  0  0  0  0  0  0  0  0
  142.9570   77.5220  218.7970 C   0  0  2  0  0  0  0  0  0  0  0  0
  142.6760   78.6480  218.0280 O   0  0  0  0  0  0  0  0  0  0  0  0
  142.5860   76.2440  218.0980 C   0  0  0  0  0  0  0  0  0  0  0  0
  142.4940   75.2850  219.2510 C   0  0  1  0  0  0  0  0  0  0  0  0
  143.8240   74.9220  219.8410 C   0  0  0  0  0  0  0  0  0  0  0  0
  144.1680   73.4900  219.6540 C   0  0  0  0  0  0  0  0  0  0  0  0
  143.2470   72.5270  219.2980 C   0  0  0  0  0  0  0  0  0  0  0  0
  143.6600   71.2000  219.1440 C   0  0  0  0  0  0  0  0  0  0  0  0
  145.0060   70.8830  219.3590 C   0  0  0  0  0  0  0  0  0  0  0  0
  145.5810   69.2270  219.1800 Cl  0  0  0  0  0  0  0  0  0  0  0  0
  145.9300   71.8450  219.7170 C   0  0  0  0  0  0  0  0  0  0  0  0
  145.5060   73.1490  219.8630 C   0  0  0  0  0  0  0  0  0  0  0  0
  140.2200   71.4490  223.4810 C   0  0  0  0  0  0  0  0  0  0  0  0
  139.5700   70.2200  223.3430 C   0  0  0  0  0  0  0  0  0  0  0  0
  139.3960   69.4300  224.4610 C   0  0  0  0  0  0  0  0  0  0  0  0
  139.8600   69.8550  225.6950 C   0  0  0  0  0  0  0  0  0  0  0  0
  139.6590   69.0240  226.7800 C   0  0  0  0  0  0  0  0  0  0  0  0
  140.1320   69.4670  228.0110 C   0  0  0  0  0  0  0  0  0  0  0  0
  139.9580   68.6900  229.0980 F   0  0  0  0  0  0  0  0  0  0  0  0
  140.7680   70.6900  228.1000 C   0  0  0  0  0  0  0  0  0  0  0  0
  140.9670   71.5170  227.0130 C   0  0  0  0  0  0  0  0  0  0  0  0
  140.4950   71.0750  225.7870 C   0  0  0  0  0  0  0  0  0  0  0  0
  140.6740   71.8670  224.6900 N   0  0  0  0  0  0  0  0  0  0  0  0
  139.5240   73.9890  223.1100 H   0  0  0  0  0  0  0  0  0  0  0  0
  140.7081   73.7311  220.3121 H   0  0  0  0  0  0  0  0  0  0  0  0
  139.1395   74.5956  220.6212 H   0  0  0  0  0  0  0  0  0  0  0  0
  141.1808   78.0588  219.9001 H   0  0  0  0  0  0  0  0  0  0  0  0
  142.6214   77.8787  220.9144 H   0  0  0  0  0  0  0  0  0  0  0  0
  144.0341   77.6057  219.0042 H   0  0  0  0  0  0  0  0  0  0  0  0
  143.4790   78.9080  217.4940 H   0  0  0  0  0  0  0  0  0  0  0  0
  141.6225   76.3373  217.5756 H   0  0  0  0  0  0  0  0  0  0  0  0
  143.2977   75.9381  217.3171 H   0  0  0  0  0  0  0  0  0  0  0  0
  142.0394   74.3320  218.9426 H   0  0  0  0  0  0  0  0  0  0  0  0
  144.6004   75.5351  219.3600 H   0  0  0  0  0  0  0  0  0  0  0  0
  143.7668   75.1089  220.9235 H   0  0  0  0  0  0  0  0  0  0  0  0
  142.1941   72.8012  219.1362 H   0  0  0  0  0  0  0  0  0  0  0  0
  142.9397   70.4191  218.8589 H   0  0  0  0  0  0  0  0  0  0  0  0
  146.9837   71.5762  219.8825 H   0  0  0  0  0  0  0  0  0  0  0  0
  146.2287   73.9282  220.1469 H   0  0  0  0  0  0  0  0  0  0  0  0
  139.2034   69.8880  222.3605 H   0  0  0  0  0  0  0  0  0  0  0  0
  138.8868   68.4590  224.3719 H   0  0  0  0  0  0  0  0  0  0  0  0
  139.1479   68.0556  226.6753 H   0  0  0  0  0  0  0  0  0  0  0  0
  141.1331   71.0204  229.0836 H   0  0  0  0  0  0  0  0  0  0  0  0
  141.4783   72.4855  227.1153 H   0  0  0  0  0  0  0  0  0  0  0  0
  1  2  2  0
  2  3  1  0
  3  4  1  0
  4  5  1  0
  5  6  2  0
  5  7  1  0
  7  8  1  0
  8  9  1  0
  9 10  1  0
  9 11  1  0
 11 12  1  0
 12 13  1  0
 13 14  1  0
 14 15  2  0
 15 16  1  0
 16 17  2  0
 17 18  1  0
 17 19  1  0
 19 20  2  0
  2 21  1  0
 21 22  2  0
 22 23  1  0
 23 24  2  0
 24 25  1  0
 25 26  2  0
 26 27  1  0
 26 28  1  0
 28 29  2  0
 29 30  1  0
 30 31  2  0
 12  7  1  0
 20 14  1  0
 31 21  1  0
 30 24  1  0
  3 32  1  0
  4 33  1  0
  4 34  1  0
  8 35  1  0
  8 36  1  0
  9 37  1  1
 10 38  1  0
 11 39  1  0
 11 40  1  0
 12 41  1  6
 13 42  1  0
 13 43  1  0
 15 44  1  0
 16 45  1  0
 19 46  1  0
 20 47  1  0
 22 48  1  0
 23 49  1  0
 25 50  1  0
 28 51  1  0
 29 52  1  0
M  END
>  <smiles>  (35) 
O=C(NCC(=O)N1C[C@H](O)C[C@H]1Cc1ccc(Cl)cc1)c1ccc2cc(F)ccc2n1

>  <score_type>  (35) 
oracle

>  <origin>  (35) 
autodockgpu

>  <m_score__min__energy>  (35) 
-9.0399999999999991

>  <m_primary>  (35) 
energy

>  <rmsd>  (35) 
2.3038860498539706

>  <m_score__min__rmsd>  (35) 
2.3038860498539706

>  <meeko>  (35) 
{"free_energy": -8.55, "intermolecular_energy": -10.64, "internal_energy": -1.7, "cluster_size": 12, "cluster_id": 2, "rank_in_cluster": 4}

>  <energy>  (35) 
-7.81

>  <cluster_rmsd>  (35) 
1.24

>  <cluster>  (35) 
2

$$$$

     RDKit          3D

 52 55  0  0  0  0  0  0  0  0999 V2000
  141.2650   72.2790  221.3980 O   0  0  0  0  0  0  0  0  0  0  0  0
  140.4880   72.5300  222.3550 C   0  0  0  0  0  0  0  0  0  0  0  0
  139.7890   73.7700  222.2970 N   0  0  0  0  0  0  0  0  0  0  0  0
  140.0190   74.6300  221.1690 C   0  0  0  0  0  0  0  0  0  0  0  0
  140.6620   75.9110  221.5590 C   0  0  0  0  0  0  0  0  0  0  0  0
  140.6220   76.3830  222.7230 O   0  0  0  0  0  0  0  0  0  0  0  0
  141.3590   76.6450  220.5610 N   0  0  0  0  0  0  0  0  0  0  0  0
  141.5050   78.0870  220.6100 C   0  0  0  0  0  0  0  0  0  0  0  0
  142.1730   78.4810  219.3100 C   0  0  2  0  0  0  0  0  0  0  0  0
  141.6670   79.6790  218.8130 O   0  0  0  0  0  0  0  0  0  0  0  0
  141.8530   77.3120  218.4220 C   0  0  0  0  0  0  0  0  0  0  0  0
  142.0270   76.1570  219.3690 C   0  0  1  0  0  0  0  0  0  0  0  0
  143.4580   75.8760  219.7180 C   0  0  0  0  0  0  0  0  0  0  0  0
  143.7680   74.4260  219.7640 C   0  0  0  0  0  0  0  0  0  0  0  0
  144.7940   73.8900  220.5150 C   0  0  0  0  0  0  0  0  0  0  0  0
  145.0150   72.5100  220.4990 C   0  0  0  0  0  0  0  0  0  0  0  0
  144.1840   71.7030  219.7130 C   0  0  0  0  0  0  0  0  0  0  0  0
  144.4170   69.9570  219.6540 Cl  0  0  0  0  0  0  0  0  0  0  0  0
  143.1560   72.2360  218.9590 C   0  0  0  0  0  0  0  0  0  0  0  0
  142.9520   73.6000  218.9880 C   0  0  0  0  0  0  0  0  0  0  0  0
  140.2940   71.6170  223.4770 C   0  0  0  0  0  0  0  0  0  0  0  0
  139.6210   70.4220  223.2100 C   0  0  0  0  0  0  0  0  0  0  0  0
  139.4150   69.5290  224.2410 C   0  0  0  0  0  0  0  0  0  0  0  0
  139.8700   69.8190  225.5170 C   0  0  0  0  0  0  0  0  0  0  0  0
  139.6380   68.8890  226.5110 C   0  0  0  0  0  0  0  0  0  0  0  0
  140.1030   69.1980  227.7860 C   0  0  0  0  0  0  0  0  0  0  0  0
  139.8980   68.3210  228.7880 F   0  0  0  0  0  0  0  0  0  0  0  0
  140.7630   70.3910  228.0030 C   0  0  0  0  0  0  0  0  0  0  0  0
  140.9940   71.3180  227.0050 C   0  0  0  0  0  0  0  0  0  0  0  0
  140.5300   71.0100  225.7370 C   0  0  0  0  0  0  0  0  0  0  0  0
  140.7410   71.9030  224.7260 N   0  0  0  0  0  0  0  0  0  0  0  0
  139.1430   73.9820  223.0900 H   0  0  0  0  0  0  0  0  0  0  0  0
  140.6731   74.1090  220.4544 H   0  0  0  0  0  0  0  0  0  0  0  0
  139.0425   74.8662  220.7211 H   0  0  0  0  0  0  0  0  0  0  0  0
  140.5197   78.5686  220.6952 H   0  0  0  0  0  0  0  0  0  0  0  0
  142.0980   78.4034  221.4808 H   0  0  0  0  0  0  0  0  0  0  0  0
  143.2526   78.6696  219.4046 H   0  0  0  0  0  0  0  0  0  0  0  0
  142.2950   80.0650  218.1400 H   0  0  0  0  0  0  0  0  0  0  0  0
  140.8225   77.3673  218.0413 H   0  0  0  0  0  0  0  0  0  0  0  0
  142.4799   77.2499  217.5203 H   0  0  0  0  0  0  0  0  0  0  0  0
  141.6414   75.2221  218.9362 H   0  0  0  0  0  0  0  0  0  0  0  0
  144.1027   76.3488  218.9624 H   0  0  0  0  0  0  0  0  0  0  0  0
  143.6382   76.2837  220.7236 H   0  0  0  0  0  0  0  0  0  0  0  0
  145.4347   74.5454  221.1232 H   0  0  0  0  0  0  0  0  0  0  0  0
  145.8272   72.0661  221.0933 H   0  0  0  0  0  0  0  0  0  0  0  0
  142.5131   71.5856  218.3478 H   0  0  0  0  0  0  0  0  0  0  0  0
  142.1383   74.0415  218.3939 H   0  0  0  0  0  0  0  0  0  0  0  0
  139.2616   70.1971  222.1950 H   0  0  0  0  0  0  0  0  0  0  0  0
  138.8874   68.5830  224.0493 H   0  0  0  0  0  0  0  0  0  0  0  0
  139.1096   67.9466  226.3045 H   0  0  0  0  0  0  0  0  0  0  0  0
  141.1219   70.6140  229.0186 H   0  0  0  0  0  0  0  0  0  0  0  0
  141.5237   72.2603  227.2088 H   0  0  0  0  0  0  0  0  0  0  0  0
  1  2  2  0
  2  3  1  0
  3  4  1  0
  4  5  1  0
  5  6  2  0
  5  7  1  0
  7  8  1  0
  8  9  1  0
  9 10  1  0
  9 11  1  0
 11 12  1  0
 12 13  1  0
 13 14  1  0
 14 15  2  0
 15 16  1  0
 16 17  2  0
 17 18  1  0
 17 19  1  0
 19 20  2  0
  2 21  1  0
 21 22  2  0
 22 23  1  0
 23 24  2  0
 24 25  1  0
 25 26  2  0
 26 27  1  0
 26 28  1  0
 28 29  2  0
 29 30  1  0
 30 31  2  0
 12  7  1  0
 20 14  1  0
 31 21  1  0
 30 24  1  0
  3 32  1  0
  4 33  1  0
  4 34  1  0
  8 35  1  0
  8 36  1  0
  9 37  1  1
 10 38  1  0
 11 39  1  0
 11 40  1  0
 12 41  1  6
 13 42  1  0
 13 43  1  0
 15 44  1  0
 16 45  1  0
 19 46  1  0
 20 47  1  0
 22 48  1  0
 23 49  1  0
 25 50  1  0
 28 51  1  0
 29 52  1  0
M  END
>  <smiles>  (36) 
O=C(NCC(=O)N1C[C@H](O)C[C@H]1Cc1ccc(Cl)cc1)c1ccc2cc(F)ccc2n1

>  <score_type>  (36) 
oracle

>  <origin>  (36) 
autodockgpu

>  <m_score__min__energy>  (36) 
-9.0399999999999991

>  <m_primary>  (36) 
energy

>  <rmsd>  (36) 
2.28259310882548

>  <m_score__min__rmsd>  (36) 
2.28259310882548

>  <meeko>  (36) 
{"free_energy": -7.95, "intermolecular_energy": -10.04, "internal_energy": -1.89, "cluster_size": 12, "cluster_id": 2, "rank_in_cluster": 11}

>  <energy>  (36) 
-8.62

>  <cluster_rmsd>  (36) 
0.0

>  <cluster>  (36) 
3

$$$$

     RDKit          3D

 52 55  0  0  0  0  0  0  0  0999 V2000
  139.2330   70.5980  221.2090 O   0  0  0  0  0  0  0  0  0  0  0  0
  139.7580   71.1150  222.2280 C   0  0  0  0  0  0  0  0  0  0  0  0
  140.3330   72.4070  222.0610 N   0  0  0  0  0  0  0  0  0  0  0  0
  140.2740   73.0160  220.7600 C   0  0  0  0  0  0  0  0  0  0  0  0
  141.3240   72.4970  219.8470 C   0  0  0  0  0  0  0  0  0  0  0  0
  141.1940   71.4530  219.1600 O   0  0  0  0  0  0  0  0  0  0  0  0
  142.5430   73.2210  219.7440 N   0  0  0  0  0  0  0  0  0  0  0  0
  143.5590   72.9040  218.7590 C   0  0  0  0  0  0  0  0  0  0  0  0
  144.7390   73.7990  219.0750 C   0  0  2  0  0  0  0  0  0  0  0  0
  145.9510   73.1410  218.8820 O   0  0  0  0  0  0  0  0  0  0  0  0
  144.4970   74.1420  220.5180 C   0  0  0  0  0  0  0  0  0  0  0  0
  143.0070   74.3450  220.5340 C   0  0  1  0  0  0  0  0  0  0  0  0
  142.5640   75.6070  219.8540 C   0  0  0  0  0  0  0  0  0  0  0  0
  141.8310   76.5250  220.7600 C   0  0  0  0  0  0  0  0  0  0  0  0
  141.0350   76.0940  221.7990 C   0  0  0  0  0  0  0  0  0  0  0  0
  140.3800   77.0310  222.6040 C   0  0  0  0  0  0  0  0  0  0  0  0
  140.5520   78.3930  222.3300 C   0  0  0  0  0  0  0  0  0  0  0  0
  139.7500   79.6180  223.3110 Cl  0  0  0  0  0  0  0  0  0  0  0  0
  141.3480   78.8290  221.2900 C   0  0  0  0  0  0  0  0  0  0  0  0
  141.9870   77.8900  220.5060 C   0  0  0  0  0  0  0  0  0  0  0  0
  139.7890   70.4480  223.5260 C   0  0  0  0  0  0  0  0  0  0  0  0
  139.1660   69.2010  223.6100 C   0  0  0  0  0  0  0  0  0  0  0  0
  139.1710   68.5350  224.8190 C   0  0  0  0  0  0  0  0  0  0  0  0
  139.7830   69.0990  225.9250 C   0  0  0  0  0  0  0  0  0  0  0  0
  139.7580   68.3890  227.1090 C   0  0  0  0  0  0  0  0  0  0  0  0
  140.3800   68.9720  228.2090 C   0  0  0  0  0  0  0  0  0  0  0  0
  140.3800   68.3160  229.3860 F   0  0  0  0  0  0  0  0  0  0  0  0
  140.9820   70.2080  228.0790 C   0  0  0  0  0  0  0  0  0  0  0  0
  141.0050   70.9150  226.8930 C   0  0  0  0  0  0  0  0  0  0  0  0
  140.3860   70.3330  225.7980 C   0  0  0  0  0  0  0  0  0  0  0  0
  140.3890   71.0040  224.6100 N   0  0  0  0  0  0  0  0  0  0  0  0
  140.7700   72.8400  222.9050 H   0  0  0  0  0  0  0  0  0  0  0  0
  139.2878   72.8111  220.3178 H   0  0  0  0  0  0  0  0  0  0  0  0
  140.4411   74.0959  220.8859 H   0  0  0  0  0  0  0  0  0  0  0  0
  143.8500   71.8460  218.8366 H   0  0  0  0  0  0  0  0  0  0  0  0
  143.1924   73.0666  217.7347 H   0  0  0  0  0  0  0  0  0  0  0  0
  144.8130   74.6838  218.4257 H   0  0  0  0  0  0  0  0  0  0  0  0
  146.6710   73.8010  218.6790 H   0  0  0  0  0  0  0  0  0  0  0  0
  144.7971   73.3182  221.1823 H   0  0  0  0  0  0  0  0  0  0  0  0
  145.0710   75.0101  220.8743 H   0  0  0  0  0  0  0  0  0  0  0  0
  142.6240   74.4154  221.5627 H   0  0  0  0  0  0  0  0  0  0  0  0
  143.4527   76.1290  219.4696 H   0  0  0  0  0  0  0  0  0  0  0  0
  141.8748   75.3216  219.0456 H   0  0  0  0  0  0  0  0  0  0  0  0
  140.9155   75.0181  221.9941 H   0  0  0  0  0  0  0  0  0  0  0  0
  139.7411   76.7038  223.4375 H   0  0  0  0  0  0  0  0  0  0  0  0
  141.4706   79.9037  221.0900 H   0  0  0  0  0  0  0  0  0  0  0  0
  142.6254   78.2195  219.6730 H   0  0  0  0  0  0  0  0  0  0  0  0
  138.6800   68.7574  222.7285 H   0  0  0  0  0  0  0  0  0  0  0  0
  138.6863   67.5512  224.9039 H   0  0  0  0  0  0  0  0  0  0  0  0
  139.2683   67.4065  227.1796 H   0  0  0  0  0  0  0  0  0  0  0  0
  141.4662   70.6504  228.9621 H   0  0  0  0  0  0  0  0  0  0  0  0
  141.4936   71.8979  226.8205 H   0  0  0  0  0  0  0  0  0  0  0  0
  1  2  2  0
  2  3  1  0
  3  4  1  0
  4  5  1  0
  5  6  2  0
  5  7  1  0
  7  8  1  0
  8  9  1  0
  9 10  1  0
  9 11  1  0
 11 12  1  0
 12 13  1  0
 13 14  1  0
 14 15  2  0
 15 16  1  0
 16 17  2  0
 17 18  1  0
 17 19  1  0
 19 20  2  0
  2 21  1  0
 21 22  2  0
 22 23  1  0
 23 24  2  0
 24 25  1  0
 25 26  2  0
 26 27  1  0
 26 28  1  0
 28 29  2  0
 29 30  1  0
 30 31  2  0
 12  7  1  0
 20 14  1  0
 31 21  1  0
 30 24  1  0
  3 32  1  0
  4 33  1  0
  4 34  1  0
  8 35  1  0
  8 36  1  0
  9 37  1  6
 10 38  1  0
 11 39  1  0
 11 40  1  0
 12 41  1  1
 13 42  1  0
 13 43  1  0
 15 44  1  0
 16 45  1  0
 19 46  1  0
 20 47  1  0
 22 48  1  0
 23 49  1  0
 25 50  1  0
 28 51  1  0
 29 52  1  0
M  END
>  <smiles>  (37) 
O=C(NCC(=O)N1C[C@H](O)C[C@H]1Cc1ccc(Cl)cc1)c1ccc2cc(F)ccc2n1

>  <score_type>  (37) 
oracle

>  <origin>  (37) 
autodockgpu

>  <m_score__min__energy>  (37) 
-9.0399999999999991

>  <m_primary>  (37) 
energy

>  <rmsd>  (37) 
2.9754448639855684

>  <m_score__min__rmsd>  (37) 
2.9754448639855684

>  <meeko>  (37) 
{"free_energy": -8.1, "intermolecular_energy": -10.19, "internal_energy": -1.59, "cluster_size": 23, "cluster_id": 1, "rank_in_cluster": 21}

>  <energy>  (37) 
-8.09

>  <cluster_rmsd>  (37) 
1.28

>  <cluster>  (37) 
3

$$$$

     RDKit          3D

 52 55  0  0  0  0  0  0  0  0999 V2000
  139.0880   74.6190  222.2840 O   0  0  0  0  0  0  0  0  0  0  0  0
  140.1020   75.3200  222.0360 C   0  0  0  0  0  0  0  0  0  0  0  0
  141.2850   74.6180  221.6640 N   0  0  0  0  0  0  0  0  0  0  0  0
  141.2340   73.1840  221.6000 C   0  0  0  0  0  0  0  0  0  0  0  0
  141.8990   72.6490  220.3850 C   0  0  0  0  0  0  0  0  0  0  0  0
  141.3500   71.8480  219.5870 O   0  0  0  0  0  0  0  0  0  0  0  0
  143.2300   73.0660  220.1080 N   0  0  0  0  0  0  0  0  0  0  0  0
  144.2670   72.1420  219.6910 C   0  0  0  0  0  0  0  0  0  0  0  0
  145.5470   72.9480  219.6430 C   0  0  2  0  0  0  0  0  0  0  0  0
  146.6390   72.2080  220.0900 O   0  0  0  0  0  0  0  0  0  0  0  0
  145.2280   74.1020  220.5510 C   0  0  0  0  0  0  0  0  0  0  0  0
  143.8030   74.3970  220.1750 C   0  0  1  0  0  0  0  0  0  0  0  0
  143.6560   75.0360  218.8270 C   0  0  0  0  0  0  0  0  0  0  0  0
  142.5880   76.0660  218.7870 C   0  0  0  0  0  0  0  0  0  0  0  0
  141.2420   75.7660  218.7660 C   0  0  0  0  0  0  0  0  0  0  0  0
  140.3040   76.8010  218.7290 C   0  0  0  0  0  0  0  0  0  0  0  0
  140.7600   78.1250  218.7140 C   0  0  0  0  0  0  0  0  0  0  0  0
  139.6220   79.4700  218.6680 Cl  0  0  0  0  0  0  0  0  0  0  0  0
  142.1070   78.4290  218.7350 C   0  0  0  0  0  0  0  0  0  0  0  0
  143.0190   77.3940  218.7720 C   0  0  0  0  0  0  0  0  0  0  0  0
  140.0950   76.7770  222.1180 C   0  0  0  0  0  0  0  0  0  0  0  0
  138.8590   77.3920  222.3300 C   0  0  0  0  0  0  0  0  0  0  0  0
  138.8050   78.7680  222.4140 C   0  0  0  0  0  0  0  0  0  0  0  0
  139.9610   79.5210  222.2870 C   0  0  0  0  0  0  0  0  0  0  0  0
  139.8490   80.8940  222.3790 C   0  0  0  0  0  0  0  0  0  0  0  0
  141.0210   81.6330  222.2500 C   0  0  0  0  0  0  0  0  0  0  0  0
  140.9610   82.9770  222.3320 F   0  0  0  0  0  0  0  0  0  0  0  0
  142.2210   80.9830  222.0400 C   0  0  0  0  0  0  0  0  0  0  0  0
  142.3280   79.6090  221.9490 C   0  0  0  0  0  0  0  0  0  0  0  0
  141.1610   78.8740  222.0770 C   0  0  0  0  0  0  0  0  0  0  0  0
  141.2290   77.5130  221.9920 N   0  0  0  0  0  0  0  0  0  0  0  0
  142.1290   75.1970  221.4570 H   0  0  0  0  0  0  0  0  0  0  0  0
  141.7360   72.7724  222.4880 H   0  0  0  0  0  0  0  0  0  0  0  0
  140.1756   72.8868  221.5622 H   0  0  0  0  0  0  0  0  0  0  0  0
  144.3600   71.3193  220.4152 H   0  0  0  0  0  0  0  0  0  0  0  0
  144.0370   71.6913  218.7143 H   0  0  0  0  0  0  0  0  0  0  0  0
  145.8373   73.2614  218.6294 H   0  0  0  0  0  0  0  0  0  0  0  0
  146.3650   71.6100  220.8410 H   0  0  0  0  0  0  0  0  0  0  0  0
  145.3127   73.8152  221.6096 H   0  0  0  0  0  0  0  0  0  0  0  0
  145.9071   74.9601  220.4397 H   0  0  0  0  0  0  0  0  0  0  0  0
  143.3389   75.0982  220.8841 H   0  0  0  0  0  0  0  0  0  0  0  0
  144.6111   75.5108  218.5581 H   0  0  0  0  0  0  0  0  0  0  0  0
  143.3766   74.2444  218.1162 H   0  0  0  0  0  0  0  0  0  0  0  0
  140.9088   74.7178  218.7783 H   0  0  0  0  0  0  0  0  0  0  0  0
  139.2266   76.5798  218.7120 H   0  0  0  0  0  0  0  0  0  0  0  0
  142.4462   79.4753  218.7225 H   0  0  0  0  0  0  0  0  0  0  0  0
  144.0959   77.6174  218.7899 H   0  0  0  0  0  0  0  0  0  0  0  0
  137.9440   76.7894  222.4283 H   0  0  0  0  0  0  0  0  0  0  0  0
  137.8404   79.2692  222.5825 H   0  0  0  0  0  0  0  0  0  0  0  0
  138.8774   81.3816  222.5467 H   0  0  0  0  0  0  0  0  0  0  0  0
  143.1344   81.5878  221.9405 H   0  0  0  0  0  0  0  0  0  0  0  0
  143.2987   79.1193  221.7820 H   0  0  0  0  0  0  0  0  0  0  0  0
  1  2  2  0
  2  3  1  0
  3  4  1  0
  4  5  1  0
  5  6  2  0
  5  7  1  0
  7  8  1  0
  8  9  1  0
  9 10  1  0
  9 11  1  0
 11 12  1  0
 12 13  1  0
 13 14  1  0
 14 15  2  0
 15 16  1  0
 16 17  2  0
 17 18  1  0
 17 19  1  0
 19 20  2  0
  2 21  1  0
 21 22  2  0
 22 23  1  0
 23 24  2  0
 24 25  1  0
 25 26  2  0
 26 27  1  0
 26 28  1  0
 28 29  2  0
 29 30  1  0
 30 31  2  0
 12  7  1  0
 20 14  1  0
 31 21  1  0
 30 24  1  0
  3 32  1  0
  4 33  1  0
  4 34  1  0
  8 35  1  0
  8 36  1  0
  9 37  1  6
 10 38  1  0
 11 39  1  0
 11 40  1  0
 12 41  1  1
 13 42  1  0
 13 43  1  0
 15 44  1  0
 16 45  1  0
 19 46  1  0
 20 47  1  0
 22 48  1  0
 23 49  1  0
 25 50  1  0
 28 51  1  0
 29 52  1  0
M  END
>  <smiles>  (38) 
O=C(NCC(=O)N1C[C@H](O)C[C@H]1Cc1ccc(Cl)cc1)c1ccc2cc(F)ccc2n1

>  <score_type>  (38) 
oracle

>  <origin>  (38) 
autodockgpu

>  <m_score__min__energy>  (38) 
-9.0399999999999991

>  <m_primary>  (38) 
energy

>  <rmsd>  (38) 
8.166423917484005

>  <m_score__min__rmsd>  (38) 
8.166423917484005

>  <meeko>  (38) 
{"free_energy": -6.32, "intermolecular_energy": -8.41, "internal_energy": -3.26, "cluster_size": 7, "cluster_id": 8, "rank_in_cluster": 6}

>  <energy>  (38) 
-8.25

>  <cluster_rmsd>  (38) 
0.0

>  <cluster>  (38) 
4

$$$$

     RDKit          3D

 52 55  0  0  0  0  0  0  0  0999 V2000
  140.6470   73.1730  222.4800 O   0  0  0  0  0  0  0  0  0  0  0  0
  140.3810   71.9440  222.4760 C   0  0  0  0  0  0  0  0  0  0  0  0
  140.2330   71.3300  221.1990 N   0  0  0  0  0  0  0  0  0  0  0  0
  140.3950   72.1460  220.0280 C   0  0  0  0  0  0  0  0  0  0  0  0
  141.6370   71.8220  219.2820 C   0  0  0  0  0  0  0  0  0  0  0  0
  141.7940   70.7670  218.6170 O   0  0  0  0  0  0  0  0  0  0  0  0
  142.7090   72.7560  219.3220 N   0  0  0  0  0  0  0  0  0  0  0  0
  143.8450   72.6800  218.4240 C   0  0  0  0  0  0  0  0  0  0  0  0
  144.8110   73.7500  218.8840 C   0  0  2  0  0  0  0  0  0  0  0  0
  146.1340   73.3300  218.7790 O   0  0  0  0  0  0  0  0  0  0  0  0
  144.3890   73.9640  220.3110 C   0  0  0  0  0  0  0  0  0  0  0  0
  142.8920   73.8990  220.1960 C   0  0  1  0  0  0  0  0  0  0  0  0
  142.2860   75.0970  219.5290 C   0  0  0  0  0  0  0  0  0  0  0  0
  141.8250   76.1260  220.4940 C   0  0  0  0  0  0  0  0  0  0  0  0
  141.0750   75.8350  221.6140 C   0  0  0  0  0  0  0  0  0  0  0  0
  140.6830   76.8680  222.4710 C   0  0  0  0  0  0  0  0  0  0  0  0
  141.0650   78.1800  222.1650 C   0  0  0  0  0  0  0  0  0  0  0  0
  140.5980   79.5210  223.2080 Cl  0  0  0  0  0  0  0  0  0  0  0  0
  141.8150   78.4740  221.0440 C   0  0  0  0  0  0  0  0  0  0  0  0
  142.1940   77.4420  220.2100 C   0  0  0  0  0  0  0  0  0  0  0  0
  140.2280   71.1640  223.7000 C   0  0  0  0  0  0  0  0  0  0  0  0
  139.5440   69.9500  223.5950 C   0  0  0  0  0  0  0  0  0  0  0  0
  139.3760   69.1810  224.7280 C   0  0  0  0  0  0  0  0  0  0  0  0
  139.8770   69.6110  225.9450 C   0  0  0  0  0  0  0  0  0  0  0  0
  139.6800   68.8020  227.0460 C   0  0  0  0  0  0  0  0  0  0  0  0
  140.1910   69.2500  228.2600 C   0  0  0  0  0  0  0  0  0  0  0  0
  140.0220   68.4940  229.3620 F   0  0  0  0  0  0  0  0  0  0  0  0
  140.8590   70.4580  228.3170 C   0  0  0  0  0  0  0  0  0  0  0  0
  141.0550   71.2640  227.2130 C   0  0  0  0  0  0  0  0  0  0  0  0
  140.5450   70.8170  226.0050 C   0  0  0  0  0  0  0  0  0  0  0  0
  140.7190   71.5880  224.8930 N   0  0  0  0  0  0  0  0  0  0  0  0
  140.0120   70.3090  221.1920 H   0  0  0  0  0  0  0  0  0  0  0  0
  139.5323   71.9873  219.3643 H   0  0  0  0  0  0  0  0  0  0  0  0
  140.4631   73.1940  220.3553 H   0  0  0  0  0  0  0  0  0  0  0  0
  144.3157   71.6877  218.4858 H   0  0  0  0  0  0  0  0  0  0  0  0
  143.5428   72.8323  217.3774 H   0  0  0  0  0  0  0  0  0  0  0  0
  144.7778   74.6687  218.2799 H   0  0  0  0  0  0  0  0  0  0  0  0
  146.7280   74.1090  218.5870 H   0  0  0  0  0  0  0  0  0  0  0  0
  144.7760   73.1707  220.9674 H   0  0  0  0  0  0  0  0  0  0  0  0
  144.7638   74.8988  220.7533 H   0  0  0  0  0  0  0  0  0  0  0  0
  142.4169   73.8435  221.1866 H   0  0  0  0  0  0  0  0  0  0  0  0
  143.0400   75.5491  218.8679 H   0  0  0  0  0  0  0  0  0  0  0  0
  141.4041   74.7515  218.9697 H   0  0  0  0  0  0  0  0  0  0  0  0
  140.7867   74.7961  221.8320 H   0  0  0  0  0  0  0  0  0  0  0  0
  140.0853   76.6539  223.3693 H   0  0  0  0  0  0  0  0  0  0  0  0
  142.1050   79.5111  220.8198 H   0  0  0  0  0  0  0  0  0  0  0  0
  142.7926   77.6584  219.3129 H   0  0  0  0  0  0  0  0  0  0  0  0
  139.1466   69.6135  222.6261 H   0  0  0  0  0  0  0  0  0  0  0  0
  138.8415   68.2217  224.6642 H   0  0  0  0  0  0  0  0  0  0  0  0
  139.1427   67.8454  226.9670 H   0  0  0  0  0  0  0  0  0  0  0  0
  141.2533   70.7936  229.2875 H   0  0  0  0  0  0  0  0  0  0  0  0
  141.5932   72.2203  227.2895 H   0  0  0  0  0  0  0  0  0  0  0  0
  1  2  2  0
  2  3  1  0
  3  4  1  0
  4  5  1  0
  5  6  2  0
  5  7  1  0
  7  8  1  0
  8  9  1  0
  9 10  1  0
  9 11  1  0
 11 12  1  0
 12 13  1  0
 13 14  1  0
 14 15  2  0
 15 16  1  0
 16 17  2  0
 17 18  1  0
 17 19  1  0
 19 20  2  0
  2 21  1  0
 21 22  2  0
 22 23  1  0
 23 24  2  0
 24 25  1  0
 25 26  2  0
 26 27  1  0
 26 28  1  0
 28 29  2  0
 29 30  1  0
 30 31  2  0
 12  7  1  0
 20 14  1  0
 31 21  1  0
 30 24  1  0
  3 32  1  0
  4 33  1  0
  4 34  1  0
  8 35  1  0
  8 36  1  0
  9 37  1  6
 10 38  1  0
 11 39  1  0
 11 40  1  0
 12 41  1  1
 13 42  1  0
 13 43  1  0
 15 44  1  0
 16 45  1  0
 19 46  1  0
 20 47  1  0
 22 48  1  0
 23 49  1  0
 25 50  1  0
 28 51  1  0
 29 52  1  0
M  END
>  <smiles>  (39) 
O=C(NCC(=O)N1C[C@H](O)C[C@H]1Cc1ccc(Cl)cc1)c1ccc2cc(F)ccc2n1

>  <score_type>  (39) 
oracle

>  <origin>  (39) 
autodockgpu

>  <m_score__min__energy>  (39) 
-9.0399999999999991

>  <m_primary>  (39) 
energy

>  <rmsd>  (39) 
3.282165293144183

>  <m_score__min__rmsd>  (39) 
3.282165293144183

>  <meeko>  (39) 
{"free_energy": -8.96, "intermolecular_energy": -11.04, "internal_energy": -1.51, "cluster_size": 23, "cluster_id": 1, "rank_in_cluster": 5}

>  <energy>  (39) 
-8.23

>  <cluster_rmsd>  (39) 
0.0

>  <cluster>  (39) 
5

$$$$

     RDKit          3D

 52 55  0  0  0  0  0  0  0  0999 V2000
  139.8320   70.7160  221.5010 O   0  0  0  0  0  0  0  0  0  0  0  0
  139.8620   71.2460  222.6410 C   0  0  0  0  0  0  0  0  0  0  0  0
  139.8960   72.6700  222.6790 N   0  0  0  0  0  0  0  0  0  0  0  0
  139.8930   73.3840  221.4320 C   0  0  0  0  0  0  0  0  0  0  0  0
  140.9350   74.4420  221.3870 C   0  0  0  0  0  0  0  0  0  0  0  0
  140.7830   75.5890  221.8790 O   0  0  0  0  0  0  0  0  0  0  0  0
  142.1710   74.1430  220.7520 N   0  0  0  0  0  0  0  0  0  0  0  0
  142.5680   72.7900  220.4140 C   0  0  0  0  0  0  0  0  0  0  0  0
  143.9870   72.8900  219.8960 C   0  0  2  0  0  0  0  0  0  0  0  0
  144.7640   71.8100  220.3090 O   0  0  0  0  0  0  0  0  0  0  0  0
  144.4500   74.1900  220.4920 C   0  0  0  0  0  0  0  0  0  0  0  0
  143.2260   75.0470  220.3340 C   0  0  1  0  0  0  0  0  0  0  0  0
  142.9550   75.4550  218.9170 C   0  0  0  0  0  0  0  0  0  0  0  0
  142.6590   76.9020  218.7770 C   0  0  0  0  0  0  0  0  0  0  0  0
  142.8860   77.6170  217.6200 C   0  0  0  0  0  0  0  0  0  0  0  0
  142.5760   78.9800  217.5780 C   0  0  0  0  0  0  0  0  0  0  0  0
  142.0410   79.5860  218.7200 C   0  0  0  0  0  0  0  0  0  0  0  0
  141.6330   81.3010  218.7240 Cl  0  0  0  0  0  0  0  0  0  0  0  0
  141.8130   78.8730  219.8810 C   0  0  0  0  0  0  0  0  0  0  0  0
  142.1240   77.5290  219.9050 C   0  0  0  0  0  0  0  0  0  0  0  0
  139.8630   70.4680  223.8750 C   0  0  0  0  0  0  0  0  0  0  0  0
  139.2590   69.2090  223.8290 C   0  0  0  0  0  0  0  0  0  0  0  0
  139.2370   68.4390  224.9740 C   0  0  0  0  0  0  0  0  0  0  0  0
  139.8050   68.9120  226.1450 C   0  0  0  0  0  0  0  0  0  0  0  0
  139.7540   68.0990  227.2600 C   0  0  0  0  0  0  0  0  0  0  0  0
  140.3310   68.5910  228.4270 C   0  0  0  0  0  0  0  0  0  0  0  0
  140.3040   67.8340  229.5410 F   0  0  0  0  0  0  0  0  0  0  0  0
  140.9160   69.8420  228.4260 C   0  0  0  0  0  0  0  0  0  0  0  0
  140.9640   70.6510  227.3090 C   0  0  0  0  0  0  0  0  0  0  0  0
  140.3900   70.1610  226.1470 C   0  0  0  0  0  0  0  0  0  0  0  0
  140.4200   70.9340  225.0230 N   0  0  0  0  0  0  0  0  0  0  0  0
  139.9210   73.1140  223.6240 H   0  0  0  0  0  0  0  0  0  0  0  0
  140.0773   72.6706  220.6152 H   0  0  0  0  0  0  0  0  0  0  0  0
  138.9128   73.8716  221.3251 H   0  0  0  0  0  0  0  0  0  0  0  0
  142.5307   72.1465  221.3054 H   0  0  0  0  0  0  0  0  0  0  0  0
  141.8952   72.3474  219.6647 H   0  0  0  0  0  0  0  0  0  0  0  0
  144.0628   72.8651  218.7989 H   0  0  0  0  0  0  0  0  0  0  0  0
  144.4990   71.5290  221.2290 H   0  0  0  0  0  0  0  0  0  0  0  0
  144.7232   74.0715  221.5509 H   0  0  0  0  0  0  0  0  0  0  0  0
  145.3513   74.6046  220.0168 H   0  0  0  0  0  0  0  0  0  0  0  0
  143.3212   75.9871  220.8971 H   0  0  0  0  0  0  0  0  0  0  0  0
  143.8402   75.2178  218.3085 H   0  0  0  0  0  0  0  0  0  0  0  0
  142.0652   74.9030  218.5801 H   0  0  0  0  0  0  0  0  0  0  0  0
  143.3084   77.1182  216.7353 H   0  0  0  0  0  0  0  0  0  0  0  0
  142.7497   79.5655  216.6631 H   0  0  0  0  0  0  0  0  0  0  0  0
  141.3918   79.3671  220.7689 H   0  0  0  0  0  0  0  0  0  0  0  0
  141.9490   76.9456  220.8210 H   0  0  0  0  0  0  0  0  0  0  0  0
  138.8089   68.8380  222.8964 H   0  0  0  0  0  0  0  0  0  0  0  0
  138.7661   67.4450  224.9564 H   0  0  0  0  0  0  0  0  0  0  0  0
  139.2789   67.1074  227.2273 H   0  0  0  0  0  0  0  0  0  0  0  0
  141.3650   70.2111  229.3599 H   0  0  0  0  0  0  0  0  0  0  0  0
  141.4380   71.6431  227.3399 H   0  0  0  0  0  0  0  0  0  0  0  0
  1  2  2  0
  2  3  1  0
  3  4  1  0
  4  5  1  0
  5  6  2  0
  5  7  1  0
  7  8  1  0
  8  9  1  0
  9 10  1  0
  9 11  1  0
 11 12  1  0
 12 13  1  0
 13 14  1  0
 14 15  2  0
 15 16  1  0
 16 17  2  0
 17 18  1  0
 17 19  1  0
 19 20  2  0
  2 21  1  0
 21 22  2  0
 22 23  1  0
 23 24  2  0
 24 25  1  0
 25 26  2  0
 26 27  1  0
 26 28  1  0
 28 29  2  0
 29 30  1  0
 30 31  2  0
 12  7  1  0
 20 14  1  0
 31 21  1  0
 30 24  1  0
  3 32  1  0
  4 33  1  0
  4 34  1  0
  8 35  1  0
  8 36  1  0
  9 37  1  6
 10 38  1  0
 11 39  1  0
 11 40  1  0
 12 41  1  1
 13 42  1  0
 13 43  1  0
 15 44  1  0
 16 45  1  0
 19 46  1  0
 20 47  1  0
 22 48  1  0
 23 49  1  0
 25 50  1  0
 28 51  1  0
 29 52  1  0
M  END
>  <smiles>  (40) 
O=C(NCC(=O)N1C[C@H](O)C[C@H]1Cc1ccc(Cl)cc1)c1ccc2cc(F)ccc2n1

>  <score_type>  (40) 
oracle

>  <origin>  (40) 
autodockgpu

>  <m_score__min__energy>  (40) 
-9.0399999999999991

>  <m_primary>  (40) 
energy

>  <rmsd>  (40) 
2.7601982676641748

>  <m_score__min__rmsd>  (40) 
2.7601982676641748

>  <meeko>  (40) 
{"free_energy": -8.15, "intermolecular_energy": -10.24, "internal_energy": -1.55, "cluster_size": 23, "cluster_id": 1, "rank_in_cluster": 20}

>  <energy>  (40) 
-8.17

>  <cluster_rmsd>  (40) 
1.03

>  <cluster>  (40) 
5

$$$$

     RDKit          3D

 52 55  0  0  0  0  0  0  0  0999 V2000
  140.4720   73.5710  222.3380 O   0  0  0  0  0  0  0  0  0  0  0  0
  140.0550   72.3850  222.3130 C   0  0  0  0  0  0  0  0  0  0  0  0
  139.5430   71.9180  221.0680 N   0  0  0  0  0  0  0  0  0  0  0  0
  139.5410   72.8220  219.9510 C   0  0  0  0  0  0  0  0  0  0  0  0
  140.7500   72.6730  219.1020 C   0  0  0  0  0  0  0  0  0  0  0  0
  140.8500   71.8290  218.1760 O   0  0  0  0  0  0  0  0  0  0  0  0
  141.8560   73.5300  219.3500 N   0  0  0  0  0  0  0  0  0  0  0  0
  141.7210   74.8040  220.0290 C   0  0  0  0  0  0  0  0  0  0  0  0
  143.0840   75.4590  219.9620 C   0  0  2  0  0  0  0  0  0  0  0  0
  142.9860   76.8330  219.7630 O   0  0  0  0  0  0  0  0  0  0  0  0
  143.7150   74.7550  218.7940 C   0  0  0  0  0  0  0  0  0  0  0  0
  143.2530   73.3400  219.0080 C   0  0  1  0  0  0  0  0  0  0  0  0
  143.9260   72.6560  220.1610 C   0  0  0  0  0  0  0  0  0  0  0  0
  144.3600   71.2740  219.8400 C   0  0  0  0  0  0  0  0  0  0  0  0
  143.5660   70.1630  220.0320 C   0  0  0  0  0  0  0  0  0  0  0  0
  144.0570   68.8970  219.7010 C   0  0  0  0  0  0  0  0  0  0  0  0
  145.3520   68.7900  219.1810 C   0  0  0  0  0  0  0  0  0  0  0  0
  146.0230   67.2190  218.7480 Cl  0  0  0  0  0  0  0  0  0  0  0  0
  146.1510   69.9000  218.9890 C   0  0  0  0  0  0  0  0  0  0  0  0
  145.6500   71.1420  219.3200 C   0  0  0  0  0  0  0  0  0  0  0  0
  140.0820   71.5120  223.4820 C   0  0  0  0  0  0  0  0  0  0  0  0
  139.5790   70.2200  223.3180 C   0  0  0  0  0  0  0  0  0  0  0  0
  139.5850   69.3600  224.3970 C   0  0  0  0  0  0  0  0  0  0  0  0
  140.0830   69.7790  225.6200 C   0  0  0  0  0  0  0  0  0  0  0  0
  140.0650   68.8780  226.6660 C   0  0  0  0  0  0  0  0  0  0  0  0
  140.5700   69.3160  227.8860 C   0  0  0  0  0  0  0  0  0  0  0  0
  140.5720   68.4720  228.9360 F   0  0  0  0  0  0  0  0  0  0  0  0
  141.0570   70.6030  228.0030 C   0  0  0  0  0  0  0  0  0  0  0  0
  141.0730   71.5010  226.9530 C   0  0  0  0  0  0  0  0  0  0  0  0
  140.5700   71.0640  225.7390 C   0  0  0  0  0  0  0  0  0  0  0  0
  140.5700   71.9240  224.6800 N   0  0  0  0  0  0  0  0  0  0  0  0
  139.1960   70.9340  221.0430 H   0  0  0  0  0  0  0  0  0  0  0  0
  138.6507   72.6227  219.3365 H   0  0  0  0  0  0  0  0  0  0  0  0
  139.5339   73.8476  220.3487 H   0  0  0  0  0  0  0  0  0  0  0  0
  140.9711   75.4294  219.5226 H   0  0  0  0  0  0  0  0  0  0  0  0
  141.3877   74.6729  221.0691 H   0  0  0  0  0  0  0  0  0  0  0  0
  143.6676   75.3679  220.8900 H   0  0  0  0  0  0  0  0  0  0  0  0
  143.8200   77.2850  220.0720 H   0  0  0  0  0  0  0  0  0  0  0  0
  143.3486   75.1565  217.8377 H   0  0  0  0  0  0  0  0  0  0  0  0
  144.8082   74.8657  218.7422 H   0  0  0  0  0  0  0  0  0  0  0  0
  143.4640   72.7124  218.1296 H   0  0  0  0  0  0  0  0  0  0  0  0
  144.8102   73.2433  220.4497 H   0  0  0  0  0  0  0  0  0  0  0  0
  143.1931   72.5899  220.9786 H   0  0  0  0  0  0  0  0  0  0  0  0
  142.5517   70.2726  220.4434 H   0  0  0  0  0  0  0  0  0  0  0  0
  143.4365   68.0004  219.8466 H   0  0  0  0  0  0  0  0  0  0  0  0
  147.1669   69.7958  218.5802 H   0  0  0  0  0  0  0  0  0  0  0  0
  146.2722   72.0371  219.1731 H   0  0  0  0  0  0  0  0  0  0  0  0
  139.1844   69.8930  222.3447 H   0  0  0  0  0  0  0  0  0  0  0  0
  139.1931   68.3382  224.2858 H   0  0  0  0  0  0  0  0  0  0  0  0
  139.6691   67.8594  226.5403 H   0  0  0  0  0  0  0  0  0  0  0  0
  141.4504   70.9283  228.9774 H   0  0  0  0  0  0  0  0  0  0  0  0
  141.4686   72.5200  227.0762 H   0  0  0  0  0  0  0  0  0  0  0  0
  1  2  2  0
  2  3  1  0
  3  4  1  0
  4  5  1  0
  5  6  2  0
  5  7  1  0
  7  8  1  0
  8  9  1  0
  9 10  1  0
  9 11  1  0
 11 12  1  0
 12 13  1  0
 13 14  1  0
 14 15  2  0
 15 16  1  0
 16 17  2  0
 17 18  1  0
 17 19  1  0
 19 20  2  0
  2 21  1  0
 21 22  2  0
 22 23  1  0
 23 24  2  0
 24 25  1  0
 25 26  2  0
 26 27  1  0
 26 28  1  0
 28 29  2  0
 29 30  1  0
 30 31  2  0
 12  7  1  0
 20 14  1  0
 31 21  1  0
 30 24  1  0
  3 32  1  0
  4 33  1  0
  4 34  1  0
  8 35  1  0
  8 36  1  0
  9 37  1  1
 10 38  1  0
 11 39  1  0
 11 40  1  0
 12 41  1  6
 13 42  1  0
 13 43  1  0
 15 44  1  0
 16 45  1  0
 19 46  1  0
 20 47  1  0
 22 48  1  0
 23 49  1  0
 25 50  1  0
 28 51  1  0
 29 52  1  0
M  END
>  <smiles>  (41) 
O=C(NCC(=O)N1C[C@H](O)C[C@H]1Cc1ccc(Cl)cc1)c1ccc2cc(F)ccc2n1

>  <score_type>  (41) 
oracle

>  <origin>  (41) 
autodockgpu

>  <m_score__min__energy>  (41) 
-9.0399999999999991

>  <m_primary>  (41) 
energy

>  <rmsd>  (41) 
2.7724068884302464

>  <m_score__min__rmsd>  (41) 
2.7724068884302464

>  <meeko>  (41) 
{"free_energy": -8.01, "intermolecular_energy": -10.1, "internal_energy": -1.63, "cluster_size": 12, "cluster_id": 2, "rank_in_cluster": 9}

>  <energy>  (41) 
-7.8

>  <cluster_rmsd>  (41) 
0.68

>  <cluster>  (41) 
5

$$$$

     RDKit          3D

 52 55  0  0  0  0  0  0  0  0999 V2000
  138.5980   70.5520  221.7150 O   0  0  0  0  0  0  0  0  0  0  0  0
  139.0380   71.0780  222.7690 C   0  0  0  0  0  0  0  0  0  0  0  0
  139.2400   72.4870  222.7400 N   0  0  0  0  0  0  0  0  0  0  0  0
  138.9320   73.1940  221.5270 C   0  0  0  0  0  0  0  0  0  0  0  0
  139.2030   74.6500  221.6400 C   0  0  0  0  0  0  0  0  0  0  0  0
  140.3460   75.1310  221.8420 O   0  0  0  0  0  0  0  0  0  0  0  0
  138.1090   75.5500  221.5110 N   0  0  0  0  0  0  0  0  0  0  0  0
  136.7290   75.1060  221.5040 C   0  0  0  0  0  0  0  0  0  0  0  0
  135.8990   76.3360  221.2060 C   0  0  2  0  0  0  0  0  0  0  0  0
  134.8180   76.0400  220.3790 O   0  0  0  0  0  0  0  0  0  0  0  0
  136.8980   77.2390  220.5400 C   0  0  0  0  0  0  0  0  0  0  0  0
  138.1270   76.9940  221.3710 C   0  0  1  0  0  0  0  0  0  0  0  0
  138.0560   77.5960  222.7420 C   0  0  0  0  0  0  0  0  0  0  0  0
  139.2110   78.4750  223.0490 C   0  0  0  0  0  0  0  0  0  0  0  0
  139.0830   79.7500  223.5580 C   0  0  0  0  0  0  0  0  0  0  0  0
  140.2280   80.5100  223.8170 C   0  0  0  0  0  0  0  0  0  0  0  0
  141.4830   79.9510  223.5500 C   0  0  0  0  0  0  0  0  0  0  0  0
  142.9600   80.8620  223.8570 Cl  0  0  0  0  0  0  0  0  0  0  0  0
  141.6150   78.6750  223.0390 C   0  0  0  0  0  0  0  0  0  0  0  0
  140.4750   77.9390  222.7900 C   0  0  0  0  0  0  0  0  0  0  0  0
  139.3330   70.3070  223.9730 C   0  0  0  0  0  0  0  0  0  0  0  0
  138.9640   68.9600  223.9680 C   0  0  0  0  0  0  0  0  0  0  0  0
  139.2250   68.1940  225.0850 C   0  0  0  0  0  0  0  0  0  0  0  0
  139.8410   68.7580  226.1900 C   0  0  0  0  0  0  0  0  0  0  0  0
  140.0770   67.9450  227.2810 C   0  0  0  0  0  0  0  0  0  0  0  0
  140.6980   68.5290  228.3810 C   0  0  0  0  0  0  0  0  0  0  0  0
  140.9480   67.7750  229.4700 F   0  0  0  0  0  0  0  0  0  0  0  0
  141.0440   69.8650  228.3420 C   0  0  0  0  0  0  0  0  0  0  0  0
  140.8060   70.6740  227.2490 C   0  0  0  0  0  0  0  0  0  0  0  0
  140.1880   70.0920  226.1540 C   0  0  0  0  0  0  0  0  0  0  0  0
  139.9370   70.8620  225.0560 N   0  0  0  0  0  0  0  0  0  0  0  0
  139.6050   72.9280  223.6140 H   0  0  0  0  0  0  0  0  0  0  0  0
  139.5451   72.7821  220.7119 H   0  0  0  0  0  0  0  0  0  0  0  0
  137.8582   73.0658  221.3256 H   0  0  0  0  0  0  0  0  0  0  0  0
  136.5763   74.3436  220.7259 H   0  0  0  0  0  0  0  0  0  0  0  0
  136.4463   74.6511  222.4648 H   0  0  0  0  0  0  0  0  0  0  0  0
  135.4355   76.7856  222.0965 H   0  0  0  0  0  0  0  0  0  0  0  0
  134.3610   76.8810  220.0960 H   0  0  0  0  0  0  0  0  0  0  0  0
  137.0598   76.9536  219.4900 H   0  0  0  0  0  0  0  0  0  0  0  0
  136.5893   78.2939  220.4972 H   0  0  0  0  0  0  0  0  0  0  0  0
  139.0209   77.4330  220.9038 H   0  0  0  0  0  0  0  0  0  0  0  0
  137.1334   78.1904  222.8166 H   0  0  0  0  0  0  0  0  0  0  0  0
  138.0705   76.7682  223.4663 H   0  0  0  0  0  0  0  0  0  0  0  0
  138.0853   80.1673  223.7593 H   0  0  0  0  0  0  0  0  0  0  0  0
  140.1438   81.5288  224.2232 H   0  0  0  0  0  0  0  0  0  0  0  0
  142.6102   78.2534  222.8344 H   0  0  0  0  0  0  0  0  0  0  0  0
  140.5620   76.9205  222.3837 H   0  0  0  0  0  0  0  0  0  0  0  0
  138.4736   68.5175  223.0883 H   0  0  0  0  0  0  0  0  0  0  0  0
  138.9428   67.1309  225.0983 H   0  0  0  0  0  0  0  0  0  0  0  0
  139.7872   66.8838  227.2806 H   0  0  0  0  0  0  0  0  0  0  0  0
  141.5325   70.3057  229.2236 H   0  0  0  0  0  0  0  0  0  0  0  0
  141.0947   71.7354  227.2475 H   0  0  0  0  0  0  0  0  0  0  0  0
  1  2  2  0
  2  3  1  0
  3  4  1  0
  4  5  1  0
  5  6  2  0
  5  7  1  0
  7  8  1  0
  8  9  1  0
  9 10  1  0
  9 11  1  0
 11 12  1  0
 12 13  1  0
 13 14  1  0
 14 15  2  0
 15 16  1  0
 16 17  2  0
 17 18  1  0
 17 19  1  0
 19 20  2  0
  2 21  1  0
 21 22  2  0
 22 23  1  0
 23 24  2  0
 24 25  1  0
 25 26  2  0
 26 27  1  0
 26 28  1  0
 28 29  2  0
 29 30  1  0
 30 31  2  0
 12  7  1  0
 20 14  1  0
 31 21  1  0
 30 24  1  0
  3 32  1  0
  4 33  1  0
  4 34  1  0
  8 35  1  0
  8 36  1  0
  9 37  1  1
 10 38  1  0
 11 39  1  0
 11 40  1  0
 12 41  1  6
 13 42  1  0
 13 43  1  0
 15 44  1  0
 16 45  1  0
 19 46  1  0
 20 47  1  0
 22 48  1  0
 23 49  1  0
 25 50  1  0
 28 51  1  0
 29 52  1  0
M  END
>  <smiles>  (42) 
O=C(NCC(=O)N1C[C@H](O)C[C@H]1Cc1ccc(Cl)cc1)c1ccc2cc(F)ccc2n1

>  <score_type>  (42) 
oracle

>  <origin>  (42) 
autodockgpu

>  <m_score__min__energy>  (42) 
-9.0399999999999991

>  <m_primary>  (42) 
energy

>  <rmsd>  (42) 
2.593783448015038

>  <m_score__min__rmsd>  (42) 
2.593783448015038

>  <meeko>  (42) 
{"free_energy": -8.23, "intermolecular_energy": -10.31, "internal_energy": -1.5, "cluster_size": 3, "cluster_id": 5, "rank_in_cluster": 1}

>  <energy>  (42) 
-8.01

>  <cluster_rmsd>  (42) 
0.0

>  <cluster>  (42) 
6

$$$$

     RDKit          3D

 52 55  0  0  0  0  0  0  0  0999 V2000
  140.7750   71.8290  221.1510 O   0  0  0  0  0  0  0  0  0  0  0  0
  140.3220   72.2800  222.2340 C   0  0  0  0  0  0  0  0  0  0  0  0
  139.9160   73.6450  222.2340 N   0  0  0  0  0  0  0  0  0  0  0  0
  140.0520   74.3960  221.0170 C   0  0  0  0  0  0  0  0  0  0  0  0
  140.7510   75.6900  221.2280 C   0  0  0  0  0  0  0  0  0  0  0  0
  140.5450   76.4390  222.2160 O   0  0  0  0  0  0  0  0  0  0  0  0
  141.7060   76.1040  220.2600 N   0  0  0  0  0  0  0  0  0  0  0  0
  142.0080   77.5000  220.0070 C   0  0  0  0  0  0  0  0  0  0  0  0
  142.9510   77.5140  218.8230 C   0  0  2  0  0  0  0  0  0  0  0  0
  142.6920   78.5840  217.9710 O   0  0  0  0  0  0  0  0  0  0  0  0
  142.6690   76.1860  218.1790 C   0  0  0  0  0  0  0  0  0  0  0  0
  142.5240   75.2930  219.3790 C   0  0  1  0  0  0  0  0  0  0  0  0
  143.8210   75.0090  220.0780 C   0  0  0  0  0  0  0  0  0  0  0  0
  144.2860   73.6130  219.8890 C   0  0  0  0  0  0  0  0  0  0  0  0
  145.6120   73.2380  219.9550 C   0  0  0  0  0  0  0  0  0  0  0  0
  145.9610   71.8970  219.7650 C   0  0  0  0  0  0  0  0  0  0  0  0
  144.9480   70.9660  219.5100 C   0  0  0  0  0  0  0  0  0  0  0  0
  145.3300   69.2640  219.2620 Cl  0  0  0  0  0  0  0  0  0  0  0  0
  143.6200   71.3380  219.4430 C   0  0  0  0  0  0  0  0  0  0  0  0
  143.2930   72.6650  219.6340 C   0  0  0  0  0  0  0  0  0  0  0  0
  140.2080   71.4680  223.4420 C   0  0  0  0  0  0  0  0  0  0  0  0
  139.5880   70.2230  223.3100 C   0  0  0  0  0  0  0  0  0  0  0  0
  139.4580   69.4230  224.4260 C   0  0  0  0  0  0  0  0  0  0  0  0
  139.9350   69.8530  225.6530 C   0  0  0  0  0  0  0  0  0  0  0  0
  139.7790   69.0100  226.7360 C   0  0  0  0  0  0  0  0  0  0  0  0
  140.2650   69.4590  227.9600 C   0  0  0  0  0  0  0  0  0  0  0  0
  140.1340   68.6720  229.0460 F   0  0  0  0  0  0  0  0  0  0  0  0
  140.8700   70.6980  228.0440 C   0  0  0  0  0  0  0  0  0  0  0  0
  141.0250   71.5360  226.9570 C   0  0  0  0  0  0  0  0  0  0  0  0
  140.5400   71.0890  225.7390 C   0  0  0  0  0  0  0  0  0  0  0  0
  140.6760   71.8920  224.6440 N   0  0  0  0  0  0  0  0  0  0  0  0
  139.5400   74.0230  223.1320 H   0  0  0  0  0  0  0  0  0  0  0  0
  140.6261   73.7976  220.2943 H   0  0  0  0  0  0  0  0  0  0  0  0
  139.0413   74.6166  220.6430 H   0  0  0  0  0  0  0  0  0  0  0  0
  141.0875   78.0533  219.7693 H   0  0  0  0  0  0  0  0  0  0  0  0
  142.4590   77.9810  220.8875 H   0  0  0  0  0  0  0  0  0  0  0  0
  144.0081   77.6460  219.0971 H   0  0  0  0  0  0  0  0  0  0  0  0
  143.5290   78.8620  217.5040 H   0  0  0  0  0  0  0  0  0  0  0  0
  141.7427   76.2158  217.5866 H   0  0  0  0  0  0  0  0  0  0  0  0
  143.4433   75.8595  217.4691 H   0  0  0  0  0  0  0  0  0  0  0  0
  142.1192   74.3094  219.0986 H   0  0  0  0  0  0  0  0  0  0  0  0
  144.5887   75.6909  219.6836 H   0  0  0  0  0  0  0  0  0  0  0  0
  143.6546   75.1582  221.1551 H   0  0  0  0  0  0  0  0  0  0  0  0
  146.3901   73.9891  220.1558 H   0  0  0  0  0  0  0  0  0  0  0  0
  147.0131   71.5799  219.8151 H   0  0  0  0  0  0  0  0  0  0  0  0
  142.8380   70.5912  219.2413 H   0  0  0  0  0  0  0  0  0  0  0  0
  142.2399   72.9790  219.5849 H   0  0  0  0  0  0  0  0  0  0  0  0
  139.2102   69.8867  222.3332 H   0  0  0  0  0  0  0  0  0  0  0  0
  138.9733   68.4392  224.3411 H   0  0  0  0  0  0  0  0  0  0  0  0
  139.2927   68.0285  226.6354 H   0  0  0  0  0  0  0  0  0  0  0  0
  141.2458   71.0328  229.0221 H   0  0  0  0  0  0  0  0  0  0  0  0
  141.5130   72.5170  227.0545 H   0  0  0  0  0  0  0  0  0  0  0  0
  1  2  2  0
  2  3  1  0
  3  4  1  0
  4  5  1  0
  5  6  2  0
  5  7  1  0
  7  8  1  0
  8  9  1  0
  9 10  1  0
  9 11  1  0
 11 12  1  0
 12 13  1  0
 13 14  1  0
 14 15  2  0
 15 16  1  0
 16 17  2  0
 17 18  1  0
 17 19  1  0
 19 20  2  0
  2 21  1  0
 21 22  2  0
 22 23  1  0
 23 24  2  0
 24 25  1  0
 25 26  2  0
 26 27  1  0
 26 28  1  0
 28 29  2  0
 29 30  1  0
 30 31  2  0
 12  7  1  0
 20 14  1  0
 31 21  1  0
 30 24  1  0
  3 32  1  0
  4 33  1  0
  4 34  1  0
  8 35  1  0
  8 36  1  0
  9 37  1  1
 10 38  1  0
 11 39  1  0
 11 40  1  0
 12 41  1  6
 13 42  1  0
 13 43  1  0
 15 44  1  0
 16 45  1  0
 19 46  1  0
 20 47  1  0
 22 48  1  0
 23 49  1  0
 25 50  1  0
 28 51  1  0
 29 52  1  0
M  END
>  <smiles>  (43) 
O=C(NCC(=O)N1C[C@H](O)C[C@H]1Cc1ccc(Cl)cc1)c1ccc2cc(F)ccc2n1

>  <score_type>  (43) 
oracle

>  <origin>  (43) 
autodockgpu

>  <m_score__min__energy>  (43) 
-9.0399999999999991

>  <m_primary>  (43) 
energy

>  <rmsd>  (43) 
2.2835687349512965

>  <m_score__min__rmsd>  (43) 
2.2835687349512965

>  <meeko>  (43) 
{"free_energy": -8.61, "intermolecular_energy": -10.7, "internal_energy": -1.75, "cluster_size": 12, "cluster_id": 2, "rank_in_cluster": 2}

>  <energy>  (43) 
-7.53

>  <cluster_rmsd>  (43) 
0.0

>  <cluster>  (43) 
7

$$$$

     RDKit          3D

 52 55  0  0  0  0  0  0  0  0999 V2000
  140.3630   73.1900  222.5120 O   0  0  0  0  0  0  0  0  0  0  0  0
  140.2390   71.9380  222.5140 C   0  0  0  0  0  0  0  0  0  0  0  0
  140.2200   71.3000  221.2400 N   0  0  0  0  0  0  0  0  0  0  0  0
  140.3420   72.1190  220.0660 C   0  0  0  0  0  0  0  0  0  0  0  0
  141.5890   71.8390  219.3100 C   0  0  0  0  0  0  0  0  0  0  0  0
  141.7510   70.8240  218.5870 O   0  0  0  0  0  0  0  0  0  0  0  0
  142.6600   72.7690  219.4100 N   0  0  0  0  0  0  0  0  0  0  0  0
  143.8580   72.6720  218.5980 C   0  0  0  0  0  0  0  0  0  0  0  0
  144.7940   73.7470  219.1080 C   0  0  2  0  0  0  0  0  0  0  0  0
  146.1190   73.3190  219.1060 O   0  0  0  0  0  0  0  0  0  0  0  0
  144.2710   73.9880  220.4960 C   0  0  0  0  0  0  0  0  0  0  0  0
  142.7860   73.9270  220.2750 C   0  0  1  0  0  0  0  0  0  0  0  0
  142.2360   75.1160  219.5440 C   0  0  0  0  0  0  0  0  0  0  0  0
  141.8690   76.2320  220.4490 C   0  0  0  0  0  0  0  0  0  0  0  0
  142.2000   77.5490  220.2060 C   0  0  0  0  0  0  0  0  0  0  0  0
  141.8120   78.5380  221.1150 C   0  0  0  0  0  0  0  0  0  0  0  0
  141.0940   78.1630  222.2560 C   0  0  0  0  0  0  0  0  0  0  0  0
  140.5800   79.3670  223.4350 Cl  0  0  0  0  0  0  0  0  0  0  0  0
  140.7610   76.8450  222.5020 C   0  0  0  0  0  0  0  0  0  0  0  0
  141.1510   75.8820  221.5950 C   0  0  0  0  0  0  0  0  0  0  0  0
  140.1180   71.1570  223.7410 C   0  0  0  0  0  0  0  0  0  0  0  0
  139.4330   69.9430  223.6520 C   0  0  0  0  0  0  0  0  0  0  0  0
  139.2950   69.1720  224.7880 C   0  0  0  0  0  0  0  0  0  0  0  0
  139.8280   69.6010  225.9920 C   0  0  0  0  0  0  0  0  0  0  0  0
  139.6600   68.7900  227.0970 C   0  0  0  0  0  0  0  0  0  0  0  0
  140.2040   69.2380  228.2980 C   0  0  0  0  0  0  0  0  0  0  0  0
  140.0640   68.4800  229.4030 F   0  0  0  0  0  0  0  0  0  0  0  0
  140.8730   70.4450  228.3380 C   0  0  0  0  0  0  0  0  0  0  0  0
  141.0390   71.2530  227.2300 C   0  0  0  0  0  0  0  0  0  0  0  0
  140.4970   70.8070  226.0360 C   0  0  0  0  0  0  0  0  0  0  0  0
  140.6410   71.5800  224.9200 N   0  0  0  0  0  0  0  0  0  0  0  0
  140.1170   70.2610  221.2370 H   0  0  0  0  0  0  0  0  0  0  0  0
  139.4801   71.9273  219.4099 H   0  0  0  0  0  0  0  0  0  0  0  0
  140.3743   73.1695  220.3907 H   0  0  0  0  0  0  0  0  0  0  0  0
  144.3177   71.6792  218.7116 H   0  0  0  0  0  0  0  0  0  0  0  0
  143.6333   72.8062  217.5296 H   0  0  0  0  0  0  0  0  0  0  0  0
  144.8096   74.6553  218.4877 H   0  0  0  0  0  0  0  0  0  0  0  0
  146.7310   74.0990  218.9950 H   0  0  0  0  0  0  0  0  0  0  0  0
  144.6055   73.2050  221.1924 H   0  0  0  0  0  0  0  0  0  0  0  0
  144.6176   74.9293  220.9473 H   0  0  0  0  0  0  0  0  0  0  0  0
  142.2407   73.8913  221.2297 H   0  0  0  0  0  0  0  0  0  0  0  0
  142.9969   75.4748  218.8352 H   0  0  0  0  0  0  0  0  0  0  0  0
  141.3184   74.7921  219.0311 H   0  0  0  0  0  0  0  0  0  0  0  0
  142.7659   77.8195  219.3023 H   0  0  0  0  0  0  0  0  0  0  0  0
  142.0669   79.5930  220.9362 H   0  0  0  0  0  0  0  0  0  0  0  0
  140.1955   76.5689  223.4042 H   0  0  0  0  0  0  0  0  0  0  0  0
  140.8941   74.8278  221.7758 H   0  0  0  0  0  0  0  0  0  0  0  0
  139.0110   69.6075  222.6932 H   0  0  0  0  0  0  0  0  0  0  0  0
  138.7594   68.2126  224.7370 H   0  0  0  0  0  0  0  0  0  0  0  0
  139.1209   67.8334  227.0314 H   0  0  0  0  0  0  0  0  0  0  0  0
  141.2938   70.7791  229.2978 H   0  0  0  0  0  0  0  0  0  0  0  0
  141.5785   72.2095  227.2932 H   0  0  0  0  0  0  0  0  0  0  0  0
  1  2  2  0
  2  3  1  0
  3  4  1  0
  4  5  1  0
  5  6  2  0
  5  7  1  0
  7  8  1  0
  8  9  1  0
  9 10  1  0
  9 11  1  0
 11 12  1  0
 12 13  1  0
 13 14  1  0
 14 15  2  0
 15 16  1  0
 16 17  2  0
 17 18  1  0
 17 19  1  0
 19 20  2  0
  2 21  1  0
 21 22  2  0
 22 23  1  0
 23 24  2  0
 24 25  1  0
 25 26  2  0
 26 27  1  0
 26 28  1  0
 28 29  2  0
 29 30  1  0
 30 31  2  0
 12  7  1  0
 20 14  1  0
 31 21  1  0
 30 24  1  0
  3 32  1  0
  4 33  1  0
  4 34  1  0
  8 35  1  0
  8 36  1  0
  9 37  1  6
 10 38  1  0
 11 39  1  0
 11 40  1  0
 12 41  1  1
 13 42  1  0
 13 43  1  0
 15 44  1  0
 16 45  1  0
 19 46  1  0
 20 47  1  0
 22 48  1  0
 23 49  1  0
 25 50  1  0
 28 51  1  0
 29 52  1  0
M  END
>  <smiles>  (44) 
O=C(NCC(=O)N1C[C@H](O)C[C@H]1Cc1ccc(Cl)cc1)c1ccc2cc(F)ccc2n1

>  <score_type>  (44) 
oracle

>  <origin>  (44) 
autodockgpu

>  <m_score__min__energy>  (44) 
-9.0399999999999991

>  <m_primary>  (44) 
energy

>  <rmsd>  (44) 
3.272666758962688

>  <m_score__min__rmsd>  (44) 
3.272666758962688

>  <meeko>  (44) 
{"free_energy": -8.99, "intermolecular_energy": -11.08, "internal_energy": -1.54, "cluster_size": 23, "cluster_id": 1, "rank_in_cluster": 4}

>  <energy>  (44) 
-7.38

>  <cluster_rmsd>  (44) 
0.0

>  <cluster>  (44) 
8

$$$$

     RDKit          3D

 52 55  0  0  0  0  0  0  0  0999 V2000
  139.1830   74.8420  222.3320 O   0  0  0  0  0  0  0  0  0  0  0  0
  140.2410   75.4290  221.9870 C   0  0  0  0  0  0  0  0  0  0  0  0
  141.3360   74.5980  221.6160 N   0  0  0  0  0  0  0  0  0  0  0  0
  141.1560   73.1730  221.6610 C   0  0  0  0  0  0  0  0  0  0  0  0
  141.7380   72.4930  220.4760 C   0  0  0  0  0  0  0  0  0  0  0  0
  141.1230   71.6340  219.7950 O   0  0  0  0  0  0  0  0  0  0  0  0
  143.0640   72.8300  220.0910 N   0  0  0  0  0  0  0  0  0  0  0  0
  144.0700   71.8290  219.7910 C   0  0  0  0  0  0  0  0  0  0  0  0
  145.3600   72.5890  219.5710 C   0  0  2  0  0  0  0  0  0  0  0  0
  146.4560   71.9050  220.0910 O   0  0  0  0  0  0  0  0  0  0  0  0
  145.0950   73.8790  220.2940 C   0  0  0  0  0  0  0  0  0  0  0  0
  143.6610   74.1420  219.9250 C   0  0  1  0  0  0  0  0  0  0  0  0
  143.4740   74.5620  218.4970 C   0  0  0  0  0  0  0  0  0  0  0  0
  143.1330   75.9990  218.3570 C   0  0  0  0  0  0  0  0  0  0  0  0
  143.2790   76.7040  217.1810 C   0  0  0  0  0  0  0  0  0  0  0  0
  142.9320   78.0580  217.1380 C   0  0  0  0  0  0  0  0  0  0  0  0
  142.4420   78.6660  218.3010 C   0  0  0  0  0  0  0  0  0  0  0  0
  141.9900   80.3690  218.3060 Cl  0  0  0  0  0  0  0  0  0  0  0  0
  142.2960   77.9630  219.4800 C   0  0  0  0  0  0  0  0  0  0  0  0
  142.6430   76.6270  219.5040 C   0  0  0  0  0  0  0  0  0  0  0  0
  140.3660   76.8830  221.9610 C   0  0  0  0  0  0  0  0  0  0  0  0
  139.3650   77.5910  221.2930 C   0  0  0  0  0  0  0  0  0  0  0  0
  139.4430   78.9680  221.2430 C   0  0  0  0  0  0  0  0  0  0  0  0
  140.5000   79.6290  221.8460 C   0  0  0  0  0  0  0  0  0  0  0  0
  140.5280   81.0080  221.7650 C   0  0  0  0  0  0  0  0  0  0  0  0
  141.5970   81.6540  222.3780 C   0  0  0  0  0  0  0  0  0  0  0  0
  141.6680   82.9990  222.3240 F   0  0  0  0  0  0  0  0  0  0  0  0
  142.5650   80.9130  223.0270 C   0  0  0  0  0  0  0  0  0  0  0  0
  142.5320   79.5350  223.1050 C   0  0  0  0  0  0  0  0  0  0  0  0
  141.4680   78.8910  222.4950 C   0  0  0  0  0  0  0  0  0  0  0  0
  141.4030   77.5290  222.5520 N   0  0  0  0  0  0  0  0  0  0  0  0
  142.2170   75.0810  221.3290 H   0  0  0  0  0  0  0  0  0  0  0  0
  141.6433   72.7835  222.5670 H   0  0  0  0  0  0  0  0  0  0  0  0
  140.0748   72.9707  221.6673 H   0  0  0  0  0  0  0  0  0  0  0  0
  144.1770   71.1298  220.6334 H   0  0  0  0  0  0  0  0  0  0  0  0
  143.7963   71.2342  218.9071 H   0  0  0  0  0  0  0  0  0  0  0  0
  145.6164   72.7318  218.5109 H   0  0  0  0  0  0  0  0  0  0  0  0
  146.3220   71.7330  221.0650 H   0  0  0  0  0  0  0  0  0  0  0  0
  145.2150   73.7620  221.3812 H   0  0  0  0  0  0  0  0  0  0  0  0
  145.7836   74.6933  220.0243 H   0  0  0  0  0  0  0  0  0  0  0  0
  143.2353   74.9570  220.5288 H   0  0  0  0  0  0  0  0  0  0  0  0
  144.4079   74.3680  217.9491 H   0  0  0  0  0  0  0  0  0  0  0  0
  142.6323   73.9822  218.0903 H   0  0  0  0  0  0  0  0  0  0  0  0
  143.6665   76.2039  216.2812 H   0  0  0  0  0  0  0  0  0  0  0  0
  143.0418   78.6351  216.2080 H   0  0  0  0  0  0  0  0  0  0  0  0
  141.9104   78.4581  220.3835 H   0  0  0  0  0  0  0  0  0  0  0  0
  142.5325   76.0519  220.4352 H   0  0  0  0  0  0  0  0  0  0  0  0
  138.5285   77.0603  220.8148 H   0  0  0  0  0  0  0  0  0  0  0  0
  138.6628   79.5425  220.7223 H   0  0  0  0  0  0  0  0  0  0  0  0
  139.7412   81.5694  221.2399 H   0  0  0  0  0  0  0  0  0  0  0  0
  143.4011   81.4454  223.5039 H   0  0  0  0  0  0  0  0  0  0  0  0
  143.3179   78.9719  223.6297 H   0  0  0  0  0  0  0  0  0  0  0  0
  1  2  2  0
  2  3  1  0
  3  4  1  0
  4  5  1  0
  5  6  2  0
  5  7  1  0
  7  8  1  0
  8  9  1  0
  9 10  1  0
  9 11  1  0
 11 12  1  0
 12 13  1  0
 13 14  1  0
 14 15  2  0
 15 16  1  0
 16 17  2  0
 17 18  1  0
 17 19  1  0
 19 20  2  0
  2 21  1  0
 21 22  2  0
 22 23  1  0
 23 24  2  0
 24 25  1  0
 25 26  2  0
 26 27  1  0
 26 28  1  0
 28 29  2  0
 29 30  1  0
 30 31  2  0
 12  7  1  0
 20 14  1  0
 31 21  1  0
 30 24  1  0
  3 32  1  0
  4 33  1  0
  4 34  1  0
  8 35  1  0
  8 36  1  0
  9 37  1  6
 10 38  1  0
 11 39  1  0
 11 40  1  0
 12 41  1  1
 13 42  1  0
 13 43  1  0
 15 44  1  0
 16 45  1  0
 19 46  1  0
 20 47  1  0
 22 48  1  0
 23 49  1  0
 25 50  1  0
 28 51  1  0
 29 52  1  0
M  END
>  <smiles>  (45) 
O=C(NCC(=O)N1C[C@H](O)C[C@H]1Cc1ccc(Cl)cc1)c1ccc2cc(F)ccc2n1

>  <score_type>  (45) 
oracle

>  <origin>  (45) 
autodockgpu

>  <m_score__min__energy>  (45) 
-9.0399999999999991

>  <m_primary>  (45) 
energy

>  <rmsd>  (45) 
8.195828009952358

>  <m_score__min__rmsd>  (45) 
8.195828009952358

>  <meeko>  (45) 
{"free_energy": -7.38, "intermolecular_energy": -9.47, "internal_energy": -2.51, "cluster_size": 7, "cluster_id": 8, "rank_in_cluster": 1}

>  <energy>  (45) 
-7.38

>  <cluster_rmsd>  (45) 
1.48

>  <cluster>  (45) 
8

$$$$

     RDKit          3D

 52 55  0  0  0  0  0  0  0  0999 V2000
  140.0760   73.0140  222.7520 O   0  0  0  0  0  0  0  0  0  0  0  0
  140.3260   71.7910  222.9120 C   0  0  0  0  0  0  0  0  0  0  0  0
  140.5310   71.0240  221.7290 N   0  0  0  0  0  0  0  0  0  0  0  0
  140.4380   71.6920  220.4600 C   0  0  0  0  0  0  0  0  0  0  0  0
  141.5910   71.3860  219.5760 C   0  0  0  0  0  0  0  0  0  0  0  0
  141.5800   70.4750  218.7090 O   0  0  0  0  0  0  0  0  0  0  0  0
  142.7720   72.1640  219.7170 N   0  0  0  0  0  0  0  0  0  0  0  0
  144.0110   71.8340  219.0390 C   0  0  0  0  0  0  0  0  0  0  0  0
  145.0440   72.8090  219.5630 C   0  0  2  0  0  0  0  0  0  0  0  0
  146.2870   72.2040  219.7250 O   0  0  0  0  0  0  0  0  0  0  0  0
  144.4400   73.2370  220.8710 C   0  0  0  0  0  0  0  0  0  0  0  0
  142.9870   73.3620  220.5050 C   0  0  1  0  0  0  0  0  0  0  0  0
  142.6840   74.5490  219.6400 C   0  0  0  0  0  0  0  0  0  0  0  0
  142.1490   75.7020  220.4060 C   0  0  0  0  0  0  0  0  0  0  0  0
  142.3740   77.0170  220.0580 C   0  0  0  0  0  0  0  0  0  0  0  0
  141.8290   78.0420  220.8380 C   0  0  0  0  0  0  0  0  0  0  0  0
  141.0650   77.7020  221.9600 C   0  0  0  0  0  0  0  0  0  0  0  0
  140.3550   78.9520  222.9800 Cl  0  0  0  0  0  0  0  0  0  0  0  0
  140.8380   76.3860  222.3120 C   0  0  0  0  0  0  0  0  0  0  0  0
  141.3820   75.3880  221.5300 C   0  0  0  0  0  0  0  0  0  0  0  0
  140.4080   71.1670  224.2290 C   0  0  0  0  0  0  0  0  0  0  0  0
  141.0140   71.9110  225.2440 C   0  0  0  0  0  0  0  0  0  0  0  0
  141.1130   71.3590  226.5050 C   0  0  0  0  0  0  0  0  0  0  0  0
  140.6200   70.0890  226.7520 C   0  0  0  0  0  0  0  0  0  0  0  0
  140.7460   69.5860  228.0320 C   0  0  0  0  0  0  0  0  0  0  0  0
  140.2430   68.3090  228.2610 C   0  0  0  0  0  0  0  0  0  0  0  0
  140.3450   67.7760  229.4950 F   0  0  0  0  0  0  0  0  0  0  0  0
  139.6530   67.6100  227.2260 C   0  0  0  0  0  0  0  0  0  0  0  0
  139.5290   68.1170  225.9480 C   0  0  0  0  0  0  0  0  0  0  0  0
  140.0300   69.3880  225.7210 C   0  0  0  0  0  0  0  0  0  0  0  0
  139.9250   69.9210  224.4690 N   0  0  0  0  0  0  0  0  0  0  0  0
  140.7390   70.0090  221.8580 H   0  0  0  0  0  0  0  0  0  0  0  0
  139.5130   71.3714  219.9585 H   0  0  0  0  0  0  0  0  0  0  0  0
  140.4376   72.7756  220.6495 H   0  0  0  0  0  0  0  0  0  0  0  0
  144.3093   70.8005  219.2689 H   0  0  0  0  0  0  0  0  0  0  0  0
  143.9050   71.9067  217.9465 H   0  0  0  0  0  0  0  0  0  0  0  0
  145.2466   73.6504  218.8840 H   0  0  0  0  0  0  0  0  0  0  0  0
  146.2850   71.6260  220.5390 H   0  0  0  0  0  0  0  0  0  0  0  0
  144.5936   72.4776  221.6519 H   0  0  0  0  0  0  0  0  0  0  0  0
  144.8779   74.1563  221.2872 H   0  0  0  0  0  0  0  0  0  0  0  0
  142.3584   73.4822  221.3997 H   0  0  0  0  0  0  0  0  0  0  0  0
  143.6107   74.8619  219.1368 H   0  0  0  0  0  0  0  0  0  0  0  0
  141.9098   74.2435  218.9208 H   0  0  0  0  0  0  0  0  0  0  0  0
  142.9789   77.2587  219.1716 H   0  0  0  0  0  0  0  0  0  0  0  0
  141.9979   79.0965  220.5742 H   0  0  0  0  0  0  0  0  0  0  0  0
  140.2354   76.1384  223.1983 H   0  0  0  0  0  0  0  0  0  0  0  0
  141.2098   74.3343  221.7945 H   0  0  0  0  0  0  0  0  0  0  0  0
  141.4054   72.9190  225.0419 H   0  0  0  0  0  0  0  0  0  0  0  0
  141.5857   71.9305  227.3174 H   0  0  0  0  0  0  0  0  0  0  0  0
  141.2225   70.1686  228.8342 H   0  0  0  0  0  0  0  0  0  0  0  0
  139.2635   66.6016  227.4297 H   0  0  0  0  0  0  0  0  0  0  0  0
  139.0527   67.5363  225.1443 H   0  0  0  0  0  0  0  0  0  0  0  0
  1  2  2  0
  2  3  1  0
  3  4  1  0
  4  5  1  0
  5  6  2  0
  5  7  1  0
  7  8  1  0
  8  9  1  0
  9 10  1  0
  9 11  1  0
 11 12  1  0
 12 13  1  0
 13 14  1  0
 14 15  2  0
 15 16  1  0
 16 17  2  0
 17 18  1  0
 17 19  1  0
 19 20  2  0
  2 21  1  0
 21 22  2  0
 22 23  1  0
 23 24  2  0
 24 25  1  0
 25 26  2  0
 26 27  1  0
 26 28  1  0
 28 29  2  0
 29 30  1  0
 30 31  2  0
 12  7  1  0
 20 14  1  0
 31 21  1  0
 30 24  1  0
  3 32  1  0
  4 33  1  0
  4 34  1  0
  8 35  1  0
  8 36  1  0
  9 37  1  6
 10 38  1  0
 11 39  1  0
 11 40  1  0
 12 41  1  1
 13 42  1  0
 13 43  1  0
 15 44  1  0
 16 45  1  0
 19 46  1  0
 20 47  1  0
 22 48  1  0
 23 49  1  0
 25 50  1  0
 28 51  1  0
 29 52  1  0
M  END
>  <smiles>  (46) 
O=C(NCC(=O)N1C[C@H](O)C[C@H]1Cc1ccc(Cl)cc1)c1ccc2cc(F)ccc2n1

>  <score_type>  (46) 
oracle

>  <origin>  (46) 
autodockgpu

>  <m_score__min__energy>  (46) 
-9.0399999999999991

>  <m_primary>  (46) 
energy

>  <rmsd>  (46) 
4.274451161598887

>  <m_score__min__rmsd>  (46) 
4.274451161598887

>  <meeko>  (46) 
{"free_energy": -8.7, "intermolecular_energy": -10.79, "internal_energy": -1.75, "cluster_size": 23, "cluster_id": 1, "rank_in_cluster": 14}

>  <energy>  (46) 
-7.34

>  <cluster_rmsd>  (46) 
0.21

>  <cluster>  (46) 
8

$$$$

     RDKit          3D

 52 55  0  0  0  0  0  0  0  0999 V2000
  140.0460   71.6300  221.0550 O   0  0  0  0  0  0  0  0  0  0  0  0
  139.6400   72.0560  222.1670 C   0  0  0  0  0  0  0  0  0  0  0  0
  138.9960   73.3260  222.1640 N   0  0  0  0  0  0  0  0  0  0  0  0
  138.8590   74.0170  220.9120 C   0  0  0  0  0  0  0  0  0  0  0  0
  139.5770   75.3180  220.9050 C   0  0  0  0  0  0  0  0  0  0  0  0
  139.0810   76.3880  221.3370 O   0  0  0  0  0  0  0  0  0  0  0  0
  140.8970   75.3540  220.3790 N   0  0  0  0  0  0  0  0  0  0  0  0
  141.7020   76.5600  220.3710 C   0  0  0  0  0  0  0  0  0  0  0  0
  142.9620   76.2140  219.6070 C   0  0  2  0  0  0  0  0  0  0  0  0
  143.3900   77.2750  218.8130 O   0  0  0  0  0  0  0  0  0  0  0  0
  142.5230   75.0300  218.7930 C   0  0  0  0  0  0  0  0  0  0  0  0
  141.6720   74.2830  219.7820 C   0  0  1  0  0  0  0  0  0  0  0  0
  142.4590   73.6150  220.8700 C   0  0  0  0  0  0  0  0  0  0  0  0
  143.4820   72.6750  220.3500 C   0  0  0  0  0  0  0  0  0  0  0  0
  144.8170   72.9960  220.2240 C   0  0  0  0  0  0  0  0  0  0  0  0
  145.7130   72.0460  219.7240 C   0  0  0  0  0  0  0  0  0  0  0  0
  145.2260   70.7850  219.3610 C   0  0  0  0  0  0  0  0  0  0  0  0
  146.3090   69.5490  218.7240 Cl  0  0  0  0  0  0  0  0  0  0  0  0
  143.8900   70.4600  219.4850 C   0  0  0  0  0  0  0  0  0  0  0  0
  143.0200   71.4090  219.9810 C   0  0  0  0  0  0  0  0  0  0  0  0
  139.8090   71.3080  223.4090 C   0  0  0  0  0  0  0  0  0  0  0  0
  139.4270   69.9640  223.3940 C   0  0  0  0  0  0  0  0  0  0  0  0
  139.5690   69.2190  224.5460 C   0  0  0  0  0  0  0  0  0  0  0  0
  140.0800   69.8000  225.6950 C   0  0  0  0  0  0  0  0  0  0  0  0
  140.2000   69.0070  226.8200 C   0  0  0  0  0  0  0  0  0  0  0  0
  140.7160   69.6090  227.9640 C   0  0  0  0  0  0  0  0  0  0  0  0
  140.8500   68.8750  229.0860 F   0  0  0  0  0  0  0  0  0  0  0  0
  141.0790   70.9410  227.9320 C   0  0  0  0  0  0  0  0  0  0  0  0
  140.9580   71.7290  226.8050 C   0  0  0  0  0  0  0  0  0  0  0  0
  140.4440   71.1300  225.6670 C   0  0  0  0  0  0  0  0  0  0  0  0
  140.3090   71.8790  224.5340 N   0  0  0  0  0  0  0  0  0  0  0  0
  138.6580   73.6830  223.0860 H   0  0  0  0  0  0  0  0  0  0  0  0
  139.2677   73.3830  220.1114 H   0  0  0  0  0  0  0  0  0  0  0  0
  137.7896   74.2217  220.7556 H   0  0  0  0  0  0  0  0  0  0  0  0
  141.1624   77.3766  219.8690 H   0  0  0  0  0  0  0  0  0  0  0  0
  141.9298   76.8997  221.3921 H   0  0  0  0  0  0  0  0  0  0  0  0
  143.8281   75.9995  220.2504 H   0  0  0  0  0  0  0  0  0  0  0  0
  144.0620   77.8240  219.3060 H   0  0  0  0  0  0  0  0  0  0  0  0
  141.9385   75.3411  217.9146 H   0  0  0  0  0  0  0  0  0  0  0  0
  143.3530   74.4383  218.3795 H   0  0  0  0  0  0  0  0  0  0  0  0
  141.1044   73.4774  219.2932 H   0  0  0  0  0  0  0  0  0  0  0  0
  142.9648   74.3906  221.4638 H   0  0  0  0  0  0  0  0  0  0  0  0
  141.7520   73.0302  221.4767 H   0  0  0  0  0  0  0  0  0  0  0  0
  145.1754   73.9943  220.5153 H   0  0  0  0  0  0  0  0  0  0  0  0
  146.7814   72.2854  219.6179 H   0  0  0  0  0  0  0  0  0  0  0  0
  143.5261   69.4636  219.1939 H   0  0  0  0  0  0  0  0  0  0  0  0
  141.9523   71.1666  220.0870 H   0  0  0  0  0  0  0  0  0  0  0  0
  139.0201   69.5081  222.4793 H   0  0  0  0  0  0  0  0  0  0  0  0
  139.2752   68.1590  224.5524 H   0  0  0  0  0  0  0  0  0  0  0  0
  139.9014   67.9483  226.8120 H   0  0  0  0  0  0  0  0  0  0  0  0
  141.4838   71.3958  228.8481 H   0  0  0  0  0  0  0  0  0  0  0  0
  141.2571   72.7875  226.8106 H   0  0  0  0  0  0  0  0  0  0  0  0
  1  2  2  0
  2  3  1  0
  3  4  1  0
  4  5  1  0
  5  6  2  0
  5  7  1  0
  7  8  1  0
  8  9  1  0
  9 10  1  0
  9 11  1  0
 11 12  1  0
 12 13  1  0
 13 14  1  0
 14 15  2  0
 15 16  1  0
 16 17  2  0
 17 18  1  0
 17 19  1  0
 19 20  2  0
  2 21  1  0
 21 22  2  0
 22 23  1  0
 23 24  2  0
 24 25  1  0
 25 26  2  0
 26 27  1  0
 26 28  1  0
 28 29  2  0
 29 30  1  0
 30 31  2  0
 12  7  1  0
 20 14  1  0
 31 21  1  0
 30 24  1  0
  3 32  1  0
  4 33  1  0
  4 34  1  0
  8 35  1  0
  8 36  1  0
  9 37  1  1
 10 38  1  0
 11 39  1  0
 11 40  1  0
 12 41  1  6
 13 42  1  0
 13 43  1  0
 15 44  1  0
 16 45  1  0
 19 46  1  0
 20 47  1  0
 22 48  1  0
 23 49  1  0
 25 50  1  0
 28 51  1  0
 29 52  1  0
M  END
>  <smiles>  (47) 
O=C(NCC(=O)N1C[C@H](O)C[C@H]1Cc1ccc(Cl)cc1)c1ccc2cc(F)ccc2n1

>  <score_type>  (47) 
oracle

>  <origin>  (47) 
autodockgpu

>  <m_score__min__energy>  (47) 
-9.0399999999999991

>  <m_primary>  (47) 
energy

>  <rmsd>  (47) 
2.1728784296627563

>  <m_score__min__rmsd>  (47) 
2.1728784296627563

>  <meeko>  (47) 
{"free_energy": -8.0, "intermolecular_energy": -10.08, "internal_energy": -1.83, "cluster_size": 12, "cluster_id": 2, "rank_in_cluster": 10}

>  <energy>  (47) 
-7.05

>  <cluster_rmsd>  (47) 
0.78

>  <cluster>  (47) 
8

$$$$

     RDKit          3D

 52 55  0  0  0  0  0  0  0  0999 V2000
  140.1980   72.9640  222.7100 O   0  0  0  0  0  0  0  0  0  0  0  0
  140.3330   71.7250  222.8810 C   0  0  0  0  0  0  0  0  0  0  0  0
  140.4090   70.9260  221.7040 N   0  0  0  0  0  0  0  0  0  0  0  0
  140.3260   71.5830  220.4290 C   0  0  0  0  0  0  0  0  0  0  0  0
  141.4990   71.2880  219.5660 C   0  0  0  0  0  0  0  0  0  0  0  0
  141.4900   70.4260  218.6510 O   0  0  0  0  0  0  0  0  0  0  0  0
  142.6970   72.0210  219.7850 N   0  0  0  0  0  0  0  0  0  0  0  0
  143.8980   71.8080  219.0000 C   0  0  0  0  0  0  0  0  0  0  0  0
  144.9690   72.6680  219.6380 C   0  0  2  0  0  0  0  0  0  0  0  0
  146.2090   72.0350  219.6300 O   0  0  0  0  0  0  0  0  0  0  0  0
  144.4330   72.8600  221.0280 C   0  0  0  0  0  0  0  0  0  0  0  0
  142.9670   73.0590  220.7620 C   0  0  1  0  0  0  0  0  0  0  0  0
  142.6420   74.3830  220.1370 C   0  0  0  0  0  0  0  0  0  0  0  0
  141.3550   74.9470  220.6130 C   0  0  0  0  0  0  0  0  0  0  0  0
  140.1610   74.7900  219.9410 C   0  0  0  0  0  0  0  0  0  0  0  0
  138.9940   75.3570  220.4630 C   0  0  0  0  0  0  0  0  0  0  0  0
  139.0710   76.0750  221.6620 C   0  0  0  0  0  0  0  0  0  0  0  0
  137.6330   76.8120  222.3650 Cl  0  0  0  0  0  0  0  0  0  0  0  0
  140.2650   76.2350  222.3370 C   0  0  0  0  0  0  0  0  0  0  0  0
  141.4060   75.6680  221.8080 C   0  0  0  0  0  0  0  0  0  0  0  0
  140.4110   71.1130  224.2040 C   0  0  0  0  0  0  0  0  0  0  0  0
  140.9800   71.8800  225.2230 C   0  0  0  0  0  0  0  0  0  0  0  0
  141.0730   71.3410  226.4890 C   0  0  0  0  0  0  0  0  0  0  0  0
  140.6110   70.0600  226.7380 C   0  0  0  0  0  0  0  0  0  0  0  0
  140.7300   69.5700  228.0240 C   0  0  0  0  0  0  0  0  0  0  0  0
  140.2590   68.2810  228.2550 C   0  0  0  0  0  0  0  0  0  0  0  0
  140.3540   67.7600  229.4940 F   0  0  0  0  0  0  0  0  0  0  0  0
  139.7040   67.5580  227.2160 C   0  0  0  0  0  0  0  0  0  0  0  0
  139.5870   68.0530  225.9320 C   0  0  0  0  0  0  0  0  0  0  0  0
  140.0570   69.3350  225.7030 C   0  0  0  0  0  0  0  0  0  0  0  0
  139.9570   69.8560  224.4450 N   0  0  0  0  0  0  0  0  0  0  0  0
  140.5210   69.8970  221.8410 H   0  0  0  0  0  0  0  0  0  0  0  0
  139.4144   71.2442  219.9150 H   0  0  0  0  0  0  0  0  0  0  0  0
  140.3052   72.6678  220.6098 H   0  0  0  0  0  0  0  0  0  0  0  0
  144.1909   70.7481  219.0288 H   0  0  0  0  0  0  0  0  0  0  0  0
  143.7426   72.0738  217.9440 H   0  0  0  0  0  0  0  0  0  0  0  0
  145.1526   73.6155  219.1102 H   0  0  0  0  0  0  0  0  0  0  0  0
  146.3420   71.5290  220.4800 H   0  0  0  0  0  0  0  0  0  0  0  0
  144.6107   71.9723  221.6529 H   0  0  0  0  0  0  0  0  0  0  0  0
  144.9041   73.6874  221.5789 H   0  0  0  0  0  0  0  0  0  0  0  0
  142.3830   73.0233  221.6935 H   0  0  0  0  0  0  0  0  0  0  0  0
  143.4469   75.0924  220.3795 H   0  0  0  0  0  0  0  0  0  0  0  0
  142.5504   74.2220  219.0527 H   0  0  0  0  0  0  0  0  0  0  0  0
  140.1267   74.2220  218.9996 H   0  0  0  0  0  0  0  0  0  0  0  0
  138.0329   75.2408  219.9407 H   0  0  0  0  0  0  0  0  0  0  0  0
  140.3055   76.8033  223.2779 H   0  0  0  0  0  0  0  0  0  0  0  0
  142.3657   75.7850  222.3327 H   0  0  0  0  0  0  0  0  0  0  0  0
  141.3477   72.8965  225.0193 H   0  0  0  0  0  0  0  0  0  0  0  0
  141.5162   71.9315  227.3044 H   0  0  0  0  0  0  0  0  0  0  0  0
  141.1769   70.1716  228.8292 H   0  0  0  0  0  0  0  0  0  0  0  0
  139.3385   66.5410  227.4213 H   0  0  0  0  0  0  0  0  0  0  0  0
  139.1393   67.4540  225.1253 H   0  0  0  0  0  0  0  0  0  0  0  0
  1  2  2  0
  2  3  1  0
  3  4  1  0
  4  5  1  0
  5  6  2  0
  5  7  1  0
  7  8  1  0
  8  9  1  0
  9 10  1  0
  9 11  1  0
 11 12  1  0
 12 13  1  0
 13 14  1  0
 14 15  2  0
 15 16  1  0
 16 17  2  0
 17 18  1  0
 17 19  1  0
 19 20  2  0
  2 21  1  0
 21 22  2  0
 22 23  1  0
 23 24  2  0
 24 25  1  0
 25 26  2  0
 26 27  1  0
 26 28  1  0
 28 29  2  0
 29 30  1  0
 30 31  2  0
 12  7  1  0
 20 14  1  0
 31 21  1  0
 30 24  1  0
  3 32  1  0
  4 33  1  0
  4 34  1  0
  8 35  1  0
  8 36  1  0
  9 37  1  6
 10 38  1  0
 11 39  1  0
 11 40  1  0
 12 41  1  1
 13 42  1  0
 13 43  1  0
 15 44  1  0
 16 45  1  0
 19 46  1  0
 20 47  1  0
 22 48  1  0
 23 49  1  0
 25 50  1  0
 28 51  1  0
 29 52  1  0
M  END
>  <smiles>  (48) 
O=C(NCC(=O)N1C[C@H](O)C[C@H]1Cc1ccc(Cl)cc1)c1ccc2cc(F)ccc2n1

>  <score_type>  (48) 
oracle

>  <origin>  (48) 
autodockgpu

>  <m_score__min__energy>  (48) 
-9.0399999999999991

>  <m_primary>  (48) 
energy

>  <rmsd>  (48) 
4.327008911554689

>  <m_score__min__rmsd>  (48) 
4.327008911554689

>  <meeko>  (48) 
{"free_energy": -7.67, "intermolecular_energy": -9.76, "internal_energy": -2.16, "cluster_size": 23, "cluster_id": 1, "rank_in_cluster": 23}

>  <energy>  (48) 
-6.78

>  <cluster_rmsd>  (48) 
1.32

>  <cluster>  (48) 
8

$$$$

     RDKit          3D

 52 55  0  0  0  0  0  0  0  0999 V2000
  138.5420   71.0710  221.3520 O   0  0  0  0  0  0  0  0  0  0  0  0
  138.9940   71.6260  222.3860 C   0  0  0  0  0  0  0  0  0  0  0  0
  139.1760   73.0370  222.3230 N   0  0  0  0  0  0  0  0  0  0  0  0
  138.8360   73.7140  221.1020 C   0  0  0  0  0  0  0  0  0  0  0  0
  139.7530   73.3610  219.9880 C   0  0  0  0  0  0  0  0  0  0  0  0
  139.5220   72.4430  219.1610 O   0  0  0  0  0  0  0  0  0  0  0  0
  140.9580   74.1020  219.8480 N   0  0  0  0  0  0  0  0  0  0  0  0
  141.9120   73.8500  218.7850 C   0  0  0  0  0  0  0  0  0  0  0  0
  143.1020   74.7380  219.0760 C   0  0  2  0  0  0  0  0  0  0  0  0
  144.3040   74.1050  218.7710 O   0  0  0  0  0  0  0  0  0  0  0  0
  142.9500   74.9990  220.5490 C   0  0  0  0  0  0  0  0  0  0  0  0
  141.4630   75.1860  220.6690 C   0  0  1  0  0  0  0  0  0  0  0  0
  140.9700   76.4780  220.0900 C   0  0  0  0  0  0  0  0  0  0  0  0
  141.2840   77.6520  220.9420 C   0  0  0  0  0  0  0  0  0  0  0  0
  141.7630   78.8460  220.4460 C   0  0  0  0  0  0  0  0  0  0  0  0
  142.0320   79.9010  221.3230 C   0  0  0  0  0  0  0  0  0  0  0  0
  141.8070   79.7150  222.6920 C   0  0  0  0  0  0  0  0  0  0  0  0
  142.1300   81.0090  223.8430 Cl  0  0  0  0  0  0  0  0  0  0  0  0
  141.3280   78.5200  223.1920 C   0  0  0  0  0  0  0  0  0  0  0  0
  141.0670   77.4900  222.3120 C   0  0  0  0  0  0  0  0  0  0  0  0
  139.3230   70.8860  223.6010 C   0  0  0  0  0  0  0  0  0  0  0  0
  138.9990   69.5280  223.6200 C   0  0  0  0  0  0  0  0  0  0  0  0
  139.2920   68.7890  224.7480 C   0  0  0  0  0  0  0  0  0  0  0  0
  139.8960   69.3910  225.8390 C   0  0  0  0  0  0  0  0  0  0  0  0
  140.1670   68.6050  226.9420 C   0  0  0  0  0  0  0  0  0  0  0  0
  140.7760   69.2270  228.0270 C   0  0  0  0  0  0  0  0  0  0  0  0
  141.0580   68.5000  229.1260 F   0  0  0  0  0  0  0  0  0  0  0  0
  141.0780   70.5730  227.9640 C   0  0  0  0  0  0  0  0  0  0  0  0
  140.8050   71.3550  226.8590 C   0  0  0  0  0  0  0  0  0  0  0  0
  140.2000   70.7350  225.7780 C   0  0  0  0  0  0  0  0  0  0  0  0
  139.9150   71.4780  224.6690 N   0  0  0  0  0  0  0  0  0  0  0  0
  139.5520   73.5020  223.1800 H   0  0  0  0  0  0  0  0  0  0  0  0
  137.8103   73.4366  220.8174 H   0  0  0  0  0  0  0  0  0  0  0  0
  138.9244   74.7957  221.2809 H   0  0  0  0  0  0  0  0  0  0  0  0
  142.2147   72.7925  218.7854 H   0  0  0  0  0  0  0  0  0  0  0  0
  141.4805   74.0645  217.7962 H   0  0  0  0  0  0  0  0  0  0  0  0
  143.1277   75.6581  218.4737 H   0  0  0  0  0  0  0  0  0  0  0  0
  144.9080   74.7310  218.2820 H   0  0  0  0  0  0  0  0  0  0  0  0
  143.2968   74.1430  221.1465 H   0  0  0  0  0  0  0  0  0  0  0  0
  143.5401   75.8515  220.9164 H   0  0  0  0  0  0  0  0  0  0  0  0
  141.1447   75.1961  221.7219 H   0  0  0  0  0  0  0  0  0  0  0  0
  141.4398   76.6232  219.1060 H   0  0  0  0  0  0  0  0  0  0  0  0
  139.8747   76.4087  220.0155 H   0  0  0  0  0  0  0  0  0  0  0  0
  141.9326   78.9678  219.3660 H   0  0  0  0  0  0  0  0  0  0  0  0
  142.4138   80.8604  220.9439 H   0  0  0  0  0  0  0  0  0  0  0  0
  141.1579   78.3919  224.2712 H   0  0  0  0  0  0  0  0  0  0  0  0
  140.6842   76.5318  222.6932 H   0  0  0  0  0  0  0  0  0  0  0  0
  138.5184   69.0553  222.7507 H   0  0  0  0  0  0  0  0  0  0  0  0
  139.0448   67.7176  224.7806 H   0  0  0  0  0  0  0  0  0  0  0  0
  139.9126   67.5350  226.9615 H   0  0  0  0  0  0  0  0  0  0  0  0
  141.5583   71.0441  228.8343 H   0  0  0  0  0  0  0  0  0  0  0  0
  141.0574   72.4255  226.8381 H   0  0  0  0  0  0  0  0  0  0  0  0
  1  2  2  0
  2  3  1  0
  3  4  1  0
  4  5  1  0
  5  6  2  0
  5  7  1  0
  7  8  1  0
  8  9  1  0
  9 10  1  0
  9 11  1  0
 11 12  1  0
 12 13  1  0
 13 14  1  0
 14 15  2  0
 15 16  1  0
 16 17  2  0
 17 18  1  0
 17 19  1  0
 19 20  2  0
  2 21  1  0
 21 22  2  0
 22 23  1  0
 23 24  2  0
 24 25  1  0
 25 26  2  0
 26 27  1  0
 26 28  1  0
 28 29  2  0
 29 30  1  0
 30 31  2  0
 12  7  1  0
 20 14  1  0
 31 21  1  0
 30 24  1  0
  3 32  1  0
  4 33  1  0
  4 34  1  0
  8 35  1  0
  8 36  1  0
  9 37  1  6
 10 38  1  0
 11 39  1  0
 11 40  1  0
 12 41  1  1
 13 42  1  0
 13 43  1  0
 15 44  1  0
 16 45  1  0
 19 46  1  0
 20 47  1  0
 22 48  1  0
 23 49  1  0
 25 50  1  0
 28 51  1  0
 29 52  1  0
M  END
>  <smiles>  (49) 
O=C(NCC(=O)N1C[C@H](O)C[C@H]1Cc1ccc(Cl)cc1)c1ccc2cc(F)ccc2n1

>  <score_type>  (49) 
oracle

>  <origin>  (49) 
autodockgpu

>  <m_score__min__energy>  (49) 
-9.0399999999999991

>  <m_primary>  (49) 
energy

>  <rmsd>  (49) 
2.023713318049753

>  <m_score__min__rmsd>  (49) 
2.023713318049753

>  <meeko>  (49) 
{"free_energy": -8.31, "intermolecular_energy": -10.39, "internal_energy": -1.52, "cluster_size": 23, "cluster_id": 1, "rank_in_cluster": 18}

>  <energy>  (49) 
-6.32

>  <cluster_rmsd>  (49) 
0.97

>  <cluster>  (49) 
8

$$$$

     RDKit          3D

 52 55  0  0  0  0  0  0  0  0999 V2000
  140.8260   71.7550  221.1740 O   0  0  0  0  0  0  0  0  0  0  0  0
  140.3550   72.2370  222.2360 C   0  0  0  0  0  0  0  0  0  0  0  0
  139.9670   73.6070  222.1950 N   0  0  0  0  0  0  0  0  0  0  0  0
  140.1390   74.3270  220.9640 C   0  0  0  0  0  0  0  0  0  0  0  0
  140.7850   75.6490  221.1690 C   0  0  0  0  0  0  0  0  0  0  0  0
  140.5500   76.3910  222.1560 O   0  0  0  0  0  0  0  0  0  0  0  0
  141.7180   76.1000  220.1970 N   0  0  0  0  0  0  0  0  0  0  0  0
  142.0580   77.5000  220.0300 C   0  0  0  0  0  0  0  0  0  0  0  0
  142.9590   77.5670  218.8160 C   0  0  2  0  0  0  0  0  0  0  0  0
  142.7060   78.7020  218.0490 O   0  0  0  0  0  0  0  0  0  0  0  0
  142.6110   76.2970  218.0930 C   0  0  0  0  0  0  0  0  0  0  0  0
  142.4780   75.3270  219.2330 C   0  0  1  0  0  0  0  0  0  0  0  0
  143.7880   74.9550  219.8620 C   0  0  0  0  0  0  0  0  0  0  0  0
  144.1520   73.5340  219.6440 C   0  0  0  0  0  0  0  0  0  0  0  0
  145.0000   73.1100  218.6430 C   0  0  0  0  0  0  0  0  0  0  0  0
  145.2890   71.7490  218.5110 C   0  0  0  0  0  0  0  0  0  0  0  0
  144.7030   70.8450  219.4050 C   0  0  0  0  0  0  0  0  0  0  0  0
  145.0300   69.1180  219.2850 Cl  0  0  0  0  0  0  0  0  0  0  0  0
  143.8530   71.2650  220.4080 C   0  0  0  0  0  0  0  0  0  0  0  0
  143.5800   72.6130  220.5250 C   0  0  0  0  0  0  0  0  0  0  0  0
  140.2030   71.4560  223.4600 C   0  0  0  0  0  0  0  0  0  0  0  0
  139.5300   70.2370  223.3520 C   0  0  0  0  0  0  0  0  0  0  0  0
  139.3630   69.4660  224.4840 C   0  0  0  0  0  0  0  0  0  0  0  0
  139.8570   69.9000  225.7030 C   0  0  0  0  0  0  0  0  0  0  0  0
  139.6630   69.0880  226.8030 C   0  0  0  0  0  0  0  0  0  0  0  0
  140.1660   69.5400  228.0190 C   0  0  0  0  0  0  0  0  0  0  0  0
  139.9990   68.7820  229.1200 F   0  0  0  0  0  0  0  0  0  0  0  0
  140.8250   70.7520  228.0780 C   0  0  0  0  0  0  0  0  0  0  0  0
  141.0180   71.5600  226.9750 C   0  0  0  0  0  0  0  0  0  0  0  0
  140.5160   71.1100  225.7660 C   0  0  0  0  0  0  0  0  0  0  0  0
  140.6870   71.8830  224.6540 N   0  0  0  0  0  0  0  0  0  0  0  0
  139.5750   74.0110  223.0750 H   0  0  0  0  0  0  0  0  0  0  0  0
  140.7669   73.7275  220.2885 H   0  0  0  0  0  0  0  0  0  0  0  0
  139.1415   74.5031  220.5352 H   0  0  0  0  0  0  0  0  0  0  0  0
  141.1491   78.0973  219.8652 H   0  0  0  0  0  0  0  0  0  0  0  0
  142.5552   77.9039  220.9242 H   0  0  0  0  0  0  0  0  0  0  0  0
  144.0288   77.6464  219.0596 H   0  0  0  0  0  0  0  0  0  0  0  0
  143.5080   78.9320  217.5010 H   0  0  0  0  0  0  0  0  0  0  0  0
  141.6662   76.3967  217.5385 H   0  0  0  0  0  0  0  0  0  0  0  0
  143.3490   75.9974  217.3343 H   0  0  0  0  0  0  0  0  0  0  0  0
  142.0313   74.3781  218.9013 H   0  0  0  0  0  0  0  0  0  0  0  0
  144.5766   75.5891  219.4308 H   0  0  0  0  0  0  0  0  0  0  0  0
  143.6872   75.1064  220.9469 H   0  0  0  0  0  0  0  0  0  0  0  0
  145.4470   73.8395  217.9516 H   0  0  0  0  0  0  0  0  0  0  0  0
  145.9648   71.3945  217.7188 H   0  0  0  0  0  0  0  0  0  0  0  0
  143.4018   70.5395  221.1008 H   0  0  0  0  0  0  0  0  0  0  0  0
  142.9057   72.9654  221.3194 H   0  0  0  0  0  0  0  0  0  0  0  0
  139.1398   69.8974  222.3812 H   0  0  0  0  0  0  0  0  0  0  0  0
  138.8355   68.5030  224.4181 H   0  0  0  0  0  0  0  0  0  0  0  0
  139.1344   68.1268  226.7215 H   0  0  0  0  0  0  0  0  0  0  0  0
  141.2146   71.0898  229.0496 H   0  0  0  0  0  0  0  0  0  0  0  0
  141.5482   72.5206  227.0537 H   0  0  0  0  0  0  0  0  0  0  0  0
  1  2  2  0
  2  3  1  0
  3  4  1  0
  4  5  1  0
  5  6  2  0
  5  7  1  0
  7  8  1  0
  8  9  1  0
  9 10  1  0
  9 11  1  0
 11 12  1  0
 12 13  1  0
 13 14  1  0
 14 15  2  0
 15 16  1  0
 16 17  2  0
 17 18  1  0
 17 19  1  0
 19 20  2  0
  2 21  1  0
 21 22  2  0
 22 23  1  0
 23 24  2  0
 24 25  1  0
 25 26  2  0
 26 27  1  0
 26 28  1  0
 28 29  2  0
 29 30  1  0
 30 31  2  0
 12  7  1  0
 20 14  1  0
 31 21  1  0
 30 24  1  0
  3 32  1  0
  4 33  1  0
  4 34  1  0
  8 35  1  0
  8 36  1  0
  9 37  1  1
 10 38  1  0
 11 39  1  0
 11 40  1  0
 12 41  1  6
 13 42  1  0
 13 43  1  0
 15 44  1  0
 16 45  1  0
 19 46  1  0
 20 47  1  0
 22 48  1  0
 23 49  1  0
 25 50  1  0
 28 51  1  0
 29 52  1  0
M  END
>  <smiles>  (50) 
O=C(NCC(=O)N1C[C@H](O)C[C@H]1Cc1ccc(Cl)cc1)c1ccc2cc(F)ccc2n1

>  <score_type>  (50) 
oracle

>  <origin>  (50) 
autodockgpu

>  <m_score__min__energy>  (50) 
-9.0399999999999991

>  <m_primary>  (50) 
energy

>  <rmsd>  (50) 
2.3017875995776134

>  <m_score__min__rmsd>  (50) 
2.3017875995776134

>  <meeko>  (50) 
{"free_energy": -8.37, "intermolecular_energy": -10.46, "internal_energy": -1.79, "cluster_size": 12, "cluster_id": 2, "rank_in_cluster": 5}

>  <energy>  (50) 
-6.16

>  <cluster_rmsd>  (50) 
1.71

>  <cluster>  (50) 
8

$$$$
