
     RDKit          3D

 46 49  0  0  0  0  0  0  0  0999 V2000
  138.5270   75.6600  221.6880 O   0  0  0  0  0  0  0  0  0  0  0  0
  139.7340   75.9710  221.9630 C   0  0  0  0  0  0  0  0  0  0  0  0
  140.7850   75.0030  221.8170 N   0  0  0  0  0  0  0  0  0  0  0  0
  140.5620   73.6650  221.3550 C   0  0  0  0  0  0  0  0  0  0  0  0
  141.4220   73.1210  220.3190 C   0  0  0  0  0  0  0  0  0  0  0  0
  140.8210   72.2910  219.5090 O   0  0  0  0  0  0  0  0  0  0  0  0
  142.8010   73.3600  220.0790 N   0  0  0  0  0  0  0  0  0  0  0  0
  143.8080   72.5210  219.4590 C   0  0  0  0  0  0  0  0  0  0  0  0
  144.7990   73.5790  218.9160 C   0  0  2  0  0  0  0  0  0  0  0  0
  146.0060   73.0190  218.5800 O   0  0  0  0  0  0  0  0  0  0  0  0
  144.8590   74.4670  220.1410 C   0  0  0  0  0  0  0  0  0  0  0  0
  143.4140   74.6400  220.4860 C   0  0  1  0  0  0  0  0  0  0  0  0
  142.8000   75.7360  219.6770 C   0  0  0  0  0  0  0  0  0  0  0  0
  142.3750   75.6530  218.4080 N   0  0  0  0  0  0  0  0  0  0  0  0
  141.8830   76.8370  218.0160 C   0  0  0  0  0  0  0  0  0  0  0  0
  142.0140   77.6920  219.1050 C   0  0  0  0  0  0  0  0  0  0  0  0
  142.5780   76.9930  220.1070 N   0  0  0  0  0  0  0  0  0  0  0  0
  140.0460   77.3370  222.4360 C   0  0  0  0  0  0  0  0  0  0  0  0
  139.0050   78.1760  222.7670 C   0  0  0  0  0  0  0  0  0  0  0  0
  139.2830   79.4650  223.2140 C   0  0  0  0  0  0  0  0  0  0  0  0
  140.6040   79.9120  223.3280 C   0  0  0  0  0  0  0  0  0  0  0  0
  140.9100   81.1830  223.7660 C   0  0  0  0  0  0  0  0  0  0  0  0
  142.2240   81.5850  223.8640 C   0  0  0  0  0  0  0  0  0  0  0  0
  143.2090   80.6850  223.5130 C   0  0  0  0  0  0  0  0  0  0  0  0
  142.9380   79.4050  223.0690 C   0  0  0  0  0  0  0  0  0  0  0  0
  141.6120   79.0210  222.9780 C   0  0  0  0  0  0  0  0  0  0  0  0
  141.3200   77.7700  222.5460 N   0  0  0  0  0  0  0  0  0  0  0  0
  141.7470   75.3720  222.0830 H   0  0  0  0  0  0  0  0  0  0  0  0
  140.6538   73.0036  222.2291 H   0  0  0  0  0  0  0  0  0  0  0  0
  139.5735   73.7151  220.8750 H   0  0  0  0  0  0  0  0  0  0  0  0
  144.2891   71.8601  220.1950 H   0  0  0  0  0  0  0  0  0  0  0  0
  143.4134   71.8399  218.6907 H   0  0  0  0  0  0  0  0  0  0  0  0
  144.5153   74.0926  217.9856 H   0  0  0  0  0  0  0  0  0  0  0  0
  146.6470   73.7510  218.4720 H   0  0  0  0  0  0  0  0  0  0  0  0
  145.4075   73.9784  220.9598 H   0  0  0  0  0  0  0  0  0  0  0  0
  145.3856   75.4172  219.9686 H   0  0  0  0  0  0  0  0  0  0  0  0
  143.2722   74.8923  221.5472 H   0  0  0  0  0  0  0  0  0  0  0  0
  141.4604   77.0828  217.0306 H   0  0  0  0  0  0  0  0  0  0  0  0
  141.7112   78.7489  219.1408 H   0  0  0  0  0  0  0  0  0  0  0  0
  142.7960   77.3860  221.0500 H   0  0  0  0  0  0  0  0  0  0  0  0
  137.9642   77.8311  222.6790 H   0  0  0  0  0  0  0  0  0  0  0  0
  138.4555   80.1390  223.4803 H   0  0  0  0  0  0  0  0  0  0  0  0
  140.1023   81.8783  224.0381 H   0  0  0  0  0  0  0  0  0  0  0  0
  142.4809   82.5962  224.2126 H   0  0  0  0  0  0  0  0  0  0  0  0
  144.2597   81.0014  223.5903 H   0  0  0  0  0  0  0  0  0  0  0  0
  143.7496   78.7142  222.7969 H   0  0  0  0  0  0  0  0  0  0  0  0
  1  2  2  0
  2  3  1  0
  3  4  1  0
  4  5  1  0
  5  6  2  0
  5  7  1  0
  7  8  1  0
  8  9  1  0
  9 10  1  0
  9 11  1  0
 11 12  1  0
 12 13  1  0
 13 14  2  0
 14 15  1  0
 15 16  2  0
 16 17  1  0
  2 18  1  0
 18 19  2  0
 19 20  1  0
 20 21  2  0
 21 22  1  0
 22 23  2  0
 23 24  1  0
 24 25  2  0
 25 26  1  0
 26 27  2  0
 12  7  1  0
 17 13  1  0
 27 18  1  0
 26 21  1  0
  3 28  1  0
  4 29  1  0
  4 30  1  0
  8 31  1  0
  8 32  1  0
  9 33  1  6
 10 34  1  0
 11 35  1  0
 11 36  1  0
 12 37  1  1
 15 38  1  0
 16 39  1  0
 17 40  1  0
 19 41  1  0
 20 42  1  0
 22 43  1  0
 23 44  1  0
 24 45  1  0
 25 46  1  0
M  END
>  <smiles>  (1) 
O=C(NCC(=O)N1C[C@H](O)C[C@H]1c1ncc[nH]1)c1ccc2ccccc2n1

>  <score_type>  (1) 
oracle

>  <origin>  (1) 
autodockgpu

>  <m_score__min__energy>  (1) 
-8.2100000000000009

>  <m_primary>  (1) 
energy

>  <rmsd>  (1) 
7.294783748565821

>  <m_score__min__rmsd>  (1) 
7.294783748565821

>  <meeko>  (1) 
{"free_energy": -7.42, "intermolecular_energy": -9.21, "internal_energy": -2.73, "cluster_size": 33, "cluster_id": 3, "rank_in_cluster": 16}

>  <energy>  (1) 
-8.21

>  <cluster_rmsd>  (1) 
0.0

>  <cluster>  (1) 
1

$$$$

     RDKit          3D

 46 49  0  0  0  0  0  0  0  0999 V2000
  140.9050   71.5500  221.3120 O   0  0  0  0  0  0  0  0  0  0  0  0
  140.3880   72.1330  222.3230 C   0  0  0  0  0  0  0  0  0  0  0  0
  139.9550   73.5000  222.2300 N   0  0  0  0  0  0  0  0  0  0  0  0
  140.0600   74.2770  221.0310 C   0  0  0  0  0  0  0  0  0  0  0  0
  141.0160   75.3700  220.9780 C   0  0  0  0  0  0  0  0  0  0  0  0
  141.4020   75.7980  222.1490 O   0  0  0  0  0  0  0  0  0  0  0  0
  141.5700   76.0240  219.8460 N   0  0  0  0  0  0  0  0  0  0  0  0
  141.6130   77.4310  219.4990 C   0  0  0  0  0  0  0  0  0  0  0  0
  142.8750   77.4900  218.6060 C   0  0  2  0  0  0  0  0  0  0  0  0
  142.9320   78.6560  217.8840 O   0  0  0  0  0  0  0  0  0  0  0  0
  142.6000   76.2640  217.7610 C   0  0  0  0  0  0  0  0  0  0  0  0
  142.2380   75.2390  218.7880 C   0  0  1  0  0  0  0  0  0  0  0  0
  143.4620   74.6090  219.3690 C   0  0  0  0  0  0  0  0  0  0  0  0
  144.3760   73.8810  218.7100 N   0  0  0  0  0  0  0  0  0  0  0  0
  145.3340   73.4800  219.5600 C   0  0  0  0  0  0  0  0  0  0  0  0
  144.9850   73.9900  220.8060 C   0  0  0  0  0  0  0  0  0  0  0  0
  143.8370   74.6750  220.6600 N   0  0  0  0  0  0  0  0  0  0  0  0
  140.2350   71.3920  223.5940 C   0  0  0  0  0  0  0  0  0  0  0  0
  139.6160   70.1630  223.5720 C   0  0  0  0  0  0  0  0  0  0  0  0
  139.4650   69.4540  224.7610 C   0  0  0  0  0  0  0  0  0  0  0  0
  139.9360   69.9780  225.9690 C   0  0  0  0  0  0  0  0  0  0  0  0
  139.8010   69.3000  227.1620 C   0  0  0  0  0  0  0  0  0  0  0  0
  140.2780   69.8500  228.3310 C   0  0  0  0  0  0  0  0  0  0  0  0
  140.8870   71.0860  228.2690 C   0  0  0  0  0  0  0  0  0  0  0  0
  141.0390   71.7940  227.0910 C   0  0  0  0  0  0  0  0  0  0  0  0
  140.5520   71.2230  225.9290 C   0  0  0  0  0  0  0  0  0  0  0  0
  140.6890   71.8970  224.7610 N   0  0  0  0  0  0  0  0  0  0  0  0
  139.5480   73.8820  223.1360 H   0  0  0  0  0  0  0  0  0  0  0  0
  140.3205   73.5821  220.2191 H   0  0  0  0  0  0  0  0  0  0  0  0
  139.0837   74.7784  220.9569 H   0  0  0  0  0  0  0  0  0  0  0  0
  140.7135   77.7357  218.9440 H   0  0  0  0  0  0  0  0  0  0  0  0
  141.6457   78.1062  220.3668 H   0  0  0  0  0  0  0  0  0  0  0  0
  143.8468   77.4883  219.1214 H   0  0  0  0  0  0  0  0  0  0  0  0
  143.7330   78.6130  217.3230 H   0  0  0  0  0  0  0  0  0  0  0  0
  141.7674   76.4400  217.0640 H   0  0  0  0  0  0  0  0  0  0  0  0
  143.4487   75.9689  217.1264 H   0  0  0  0  0  0  0  0  0  0  0  0
  141.6209   74.4331  218.3640 H   0  0  0  0  0  0  0  0  0  0  0  0
  146.2176   72.8705  219.3196 H   0  0  0  0  0  0  0  0  0  0  0  0
  145.5468   73.8570  221.7423 H   0  0  0  0  0  0  0  0  0  0  0  0
  143.3410   75.1680  221.4370 H   0  0  0  0  0  0  0  0  0  0  0  0
  139.2443   69.7450  222.6248 H   0  0  0  0  0  0  0  0  0  0  0  0
  138.9701   68.4717  224.7499 H   0  0  0  0  0  0  0  0  0  0  0  0
  139.3102   68.3157  227.1801 H   0  0  0  0  0  0  0  0  0  0  0  0
  140.1761   69.3179  229.2883 H   0  0  0  0  0  0  0  0  0  0  0  0
  141.2696   71.5292  229.2002 H   0  0  0  0  0  0  0  0  0  0  0  0
  141.5306   72.7780  227.0784 H   0  0  0  0  0  0  0  0  0  0  0  0
  1  2  2  0
  2  3  1  0
  3  4  1  0
  4  5  1  0
  5  6  2  0
  5  7  1  0
  7  8  1  0
  8  9  1  0
  9 10  1  0
  9 11  1  0
 11 12  1  0
 12 13  1  0
 13 14  2  0
 14 15  1  0
 15 16  2  0
 16 17  1  0
  2 18  1  0
 18 19  2  0
 19 20  1  0
 20 21  2  0
 21 22  1  0
 22 23  2  0
 23 24  1  0
 24 25  2  0
 25 26  1  0
 26 27  2  0
 12  7  1  0
 17 13  1  0
 27 18  1  0
 26 21  1  0
  3 28  1  0
  4 29  1  0
  4 30  1  0
  8 31  1  0
  8 32  1  0
  9 33  1  1
 10 34  1  0
 11 35  1  0
 11 36  1  0
 12 37  1  6
 15 38  1  0
 16 39  1  0
 17 40  1  0
 19 41  1  0
 20 42  1  0
 22 43  1  0
 23 44  1  0
 24 45  1  0
 25 46  1  0
M  END
>  <smiles>  (2) 
O=C(NCC(=O)N1C[C@H](O)C[C@H]1c1ncc[nH]1)c1ccc2ccccc2n1

>  <score_type>  (2) 
oracle

>  <origin>  (2) 
autodockgpu

>  <m_score__min__energy>  (2) 
-8.2100000000000009

>  <m_primary>  (2) 
energy

>  <rmsd>  (2) 
3.328779240821188

>  <m_score__min__rmsd>  (2) 
3.328779240821188

>  <meeko>  (2) 
{"free_energy": -7.92, "intermolecular_energy": -9.71, "internal_energy": -2.07, "cluster_size": 9, "cluster_id": 2, "rank_in_cluster": 1}

>  <energy>  (2) 
-8.15

>  <cluster_rmsd>  (2) 
1.37

>  <cluster>  (2) 
1

$$$$

     RDKit          3D

 46 49  0  0  0  0  0  0  0  0999 V2000
  140.3790   73.4850  222.3630 O   0  0  0  0  0  0  0  0  0  0  0  0
  140.2700   72.2150  222.3060 C   0  0  0  0  0  0  0  0  0  0  0  0
  140.2480   71.5440  221.0360 N   0  0  0  0  0  0  0  0  0  0  0  0
  140.3560   72.2310  219.7840 C   0  0  0  0  0  0  0  0  0  0  0  0
  141.6400   72.2710  219.1060 C   0  0  0  0  0  0  0  0  0  0  0  0
  141.5780   71.9970  217.8310 O   0  0  0  0  0  0  0  0  0  0  0  0
  142.9270   72.5550  219.6350 N   0  0  0  0  0  0  0  0  0  0  0  0
  144.1460   71.7700  219.6170 C   0  0  0  0  0  0  0  0  0  0  0  0
  145.2250   72.8760  219.7060 C   0  0  2  0  0  0  0  0  0  0  0  0
  146.4530   72.3610  220.0420 O   0  0  0  0  0  0  0  0  0  0  0  0
  144.5920   73.7080  220.8020 C   0  0  0  0  0  0  0  0  0  0  0  0
  143.1760   73.8290  220.3370 C   0  0  1  0  0  0  0  0  0  0  0  0
  143.0300   74.9460  219.3550 C   0  0  0  0  0  0  0  0  0  0  0  0
  143.1680   76.2560  219.6070 N   0  0  0  0  0  0  0  0  0  0  0  0
  142.9630   76.9580  218.4830 C   0  0  0  0  0  0  0  0  0  0  0  0
  142.6830   76.0260  217.4890 C   0  0  0  0  0  0  0  0  0  0  0  0
  142.7300   74.8040  218.0510 N   0  0  0  0  0  0  0  0  0  0  0  0
  140.1640   71.4350  223.5580 C   0  0  0  0  0  0  0  0  0  0  0  0
  139.5520   70.2020  223.5190 C   0  0  0  0  0  0  0  0  0  0  0  0
  139.4450   69.4560  224.6900 C   0  0  0  0  0  0  0  0  0  0  0  0
  139.9530   69.9460  225.8980 C   0  0  0  0  0  0  0  0  0  0  0  0
  139.8610   69.2310  227.0730 C   0  0  0  0  0  0  0  0  0  0  0  0
  140.3730   69.7490  228.2420 C   0  0  0  0  0  0  0  0  0  0  0  0
  140.9720   70.9910  228.1980 C   0  0  0  0  0  0  0  0  0  0  0  0
  141.0800   71.7350  227.0380 C   0  0  0  0  0  0  0  0  0  0  0  0
  140.5590   71.1960  225.8750 C   0  0  0  0  0  0  0  0  0  0  0  0
  140.6530   71.9060  224.7250 N   0  0  0  0  0  0  0  0  0  0  0  0
  140.1450   70.4880  221.1120 H   0  0  0  0  0  0  0  0  0  0  0  0
  139.6430   71.7559  219.0942 H   0  0  0  0  0  0  0  0  0  0  0  0
  140.1653   73.2824  220.0453 H   0  0  0  0  0  0  0  0  0  0  0  0
  144.1976   71.0878  220.4783 H   0  0  0  0  0  0  0  0  0  0  0  0
  144.2455   71.1153  218.7387 H   0  0  0  0  0  0  0  0  0  0  0  0
  145.4497   73.4254  218.7799 H   0  0  0  0  0  0  0  0  0  0  0  0
  146.3310   71.8190  220.8480 H   0  0  0  0  0  0  0  0  0  0  0  0
  144.6492   73.1957  221.7737 H   0  0  0  0  0  0  0  0  0  0  0  0
  145.0872   74.6776  220.9589 H   0  0  0  0  0  0  0  0  0  0  0  0
  142.4860   74.0285  221.1702 H   0  0  0  0  0  0  0  0  0  0  0  0
  143.0073   78.0513  218.3698 H   0  0  0  0  0  0  0  0  0  0  0  0
  142.4629   76.2477  216.4343 H   0  0  0  0  0  0  0  0  0  0  0  0
  142.5590   73.9110  217.5360 H   0  0  0  0  0  0  0  0  0  0  0  0
  139.1516   69.8103  222.5723 H   0  0  0  0  0  0  0  0  0  0  0  0
  138.9559   68.4710  224.6650 H   0  0  0  0  0  0  0  0  0  0  0  0
  139.3769   68.2432  227.0770 H   0  0  0  0  0  0  0  0  0  0  0  0
  140.3061   69.1874  229.1855 H   0  0  0  0  0  0  0  0  0  0  0  0
  141.3827   71.4086  229.1291 H   0  0  0  0  0  0  0  0  0  0  0  0
  141.5641   72.7228  227.0394 H   0  0  0  0  0  0  0  0  0  0  0  0
  1  2  2  0
  2  3  1  0
  3  4  1  0
  4  5  1  0
  5  6  2  0
  5  7  1  0
  7  8  1  0
  8  9  1  0
  9 10  1  0
  9 11  1  0
 11 12  1  0
 12 13  1  0
 13 14  2  0
 14 15  1  0
 15 16  2  0
 16 17  1  0
  2 18  1  0
 18 19  2  0
 19 20  1  0
 20 21  2  0
 21 22  1  0
 22 23  2  0
 23 24  1  0
 24 25  2  0
 25 26  1  0
 26 27  2  0
 12  7  1  0
 17 13  1  0
 27 18  1  0
 26 21  1  0
  3 28  1  0
  4 29  1  0
  4 30  1  0
  8 31  1  0
  8 32  1  0
  9 33  1  6
 10 34  1  0
 11 35  1  0
 11 36  1  0
 12 37  1  1
 15 38  1  0
 16 39  1  0
 17 40  1  0
 19 41  1  0
 20 42  1  0
 22 43  1  0
 23 44  1  0
 24 45  1  0
 25 46  1  0
M  END
>  <smiles>  (3) 
O=C(NCC(=O)N1C[C@H](O)C[C@H]1c1ncc[nH]1)c1ccc2ccccc2n1

>  <score_type>  (3) 
oracle

>  <origin>  (3) 
autodockgpu

>  <m_score__min__energy>  (3) 
-8.2100000000000009

>  <m_primary>  (3) 
energy

>  <rmsd>  (3) 
4.053919960927377

>  <m_score__min__rmsd>  (3) 
4.053919960927377

>  <meeko>  (3) 
{"free_energy": -7.5, "intermolecular_energy": -9.29, "internal_energy": -1.99, "cluster_size": 7, "cluster_id": 1, "rank_in_cluster": 5}

>  <energy>  (3) 
-7.88

>  <cluster_rmsd>  (3) 
1.59

>  <cluster>  (3) 
1

$$$$

     RDKit          3D

 46 49  0  0  0  0  0  0  0  0999 V2000
  139.5990   74.2590  222.3700 O   0  0  0  0  0  0  0  0  0  0  0  0
  139.9970   75.1870  221.5890 C   0  0  0  0  0  0  0  0  0  0  0  0
  140.3670   74.8850  220.2340 N   0  0  0  0  0  0  0  0  0  0  0  0
  140.3070   73.5670  219.6780 C   0  0  0  0  0  0  0  0  0  0  0  0
  141.5230   72.9580  219.1670 C   0  0  0  0  0  0  0  0  0  0  0  0
  141.3400   72.2040  218.1170 O   0  0  0  0  0  0  0  0  0  0  0  0
  142.8530   73.0650  219.6520 N   0  0  0  0  0  0  0  0  0  0  0  0
  143.9760   72.1550  219.5290 C   0  0  0  0  0  0  0  0  0  0  0  0
  145.1740   73.1290  219.6340 C   0  0  2  0  0  0  0  0  0  0  0  0
  146.3490   72.4640  219.8800 O   0  0  0  0  0  0  0  0  0  0  0  0
  144.6820   73.9520  220.8060 C   0  0  0  0  0  0  0  0  0  0  0  0
  143.2710   74.2570  220.4170 C   0  0  1  0  0  0  0  0  0  0  0  0
  143.2110   75.4440  219.5120 C   0  0  0  0  0  0  0  0  0  0  0  0
  143.4270   75.4530  218.1880 N   0  0  0  0  0  0  0  0  0  0  0  0
  143.2860   76.7000  217.7140 C   0  0  0  0  0  0  0  0  0  0  0  0
  142.9680   77.4970  218.8090 C   0  0  0  0  0  0  0  0  0  0  0  0
  142.9290   76.7030  219.8940 N   0  0  0  0  0  0  0  0  0  0  0  0
  140.0760   76.5770  222.0880 C   0  0  0  0  0  0  0  0  0  0  0  0
  138.9150   77.2060  222.4790 C   0  0  0  0  0  0  0  0  0  0  0  0
  138.9750   78.5150  222.9500 C   0  0  0  0  0  0  0  0  0  0  0  0
  140.1970   79.1910  223.0290 C   0  0  0  0  0  0  0  0  0  0  0  0
  140.2870   80.4870  223.4900 C   0  0  0  0  0  0  0  0  0  0  0  0
  141.5090   81.1180  223.5520 C   0  0  0  0  0  0  0  0  0  0  0  0
  142.6250   80.4200  223.1420 C   0  0  0  0  0  0  0  0  0  0  0  0
  142.5720   79.1210  222.6730 C   0  0  0  0  0  0  0  0  0  0  0  0
  141.3340   78.5050  222.6190 C   0  0  0  0  0  0  0  0  0  0  0  0
  141.2550   77.2310  222.1640 N   0  0  0  0  0  0  0  0  0  0  0  0
  140.6910   75.7350  219.6800 H   0  0  0  0  0  0  0  0  0  0  0  0
  139.9213   72.9030  220.4656 H   0  0  0  0  0  0  0  0  0  0  0  0
  139.6789   73.6886  218.7832 H   0  0  0  0  0  0  0  0  0  0  0  0
  143.9859   71.4163  220.3440 H   0  0  0  0  0  0  0  0  0  0  0  0
  143.9667   71.5524  218.6088 H   0  0  0  0  0  0  0  0  0  0  0  0
  145.4211   73.7095  218.7330 H   0  0  0  0  0  0  0  0  0  0  0  0
  146.1860   71.8510  220.6260 H   0  0  0  0  0  0  0  0  0  0  0  0
  144.7206   73.3745  221.7414 H   0  0  0  0  0  0  0  0  0  0  0  0
  145.2883   74.8498  220.9968 H   0  0  0  0  0  0  0  0  0  0  0  0
  142.6421   74.4765  221.2924 H   0  0  0  0  0  0  0  0  0  0  0  0
  143.3991   77.0266  216.6697 H   0  0  0  0  0  0  0  0  0  0  0  0
  142.7820   78.5810  218.7908 H   0  0  0  0  0  0  0  0  0  0  0  0
  142.7130   77.0370  220.8610 H   0  0  0  0  0  0  0  0  0  0  0  0
  137.9507   76.6801  222.4199 H   0  0  0  0  0  0  0  0  0  0  0  0
  138.0511   79.0231  223.2634 H   0  0  0  0  0  0  0  0  0  0  0  0
  139.3788   81.0191  223.8096 H   0  0  0  0  0  0  0  0  0  0  0  0
  141.5928   82.1516  223.9189 H   0  0  0  0  0  0  0  0  0  0  0  0
  143.6034   80.9204  223.1904 H   0  0  0  0  0  0  0  0  0  0  0  0
  143.4834   78.5944  222.3534 H   0  0  0  0  0  0  0  0  0  0  0  0
  1  2  2  0
  2  3  1  0
  3  4  1  0
  4  5  1  0
  5  6  2  0
  5  7  1  0
  7  8  1  0
  8  9  1  0
  9 10  1  0
  9 11  1  0
 11 12  1  0
 12 13  1  0
 13 14  2  0
 14 15  1  0
 15 16  2  0
 16 17  1  0
  2 18  1  0
 18 19  2  0
 19 20  1  0
 20 21  2  0
 21 22  1  0
 22 23  2  0
 23 24  1  0
 24 25  2  0
 25 26  1  0
 26 27  2  0
 12  7  1  0
 17 13  1  0
 27 18  1  0
 26 21  1  0
  3 28  1  0
  4 29  1  0
  4 30  1  0
  8 31  1  0
  8 32  1  0
  9 33  1  6
 10 34  1  0
 11 35  1  0
 11 36  1  0
 12 37  1  1
 15 38  1  0
 16 39  1  0
 17 40  1  0
 19 41  1  0
 20 42  1  0
 22 43  1  0
 23 44  1  0
 24 45  1  0
 25 46  1  0
M  END
>  <smiles>  (4) 
O=C(NCC(=O)N1C[C@H](O)C[C@H]1c1ncc[nH]1)c1ccc2ccccc2n1

>  <score_type>  (4) 
oracle

>  <origin>  (4) 
autodockgpu

>  <m_score__min__energy>  (4) 
-8.2100000000000009

>  <m_primary>  (4) 
energy

>  <rmsd>  (4) 
7.144028115073892

>  <m_score__min__rmsd>  (4) 
7.144028115073892

>  <meeko>  (4) 
{"free_energy": -7.37, "intermolecular_energy": -9.16, "internal_energy": -2.57, "cluster_size": 33, "cluster_id": 3, "rank_in_cluster": 19}

>  <energy>  (4) 
-7.67

>  <cluster_rmsd>  (4) 
1.47

>  <cluster>  (4) 
1

$$$$

     RDKit          3D

 46 49  0  0  0  0  0  0  0  0999 V2000
  140.0570   73.4550  222.4190 O   0  0  0  0  0  0  0  0  0  0  0  0
  140.2400   72.1930  222.3860 C   0  0  0  0  0  0  0  0  0  0  0  0
  140.5220   71.5320  221.1410 N   0  0  0  0  0  0  0  0  0  0  0  0
  140.6240   72.2240  219.8910 C   0  0  0  0  0  0  0  0  0  0  0  0
  141.8760   72.1730  219.1550 C   0  0  0  0  0  0  0  0  0  0  0  0
  141.7650   71.6810  217.9500 O   0  0  0  0  0  0  0  0  0  0  0  0
  143.1750   72.5730  219.5640 N   0  0  0  0  0  0  0  0  0  0  0  0
  144.4740   72.2840  218.9870 C   0  0  0  0  0  0  0  0  0  0  0  0
  145.2970   73.5100  219.4520 C   0  0  2  0  0  0  0  0  0  0  0  0
  146.6460   73.2980  219.3110 O   0  0  0  0  0  0  0  0  0  0  0  0
  144.8330   73.5480  220.8930 C   0  0  0  0  0  0  0  0  0  0  0  0
  143.3490   73.4240  220.7570 C   0  0  1  0  0  0  0  0  0  0  0  0
  142.7250   74.7550  220.4840 C   0  0  0  0  0  0  0  0  0  0  0  0
  143.2200   75.7240  219.7000 N   0  0  0  0  0  0  0  0  0  0  0  0
  142.3840   76.7740  219.6970 C   0  0  0  0  0  0  0  0  0  0  0  0
  141.3210   76.4270  220.5230 C   0  0  0  0  0  0  0  0  0  0  0  0
  141.5560   75.1870  220.9910 N   0  0  0  0  0  0  0  0  0  0  0  0
  140.1600   71.4110  223.6380 C   0  0  0  0  0  0  0  0  0  0  0  0
  139.5760   70.1640  223.6030 C   0  0  0  0  0  0  0  0  0  0  0  0
  139.4940   69.4160  224.7750 C   0  0  0  0  0  0  0  0  0  0  0  0
  139.9970   69.9190  225.9800 C   0  0  0  0  0  0  0  0  0  0  0  0
  139.9290   69.2020  227.1560 C   0  0  0  0  0  0  0  0  0  0  0  0
  140.4360   69.7320  228.3210 C   0  0  0  0  0  0  0  0  0  0  0  0
  141.0060   70.9870  228.2730 C   0  0  0  0  0  0  0  0  0  0  0  0
  141.0900   71.7330  227.1130 C   0  0  0  0  0  0  0  0  0  0  0  0
  140.5740   71.1820  225.9530 C   0  0  0  0  0  0  0  0  0  0  0  0
  140.6450   71.8940  224.8020 N   0  0  0  0  0  0  0  0  0  0  0  0
  140.6470   70.4790  221.2340 H   0  0  0  0  0  0  0  0  0  0  0  0
  139.8458   71.8130  219.2311 H   0  0  0  0  0  0  0  0  0  0  0  0
  140.5255   73.2838  220.1687 H   0  0  0  0  0  0  0  0  0  0  0  0
  144.8905   71.3464  219.3838 H   0  0  0  0  0  0  0  0  0  0  0  0
  144.4589   72.1410  217.8964 H   0  0  0  0  0  0  0  0  0  0  0  0
  145.1499   74.4467  218.8943 H   0  0  0  0  0  0  0  0  0  0  0  0
  147.0670   74.1730  219.1910 H   0  0  0  0  0  0  0  0  0  0  0  0
  145.2513   72.7086  221.4678 H   0  0  0  0  0  0  0  0  0  0  0  0
  145.1504   74.4524  221.4328 H   0  0  0  0  0  0  0  0  0  0  0  0
  142.8854   73.0219  221.6699 H   0  0  0  0  0  0  0  0  0  0  0  0
  142.5139   77.7197  219.1504 H   0  0  0  0  0  0  0  0  0  0  0  0
  140.4459   77.0527  220.7526 H   0  0  0  0  0  0  0  0  0  0  0  0
  140.9190   74.6720  221.6390 H   0  0  0  0  0  0  0  0  0  0  0  0
  139.1784   69.7630  222.6590 H   0  0  0  0  0  0  0  0  0  0  0  0
  139.0290   68.4194  224.7531 H   0  0  0  0  0  0  0  0  0  0  0  0
  139.4681   68.2032  227.1632 H   0  0  0  0  0  0  0  0  0  0  0  0
  140.3878   69.1695  229.2651 H   0  0  0  0  0  0  0  0  0  0  0  0
  141.4127   71.4140  229.2016 H   0  0  0  0  0  0  0  0  0  0  0  0
  141.5516   72.7315  227.1115 H   0  0  0  0  0  0  0  0  0  0  0  0
  1  2  2  0
  2  3  1  0
  3  4  1  0
  4  5  1  0
  5  6  2  0
  5  7  1  0
  7  8  1  0
  8  9  1  0
  9 10  1  0
  9 11  1  0
 11 12  1  0
 12 13  1  0
 13 14  2  0
 14 15  1  0
 15 16  2  0
 16 17  1  0
  2 18  1  0
 18 19  2  0
 19 20  1  0
 20 21  2  0
 21 22  1  0
 22 23  2  0
 23 24  1  0
 24 25  2  0
 25 26  1  0
 26 27  2  0
 12  7  1  0
 17 13  1  0
 27 18  1  0
 26 21  1  0
  3 28  1  0
  4 29  1  0
  4 30  1  0
  8 31  1  0
  8 32  1  0
  9 33  1  6
 10 34  1  0
 11 35  1  0
 11 36  1  0
 12 37  1  1
 15 38  1  0
 16 39  1  0
 17 40  1  0
 19 41  1  0
 20 42  1  0
 22 43  1  0
 23 44  1  0
 24 45  1  0
 25 46  1  0
M  END
>  <smiles>  (5) 
O=C(NCC(=O)N1C[C@H](O)C[C@H]1c1ncc[nH]1)c1ccc2ccccc2n1

>  <score_type>  (5) 
oracle

>  <origin>  (5) 
autodockgpu

>  <m_score__min__energy>  (5) 
-8.2100000000000009

>  <m_primary>  (5) 
energy

>  <rmsd>  (5) 
3.753489710595768

>  <m_score__min__rmsd>  (5) 
3.753489710595768

>  <meeko>  (5) 
{"free_energy": -7.88, "intermolecular_energy": -9.67, "internal_energy": -2.08, "cluster_size": 7, "cluster_id": 1, "rank_in_cluster": 3}

>  <energy>  (5) 
-7.5

>  <cluster_rmsd>  (5) 
1.53

>  <cluster>  (5) 
1

$$$$

     RDKit          3D

 46 49  0  0  0  0  0  0  0  0999 V2000
  138.7080   75.6030  221.7540 O   0  0  0  0  0  0  0  0  0  0  0  0
  139.8990   75.9600  222.0410 C   0  0  0  0  0  0  0  0  0  0  0  0
  140.9830   75.0230  221.9340 N   0  0  0  0  0  0  0  0  0  0  0  0
  140.8110   73.6690  221.5020 C   0  0  0  0  0  0  0  0  0  0  0  0
  141.5050   73.2120  220.3100 C   0  0  0  0  0  0  0  0  0  0  0  0
  140.7120   72.8150  219.3510 O   0  0  0  0  0  0  0  0  0  0  0  0
  142.9000   73.1350  220.0570 N   0  0  0  0  0  0  0  0  0  0  0  0
  143.6890   72.0860  219.4400 C   0  0  0  0  0  0  0  0  0  0  0  0
  144.8840   72.8910  218.8760 C   0  0  2  0  0  0  0  0  0  0  0  0
  145.9330   72.0720  218.5390 O   0  0  0  0  0  0  0  0  0  0  0  0
  145.1530   73.7570  220.0900 C   0  0  0  0  0  0  0  0  0  0  0  0
  143.7870   74.2510  220.4420 C   0  0  1  0  0  0  0  0  0  0  0  0
  143.4240   75.4480  219.6240 C   0  0  0  0  0  0  0  0  0  0  0  0
  143.6370   75.6130  218.3100 N   0  0  0  0  0  0  0  0  0  0  0  0
  143.1780   76.8130  217.9250 C   0  0  0  0  0  0  0  0  0  0  0  0
  142.6570   77.4150  219.0650 C   0  0  0  0  0  0  0  0  0  0  0  0
  142.8210   76.5580  220.0900 N   0  0  0  0  0  0  0  0  0  0  0  0
  140.1580   77.3470  222.4850 C   0  0  0  0  0  0  0  0  0  0  0  0
  139.0860   78.1590  222.7770 C   0  0  0  0  0  0  0  0  0  0  0  0
  139.3150   79.4670  223.1960 C   0  0  0  0  0  0  0  0  0  0  0  0
  140.6190   79.9580  223.3220 C   0  0  0  0  0  0  0  0  0  0  0  0
  140.8770   81.2480  223.7340 C   0  0  0  0  0  0  0  0  0  0  0  0
  142.1740   81.6940  223.8460 C   0  0  0  0  0  0  0  0  0  0  0  0
  143.1940   80.8190  223.5350 C   0  0  0  0  0  0  0  0  0  0  0  0
  142.9720   79.5200  223.1190 C   0  0  0  0  0  0  0  0  0  0  0  0
  141.6600   79.0920  223.0130 C   0  0  0  0  0  0  0  0  0  0  0  0
  141.4160   77.8230  222.6070 N   0  0  0  0  0  0  0  0  0  0  0  0
  141.9280   75.4300  222.2070 H   0  0  0  0  0  0  0  0  0  0  0  0
  141.1365   73.0233  222.3309 H   0  0  0  0  0  0  0  0  0  0  0  0
  139.7484   73.6164  221.2226 H   0  0  0  0  0  0  0  0  0  0  0  0
  144.0189   71.3427  220.1807 H   0  0  0  0  0  0  0  0  0  0  0  0
  143.1449   71.5012  218.6837 H   0  0  0  0  0  0  0  0  0  0  0  0
  144.7120   73.4449  217.9413 H   0  0  0  0  0  0  0  0  0  0  0  0
  145.5760   71.1670  218.4390 H   0  0  0  0  0  0  0  0  0  0  0  0
  145.5866   73.1673  220.9111 H   0  0  0  0  0  0  0  0  0  0  0  0
  145.8769   74.5637  219.9023 H   0  0  0  0  0  0  0  0  0  0  0  0
  143.7156   74.5406  221.5008 H   0  0  0  0  0  0  0  0  0  0  0  0
  143.2078   77.2364  216.9102 H   0  0  0  0  0  0  0  0  0  0  0  0
  142.1944   78.4115  219.1194 H   0  0  0  0  0  0  0  0  0  0  0  0
  142.5210   76.7490  221.0720 H   0  0  0  0  0  0  0  0  0  0  0  0
  138.0584   77.7785  222.6803 H   0  0  0  0  0  0  0  0  0  0  0  0
  138.4620   80.1209  223.4303 H   0  0  0  0  0  0  0  0  0  0  0  0
  140.0428   81.9235  223.9742 H   0  0  0  0  0  0  0  0  0  0  0  0
  142.3916   82.7209  224.1748 H   0  0  0  0  0  0  0  0  0  0  0  0
  144.2323   81.1716  223.6222 H   0  0  0  0  0  0  0  0  0  0  0  0
  143.8100   78.8486  222.8801 H   0  0  0  0  0  0  0  0  0  0  0  0
  1  2  2  0
  2  3  1  0
  3  4  1  0
  4  5  1  0
  5  6  2  0
  5  7  1  0
  7  8  1  0
  8  9  1  0
  9 10  1  0
  9 11  1  0
 11 12  1  0
 12 13  1  0
 13 14  2  0
 14 15  1  0
 15 16  2  0
 16 17  1  0
  2 18  1  0
 18 19  2  0
 19 20  1  0
 20 21  2  0
 21 22  1  0
 22 23  2  0
 23 24  1  0
 24 25  2  0
 25 26  1  0
 26 27  2  0
 12  7  1  0
 17 13  1  0
 27 18  1  0
 26 21  1  0
  3 28  1  0
  4 29  1  0
  4 30  1  0
  8 31  1  0
  8 32  1  0
  9 33  1  6
 10 34  1  0
 11 35  1  0
 11 36  1  0
 12 37  1  1
 15 38  1  0
 16 39  1  0
 17 40  1  0
 19 41  1  0
 20 42  1  0
 22 43  1  0
 23 44  1  0
 24 45  1  0
 25 46  1  0
M  END
>  <smiles>  (6) 
O=C(NCC(=O)N1C[C@H](O)C[C@H]1c1ncc[nH]1)c1ccc2ccccc2n1

>  <score_type>  (6) 
oracle

>  <origin>  (6) 
autodockgpu

>  <m_score__min__energy>  (6) 
-8.2100000000000009

>  <m_primary>  (6) 
energy

>  <rmsd>  (6) 
7.417804784367354

>  <m_score__min__rmsd>  (6) 
7.417804784367354

>  <meeko>  (6) 
{"free_energy": -7.33, "intermolecular_energy": -9.12, "internal_energy": -2.62, "cluster_size": 33, "cluster_id": 3, "rank_in_cluster": 25}

>  <energy>  (6) 
-7.13

>  <cluster_rmsd>  (6) 
1.55

>  <cluster>  (6) 
1

$$$$

     RDKit          3D

 46 49  0  0  0  0  0  0  0  0999 V2000
  140.2730   70.7600  221.6520 O   0  0  0  0  0  0  0  0  0  0  0  0
  139.6450   71.2950  222.6260 C   0  0  0  0  0  0  0  0  0  0  0  0
  138.5900   72.2380  222.3780 N   0  0  0  0  0  0  0  0  0  0  0  0
  138.1740   72.6240  221.0630 C   0  0  0  0  0  0  0  0  0  0  0  0
  139.0520   73.4530  220.2560 C   0  0  0  0  0  0  0  0  0  0  0  0
  139.1400   73.0800  219.0080 O   0  0  0  0  0  0  0  0  0  0  0  0
  139.8170   74.5870  220.6380 N   0  0  0  0  0  0  0  0  0  0  0  0
  139.5820   75.5760  221.6720 C   0  0  0  0  0  0  0  0  0  0  0  0
  141.0240   76.0390  221.9890 C   0  0  2  0  0  0  0  0  0  0  0  0
  141.0360   77.2130  222.7010 O   0  0  0  0  0  0  0  0  0  0  0  0
  141.5220   76.1850  220.5660 C   0  0  0  0  0  0  0  0  0  0  0  0
  141.0770   74.9040  219.9360 C   0  0  1  0  0  0  0  0  0  0  0  0
  142.0560   73.8080  220.2040 C   0  0  0  0  0  0  0  0  0  0  0  0
  143.3570   73.9510  220.4990 N   0  0  0  0  0  0  0  0  0  0  0  0
  143.9170   72.7450  220.6740 C   0  0  0  0  0  0  0  0  0  0  0  0
  142.9050   71.8140  220.4740 C   0  0  0  0  0  0  0  0  0  0  0  0
  141.7780   72.4910  220.1880 N   0  0  0  0  0  0  0  0  0  0  0  0
  140.0110   70.9400  224.0140 C   0  0  0  0  0  0  0  0  0  0  0  0
  140.6860   71.8660  224.7770 C   0  0  0  0  0  0  0  0  0  0  0  0
  141.0370   71.5440  226.0860 C   0  0  0  0  0  0  0  0  0  0  0  0
  140.7100   70.2970  226.6280 C   0  0  0  0  0  0  0  0  0  0  0  0
  141.0440   69.9500  227.9200 C   0  0  0  0  0  0  0  0  0  0  0  0
  140.7050   68.7120  228.4160 C   0  0  0  0  0  0  0  0  0  0  0  0
  140.0280   67.8410  227.5870 C   0  0  0  0  0  0  0  0  0  0  0  0
  139.6780   68.1550  226.2880 C   0  0  0  0  0  0  0  0  0  0  0  0
  140.0290   69.4040  225.8090 C   0  0  0  0  0  0  0  0  0  0  0  0
  139.6960   69.7360  224.5380 N   0  0  0  0  0  0  0  0  0  0  0  0
  138.1450   72.6250  223.2640 H   0  0  0  0  0  0  0  0  0  0  0  0
  137.9973   71.6974  220.4971 H   0  0  0  0  0  0  0  0  0  0  0  0
  137.3004   73.2676  221.2438 H   0  0  0  0  0  0  0  0  0  0  0  0
  138.9655   76.4076  221.3000 H   0  0  0  0  0  0  0  0  0  0  0  0
  139.0324   75.1916  222.5439 H   0  0  0  0  0  0  0  0  0  0  0  0
  141.6284   75.3759  222.6253 H   0  0  0  0  0  0  0  0  0  0  0  0
  141.9560   77.5450  222.7010 H   0  0  0  0  0  0  0  0  0  0  0  0
  141.0620   77.0527  220.0706 H   0  0  0  0  0  0  0  0  0  0  0  0
  142.6064   76.3555  220.4956 H   0  0  0  0  0  0  0  0  0  0  0  0
  140.9758   74.9970  218.8446 H   0  0  0  0  0  0  0  0  0  0  0  0
  144.9671   72.5349  220.9255 H   0  0  0  0  0  0  0  0  0  0  0  0
  143.0069   70.7206  220.5380 H   0  0  0  0  0  0  0  0  0  0  0  0
  140.8550   72.0430  219.9900 H   0  0  0  0  0  0  0  0  0  0  0  0
  140.9453   72.8493  224.3576 H   0  0  0  0  0  0  0  0  0  0  0  0
  141.5776   72.2790  226.7004 H   0  0  0  0  0  0  0  0  0  0  0  0
  141.5839   70.6660  228.5571 H   0  0  0  0  0  0  0  0  0  0  0  0
  140.9665   68.4246  229.4451 H   0  0  0  0  0  0  0  0  0  0  0  0
  139.7542   66.8503  227.9788 H   0  0  0  0  0  0  0  0  0  0  0  0
  139.1378   67.4352  225.6554 H   0  0  0  0  0  0  0  0  0  0  0  0
  1  2  2  0
  2  3  1  0
  3  4  1  0
  4  5  1  0
  5  6  2  0
  5  7  1  0
  7  8  1  0
  8  9  1  0
  9 10  1  0
  9 11  1  0
 11 12  1  0
 12 13  1  0
 13 14  2  0
 14 15  1  0
 15 16  2  0
 16 17  1  0
  2 18  1  0
 18 19  2  0
 19 20  1  0
 20 21  2  0
 21 22  1  0
 22 23  2  0
 23 24  1  0
 24 25  2  0
 25 26  1  0
 26 27  2  0
 12  7  1  0
 17 13  1  0
 27 18  1  0
 26 21  1  0
  3 28  1  0
  4 29  1  0
  4 30  1  0
  8 31  1  0
  8 32  1  0
  9 33  1  1
 10 34  1  0
 11 35  1  0
 11 36  1  0
 12 37  1  6
 15 38  1  0
 16 39  1  0
 17 40  1  0
 19 41  1  0
 20 42  1  0
 22 43  1  0
 23 44  1  0
 24 45  1  0
 25 46  1  0
M  END
>  <smiles>  (7) 
O=C(NCC(=O)N1C[C@H](O)C[C@H]1c1ncc[nH]1)c1ccc2ccccc2n1

>  <score_type>  (7) 
oracle

>  <origin>  (7) 
autodockgpu

>  <m_score__min__energy>  (7) 
-8.2100000000000009

>  <m_primary>  (7) 
energy

>  <rmsd>  (7) 
4.133927456328307

>  <m_score__min__rmsd>  (7) 
4.133927456328307

>  <meeko>  (7) 
{"free_energy": -6.6, "intermolecular_energy": -8.39, "internal_energy": -2.76, "cluster_size": 9, "cluster_id": 2, "rank_in_cluster": 9}

>  <energy>  (7) 
-7.09

>  <cluster_rmsd>  (7) 
1.71

>  <cluster>  (7) 
1

$$$$

     RDKit          3D

 46 49  0  0  0  0  0  0  0  0999 V2000
  141.2370   71.3690  221.4590 O   0  0  0  0  0  0  0  0  0  0  0  0
  140.5580   71.9640  222.3610 C   0  0  0  0  0  0  0  0  0  0  0  0
  140.0970   73.3090  222.1550 N   0  0  0  0  0  0  0  0  0  0  0  0
  140.3490   74.0500  220.9560 C   0  0  0  0  0  0  0  0  0  0  0  0
  141.3170   73.5410  219.9990 C   0  0  0  0  0  0  0  0  0  0  0  0
  140.7850   73.0610  218.9080 O   0  0  0  0  0  0  0  0  0  0  0  0
  142.7330   73.4920  220.0940 N   0  0  0  0  0  0  0  0  0  0  0  0
  143.6470   72.3730  219.9630 C   0  0  0  0  0  0  0  0  0  0  0  0
  144.9380   73.0850  219.4920 C   0  0  2  0  0  0  0  0  0  0  0  0
  146.0390   72.2750  219.6220 O   0  0  0  0  0  0  0  0  0  0  0  0
  144.9150   74.2430  220.4680 C   0  0  0  0  0  0  0  0  0  0  0  0
  143.5020   74.7220  220.3650 C   0  0  1  0  0  0  0  0  0  0  0  0
  143.3360   75.6500  219.2050 C   0  0  0  0  0  0  0  0  0  0  0  0
  143.2150   75.3030  217.9150 N   0  0  0  0  0  0  0  0  0  0  0  0
  143.0840   76.4040  217.1600 C   0  0  0  0  0  0  0  0  0  0  0  0
  143.1290   77.4830  218.0370 C   0  0  0  0  0  0  0  0  0  0  0  0
  143.2840   76.9920  219.2800 N   0  0  0  0  0  0  0  0  0  0  0  0
  140.2480   71.2590  223.6240 C   0  0  0  0  0  0  0  0  0  0  0  0
  139.3970   70.1770  223.5860 C   0  0  0  0  0  0  0  0  0  0  0  0
  139.0960   69.5040  224.7670 C   0  0  0  0  0  0  0  0  0  0  0  0
  139.6480   69.9170  225.9850 C   0  0  0  0  0  0  0  0  0  0  0  0
  139.3670   69.2710  227.1700 C   0  0  0  0  0  0  0  0  0  0  0  0
  139.9300   69.7080  228.3480 C   0  0  0  0  0  0  0  0  0  0  0  0
  140.7730   70.7990  228.3030 C   0  0  0  0  0  0  0  0  0  0  0  0
  141.0750   71.4710  227.1330 C   0  0  0  0  0  0  0  0  0  0  0  0
  140.4980   71.0150  225.9610 C   0  0  0  0  0  0  0  0  0  0  0  0
  140.7790   71.6560  224.8000 N   0  0  0  0  0  0  0  0  0  0  0  0
  139.5490   73.7040  222.9780 H   0  0  0  0  0  0  0  0  0  0  0  0
  139.3894   74.1398  220.4258 H   0  0  0  0  0  0  0  0  0  0  0  0
  140.8035   74.9847  221.3164 H   0  0  0  0  0  0  0  0  0  0  0  0
  143.7978   71.8621  220.9254 H   0  0  0  0  0  0  0  0  0  0  0  0
  143.2957   71.5834  219.2825 H   0  0  0  0  0  0  0  0  0  0  0  0
  144.9862   73.3750  218.4320 H   0  0  0  0  0  0  0  0  0  0  0  0
  145.9650   71.8180  220.4850 H   0  0  0  0  0  0  0  0  0  0  0  0
  145.1479   73.9073  221.4893 H   0  0  0  0  0  0  0  0  0  0  0  0
  145.6601   75.0208  220.2447 H   0  0  0  0  0  0  0  0  0  0  0  0
  143.1848   75.2628  221.2689 H   0  0  0  0  0  0  0  0  0  0  0  0
  142.9649   76.4454  216.0672 H   0  0  0  0  0  0  0  0  0  0  0  0
  143.0518   78.5457  217.7636 H   0  0  0  0  0  0  0  0  0  0  0  0
  143.3490   77.5800  220.1420 H   0  0  0  0  0  0  0  0  0  0  0  0
  138.9594   69.8477  222.6320 H   0  0  0  0  0  0  0  0  0  0  0  0
  138.4173   68.6387  224.7426 H   0  0  0  0  0  0  0  0  0  0  0  0
  138.6907   68.4035  227.1744 H   0  0  0  0  0  0  0  0  0  0  0  0
  139.7134   69.2007  229.2997 H   0  0  0  0  0  0  0  0  0  0  0  0
  141.2260   71.1507  229.2416 H   0  0  0  0  0  0  0  0  0  0  0  0
  141.7511   72.3387  227.1339 H   0  0  0  0  0  0  0  0  0  0  0  0
  1  2  2  0
  2  3  1  0
  3  4  1  0
  4  5  1  0
  5  6  2  0
  5  7  1  0
  7  8  1  0
  8  9  1  0
  9 10  1  0
  9 11  1  0
 11 12  1  0
 12 13  1  0
 13 14  2  0
 14 15  1  0
 15 16  2  0
 16 17  1  0
  2 18  1  0
 18 19  2  0
 19 20  1  0
 20 21  2  0
 21 22  1  0
 22 23  2  0
 23 24  1  0
 24 25  2  0
 25 26  1  0
 26 27  2  0
 12  7  1  0
 17 13  1  0
 27 18  1  0
 26 21  1  0
  3 28  1  0
  4 29  1  0
  4 30  1  0
  8 31  1  0
  8 32  1  0
  9 33  1  6
 10 34  1  0
 11 35  1  0
 11 36  1  0
 12 37  1  1
 15 38  1  0
 16 39  1  0
 17 40  1  0
 19 41  1  0
 20 42  1  0
 22 43  1  0
 23 44  1  0
 24 45  1  0
 25 46  1  0
M  END
>  <smiles>  (8) 
O=C(NCC(=O)N1C[C@H](O)C[C@H]1c1ncc[nH]1)c1ccc2ccccc2n1

>  <score_type>  (8) 
oracle

>  <origin>  (8) 
autodockgpu

>  <m_score__min__energy>  (8) 
-8.2100000000000009

>  <m_primary>  (8) 
energy

>  <rmsd>  (8) 
3.6969250083750977

>  <m_score__min__rmsd>  (8) 
3.6969250083750977

>  <meeko>  (8) 
{"free_energy": -8.21, "intermolecular_energy": -10.0, "internal_energy": -1.17, "cluster_size": 7, "cluster_id": 1, "rank_in_cluster": 1}

>  <energy>  (8) 
-7.92

>  <cluster_rmsd>  (8) 
0.0

>  <cluster>  (8) 
2

$$$$

     RDKit          3D

 46 49  0  0  0  0  0  0  0  0999 V2000
  141.5280   72.3360  221.8670 O   0  0  0  0  0  0  0  0  0  0  0  0
  140.4760   72.4560  222.5800 C   0  0  0  0  0  0  0  0  0  0  0  0
  139.4900   73.4510  222.2580 N   0  0  0  0  0  0  0  0  0  0  0  0
  139.6100   74.3420  221.1430 C   0  0  0  0  0  0  0  0  0  0  0  0
  140.6540   75.3520  221.1530 C   0  0  0  0  0  0  0  0  0  0  0  0
  141.0970   75.6490  222.3440 O   0  0  0  0  0  0  0  0  0  0  0  0
  141.2400   76.0480  220.0630 N   0  0  0  0  0  0  0  0  0  0  0  0
  141.3520   77.4710  219.8050 C   0  0  0  0  0  0  0  0  0  0  0  0
  142.6160   77.5240  218.9140 C   0  0  2  0  0  0  0  0  0  0  0  0
  142.7300   78.7290  218.2670 O   0  0  0  0  0  0  0  0  0  0  0  0
  142.2810   76.3680  217.9940 C   0  0  0  0  0  0  0  0  0  0  0  0
  141.8690   75.3000  218.9550 C   0  0  1  0  0  0  0  0  0  0  0  0
  143.0600   74.5750  219.4920 C   0  0  0  0  0  0  0  0  0  0  0  0
  144.1670   74.2420  218.8120 N   0  0  0  0  0  0  0  0  0  0  0  0
  145.0200   73.5980  219.6220 C   0  0  0  0  0  0  0  0  0  0  0  0
  144.4000   73.5330  220.8650 C   0  0  0  0  0  0  0  0  0  0  0  0
  143.2030   74.1370  220.7560 N   0  0  0  0  0  0  0  0  0  0  0  0
  140.2760   71.5640  223.7430 C   0  0  0  0  0  0  0  0  0  0  0  0
  139.5910   70.3830  223.5600 C   0  0  0  0  0  0  0  0  0  0  0  0
  139.3960   69.5340  224.6460 C   0  0  0  0  0  0  0  0  0  0  0  0
  139.8860   69.8680  225.9120 C   0  0  0  0  0  0  0  0  0  0  0  0
  139.7080   69.0480  227.0060 C   0  0  0  0  0  0  0  0  0  0  0  0
  140.2060   69.4140  228.2360 C   0  0  0  0  0  0  0  0  0  0  0  0
  140.8810   70.6120  228.3360 C   0  0  0  0  0  0  0  0  0  0  0  0
  141.0770   71.4590  227.2620 C   0  0  0  0  0  0  0  0  0  0  0  0
  140.5680   71.0730  226.0350 C   0  0  0  0  0  0  0  0  0  0  0  0
  140.7490   71.8860  224.9660 N   0  0  0  0  0  0  0  0  0  0  0  0
  138.6620   73.4640  222.9260 H   0  0  0  0  0  0  0  0  0  0  0  0
  139.7729   73.7200  220.2505 H   0  0  0  0  0  0  0  0  0  0  0  0
  138.6791   74.9272  221.1740 H   0  0  0  0  0  0  0  0  0  0  0  0
  140.4687   77.8537  219.2727 H   0  0  0  0  0  0  0  0  0  0  0  0
  141.4172   78.0879  220.7134 H   0  0  0  0  0  0  0  0  0  0  0  0
  143.5866   77.4420  219.4251 H   0  0  0  0  0  0  0  0  0  0  0  0
  141.9290   79.2500  218.4760 H   0  0  0  0  0  0  0  0  0  0  0  0
  141.4582   76.6281  217.3119 H   0  0  0  0  0  0  0  0  0  0  0  0
  143.1143   76.0721  217.3397 H   0  0  0  0  0  0  0  0  0  0  0  0
  141.2130   74.5542  218.4822 H   0  0  0  0  0  0  0  0  0  0  0  0
  146.0109   73.2010  219.3565 H   0  0  0  0  0  0  0  0  0  0  0  0
  144.8137   73.0710  221.7735 H   0  0  0  0  0  0  0  0  0  0  0  0
  142.5190   74.2360  221.5400 H   0  0  0  0  0  0  0  0  0  0  0  0
  139.2024   70.1137  222.5668 H   0  0  0  0  0  0  0  0  0  0  0  0
  138.8500   68.5893  224.5063 H   0  0  0  0  0  0  0  0  0  0  0  0
  139.1658   68.0973  226.8955 H   0  0  0  0  0  0  0  0  0  0  0  0
  140.0691   68.7679  229.1156 H   0  0  0  0  0  0  0  0  0  0  0  0
  141.2823   70.9074  229.3167 H   0  0  0  0  0  0  0  0  0  0  0  0
  141.6197   72.4086  227.3788 H   0  0  0  0  0  0  0  0  0  0  0  0
  1  2  2  0
  2  3  1  0
  3  4  1  0
  4  5  1  0
  5  6  2  0
  5  7  1  0
  7  8  1  0
  8  9  1  0
  9 10  1  0
  9 11  1  0
 11 12  1  0
 12 13  1  0
 13 14  2  0
 14 15  1  0
 15 16  2  0
 16 17  1  0
  2 18  1  0
 18 19  2  0
 19 20  1  0
 20 21  2  0
 21 22  1  0
 22 23  2  0
 23 24  1  0
 24 25  2  0
 25 26  1  0
 26 27  2  0
 12  7  1  0
 17 13  1  0
 27 18  1  0
 26 21  1  0
  3 28  1  0
  4 29  1  0
  4 30  1  0
  8 31  1  0
  8 32  1  0
  9 33  1  1
 10 34  1  0
 11 35  1  0
 11 36  1  0
 12 37  1  6
 15 38  1  0
 16 39  1  0
 17 40  1  0
 19 41  1  0
 20 42  1  0
 22 43  1  0
 23 44  1  0
 24 45  1  0
 25 46  1  0
M  END
>  <smiles>  (9) 
O=C(NCC(=O)N1C[C@H](O)C[C@H]1c1ncc[nH]1)c1ccc2ccccc2n1

>  <score_type>  (9) 
oracle

>  <origin>  (9) 
autodockgpu

>  <m_score__min__energy>  (9) 
-8.2100000000000009

>  <m_primary>  (9) 
energy

>  <rmsd>  (9) 
3.281529565553913

>  <m_score__min__rmsd>  (9) 
3.281529565553913

>  <meeko>  (9) 
{"free_energy": -6.93, "intermolecular_energy": -8.72, "internal_energy": -2.56, "cluster_size": 9, "cluster_id": 2, "rank_in_cluster": 8}

>  <energy>  (9) 
-7.88

>  <cluster_rmsd>  (9) 
0.1

>  <cluster>  (9) 
2

$$$$

     RDKit          3D

 46 49  0  0  0  0  0  0  0  0999 V2000
  138.6360   75.5060  221.8650 O   0  0  0  0  0  0  0  0  0  0  0  0
  139.7800   76.0330  221.6580 C   0  0  0  0  0  0  0  0  0  0  0  0
  140.7660   75.3430  220.8730 N   0  0  0  0  0  0  0  0  0  0  0  0
  140.5380   74.0610  220.2770 C   0  0  0  0  0  0  0  0  0  0  0  0
  141.5390   73.0200  220.4330 C   0  0  0  0  0  0  0  0  0  0  0  0
  141.0430   71.8200  220.5660 O   0  0  0  0  0  0  0  0  0  0  0  0
  142.9540   73.1330  220.4650 N   0  0  0  0  0  0  0  0  0  0  0  0
  143.9820   72.1130  220.3820 C   0  0  0  0  0  0  0  0  0  0  0  0
  145.1670   72.9180  219.7960 C   0  0  2  0  0  0  0  0  0  0  0  0
  146.3560   72.2460  219.9390 O   0  0  0  0  0  0  0  0  0  0  0  0
  145.0510   74.1450  220.6760 C   0  0  0  0  0  0  0  0  0  0  0  0
  143.5910   74.4580  220.6020 C   0  0  1  0  0  0  0  0  0  0  0  0
  143.2780   75.2600  219.3800 C   0  0  0  0  0  0  0  0  0  0  0  0
  143.0900   76.5870  219.3200 N   0  0  0  0  0  0  0  0  0  0  0  0
  142.8280   76.9510  218.0560 C   0  0  0  0  0  0  0  0  0  0  0  0
  142.8570   75.7830  217.3020 C   0  0  0  0  0  0  0  0  0  0  0  0
  143.1340   74.7650  218.1370 N   0  0  0  0  0  0  0  0  0  0  0  0
  140.0860   77.3610  222.2330 C   0  0  0  0  0  0  0  0  0  0  0  0
  139.0490   78.1290  222.7140 C   0  0  0  0  0  0  0  0  0  0  0  0
  139.3230   79.3810  223.2580 C   0  0  0  0  0  0  0  0  0  0  0  0
  140.6350   79.8630  223.3180 C   0  0  0  0  0  0  0  0  0  0  0  0
  140.9370   81.0980  223.8490 C   0  0  0  0  0  0  0  0  0  0  0  0
  142.2410   81.5360  223.8900 C   0  0  0  0  0  0  0  0  0  0  0  0
  143.2230   80.7080  223.3880 C   0  0  0  0  0  0  0  0  0  0  0  0
  142.9570   79.4640  222.8480 C   0  0  0  0  0  0  0  0  0  0  0  0
  141.6390   79.0440  222.8160 C   0  0  0  0  0  0  0  0  0  0  0  0
  141.3520   77.8280  222.2920 N   0  0  0  0  0  0  0  0  0  0  0  0
  141.6830   75.8750  220.7760 H   0  0  0  0  0  0  0  0  0  0  0  0
  139.6004   73.6716  220.7005 H   0  0  0  0  0  0  0  0  0  0  0  0
  140.5428   74.2695  219.1969 H   0  0  0  0  0  0  0  0  0  0  0  0
  144.2247   71.7051  221.3743 H   0  0  0  0  0  0  0  0  0  0  0  0
  143.6962   71.2351  219.7840 H   0  0  0  0  0  0  0  0  0  0  0  0
  145.1430   73.1204  218.7151 H   0  0  0  0  0  0  0  0  0  0  0  0
  146.3560   71.8390  220.8290 H   0  0  0  0  0  0  0  0  0  0  0  0
  145.3586   73.9242  221.7088 H   0  0  0  0  0  0  0  0  0  0  0  0
  145.6951   74.9772  220.3559 H   0  0  0  0  0  0  0  0  0  0  0  0
  143.2508   75.0357  221.4741 H   0  0  0  0  0  0  0  0  0  0  0  0
  142.6300   77.9690  217.6894 H   0  0  0  0  0  0  0  0  0  0  0  0
  142.6846   75.7053  216.2184 H   0  0  0  0  0  0  0  0  0  0  0  0
  143.2170   73.7660  217.8410 H   0  0  0  0  0  0  0  0  0  0  0  0
  138.0148   77.7571  222.6689 H   0  0  0  0  0  0  0  0  0  0  0  0
  138.4987   79.9981  223.6449 H   0  0  0  0  0  0  0  0  0  0  0  0
  140.1322   81.7367  224.2419 H   0  0  0  0  0  0  0  0  0  0  0  0
  142.4932   82.5201  224.3118 H   0  0  0  0  0  0  0  0  0  0  0  0
  144.2668   81.0539  223.4188 H   0  0  0  0  0  0  0  0  0  0  0  0
  143.7657   78.8292  222.4569 H   0  0  0  0  0  0  0  0  0  0  0  0
  1  2  2  0
  2  3  1  0
  3  4  1  0
  4  5  1  0
  5  6  2  0
  5  7  1  0
  7  8  1  0
  8  9  1  0
  9 10  1  0
  9 11  1  0
 11 12  1  0
 12 13  1  0
 13 14  2  0
 14 15  1  0
 15 16  2  0
 16 17  1  0
  2 18  1  0
 18 19  2  0
 19 20  1  0
 20 21  2  0
 21 22  1  0
 22 23  2  0
 23 24  1  0
 24 25  2  0
 25 26  1  0
 26 27  2  0
 12  7  1  0
 17 13  1  0
 27 18  1  0
 26 21  1  0
  3 28  1  0
  4 29  1  0
  4 30  1  0
  8 31  1  0
  8 32  1  0
  9 33  1  6
 10 34  1  0
 11 35  1  0
 11 36  1  0
 12 37  1  1
 15 38  1  0
 16 39  1  0
 17 40  1  0
 19 41  1  0
 20 42  1  0
 22 43  1  0
 23 44  1  0
 24 45  1  0
 25 46  1  0
M  END
>  <smiles>  (10) 
O=C(NCC(=O)N1C[C@H](O)C[C@H]1c1ncc[nH]1)c1ccc2ccccc2n1

>  <score_type>  (10) 
oracle

>  <origin>  (10) 
autodockgpu

>  <m_score__min__energy>  (10) 
-8.2100000000000009

>  <m_primary>  (10) 
energy

>  <rmsd>  (10) 
7.591123816981006

>  <m_score__min__rmsd>  (10) 
7.591123816981006

>  <meeko>  (10) 
{"free_energy": -6.87, "intermolecular_energy": -8.66, "internal_energy": -2.36, "cluster_size": 33, "cluster_id": 3, "rank_in_cluster": 33}

>  <energy>  (10) 
-7.76

>  <cluster_rmsd>  (10) 
0.16

>  <cluster>  (10) 
2

$$$$

     RDKit          3D

 46 49  0  0  0  0  0  0  0  0999 V2000
  138.5650   75.5760  221.8910 O   0  0  0  0  0  0  0  0  0  0  0  0
  139.7770   75.9570  222.0090 C   0  0  0  0  0  0  0  0  0  0  0  0
  140.8540   75.0630  221.6810 N   0  0  0  0  0  0  0  0  0  0  0  0
  140.6490   73.7290  221.2040 C   0  0  0  0  0  0  0  0  0  0  0  0
  141.5830   73.1690  220.2420 C   0  0  0  0  0  0  0  0  0  0  0  0
  141.0250   72.4080  219.3400 O   0  0  0  0  0  0  0  0  0  0  0  0
  142.9900   73.3320  220.1580 N   0  0  0  0  0  0  0  0  0  0  0  0
  144.0150   72.4280  219.6710 C   0  0  0  0  0  0  0  0  0  0  0  0
  145.1160   73.4210  219.2290 C   0  0  2  0  0  0  0  0  0  0  0  0
  146.3220   72.7920  219.0430 O   0  0  0  0  0  0  0  0  0  0  0  0
  145.0840   74.3320  220.4380 C   0  0  0  0  0  0  0  0  0  0  0  0
  143.6220   74.5870  220.6120 C   0  0  1  0  0  0  0  0  0  0  0  0
  143.1630   75.6950  219.7200 C   0  0  0  0  0  0  0  0  0  0  0  0
  142.1690   76.5610  219.9670 N   0  0  0  0  0  0  0  0  0  0  0  0
  142.0450   77.4140  218.9390 C   0  0  0  0  0  0  0  0  0  0  0  0
  143.0150   77.0480  218.0130 C   0  0  0  0  0  0  0  0  0  0  0  0
  143.6840   75.9940  218.5160 N   0  0  0  0  0  0  0  0  0  0  0  0
  140.0690   77.3260  222.4860 C   0  0  0  0  0  0  0  0  0  0  0  0
  139.0170   78.1460  222.8260 C   0  0  0  0  0  0  0  0  0  0  0  0
  139.2770   79.4380  223.2770 C   0  0  0  0  0  0  0  0  0  0  0  0
  140.5910   79.9050  223.3860 C   0  0  0  0  0  0  0  0  0  0  0  0
  140.8790   81.1790  223.8280 C   0  0  0  0  0  0  0  0  0  0  0  0
  142.1870   81.6010  223.9220 C   0  0  0  0  0  0  0  0  0  0  0  0
  143.1840   80.7190  223.5620 C   0  0  0  0  0  0  0  0  0  0  0  0
  142.9310   79.4370  223.1140 C   0  0  0  0  0  0  0  0  0  0  0  0
  141.6110   79.0320  223.0280 C   0  0  0  0  0  0  0  0  0  0  0  0
  141.3370   77.7790  222.5920 N   0  0  0  0  0  0  0  0  0  0  0  0
  141.8200   75.4860  221.8270 H   0  0  0  0  0  0  0  0  0  0  0  0
  140.6585   73.0682  222.0833 H   0  0  0  0  0  0  0  0  0  0  0  0
  139.7042   73.7935  220.6444 H   0  0  0  0  0  0  0  0  0  0  0  0
  144.3730   71.7595  220.4678 H   0  0  0  0  0  0  0  0  0  0  0  0
  143.6745   71.7512  218.8735 H   0  0  0  0  0  0  0  0  0  0  0  0
  144.9678   73.9279  218.2641 H   0  0  0  0  0  0  0  0  0  0  0  0
  146.9990   73.4890  218.9230 H   0  0  0  0  0  0  0  0  0  0  0  0
  145.5087   73.8342  221.3222 H   0  0  0  0  0  0  0  0  0  0  0  0
  145.6772   75.2496  220.3115 H   0  0  0  0  0  0  0  0  0  0  0  0
  143.3755   74.8699  221.6460 H   0  0  0  0  0  0  0  0  0  0  0  0
  141.3214   78.2374  218.8473 H   0  0  0  0  0  0  0  0  0  0  0  0
  143.2022   77.5327  217.0434 H   0  0  0  0  0  0  0  0  0  0  0  0
  144.4720   75.5100  218.0300 H   0  0  0  0  0  0  0  0  0  0  0  0
  137.9814   77.7846  222.7424 H   0  0  0  0  0  0  0  0  0  0  0  0
  138.4404   80.0978  223.5502 H   0  0  0  0  0  0  0  0  0  0  0  0
  140.0617   81.8605  224.1064 H   0  0  0  0  0  0  0  0  0  0  0  0
  142.4296   82.6143  224.2747 H   0  0  0  0  0  0  0  0  0  0  0  0
  144.2299   81.0519  223.6350 H   0  0  0  0  0  0  0  0  0  0  0  0
  143.7521   78.7604  222.8348 H   0  0  0  0  0  0  0  0  0  0  0  0
  1  2  2  0
  2  3  1  0
  3  4  1  0
  4  5  1  0
  5  6  2  0
  5  7  1  0
  7  8  1  0
  8  9  1  0
  9 10  1  0
  9 11  1  0
 11 12  1  0
 12 13  1  0
 13 14  2  0
 14 15  1  0
 15 16  2  0
 16 17  1  0
  2 18  1  0
 18 19  2  0
 19 20  1  0
 20 21  2  0
 21 22  1  0
 22 23  2  0
 23 24  1  0
 24 25  2  0
 25 26  1  0
 26 27  2  0
 12  7  1  0
 17 13  1  0
 27 18  1  0
 26 21  1  0
  3 28  1  0
  4 29  1  0
  4 30  1  0
  8 31  1  0
  8 32  1  0
  9 33  1  6
 10 34  1  0
 11 35  1  0
 11 36  1  0
 12 37  1  1
 15 38  1  0
 16 39  1  0
 17 40  1  0
 19 41  1  0
 20 42  1  0
 22 43  1  0
 23 44  1  0
 24 45  1  0
 25 46  1  0
M  END
>  <smiles>  (11) 
O=C(NCC(=O)N1C[C@H](O)C[C@H]1c1ncc[nH]1)c1ccc2ccccc2n1

>  <score_type>  (11) 
oracle

>  <origin>  (11) 
autodockgpu

>  <m_score__min__energy>  (11) 
-8.2100000000000009

>  <m_primary>  (11) 
energy

>  <rmsd>  (11) 
7.414574441743702

>  <m_score__min__rmsd>  (11) 
7.414574441743702

>  <meeko>  (11) 
{"free_energy": -7.41, "intermolecular_energy": -9.2, "internal_energy": -2.47, "cluster_size": 33, "cluster_id": 3, "rank_in_cluster": 17}

>  <energy>  (11) 
-7.71

>  <cluster_rmsd>  (11) 
0.41

>  <cluster>  (11) 
2

$$$$

     RDKit          3D

 46 49  0  0  0  0  0  0  0  0999 V2000
  139.9410   73.5460  222.6340 O   0  0  0  0  0  0  0  0  0  0  0  0
  140.0850   72.2830  222.5210 C   0  0  0  0  0  0  0  0  0  0  0  0
  140.2670   71.6860  221.2260 N   0  0  0  0  0  0  0  0  0  0  0  0
  140.3090   72.4440  220.0120 C   0  0  0  0  0  0  0  0  0  0  0  0
  141.5520   72.5120  219.2630 C   0  0  0  0  0  0  0  0  0  0  0  0
  141.4060   72.3620  217.9740 O   0  0  0  0  0  0  0  0  0  0  0  0
  142.8760   72.7100  219.7360 N   0  0  0  0  0  0  0  0  0  0  0  0
  144.0410   71.8500  219.6620 C   0  0  0  0  0  0  0  0  0  0  0  0
  145.1910   72.8840  219.7080 C   0  0  2  0  0  0  0  0  0  0  0  0
  146.3960   72.2900  219.9880 O   0  0  0  0  0  0  0  0  0  0  0  0
  144.6610   73.7480  220.8330 C   0  0  0  0  0  0  0  0  0  0  0  0
  143.2370   73.9620  220.4310 C   0  0  1  0  0  0  0  0  0  0  0  0
  143.1190   75.0920  219.4600 C   0  0  0  0  0  0  0  0  0  0  0  0
  143.2650   76.3980  219.7300 N   0  0  0  0  0  0  0  0  0  0  0  0
  143.0880   77.1150  218.6110 C   0  0  0  0  0  0  0  0  0  0  0  0
  142.8180   76.1970  217.6010 C   0  0  0  0  0  0  0  0  0  0  0  0
  142.8430   74.9680  218.1490 N   0  0  0  0  0  0  0  0  0  0  0  0
  140.0630   71.4350  223.7320 C   0  0  0  0  0  0  0  0  0  0  0  0
  139.5120   70.1750  223.6470 C   0  0  0  0  0  0  0  0  0  0  0  0
  139.4840   69.3650  224.7790 C   0  0  0  0  0  0  0  0  0  0  0  0
  140.0080   69.8180  225.9940 C   0  0  0  0  0  0  0  0  0  0  0  0
  139.9940   69.0390  227.1320 C   0  0  0  0  0  0  0  0  0  0  0  0
  140.5200   69.5220  228.3090 C   0  0  0  0  0  0  0  0  0  0  0  0
  141.0540   70.7940  228.3120 C   0  0  0  0  0  0  0  0  0  0  0  0
  141.0840   71.6020  227.1910 C   0  0  0  0  0  0  0  0  0  0  0  0
  140.5500   71.0980  226.0190 C   0  0  0  0  0  0  0  0  0  0  0  0
  140.5680   71.8700  224.9060 N   0  0  0  0  0  0  0  0  0  0  0  0
  140.3670   70.6270  221.2540 H   0  0  0  0  0  0  0  0  0  0  0  0
  139.5511   72.0162  219.3393 H   0  0  0  0  0  0  0  0  0  0  0  0
  140.1459   73.4800  220.3439 H   0  0  0  0  0  0  0  0  0  0  0  0
  144.0863   71.1603  220.5177 H   0  0  0  0  0  0  0  0  0  0  0  0
  144.0606   71.1964  218.7774 H   0  0  0  0  0  0  0  0  0  0  0  0
  145.4099   73.4238  218.7749 H   0  0  0  0  0  0  0  0  0  0  0  0
  146.3090   71.8490  220.8570 H   0  0  0  0  0  0  0  0  0  0  0  0
  144.7275   73.2273  221.7997 H   0  0  0  0  0  0  0  0  0  0  0  0
  145.2236   74.6831  220.9711 H   0  0  0  0  0  0  0  0  0  0  0  0
  142.5988   74.2002  221.2947 H   0  0  0  0  0  0  0  0  0  0  0  0
  143.1448   78.2090  218.5115 H   0  0  0  0  0  0  0  0  0  0  0  0
  142.6198   76.4331  216.5451 H   0  0  0  0  0  0  0  0  0  0  0  0
  142.6730   74.0840  217.6190 H   0  0  0  0  0  0  0  0  0  0  0  0
  139.0984   69.8127  222.6943 H   0  0  0  0  0  0  0  0  0  0  0  0
  139.0452   68.3582  224.7171 H   0  0  0  0  0  0  0  0  0  0  0  0
  139.5611   68.0283  227.0991 H   0  0  0  0  0  0  0  0  0  0  0  0
  140.5146   68.9099  229.2229 H   0  0  0  0  0  0  0  0  0  0  0  0
  141.4756   71.1834  229.2504 H   0  0  0  0  0  0  0  0  0  0  0  0
  141.5180   72.6120  227.2297 H   0  0  0  0  0  0  0  0  0  0  0  0
  1  2  2  0
  2  3  1  0
  3  4  1  0
  4  5  1  0
  5  6  2  0
  5  7  1  0
  7  8  1  0
  8  9  1  0
  9 10  1  0
  9 11  1  0
 11 12  1  0
 12 13  1  0
 13 14  2  0
 14 15  1  0
 15 16  2  0
 16 17  1  0
  2 18  1  0
 18 19  2  0
 19 20  1  0
 20 21  2  0
 21 22  1  0
 22 23  2  0
 23 24  1  0
 24 25  2  0
 25 26  1  0
 26 27  2  0
 12  7  1  0
 17 13  1  0
 27 18  1  0
 26 21  1  0
  3 28  1  0
  4 29  1  0
  4 30  1  0
  8 31  1  0
  8 32  1  0
  9 33  1  6
 10 34  1  0
 11 35  1  0
 11 36  1  0
 12 37  1  1
 15 38  1  0
 16 39  1  0
 17 40  1  0
 19 41  1  0
 20 42  1  0
 22 43  1  0
 23 44  1  0
 24 45  1  0
 25 46  1  0
M  END
>  <smiles>  (12) 
O=C(NCC(=O)N1C[C@H](O)C[C@H]1c1ncc[nH]1)c1ccc2ccccc2n1

>  <score_type>  (12) 
oracle

>  <origin>  (12) 
autodockgpu

>  <m_score__min__energy>  (12) 
-8.2100000000000009

>  <m_primary>  (12) 
energy

>  <rmsd>  (12) 
3.9687419135048443

>  <m_score__min__rmsd>  (12) 
3.9687419135048443

>  <meeko>  (12) 
{"free_energy": -7.67, "intermolecular_energy": -9.46, "internal_energy": -1.93, "cluster_size": 7, "cluster_id": 1, "rank_in_cluster": 4}

>  <energy>  (12) 
-7.62

>  <cluster_rmsd>  (12) 
0.9

>  <cluster>  (12) 
2

$$$$

     RDKit          3D

 46 49  0  0  0  0  0  0  0  0999 V2000
  138.7100   75.5840  221.6070 O   0  0  0  0  0  0  0  0  0  0  0  0
  139.8870   75.9090  221.9790 C   0  0  0  0  0  0  0  0  0  0  0  0
  140.9470   74.9400  221.9640 N   0  0  0  0  0  0  0  0  0  0  0  0
  140.7670   73.5860  221.5320 C   0  0  0  0  0  0  0  0  0  0  0  0
  141.6300   73.0530  220.4920 C   0  0  0  0  0  0  0  0  0  0  0  0
  140.9880   72.5220  219.4870 O   0  0  0  0  0  0  0  0  0  0  0  0
  143.0480   73.0290  220.4270 N   0  0  0  0  0  0  0  0  0  0  0  0
  143.9550   71.9640  220.0420 C   0  0  0  0  0  0  0  0  0  0  0  0
  145.1790   72.7680  219.5430 C   0  0  2  0  0  0  0  0  0  0  0  0
  146.2970   71.9780  219.4390 O   0  0  0  0  0  0  0  0  0  0  0  0
  145.2490   73.7770  220.6700 C   0  0  0  0  0  0  0  0  0  0  0  0
  143.8290   74.2290  220.7880 C   0  0  1  0  0  0  0  0  0  0  0  0
  143.5270   75.3050  219.7960 C   0  0  0  0  0  0  0  0  0  0  0  0
  143.7700   75.2690  218.4780 N   0  0  0  0  0  0  0  0  0  0  0  0
  143.3650   76.4150  217.9110 C   0  0  0  0  0  0  0  0  0  0  0  0
  142.8460   77.1940  218.9390 C   0  0  0  0  0  0  0  0  0  0  0  0
  142.9580   76.4910  220.0810 N   0  0  0  0  0  0  0  0  0  0  0  0
  140.1540   77.2930  222.4290 C   0  0  0  0  0  0  0  0  0  0  0  0
  139.0860   78.1120  222.7170 C   0  0  0  0  0  0  0  0  0  0  0  0
  139.3220   79.4170  223.1410 C   0  0  0  0  0  0  0  0  0  0  0  0
  140.6290   79.8980  223.2770 C   0  0  0  0  0  0  0  0  0  0  0  0
  140.8940   81.1850  223.6950 C   0  0  0  0  0  0  0  0  0  0  0  0
  142.1940   81.6210  223.8160 C   0  0  0  0  0  0  0  0  0  0  0  0
  143.2090   80.7390  223.5090 C   0  0  0  0  0  0  0  0  0  0  0  0
  142.9800   79.4430  223.0870 C   0  0  0  0  0  0  0  0  0  0  0  0
  141.6660   79.0250  222.9720 C   0  0  0  0  0  0  0  0  0  0  0  0
  141.4150   77.7590  222.5610 N   0  0  0  0  0  0  0  0  0  0  0  0
  141.8810   75.3220  222.3030 H   0  0  0  0  0  0  0  0  0  0  0  0
  140.8977   72.9462  222.4172 H   0  0  0  0  0  0  0  0  0  0  0  0
  139.7698   73.5900  221.0677 H   0  0  0  0  0  0  0  0  0  0  0  0
  144.2151   71.3274  220.9006 H   0  0  0  0  0  0  0  0  0  0  0  0
  143.5406   71.2688  219.2971 H   0  0  0  0  0  0  0  0  0  0  0  0
  145.1084   73.2039  218.5355 H   0  0  0  0  0  0  0  0  0  0  0  0
  146.3640   71.4580  220.2650 H   0  0  0  0  0  0  0  0  0  0  0  0
  145.5957   73.3079  221.6026 H   0  0  0  0  0  0  0  0  0  0  0  0
  145.9562   74.5979  220.4804 H   0  0  0  0  0  0  0  0  0  0  0  0
  143.6072   74.6292  221.7883 H   0  0  0  0  0  0  0  0  0  0  0  0
  143.4303   76.6844  216.8465 H   0  0  0  0  0  0  0  0  0  0  0  0
  142.4204   78.2032  218.8372 H   0  0  0  0  0  0  0  0  0  0  0  0
  142.6470   76.8340  221.0170 H   0  0  0  0  0  0  0  0  0  0  0  0
  138.0563   77.7393  222.6132 H   0  0  0  0  0  0  0  0  0  0  0  0
  138.4724   80.0766  223.3714 H   0  0  0  0  0  0  0  0  0  0  0  0
  140.0634   81.8659  223.9327 H   0  0  0  0  0  0  0  0  0  0  0  0
  142.4174   82.6454  224.1486 H   0  0  0  0  0  0  0  0  0  0  0  0
  144.2494   81.0832  223.6045 H   0  0  0  0  0  0  0  0  0  0  0  0
  143.8144   78.7664  222.8505 H   0  0  0  0  0  0  0  0  0  0  0  0
  1  2  2  0
  2  3  1  0
  3  4  1  0
  4  5  1  0
  5  6  2  0
  5  7  1  0
  7  8  1  0
  8  9  1  0
  9 10  1  0
  9 11  1  0
 11 12  1  0
 12 13  1  0
 13 14  2  0
 14 15  1  0
 15 16  2  0
 16 17  1  0
  2 18  1  0
 18 19  2  0
 19 20  1  0
 20 21  2  0
 21 22  1  0
 22 23  2  0
 23 24  1  0
 24 25  2  0
 25 26  1  0
 26 27  2  0
 12  7  1  0
 17 13  1  0
 27 18  1  0
 26 21  1  0
  3 28  1  0
  4 29  1  0
  4 30  1  0
  8 31  1  0
  8 32  1  0
  9 33  1  6
 10 34  1  0
 11 35  1  0
 11 36  1  0
 12 37  1  1
 15 38  1  0
 16 39  1  0
 17 40  1  0
 19 41  1  0
 20 42  1  0
 22 43  1  0
 23 44  1  0
 24 45  1  0
 25 46  1  0
M  END
>  <smiles>  (13) 
O=C(NCC(=O)N1C[C@H](O)C[C@H]1c1ncc[nH]1)c1ccc2ccccc2n1

>  <score_type>  (13) 
oracle

>  <origin>  (13) 
autodockgpu

>  <m_score__min__energy>  (13) 
-8.2100000000000009

>  <m_primary>  (13) 
energy

>  <rmsd>  (13) 
7.479162419363702

>  <m_score__min__rmsd>  (13) 
7.479162419363702

>  <meeko>  (13) 
{"free_energy": -7.75, "intermolecular_energy": -9.54, "internal_energy": -2.6, "cluster_size": 33, "cluster_id": 3, "rank_in_cluster": 8}

>  <energy>  (13) 
-7.3

>  <cluster_rmsd>  (13) 
0.5

>  <cluster>  (13) 
2

$$$$

     RDKit          3D

 46 49  0  0  0  0  0  0  0  0999 V2000
  140.1740   74.0070  222.3320 O   0  0  0  0  0  0  0  0  0  0  0  0
  140.1810   74.9820  221.5080 C   0  0  0  0  0  0  0  0  0  0  0  0
  140.2300   74.7360  220.0940 N   0  0  0  0  0  0  0  0  0  0  0  0
  140.2630   73.4210  219.5260 C   0  0  0  0  0  0  0  0  0  0  0  0
  141.5200   72.9010  219.0180 C   0  0  0  0  0  0  0  0  0  0  0  0
  141.4090   72.2400  217.8970 O   0  0  0  0  0  0  0  0  0  0  0  0
  142.8240   73.0060  219.5690 N   0  0  0  0  0  0  0  0  0  0  0  0
  143.9620   72.1120  219.4740 C   0  0  0  0  0  0  0  0  0  0  0  0
  145.1420   73.0950  219.6650 C   0  0  2  0  0  0  0  0  0  0  0  0
  146.3120   72.4340  219.9490 O   0  0  0  0  0  0  0  0  0  0  0  0
  144.5850   73.8760  220.8370 C   0  0  0  0  0  0  0  0  0  0  0  0
  143.1910   74.1780  220.3890 C   0  0  1  0  0  0  0  0  0  0  0  0
  143.1600   75.3920  219.5190 C   0  0  0  0  0  0  0  0  0  0  0  0
  143.4230   75.4410  218.2040 N   0  0  0  0  0  0  0  0  0  0  0  0
  143.2970   76.7020  217.7640 C   0  0  0  0  0  0  0  0  0  0  0  0
  142.9390   77.4650  218.8690 C   0  0  0  0  0  0  0  0  0  0  0  0
  142.8630   76.6390  219.9290 N   0  0  0  0  0  0  0  0  0  0  0  0
  140.1380   76.3690  222.0180 C   0  0  0  0  0  0  0  0  0  0  0  0
  138.9150   76.9250  222.3210 C   0  0  0  0  0  0  0  0  0  0  0  0
  138.8590   78.2310  222.8020 C   0  0  0  0  0  0  0  0  0  0  0  0
  140.0290   78.9770  222.9790 C   0  0  0  0  0  0  0  0  0  0  0  0
  140.0060   80.2720  223.4530 C   0  0  0  0  0  0  0  0  0  0  0  0
  141.1800   80.9730  223.6140 C   0  0  0  0  0  0  0  0  0  0  0  0
  142.3640   80.3450  223.2890 C   0  0  0  0  0  0  0  0  0  0  0  0
  142.4240   79.0500  222.8110 C   0  0  0  0  0  0  0  0  0  0  0  0
  141.2330   78.3630  222.6570 C   0  0  0  0  0  0  0  0  0  0  0  0
  141.2660   77.0910  222.1900 N   0  0  0  0  0  0  0  0  0  0  0  0
  140.2400   75.6230  219.5050 H   0  0  0  0  0  0  0  0  0  0  0  0
  139.9188   72.7253  220.3054 H   0  0  0  0  0  0  0  0  0  0  0  0
  139.6333   73.5075  218.6282 H   0  0  0  0  0  0  0  0  0  0  0  0
  143.9416   71.3496  220.2667 H   0  0  0  0  0  0  0  0  0  0  0  0
  144.0040   71.5368  218.5373 H   0  0  0  0  0  0  0  0  0  0  0  0
  145.4247   73.7051  218.7944 H   0  0  0  0  0  0  0  0  0  0  0  0
  146.1570   71.8990  220.7540 H   0  0  0  0  0  0  0  0  0  0  0  0
  144.5854   73.2701  221.7551 H   0  0  0  0  0  0  0  0  0  0  0  0
  145.1708   74.7734  221.0850 H   0  0  0  0  0  0  0  0  0  0  0  0
  142.5182   74.3637  221.2392 H   0  0  0  0  0  0  0  0  0  0  0  0
  143.4470   77.0603  216.7349 H   0  0  0  0  0  0  0  0  0  0  0  0
  142.7515   78.5489  218.8761 H   0  0  0  0  0  0  0  0  0  0  0  0
  142.6120   76.9430  220.8970 H   0  0  0  0  0  0  0  0  0  0  0  0
  137.9914   76.3434  222.1845 H   0  0  0  0  0  0  0  0  0  0  0  0
  137.8848   78.6803  223.0451 H   0  0  0  0  0  0  0  0  0  0  0  0
  139.0458   80.7467  223.7034 H   0  0  0  0  0  0  0  0  0  0  0  0
  141.1737   82.0061  223.9917 H   0  0  0  0  0  0  0  0  0  0  0  0
  143.3046   80.9010  223.4163 H   0  0  0  0  0  0  0  0  0  0  0  0
  143.3870   78.5807  222.5611 H   0  0  0  0  0  0  0  0  0  0  0  0
  1  2  2  0
  2  3  1  0
  3  4  1  0
  4  5  1  0
  5  6  2  0
  5  7  1  0
  7  8  1  0
  8  9  1  0
  9 10  1  0
  9 11  1  0
 11 12  1  0
 12 13  1  0
 13 14  2  0
 14 15  1  0
 15 16  2  0
 16 17  1  0
  2 18  1  0
 18 19  2  0
 19 20  1  0
 20 21  2  0
 21 22  1  0
 22 23  2  0
 23 24  1  0
 24 25  2  0
 25 26  1  0
 26 27  2  0
 12  7  1  0
 17 13  1  0
 27 18  1  0
 26 21  1  0
  3 28  1  0
  4 29  1  0
  4 30  1  0
  8 31  1  0
  8 32  1  0
  9 33  1  6
 10 34  1  0
 11 35  1  0
 11 36  1  0
 12 37  1  1
 15 38  1  0
 16 39  1  0
 17 40  1  0
 19 41  1  0
 20 42  1  0
 22 43  1  0
 23 44  1  0
 24 45  1  0
 25 46  1  0
M  END
>  <smiles>  (14) 
O=C(NCC(=O)N1C[C@H](O)C[C@H]1c1ncc[nH]1)c1ccc2ccccc2n1

>  <score_type>  (14) 
oracle

>  <origin>  (14) 
autodockgpu

>  <m_score__min__energy>  (14) 
-8.2100000000000009

>  <m_primary>  (14) 
energy

>  <rmsd>  (14) 
7.038491555546885

>  <m_score__min__rmsd>  (14) 
7.038491555546885

>  <meeko>  (14) 
{"free_energy": -7.34, "intermolecular_energy": -9.13, "internal_energy": -2.58, "cluster_size": 33, "cluster_id": 3, "rank_in_cluster": 22}

>  <energy>  (14) 
-7.29

>  <cluster_rmsd>  (14) 
0.48

>  <cluster>  (14) 
2

$$$$

     RDKit          3D

 46 49  0  0  0  0  0  0  0  0999 V2000
  138.6510   75.4090  222.3570 O   0  0  0  0  0  0  0  0  0  0  0  0
  139.7870   75.9180  222.0780 C   0  0  0  0  0  0  0  0  0  0  0  0
  140.7630   75.1600  221.3440 N   0  0  0  0  0  0  0  0  0  0  0  0
  140.5310   73.8250  220.8800 C   0  0  0  0  0  0  0  0  0  0  0  0
  141.5570   73.1620  220.0920 C   0  0  0  0  0  0  0  0  0  0  0  0
  141.0890   72.4220  219.1230 O   0  0  0  0  0  0  0  0  0  0  0  0
  142.9680   73.2040  220.2380 N   0  0  0  0  0  0  0  0  0  0  0  0
  143.9680   72.1750  220.0260 C   0  0  0  0  0  0  0  0  0  0  0  0
  145.2160   73.0250  219.6850 C   0  0  2  0  0  0  0  0  0  0  0  0
  146.3710   72.2870  219.7730 O   0  0  0  0  0  0  0  0  0  0  0  0
  145.0740   74.0650  220.7760 C   0  0  0  0  0  0  0  0  0  0  0  0
  143.6330   74.4500  220.6690 C   0  0  1  0  0  0  0  0  0  0  0  0
  143.4340   75.4840  219.6070 C   0  0  0  0  0  0  0  0  0  0  0  0
  142.9260   76.7140  219.7740 N   0  0  0  0  0  0  0  0  0  0  0  0
  142.8990   77.3560  218.5960 C   0  0  0  0  0  0  0  0  0  0  0  0
  143.4180   76.4690  217.6590 C   0  0  0  0  0  0  0  0  0  0  0  0
  143.7360   75.3320  218.3050 N   0  0  0  0  0  0  0  0  0  0  0  0
  140.0960   77.2970  222.5150 C   0  0  0  0  0  0  0  0  0  0  0  0
  139.0540   78.1390  222.8320 C   0  0  0  0  0  0  0  0  0  0  0  0
  139.3300   79.4400  223.2460 C   0  0  0  0  0  0  0  0  0  0  0  0
  140.6500   79.8950  223.3400 C   0  0  0  0  0  0  0  0  0  0  0  0
  140.9540   81.1770  223.7450 C   0  0  0  0  0  0  0  0  0  0  0  0
  142.2660   81.5860  223.8250 C   0  0  0  0  0  0  0  0  0  0  0  0
  143.2530   80.6820  223.4900 C   0  0  0  0  0  0  0  0  0  0  0  0
  142.9840   79.3900  223.0790 C   0  0  0  0  0  0  0  0  0  0  0  0
  141.6590   79.0000  223.0060 C   0  0  0  0  0  0  0  0  0  0  0  0
  141.3700   77.7380  222.6070 N   0  0  0  0  0  0  0  0  0  0  0  0
  141.6750   75.6830  221.1780 H   0  0  0  0  0  0  0  0  0  0  0  0
  140.3548   73.2014  221.7689 H   0  0  0  0  0  0  0  0  0  0  0  0
  139.6902   73.9330  220.1790 H   0  0  0  0  0  0  0  0  0  0  0  0
  144.1262   71.5749  220.9342 H   0  0  0  0  0  0  0  0  0  0  0  0
  143.6997   71.4408  219.2521 H   0  0  0  0  0  0  0  0  0  0  0  0
  145.2760   73.4307  218.6643 H   0  0  0  0  0  0  0  0  0  0  0  0
  146.2950   71.7190  220.5660 H   0  0  0  0  0  0  0  0  0  0  0  0
  145.2992   73.6379  221.7644 H   0  0  0  0  0  0  0  0  0  0  0  0
  145.7646   74.9141  220.6656 H   0  0  0  0  0  0  0  0  0  0  0  0
  143.2477   74.8653  221.6119 H   0  0  0  0  0  0  0  0  0  0  0  0
  142.5388   78.3784  218.4090 H   0  0  0  0  0  0  0  0  0  0  0  0
  143.5456   76.6620  216.5836 H   0  0  0  0  0  0  0  0  0  0  0  0
  144.1480   74.4890  217.8450 H   0  0  0  0  0  0  0  0  0  0  0  0
  138.0141   77.7879  222.7591 H   0  0  0  0  0  0  0  0  0  0  0  0
  138.5016   80.1170  223.5018 H   0  0  0  0  0  0  0  0  0  0  0  0
  140.1453   81.8758  224.0052 H   0  0  0  0  0  0  0  0  0  0  0  0
  142.5207   82.6064  224.1474 H   0  0  0  0  0  0  0  0  0  0  0  0
  144.3028   81.0045  223.5529 H   0  0  0  0  0  0  0  0  0  0  0  0
  143.7963   78.6954  222.8187 H   0  0  0  0  0  0  0  0  0  0  0  0
  1  2  2  0
  2  3  1  0
  3  4  1  0
  4  5  1  0
  5  6  2  0
  5  7  1  0
  7  8  1  0
  8  9  1  0
  9 10  1  0
  9 11  1  0
 11 12  1  0
 12 13  1  0
 13 14  2  0
 14 15  1  0
 15 16  2  0
 16 17  1  0
  2 18  1  0
 18 19  2  0
 19 20  1  0
 20 21  2  0
 21 22  1  0
 22 23  2  0
 23 24  1  0
 24 25  2  0
 25 26  1  0
 26 27  2  0
 12  7  1  0
 17 13  1  0
 27 18  1  0
 26 21  1  0
  3 28  1  0
  4 29  1  0
  4 30  1  0
  8 31  1  0
  8 32  1  0
  9 33  1  6
 10 34  1  0
 11 35  1  0
 11 36  1  0
 12 37  1  1
 15 38  1  0
 16 39  1  0
 17 40  1  0
 19 41  1  0
 20 42  1  0
 22 43  1  0
 23 44  1  0
 24 45  1  0
 25 46  1  0
M  END
>  <smiles>  (15) 
O=C(NCC(=O)N1C[C@H](O)C[C@H]1c1ncc[nH]1)c1ccc2ccccc2n1

>  <score_type>  (15) 
oracle

>  <origin>  (15) 
autodockgpu

>  <m_score__min__energy>  (15) 
-8.2100000000000009

>  <m_primary>  (15) 
energy

>  <rmsd>  (15) 
7.5239209263344495

>  <m_score__min__rmsd>  (15) 
7.5239209263344495

>  <meeko>  (15) 
{"free_energy": -7.1, "intermolecular_energy": -8.89, "internal_energy": -2.52, "cluster_size": 33, "cluster_id": 3, "rank_in_cluster": 32}

>  <energy>  (15) 
-6.93

>  <cluster_rmsd>  (15) 
0.67

>  <cluster>  (15) 
2

$$$$

     RDKit          3D

 46 49  0  0  0  0  0  0  0  0999 V2000
  140.7200   71.4580  221.2730 O   0  0  0  0  0  0  0  0  0  0  0  0
  140.2830   72.0780  222.2990 C   0  0  0  0  0  0  0  0  0  0  0  0
  139.9290   73.4680  222.2120 N   0  0  0  0  0  0  0  0  0  0  0  0
  140.0280   74.2290  221.0030 C   0  0  0  0  0  0  0  0  0  0  0  0
  140.9750   75.3280  220.9340 C   0  0  0  0  0  0  0  0  0  0  0  0
  141.3420   75.7890  222.0990 O   0  0  0  0  0  0  0  0  0  0  0  0
  141.5370   75.9590  219.7930 N   0  0  0  0  0  0  0  0  0  0  0  0
  141.5680   77.3570  219.4090 C   0  0  0  0  0  0  0  0  0  0  0  0
  142.8420   77.4070  218.5320 C   0  0  2  0  0  0  0  0  0  0  0  0
  142.8960   78.5550  217.7800 O   0  0  0  0  0  0  0  0  0  0  0  0
  142.5910   76.1560  217.7150 C   0  0  0  0  0  0  0  0  0  0  0  0
  142.2260   75.1540  218.7640 C   0  0  1  0  0  0  0  0  0  0  0  0
  143.4500   74.5530  219.3770 C   0  0  0  0  0  0  0  0  0  0  0  0
  144.3730   73.8070  218.7520 N   0  0  0  0  0  0  0  0  0  0  0  0
  145.3260   73.4430  219.6230 C   0  0  0  0  0  0  0  0  0  0  0  0
  144.9640   73.9950  220.8470 C   0  0  0  0  0  0  0  0  0  0  0  0
  143.8130   74.6680  220.6670 N   0  0  0  0  0  0  0  0  0  0  0  0
  140.1430   71.3560  223.5830 C   0  0  0  0  0  0  0  0  0  0  0  0
  139.5440   70.1160  223.5820 C   0  0  0  0  0  0  0  0  0  0  0  0
  139.4060   69.4250  224.7830 C   0  0  0  0  0  0  0  0  0  0  0  0
  139.8680   69.9780  225.9830 C   0  0  0  0  0  0  0  0  0  0  0  0
  139.7440   69.3180  227.1870 C   0  0  0  0  0  0  0  0  0  0  0  0
  140.2120   69.8960  228.3460 C   0  0  0  0  0  0  0  0  0  0  0  0
  140.8000   71.1410  228.2620 C   0  0  0  0  0  0  0  0  0  0  0  0
  140.9400   71.8310  227.0730 C   0  0  0  0  0  0  0  0  0  0  0  0
  140.4630   71.2320  225.9200 C   0  0  0  0  0  0  0  0  0  0  0  0
  140.5890   71.8880  224.7410 N   0  0  0  0  0  0  0  0  0  0  0  0
  139.5860   73.8800  223.1320 H   0  0  0  0  0  0  0  0  0  0  0  0
  140.2935   73.5249  220.2007 H   0  0  0  0  0  0  0  0  0  0  0  0
  139.0480   74.7222  220.9229 H   0  0  0  0  0  0  0  0  0  0  0  0
  140.6728   77.6358  218.8337 H   0  0  0  0  0  0  0  0  0  0  0  0
  141.5803   78.0556  220.2586 H   0  0  0  0  0  0  0  0  0  0  0  0
  143.8066   77.4295  219.0602 H   0  0  0  0  0  0  0  0  0  0  0  0
  143.8160   78.6510  217.4610 H   0  0  0  0  0  0  0  0  0  0  0  0
  141.7660   76.3048  217.0029 H   0  0  0  0  0  0  0  0  0  0  0  0
  143.4510   75.8537  217.0993 H   0  0  0  0  0  0  0  0  0  0  0  0
  141.6224   74.3311  218.3536 H   0  0  0  0  0  0  0  0  0  0  0  0
  146.2152   72.8309  219.4116 H   0  0  0  0  0  0  0  0  0  0  0  0
  145.5187   73.8987  221.7920 H   0  0  0  0  0  0  0  0  0  0  0  0
  143.3080   75.1850  221.4220 H   0  0  0  0  0  0  0  0  0  0  0  0
  139.1784   69.6760  222.6424 H   0  0  0  0  0  0  0  0  0  0  0  0
  138.9288   68.4339  224.7888 H   0  0  0  0  0  0  0  0  0  0  0  0
  139.2696   68.3262  227.2220 H   0  0  0  0  0  0  0  0  0  0  0  0
  140.1195   69.3790  229.3125 H   0  0  0  0  0  0  0  0  0  0  0  0
  141.1752   71.6066  229.1853 H   0  0  0  0  0  0  0  0  0  0  0  0
  141.4146   72.8229  227.0438 H   0  0  0  0  0  0  0  0  0  0  0  0
  1  2  2  0
  2  3  1  0
  3  4  1  0
  4  5  1  0
  5  6  2  0
  5  7  1  0
  7  8  1  0
  8  9  1  0
  9 10  1  0
  9 11  1  0
 11 12  1  0
 12 13  1  0
 13 14  2  0
 14 15  1  0
 15 16  2  0
 16 17  1  0
  2 18  1  0
 18 19  2  0
 19 20  1  0
 20 21  2  0
 21 22  1  0
 22 23  2  0
 23 24  1  0
 24 25  2  0
 25 26  1  0
 26 27  2  0
 12  7  1  0
 17 13  1  0
 27 18  1  0
 26 21  1  0
  3 28  1  0
  4 29  1  0
  4 30  1  0
  8 31  1  0
  8 32  1  0
  9 33  1  1
 10 34  1  0
 11 35  1  0
 11 36  1  0
 12 37  1  6
 15 38  1  0
 16 39  1  0
 17 40  1  0
 19 41  1  0
 20 42  1  0
 22 43  1  0
 23 44  1  0
 24 45  1  0
 25 46  1  0
M  END
>  <smiles>  (16) 
O=C(NCC(=O)N1C[C@H](O)C[C@H]1c1ncc[nH]1)c1ccc2ccccc2n1

>  <score_type>  (16) 
oracle

>  <origin>  (16) 
autodockgpu

>  <m_score__min__energy>  (16) 
-8.2100000000000009

>  <m_primary>  (16) 
energy

>  <rmsd>  (16) 
3.304872892519136

>  <m_score__min__rmsd>  (16) 
3.304872892519136

>  <meeko>  (16) 
{"free_energy": -7.88, "intermolecular_energy": -9.67, "internal_energy": -2.1, "cluster_size": 9, "cluster_id": 2, "rank_in_cluster": 2}

>  <energy>  (16) 
-6.6

>  <cluster_rmsd>  (16) 
1.91

>  <cluster>  (16) 
2

$$$$

     RDKit          3D

 46 49  0  0  0  0  0  0  0  0999 V2000
  138.5230   75.6240  221.8280 O   0  0  0  0  0  0  0  0  0  0  0  0
  139.7410   75.9690  221.9900 C   0  0  0  0  0  0  0  0  0  0  0  0
  140.8000   75.0320  221.7370 N   0  0  0  0  0  0  0  0  0  0  0  0
  140.5720   73.6910  221.2890 C   0  0  0  0  0  0  0  0  0  0  0  0
  141.5420   73.0640  220.4080 C   0  0  0  0  0  0  0  0  0  0  0  0
  141.0110   72.3440  219.4570 O   0  0  0  0  0  0  0  0  0  0  0  0
  142.9600   73.1230  220.4470 N   0  0  0  0  0  0  0  0  0  0  0  0
  143.9530   72.1080  220.1520 C   0  0  0  0  0  0  0  0  0  0  0  0
  145.1620   72.9740  219.7250 C   0  0  2  0  0  0  0  0  0  0  0  0
  146.3290   72.2510  219.7190 O   0  0  0  0  0  0  0  0  0  0  0  0
  145.0900   74.0060  220.8320 C   0  0  0  0  0  0  0  0  0  0  0  0
  143.6410   74.3740  220.8360 C   0  0  1  0  0  0  0  0  0  0  0  0
  143.3500   75.4120  219.8010 C   0  0  0  0  0  0  0  0  0  0  0  0
  143.5310   75.2940  218.4770 N   0  0  0  0  0  0  0  0  0  0  0  0
  143.1600   76.4300  217.8670 C   0  0  0  0  0  0  0  0  0  0  0  0
  142.7310   77.2880  218.8730 C   0  0  0  0  0  0  0  0  0  0  0  0
  142.8590   76.6410  220.0450 N   0  0  0  0  0  0  0  0  0  0  0  0
  140.0570   77.3410  222.4410 C   0  0  0  0  0  0  0  0  0  0  0  0
  139.0190   78.1890  222.7560 C   0  0  0  0  0  0  0  0  0  0  0  0
  139.3020   79.4840  223.1820 C   0  0  0  0  0  0  0  0  0  0  0  0
  140.6240   79.9270  223.2930 C   0  0  0  0  0  0  0  0  0  0  0  0
  140.9350   81.2040  223.7110 C   0  0  0  0  0  0  0  0  0  0  0  0
  142.2500   81.6010  223.8060 C   0  0  0  0  0  0  0  0  0  0  0  0
  143.2320   80.6920  223.4730 C   0  0  0  0  0  0  0  0  0  0  0  0
  142.9570   79.4060  223.0490 C   0  0  0  0  0  0  0  0  0  0  0  0
  141.6290   79.0270  222.9610 C   0  0  0  0  0  0  0  0  0  0  0  0
  141.3330   77.7700  222.5480 N   0  0  0  0  0  0  0  0  0  0  0  0
  141.7730   75.4270  221.9150 H   0  0  0  0  0  0  0  0  0  0  0  0
  140.4985   73.0601  222.1871 H   0  0  0  0  0  0  0  0  0  0  0  0
  139.6682   73.7728  220.6674 H   0  0  0  0  0  0  0  0  0  0  0  0
  144.1858   71.5033  221.0409 H   0  0  0  0  0  0  0  0  0  0  0  0
  143.6353   71.3767  219.3942 H   0  0  0  0  0  0  0  0  0  0  0  0
  145.1405   73.3863  218.7054 H   0  0  0  0  0  0  0  0  0  0  0  0
  146.2980   71.6420  220.4850 H   0  0  0  0  0  0  0  0  0  0  0  0
  145.3936   73.5753  221.7976 H   0  0  0  0  0  0  0  0  0  0  0  0
  145.7604   74.8641  220.6764 H   0  0  0  0  0  0  0  0  0  0  0  0
  143.3233   74.7785  221.8083 H   0  0  0  0  0  0  0  0  0  0  0  0
  143.1894   76.6401  216.7877 H   0  0  0  0  0  0  0  0  0  0  0  0
  142.3544   78.3123  218.7352 H   0  0  0  0  0  0  0  0  0  0  0  0
  142.6090   77.0480  220.9740 H   0  0  0  0  0  0  0  0  0  0  0  0
  137.9769   77.8469  222.6720 H   0  0  0  0  0  0  0  0  0  0  0  0
  138.4768   80.1662  223.4341 H   0  0  0  0  0  0  0  0  0  0  0  0
  140.1299   81.9076  223.9693 H   0  0  0  0  0  0  0  0  0  0  0  0
  142.5104   82.6166  224.1388 H   0  0  0  0  0  0  0  0  0  0  0  0
  144.2837   81.0054  223.5485 H   0  0  0  0  0  0  0  0  0  0  0  0
  143.7662   78.7072  222.7902 H   0  0  0  0  0  0  0  0  0  0  0  0
  1  2  2  0
  2  3  1  0
  3  4  1  0
  4  5  1  0
  5  6  2  0
  5  7  1  0
  7  8  1  0
  8  9  1  0
  9 10  1  0
  9 11  1  0
 11 12  1  0
 12 13  1  0
 13 14  2  0
 14 15  1  0
 15 16  2  0
 16 17  1  0
  2 18  1  0
 18 19  2  0
 19 20  1  0
 20 21  2  0
 21 22  1  0
 22 23  2  0
 23 24  1  0
 24 25  2  0
 25 26  1  0
 26 27  2  0
 12  7  1  0
 17 13  1  0
 27 18  1  0
 26 21  1  0
  3 28  1  0
  4 29  1  0
  4 30  1  0
  8 31  1  0
  8 32  1  0
  9 33  1  6
 10 34  1  0
 11 35  1  0
 11 36  1  0
 12 37  1  1
 15 38  1  0
 16 39  1  0
 17 40  1  0
 19 41  1  0
 20 42  1  0
 22 43  1  0
 23 44  1  0
 24 45  1  0
 25 46  1  0
M  END
>  <smiles>  (17) 
O=C(NCC(=O)N1C[C@H](O)C[C@H]1c1ncc[nH]1)c1ccc2ccccc2n1

>  <score_type>  (17) 
oracle

>  <origin>  (17) 
autodockgpu

>  <m_score__min__energy>  (17) 
-8.2100000000000009

>  <m_primary>  (17) 
energy

>  <rmsd>  (17) 
7.463382099915801

>  <m_score__min__rmsd>  (17) 
7.463382099915801

>  <meeko>  (17) 
{"free_energy": -7.75, "intermolecular_energy": -9.54, "internal_energy": -2.63, "cluster_size": 33, "cluster_id": 3, "rank_in_cluster": 7}

>  <energy>  (17) 
-7.86

>  <cluster_rmsd>  (17) 
0.0

>  <cluster>  (17) 
3

$$$$

     RDKit          3D

 46 49  0  0  0  0  0  0  0  0999 V2000
  139.5720   74.4310  222.3440 O   0  0  0  0  0  0  0  0  0  0  0  0
  139.9520   75.3620  221.5600 C   0  0  0  0  0  0  0  0  0  0  0  0
  140.2690   75.0730  220.1890 N   0  0  0  0  0  0  0  0  0  0  0  0
  140.1740   73.7610  219.6210 C   0  0  0  0  0  0  0  0  0  0  0  0
  141.3820   73.1010  219.1570 C   0  0  0  0  0  0  0  0  0  0  0  0
  141.1660   72.1180  218.3250 O   0  0  0  0  0  0  0  0  0  0  0  0
  142.7360   73.3720  219.4860 N   0  0  0  0  0  0  0  0  0  0  0  0
  143.9490   72.6470  219.1570 C   0  0  0  0  0  0  0  0  0  0  0  0
  145.0040   73.7780  219.1960 C   0  0  2  0  0  0  0  0  0  0  0  0
  146.2820   73.2780  219.2460 O   0  0  0  0  0  0  0  0  0  0  0  0
  144.5600   74.4440  220.4810 C   0  0  0  0  0  0  0  0  0  0  0  0
  143.0820   74.5610  220.2900 C   0  0  1  0  0  0  0  0  0  0  0  0
  142.7410   75.7820  219.4970 C   0  0  0  0  0  0  0  0  0  0  0  0
  142.3450   75.8200  218.2170 N   0  0  0  0  0  0  0  0  0  0  0  0
  142.1310   77.0910  217.8460 C   0  0  0  0  0  0  0  0  0  0  0  0
  142.4120   77.8730  218.9610 C   0  0  0  0  0  0  0  0  0  0  0  0
  142.7840   77.0470  219.9560 N   0  0  0  0  0  0  0  0  0  0  0  0
  140.0650   76.7460  222.0700 C   0  0  0  0  0  0  0  0  0  0  0  0
  138.9200   77.4000  222.4670 C   0  0  0  0  0  0  0  0  0  0  0  0
  139.0110   78.7030  222.9500 C   0  0  0  0  0  0  0  0  0  0  0  0
  140.2490   79.3480  223.0340 C   0  0  0  0  0  0  0  0  0  0  0  0
  140.3700   80.6380  223.5070 C   0  0  0  0  0  0  0  0  0  0  0  0
  141.6080   81.2380  223.5740 C   0  0  0  0  0  0  0  0  0  0  0  0
  142.7060   80.5160  223.1570 C   0  0  0  0  0  0  0  0  0  0  0  0
  142.6210   79.2230  222.6770 C   0  0  0  0  0  0  0  0  0  0  0  0
  141.3690   78.6380  222.6180 C   0  0  0  0  0  0  0  0  0  0  0  0
  141.2590   77.3710  222.1520 N   0  0  0  0  0  0  0  0  0  0  0  0
  140.5830   75.9250  219.6330 H   0  0  0  0  0  0  0  0  0  0  0  0
  139.7263   73.1107  220.3870 H   0  0  0  0  0  0  0  0  0  0  0  0
  139.5903   73.9154  218.7015 H   0  0  0  0  0  0  0  0  0  0  0  0
  144.1667   71.8684  219.9029 H   0  0  0  0  0  0  0  0  0  0  0  0
  143.9039   72.1084  218.1990 H   0  0  0  0  0  0  0  0  0  0  0  0
  145.0493   74.4441  218.3217 H   0  0  0  0  0  0  0  0  0  0  0  0
  146.8920   74.0170  219.0480 H   0  0  0  0  0  0  0  0  0  0  0  0
  144.7999   73.8210  221.3553 H   0  0  0  0  0  0  0  0  0  0  0  0
  145.0557   75.4077  220.6698 H   0  0  0  0  0  0  0  0  0  0  0  0
  142.5487   74.6289  221.2497 H   0  0  0  0  0  0  0  0  0  0  0  0
  141.7998   77.4439  216.8582 H   0  0  0  0  0  0  0  0  0  0  0  0
  142.3427   78.9693  219.0191 H   0  0  0  0  0  0  0  0  0  0  0  0
  143.0540   77.3630  220.9140 H   0  0  0  0  0  0  0  0  0  0  0  0
  137.9432   76.8982  222.4032 H   0  0  0  0  0  0  0  0  0  0  0  0
  138.0997   79.2303  223.2687 H   0  0  0  0  0  0  0  0  0  0  0  0
  139.4752   81.1892  223.8317 H   0  0  0  0  0  0  0  0  0  0  0  0
  141.7177   82.2658  223.9502 H   0  0  0  0  0  0  0  0  0  0  0  0
  143.6965   80.9917  223.2088 H   0  0  0  0  0  0  0  0  0  0  0  0
  143.5192   78.6771  222.3526 H   0  0  0  0  0  0  0  0  0  0  0  0
  1  2  2  0
  2  3  1  0
  3  4  1  0
  4  5  1  0
  5  6  2  0
  5  7  1  0
  7  8  1  0
  8  9  1  0
  9 10  1  0
  9 11  1  0
 11 12  1  0
 12 13  1  0
 13 14  2  0
 14 15  1  0
 15 16  2  0
 16 17  1  0
  2 18  1  0
 18 19  2  0
 19 20  1  0
 20 21  2  0
 21 22  1  0
 22 23  2  0
 23 24  1  0
 24 25  2  0
 25 26  1  0
 26 27  2  0
 12  7  1  0
 17 13  1  0
 27 18  1  0
 26 21  1  0
  3 28  1  0
  4 29  1  0
  4 30  1  0
  8 31  1  0
  8 32  1  0
  9 33  1  6
 10 34  1  0
 11 35  1  0
 11 36  1  0
 12 37  1  1
 15 38  1  0
 16 39  1  0
 17 40  1  0
 19 41  1  0
 20 42  1  0
 22 43  1  0
 23 44  1  0
 24 45  1  0
 25 46  1  0
M  END
>  <smiles>  (18) 
O=C(NCC(=O)N1C[C@H](O)C[C@H]1c1ncc[nH]1)c1ccc2ccccc2n1

>  <score_type>  (18) 
oracle

>  <origin>  (18) 
autodockgpu

>  <m_score__min__energy>  (18) 
-8.2100000000000009

>  <m_primary>  (18) 
energy

>  <rmsd>  (18) 
7.09761931739942

>  <m_score__min__rmsd>  (18) 
7.09761931739942

>  <meeko>  (18) 
{"free_energy": -7.23, "intermolecular_energy": -9.02, "internal_energy": -2.65, "cluster_size": 33, "cluster_id": 3, "rank_in_cluster": 28}

>  <energy>  (18) 
-7.84

>  <cluster_rmsd>  (18) 
0.05

>  <cluster>  (18) 
3

$$$$

     RDKit          3D

 46 49  0  0  0  0  0  0  0  0999 V2000
  138.6260   75.5210  221.7600 O   0  0  0  0  0  0  0  0  0  0  0  0
  139.8250   75.8690  222.0240 C   0  0  0  0  0  0  0  0  0  0  0  0
  140.8980   74.9200  221.9110 N   0  0  0  0  0  0  0  0  0  0  0  0
  140.7060   73.5630  221.4960 C   0  0  0  0  0  0  0  0  0  0  0  0
  141.6010   72.9920  220.5040 C   0  0  0  0  0  0  0  0  0  0  0  0
  140.9890   72.4100  219.5080 O   0  0  0  0  0  0  0  0  0  0  0  0
  143.0200   72.9780  220.4770 N   0  0  0  0  0  0  0  0  0  0  0  0
  143.9450   71.9160  220.1290 C   0  0  0  0  0  0  0  0  0  0  0  0
  145.1760   72.7240  219.6540 C   0  0  2  0  0  0  0  0  0  0  0  0
  146.3020   71.9420  219.5890 O   0  0  0  0  0  0  0  0  0  0  0  0
  145.2080   73.7470  220.7700 C   0  0  0  0  0  0  0  0  0  0  0  0
  143.7820   74.1890  220.8440 C   0  0  1  0  0  0  0  0  0  0  0  0
  143.4980   75.2500  219.8320 C   0  0  0  0  0  0  0  0  0  0  0  0
  143.7490   75.1890  218.5160 N   0  0  0  0  0  0  0  0  0  0  0  0
  143.3600   76.3290  217.9260 C   0  0  0  0  0  0  0  0  0  0  0  0
  142.8440   77.1320  218.9370 C   0  0  0  0  0  0  0  0  0  0  0  0
  142.9410   76.4480  220.0920 N   0  0  0  0  0  0  0  0  0  0  0  0
  140.1050   77.2570  222.4500 C   0  0  0  0  0  0  0  0  0  0  0  0
  139.0450   78.0920  222.7230 C   0  0  0  0  0  0  0  0  0  0  0  0
  139.2940   79.4020  223.1250 C   0  0  0  0  0  0  0  0  0  0  0  0
  140.6050   79.8730  223.2530 C   0  0  0  0  0  0  0  0  0  0  0  0
  140.8820   81.1640  223.6480 C   0  0  0  0  0  0  0  0  0  0  0  0
  142.1860   81.5900  223.7620 C   0  0  0  0  0  0  0  0  0  0  0  0
  143.1930   80.6920  223.4710 C   0  0  0  0  0  0  0  0  0  0  0  0
  142.9510   79.3920  223.0720 C   0  0  0  0  0  0  0  0  0  0  0  0
  141.6330   78.9850  222.9640 C   0  0  0  0  0  0  0  0  0  0  0  0
  141.3700   77.7140  222.5740 N   0  0  0  0  0  0  0  0  0  0  0  0
  141.8510   75.3200  222.1650 H   0  0  0  0  0  0  0  0  0  0  0  0
  140.7838   72.9372  222.3973 H   0  0  0  0  0  0  0  0  0  0  0  0
  139.7300   73.5800  220.9890 H   0  0  0  0  0  0  0  0  0  0  0  0
  144.1865   71.2913  221.0016 H   0  0  0  0  0  0  0  0  0  0  0  0
  143.5562   71.2092  219.3812 H   0  0  0  0  0  0  0  0  0  0  0  0
  145.1293   73.1477  218.6400 H   0  0  0  0  0  0  0  0  0  0  0  0
  146.4110   71.5140  220.4630 H   0  0  0  0  0  0  0  0  0  0  0  0
  145.5329   73.2920  221.7173 H   0  0  0  0  0  0  0  0  0  0  0  0
  145.9139   74.5711  220.5896 H   0  0  0  0  0  0  0  0  0  0  0  0
  143.5306   74.5997  221.8330 H   0  0  0  0  0  0  0  0  0  0  0  0
  143.4343   76.5785  216.8572 H   0  0  0  0  0  0  0  0  0  0  0  0
  142.4309   78.1441  218.8148 H   0  0  0  0  0  0  0  0  0  0  0  0
  142.6280   76.8110  221.0200 H   0  0  0  0  0  0  0  0  0  0  0  0
  138.0116   77.7281  222.6246 H   0  0  0  0  0  0  0  0  0  0  0  0
  138.4508   80.0735  223.3442 H   0  0  0  0  0  0  0  0  0  0  0  0
  140.0577   81.8568  223.8731 H   0  0  0  0  0  0  0  0  0  0  0  0
  142.4191   82.6180  224.0764 H   0  0  0  0  0  0  0  0  0  0  0  0
  144.2368   81.0273  223.5610 H   0  0  0  0  0  0  0  0  0  0  0  0
  143.7787   78.7031  222.8476 H   0  0  0  0  0  0  0  0  0  0  0  0
  1  2  2  0
  2  3  1  0
  3  4  1  0
  4  5  1  0
  5  6  2  0
  5  7  1  0
  7  8  1  0
  8  9  1  0
  9 10  1  0
  9 11  1  0
 11 12  1  0
 12 13  1  0
 13 14  2  0
 14 15  1  0
 15 16  2  0
 16 17  1  0
  2 18  1  0
 18 19  2  0
 19 20  1  0
 20 21  2  0
 21 22  1  0
 22 23  2  0
 23 24  1  0
 24 25  2  0
 25 26  1  0
 26 27  2  0
 12  7  1  0
 17 13  1  0
 27 18  1  0
 26 21  1  0
  3 28  1  0
  4 29  1  0
  4 30  1  0
  8 31  1  0
  8 32  1  0
  9 33  1  6
 10 34  1  0
 11 35  1  0
 11 36  1  0
 12 37  1  1
 15 38  1  0
 16 39  1  0
 17 40  1  0
 19 41  1  0
 20 42  1  0
 22 43  1  0
 23 44  1  0
 24 45  1  0
 25 46  1  0
M  END
>  <smiles>  (19) 
O=C(NCC(=O)N1C[C@H](O)C[C@H]1c1ncc[nH]1)c1ccc2ccccc2n1

>  <score_type>  (19) 
oracle

>  <origin>  (19) 
autodockgpu

>  <m_score__min__energy>  (19) 
-8.2100000000000009

>  <m_primary>  (19) 
energy

>  <rmsd>  (19) 
7.474792404307487

>  <m_score__min__rmsd>  (19) 
7.474792404307487

>  <meeko>  (19) 
{"free_energy": -7.86, "intermolecular_energy": -9.65, "internal_energy": -2.59, "cluster_size": 33, "cluster_id": 3, "rank_in_cluster": 1}

>  <energy>  (19) 
-7.82

>  <cluster_rmsd>  (19) 
0.83

>  <cluster>  (19) 
3

$$$$

     RDKit          3D

 46 49  0  0  0  0  0  0  0  0999 V2000
  139.1050   76.0320  222.6420 O   0  0  0  0  0  0  0  0  0  0  0  0
  140.2810   76.3840  222.2930 C   0  0  0  0  0  0  0  0  0  0  0  0
  141.2070   75.4130  221.7790 N   0  0  0  0  0  0  0  0  0  0  0  0
  140.8830   74.0270  221.6190 C   0  0  0  0  0  0  0  0  0  0  0  0
  141.6990   73.2060  220.7410 C   0  0  0  0  0  0  0  0  0  0  0  0
  141.0160   72.3740  220.0030 O   0  0  0  0  0  0  0  0  0  0  0  0
  143.1100   73.1840  220.5880 N   0  0  0  0  0  0  0  0  0  0  0  0
  144.0160   72.0740  220.3660 C   0  0  0  0  0  0  0  0  0  0  0  0
  145.1870   72.7730  219.6330 C   0  0  2  0  0  0  0  0  0  0  0  0
  146.3140   71.9910  219.6160 O   0  0  0  0  0  0  0  0  0  0  0  0
  145.3040   73.9910  220.5260 C   0  0  0  0  0  0  0  0  0  0  0  0
  143.8830   74.4410  220.6450 C   0  0  1  0  0  0  0  0  0  0  0  0
  143.4920   75.2900  219.4790 C   0  0  0  0  0  0  0  0  0  0  0  0
  142.5230   76.2160  219.4530 N   0  0  0  0  0  0  0  0  0  0  0  0
  142.4610   76.7730  218.2340 C   0  0  0  0  0  0  0  0  0  0  0  0
  143.4460   76.1530  217.4740 C   0  0  0  0  0  0  0  0  0  0  0  0
  144.0600   75.2500  218.2600 N   0  0  0  0  0  0  0  0  0  0  0  0
  140.6860   77.8010  222.4190 C   0  0  0  0  0  0  0  0  0  0  0  0
  141.4590   78.1740  223.4960 C   0  0  0  0  0  0  0  0  0  0  0  0
  141.8480   79.5040  223.6280 C   0  0  0  0  0  0  0  0  0  0  0  0
  141.4630   80.4590  222.6810 C   0  0  0  0  0  0  0  0  0  0  0  0
  141.8320   81.7830  222.7850 C   0  0  0  0  0  0  0  0  0  0  0  0
  141.4330   82.6920  221.8310 C   0  0  0  0  0  0  0  0  0  0  0  0
  140.6600   82.2390  220.7820 C   0  0  0  0  0  0  0  0  0  0  0  0
  140.2710   80.9200  220.6460 C   0  0  0  0  0  0  0  0  0  0  0  0
  140.6830   80.0230  221.6160 C   0  0  0  0  0  0  0  0  0  0  0  0
  140.3150   78.7240  221.5050 N   0  0  0  0  0  0  0  0  0  0  0  0
  142.1580   75.8200  221.5290 H   0  0  0  0  0  0  0  0  0  0  0  0
  140.9254   73.5694  222.6184 H   0  0  0  0  0  0  0  0  0  0  0  0
  139.9005   74.0430  221.1245 H   0  0  0  0  0  0  0  0  0  0  0  0
  144.3456   71.6282  221.3161 H   0  0  0  0  0  0  0  0  0  0  0  0
  143.5719   71.2377  219.8062 H   0  0  0  0  0  0  0  0  0  0  0  0
  145.0422   72.9940  218.5652 H   0  0  0  0  0  0  0  0  0  0  0  0
  146.3510   71.5130  220.4700 H   0  0  0  0  0  0  0  0  0  0  0  0
  145.7207   73.7252  221.5087 H   0  0  0  0  0  0  0  0  0  0  0  0
  145.9775   74.7642  220.1279 H   0  0  0  0  0  0  0  0  0  0  0  0
  143.7154   75.0335  221.5565 H   0  0  0  0  0  0  0  0  0  0  0  0
  141.7696   77.5618  217.9026 H   0  0  0  0  0  0  0  0  0  0  0  0
  143.6811   76.3628  216.4201 H   0  0  0  0  0  0  0  0  0  0  0  0
  144.8450   74.6340  217.9480 H   0  0  0  0  0  0  0  0  0  0  0  0
  141.7659   77.4285  224.2443 H   0  0  0  0  0  0  0  0  0  0  0  0
  142.4651   79.8075  224.4866 H   0  0  0  0  0  0  0  0  0  0  0  0
  142.4479   82.1148  223.6339 H   0  0  0  0  0  0  0  0  0  0  0  0
  141.7227   83.7507  221.9033 H   0  0  0  0  0  0  0  0  0  0  0  0
  140.3381   82.9618  220.0178 H   0  0  0  0  0  0  0  0  0  0  0  0
  139.6546   80.5940  219.7953 H   0  0  0  0  0  0  0  0  0  0  0  0
  1  2  2  0
  2  3  1  0
  3  4  1  0
  4  5  1  0
  5  6  2  0
  5  7  1  0
  7  8  1  0
  8  9  1  0
  9 10  1  0
  9 11  1  0
 11 12  1  0
 12 13  1  0
 13 14  2  0
 14 15  1  0
 15 16  2  0
 16 17  1  0
  2 18  1  0
 18 19  2  0
 19 20  1  0
 20 21  2  0
 21 22  1  0
 22 23  2  0
 23 24  1  0
 24 25  2  0
 25 26  1  0
 26 27  2  0
 12  7  1  0
 17 13  1  0
 27 18  1  0
 26 21  1  0
  3 28  1  0
  4 29  1  0
  4 30  1  0
  8 31  1  0
  8 32  1  0
  9 33  1  6
 10 34  1  0
 11 35  1  0
 11 36  1  0
 12 37  1  1
 15 38  1  0
 16 39  1  0
 17 40  1  0
 19 41  1  0
 20 42  1  0
 22 43  1  0
 23 44  1  0
 24 45  1  0
 25 46  1  0
M  END
>  <smiles>  (20) 
O=C(NCC(=O)N1C[C@H](O)C[C@H]1c1ncc[nH]1)c1ccc2ccccc2n1

>  <score_type>  (20) 
oracle

>  <origin>  (20) 
autodockgpu

>  <m_score__min__energy>  (20) 
-8.2100000000000009

>  <m_primary>  (20) 
energy

>  <rmsd>  (20) 
8.258013519914984

>  <m_score__min__rmsd>  (20) 
8.258013519914984

>  <meeko>  (20) 
{"free_energy": -7.33, "intermolecular_energy": -9.12, "internal_energy": -2.09, "cluster_size": 33, "cluster_id": 3, "rank_in_cluster": 24}

>  <energy>  (20) 
-7.82

>  <cluster_rmsd>  (20) 
0.07

>  <cluster>  (20) 
3

$$$$

     RDKit          3D

 46 49  0  0  0  0  0  0  0  0999 V2000
  139.9530   74.3830  222.3390 O   0  0  0  0  0  0  0  0  0  0  0  0
  140.2770   75.3680  221.5960 C   0  0  0  0  0  0  0  0  0  0  0  0
  140.6370   75.1530  220.2210 N   0  0  0  0  0  0  0  0  0  0  0  0
  140.6450   73.8600  219.6050 C   0  0  0  0  0  0  0  0  0  0  0  0
  141.5390   72.8360  220.1190 C   0  0  0  0  0  0  0  0  0  0  0  0
  140.9330   71.7500  220.5150 O   0  0  0  0  0  0  0  0  0  0  0  0
  142.9520   72.8620  220.2510 N   0  0  0  0  0  0  0  0  0  0  0  0
  143.9430   71.8380  219.9790 C   0  0  0  0  0  0  0  0  0  0  0  0
  145.1930   72.6940  219.6670 C   0  0  2  0  0  0  0  0  0  0  0  0
  146.3430   71.9460  219.7070 O   0  0  0  0  0  0  0  0  0  0  0  0
  145.0700   73.6820  220.8070 C   0  0  0  0  0  0  0  0  0  0  0  0
  143.6310   74.0820  220.7340 C   0  0  1  0  0  0  0  0  0  0  0  0
  143.4280   75.1660  219.7250 C   0  0  0  0  0  0  0  0  0  0  0  0
  143.5380   75.0510  218.3940 N   0  0  0  0  0  0  0  0  0  0  0  0
  143.2860   76.2340  217.8140 C   0  0  0  0  0  0  0  0  0  0  0  0
  143.0080   77.1210  218.8480 C   0  0  0  0  0  0  0  0  0  0  0  0
  143.1030   76.4410  220.0060 N   0  0  0  0  0  0  0  0  0  0  0  0
  140.2820   76.7360  222.1570 C   0  0  0  0  0  0  0  0  0  0  0  0
  139.0870   77.2900  222.5600 C   0  0  0  0  0  0  0  0  0  0  0  0
  139.0770   78.5770  223.0910 C   0  0  0  0  0  0  0  0  0  0  0  0
  140.2630   79.3070  223.2170 C   0  0  0  0  0  0  0  0  0  0  0  0
  140.2840   80.5840  223.7380 C   0  0  0  0  0  0  0  0  0  0  0  0
  141.4730   81.2700  223.8460 C   0  0  0  0  0  0  0  0  0  0  0  0
  142.6260   80.6460  223.4200 C   0  0  0  0  0  0  0  0  0  0  0  0
  142.6420   79.3680  222.8920 C   0  0  0  0  0  0  0  0  0  0  0  0
  141.4370   78.6970  222.7930 C   0  0  0  0  0  0  0  0  0  0  0  0
  141.4260   77.4430  222.2800 N   0  0  0  0  0  0  0  0  0  0  0  0
  140.8970   76.0450  219.7020 H   0  0  0  0  0  0  0  0  0  0  0  0
  139.6225   73.4615  219.6806 H   0  0  0  0  0  0  0  0  0  0  0  0
  141.0254   74.0551  218.5915 H   0  0  0  0  0  0  0  0  0  0  0  0
  144.1058   71.1935  220.8554 H   0  0  0  0  0  0  0  0  0  0  0  0
  143.6617   71.1444  219.1729 H   0  0  0  0  0  0  0  0  0  0  0  0
  145.2453   73.1473  218.6661 H   0  0  0  0  0  0  0  0  0  0  0  0
  146.3590   71.4800  220.5680 H   0  0  0  0  0  0  0  0  0  0  0  0
  145.3022   73.2070  221.7716 H   0  0  0  0  0  0  0  0  0  0  0  0
  145.7657   74.5305  220.7292 H   0  0  0  0  0  0  0  0  0  0  0  0
  143.2592   74.4550  221.6997 H   0  0  0  0  0  0  0  0  0  0  0  0
  143.2971   76.4574  216.7370 H   0  0  0  0  0  0  0  0  0  0  0  0
  142.7559   78.1862  218.7395 H   0  0  0  0  0  0  0  0  0  0  0  0
  142.9440   76.8600  220.9490 H   0  0  0  0  0  0  0  0  0  0  0  0
  138.1503   76.7215  222.4633 H   0  0  0  0  0  0  0  0  0  0  0  0
  138.1258   79.0245  223.4150 H   0  0  0  0  0  0  0  0  0  0  0  0
  139.3471   81.0562  224.0686 H   0  0  0  0  0  0  0  0  0  0  0  0
  141.5020   82.2883  224.2609 H   0  0  0  0  0  0  0  0  0  0  0  0
  143.5782   81.1903  223.5040 H   0  0  0  0  0  0  0  0  0  0  0  0
  143.5816   78.9009  222.5619 H   0  0  0  0  0  0  0  0  0  0  0  0
  1  2  2  0
  2  3  1  0
  3  4  1  0
  4  5  1  0
  5  6  2  0
  5  7  1  0
  7  8  1  0
  8  9  1  0
  9 10  1  0
  9 11  1  0
 11 12  1  0
 12 13  1  0
 13 14  2  0
 14 15  1  0
 15 16  2  0
 16 17  1  0
  2 18  1  0
 18 19  2  0
 19 20  1  0
 20 21  2  0
 21 22  1  0
 22 23  2  0
 23 24  1  0
 24 25  2  0
 25 26  1  0
 26 27  2  0
 12  7  1  0
 17 13  1  0
 27 18  1  0
 26 21  1  0
  3 28  1  0
  4 29  1  0
  4 30  1  0
  8 31  1  0
  8 32  1  0
  9 33  1  6
 10 34  1  0
 11 35  1  0
 11 36  1  0
 12 37  1  1
 15 38  1  0
 16 39  1  0
 17 40  1  0
 19 41  1  0
 20 42  1  0
 22 43  1  0
 23 44  1  0
 24 45  1  0
 25 46  1  0
M  END
>  <smiles>  (21) 
O=C(NCC(=O)N1C[C@H](O)C[C@H]1c1ncc[nH]1)c1ccc2ccccc2n1

>  <score_type>  (21) 
oracle

>  <origin>  (21) 
autodockgpu

>  <m_score__min__energy>  (21) 
-8.2100000000000009

>  <m_primary>  (21) 
energy

>  <rmsd>  (21) 
7.263027984979031

>  <m_score__min__rmsd>  (21) 
7.263027984979031

>  <meeko>  (21) 
{"free_energy": -7.82, "intermolecular_energy": -9.61, "internal_energy": -2.36, "cluster_size": 33, "cluster_id": 3, "rank_in_cluster": 3}

>  <energy>  (21) 
-7.81

>  <cluster_rmsd>  (21) 
0.15

>  <cluster>  (21) 
3

$$$$

     RDKit          3D

 46 49  0  0  0  0  0  0  0  0999 V2000
  139.8840   74.4120  222.3350 O   0  0  0  0  0  0  0  0  0  0  0  0
  140.1270   75.3880  221.5490 C   0  0  0  0  0  0  0  0  0  0  0  0
  140.2730   75.1630  220.1370 N   0  0  0  0  0  0  0  0  0  0  0  0
  140.1490   73.8720  219.5300 C   0  0  0  0  0  0  0  0  0  0  0  0
  141.3420   73.0670  219.3280 C   0  0  0  0  0  0  0  0  0  0  0  0
  141.1090   71.8890  218.8170 O   0  0  0  0  0  0  0  0  0  0  0  0
  142.6960   73.3830  219.6140 N   0  0  0  0  0  0  0  0  0  0  0  0
  143.9130   72.6430  219.3390 C   0  0  0  0  0  0  0  0  0  0  0  0
  144.9560   73.7840  219.2590 C   0  0  2  0  0  0  0  0  0  0  0  0
  146.2400   73.3050  219.3390 O   0  0  0  0  0  0  0  0  0  0  0  0
  144.5180   74.5630  220.4820 C   0  0  0  0  0  0  0  0  0  0  0  0
  143.0370   74.6460  220.2990 C   0  0  1  0  0  0  0  0  0  0  0  0
  142.6720   75.7830  219.4000 C   0  0  0  0  0  0  0  0  0  0  0  0
  142.2370   75.6950  218.1350 N   0  0  0  0  0  0  0  0  0  0  0  0
  142.0120   76.9240  217.6470 C   0  0  0  0  0  0  0  0  0  0  0  0
  142.3280   77.8120  218.6690 C   0  0  0  0  0  0  0  0  0  0  0  0
  142.7300   77.0870  219.7300 N   0  0  0  0  0  0  0  0  0  0  0  0
  140.2580   76.7540  222.0990 C   0  0  0  0  0  0  0  0  0  0  0  0
  139.1290   77.3890  222.5680 C   0  0  0  0  0  0  0  0  0  0  0  0
  139.2380   78.6760  223.0890 C   0  0  0  0  0  0  0  0  0  0  0  0
  140.4760   79.3240  223.1400 C   0  0  0  0  0  0  0  0  0  0  0  0
  140.6150   80.5970  223.6500 C   0  0  0  0  0  0  0  0  0  0  0  0
  141.8520   81.2010  223.6830 C   0  0  0  0  0  0  0  0  0  0  0  0
  142.9330   80.4980  223.1950 C   0  0  0  0  0  0  0  0  0  0  0  0
  142.8310   79.2210  222.6760 C   0  0  0  0  0  0  0  0  0  0  0  0
  141.5790   78.6330  222.6520 C   0  0  0  0  0  0  0  0  0  0  0  0
  141.4530   77.3810  222.1490 N   0  0  0  0  0  0  0  0  0  0  0  0
  140.4820   76.0480  219.5830 H   0  0  0  0  0  0  0  0  0  0  0  0
  139.4673   73.2837  220.1618 H   0  0  0  0  0  0  0  0  0  0  0  0
  139.8069   74.0945  218.5085 H   0  0  0  0  0  0  0  0  0  0  0  0
  144.1481   71.9398  220.1516 H   0  0  0  0  0  0  0  0  0  0  0  0
  143.8630   72.0167  218.4361 H   0  0  0  0  0  0  0  0  0  0  0  0
  144.9841   74.3656  218.3258 H   0  0  0  0  0  0  0  0  0  0  0  0
  146.8420   74.0730  219.2700 H   0  0  0  0  0  0  0  0  0  0  0  0
  144.7748   74.0271  221.4077 H   0  0  0  0  0  0  0  0  0  0  0  0
  145.0044   75.5454  220.5737 H   0  0  0  0  0  0  0  0  0  0  0  0
  142.5142   74.7982  221.2548 H   0  0  0  0  0  0  0  0  0  0  0  0
  141.6500   77.1783  216.6399 H   0  0  0  0  0  0  0  0  0  0  0  0
  142.2616   78.9089  218.6197 H   0  0  0  0  0  0  0  0  0  0  0  0
  143.0300   77.4950  220.6430 H   0  0  0  0  0  0  0  0  0  0  0  0
  138.1519   76.8850  222.5314 H   0  0  0  0  0  0  0  0  0  0  0  0
  138.3401   79.1885  223.4646 H   0  0  0  0  0  0  0  0  0  0  0  0
  139.7337   81.1328  224.0324 H   0  0  0  0  0  0  0  0  0  0  0  0
  141.9744   82.2165  224.0876 H   0  0  0  0  0  0  0  0  0  0  0  0
  143.9234   80.9760  223.2199 H   0  0  0  0  0  0  0  0  0  0  0  0
  143.7157   78.6900  222.2948 H   0  0  0  0  0  0  0  0  0  0  0  0
  1  2  2  0
  2  3  1  0
  3  4  1  0
  4  5  1  0
  5  6  2  0
  5  7  1  0
  7  8  1  0
  8  9  1  0
  9 10  1  0
  9 11  1  0
 11 12  1  0
 12 13  1  0
 13 14  2  0
 14 15  1  0
 15 16  2  0
 16 17  1  0
  2 18  1  0
 18 19  2  0
 19 20  1  0
 20 21  2  0
 21 22  1  0
 22 23  2  0
 23 24  1  0
 24 25  2  0
 25 26  1  0
 26 27  2  0
 12  7  1  0
 17 13  1  0
 27 18  1  0
 26 21  1  0
  3 28  1  0
  4 29  1  0
  4 30  1  0
  8 31  1  0
  8 32  1  0
  9 33  1  6
 10 34  1  0
 11 35  1  0
 11 36  1  0
 12 37  1  1
 15 38  1  0
 16 39  1  0
 17 40  1  0
 19 41  1  0
 20 42  1  0
 22 43  1  0
 23 44  1  0
 24 45  1  0
 25 46  1  0
M  END
>  <smiles>  (22) 
O=C(NCC(=O)N1C[C@H](O)C[C@H]1c1ncc[nH]1)c1ccc2ccccc2n1

>  <score_type>  (22) 
oracle

>  <origin>  (22) 
autodockgpu

>  <m_score__min__energy>  (22) 
-8.2100000000000009

>  <m_primary>  (22) 
energy

>  <rmsd>  (22) 
7.104404409556498

>  <m_score__min__rmsd>  (22) 
7.104404409556498

>  <meeko>  (22) 
{"free_energy": -7.21, "intermolecular_energy": -9.0, "internal_energy": -2.38, "cluster_size": 33, "cluster_id": 3, "rank_in_cluster": 30}

>  <energy>  (22) 
-7.79

>  <cluster_rmsd>  (22) 
0.88

>  <cluster>  (22) 
3

$$$$

     RDKit          3D

 46 49  0  0  0  0  0  0  0  0999 V2000
  140.1670   73.4060  222.3690 O   0  0  0  0  0  0  0  0  0  0  0  0
  140.2750   72.1340  222.3590 C   0  0  0  0  0  0  0  0  0  0  0  0
  140.4860   71.4330  221.1220 N   0  0  0  0  0  0  0  0  0  0  0  0
  140.5960   72.0920  219.8550 C   0  0  0  0  0  0  0  0  0  0  0  0
  141.5040   73.2180  219.7190 C   0  0  0  0  0  0  0  0  0  0  0  0
  140.9300   74.3180  219.3140 O   0  0  0  0  0  0  0  0  0  0  0  0
  142.9020   73.2780  219.9570 N   0  0  0  0  0  0  0  0  0  0  0  0
  143.9190   72.2480  219.8600 C   0  0  0  0  0  0  0  0  0  0  0  0
  145.1830   73.0900  219.5660 C   0  0  2  0  0  0  0  0  0  0  0  0
  146.3320   72.3660  219.7650 O   0  0  0  0  0  0  0  0  0  0  0  0
  144.9630   74.1780  220.5960 C   0  0  0  0  0  0  0  0  0  0  0  0
  143.5310   74.5470  220.3740 C   0  0  1  0  0  0  0  0  0  0  0  0
  143.3990   75.5300  219.2560 C   0  0  0  0  0  0  0  0  0  0  0  0
  142.5940   76.6010  219.2230 N   0  0  0  0  0  0  0  0  0  0  0  0
  142.7460   77.2470  218.0570 C   0  0  0  0  0  0  0  0  0  0  0  0
  143.6960   76.5300  217.3380 C   0  0  0  0  0  0  0  0  0  0  0  0
  144.0770   75.4850  218.0940 N   0  0  0  0  0  0  0  0  0  0  0  0
  140.1820   71.3830  223.6300 C   0  0  0  0  0  0  0  0  0  0  0  0
  139.5800   70.1450  223.6240 C   0  0  0  0  0  0  0  0  0  0  0  0
  139.4860   69.4270  224.8130 C   0  0  0  0  0  0  0  0  0  0  0  0
  139.9950   69.9510  226.0060 C   0  0  0  0  0  0  0  0  0  0  0  0
  139.9160   69.2640  227.1990 C   0  0  0  0  0  0  0  0  0  0  0  0
  140.4290   69.8140  228.3520 C   0  0  0  0  0  0  0  0  0  0  0  0
  141.0170   71.0590  228.2740 C   0  0  0  0  0  0  0  0  0  0  0  0
  141.1130   71.7760  227.0960 C   0  0  0  0  0  0  0  0  0  0  0  0
  140.5910   71.2050  225.9500 C   0  0  0  0  0  0  0  0  0  0  0  0
  140.6730   71.8880  224.7820 N   0  0  0  0  0  0  0  0  0  0  0  0
  140.5520   70.3770  221.2350 H   0  0  0  0  0  0  0  0  0  0  0  0
  140.9130   71.3333  219.1244 H   0  0  0  0  0  0  0  0  0  0  0  0
  139.6017   72.5376  219.7043 H   0  0  0  0  0  0  0  0  0  0  0  0
  144.0178   71.6907  220.8032 H   0  0  0  0  0  0  0  0  0  0  0  0
  143.7070   71.4779  219.1037 H   0  0  0  0  0  0  0  0  0  0  0  0
  145.3103   73.4491  218.5341 H   0  0  0  0  0  0  0  0  0  0  0  0
  146.2250   71.8730  220.6030 H   0  0  0  0  0  0  0  0  0  0  0  0
  145.1224   73.7982  221.6160 H   0  0  0  0  0  0  0  0  0  0  0  0
  145.6559   75.0262  220.4936 H   0  0  0  0  0  0  0  0  0  0  0  0
  143.0813   75.0020  221.2688 H   0  0  0  0  0  0  0  0  0  0  0  0
  142.2241   78.1601  217.7347 H   0  0  0  0  0  0  0  0  0  0  0  0
  144.0687   76.7736  216.3321 H   0  0  0  0  0  0  0  0  0  0  0  0
  144.7850   74.7730  217.8020 H   0  0  0  0  0  0  0  0  0  0  0  0
  139.1774   69.7274  222.6894 H   0  0  0  0  0  0  0  0  0  0  0  0
  139.0063   68.4371  224.8144 H   0  0  0  0  0  0  0  0  0  0  0  0
  139.4411   68.2723  227.2295 H   0  0  0  0  0  0  0  0  0  0  0  0
  140.3715   69.2752  229.3093 H   0  0  0  0  0  0  0  0  0  0  0  0
  141.4290   71.5024  229.1925 H   0  0  0  0  0  0  0  0  0  0  0  0
  141.5887   72.7675  227.0712 H   0  0  0  0  0  0  0  0  0  0  0  0
  1  2  2  0
  2  3  1  0
  3  4  1  0
  4  5  1  0
  5  6  2  0
  5  7  1  0
  7  8  1  0
  8  9  1  0
  9 10  1  0
  9 11  1  0
 11 12  1  0
 12 13  1  0
 13 14  2  0
 14 15  1  0
 15 16  2  0
 16 17  1  0
  2 18  1  0
 18 19  2  0
 19 20  1  0
 20 21  2  0
 21 22  1  0
 22 23  2  0
 23 24  1  0
 24 25  2  0
 25 26  1  0
 26 27  2  0
 12  7  1  0
 17 13  1  0
 27 18  1  0
 26 21  1  0
  3 28  1  0
  4 29  1  0
  4 30  1  0
  8 31  1  0
  8 32  1  0
  9 33  1  6
 10 34  1  0
 11 35  1  0
 11 36  1  0
 12 37  1  1
 15 38  1  0
 16 39  1  0
 17 40  1  0
 19 41  1  0
 20 42  1  0
 22 43  1  0
 23 44  1  0
 24 45  1  0
 25 46  1  0
M  END
>  <smiles>  (23) 
O=C(NCC(=O)N1C[C@H](O)C[C@H]1c1ncc[nH]1)c1ccc2ccccc2n1

>  <score_type>  (23) 
oracle

>  <origin>  (23) 
autodockgpu

>  <m_score__min__energy>  (23) 
-8.2100000000000009

>  <m_primary>  (23) 
energy

>  <rmsd>  (23) 
3.9644625195450285

>  <m_score__min__rmsd>  (23) 
3.9644625195450285

>  <meeko>  (23) 
{"free_energy": -8.15, "intermolecular_energy": -9.94, "internal_energy": -1.16, "cluster_size": 7, "cluster_id": 1, "rank_in_cluster": 2}

>  <energy>  (23) 
-7.75

>  <cluster_rmsd>  (23) 
0.19

>  <cluster>  (23) 
3

$$$$

     RDKit          3D

 46 49  0  0  0  0  0  0  0  0999 V2000
  138.6620   75.5860  221.6180 O   0  0  0  0  0  0  0  0  0  0  0  0
  139.8410   75.9150  221.9790 C   0  0  0  0  0  0  0  0  0  0  0  0
  140.9040   74.9490  221.9550 N   0  0  0  0  0  0  0  0  0  0  0  0
  140.7230   73.5940  221.5280 C   0  0  0  0  0  0  0  0  0  0  0  0
  141.6130   73.0440  220.5190 C   0  0  0  0  0  0  0  0  0  0  0  0
  140.9970   72.4770  219.5170 O   0  0  0  0  0  0  0  0  0  0  0  0
  143.0320   73.0370  220.4820 N   0  0  0  0  0  0  0  0  0  0  0  0
  143.9590   71.9780  220.1330 C   0  0  0  0  0  0  0  0  0  0  0  0
  145.1830   72.7880  219.6430 C   0  0  2  0  0  0  0  0  0  0  0  0
  146.3120   72.0110  219.5750 O   0  0  0  0  0  0  0  0  0  0  0  0
  145.2190   73.8180  220.7540 C   0  0  0  0  0  0  0  0  0  0  0  0
  143.7910   74.2530  220.8360 C   0  0  1  0  0  0  0  0  0  0  0  0
  143.4940   75.3070  219.8190 C   0  0  0  0  0  0  0  0  0  0  0  0
  143.7370   75.2400  218.5020 N   0  0  0  0  0  0  0  0  0  0  0  0
  143.3380   76.3740  217.9080 C   0  0  0  0  0  0  0  0  0  0  0  0
  142.8230   77.1800  218.9180 C   0  0  0  0  0  0  0  0  0  0  0  0
  142.9320   76.5030  220.0760 N   0  0  0  0  0  0  0  0  0  0  0  0
  140.1080   77.3000  222.4230 C   0  0  0  0  0  0  0  0  0  0  0  0
  139.0400   78.1190  222.7140 C   0  0  0  0  0  0  0  0  0  0  0  0
  139.2770   79.4260  223.1340 C   0  0  0  0  0  0  0  0  0  0  0  0
  140.5840   79.9090  223.2610 C   0  0  0  0  0  0  0  0  0  0  0  0
  140.8490   81.1980  223.6730 C   0  0  0  0  0  0  0  0  0  0  0  0
  142.1500   81.6360  223.7850 C   0  0  0  0  0  0  0  0  0  0  0  0
  143.1640   80.7550  223.4750 C   0  0  0  0  0  0  0  0  0  0  0  0
  142.9340   79.4570  223.0580 C   0  0  0  0  0  0  0  0  0  0  0  0
  141.6200   79.0370  222.9520 C   0  0  0  0  0  0  0  0  0  0  0  0
  141.3690   77.7690  222.5460 N   0  0  0  0  0  0  0  0  0  0  0  0
  141.8390   75.3340  222.2850 H   0  0  0  0  0  0  0  0  0  0  0  0
  140.8192   72.9598  222.4216 H   0  0  0  0  0  0  0  0  0  0  0  0
  139.7407   73.6045  221.0330 H   0  0  0  0  0  0  0  0  0  0  0  0
  144.2103   71.3597  221.0074 H   0  0  0  0  0  0  0  0  0  0  0  0
  143.5673   71.2653  219.3923 H   0  0  0  0  0  0  0  0  0  0  0  0
  145.1266   73.2047  218.6265 H   0  0  0  0  0  0  0  0  0  0  0  0
  146.4140   71.5670  220.4410 H   0  0  0  0  0  0  0  0  0  0  0  0
  145.5534   73.3698  221.7013 H   0  0  0  0  0  0  0  0  0  0  0  0
  145.9196   74.6445  220.5641 H   0  0  0  0  0  0  0  0  0  0  0  0
  143.5453   74.6679  221.8247 H   0  0  0  0  0  0  0  0  0  0  0  0
  143.4045   76.6178  216.8374 H   0  0  0  0  0  0  0  0  0  0  0  0
  142.4025   78.1887  218.7928 H   0  0  0  0  0  0  0  0  0  0  0  0
  142.6220   76.8700  221.0040 H   0  0  0  0  0  0  0  0  0  0  0  0
  138.0102   77.7451  222.6158 H   0  0  0  0  0  0  0  0  0  0  0  0
  138.4279   80.0850  223.3682 H   0  0  0  0  0  0  0  0  0  0  0  0
  140.0188   81.8785  223.9130 H   0  0  0  0  0  0  0  0  0  0  0  0
  142.3740   82.6617  224.1132 H   0  0  0  0  0  0  0  0  0  0  0  0
  144.2045   81.1008  223.5635 H   0  0  0  0  0  0  0  0  0  0  0  0
  143.7679   78.7808  222.8185 H   0  0  0  0  0  0  0  0  0  0  0  0
  1  2  2  0
  2  3  1  0
  3  4  1  0
  4  5  1  0
  5  6  2  0
  5  7  1  0
  7  8  1  0
  8  9  1  0
  9 10  1  0
  9 11  1  0
 11 12  1  0
 12 13  1  0
 13 14  2  0
 14 15  1  0
 15 16  2  0
 16 17  1  0
  2 18  1  0
 18 19  2  0
 19 20  1  0
 20 21  2  0
 21 22  1  0
 22 23  2  0
 23 24  1  0
 24 25  2  0
 25 26  1  0
 26 27  2  0
 12  7  1  0
 17 13  1  0
 27 18  1  0
 26 21  1  0
  3 28  1  0
  4 29  1  0
  4 30  1  0
  8 31  1  0
  8 32  1  0
  9 33  1  6
 10 34  1  0
 11 35  1  0
 11 36  1  0
 12 37  1  1
 15 38  1  0
 16 39  1  0
 17 40  1  0
 19 41  1  0
 20 42  1  0
 22 43  1  0
 23 44  1  0
 24 45  1  0
 25 46  1  0
M  END
>  <smiles>  (24) 
O=C(NCC(=O)N1C[C@H](O)C[C@H]1c1ncc[nH]1)c1ccc2ccccc2n1

>  <score_type>  (24) 
oracle

>  <origin>  (24) 
autodockgpu

>  <m_score__min__energy>  (24) 
-8.2100000000000009

>  <m_primary>  (24) 
energy

>  <rmsd>  (24) 
7.485918935012801

>  <m_score__min__rmsd>  (24) 
7.485918935012801

>  <meeko>  (24) 
{"free_energy": -7.82, "intermolecular_energy": -9.61, "internal_energy": -2.6, "cluster_size": 33, "cluster_id": 3, "rank_in_cluster": 4}

>  <energy>  (24) 
-7.75

>  <cluster_rmsd>  (24) 
0.09

>  <cluster>  (24) 
3

$$$$

     RDKit          3D

 46 49  0  0  0  0  0  0  0  0999 V2000
  138.7080   75.4000  222.0350 O   0  0  0  0  0  0  0  0  0  0  0  0
  139.9060   75.8260  222.1390 C   0  0  0  0  0  0  0  0  0  0  0  0
  141.0140   74.9460  221.8870 N   0  0  0  0  0  0  0  0  0  0  0  0
  140.8570   73.5760  221.5030 C   0  0  0  0  0  0  0  0  0  0  0  0
  141.5380   73.0900  220.3150 C   0  0  0  0  0  0  0  0  0  0  0  0
  140.7410   72.5860  219.4130 O   0  0  0  0  0  0  0  0  0  0  0  0
  142.9260   73.0850  220.0150 N   0  0  0  0  0  0  0  0  0  0  0  0
  143.7350   72.1040  219.3180 C   0  0  0  0  0  0  0  0  0  0  0  0
  144.8780   72.9870  218.7620 C   0  0  2  0  0  0  0  0  0  0  0  0
  145.9470   72.2310  218.3480 O   0  0  0  0  0  0  0  0  0  0  0  0
  145.1530   73.7970  220.0120 C   0  0  0  0  0  0  0  0  0  0  0  0
  143.7800   74.2150  220.4330 C   0  0  1  0  0  0  0  0  0  0  0  0
  143.3430   75.4370  219.6930 C   0  0  0  0  0  0  0  0  0  0  0  0
  142.4670   76.3590  220.1190 N   0  0  0  0  0  0  0  0  0  0  0  0
  142.3230   77.3120  219.1850 C   0  0  0  0  0  0  0  0  0  0  0  0
  143.1550   76.9510  218.1310 C   0  0  0  0  0  0  0  0  0  0  0  0
  143.7660   75.8010  218.4690 N   0  0  0  0  0  0  0  0  0  0  0  0
  140.1490   77.2340  222.5210 C   0  0  0  0  0  0  0  0  0  0  0  0
  139.0670   78.0530  222.7510 C   0  0  0  0  0  0  0  0  0  0  0  0
  139.2810   79.3810  223.1120 C   0  0  0  0  0  0  0  0  0  0  0  0
  140.5790   79.8850  223.2420 C   0  0  0  0  0  0  0  0  0  0  0  0
  140.8220   81.1950  223.5970 C   0  0  0  0  0  0  0  0  0  0  0  0
  142.1150   81.6540  223.7150 C   0  0  0  0  0  0  0  0  0  0  0  0
  143.1450   80.7700  223.4680 C   0  0  0  0  0  0  0  0  0  0  0  0
  142.9380   79.4520  223.1100 C   0  0  0  0  0  0  0  0  0  0  0  0
  141.6310   79.0120  222.9970 C   0  0  0  0  0  0  0  0  0  0  0  0
  141.4020   77.7230  222.6470 N   0  0  0  0  0  0  0  0  0  0  0  0
  141.9650   75.4090  222.0130 H   0  0  0  0  0  0  0  0  0  0  0  0
  141.2069   72.9636  222.3471 H   0  0  0  0  0  0  0  0  0  0  0  0
  139.7909   73.4977  221.2437 H   0  0  0  0  0  0  0  0  0  0  0  0
  144.1184   71.3367  220.0067 H   0  0  0  0  0  0  0  0  0  0  0  0
  143.1900   71.5380  218.5482 H   0  0  0  0  0  0  0  0  0  0  0  0
  144.6530   73.5826  217.8650 H   0  0  0  0  0  0  0  0  0  0  0  0
  145.6300   71.6470  217.6300 H   0  0  0  0  0  0  0  0  0  0  0  0
  145.6367   73.1827  220.7858 H   0  0  0  0  0  0  0  0  0  0  0  0
  145.8379   74.6417  219.8463 H   0  0  0  0  0  0  0  0  0  0  0  0
  143.7322   74.4448  221.5077 H   0  0  0  0  0  0  0  0  0  0  0  0
  141.6766   78.2002  219.2419 H   0  0  0  0  0  0  0  0  0  0  0  0
  143.2894   77.5056  217.1906 H   0  0  0  0  0  0  0  0  0  0  0  0
  144.4510   75.2970  217.8610 H   0  0  0  0  0  0  0  0  0  0  0  0
  138.0435   77.6626  222.6507 H   0  0  0  0  0  0  0  0  0  0  0  0
  138.4201   80.0403  223.2968 H   0  0  0  0  0  0  0  0  0  0  0  0
  139.9795   81.8763  223.7868 H   0  0  0  0  0  0  0  0  0  0  0  0
  142.3209   82.6967  223.9984 H   0  0  0  0  0  0  0  0  0  0  0  0
  144.1797   81.1317  223.5605 H   0  0  0  0  0  0  0  0  0  0  0  0
  143.7840   78.7748  222.9210 H   0  0  0  0  0  0  0  0  0  0  0  0
  1  2  2  0
  2  3  1  0
  3  4  1  0
  4  5  1  0
  5  6  2  0
  5  7  1  0
  7  8  1  0
  8  9  1  0
  9 10  1  0
  9 11  1  0
 11 12  1  0
 12 13  1  0
 13 14  2  0
 14 15  1  0
 15 16  2  0
 16 17  1  0
  2 18  1  0
 18 19  2  0
 19 20  1  0
 20 21  2  0
 21 22  1  0
 22 23  2  0
 23 24  1  0
 24 25  2  0
 25 26  1  0
 26 27  2  0
 12  7  1  0
 17 13  1  0
 27 18  1  0
 26 21  1  0
  3 28  1  0
  4 29  1  0
  4 30  1  0
  8 31  1  0
  8 32  1  0
  9 33  1  6
 10 34  1  0
 11 35  1  0
 11 36  1  0
 12 37  1  1
 15 38  1  0
 16 39  1  0
 17 40  1  0
 19 41  1  0
 20 42  1  0
 22 43  1  0
 23 44  1  0
 24 45  1  0
 25 46  1  0
M  END
>  <smiles>  (25) 
O=C(NCC(=O)N1C[C@H](O)C[C@H]1c1ncc[nH]1)c1ccc2ccccc2n1

>  <score_type>  (25) 
oracle

>  <origin>  (25) 
autodockgpu

>  <m_score__min__energy>  (25) 
-8.2100000000000009

>  <m_primary>  (25) 
energy

>  <rmsd>  (25) 
7.425331193198012

>  <m_score__min__rmsd>  (25) 
7.425331193198012

>  <meeko>  (25) 
{"free_energy": -7.25, "intermolecular_energy": -9.04, "internal_energy": -2.57, "cluster_size": 33, "cluster_id": 3, "rank_in_cluster": 27}

>  <energy>  (25) 
-7.61

>  <cluster_rmsd>  (25) 
0.82

>  <cluster>  (25) 
3

$$$$

     RDKit          3D

 46 49  0  0  0  0  0  0  0  0999 V2000
  141.4160   71.9400  221.7400 O   0  0  0  0  0  0  0  0  0  0  0  0
  140.4460   72.2000  222.5280 C   0  0  0  0  0  0  0  0  0  0  0  0
  139.5700   73.3070  222.2600 N   0  0  0  0  0  0  0  0  0  0  0  0
  139.7130   74.1640  221.1220 C   0  0  0  0  0  0  0  0  0  0  0  0
  140.7270   75.2040  221.1400 C   0  0  0  0  0  0  0  0  0  0  0  0
  141.0390   75.6210  222.3370 O   0  0  0  0  0  0  0  0  0  0  0  0
  141.4050   75.8170  220.0540 N   0  0  0  0  0  0  0  0  0  0  0  0
  141.5010   77.2130  219.6720 C   0  0  0  0  0  0  0  0  0  0  0  0
  142.8510   77.2320  218.9150 C   0  0  2  0  0  0  0  0  0  0  0  0
  142.9980   78.3750  218.1690 O   0  0  0  0  0  0  0  0  0  0  0  0
  142.6490   75.9830  218.0820 C   0  0  0  0  0  0  0  0  0  0  0  0
  142.1690   74.9940  219.0950 C   0  0  1  0  0  0  0  0  0  0  0  0
  143.3180   74.3700  219.8190 C   0  0  0  0  0  0  0  0  0  0  0  0
  144.4570   74.9750  220.1850 N   0  0  0  0  0  0  0  0  0  0  0  0
  145.2550   74.0990  220.8140 C   0  0  0  0  0  0  0  0  0  0  0  0
  144.5650   72.8920  220.8330 C   0  0  0  0  0  0  0  0  0  0  0  0
  143.3840   73.0860  220.2170 N   0  0  0  0  0  0  0  0  0  0  0  0
  140.2270   71.3530  223.7210 C   0  0  0  0  0  0  0  0  0  0  0  0
  139.5130   70.1840  223.5800 C   0  0  0  0  0  0  0  0  0  0  0  0
  139.3000   69.3770  224.6940 C   0  0  0  0  0  0  0  0  0  0  0  0
  139.8010   69.7430  225.9480 C   0  0  0  0  0  0  0  0  0  0  0  0
  139.6050   68.9650  227.0690 C   0  0  0  0  0  0  0  0  0  0  0  0
  140.1140   69.3600  228.2850 C   0  0  0  0  0  0  0  0  0  0  0  0
  140.8180   70.5450  228.3440 C   0  0  0  0  0  0  0  0  0  0  0  0
  141.0330   71.3490  227.2410 C   0  0  0  0  0  0  0  0  0  0  0  0
  140.5120   70.9340  226.0280 C   0  0  0  0  0  0  0  0  0  0  0  0
  140.7100   71.7050  224.9320 N   0  0  0  0  0  0  0  0  0  0  0  0
  138.8040   73.4320  222.9890 H   0  0  0  0  0  0  0  0  0  0  0  0
  139.9308   73.5180  220.2587 H   0  0  0  0  0  0  0  0  0  0  0  0
  138.7660   74.7230  221.0953 H   0  0  0  0  0  0  0  0  0  0  0  0
  140.6684   77.5087  219.0168 H   0  0  0  0  0  0  0  0  0  0  0  0
  141.4505   77.9145  220.5178 H   0  0  0  0  0  0  0  0  0  0  0  0
  143.7638   77.2363  219.5289 H   0  0  0  0  0  0  0  0  0  0  0  0
  143.7280   78.8910  218.5660 H   0  0  0  0  0  0  0  0  0  0  0  0
  141.8957   76.1459  217.2972 H   0  0  0  0  0  0  0  0  0  0  0  0
  143.5550   75.6601  217.5483 H   0  0  0  0  0  0  0  0  0  0  0  0
  141.5888   74.1818  218.6327 H   0  0  0  0  0  0  0  0  0  0  0  0
  146.2538   74.2959  221.2307 H   0  0  0  0  0  0  0  0  0  0  0  0
  144.9204   71.9483  221.2724 H   0  0  0  0  0  0  0  0  0  0  0  0
  142.6590   72.3450  220.0850 H   0  0  0  0  0  0  0  0  0  0  0  0
  139.1151   69.8910  222.5973 H   0  0  0  0  0  0  0  0  0  0  0  0
  138.7316   68.4413  224.5872 H   0  0  0  0  0  0  0  0  0  0  0  0
  139.0395   68.0247  226.9912 H   0  0  0  0  0  0  0  0  0  0  0  0
  139.9635   68.7472  229.1860 H   0  0  0  0  0  0  0  0  0  0  0  0
  141.2270   70.8645  229.3138 H   0  0  0  0  0  0  0  0  0  0  0  0
  141.5997   72.2881  227.3244 H   0  0  0  0  0  0  0  0  0  0  0  0
  1  2  2  0
  2  3  1  0
  3  4  1  0
  4  5  1  0
  5  6  2  0
  5  7  1  0
  7  8  1  0
  8  9  1  0
  9 10  1  0
  9 11  1  0
 11 12  1  0
 12 13  1  0
 13 14  2  0
 14 15  1  0
 15 16  2  0
 16 17  1  0
  2 18  1  0
 18 19  2  0
 19 20  1  0
 20 21  2  0
 21 22  1  0
 22 23  2  0
 23 24  1  0
 24 25  2  0
 25 26  1  0
 26 27  2  0
 12  7  1  0
 17 13  1  0
 27 18  1  0
 26 21  1  0
  3 28  1  0
  4 29  1  0
  4 30  1  0
  8 31  1  0
  8 32  1  0
  9 33  1  1
 10 34  1  0
 11 35  1  0
 11 36  1  0
 12 37  1  6
 15 38  1  0
 16 39  1  0
 17 40  1  0
 19 41  1  0
 20 42  1  0
 22 43  1  0
 23 44  1  0
 24 45  1  0
 25 46  1  0
M  END
>  <smiles>  (26) 
O=C(NCC(=O)N1C[C@H](O)C[C@H]1c1ncc[nH]1)c1ccc2ccccc2n1

>  <score_type>  (26) 
oracle

>  <origin>  (26) 
autodockgpu

>  <m_score__min__energy>  (26) 
-8.2100000000000009

>  <m_primary>  (26) 
energy

>  <rmsd>  (26) 
3.363279180160824

>  <m_score__min__rmsd>  (26) 
3.363279180160824

>  <meeko>  (26) 
{"free_energy": -7.62, "intermolecular_energy": -9.41, "internal_energy": -2.07, "cluster_size": 9, "cluster_id": 2, "rank_in_cluster": 5}

>  <energy>  (26) 
-7.53

>  <cluster_rmsd>  (26) 
0.29

>  <cluster>  (26) 
3

$$$$

     RDKit          3D

 46 49  0  0  0  0  0  0  0  0999 V2000
  138.5150   75.5510  221.9910 O   0  0  0  0  0  0  0  0  0  0  0  0
  139.7300   75.9340  222.0560 C   0  0  0  0  0  0  0  0  0  0  0  0
  140.7970   75.0160  221.7660 N   0  0  0  0  0  0  0  0  0  0  0  0
  140.5790   73.6530  221.3850 C   0  0  0  0  0  0  0  0  0  0  0  0
  141.5480   72.9930  220.5280 C   0  0  0  0  0  0  0  0  0  0  0  0
  141.0220   72.1580  219.6740 O   0  0  0  0  0  0  0  0  0  0  0  0
  142.9610   73.1290  220.5000 N   0  0  0  0  0  0  0  0  0  0  0  0
  143.9930   72.1660  220.1650 C   0  0  0  0  0  0  0  0  0  0  0  0
  145.1320   73.0920  219.6780 C   0  0  2  0  0  0  0  0  0  0  0  0
  146.3340   72.4320  219.6220 O   0  0  0  0  0  0  0  0  0  0  0  0
  145.0560   74.1280  220.7800 C   0  0  0  0  0  0  0  0  0  0  0  0
  143.5910   74.4180  220.8500 C   0  0  1  0  0  0  0  0  0  0  0  0
  143.1970   75.4300  219.8230 C   0  0  0  0  0  0  0  0  0  0  0  0
  143.2100   75.2660  218.4920 N   0  0  0  0  0  0  0  0  0  0  0  0
  142.7920   76.3910  217.8930 C   0  0  0  0  0  0  0  0  0  0  0  0
  142.5080   77.2920  218.9140 C   0  0  0  0  0  0  0  0  0  0  0  0
  142.7660   76.6780  220.0830 N   0  0  0  0  0  0  0  0  0  0  0  0
  140.0360   77.3310  222.4330 C   0  0  0  0  0  0  0  0  0  0  0  0
  138.9920   78.2110  222.6120 C   0  0  0  0  0  0  0  0  0  0  0  0
  139.2650   79.5300  222.9670 C   0  0  0  0  0  0  0  0  0  0  0  0
  140.5840   79.9640  223.1430 C   0  0  0  0  0  0  0  0  0  0  0  0
  140.8850   81.2630  223.4930 C   0  0  0  0  0  0  0  0  0  0  0  0
  142.1960   81.6510  223.6570 C   0  0  0  0  0  0  0  0  0  0  0  0
  143.1840   80.7090  223.4600 C   0  0  0  0  0  0  0  0  0  0  0  0
  142.9180   79.3990  223.1080 C   0  0  0  0  0  0  0  0  0  0  0  0
  141.5940   79.0310  222.9480 C   0  0  0  0  0  0  0  0  0  0  0  0
  141.3080   77.7520  222.6030 N   0  0  0  0  0  0  0  0  0  0  0  0
  141.7670   75.4440  221.8620 H   0  0  0  0  0  0  0  0  0  0  0  0
  140.5182   73.0657  222.3131 H   0  0  0  0  0  0  0  0  0  0  0  0
  139.6701   73.6964  220.7669 H   0  0  0  0  0  0  0  0  0  0  0  0
  144.2987   71.5819  221.0455 H   0  0  0  0  0  0  0  0  0  0  0  0
  143.6809   71.4125  219.4269 H   0  0  0  0  0  0  0  0  0  0  0  0
  145.0412   73.4946  218.6584 H   0  0  0  0  0  0  0  0  0  0  0  0
  146.3780   71.8390  220.3990 H   0  0  0  0  0  0  0  0  0  0  0  0
  145.4271   73.7228  221.7329 H   0  0  0  0  0  0  0  0  0  0  0  0
  145.6711   75.0194  220.5874 H   0  0  0  0  0  0  0  0  0  0  0  0
  143.2975   74.8129  221.8338 H   0  0  0  0  0  0  0  0  0  0  0  0
  142.6936   76.5660  216.8115 H   0  0  0  0  0  0  0  0  0  0  0  0
  142.1391   78.3207  218.7883 H   0  0  0  0  0  0  0  0  0  0  0  0
  142.6420   77.1210  221.0210 H   0  0  0  0  0  0  0  0  0  0  0  0
  137.9532   77.8758  222.4760 H   0  0  0  0  0  0  0  0  0  0  0  0
  138.4354   80.2379  223.1105 H   0  0  0  0  0  0  0  0  0  0  0  0
  140.0750   81.9922  223.6418 H   0  0  0  0  0  0  0  0  0  0  0  0
  142.4485   82.6842  223.9375 H   0  0  0  0  0  0  0  0  0  0  0  0
  144.2328   81.0145  223.5891 H   0  0  0  0  0  0  0  0  0  0  0  0
  143.7316   78.6736  222.9601 H   0  0  0  0  0  0  0  0  0  0  0  0
  1  2  2  0
  2  3  1  0
  3  4  1  0
  4  5  1  0
  5  6  2  0
  5  7  1  0
  7  8  1  0
  8  9  1  0
  9 10  1  0
  9 11  1  0
 11 12  1  0
 12 13  1  0
 13 14  2  0
 14 15  1  0
 15 16  2  0
 16 17  1  0
  2 18  1  0
 18 19  2  0
 19 20  1  0
 20 21  2  0
 21 22  1  0
 22 23  2  0
 23 24  1  0
 24 25  2  0
 25 26  1  0
 26 27  2  0
 12  7  1  0
 17 13  1  0
 27 18  1  0
 26 21  1  0
  3 28  1  0
  4 29  1  0
  4 30  1  0
  8 31  1  0
  8 32  1  0
  9 33  1  6
 10 34  1  0
 11 35  1  0
 11 36  1  0
 12 37  1  1
 15 38  1  0
 16 39  1  0
 17 40  1  0
 19 41  1  0
 20 42  1  0
 22 43  1  0
 23 44  1  0
 24 45  1  0
 25 46  1  0
M  END
>  <smiles>  (27) 
O=C(NCC(=O)N1C[C@H](O)C[C@H]1c1ncc[nH]1)c1ccc2ccccc2n1

>  <score_type>  (27) 
oracle

>  <origin>  (27) 
autodockgpu

>  <m_score__min__energy>  (27) 
-8.2100000000000009

>  <m_primary>  (27) 
energy

>  <rmsd>  (27) 
7.465377264232628

>  <m_score__min__rmsd>  (27) 
7.465377264232628

>  <meeko>  (27) 
{"free_energy": -7.53, "intermolecular_energy": -9.32, "internal_energy": -2.64, "cluster_size": 33, "cluster_id": 3, "rank_in_cluster": 10}

>  <energy>  (27) 
-7.53

>  <cluster_rmsd>  (27) 
0.95

>  <cluster>  (27) 
3

$$$$

     RDKit          3D

 46 49  0  0  0  0  0  0  0  0999 V2000
  138.5070   75.5500  222.1020 O   0  0  0  0  0  0  0  0  0  0  0  0
  139.7210   75.9440  222.1100 C   0  0  0  0  0  0  0  0  0  0  0  0
  140.7750   75.0550  221.7070 N   0  0  0  0  0  0  0  0  0  0  0  0
  140.5440   73.7110  221.2700 C   0  0  0  0  0  0  0  0  0  0  0  0
  141.5250   73.0660  220.4140 C   0  0  0  0  0  0  0  0  0  0  0  0
  141.0070   72.3050  219.4890 O   0  0  0  0  0  0  0  0  0  0  0  0
  142.9420   73.1460  220.4540 N   0  0  0  0  0  0  0  0  0  0  0  0
  143.9510   72.1480  220.1520 C   0  0  0  0  0  0  0  0  0  0  0  0
  145.1460   73.0360  219.7320 C   0  0  2  0  0  0  0  0  0  0  0  0
  146.3240   72.3300  219.7220 O   0  0  0  0  0  0  0  0  0  0  0  0
  145.0590   74.0580  220.8470 C   0  0  0  0  0  0  0  0  0  0  0  0
  143.6040   74.4040  220.8530 C   0  0  1  0  0  0  0  0  0  0  0  0
  143.2980   75.4450  219.8260 C   0  0  0  0  0  0  0  0  0  0  0  0
  142.4180   76.4510  219.9430 N   0  0  0  0  0  0  0  0  0  0  0  0
  142.4140   77.1820  218.8190 C   0  0  0  0  0  0  0  0  0  0  0  0
  143.3410   76.5910  217.9680 C   0  0  0  0  0  0  0  0  0  0  0  0
  143.8660   75.5310  218.6090 N   0  0  0  0  0  0  0  0  0  0  0  0
  140.0380   77.3230  222.5390 C   0  0  0  0  0  0  0  0  0  0  0  0
  139.0000   78.1760  222.8450 C   0  0  0  0  0  0  0  0  0  0  0  0
  139.2840   79.4770  223.2500 C   0  0  0  0  0  0  0  0  0  0  0  0
  140.6060   79.9230  223.3480 C   0  0  0  0  0  0  0  0  0  0  0  0
  140.9180   81.2060  223.7460 C   0  0  0  0  0  0  0  0  0  0  0  0
  142.2320   81.6060  223.8290 C   0  0  0  0  0  0  0  0  0  0  0  0
  143.2140   80.6920  223.5060 C   0  0  0  0  0  0  0  0  0  0  0  0
  142.9380   79.3990  223.1040 C   0  0  0  0  0  0  0  0  0  0  0  0
  141.6100   79.0180  223.0260 C   0  0  0  0  0  0  0  0  0  0  0  0
  141.3130   77.7550  222.6340 N   0  0  0  0  0  0  0  0  0  0  0  0
  141.7450   75.4890  221.7630 H   0  0  0  0  0  0  0  0  0  0  0  0
  140.4487   73.0910  222.1736 H   0  0  0  0  0  0  0  0  0  0  0  0
  139.6525   73.7930  220.6309 H   0  0  0  0  0  0  0  0  0  0  0  0
  144.1930   71.5406  221.0366 H   0  0  0  0  0  0  0  0  0  0  0  0
  143.6450   71.4171  219.3890 H   0  0  0  0  0  0  0  0  0  0  0  0
  145.1177   73.4561  218.7158 H   0  0  0  0  0  0  0  0  0  0  0  0
  146.3200   71.7460  220.5070 H   0  0  0  0  0  0  0  0  0  0  0  0
  145.3689   73.6244  221.8093 H   0  0  0  0  0  0  0  0  0  0  0  0
  145.7168   74.9271  220.6988 H   0  0  0  0  0  0  0  0  0  0  0  0
  143.2798   74.7961  221.8283 H   0  0  0  0  0  0  0  0  0  0  0  0
  141.8003   78.0711  218.6118 H   0  0  0  0  0  0  0  0  0  0  0  0
  143.5988   76.9291  216.9535 H   0  0  0  0  0  0  0  0  0  0  0  0
  144.5920   74.8980  218.2040 H   0  0  0  0  0  0  0  0  0  0  0  0
  137.9578   77.8323  222.7700 H   0  0  0  0  0  0  0  0  0  0  0  0
  138.4593   80.1622  223.4958 H   0  0  0  0  0  0  0  0  0  0  0  0
  140.1133   81.9124  223.9981 H   0  0  0  0  0  0  0  0  0  0  0  0
  142.4926   82.6271  224.1444 H   0  0  0  0  0  0  0  0  0  0  0  0
  144.2658   81.0074  223.5716 H   0  0  0  0  0  0  0  0  0  0  0  0
  143.7467   78.6963  222.8544 H   0  0  0  0  0  0  0  0  0  0  0  0
  1  2  2  0
  2  3  1  0
  3  4  1  0
  4  5  1  0
  5  6  2  0
  5  7  1  0
  7  8  1  0
  8  9  1  0
  9 10  1  0
  9 11  1  0
 11 12  1  0
 12 13  1  0
 13 14  2  0
 14 15  1  0
 15 16  2  0
 16 17  1  0
  2 18  1  0
 18 19  2  0
 19 20  1  0
 20 21  2  0
 21 22  1  0
 22 23  2  0
 23 24  1  0
 24 25  2  0
 25 26  1  0
 26 27  2  0
 12  7  1  0
 17 13  1  0
 27 18  1  0
 26 21  1  0
  3 28  1  0
  4 29  1  0
  4 30  1  0
  8 31  1  0
  8 32  1  0
  9 33  1  6
 10 34  1  0
 11 35  1  0
 11 36  1  0
 12 37  1  1
 15 38  1  0
 16 39  1  0
 17 40  1  0
 19 41  1  0
 20 42  1  0
 22 43  1  0
 23 44  1  0
 24 45  1  0
 25 46  1  0
M  END
>  <smiles>  (28) 
O=C(NCC(=O)N1C[C@H](O)C[C@H]1c1ncc[nH]1)c1ccc2ccccc2n1

>  <score_type>  (28) 
oracle

>  <origin>  (28) 
autodockgpu

>  <m_score__min__energy>  (28) 
-8.2100000000000009

>  <m_primary>  (28) 
energy

>  <rmsd>  (28) 
7.502210759408039

>  <m_score__min__rmsd>  (28) 
7.502210759408039

>  <meeko>  (28) 
{"free_energy": -7.47, "intermolecular_energy": -9.26, "internal_energy": -2.53, "cluster_size": 33, "cluster_id": 3, "rank_in_cluster": 13}

>  <energy>  (28) 
-7.49

>  <cluster_rmsd>  (28) 
0.95

>  <cluster>  (28) 
3

$$$$

     RDKit          3D

 46 49  0  0  0  0  0  0  0  0999 V2000
  139.3500   74.8190  222.3600 O   0  0  0  0  0  0  0  0  0  0  0  0
  140.1260   75.6470  221.7750 C   0  0  0  0  0  0  0  0  0  0  0  0
  140.8810   75.2430  220.6210 N   0  0  0  0  0  0  0  0  0  0  0  0
  140.8110   73.9280  220.0580 C   0  0  0  0  0  0  0  0  0  0  0  0
  141.7220   72.9030  220.5360 C   0  0  0  0  0  0  0  0  0  0  0  0
  141.1280   71.8710  221.0720 O   0  0  0  0  0  0  0  0  0  0  0  0
  143.1410   72.8770  220.5060 N   0  0  0  0  0  0  0  0  0  0  0  0
  144.0580   71.7810  220.2570 C   0  0  0  0  0  0  0  0  0  0  0  0
  145.2910   72.5320  219.7020 C   0  0  2  0  0  0  0  0  0  0  0  0
  146.4130   71.7400  219.7070 O   0  0  0  0  0  0  0  0  0  0  0  0
  145.3350   73.6570  220.7150 C   0  0  0  0  0  0  0  0  0  0  0  0
  143.9110   74.1120  220.7520 C   0  0  1  0  0  0  0  0  0  0  0  0
  143.6290   75.0740  219.6430 C   0  0  0  0  0  0  0  0  0  0  0  0
  143.4150   76.3930  219.7630 N   0  0  0  0  0  0  0  0  0  0  0  0
  143.1940   76.9280  218.5530 C   0  0  0  0  0  0  0  0  0  0  0  0
  143.2760   75.8780  217.6440 C   0  0  0  0  0  0  0  0  0  0  0  0
  143.5420   74.7570  218.3380 N   0  0  0  0  0  0  0  0  0  0  0  0
  140.2440   77.0270  222.2920 C   0  0  0  0  0  0  0  0  0  0  0  0
  139.0990   77.6910  222.6730 C   0  0  0  0  0  0  0  0  0  0  0  0
  139.1960   78.9910  223.1610 C   0  0  0  0  0  0  0  0  0  0  0  0
  140.4380   79.6250  223.2670 C   0  0  0  0  0  0  0  0  0  0  0  0
  140.5650   80.9110  223.7460 C   0  0  0  0  0  0  0  0  0  0  0  0
  141.8070   81.4990  223.8350 C   0  0  0  0  0  0  0  0  0  0  0  0
  142.9050   80.7680  223.4340 C   0  0  0  0  0  0  0  0  0  0  0  0
  142.8150   79.4770  222.9480 C   0  0  0  0  0  0  0  0  0  0  0  0
  141.5580   78.9050  222.8670 C   0  0  0  0  0  0  0  0  0  0  0  0
  141.4430   77.6400  222.3950 N   0  0  0  0  0  0  0  0  0  0  0  0
  141.4990   76.0130  220.2230 H   0  0  0  0  0  0  0  0  0  0  0  0
  139.7901   73.5575  220.2329 H   0  0  0  0  0  0  0  0  0  0  0  0
  141.1106   74.0760  219.0100 H   0  0  0  0  0  0  0  0  0  0  0  0
  144.3001   71.2408  221.1842 H   0  0  0  0  0  0  0  0  0  0  0  0
  143.6614   71.0085  219.5817 H   0  0  0  0  0  0  0  0  0  0  0  0
  145.2413   72.8571  218.6523 H   0  0  0  0  0  0  0  0  0  0  0  0
  146.5140   71.3850  220.6140 H   0  0  0  0  0  0  0  0  0  0  0  0
  145.6621   73.2929  221.7001 H   0  0  0  0  0  0  0  0  0  0  0  0
  146.0449   74.4557  220.4541 H   0  0  0  0  0  0  0  0  0  0  0  0
  143.6657   74.6164  221.6982 H   0  0  0  0  0  0  0  0  0  0  0  0
  142.9891   77.9845  218.3252 H   0  0  0  0  0  0  0  0  0  0  0  0
  143.1466   75.9514  216.5541 H   0  0  0  0  0  0  0  0  0  0  0  0
  143.6580   73.8110  217.9090 H   0  0  0  0  0  0  0  0  0  0  0  0
  138.1184   77.1992  222.5925 H   0  0  0  0  0  0  0  0  0  0  0  0
  138.2849   79.5260  223.4669 H   0  0  0  0  0  0  0  0  0  0  0  0
  139.6706   81.4700  224.0585 H   0  0  0  0  0  0  0  0  0  0  0  0
  141.9201   82.5247  224.2159 H   0  0  0  0  0  0  0  0  0  0  0  0
  143.8991   81.2338  223.5041 H   0  0  0  0  0  0  0  0  0  0  0  0
  143.7128   78.9231  222.6361 H   0  0  0  0  0  0  0  0  0  0  0  0
  1  2  2  0
  2  3  1  0
  3  4  1  0
  4  5  1  0
  5  6  2  0
  5  7  1  0
  7  8  1  0
  8  9  1  0
  9 10  1  0
  9 11  1  0
 11 12  1  0
 12 13  1  0
 13 14  2  0
 14 15  1  0
 15 16  2  0
 16 17  1  0
  2 18  1  0
 18 19  2  0
 19 20  1  0
 20 21  2  0
 21 22  1  0
 22 23  2  0
 23 24  1  0
 24 25  2  0
 25 26  1  0
 26 27  2  0
 12  7  1  0
 17 13  1  0
 27 18  1  0
 26 21  1  0
  3 28  1  0
  4 29  1  0
  4 30  1  0
  8 31  1  0
  8 32  1  0
  9 33  1  6
 10 34  1  0
 11 35  1  0
 11 36  1  0
 12 37  1  1
 15 38  1  0
 16 39  1  0
 17 40  1  0
 19 41  1  0
 20 42  1  0
 22 43  1  0
 23 44  1  0
 24 45  1  0
 25 46  1  0
M  END
>  <smiles>  (29) 
O=C(NCC(=O)N1C[C@H](O)C[C@H]1c1ncc[nH]1)c1ccc2ccccc2n1

>  <score_type>  (29) 
oracle

>  <origin>  (29) 
autodockgpu

>  <m_score__min__energy>  (29) 
-8.2100000000000009

>  <m_primary>  (29) 
energy

>  <rmsd>  (29) 
7.530408634628604

>  <m_score__min__rmsd>  (29) 
7.530408634628604

>  <meeko>  (29) 
{"free_energy": -7.33, "intermolecular_energy": -9.12, "internal_energy": -2.3, "cluster_size": 33, "cluster_id": 3, "rank_in_cluster": 23}

>  <energy>  (29) 
-7.47

>  <cluster_rmsd>  (29) 
0.94

>  <cluster>  (29) 
3

$$$$

     RDKit          3D

 46 49  0  0  0  0  0  0  0  0999 V2000
  141.1820   71.7570  221.4860 O   0  0  0  0  0  0  0  0  0  0  0  0
  140.4070   72.1910  222.4030 C   0  0  0  0  0  0  0  0  0  0  0  0
  139.6980   73.4280  222.2280 N   0  0  0  0  0  0  0  0  0  0  0  0
  139.7990   74.2310  221.0460 C   0  0  0  0  0  0  0  0  0  0  0  0
  140.9270   75.1340  220.8980 C   0  0  0  0  0  0  0  0  0  0  0  0
  141.4250   75.5540  222.0290 O   0  0  0  0  0  0  0  0  0  0  0  0
  141.5420   75.6150  219.7120 N   0  0  0  0  0  0  0  0  0  0  0  0
  141.6220   76.9590  219.1710 C   0  0  0  0  0  0  0  0  0  0  0  0
  142.9250   76.8780  218.3400 C   0  0  2  0  0  0  0  0  0  0  0  0
  143.0330   77.9300  217.4640 O   0  0  0  0  0  0  0  0  0  0  0  0
  142.6690   75.5470  217.6650 C   0  0  0  0  0  0  0  0  0  0  0  0
  142.2440   74.6820  218.8080 C   0  0  1  0  0  0  0  0  0  0  0  0
  143.4310   74.1290  219.5300 C   0  0  0  0  0  0  0  0  0  0  0  0
  144.2630   73.1750  219.0870 N   0  0  0  0  0  0  0  0  0  0  0  0
  145.2100   72.9380  220.0070 C   0  0  0  0  0  0  0  0  0  0  0  0
  144.9410   73.7930  221.0700 C   0  0  0  0  0  0  0  0  0  0  0  0
  143.8480   74.5090  220.7520 N   0  0  0  0  0  0  0  0  0  0  0  0
  140.2430   71.4120  223.6490 C   0  0  0  0  0  0  0  0  0  0  0  0
  139.6300   70.1800  223.5830 C   0  0  0  0  0  0  0  0  0  0  0  0
  139.4690   69.4350  224.7480 C   0  0  0  0  0  0  0  0  0  0  0  0
  139.9210   69.9260  225.9780 C   0  0  0  0  0  0  0  0  0  0  0  0
  139.7740   69.2120  227.1480 C   0  0  0  0  0  0  0  0  0  0  0  0
  140.2330   69.7300  228.3390 C   0  0  0  0  0  0  0  0  0  0  0  0
  140.8350   70.9710  228.3210 C   0  0  0  0  0  0  0  0  0  0  0  0
  140.9980   71.7140  227.1670 C   0  0  0  0  0  0  0  0  0  0  0  0
  140.5300   71.1750  225.9820 C   0  0  0  0  0  0  0  0  0  0  0  0
  140.6780   71.8840  224.8370 N   0  0  0  0  0  0  0  0  0  0  0  0
  139.0890   73.6930  223.0600 H   0  0  0  0  0  0  0  0  0  0  0  0
  139.8250   73.5410  220.1897 H   0  0  0  0  0  0  0  0  0  0  0  0
  138.9314   74.9041  221.1116 H   0  0  0  0  0  0  0  0  0  0  0  0
  140.7538   77.1892  218.5361 H   0  0  0  0  0  0  0  0  0  0  0  0
  141.6245   77.7511  219.9343 H   0  0  0  0  0  0  0  0  0  0  0  0
  143.8724   76.9396  218.8955 H   0  0  0  0  0  0  0  0  0  0  0  0
  142.1650   78.3820  217.4420 H   0  0  0  0  0  0  0  0  0  0  0  0
  141.8721   75.6301  216.9114 H   0  0  0  0  0  0  0  0  0  0  0  0
  143.5409   75.1566  217.1197 H   0  0  0  0  0  0  0  0  0  0  0  0
  141.6335   73.8305  218.4732 H   0  0  0  0  0  0  0  0  0  0  0  0
  146.0340   72.2128  219.9349 H   0  0  0  0  0  0  0  0  0  0  0  0
  145.5183   73.8699  222.0032 H   0  0  0  0  0  0  0  0  0  0  0  0
  143.4170   75.2330  221.3700 H   0  0  0  0  0  0  0  0  0  0  0  0
  139.2714   69.7889  222.6195 H   0  0  0  0  0  0  0  0  0  0  0  0
  138.9814   68.4501  224.7012 H   0  0  0  0  0  0  0  0  0  0  0  0
  139.2885   68.2251  227.1305 H   0  0  0  0  0  0  0  0  0  0  0  0
  140.1225   69.1693  229.2789 H   0  0  0  0  0  0  0  0  0  0  0  0
  141.2027   71.3890  229.2698 H   0  0  0  0  0  0  0  0  0  0  0  0
  141.4835   72.7008  227.1901 H   0  0  0  0  0  0  0  0  0  0  0  0
  1  2  2  0
  2  3  1  0
  3  4  1  0
  4  5  1  0
  5  6  2  0
  5  7  1  0
  7  8  1  0
  8  9  1  0
  9 10  1  0
  9 11  1  0
 11 12  1  0
 12 13  1  0
 13 14  2  0
 14 15  1  0
 15 16  2  0
 16 17  1  0
  2 18  1  0
 18 19  2  0
 19 20  1  0
 20 21  2  0
 21 22  1  0
 22 23  2  0
 23 24  1  0
 24 25  2  0
 25 26  1  0
 26 27  2  0
 12  7  1  0
 17 13  1  0
 27 18  1  0
 26 21  1  0
  3 28  1  0
  4 29  1  0
  4 30  1  0
  8 31  1  0
  8 32  1  0
  9 33  1  1
 10 34  1  0
 11 35  1  0
 11 36  1  0
 12 37  1  6
 15 38  1  0
 16 39  1  0
 17 40  1  0
 19 41  1  0
 20 42  1  0
 22 43  1  0
 23 44  1  0
 24 45  1  0
 25 46  1  0
M  END
>  <smiles>  (30) 
O=C(NCC(=O)N1C[C@H](O)C[C@H]1c1ncc[nH]1)c1ccc2ccccc2n1

>  <score_type>  (30) 
oracle

>  <origin>  (30) 
autodockgpu

>  <m_score__min__energy>  (30) 
-8.2100000000000009

>  <m_primary>  (30) 
energy

>  <rmsd>  (30) 
3.349551009415429

>  <m_score__min__rmsd>  (30) 
3.349551009415429

>  <meeko>  (30) 
{"free_energy": -7.3, "intermolecular_energy": -9.09, "internal_energy": -2.13, "cluster_size": 9, "cluster_id": 2, "rank_in_cluster": 6}

>  <energy>  (30) 
-7.47

>  <cluster_rmsd>  (30) 
1.15

>  <cluster>  (30) 
3

$$$$

     RDKit          3D

 46 49  0  0  0  0  0  0  0  0999 V2000
  140.1110   74.0060  222.3410 O   0  0  0  0  0  0  0  0  0  0  0  0
  140.1670   74.9870  221.5270 C   0  0  0  0  0  0  0  0  0  0  0  0
  140.2500   74.7520  220.1110 N   0  0  0  0  0  0  0  0  0  0  0  0
  140.2630   73.4420  219.5330 C   0  0  0  0  0  0  0  0  0  0  0  0
  141.5160   72.9010  219.0340 C   0  0  0  0  0  0  0  0  0  0  0  0
  141.3990   72.2190  217.9270 O   0  0  0  0  0  0  0  0  0  0  0  0
  142.8210   73.0060  219.5830 N   0  0  0  0  0  0  0  0  0  0  0  0
  143.9580   72.1110  219.4880 C   0  0  0  0  0  0  0  0  0  0  0  0
  145.1390   73.0920  219.6750 C   0  0  2  0  0  0  0  0  0  0  0  0
  146.3080   72.4310  219.9580 O   0  0  0  0  0  0  0  0  0  0  0  0
  144.5850   73.8770  220.8460 C   0  0  0  0  0  0  0  0  0  0  0  0
  143.1910   74.1800  220.4000 C   0  0  1  0  0  0  0  0  0  0  0  0
  143.1600   75.3920  219.5260 C   0  0  0  0  0  0  0  0  0  0  0  0
  143.4140   75.4360  218.2100 N   0  0  0  0  0  0  0  0  0  0  0  0
  143.2910   76.6960  217.7660 C   0  0  0  0  0  0  0  0  0  0  0  0
  142.9440   77.4640  218.8720 C   0  0  0  0  0  0  0  0  0  0  0  0
  142.8710   76.6410  219.9340 N   0  0  0  0  0  0  0  0  0  0  0  0
  140.1470   76.3710  222.0480 C   0  0  0  0  0  0  0  0  0  0  0  0
  138.9340   76.9430  222.3580 C   0  0  0  0  0  0  0  0  0  0  0  0
  138.9000   78.2450  222.8500 C   0  0  0  0  0  0  0  0  0  0  0  0
  140.0820   78.9710  223.0310 C   0  0  0  0  0  0  0  0  0  0  0  0
  140.0800   80.2620  223.5150 C   0  0  0  0  0  0  0  0  0  0  0  0
  141.2650   80.9440  223.6790 C   0  0  0  0  0  0  0  0  0  0  0  0
  142.4390   80.3000  223.3470 C   0  0  0  0  0  0  0  0  0  0  0  0
  142.4780   79.0080  222.8580 C   0  0  0  0  0  0  0  0  0  0  0  0
  141.2760   78.3410  222.7010 C   0  0  0  0  0  0  0  0  0  0  0  0
  141.2870   77.0730  222.2240 N   0  0  0  0  0  0  0  0  0  0  0  0
  140.3000   75.6430  219.5320 H   0  0  0  0  0  0  0  0  0  0  0  0
  139.8966   72.7471  220.3030 H   0  0  0  0  0  0  0  0  0  0  0  0
  139.6448   73.5480  218.6293 H   0  0  0  0  0  0  0  0  0  0  0  0
  143.9380   71.3502  220.2822 H   0  0  0  0  0  0  0  0  0  0  0  0
  143.9979   71.5343  218.5522 H   0  0  0  0  0  0  0  0  0  0  0  0
  145.4212   73.6995  218.8025 H   0  0  0  0  0  0  0  0  0  0  0  0
  146.1460   71.8760  220.7490 H   0  0  0  0  0  0  0  0  0  0  0  0
  144.5861   73.2734  221.7656 H   0  0  0  0  0  0  0  0  0  0  0  0
  145.1726   74.7742  221.0904 H   0  0  0  0  0  0  0  0  0  0  0  0
  142.5203   74.3690  221.2511 H   0  0  0  0  0  0  0  0  0  0  0  0
  143.4356   77.0502  216.7347 H   0  0  0  0  0  0  0  0  0  0  0  0
  142.7620   78.5488  218.8777 H   0  0  0  0  0  0  0  0  0  0  0  0
  142.6290   76.9490  220.9030 H   0  0  0  0  0  0  0  0  0  0  0  0
  138.0010   76.3772  222.2184 H   0  0  0  0  0  0  0  0  0  0  0  0
  137.9336   78.7076  223.0990 H   0  0  0  0  0  0  0  0  0  0  0  0
  139.1277   80.7493  223.7712 H   0  0  0  0  0  0  0  0  0  0  0  0
  141.2752   81.9743  224.0643 H   0  0  0  0  0  0  0  0  0  0  0  0
  143.3883   80.8401  223.4776 H   0  0  0  0  0  0  0  0  0  0  0  0
  143.4330   78.5259  222.6021 H   0  0  0  0  0  0  0  0  0  0  0  0
  1  2  2  0
  2  3  1  0
  3  4  1  0
  4  5  1  0
  5  6  2  0
  5  7  1  0
  7  8  1  0
  8  9  1  0
  9 10  1  0
  9 11  1  0
 11 12  1  0
 12 13  1  0
 13 14  2  0
 14 15  1  0
 15 16  2  0
 16 17  1  0
  2 18  1  0
 18 19  2  0
 19 20  1  0
 20 21  2  0
 21 22  1  0
 22 23  2  0
 23 24  1  0
 24 25  2  0
 25 26  1  0
 26 27  2  0
 12  7  1  0
 17 13  1  0
 27 18  1  0
 26 21  1  0
  3 28  1  0
  4 29  1  0
  4 30  1  0
  8 31  1  0
  8 32  1  0
  9 33  1  6
 10 34  1  0
 11 35  1  0
 11 36  1  0
 12 37  1  1
 15 38  1  0
 16 39  1  0
 17 40  1  0
 19 41  1  0
 20 42  1  0
 22 43  1  0
 23 44  1  0
 24 45  1  0
 25 46  1  0
M  END
>  <smiles>  (31) 
O=C(NCC(=O)N1C[C@H](O)C[C@H]1c1ncc[nH]1)c1ccc2ccccc2n1

>  <score_type>  (31) 
oracle

>  <origin>  (31) 
autodockgpu

>  <m_score__min__energy>  (31) 
-8.2100000000000009

>  <m_primary>  (31) 
energy

>  <rmsd>  (31) 
7.027501873528923

>  <m_score__min__rmsd>  (31) 
7.027501873528923

>  <meeko>  (31) 
{"free_energy": -7.34, "intermolecular_energy": -9.13, "internal_energy": -2.57, "cluster_size": 33, "cluster_id": 3, "rank_in_cluster": 21}

>  <energy>  (31) 
-7.45

>  <cluster_rmsd>  (31) 
0.95

>  <cluster>  (31) 
3

$$$$

     RDKit          3D

 46 49  0  0  0  0  0  0  0  0999 V2000
  140.3520   72.9050  222.4450 O   0  0  0  0  0  0  0  0  0  0  0  0
  140.2600   71.6410  222.5960 C   0  0  0  0  0  0  0  0  0  0  0  0
  140.1280   70.7800  221.4530 N   0  0  0  0  0  0  0  0  0  0  0  0
  140.1020   71.2640  220.1050 C   0  0  0  0  0  0  0  0  0  0  0  0
  141.1310   72.1910  219.6650 C   0  0  0  0  0  0  0  0  0  0  0  0
  140.6770   73.2000  218.9730 O   0  0  0  0  0  0  0  0  0  0  0  0
  142.5340   72.1420  219.8780 N   0  0  0  0  0  0  0  0  0  0  0  0
  143.5510   71.3130  219.2610 C   0  0  0  0  0  0  0  0  0  0  0  0
  144.8060   72.2060  219.4080 C   0  0  2  0  0  0  0  0  0  0  0  0
  145.9620   71.4960  219.1980 O   0  0  0  0  0  0  0  0  0  0  0  0
  144.6040   72.6290  220.8480 C   0  0  0  0  0  0  0  0  0  0  0  0
  143.1670   73.0400  220.8650 C   0  0  1  0  0  0  0  0  0  0  0  0
  143.0080   74.4490  220.3920 C   0  0  0  0  0  0  0  0  0  0  0  0
  143.9890   75.2780  220.0070 N   0  0  0  0  0  0  0  0  0  0  0  0
  143.4680   76.4610  219.6490 C   0  0  0  0  0  0  0  0  0  0  0  0
  142.0930   76.3490  219.8270 C   0  0  0  0  0  0  0  0  0  0  0  0
  141.8400   75.1080  220.2820 N   0  0  0  0  0  0  0  0  0  0  0  0
  140.2900   71.0650  223.9580 C   0  0  0  0  0  0  0  0  0  0  0  0
  140.7040   71.8600  225.0040 C   0  0  0  0  0  0  0  0  0  0  0  0
  140.7370   71.3310  226.2910 C   0  0  0  0  0  0  0  0  0  0  0  0
  140.3560   70.0070  226.5290 C   0  0  0  0  0  0  0  0  0  0  0  0
  140.3790   69.4550  227.7930 C   0  0  0  0  0  0  0  0  0  0  0  0
  139.9960   68.1470  227.9860 C   0  0  0  0  0  0  0  0  0  0  0  0
  139.5940   67.4160  226.8870 C   0  0  0  0  0  0  0  0  0  0  0  0
  139.5590   67.9370  225.6070 C   0  0  0  0  0  0  0  0  0  0  0  0
  139.9480   69.2530  225.4350 C   0  0  0  0  0  0  0  0  0  0  0  0
  139.9230   69.7870  224.1900 N   0  0  0  0  0  0  0  0  0  0  0  0
  140.0510   69.7480  221.7020 H   0  0  0  0  0  0  0  0  0  0  0  0
  140.1587   70.3846  219.4466 H   0  0  0  0  0  0  0  0  0  0  0  0
  139.1772   71.8578  220.0578 H   0  0  0  0  0  0  0  0  0  0  0  0
  143.6713   70.3593  219.7958 H   0  0  0  0  0  0  0  0  0  0  0  0
  143.3255   71.0227  218.2243 H   0  0  0  0  0  0  0  0  0  0  0  0
  144.9102   73.0353  218.6928 H   0  0  0  0  0  0  0  0  0  0  0  0
  146.2400   71.1290  220.0610 H   0  0  0  0  0  0  0  0  0  0  0  0
  144.7863   71.7917  221.5377 H   0  0  0  0  0  0  0  0  0  0  0  0
  145.2917   73.4239  221.1725 H   0  0  0  0  0  0  0  0  0  0  0  0
  142.7348   72.9796  221.8747 H   0  0  0  0  0  0  0  0  0  0  0  0
  144.0176   77.3425  219.2873 H   0  0  0  0  0  0  0  0  0  0  0  0
  141.3470   77.1333  219.6312 H   0  0  0  0  0  0  0  0  0  0  0  0
  140.8860   74.7450  220.5040 H   0  0  0  0  0  0  0  0  0  0  0  0
  141.0055   72.9024  224.8240 H   0  0  0  0  0  0  0  0  0  0  0  0
  141.0664   71.9615  227.1300 H   0  0  0  0  0  0  0  0  0  0  0  0
  140.7047   70.0626  228.6502 H   0  0  0  0  0  0  0  0  0  0  0  0
  140.0101   67.6966  228.9895 H   0  0  0  0  0  0  0  0  0  0  0  0
  139.2871   66.3703  227.0363 H   0  0  0  0  0  0  0  0  0  0  0  0
  139.2325   67.3250  224.7533 H   0  0  0  0  0  0  0  0  0  0  0  0
  1  2  2  0
  2  3  1  0
  3  4  1  0
  4  5  1  0
  5  6  2  0
  5  7  1  0
  7  8  1  0
  8  9  1  0
  9 10  1  0
  9 11  1  0
 11 12  1  0
 12 13  1  0
 13 14  2  0
 14 15  1  0
 15 16  2  0
 16 17  1  0
  2 18  1  0
 18 19  2  0
 19 20  1  0
 20 21  2  0
 21 22  1  0
 22 23  2  0
 23 24  1  0
 24 25  2  0
 25 26  1  0
 26 27  2  0
 12  7  1  0
 17 13  1  0
 27 18  1  0
 26 21  1  0
  3 28  1  0
  4 29  1  0
  4 30  1  0
  8 31  1  0
  8 32  1  0
  9 33  1  6
 10 34  1  0
 11 35  1  0
 11 36  1  0
 12 37  1  1
 15 38  1  0
 16 39  1  0
 17 40  1  0
 19 41  1  0
 20 42  1  0
 22 43  1  0
 23 44  1  0
 24 45  1  0
 25 46  1  0
M  END
>  <smiles>  (32) 
O=C(NCC(=O)N1C[C@H](O)C[C@H]1c1ncc[nH]1)c1ccc2ccccc2n1

>  <score_type>  (32) 
oracle

>  <origin>  (32) 
autodockgpu

>  <m_score__min__energy>  (32) 
-8.2100000000000009

>  <m_primary>  (32) 
energy

>  <rmsd>  (32) 
4.340329362565833

>  <m_score__min__rmsd>  (32) 
4.340329362565833

>  <meeko>  (32) 
{"free_energy": -7.09, "intermolecular_energy": -8.88, "internal_energy": -2.45, "cluster_size": 7, "cluster_id": 1, "rank_in_cluster": 7}

>  <energy>  (32) 
-7.42

>  <cluster_rmsd>  (32) 
0.86

>  <cluster>  (32) 
3

$$$$

     RDKit          3D

 46 49  0  0  0  0  0  0  0  0999 V2000
  140.2230   73.1120  221.9150 O   0  0  0  0  0  0  0  0  0  0  0  0
  140.2190   71.8460  222.0760 C   0  0  0  0  0  0  0  0  0  0  0  0
  140.2660   70.9700  220.9380 N   0  0  0  0  0  0  0  0  0  0  0  0
  140.3290   71.4400  219.5870 C   0  0  0  0  0  0  0  0  0  0  0  0
  141.4500   72.2670  219.1760 C   0  0  0  0  0  0  0  0  0  0  0  0
  141.1700   73.1050  218.2150 O   0  0  0  0  0  0  0  0  0  0  0  0
  142.7830   72.2800  219.6660 N   0  0  0  0  0  0  0  0  0  0  0  0
  143.9630   71.5750  219.2040 C   0  0  0  0  0  0  0  0  0  0  0  0
  145.0920   72.5210  219.6770 C   0  0  2  0  0  0  0  0  0  0  0  0
  146.3170   71.9030  219.6490 O   0  0  0  0  0  0  0  0  0  0  0  0
  144.5770   72.7910  221.0750 C   0  0  0  0  0  0  0  0  0  0  0  0
  143.1380   73.1150  220.8310 C   0  0  1  0  0  0  0  0  0  0  0  0
  142.9690   74.5510  220.4530 C   0  0  0  0  0  0  0  0  0  0  0  0
  143.8850   75.3370  219.8690 N   0  0  0  0  0  0  0  0  0  0  0  0
  143.3760   76.5640  219.6830 C   0  0  0  0  0  0  0  0  0  0  0  0
  142.0790   76.5260  220.1820 C   0  0  0  0  0  0  0  0  0  0  0  0
  141.8570   75.2830  220.6470 N   0  0  0  0  0  0  0  0  0  0  0  0
  140.1660   71.2840  223.4430 C   0  0  0  0  0  0  0  0  0  0  0  0
  139.5500   70.0670  223.6340 C   0  0  0  0  0  0  0  0  0  0  0  0
  139.4930   69.5260  224.9160 C   0  0  0  0  0  0  0  0  0  0  0  0
  140.0530   70.2040  226.0030 C   0  0  0  0  0  0  0  0  0  0  0  0
  140.0110   69.6930  227.2830 C   0  0  0  0  0  0  0  0  0  0  0  0
  140.5750   70.3920  228.3270 C   0  0  0  0  0  0  0  0  0  0  0  0
  141.1740   71.6030  228.0530 C   0  0  0  0  0  0  0  0  0  0  0  0
  141.2330   72.1450  226.7830 C   0  0  0  0  0  0  0  0  0  0  0  0
  140.6610   71.4270  225.7490 C   0  0  0  0  0  0  0  0  0  0  0  0
  140.7070   71.9370  224.4940 N   0  0  0  0  0  0  0  0  0  0  0  0
  140.2490   69.9360  221.1930 H   0  0  0  0  0  0  0  0  0  0  0  0
  140.3295   70.5522  218.9376 H   0  0  0  0  0  0  0  0  0  0  0  0
  139.4629   72.1131  219.5035 H   0  0  0  0  0  0  0  0  0  0  0  0
  144.0474   70.5831  219.6719 H   0  0  0  0  0  0  0  0  0  0  0  0
  143.9704   71.3732  218.1227 H   0  0  0  0  0  0  0  0  0  0  0  0
  145.2724   73.4200  219.0694 H   0  0  0  0  0  0  0  0  0  0  0  0
  146.4660   71.5120  220.5340 H   0  0  0  0  0  0  0  0  0  0  0  0
  144.6817   71.9031  221.7159 H   0  0  0  0  0  0  0  0  0  0  0  0
  145.1242   73.5891  221.5981 H   0  0  0  0  0  0  0  0  0  0  0  0
  142.5200   72.9337  221.7227 H   0  0  0  0  0  0  0  0  0  0  0  0
  143.8831   77.4271  219.2271 H   0  0  0  0  0  0  0  0  0  0  0  0
  141.3634   77.3613  220.1945 H   0  0  0  0  0  0  0  0  0  0  0  0
  140.9600   74.9680  221.0810 H   0  0  0  0  0  0  0  0  0  0  0  0
  139.1078   69.5281  222.7831 H   0  0  0  0  0  0  0  0  0  0  0  0
  139.0020   68.5546  225.0752 H   0  0  0  0  0  0  0  0  0  0  0  0
  139.5255   68.7240  227.4708 H   0  0  0  0  0  0  0  0  0  0  0  0
  140.5482   69.9945  229.3523 H   0  0  0  0  0  0  0  0  0  0  0  0
  141.6262   72.1642  228.8840 H   0  0  0  0  0  0  0  0  0  0  0  0
  141.7187   73.1150  226.6009 H   0  0  0  0  0  0  0  0  0  0  0  0
  1  2  2  0
  2  3  1  0
  3  4  1  0
  4  5  1  0
  5  6  2  0
  5  7  1  0
  7  8  1  0
  8  9  1  0
  9 10  1  0
  9 11  1  0
 11 12  1  0
 12 13  1  0
 13 14  2  0
 14 15  1  0
 15 16  2  0
 16 17  1  0
  2 18  1  0
 18 19  2  0
 19 20  1  0
 20 21  2  0
 21 22  1  0
 22 23  2  0
 23 24  1  0
 24 25  2  0
 25 26  1  0
 26 27  2  0
 12  7  1  0
 17 13  1  0
 27 18  1  0
 26 21  1  0
  3 28  1  0
  4 29  1  0
  4 30  1  0
  8 31  1  0
  8 32  1  0
  9 33  1  6
 10 34  1  0
 11 35  1  0
 11 36  1  0
 12 37  1  1
 15 38  1  0
 16 39  1  0
 17 40  1  0
 19 41  1  0
 20 42  1  0
 22 43  1  0
 23 44  1  0
 24 45  1  0
 25 46  1  0
M  END
>  <smiles>  (33) 
O=C(NCC(=O)N1C[C@H](O)C[C@H]1c1ncc[nH]1)c1ccc2ccccc2n1

>  <score_type>  (33) 
oracle

>  <origin>  (33) 
autodockgpu

>  <m_score__min__energy>  (33) 
-8.2100000000000009

>  <m_primary>  (33) 
energy

>  <rmsd>  (33) 
3.870365877795836

>  <m_score__min__rmsd>  (33) 
3.870365877795836

>  <meeko>  (33) 
{"free_energy": -7.13, "intermolecular_energy": -8.92, "internal_energy": -2.22, "cluster_size": 7, "cluster_id": 1, "rank_in_cluster": 6}

>  <energy>  (33) 
-7.41

>  <cluster_rmsd>  (33) 
1.09

>  <cluster>  (33) 
3

$$$$

     RDKit          3D

 46 49  0  0  0  0  0  0  0  0999 V2000
  138.4830   75.5870  222.0190 O   0  0  0  0  0  0  0  0  0  0  0  0
  139.7010   75.9680  222.0480 C   0  0  0  0  0  0  0  0  0  0  0  0
  140.7510   75.0740  221.6460 N   0  0  0  0  0  0  0  0  0  0  0  0
  140.5130   73.7380  221.1890 C   0  0  0  0  0  0  0  0  0  0  0  0
  141.5160   73.0810  220.3680 C   0  0  0  0  0  0  0  0  0  0  0  0
  141.0210   72.2810  219.4620 O   0  0  0  0  0  0  0  0  0  0  0  0
  142.9310   73.1850  220.4230 N   0  0  0  0  0  0  0  0  0  0  0  0
  143.9590   72.2040  220.1360 C   0  0  0  0  0  0  0  0  0  0  0  0
  145.1440   73.1110  219.7260 C   0  0  2  0  0  0  0  0  0  0  0  0
  146.3330   72.4260  219.7310 O   0  0  0  0  0  0  0  0  0  0  0  0
  145.0260   74.1350  220.8360 C   0  0  0  0  0  0  0  0  0  0  0  0
  143.5660   74.4560  220.8250 C   0  0  1  0  0  0  0  0  0  0  0  0
  143.2540   75.4890  219.7910 C   0  0  0  0  0  0  0  0  0  0  0  0
  142.3690   76.4900  219.9030 N   0  0  0  0  0  0  0  0  0  0  0  0
  142.3590   77.2140  218.7730 C   0  0  0  0  0  0  0  0  0  0  0  0
  143.2880   76.6220  217.9250 C   0  0  0  0  0  0  0  0  0  0  0  0
  143.8200   75.5690  218.5730 N   0  0  0  0  0  0  0  0  0  0  0  0
  140.0260   77.3390  222.4980 C   0  0  0  0  0  0  0  0  0  0  0  0
  138.9940   78.1840  222.8410 C   0  0  0  0  0  0  0  0  0  0  0  0
  139.2850   79.4780  223.2670 C   0  0  0  0  0  0  0  0  0  0  0  0
  140.6090   79.9220  223.3490 C   0  0  0  0  0  0  0  0  0  0  0  0
  140.9280   81.1970  223.7660 C   0  0  0  0  0  0  0  0  0  0  0  0
  142.2440   81.5960  223.8320 C   0  0  0  0  0  0  0  0  0  0  0  0
  143.2190   80.6900  223.4720 C   0  0  0  0  0  0  0  0  0  0  0  0
  142.9360   79.4050  223.0490 C   0  0  0  0  0  0  0  0  0  0  0  0
  141.6070   79.0240  222.9890 C   0  0  0  0  0  0  0  0  0  0  0  0
  141.3030   77.7700  222.5770 N   0  0  0  0  0  0  0  0  0  0  0  0
  141.7250   75.4980  221.7200 H   0  0  0  0  0  0  0  0  0  0  0  0
  140.3696   73.1132  222.0829 H   0  0  0  0  0  0  0  0  0  0  0  0
  139.6498   73.8416  220.5151 H   0  0  0  0  0  0  0  0  0  0  0  0
  144.2013   71.6037  221.0253 H   0  0  0  0  0  0  0  0  0  0  0  0
  143.6739   71.4655  219.3723 H   0  0  0  0  0  0  0  0  0  0  0  0
  145.1207   73.5271  218.7080 H   0  0  0  0  0  0  0  0  0  0  0  0
  146.3280   71.8390  220.5140 H   0  0  0  0  0  0  0  0  0  0  0  0
  145.3325   73.7101  221.8032 H   0  0  0  0  0  0  0  0  0  0  0  0
  145.6699   75.0150  220.6915 H   0  0  0  0  0  0  0  0  0  0  0  0
  143.2235   74.8456  221.7950 H   0  0  0  0  0  0  0  0  0  0  0  0
  141.7401   78.0982  218.5605 H   0  0  0  0  0  0  0  0  0  0  0  0
  143.5425   76.9543  216.9077 H   0  0  0  0  0  0  0  0  0  0  0  0
  144.5490   74.9370  218.1720 H   0  0  0  0  0  0  0  0  0  0  0  0
  137.9508   77.8407  222.7792 H   0  0  0  0  0  0  0  0  0  0  0  0
  138.4650   80.1578  223.5418 H   0  0  0  0  0  0  0  0  0  0  0  0
  140.1281   81.8979  224.0470 H   0  0  0  0  0  0  0  0  0  0  0  0
  142.5105   82.6106  224.1631 H   0  0  0  0  0  0  0  0  0  0  0  0
  144.2717   81.0047  223.5239 H   0  0  0  0  0  0  0  0  0  0  0  0
  143.7402   78.7085  222.7694 H   0  0  0  0  0  0  0  0  0  0  0  0
  1  2  2  0
  2  3  1  0
  3  4  1  0
  4  5  1  0
  5  6  2  0
  5  7  1  0
  7  8  1  0
  8  9  1  0
  9 10  1  0
  9 11  1  0
 11 12  1  0
 12 13  1  0
 13 14  2  0
 14 15  1  0
 15 16  2  0
 16 17  1  0
  2 18  1  0
 18 19  2  0
 19 20  1  0
 20 21  2  0
 21 22  1  0
 22 23  2  0
 23 24  1  0
 24 25  2  0
 25 26  1  0
 26 27  2  0
 12  7  1  0
 17 13  1  0
 27 18  1  0
 26 21  1  0
  3 28  1  0
  4 29  1  0
  4 30  1  0
  8 31  1  0
  8 32  1  0
  9 33  1  6
 10 34  1  0
 11 35  1  0
 11 36  1  0
 12 37  1  1
 15 38  1  0
 16 39  1  0
 17 40  1  0
 19 41  1  0
 20 42  1  0
 22 43  1  0
 23 44  1  0
 24 45  1  0
 25 46  1  0
M  END
>  <smiles>  (34) 
O=C(NCC(=O)N1C[C@H](O)C[C@H]1c1ncc[nH]1)c1ccc2ccccc2n1

>  <score_type>  (34) 
oracle

>  <origin>  (34) 
autodockgpu

>  <m_score__min__energy>  (34) 
-8.2100000000000009

>  <m_primary>  (34) 
energy

>  <rmsd>  (34) 
7.495941895768518

>  <m_score__min__rmsd>  (34) 
7.495941895768518

>  <meeko>  (34) 
{"free_energy": -7.45, "intermolecular_energy": -9.24, "internal_energy": -2.53, "cluster_size": 33, "cluster_id": 3, "rank_in_cluster": 15}

>  <energy>  (34) 
-7.38

>  <cluster_rmsd>  (34) 
0.99

>  <cluster>  (34) 
3

$$$$

     RDKit          3D

 46 49  0  0  0  0  0  0  0  0999 V2000
  138.5460   75.6260  221.7700 O   0  0  0  0  0  0  0  0  0  0  0  0
  139.7590   75.9560  221.9930 C   0  0  0  0  0  0  0  0  0  0  0  0
  140.8190   75.0070  221.7910 N   0  0  0  0  0  0  0  0  0  0  0  0
  140.5970   73.6700  221.3280 C   0  0  0  0  0  0  0  0  0  0  0  0
  141.5540   73.0690  220.4160 C   0  0  0  0  0  0  0  0  0  0  0  0
  141.0080   72.4070  219.4320 O   0  0  0  0  0  0  0  0  0  0  0  0
  142.9730   73.0990  220.4540 N   0  0  0  0  0  0  0  0  0  0  0  0
  143.9460   72.0660  220.1550 C   0  0  0  0  0  0  0  0  0  0  0  0
  145.1710   72.9100  219.7300 C   0  0  2  0  0  0  0  0  0  0  0  0
  146.3230   72.1630  219.7220 O   0  0  0  0  0  0  0  0  0  0  0  0
  145.1200   73.9390  220.8410 C   0  0  0  0  0  0  0  0  0  0  0  0
  143.6790   74.3350  220.8470 C   0  0  1  0  0  0  0  0  0  0  0  0
  143.4080   75.3820  219.8150 C   0  0  0  0  0  0  0  0  0  0  0  0
  143.6400   75.2860  218.4980 N   0  0  0  0  0  0  0  0  0  0  0  0
  143.2720   76.4230  217.8890 C   0  0  0  0  0  0  0  0  0  0  0  0
  142.7900   77.2610  218.8890 C   0  0  0  0  0  0  0  0  0  0  0  0
  142.8860   76.5990  220.0570 N   0  0  0  0  0  0  0  0  0  0  0  0
  140.0680   77.3240  222.4630 C   0  0  0  0  0  0  0  0  0  0  0  0
  139.0260   78.1600  222.7980 C   0  0  0  0  0  0  0  0  0  0  0  0
  139.3030   79.4500  223.2420 C   0  0  0  0  0  0  0  0  0  0  0  0
  140.6230   79.9010  223.3500 C   0  0  0  0  0  0  0  0  0  0  0  0
  140.9280   81.1730  223.7860 C   0  0  0  0  0  0  0  0  0  0  0  0
  142.2400   81.5790  223.8780 C   0  0  0  0  0  0  0  0  0  0  0  0
  143.2260   80.6820  223.5250 C   0  0  0  0  0  0  0  0  0  0  0  0
  142.9570   79.4000  223.0830 C   0  0  0  0  0  0  0  0  0  0  0  0
  141.6320   79.0130  222.9980 C   0  0  0  0  0  0  0  0  0  0  0  0
  141.3420   77.7610  222.5680 N   0  0  0  0  0  0  0  0  0  0  0  0
  141.7850   75.3910  222.0170 H   0  0  0  0  0  0  0  0  0  0  0  0
  140.5519   73.0249  222.2178 H   0  0  0  0  0  0  0  0  0  0  0  0
  139.6781   73.7494  220.7286 H   0  0  0  0  0  0  0  0  0  0  0  0
  144.1678   71.4541  221.0418 H   0  0  0  0  0  0  0  0  0  0  0  0
  143.6138   71.3433  219.3951 H   0  0  0  0  0  0  0  0  0  0  0  0
  145.1572   73.3269  218.7122 H   0  0  0  0  0  0  0  0  0  0  0  0
  146.2870   71.5620  220.4940 H   0  0  0  0  0  0  0  0  0  0  0  0
  145.4156   73.4988  221.8048 H   0  0  0  0  0  0  0  0  0  0  0  0
  145.8071   74.7844  220.6885 H   0  0  0  0  0  0  0  0  0  0  0  0
  143.3699   74.7422  221.8210 H   0  0  0  0  0  0  0  0  0  0  0  0
  143.3381   76.6477  216.8142 H   0  0  0  0  0  0  0  0  0  0  0  0
  142.4007   78.2804  218.7504 H   0  0  0  0  0  0  0  0  0  0  0  0
  142.5950   76.9900  220.9810 H   0  0  0  0  0  0  0  0  0  0  0  0
  137.9858   77.8120  222.7156 H   0  0  0  0  0  0  0  0  0  0  0  0
  138.4748   80.1222  223.5109 H   0  0  0  0  0  0  0  0  0  0  0  0
  140.1195   81.8662  224.0614 H   0  0  0  0  0  0  0  0  0  0  0  0
  142.4950   82.5916  224.2238 H   0  0  0  0  0  0  0  0  0  0  0  0
  144.2760   81.0015  223.5985 H   0  0  0  0  0  0  0  0  0  0  0  0
  143.7693   78.7111  222.8082 H   0  0  0  0  0  0  0  0  0  0  0  0
  1  2  2  0
  2  3  1  0
  3  4  1  0
  4  5  1  0
  5  6  2  0
  5  7  1  0
  7  8  1  0
  8  9  1  0
  9 10  1  0
  9 11  1  0
 11 12  1  0
 12 13  1  0
 13 14  2  0
 14 15  1  0
 15 16  2  0
 16 17  1  0
  2 18  1  0
 18 19  2  0
 19 20  1  0
 20 21  2  0
 21 22  1  0
 22 23  2  0
 23 24  1  0
 24 25  2  0
 25 26  1  0
 26 27  2  0
 12  7  1  0
 17 13  1  0
 27 18  1  0
 26 21  1  0
  3 28  1  0
  4 29  1  0
  4 30  1  0
  8 31  1  0
  8 32  1  0
  9 33  1  6
 10 34  1  0
 11 35  1  0
 11 36  1  0
 12 37  1  1
 15 38  1  0
 16 39  1  0
 17 40  1  0
 19 41  1  0
 20 42  1  0
 22 43  1  0
 23 44  1  0
 24 45  1  0
 25 46  1  0
M  END
>  <smiles>  (35) 
O=C(NCC(=O)N1C[C@H](O)C[C@H]1c1ncc[nH]1)c1ccc2ccccc2n1

>  <score_type>  (35) 
oracle

>  <origin>  (35) 
autodockgpu

>  <m_score__min__energy>  (35) 
-8.2100000000000009

>  <m_primary>  (35) 
energy

>  <rmsd>  (35) 
7.454775428179948

>  <m_score__min__rmsd>  (35) 
7.454775428179948

>  <meeko>  (35) 
{"free_energy": -7.81, "intermolecular_energy": -9.6, "internal_energy": -2.62, "cluster_size": 33, "cluster_id": 3, "rank_in_cluster": 5}

>  <energy>  (35) 
-7.37

>  <cluster_rmsd>  (35) 
0.98

>  <cluster>  (35) 
3

$$$$

     RDKit          3D

 46 49  0  0  0  0  0  0  0  0999 V2000
  138.5840   75.6640  221.7200 O   0  0  0  0  0  0  0  0  0  0  0  0
  139.7820   75.9830  222.0240 C   0  0  0  0  0  0  0  0  0  0  0  0
  140.8390   75.0150  221.9230 N   0  0  0  0  0  0  0  0  0  0  0  0
  140.6320   73.6690  221.4790 C   0  0  0  0  0  0  0  0  0  0  0  0
  141.5540   73.0920  220.5170 C   0  0  0  0  0  0  0  0  0  0  0  0
  140.9760   72.3870  219.5820 O   0  0  0  0  0  0  0  0  0  0  0  0
  142.9690   73.1840  220.4620 N   0  0  0  0  0  0  0  0  0  0  0  0
  143.9790   72.1450  220.3920 C   0  0  0  0  0  0  0  0  0  0  0  0
  145.1380   72.8890  219.6880 C   0  0  2  0  0  0  0  0  0  0  0  0
  146.3250   72.2110  219.8100 O   0  0  0  0  0  0  0  0  0  0  0  0
  145.0870   74.1750  220.4870 C   0  0  0  0  0  0  0  0  0  0  0  0
  143.6290   74.5050  220.4720 C   0  0  1  0  0  0  0  0  0  0  0  0
  143.2570   75.2280  219.2180 C   0  0  0  0  0  0  0  0  0  0  0  0
  143.6470   76.4600  218.8590 N   0  0  0  0  0  0  0  0  0  0  0  0
  143.1140   76.7750  217.6690 C   0  0  0  0  0  0  0  0  0  0  0  0
  142.3560   75.6760  217.2800 C   0  0  0  0  0  0  0  0  0  0  0  0
  142.4610   74.7450  218.2460 N   0  0  0  0  0  0  0  0  0  0  0  0
  140.0770   77.3580  222.4820 C   0  0  0  0  0  0  0  0  0  0  0  0
  139.0260   78.1850  222.8110 C   0  0  0  0  0  0  0  0  0  0  0  0
  139.2890   79.4820  223.2440 C   0  0  0  0  0  0  0  0  0  0  0  0
  140.6040   79.9490  223.3450 C   0  0  0  0  0  0  0  0  0  0  0  0
  140.8950   81.2280  223.7700 C   0  0  0  0  0  0  0  0  0  0  0  0
  142.2030   81.6490  223.8560 C   0  0  0  0  0  0  0  0  0  0  0  0
  143.1990   80.7600  223.5080 C   0  0  0  0  0  0  0  0  0  0  0  0
  142.9430   79.4720  223.0780 C   0  0  0  0  0  0  0  0  0  0  0  0
  141.6220   79.0690  222.9980 C   0  0  0  0  0  0  0  0  0  0  0  0
  141.3450   77.8100  222.5800 N   0  0  0  0  0  0  0  0  0  0  0  0
  141.7920   75.3920  222.2110 H   0  0  0  0  0  0  0  0  0  0  0  0
  140.6568   73.0281  222.3727 H   0  0  0  0  0  0  0  0  0  0  0  0
  139.6787   73.7169  220.9324 H   0  0  0  0  0  0  0  0  0  0  0  0
  144.2724   71.8015  221.3950 H   0  0  0  0  0  0  0  0  0  0  0  0
  143.6496   71.2334  219.8719 H   0  0  0  0  0  0  0  0  0  0  0  0
  145.0547   73.0172  218.5987 H   0  0  0  0  0  0  0  0  0  0  0  0
  146.3560   71.8370  220.7140 H   0  0  0  0  0  0  0  0  0  0  0  0
  145.4493   74.0200  221.5140 H   0  0  0  0  0  0  0  0  0  0  0  0
  145.7224   74.9732  220.0758 H   0  0  0  0  0  0  0  0  0  0  0  0
  143.3455   75.1457  221.3200 H   0  0  0  0  0  0  0  0  0  0  0  0
  143.2494   77.7142  217.1126 H   0  0  0  0  0  0  0  0  0  0  0  0
  141.7753   75.5842  216.3503 H   0  0  0  0  0  0  0  0  0  0  0  0
  141.9920   73.8120  218.2190 H   0  0  0  0  0  0  0  0  0  0  0  0
  137.9897   77.8247  222.7325 H   0  0  0  0  0  0  0  0  0  0  0  0
  138.4538   80.1467  223.5096 H   0  0  0  0  0  0  0  0  0  0  0  0
  140.0793   81.9143  224.0413 H   0  0  0  0  0  0  0  0  0  0  0  0
  142.4474   82.6671  224.1932 H   0  0  0  0  0  0  0  0  0  0  0  0
  144.2455   81.0919  223.5760 H   0  0  0  0  0  0  0  0  0  0  0  0
  143.7625   78.7896  222.8082 H   0  0  0  0  0  0  0  0  0  0  0  0
  1  2  2  0
  2  3  1  0
  3  4  1  0
  4  5  1  0
  5  6  2  0
  5  7  1  0
  7  8  1  0
  8  9  1  0
  9 10  1  0
  9 11  1  0
 11 12  1  0
 12 13  1  0
 13 14  2  0
 14 15  1  0
 15 16  2  0
 16 17  1  0
  2 18  1  0
 18 19  2  0
 19 20  1  0
 20 21  2  0
 21 22  1  0
 22 23  2  0
 23 24  1  0
 24 25  2  0
 25 26  1  0
 26 27  2  0
 12  7  1  0
 17 13  1  0
 27 18  1  0
 26 21  1  0
  3 28  1  0
  4 29  1  0
  4 30  1  0
  8 31  1  0
  8 32  1  0
  9 33  1  6
 10 34  1  0
 11 35  1  0
 11 36  1  0
 12 37  1  1
 15 38  1  0
 16 39  1  0
 17 40  1  0
 19 41  1  0
 20 42  1  0
 22 43  1  0
 23 44  1  0
 24 45  1  0
 25 46  1  0
M  END
>  <smiles>  (36) 
O=C(NCC(=O)N1C[C@H](O)C[C@H]1c1ncc[nH]1)c1ccc2ccccc2n1

>  <score_type>  (36) 
oracle

>  <origin>  (36) 
autodockgpu

>  <m_score__min__energy>  (36) 
-8.2100000000000009

>  <m_primary>  (36) 
energy

>  <rmsd>  (36) 
7.601726008079432

>  <m_score__min__rmsd>  (36) 
7.601726008079432

>  <meeko>  (36) 
{"free_energy": -7.17, "intermolecular_energy": -8.96, "internal_energy": -2.35, "cluster_size": 33, "cluster_id": 3, "rank_in_cluster": 31}

>  <energy>  (36) 
-7.36

>  <cluster_rmsd>  (36) 
1.01

>  <cluster>  (36) 
3

$$$$

     RDKit          3D

 46 49  0  0  0  0  0  0  0  0999 V2000
  141.3360   72.2280  221.5370 O   0  0  0  0  0  0  0  0  0  0  0  0
  140.4130   72.4680  222.3850 C   0  0  0  0  0  0  0  0  0  0  0  0
  139.5600   73.6140  222.2250 N   0  0  0  0  0  0  0  0  0  0  0  0
  139.6760   74.5320  221.1320 C   0  0  0  0  0  0  0  0  0  0  0  0
  140.8430   75.3940  221.0510 C   0  0  0  0  0  0  0  0  0  0  0  0
  141.4140   75.6250  222.2020 O   0  0  0  0  0  0  0  0  0  0  0  0
  141.4270   76.0100  219.9130 N   0  0  0  0  0  0  0  0  0  0  0  0
  141.5430   77.4110  219.5570 C   0  0  0  0  0  0  0  0  0  0  0  0
  142.8040   77.3970  218.6600 C   0  0  2  0  0  0  0  0  0  0  0  0
  142.9210   78.5530  217.9300 O   0  0  0  0  0  0  0  0  0  0  0  0
  142.4610   76.1810  217.8240 C   0  0  0  0  0  0  0  0  0  0  0  0
  142.0480   75.1840  218.8590 C   0  0  1  0  0  0  0  0  0  0  0  0
  143.2390   74.4930  219.4400 C   0  0  0  0  0  0  0  0  0  0  0  0
  144.4100   74.2650  218.8270 N   0  0  0  0  0  0  0  0  0  0  0  0
  145.2390   73.6190  219.6600 C   0  0  0  0  0  0  0  0  0  0  0  0
  144.5360   73.4410  220.8460 C   0  0  0  0  0  0  0  0  0  0  0  0
  143.3160   73.9850  220.6830 N   0  0  0  0  0  0  0  0  0  0  0  0
  140.2240   71.5590  223.5370 C   0  0  0  0  0  0  0  0  0  0  0  0
  139.5570   70.3710  223.3390 C   0  0  0  0  0  0  0  0  0  0  0  0
  139.3720   69.5060  224.4140 C   0  0  0  0  0  0  0  0  0  0  0  0
  139.8560   69.8320  225.6850 C   0  0  0  0  0  0  0  0  0  0  0  0
  139.6880   68.9950  226.7680 C   0  0  0  0  0  0  0  0  0  0  0  0
  140.1800   69.3530  228.0030 C   0  0  0  0  0  0  0  0  0  0  0  0
  140.8370   70.5600  228.1190 C   0  0  0  0  0  0  0  0  0  0  0  0
  141.0230   71.4220  227.0550 C   0  0  0  0  0  0  0  0  0  0  0  0
  140.5210   71.0440  225.8230 C   0  0  0  0  0  0  0  0  0  0  0  0
  140.6910   71.8720  224.7640 N   0  0  0  0  0  0  0  0  0  0  0  0
  138.8340   73.7170  222.9960 H   0  0  0  0  0  0  0  0  0  0  0  0
  139.6519   73.9360  220.2078 H   0  0  0  0  0  0  0  0  0  0  0  0
  138.8433   75.2332  221.2898 H   0  0  0  0  0  0  0  0  0  0  0  0
  140.6591   77.7594  219.0026 H   0  0  0  0  0  0  0  0  0  0  0  0
  141.6137   78.0891  220.4202 H   0  0  0  0  0  0  0  0  0  0  0  0
  143.7760   77.3473  219.1726 H   0  0  0  0  0  0  0  0  0  0  0  0
  143.7840   78.5220  217.4700 H   0  0  0  0  0  0  0  0  0  0  0  0
  141.6368   76.3964  217.1281 H   0  0  0  0  0  0  0  0  0  0  0  0
  143.2907   75.8366  217.1892 H   0  0  0  0  0  0  0  0  0  0  0  0
  141.3868   74.4097  218.4428 H   0  0  0  0  0  0  0  0  0  0  0  0
  146.2685   73.2950  219.4475 H   0  0  0  0  0  0  0  0  0  0  0  0
  144.9096   72.9449  221.7539 H   0  0  0  0  0  0  0  0  0  0  0  0
  142.5730   73.9960  221.4180 H   0  0  0  0  0  0  0  0  0  0  0  0
  139.1743   70.1080  222.3418 H   0  0  0  0  0  0  0  0  0  0  0  0
  138.8393   68.5557  224.2621 H   0  0  0  0  0  0  0  0  0  0  0  0
  139.1592   68.0383  226.6448 H   0  0  0  0  0  0  0  0  0  0  0  0
  140.0524   68.6937  228.8742 H   0  0  0  0  0  0  0  0  0  0  0  0
  141.2313   70.8500  229.1041 H   0  0  0  0  0  0  0  0  0  0  0  0
  141.5529   72.3773  227.1837 H   0  0  0  0  0  0  0  0  0  0  0  0
  1  2  2  0
  2  3  1  0
  3  4  1  0
  4  5  1  0
  5  6  2  0
  5  7  1  0
  7  8  1  0
  8  9  1  0
  9 10  1  0
  9 11  1  0
 11 12  1  0
 12 13  1  0
 13 14  2  0
 14 15  1  0
 15 16  2  0
 16 17  1  0
  2 18  1  0
 18 19  2  0
 19 20  1  0
 20 21  2  0
 21 22  1  0
 22 23  2  0
 23 24  1  0
 24 25  2  0
 25 26  1  0
 26 27  2  0
 12  7  1  0
 17 13  1  0
 27 18  1  0
 26 21  1  0
  3 28  1  0
  4 29  1  0
  4 30  1  0
  8 31  1  0
  8 32  1  0
  9 33  1  1
 10 34  1  0
 11 35  1  0
 11 36  1  0
 12 37  1  6
 15 38  1  0
 16 39  1  0
 17 40  1  0
 19 41  1  0
 20 42  1  0
 22 43  1  0
 23 44  1  0
 24 45  1  0
 25 46  1  0
M  END
>  <smiles>  (37) 
O=C(NCC(=O)N1C[C@H](O)C[C@H]1c1ncc[nH]1)c1ccc2ccccc2n1

>  <score_type>  (37) 
oracle

>  <origin>  (37) 
autodockgpu

>  <m_score__min__energy>  (37) 
-8.2100000000000009

>  <m_primary>  (37) 
energy

>  <rmsd>  (37) 
3.3278849442355867

>  <m_score__min__rmsd>  (37) 
3.3278849442355867

>  <meeko>  (37) 
{"free_energy": -7.29, "intermolecular_energy": -9.08, "internal_energy": -2.61, "cluster_size": 9, "cluster_id": 2, "rank_in_cluster": 7}

>  <energy>  (37) 
-7.34

>  <cluster_rmsd>  (37) 
1.11

>  <cluster>  (37) 
3

$$$$

     RDKit          3D

 46 49  0  0  0  0  0  0  0  0999 V2000
  140.6220   71.3230  221.1950 O   0  0  0  0  0  0  0  0  0  0  0  0
  140.2700   71.9740  222.2350 C   0  0  0  0  0  0  0  0  0  0  0  0
  140.0100   73.3850  222.1550 N   0  0  0  0  0  0  0  0  0  0  0  0
  140.1120   74.1340  220.9390 C   0  0  0  0  0  0  0  0  0  0  0  0
  141.0030   75.2810  220.8870 C   0  0  0  0  0  0  0  0  0  0  0  0
  141.3030   75.7760  222.0570 O   0  0  0  0  0  0  0  0  0  0  0  0
  141.5720   75.9240  219.7570 N   0  0  0  0  0  0  0  0  0  0  0  0
  141.6080   77.3270  219.3910 C   0  0  0  0  0  0  0  0  0  0  0  0
  142.8870   77.3860  218.5220 C   0  0  2  0  0  0  0  0  0  0  0  0
  142.9470   78.5430  217.7850 O   0  0  0  0  0  0  0  0  0  0  0  0
  142.6400   76.1460  217.6890 C   0  0  0  0  0  0  0  0  0  0  0  0
  142.2680   75.1320  218.7230 C   0  0  1  0  0  0  0  0  0  0  0  0
  143.4860   74.5210  219.3350 C   0  0  0  0  0  0  0  0  0  0  0  0
  144.4370   73.8210  218.6990 N   0  0  0  0  0  0  0  0  0  0  0  0
  145.3750   73.4310  219.5740 C   0  0  0  0  0  0  0  0  0  0  0  0
  144.9760   73.9180  220.8140 C   0  0  0  0  0  0  0  0  0  0  0  0
  143.8170   74.5800  220.6380 N   0  0  0  0  0  0  0  0  0  0  0  0
  140.1330   71.2670  223.5270 C   0  0  0  0  0  0  0  0  0  0  0  0
  139.5970   69.9980  223.5320 C   0  0  0  0  0  0  0  0  0  0  0  0
  139.4620   69.3210  224.7410 C   0  0  0  0  0  0  0  0  0  0  0  0
  139.8630   69.9150  225.9420 C   0  0  0  0  0  0  0  0  0  0  0  0
  139.7400   69.2690  227.1540 C   0  0  0  0  0  0  0  0  0  0  0  0
  140.1470   69.8890  228.3150 C   0  0  0  0  0  0  0  0  0  0  0  0
  140.6740   71.1600  228.2250 C   0  0  0  0  0  0  0  0  0  0  0  0
  140.8100   71.8370  227.0280 C   0  0  0  0  0  0  0  0  0  0  0  0
  140.3950   71.1970  225.8740 C   0  0  0  0  0  0  0  0  0  0  0  0
  140.5190   71.8390  224.6870 N   0  0  0  0  0  0  0  0  0  0  0  0
  139.7330   73.8220  223.0850 H   0  0  0  0  0  0  0  0  0  0  0  0
  140.4423   73.4344  220.1570 H   0  0  0  0  0  0  0  0  0  0  0  0
  139.1111   74.5737  220.8170 H   0  0  0  0  0  0  0  0  0  0  0  0
  140.7166   77.6149  218.8143 H   0  0  0  0  0  0  0  0  0  0  0  0
  141.6169   78.0146  220.2496 H   0  0  0  0  0  0  0  0  0  0  0  0
  143.8486   77.4007  219.0560 H   0  0  0  0  0  0  0  0  0  0  0  0
  143.7560   78.4970  217.2350 H   0  0  0  0  0  0  0  0  0  0  0  0
  141.8194   76.3043  216.9738 H   0  0  0  0  0  0  0  0  0  0  0  0
  143.5034   75.8505  217.0749 H   0  0  0  0  0  0  0  0  0  0  0  0
  141.6664   74.3147  218.2985 H   0  0  0  0  0  0  0  0  0  0  0  0
  146.2789   72.8436  219.3550 H   0  0  0  0  0  0  0  0  0  0  0  0
  145.5106   73.7862  221.7663 H   0  0  0  0  0  0  0  0  0  0  0  0
  143.2860   75.0520  221.4050 H   0  0  0  0  0  0  0  0  0  0  0  0
  139.2792   69.5248  222.5912 H   0  0  0  0  0  0  0  0  0  0  0  0
  139.0351   68.3073  224.7518 H   0  0  0  0  0  0  0  0  0  0  0  0
  139.3154   68.2550  227.1940 H   0  0  0  0  0  0  0  0  0  0  0  0
  140.0541   69.3837  229.2876 H   0  0  0  0  0  0  0  0  0  0  0  0
  141.0015   71.6584  229.1493 H   0  0  0  0  0  0  0  0  0  0  0  0
  141.2342   72.8513  226.9940 H   0  0  0  0  0  0  0  0  0  0  0  0
  1  2  2  0
  2  3  1  0
  3  4  1  0
  4  5  1  0
  5  6  2  0
  5  7  1  0
  7  8  1  0
  8  9  1  0
  9 10  1  0
  9 11  1  0
 11 12  1  0
 12 13  1  0
 13 14  2  0
 14 15  1  0
 15 16  2  0
 16 17  1  0
  2 18  1  0
 18 19  2  0
 19 20  1  0
 20 21  2  0
 21 22  1  0
 22 23  2  0
 23 24  1  0
 24 25  2  0
 25 26  1  0
 26 27  2  0
 12  7  1  0
 17 13  1  0
 27 18  1  0
 26 21  1  0
  3 28  1  0
  4 29  1  0
  4 30  1  0
  8 31  1  0
  8 32  1  0
  9 33  1  1
 10 34  1  0
 11 35  1  0
 11 36  1  0
 12 37  1  6
 15 38  1  0
 16 39  1  0
 17 40  1  0
 19 41  1  0
 20 42  1  0
 22 43  1  0
 23 44  1  0
 24 45  1  0
 25 46  1  0
M  END
>  <smiles>  (38) 
O=C(NCC(=O)N1C[C@H](O)C[C@H]1c1ncc[nH]1)c1ccc2ccccc2n1

>  <score_type>  (38) 
oracle

>  <origin>  (38) 
autodockgpu

>  <m_score__min__energy>  (38) 
-8.2100000000000009

>  <m_primary>  (38) 
energy

>  <rmsd>  (38) 
3.3262339586991363

>  <m_score__min__rmsd>  (38) 
3.3262339586991363

>  <meeko>  (38) 
{"free_energy": -7.76, "intermolecular_energy": -9.55, "internal_energy": -2.11, "cluster_size": 9, "cluster_id": 2, "rank_in_cluster": 3}

>  <energy>  (38) 
-7.34

>  <cluster_rmsd>  (38) 
1.12

>  <cluster>  (38) 
3

$$$$

     RDKit          3D

 46 49  0  0  0  0  0  0  0  0999 V2000
  139.6550   74.1930  222.3400 O   0  0  0  0  0  0  0  0  0  0  0  0
  140.0070   75.1370  221.5560 C   0  0  0  0  0  0  0  0  0  0  0  0
  140.3410   74.8570  220.1870 N   0  0  0  0  0  0  0  0  0  0  0  0
  140.2930   73.5420  219.6200 C   0  0  0  0  0  0  0  0  0  0  0  0
  141.5240   72.9270  219.1530 C   0  0  0  0  0  0  0  0  0  0  0  0
  141.3680   72.1380  218.1240 O   0  0  0  0  0  0  0  0  0  0  0  0
  142.8430   73.0610  219.6600 N   0  0  0  0  0  0  0  0  0  0  0  0
  143.9840   72.1700  219.5640 C   0  0  0  0  0  0  0  0  0  0  0  0
  145.1630   73.1660  219.6820 C   0  0  2  0  0  0  0  0  0  0  0  0
  146.3440   72.5230  219.9540 O   0  0  0  0  0  0  0  0  0  0  0  0
  144.6360   73.9890  220.8390 C   0  0  0  0  0  0  0  0  0  0  0  0
  143.2270   74.2650  220.4230 C   0  0  1  0  0  0  0  0  0  0  0  0
  143.1620   75.4450  219.5070 C   0  0  0  0  0  0  0  0  0  0  0  0
  143.3220   75.4340  218.1760 N   0  0  0  0  0  0  0  0  0  0  0  0
  143.1970   76.6800  217.6950 C   0  0  0  0  0  0  0  0  0  0  0  0
  142.9470   77.4970  218.7920 C   0  0  0  0  0  0  0  0  0  0  0  0
  142.9320   76.7160  219.8870 N   0  0  0  0  0  0  0  0  0  0  0  0
  140.0710   76.5240  222.0660 C   0  0  0  0  0  0  0  0  0  0  0  0
  138.9000   77.1450  222.4410 C   0  0  0  0  0  0  0  0  0  0  0  0
  138.9450   78.4500  222.9220 C   0  0  0  0  0  0  0  0  0  0  0  0
  140.1620   79.1320  223.0270 C   0  0  0  0  0  0  0  0  0  0  0  0
  140.2380   80.4250  223.5000 C   0  0  0  0  0  0  0  0  0  0  0  0
  141.4560   81.0610  223.5880 C   0  0  0  0  0  0  0  0  0  0  0  0
  142.5820   80.3700  223.1920 C   0  0  0  0  0  0  0  0  0  0  0  0
  142.5430   79.0750  222.7130 C   0  0  0  0  0  0  0  0  0  0  0  0
  141.3100   78.4540  222.6330 C   0  0  0  0  0  0  0  0  0  0  0  0
  141.2450   77.1830  222.1680 N   0  0  0  0  0  0  0  0  0  0  0  0
  140.6290   75.7180  219.6320 H   0  0  0  0  0  0  0  0  0  0  0  0
  139.8718   72.8760  220.3875 H   0  0  0  0  0  0  0  0  0  0  0  0
  139.7013   73.6738  218.7021 H   0  0  0  0  0  0  0  0  0  0  0  0
  143.9925   71.4379  220.3850 H   0  0  0  0  0  0  0  0  0  0  0  0
  144.0015   71.5602  218.6486 H   0  0  0  0  0  0  0  0  0  0  0  0
  145.4160   73.7443  218.7811 H   0  0  0  0  0  0  0  0  0  0  0  0
  146.1730   71.8950  220.6860 H   0  0  0  0  0  0  0  0  0  0  0  0
  144.6687   73.4195  221.7796 H   0  0  0  0  0  0  0  0  0  0  0  0
  145.2225   74.8990  221.0334 H   0  0  0  0  0  0  0  0  0  0  0  0
  142.5792   74.4790  221.2859 H   0  0  0  0  0  0  0  0  0  0  0  0
  143.2764   76.9928  216.6434 H   0  0  0  0  0  0  0  0  0  0  0  0
  142.7899   78.5855  218.7686 H   0  0  0  0  0  0  0  0  0  0  0  0
  142.7660   77.0650  220.8580 H   0  0  0  0  0  0  0  0  0  0  0  0
  137.9395   76.6149  222.3611 H   0  0  0  0  0  0  0  0  0  0  0  0
  138.0132   78.9510  223.2231 H   0  0  0  0  0  0  0  0  0  0  0  0
  139.3220   80.9504  223.8082 H   0  0  0  0  0  0  0  0  0  0  0  0
  141.5290   82.0922  223.9639 H   0  0  0  0  0  0  0  0  0  0  0  0
  143.5573   80.8740  223.2609 H   0  0  0  0  0  0  0  0  0  0  0  0
  143.4622   78.5550  222.4054 H   0  0  0  0  0  0  0  0  0  0  0  0
  1  2  2  0
  2  3  1  0
  3  4  1  0
  4  5  1  0
  5  6  2  0
  5  7  1  0
  7  8  1  0
  8  9  1  0
  9 10  1  0
  9 11  1  0
 11 12  1  0
 12 13  1  0
 13 14  2  0
 14 15  1  0
 15 16  2  0
 16 17  1  0
  2 18  1  0
 18 19  2  0
 19 20  1  0
 20 21  2  0
 21 22  1  0
 22 23  2  0
 23 24  1  0
 24 25  2  0
 25 26  1  0
 26 27  2  0
 12  7  1  0
 17 13  1  0
 27 18  1  0
 26 21  1  0
  3 28  1  0
  4 29  1  0
  4 30  1  0
  8 31  1  0
  8 32  1  0
  9 33  1  6
 10 34  1  0
 11 35  1  0
 11 36  1  0
 12 37  1  1
 15 38  1  0
 16 39  1  0
 17 40  1  0
 19 41  1  0
 20 42  1  0
 22 43  1  0
 23 44  1  0
 24 45  1  0
 25 46  1  0
M  END
>  <smiles>  (39) 
O=C(NCC(=O)N1C[C@H](O)C[C@H]1c1ncc[nH]1)c1ccc2ccccc2n1

>  <score_type>  (39) 
oracle

>  <origin>  (39) 
autodockgpu

>  <m_score__min__energy>  (39) 
-8.2100000000000009

>  <m_primary>  (39) 
energy

>  <rmsd>  (39) 
7.111099775589529

>  <m_score__min__rmsd>  (39) 
7.111099775589529

>  <meeko>  (39) 
{"free_energy": -7.36, "intermolecular_energy": -9.15, "internal_energy": -2.56, "cluster_size": 33, "cluster_id": 3, "rank_in_cluster": 20}

>  <energy>  (39) 
-7.33

>  <cluster_rmsd>  (39) 
1.17

>  <cluster>  (39) 
3

$$$$

     RDKit          3D

 46 49  0  0  0  0  0  0  0  0999 V2000
  138.6630   75.5580  221.7410 O   0  0  0  0  0  0  0  0  0  0  0  0
  139.8570   75.9020  222.0320 C   0  0  0  0  0  0  0  0  0  0  0  0
  140.9280   74.9480  221.9500 N   0  0  0  0  0  0  0  0  0  0  0  0
  140.7390   73.5890  221.5390 C   0  0  0  0  0  0  0  0  0  0  0  0
  141.6200   73.0260  220.5300 C   0  0  0  0  0  0  0  0  0  0  0  0
  140.9950   72.4480  219.5400 O   0  0  0  0  0  0  0  0  0  0  0  0
  143.0390   73.0140  220.4820 N   0  0  0  0  0  0  0  0  0  0  0  0
  143.9600   71.9540  220.1190 C   0  0  0  0  0  0  0  0  0  0  0  0
  145.1820   72.7650  219.6260 C   0  0  2  0  0  0  0  0  0  0  0  0
  146.3090   71.9850  219.5430 O   0  0  0  0  0  0  0  0  0  0  0  0
  145.2300   73.7860  220.7430 C   0  0  0  0  0  0  0  0  0  0  0  0
  143.8040   74.2260  220.8390 C   0  0  1  0  0  0  0  0  0  0  0  0
  143.5030   75.2880  219.8320 C   0  0  0  0  0  0  0  0  0  0  0  0
  143.7400   75.2310  218.5130 N   0  0  0  0  0  0  0  0  0  0  0  0
  143.3380   76.3700  217.9300 C   0  0  0  0  0  0  0  0  0  0  0  0
  142.8280   77.1680  218.9490 C   0  0  0  0  0  0  0  0  0  0  0  0
  142.9420   76.4810  220.1010 N   0  0  0  0  0  0  0  0  0  0  0  0
  140.1330   77.2920  222.4560 C   0  0  0  0  0  0  0  0  0  0  0  0
  139.0700   78.1270  222.7160 C   0  0  0  0  0  0  0  0  0  0  0  0
  139.3150   79.4390  223.1160 C   0  0  0  0  0  0  0  0  0  0  0  0
  140.6250   79.9100  223.2550 C   0  0  0  0  0  0  0  0  0  0  0  0
  140.8990   81.2030  223.6480 C   0  0  0  0  0  0  0  0  0  0  0  0
  142.2020   81.6280  223.7730 C   0  0  0  0  0  0  0  0  0  0  0  0
  143.2110   80.7300  223.4940 C   0  0  0  0  0  0  0  0  0  0  0  0
  142.9730   79.4280  223.0970 C   0  0  0  0  0  0  0  0  0  0  0  0
  141.6560   79.0210  222.9780 C   0  0  0  0  0  0  0  0  0  0  0  0
  141.3970   77.7490  222.5900 N   0  0  0  0  0  0  0  0  0  0  0  0
  141.8770   75.3450  222.2250 H   0  0  0  0  0  0  0  0  0  0  0  0
  140.8393   72.9640  222.4386 H   0  0  0  0  0  0  0  0  0  0  0  0
  139.7531   73.5972  221.0513 H   0  0  0  0  0  0  0  0  0  0  0  0
  144.2160   71.3289  220.9872 H   0  0  0  0  0  0  0  0  0  0  0  0
  143.5611   71.2470  219.3768 H   0  0  0  0  0  0  0  0  0  0  0  0
  145.1183   73.1899  218.6134 H   0  0  0  0  0  0  0  0  0  0  0  0
  146.4040   71.5180  220.3980 H   0  0  0  0  0  0  0  0  0  0  0  0
  145.5697   73.3298  221.6845 H   0  0  0  0  0  0  0  0  0  0  0  0
  145.9323   74.6112  220.5536 H   0  0  0  0  0  0  0  0  0  0  0  0
  143.5667   74.6354  221.8320 H   0  0  0  0  0  0  0  0  0  0  0  0
  143.3992   76.6224  216.8611 H   0  0  0  0  0  0  0  0  0  0  0  0
  142.4075   78.1780  218.8341 H   0  0  0  0  0  0  0  0  0  0  0  0
  142.6370   76.8410  221.0330 H   0  0  0  0  0  0  0  0  0  0  0  0
  138.0378   77.7622  222.6091 H   0  0  0  0  0  0  0  0  0  0  0  0
  138.4698   80.1113  223.3246 H   0  0  0  0  0  0  0  0  0  0  0  0
  140.0732   81.8973  223.8624 H   0  0  0  0  0  0  0  0  0  0  0  0
  142.4326   82.6567  224.0871 H   0  0  0  0  0  0  0  0  0  0  0  0
  144.2538   81.0659  223.5921 H   0  0  0  0  0  0  0  0  0  0  0  0
  143.8027   78.7383  222.8828 H   0  0  0  0  0  0  0  0  0  0  0  0
  1  2  2  0
  2  3  1  0
  3  4  1  0
  4  5  1  0
  5  6  2  0
  5  7  1  0
  7  8  1  0
  8  9  1  0
  9 10  1  0
  9 11  1  0
 11 12  1  0
 12 13  1  0
 13 14  2  0
 14 15  1  0
 15 16  2  0
 16 17  1  0
  2 18  1  0
 18 19  2  0
 19 20  1  0
 20 21  2  0
 21 22  1  0
 22 23  2  0
 23 24  1  0
 24 25  2  0
 25 26  1  0
 26 27  2  0
 12  7  1  0
 17 13  1  0
 27 18  1  0
 26 21  1  0
  3 28  1  0
  4 29  1  0
  4 30  1  0
  8 31  1  0
  8 32  1  0
  9 33  1  6
 10 34  1  0
 11 35  1  0
 11 36  1  0
 12 37  1  1
 15 38  1  0
 16 39  1  0
 17 40  1  0
 19 41  1  0
 20 42  1  0
 22 43  1  0
 23 44  1  0
 24 45  1  0
 25 46  1  0
M  END
>  <smiles>  (40) 
O=C(NCC(=O)N1C[C@H](O)C[C@H]1c1ncc[nH]1)c1ccc2ccccc2n1

>  <score_type>  (40) 
oracle

>  <origin>  (40) 
autodockgpu

>  <m_score__min__energy>  (40) 
-8.2100000000000009

>  <m_primary>  (40) 
energy

>  <rmsd>  (40) 
7.488171324787842

>  <m_score__min__rmsd>  (40) 
7.488171324787842

>  <meeko>  (40) 
{"free_energy": -7.84, "intermolecular_energy": -9.63, "internal_energy": -2.6, "cluster_size": 33, "cluster_id": 3, "rank_in_cluster": 2}

>  <energy>  (40) 
-7.33

>  <cluster_rmsd>  (40) 
1.49

>  <cluster>  (40) 
3

$$$$

     RDKit          3D

 46 49  0  0  0  0  0  0  0  0999 V2000
  138.6140   75.4030  222.2540 O   0  0  0  0  0  0  0  0  0  0  0  0
  139.8070   75.8460  222.1640 C   0  0  0  0  0  0  0  0  0  0  0  0
  140.8670   74.9910  221.7070 N   0  0  0  0  0  0  0  0  0  0  0  0
  140.6640   73.6260  221.3230 C   0  0  0  0  0  0  0  0  0  0  0  0
  141.6170   72.9930  220.4280 C   0  0  0  0  0  0  0  0  0  0  0  0
  141.0660   72.2900  219.4750 O   0  0  0  0  0  0  0  0  0  0  0  0
  143.0360   73.0310  220.4540 N   0  0  0  0  0  0  0  0  0  0  0  0
  144.0110   71.9950  220.1750 C   0  0  0  0  0  0  0  0  0  0  0  0
  145.2290   72.8330  219.7180 C   0  0  2  0  0  0  0  0  0  0  0  0
  146.3850   72.0910  219.7200 O   0  0  0  0  0  0  0  0  0  0  0  0
  145.1820   73.8900  220.8010 C   0  0  0  0  0  0  0  0  0  0  0  0
  143.7390   74.2800  220.8080 C   0  0  1  0  0  0  0  0  0  0  0  0
  143.4550   75.2980  219.7510 C   0  0  0  0  0  0  0  0  0  0  0  0
  142.5670   76.3010  219.8240 N   0  0  0  0  0  0  0  0  0  0  0  0
  142.5890   77.0090  218.6850 C   0  0  0  0  0  0  0  0  0  0  0  0
  143.5410   76.4050  217.8710 C   0  0  0  0  0  0  0  0  0  0  0  0
  144.0540   75.3620  218.5480 N   0  0  0  0  0  0  0  0  0  0  0  0
  140.0940   77.2500  222.5330 C   0  0  0  0  0  0  0  0  0  0  0  0
  139.0380   78.1050  222.7520 C   0  0  0  0  0  0  0  0  0  0  0  0
  139.2930   79.4290  223.1000 C   0  0  0  0  0  0  0  0  0  0  0  0
  140.6060   79.8930  223.2280 C   0  0  0  0  0  0  0  0  0  0  0  0
  140.8900   81.1980  223.5700 C   0  0  0  0  0  0  0  0  0  0  0  0
  142.1970   81.6170  223.6860 C   0  0  0  0  0  0  0  0  0  0  0  0
  143.1990   80.6990  223.4500 C   0  0  0  0  0  0  0  0  0  0  0  0
  142.9510   79.3840  223.1040 C   0  0  0  0  0  0  0  0  0  0  0  0
  141.6310   78.9840  222.9930 C   0  0  0  0  0  0  0  0  0  0  0  0
  141.3610   77.7000  222.6560 N   0  0  0  0  0  0  0  0  0  0  0  0
  141.8200   75.4660  221.6810 H   0  0  0  0  0  0  0  0  0  0  0  0
  140.6474   73.0309  222.2480 H   0  0  0  0  0  0  0  0  0  0  0  0
  139.7335   73.6544  220.7371 H   0  0  0  0  0  0  0  0  0  0  0  0
  144.2424   71.4078  221.0759 H   0  0  0  0  0  0  0  0  0  0  0  0
  143.6762   71.2509  219.4373 H   0  0  0  0  0  0  0  0  0  0  0  0
  145.2052   73.2227  218.6896 H   0  0  0  0  0  0  0  0  0  0  0  0
  146.3640   71.5210  220.5150 H   0  0  0  0  0  0  0  0  0  0  0  0
  145.4871   73.4767  221.7737 H   0  0  0  0  0  0  0  0  0  0  0  0
  145.8641   74.7340  220.6207 H   0  0  0  0  0  0  0  0  0  0  0  0
  143.4356   74.7119  221.7731 H   0  0  0  0  0  0  0  0  0  0  0  0
  141.9769   77.8904  218.4433 H   0  0  0  0  0  0  0  0  0  0  0  0
  143.8236   76.7228  216.8565 H   0  0  0  0  0  0  0  0  0  0  0  0
  144.7940   74.7240  218.1760 H   0  0  0  0  0  0  0  0  0  0  0  0
  138.0029   77.7461  222.6531 H   0  0  0  0  0  0  0  0  0  0  0  0
  138.4530   80.1170  223.2761 H   0  0  0  0  0  0  0  0  0  0  0  0
  140.0693   81.9077  223.7510 H   0  0  0  0  0  0  0  0  0  0  0  0
  142.4352   82.6555  223.9594 H   0  0  0  0  0  0  0  0  0  0  0  0
  144.2444   81.0288  223.5414 H   0  0  0  0  0  0  0  0  0  0  0  0
  143.7756   78.6789  222.9229 H   0  0  0  0  0  0  0  0  0  0  0  0
  1  2  2  0
  2  3  1  0
  3  4  1  0
  4  5  1  0
  5  6  2  0
  5  7  1  0
  7  8  1  0
  8  9  1  0
  9 10  1  0
  9 11  1  0
 11 12  1  0
 12 13  1  0
 13 14  2  0
 14 15  1  0
 15 16  2  0
 16 17  1  0
  2 18  1  0
 18 19  2  0
 19 20  1  0
 20 21  2  0
 21 22  1  0
 22 23  2  0
 23 24  1  0
 24 25  2  0
 25 26  1  0
 26 27  2  0
 12  7  1  0
 17 13  1  0
 27 18  1  0
 26 21  1  0
  3 28  1  0
  4 29  1  0
  4 30  1  0
  8 31  1  0
  8 32  1  0
  9 33  1  6
 10 34  1  0
 11 35  1  0
 11 36  1  0
 12 37  1  1
 15 38  1  0
 16 39  1  0
 17 40  1  0
 19 41  1  0
 20 42  1  0
 22 43  1  0
 23 44  1  0
 24 45  1  0
 25 46  1  0
M  END
>  <smiles>  (41) 
O=C(NCC(=O)N1C[C@H](O)C[C@H]1c1ncc[nH]1)c1ccc2ccccc2n1

>  <score_type>  (41) 
oracle

>  <origin>  (41) 
autodockgpu

>  <m_score__min__energy>  (41) 
-8.2100000000000009

>  <m_primary>  (41) 
energy

>  <rmsd>  (41) 
7.556442544952946

>  <m_score__min__rmsd>  (41) 
7.556442544952946

>  <meeko>  (41) 
{"free_energy": -7.53, "intermolecular_energy": -9.32, "internal_energy": -2.51, "cluster_size": 33, "cluster_id": 3, "rank_in_cluster": 11}

>  <energy>  (41) 
-7.33

>  <cluster_rmsd>  (41) 
0.57

>  <cluster>  (41) 
3

$$$$

     RDKit          3D

 46 49  0  0  0  0  0  0  0  0999 V2000
  138.5930   75.5630  222.0440 O   0  0  0  0  0  0  0  0  0  0  0  0
  139.7990   75.9780  222.0610 C   0  0  0  0  0  0  0  0  0  0  0  0
  140.8710   75.1120  221.6530 N   0  0  0  0  0  0  0  0  0  0  0  0
  140.6660   73.7680  221.2040 C   0  0  0  0  0  0  0  0  0  0  0  0
  141.5730   73.2040  220.2190 C   0  0  0  0  0  0  0  0  0  0  0  0
  140.9820   72.5050  219.2890 O   0  0  0  0  0  0  0  0  0  0  0  0
  142.9870   73.3050  220.1400 N   0  0  0  0  0  0  0  0  0  0  0  0
  143.9750   72.3510  219.6730 C   0  0  0  0  0  0  0  0  0  0  0  0
  145.1190   73.2890  219.2190 C   0  0  2  0  0  0  0  0  0  0  0  0
  146.2980   72.6060  219.0500 O   0  0  0  0  0  0  0  0  0  0  0  0
  145.1210   74.2210  220.4130 C   0  0  0  0  0  0  0  0  0  0  0  0
  143.6690   74.5400  220.5750 C   0  0  1  0  0  0  0  0  0  0  0  0
  143.2620   75.6520  219.6620 C   0  0  0  0  0  0  0  0  0  0  0  0
  142.3580   76.6080  219.9210 N   0  0  0  0  0  0  0  0  0  0  0  0
  142.2550   77.4310  218.8660 C   0  0  0  0  0  0  0  0  0  0  0  0
  143.1440   76.9500  217.9110 C   0  0  0  0  0  0  0  0  0  0  0  0
  143.7450   75.8620  218.4240 N   0  0  0  0  0  0  0  0  0  0  0  0
  140.0900   77.3590  222.5030 C   0  0  0  0  0  0  0  0  0  0  0  0
  139.0370   78.1860  222.8240 C   0  0  0  0  0  0  0  0  0  0  0  0
  139.2960   79.4890  223.2420 C   0  0  0  0  0  0  0  0  0  0  0  0
  140.6090   79.9610  223.3380 C   0  0  0  0  0  0  0  0  0  0  0  0
  140.8970   81.2450  223.7480 C   0  0  0  0  0  0  0  0  0  0  0  0
  142.2030   81.6720  223.8300 C   0  0  0  0  0  0  0  0  0  0  0  0
  143.2020   80.7820  223.4910 C   0  0  0  0  0  0  0  0  0  0  0  0
  142.9500   79.4890  223.0750 C   0  0  0  0  0  0  0  0  0  0  0  0
  141.6300   79.0810  223.0010 C   0  0  0  0  0  0  0  0  0  0  0  0
  141.3570   77.8160  222.5960 N   0  0  0  0  0  0  0  0  0  0  0  0
  141.8330   75.5630  221.7170 H   0  0  0  0  0  0  0  0  0  0  0  0
  140.7140   73.1214  222.0926 H   0  0  0  0  0  0  0  0  0  0  0  0
  139.7016   73.8124  220.6767 H   0  0  0  0  0  0  0  0  0  0  0  0
  144.3015   71.6818  220.4827 H   0  0  0  0  0  0  0  0  0  0  0  0
  143.6093   71.6758  218.8853 H   0  0  0  0  0  0  0  0  0  0  0  0
  144.9963   73.7852  218.2450 H   0  0  0  0  0  0  0  0  0  0  0  0
  146.0740   71.6590  218.9440 H   0  0  0  0  0  0  0  0  0  0  0  0
  145.5206   73.7207  221.3075 H   0  0  0  0  0  0  0  0  0  0  0  0
  145.7533   75.1105  220.2747 H   0  0  0  0  0  0  0  0  0  0  0  0
  143.4289   74.8504  221.6026 H   0  0  0  0  0  0  0  0  0  0  0  0
  141.5992   78.3094  218.7750 H   0  0  0  0  0  0  0  0  0  0  0  0
  143.3233   77.3818  216.9153 H   0  0  0  0  0  0  0  0  0  0  0  0
  144.4640   75.2940  217.9220 H   0  0  0  0  0  0  0  0  0  0  0  0
  138.0018   77.8213  222.7511 H   0  0  0  0  0  0  0  0  0  0  0  0
  138.4586   80.1542  223.4995 H   0  0  0  0  0  0  0  0  0  0  0  0
  140.0791   81.9319  224.0110 H   0  0  0  0  0  0  0  0  0  0  0  0
  142.4439   82.6944  224.1567 H   0  0  0  0  0  0  0  0  0  0  0  0
  144.2475   81.1179  223.5550 H   0  0  0  0  0  0  0  0  0  0  0  0
  143.7714   78.8065  222.8114 H   0  0  0  0  0  0  0  0  0  0  0  0
  1  2  2  0
  2  3  1  0
  3  4  1  0
  4  5  1  0
  5  6  2  0
  5  7  1  0
  7  8  1  0
  8  9  1  0
  9 10  1  0
  9 11  1  0
 11 12  1  0
 12 13  1  0
 13 14  2  0
 14 15  1  0
 15 16  2  0
 16 17  1  0
  2 18  1  0
 18 19  2  0
 19 20  1  0
 20 21  2  0
 21 22  1  0
 22 23  2  0
 23 24  1  0
 24 25  2  0
 25 26  1  0
 26 27  2  0
 12  7  1  0
 17 13  1  0
 27 18  1  0
 26 21  1  0
  3 28  1  0
  4 29  1  0
  4 30  1  0
  8 31  1  0
  8 32  1  0
  9 33  1  6
 10 34  1  0
 11 35  1  0
 11 36  1  0
 12 37  1  1
 15 38  1  0
 16 39  1  0
 17 40  1  0
 19 41  1  0
 20 42  1  0
 22 43  1  0
 23 44  1  0
 24 45  1  0
 25 46  1  0
M  END
>  <smiles>  (42) 
O=C(NCC(=O)N1C[C@H](O)C[C@H]1c1ncc[nH]1)c1ccc2ccccc2n1

>  <score_type>  (42) 
oracle

>  <origin>  (42) 
autodockgpu

>  <m_score__min__energy>  (42) 
-8.2100000000000009

>  <m_primary>  (42) 
energy

>  <rmsd>  (42) 
7.4724023928888785

>  <m_score__min__rmsd>  (42) 
7.4724023928888785

>  <meeko>  (42) 
{"free_energy": -7.22, "intermolecular_energy": -9.01, "internal_energy": -2.55, "cluster_size": 33, "cluster_id": 3, "rank_in_cluster": 29}

>  <energy>  (42) 
-7.28

>  <cluster_rmsd>  (42) 
1.19

>  <cluster>  (42) 
3

$$$$

     RDKit          3D

 46 49  0  0  0  0  0  0  0  0999 V2000
  140.1950   74.3320  222.3360 O   0  0  0  0  0  0  0  0  0  0  0  0
  140.3520   75.3300  221.5570 C   0  0  0  0  0  0  0  0  0  0  0  0
  140.5670   75.1260  220.1510 N   0  0  0  0  0  0  0  0  0  0  0  0
  140.6070   73.8300  219.5420 C   0  0  0  0  0  0  0  0  0  0  0  0
  141.5070   72.8240  220.0790 C   0  0  0  0  0  0  0  0  0  0  0  0
  140.9090   71.7340  220.4780 O   0  0  0  0  0  0  0  0  0  0  0  0
  142.9180   72.8690  220.2300 N   0  0  0  0  0  0  0  0  0  0  0  0
  143.9260   71.8590  219.9690 C   0  0  0  0  0  0  0  0  0  0  0  0
  145.1680   72.7330  219.6750 C   0  0  2  0  0  0  0  0  0  0  0  0
  146.3280   72.0010  219.7290 O   0  0  0  0  0  0  0  0  0  0  0  0
  145.0160   73.7170  220.8170 C   0  0  0  0  0  0  0  0  0  0  0  0
  143.5730   74.0960  220.7250 C   0  0  1  0  0  0  0  0  0  0  0  0
  143.3680   75.1800  219.7160 C   0  0  0  0  0  0  0  0  0  0  0  0
  143.4640   75.0620  218.3840 N   0  0  0  0  0  0  0  0  0  0  0  0
  143.2150   76.2460  217.8040 C   0  0  0  0  0  0  0  0  0  0  0  0
  142.9550   77.1370  218.8400 C   0  0  0  0  0  0  0  0  0  0  0  0
  143.0560   76.4590  219.9970 N   0  0  0  0  0  0  0  0  0  0  0  0
  140.3130   76.7010  222.1100 C   0  0  0  0  0  0  0  0  0  0  0  0
  139.0940   77.2400  222.4540 C   0  0  0  0  0  0  0  0  0  0  0  0
  139.0410   78.5300  222.9760 C   0  0  0  0  0  0  0  0  0  0  0  0
  140.2110   79.2780  223.1520 C   0  0  0  0  0  0  0  0  0  0  0  0
  140.1900   80.5570  223.6650 C   0  0  0  0  0  0  0  0  0  0  0  0
  141.3640   81.2600  223.8220 C   0  0  0  0  0  0  0  0  0  0  0  0
  142.5440   80.6500  223.4530 C   0  0  0  0  0  0  0  0  0  0  0  0
  142.6010   79.3700  222.9350 C   0  0  0  0  0  0  0  0  0  0  0  0
  141.4110   78.6810  222.7850 C   0  0  0  0  0  0  0  0  0  0  0  0
  141.4410   77.4240  222.2800 N   0  0  0  0  0  0  0  0  0  0  0  0
  140.6940   76.0300  219.6020 H   0  0  0  0  0  0  0  0  0  0  0  0
  139.5897   73.4156  219.6002 H   0  0  0  0  0  0  0  0  0  0  0  0
  141.0030   74.0255  218.5346 H   0  0  0  0  0  0  0  0  0  0  0  0
  144.0862   71.2149  220.8462 H   0  0  0  0  0  0  0  0  0  0  0  0
  143.6647   71.1631  219.1582 H   0  0  0  0  0  0  0  0  0  0  0  0
  145.2271   73.1891  218.6758 H   0  0  0  0  0  0  0  0  0  0  0  0
  146.3120   71.4900  220.5630 H   0  0  0  0  0  0  0  0  0  0  0  0
  145.2420   73.2428  221.7835 H   0  0  0  0  0  0  0  0  0  0  0  0
  145.7007   74.5754  220.7513 H   0  0  0  0  0  0  0  0  0  0  0  0
  143.1831   74.4606  221.6868 H   0  0  0  0  0  0  0  0  0  0  0  0
  143.2162   76.4674  216.7265 H   0  0  0  0  0  0  0  0  0  0  0  0
  142.7107   78.2041  218.7323 H   0  0  0  0  0  0  0  0  0  0  0  0
  142.9100   76.8810  220.9420 H   0  0  0  0  0  0  0  0  0  0  0  0
  138.1708   76.6575  222.3179 H   0  0  0  0  0  0  0  0  0  0  0  0
  138.0696   78.9656  223.2529 H   0  0  0  0  0  0  0  0  0  0  0  0
  139.2327   81.0178  223.9499 H   0  0  0  0  0  0  0  0  0  0  0  0
  141.3602   82.2811  224.2310 H   0  0  0  0  0  0  0  0  0  0  0  0
  143.4839   81.2080  223.5766 H   0  0  0  0  0  0  0  0  0  0  0  0
  143.5611   78.9141  222.6513 H   0  0  0  0  0  0  0  0  0  0  0  0
  1  2  2  0
  2  3  1  0
  3  4  1  0
  4  5  1  0
  5  6  2  0
  5  7  1  0
  7  8  1  0
  8  9  1  0
  9 10  1  0
  9 11  1  0
 11 12  1  0
 12 13  1  0
 13 14  2  0
 14 15  1  0
 15 16  2  0
 16 17  1  0
  2 18  1  0
 18 19  2  0
 19 20  1  0
 20 21  2  0
 21 22  1  0
 22 23  2  0
 23 24  1  0
 24 25  2  0
 25 26  1  0
 26 27  2  0
 12  7  1  0
 17 13  1  0
 27 18  1  0
 26 21  1  0
  3 28  1  0
  4 29  1  0
  4 30  1  0
  8 31  1  0
  8 32  1  0
  9 33  1  6
 10 34  1  0
 11 35  1  0
 11 36  1  0
 12 37  1  1
 15 38  1  0
 16 39  1  0
 17 40  1  0
 19 41  1  0
 20 42  1  0
 22 43  1  0
 23 44  1  0
 24 45  1  0
 25 46  1  0
M  END
>  <smiles>  (43) 
O=C(NCC(=O)N1C[C@H](O)C[C@H]1c1ncc[nH]1)c1ccc2ccccc2n1

>  <score_type>  (43) 
oracle

>  <origin>  (43) 
autodockgpu

>  <m_score__min__energy>  (43) 
-8.2100000000000009

>  <m_primary>  (43) 
energy

>  <rmsd>  (43) 
7.240790460069485

>  <m_score__min__rmsd>  (43) 
7.240790460069485

>  <meeko>  (43) 
{"free_energy": -7.79, "intermolecular_energy": -9.58, "internal_energy": -2.37, "cluster_size": 33, "cluster_id": 3, "rank_in_cluster": 6}

>  <energy>  (43) 
-7.25

>  <cluster_rmsd>  (43) 
1.14

>  <cluster>  (43) 
3

$$$$

     RDKit          3D

 46 49  0  0  0  0  0  0  0  0999 V2000
  138.9060   75.1420  221.7290 O   0  0  0  0  0  0  0  0  0  0  0  0
  140.0730   75.6490  221.8230 C   0  0  0  0  0  0  0  0  0  0  0  0
  141.2280   74.8920  221.4240 N   0  0  0  0  0  0  0  0  0  0  0  0
  141.1520   73.5620  220.9000 C   0  0  0  0  0  0  0  0  0  0  0  0
  142.3450   72.7340  220.8940 C   0  0  0  0  0  0  0  0  0  0  0  0
  142.2000   71.5850  221.4980 O   0  0  0  0  0  0  0  0  0  0  0  0
  143.6230   73.0040  220.3370 N   0  0  0  0  0  0  0  0  0  0  0  0
  144.7090   73.8290  220.8290 C   0  0  0  0  0  0  0  0  0  0  0  0
  145.9340   73.1510  220.1710 C   0  0  2  0  0  0  0  0  0  0  0  0
  147.0460   73.9550  220.2180 O   0  0  0  0  0  0  0  0  0  0  0  0
  145.3640   72.9810  218.7780 C   0  0  0  0  0  0  0  0  0  0  0  0
  144.0160   72.3960  219.0500 C   0  0  1  0  0  0  0  0  0  0  0  0
  144.1030   70.9150  219.2340 C   0  0  0  0  0  0  0  0  0  0  0  0
  145.2060   70.1600  219.1300 N   0  0  0  0  0  0  0  0  0  0  0  0
  144.8980   68.8750  219.3600 C   0  0  0  0  0  0  0  0  0  0  0  0
  143.5320   68.8430  219.6180 C   0  0  0  0  0  0  0  0  0  0  0  0
  143.0710   70.1050  219.5330 N   0  0  0  0  0  0  0  0  0  0  0  0
  140.2320   77.0230  222.3460 C   0  0  0  0  0  0  0  0  0  0  0  0
  139.1060   77.7240  222.7160 C   0  0  0  0  0  0  0  0  0  0  0  0
  139.2400   79.0190  223.2100 C   0  0  0  0  0  0  0  0  0  0  0  0
  140.5020   79.6100  223.3320 C   0  0  0  0  0  0  0  0  0  0  0  0
  140.6660   80.8900  223.8170 C   0  0  0  0  0  0  0  0  0  0  0  0
  141.9260   81.4360  223.9210 C   0  0  0  0  0  0  0  0  0  0  0  0
  143.0040   80.6690  223.5300 C   0  0  0  0  0  0  0  0  0  0  0  0
  142.8760   79.3830  223.0390 C   0  0  0  0  0  0  0  0  0  0  0  0
  141.6010   78.8540  222.9420 C   0  0  0  0  0  0  0  0  0  0  0  0
  141.4490   77.5950  222.4640 N   0  0  0  0  0  0  0  0  0  0  0  0
  142.1470   75.4140  221.5550 H   0  0  0  0  0  0  0  0  0  0  0  0
  140.3925   73.0272  221.4893 H   0  0  0  0  0  0  0  0  0  0  0  0
  140.9330   73.7133  219.8327 H   0  0  0  0  0  0  0  0  0  0  0  0
  144.6020   74.8728  220.4989 H   0  0  0  0  0  0  0  0  0  0  0  0
  144.7651   73.8891  221.9259 H   0  0  0  0  0  0  0  0  0  0  0  0
  146.2982   72.2244  220.6387 H   0  0  0  0  0  0  0  0  0  0  0  0
  147.0940   74.4360  219.3670 H   0  0  0  0  0  0  0  0  0  0  0  0
  145.2807   73.9487  218.2616 H   0  0  0  0  0  0  0  0  0  0  0  0
  145.9886   72.3574  218.1214 H   0  0  0  0  0  0  0  0  0  0  0  0
  143.3124   72.5861  218.2261 H   0  0  0  0  0  0  0  0  0  0  0  0
  145.5877   68.0182  219.3471 H   0  0  0  0  0  0  0  0  0  0  0  0
  142.9357   67.9481  219.8497 H   0  0  0  0  0  0  0  0  0  0  0  0
  142.0740   70.3790  219.6810 H   0  0  0  0  0  0  0  0  0  0  0  0
  138.1105   77.2655  222.6223 H   0  0  0  0  0  0  0  0  0  0  0  0
  138.3439   79.5833  223.5075 H   0  0  0  0  0  0  0  0  0  0  0  0
  139.7873   81.4773  224.1220 H   0  0  0  0  0  0  0  0  0  0  0  0
  142.0691   82.4566  224.3056 H   0  0  0  0  0  0  0  0  0  0  0  0
  144.0123   81.1008  223.6128 H   0  0  0  0  0  0  0  0  0  0  0  0
  143.7580   78.7999  222.7356 H   0  0  0  0  0  0  0  0  0  0  0  0
  1  2  2  0
  2  3  1  0
  3  4  1  0
  4  5  1  0
  5  6  2  0
  5  7  1  0
  7  8  1  0
  8  9  1  0
  9 10  1  0
  9 11  1  0
 11 12  1  0
 12 13  1  0
 13 14  2  0
 14 15  1  0
 15 16  2  0
 16 17  1  0
  2 18  1  0
 18 19  2  0
 19 20  1  0
 20 21  2  0
 21 22  1  0
 22 23  2  0
 23 24  1  0
 24 25  2  0
 25 26  1  0
 26 27  2  0
 12  7  1  0
 17 13  1  0
 27 18  1  0
 26 21  1  0
  3 28  1  0
  4 29  1  0
  4 30  1  0
  8 31  1  0
  8 32  1  0
  9 33  1  1
 10 34  1  0
 11 35  1  0
 11 36  1  0
 12 37  1  6
 15 38  1  0
 16 39  1  0
 17 40  1  0
 19 41  1  0
 20 42  1  0
 22 43  1  0
 23 44  1  0
 24 45  1  0
 25 46  1  0
M  END
>  <smiles>  (44) 
O=C(NCC(=O)N1C[C@H](O)C[C@H]1c1ncc[nH]1)c1ccc2ccccc2n1

>  <score_type>  (44) 
oracle

>  <origin>  (44) 
autodockgpu

>  <m_score__min__energy>  (44) 
-8.2100000000000009

>  <m_primary>  (44) 
energy

>  <rmsd>  (44) 
8.416016838702118

>  <m_score__min__rmsd>  (44) 
8.416016838702118

>  <meeko>  (44) 
{"free_energy": -7.0, "intermolecular_energy": -8.79, "internal_energy": -1.99, "cluster_size": 1, "cluster_id": 4, "rank_in_cluster": 1}

>  <energy>  (44) 
-7.23

>  <cluster_rmsd>  (44) 
1.25

>  <cluster>  (44) 
3

$$$$

     RDKit          3D

 46 49  0  0  0  0  0  0  0  0999 V2000
  139.5810   74.2070  222.3520 O   0  0  0  0  0  0  0  0  0  0  0  0
  139.9830   75.1390  221.5780 C   0  0  0  0  0  0  0  0  0  0  0  0
  140.3610   74.8440  220.2230 N   0  0  0  0  0  0  0  0  0  0  0  0
  140.3050   73.5280  219.6610 C   0  0  0  0  0  0  0  0  0  0  0  0
  141.5240   72.9250  219.1500 C   0  0  0  0  0  0  0  0  0  0  0  0
  141.3450   72.1760  218.0950 O   0  0  0  0  0  0  0  0  0  0  0  0
  142.8530   73.0330  219.6370 N   0  0  0  0  0  0  0  0  0  0  0  0
  143.9800   72.1300  219.5080 C   0  0  0  0  0  0  0  0  0  0  0  0
  145.1730   73.1080  219.6230 C   0  0  2  0  0  0  0  0  0  0  0  0
  146.3510   72.4450  219.8660 O   0  0  0  0  0  0  0  0  0  0  0  0
  144.6760   73.9180  220.8020 C   0  0  0  0  0  0  0  0  0  0  0  0
  143.2640   74.2200  220.4140 C   0  0  1  0  0  0  0  0  0  0  0  0
  143.2000   75.4150  219.5200 C   0  0  0  0  0  0  0  0  0  0  0  0
  143.4120   75.4360  218.1960 N   0  0  0  0  0  0  0  0  0  0  0  0
  143.2690   76.6870  217.7330 C   0  0  0  0  0  0  0  0  0  0  0  0
  142.9530   77.4740  218.8360 C   0  0  0  0  0  0  0  0  0  0  0  0
  142.9180   76.6710  219.9140 N   0  0  0  0  0  0  0  0  0  0  0  0
  140.0570   76.5260  222.0840 C   0  0  0  0  0  0  0  0  0  0  0  0
  138.8910   77.1600  222.4520 C   0  0  0  0  0  0  0  0  0  0  0  0
  138.9470   78.4660  222.9300 C   0  0  0  0  0  0  0  0  0  0  0  0
  140.1700   79.1360  223.0380 C   0  0  0  0  0  0  0  0  0  0  0  0
  140.2560   80.4300  223.5060 C   0  0  0  0  0  0  0  0  0  0  0  0
  141.4800   81.0550  223.5980 C   0  0  0  0  0  0  0  0  0  0  0  0
  142.6010   80.3520  223.2090 C   0  0  0  0  0  0  0  0  0  0  0  0
  142.5520   79.0550  222.7340 C   0  0  0  0  0  0  0  0  0  0  0  0
  141.3120   78.4460  222.6510 C   0  0  0  0  0  0  0  0  0  0  0  0
  141.2370   77.1750  222.1890 N   0  0  0  0  0  0  0  0  0  0  0  0
  140.6870   75.6970  219.6760 H   0  0  0  0  0  0  0  0  0  0  0  0
  139.9194   72.8595  220.4449 H   0  0  0  0  0  0  0  0  0  0  0  0
  139.6779   73.6514  218.7657 H   0  0  0  0  0  0  0  0  0  0  0  0
  143.9922   71.3844  220.3166 H   0  0  0  0  0  0  0  0  0  0  0  0
  143.9749   71.5354  218.5825 H   0  0  0  0  0  0  0  0  0  0  0  0
  145.4187   73.6976  218.7274 H   0  0  0  0  0  0  0  0  0  0  0  0
  146.2040   71.8630  220.6390 H   0  0  0  0  0  0  0  0  0  0  0  0
  144.7162   73.3322  221.7321 H   0  0  0  0  0  0  0  0  0  0  0  0
  145.2779   74.8167  221.0019 H   0  0  0  0  0  0  0  0  0  0  0  0
  142.6326   74.4283  221.2903 H   0  0  0  0  0  0  0  0  0  0  0  0
  143.3793   77.0228  216.6913 H   0  0  0  0  0  0  0  0  0  0  0  0
  142.7656   78.5579  218.8277 H   0  0  0  0  0  0  0  0  0  0  0  0
  142.7040   76.9950  220.8840 H   0  0  0  0  0  0  0  0  0  0  0  0
  137.9255   76.6396  222.3690 H   0  0  0  0  0  0  0  0  0  0  0  0
  138.0190   78.9770  223.2261 H   0  0  0  0  0  0  0  0  0  0  0  0
  139.3435   80.9654  223.8071 H   0  0  0  0  0  0  0  0  0  0  0  0
  141.5612   82.0865  223.9715 H   0  0  0  0  0  0  0  0  0  0  0  0
  143.5807   80.8471  223.2802 H   0  0  0  0  0  0  0  0  0  0  0  0
  143.4674   78.5249  222.4322 H   0  0  0  0  0  0  0  0  0  0  0  0
  1  2  2  0
  2  3  1  0
  3  4  1  0
  4  5  1  0
  5  6  2  0
  5  7  1  0
  7  8  1  0
  8  9  1  0
  9 10  1  0
  9 11  1  0
 11 12  1  0
 12 13  1  0
 13 14  2  0
 14 15  1  0
 15 16  2  0
 16 17  1  0
  2 18  1  0
 18 19  2  0
 19 20  1  0
 20 21  2  0
 21 22  1  0
 22 23  2  0
 23 24  1  0
 24 25  2  0
 25 26  1  0
 26 27  2  0
 12  7  1  0
 17 13  1  0
 27 18  1  0
 26 21  1  0
  3 28  1  0
  4 29  1  0
  4 30  1  0
  8 31  1  0
  8 32  1  0
  9 33  1  6
 10 34  1  0
 11 35  1  0
 11 36  1  0
 12 37  1  1
 15 38  1  0
 16 39  1  0
 17 40  1  0
 19 41  1  0
 20 42  1  0
 22 43  1  0
 23 44  1  0
 24 45  1  0
 25 46  1  0
M  END
>  <smiles>  (45) 
O=C(NCC(=O)N1C[C@H](O)C[C@H]1c1ncc[nH]1)c1ccc2ccccc2n1

>  <score_type>  (45) 
oracle

>  <origin>  (45) 
autodockgpu

>  <m_score__min__energy>  (45) 
-8.2100000000000009

>  <m_primary>  (45) 
energy

>  <rmsd>  (45) 
7.111807389532621

>  <m_score__min__rmsd>  (45) 
7.111807389532621

>  <meeko>  (45) 
{"free_energy": -7.38, "intermolecular_energy": -9.17, "internal_energy": -2.56, "cluster_size": 33, "cluster_id": 3, "rank_in_cluster": 18}

>  <energy>  (45) 
-7.22

>  <cluster_rmsd>  (45) 
1.03

>  <cluster>  (45) 
3

$$$$

     RDKit          3D

 46 49  0  0  0  0  0  0  0  0999 V2000
  140.0330   74.5000  222.3460 O   0  0  0  0  0  0  0  0  0  0  0  0
  140.2100   75.4870  221.5580 C   0  0  0  0  0  0  0  0  0  0  0  0
  140.4100   75.2670  220.1520 N   0  0  0  0  0  0  0  0  0  0  0  0
  140.4140   73.9650  219.5540 C   0  0  0  0  0  0  0  0  0  0  0  0
  141.4980   73.0480  219.8610 C   0  0  0  0  0  0  0  0  0  0  0  0
  141.1050   71.8370  220.1470 O   0  0  0  0  0  0  0  0  0  0  0  0
  142.8960   73.2910  219.8960 N   0  0  0  0  0  0  0  0  0  0  0  0
  144.0040   72.4880  219.4150 C   0  0  0  0  0  0  0  0  0  0  0  0
  145.0730   73.5710  219.1390 C   0  0  2  0  0  0  0  0  0  0  0  0
  146.3240   73.0250  218.9930 O   0  0  0  0  0  0  0  0  0  0  0  0
  144.9030   74.3720  220.4140 C   0  0  0  0  0  0  0  0  0  0  0  0
  143.4190   74.5340  220.4970 C   0  0  1  0  0  0  0  0  0  0  0  0
  142.9600   75.6890  219.6680 C   0  0  0  0  0  0  0  0  0  0  0  0
  142.5800   75.6500  218.3820 N   0  0  0  0  0  0  0  0  0  0  0  0
  142.2360   76.8810  217.9740 C   0  0  0  0  0  0  0  0  0  0  0  0
  142.4160   77.7180  219.0700 C   0  0  0  0  0  0  0  0  0  0  0  0
  142.8600   76.9630  220.0910 N   0  0  0  0  0  0  0  0  0  0  0  0
  140.2090   76.8640  222.0990 C   0  0  0  0  0  0  0  0  0  0  0  0
  139.0030   77.4540  222.4020 C   0  0  0  0  0  0  0  0  0  0  0  0
  138.9860   78.7490  222.9120 C   0  0  0  0  0  0  0  0  0  0  0  0
  140.1790   79.4510  223.1190 C   0  0  0  0  0  0  0  0  0  0  0  0
  140.1940   80.7340  223.6220 C   0  0  0  0  0  0  0  0  0  0  0  0
  141.3900   81.3910  223.8110 C   0  0  0  0  0  0  0  0  0  0  0  0
  142.5550   80.7310  223.4840 C   0  0  0  0  0  0  0  0  0  0  0  0
  142.5770   79.4450  222.9770 C   0  0  0  0  0  0  0  0  0  0  0  0
  141.3650   78.8030  222.7950 C   0  0  0  0  0  0  0  0  0  0  0  0
  141.3590   77.5420  222.2990 N   0  0  0  0  0  0  0  0  0  0  0  0
  140.5560   76.1620  219.5950 H   0  0  0  0  0  0  0  0  0  0  0  0
  139.4791   73.4699  219.8554 H   0  0  0  0  0  0  0  0  0  0  0  0
  140.5406   74.1702  218.4808 H   0  0  0  0  0  0  0  0  0  0  0  0
  144.3439   71.7735  220.1792 H   0  0  0  0  0  0  0  0  0  0  0  0
  143.7605   71.8654  218.5415 H   0  0  0  0  0  0  0  0  0  0  0  0
  144.9633   74.1500  218.2102 H   0  0  0  0  0  0  0  0  0  0  0  0
  146.9470   73.7610  218.8270 H   0  0  0  0  0  0  0  0  0  0  0  0
  145.2925   73.8227  221.2838 H   0  0  0  0  0  0  0  0  0  0  0  0
  145.4494   75.3267  220.4090 H   0  0  0  0  0  0  0  0  0  0  0  0
  143.0832   74.7137  221.5290 H   0  0  0  0  0  0  0  0  0  0  0  0
  141.8825   77.1702  216.9733 H   0  0  0  0  0  0  0  0  0  0  0  0
  142.2291   78.8017  219.0971 H   0  0  0  0  0  0  0  0  0  0  0  0
  143.0820   77.3310  221.0440 H   0  0  0  0  0  0  0  0  0  0  0  0
  138.0618   76.9075  222.2427 H   0  0  0  0  0  0  0  0  0  0  0  0
  138.0249   79.2257  223.1549 H   0  0  0  0  0  0  0  0  0  0  0  0
  139.2477   81.2352  223.8734 H   0  0  0  0  0  0  0  0  0  0  0  0
  141.4146   82.4149  224.2122 H   0  0  0  0  0  0  0  0  0  0  0  0
  143.5122   81.2520  223.6334 H   0  0  0  0  0  0  0  0  0  0  0  0
  143.5263   78.9488  222.7267 H   0  0  0  0  0  0  0  0  0  0  0  0
  1  2  2  0
  2  3  1  0
  3  4  1  0
  4  5  1  0
  5  6  2  0
  5  7  1  0
  7  8  1  0
  8  9  1  0
  9 10  1  0
  9 11  1  0
 11 12  1  0
 12 13  1  0
 13 14  2  0
 14 15  1  0
 15 16  2  0
 16 17  1  0
  2 18  1  0
 18 19  2  0
 19 20  1  0
 20 21  2  0
 21 22  1  0
 22 23  2  0
 23 24  1  0
 24 25  2  0
 25 26  1  0
 26 27  2  0
 12  7  1  0
 17 13  1  0
 27 18  1  0
 26 21  1  0
  3 28  1  0
  4 29  1  0
  4 30  1  0
  8 31  1  0
  8 32  1  0
  9 33  1  6
 10 34  1  0
 11 35  1  0
 11 36  1  0
 12 37  1  1
 15 38  1  0
 16 39  1  0
 17 40  1  0
 19 41  1  0
 20 42  1  0
 22 43  1  0
 23 44  1  0
 24 45  1  0
 25 46  1  0
M  END
>  <smiles>  (46) 
O=C(NCC(=O)N1C[C@H](O)C[C@H]1c1ncc[nH]1)c1ccc2ccccc2n1

>  <score_type>  (46) 
oracle

>  <origin>  (46) 
autodockgpu

>  <m_score__min__energy>  (46) 
-8.2100000000000009

>  <m_primary>  (46) 
energy

>  <rmsd>  (46) 
7.160236419244378

>  <m_score__min__rmsd>  (46) 
7.160236419244378

>  <meeko>  (46) 
{"free_energy": -7.47, "intermolecular_energy": -9.26, "internal_energy": -2.39, "cluster_size": 33, "cluster_id": 3, "rank_in_cluster": 14}

>  <energy>  (46) 
-7.21

>  <cluster_rmsd>  (46) 
1.26

>  <cluster>  (46) 
3

$$$$

     RDKit          3D

 46 49  0  0  0  0  0  0  0  0999 V2000
  139.6900   74.5440  222.2930 O   0  0  0  0  0  0  0  0  0  0  0  0
  140.1500   75.4970  221.5790 C   0  0  0  0  0  0  0  0  0  0  0  0
  140.5690   75.2540  220.2260 N   0  0  0  0  0  0  0  0  0  0  0  0
  140.4910   73.9690  219.5990 C   0  0  0  0  0  0  0  0  0  0  0  0
  141.4730   72.9540  219.9410 C   0  0  0  0  0  0  0  0  0  0  0  0
  140.9770   71.7520  220.0580 O   0  0  0  0  0  0  0  0  0  0  0  0
  142.8680   73.0930  220.1660 N   0  0  0  0  0  0  0  0  0  0  0  0
  143.9510   72.1470  219.9800 C   0  0  0  0  0  0  0  0  0  0  0  0
  145.1490   73.0950  219.7340 C   0  0  2  0  0  0  0  0  0  0  0  0
  146.3490   72.4400  219.8650 O   0  0  0  0  0  0  0  0  0  0  0  0
  144.8720   74.0860  220.8450 C   0  0  0  0  0  0  0  0  0  0  0  0
  143.4150   74.3690  220.6690 C   0  0  1  0  0  0  0  0  0  0  0  0
  143.1970   75.4200  219.6290 C   0  0  0  0  0  0  0  0  0  0  0  0
  143.1290   75.2310  218.3030 N   0  0  0  0  0  0  0  0  0  0  0  0
  142.9250   76.4050  217.6870 C   0  0  0  0  0  0  0  0  0  0  0  0
  142.8670   77.3640  218.6920 C   0  0  0  0  0  0  0  0  0  0  0  0
  143.0370   76.7340  219.8690 N   0  0  0  0  0  0  0  0  0  0  0  0
  140.2510   76.8560  222.1540 C   0  0  0  0  0  0  0  0  0  0  0  0
  139.1120   77.4510  222.6490 C   0  0  0  0  0  0  0  0  0  0  0  0
  139.1920   78.7300  223.1930 C   0  0  0  0  0  0  0  0  0  0  0  0
  140.4130   79.4110  223.2400 C   0  0  0  0  0  0  0  0  0  0  0  0
  140.5230   80.6790  223.7710 C   0  0  0  0  0  0  0  0  0  0  0  0
  141.7440   81.3150  223.7990 C   0  0  0  0  0  0  0  0  0  0  0  0
  142.8380   80.6520  223.2830 C   0  0  0  0  0  0  0  0  0  0  0  0
  142.7630   79.3820  222.7420 C   0  0  0  0  0  0  0  0  0  0  0  0
  141.5280   78.7600  222.7240 C   0  0  0  0  0  0  0  0  0  0  0  0
  141.4290   77.5150  222.2000 N   0  0  0  0  0  0  0  0  0  0  0  0
  140.9430   76.1200  219.7320 H   0  0  0  0  0  0  0  0  0  0  0  0
  139.5015   73.5532  219.8397 H   0  0  0  0  0  0  0  0  0  0  0  0
  140.6922   74.1819  218.5387 H   0  0  0  0  0  0  0  0  0  0  0  0
  144.1044   71.5301  220.8777 H   0  0  0  0  0  0  0  0  0  0  0  0
  143.7793   71.4217  219.1710 H   0  0  0  0  0  0  0  0  0  0  0  0
  145.2337   73.5370  218.7303 H   0  0  0  0  0  0  0  0  0  0  0  0
  146.2900   71.8790  220.6650 H   0  0  0  0  0  0  0  0  0  0  0  0
  145.0749   73.6442  221.8317 H   0  0  0  0  0  0  0  0  0  0  0  0
  145.5027   74.9860  220.7977 H   0  0  0  0  0  0  0  0  0  0  0  0
  142.9501   74.7241  221.6005 H   0  0  0  0  0  0  0  0  0  0  0  0
  142.8240   76.5748  216.6049 H   0  0  0  0  0  0  0  0  0  0  0  0
  142.7103   78.4436  218.5505 H   0  0  0  0  0  0  0  0  0  0  0  0
  143.0390   77.2120  220.7980 H   0  0  0  0  0  0  0  0  0  0  0  0
  138.1487   76.9210  222.6149 H   0  0  0  0  0  0  0  0  0  0  0  0
  138.2855   79.2102  223.5901 H   0  0  0  0  0  0  0  0  0  0  0  0
  139.6325   81.1840  224.1735 H   0  0  0  0  0  0  0  0  0  0  0  0
  141.8444   82.3255  224.2219 H   0  0  0  0  0  0  0  0  0  0  0  0
  143.8150   81.1570  223.3029 H   0  0  0  0  0  0  0  0  0  0  0  0
  143.6564   78.8826  222.3391 H   0  0  0  0  0  0  0  0  0  0  0  0
  1  2  2  0
  2  3  1  0
  3  4  1  0
  4  5  1  0
  5  6  2  0
  5  7  1  0
  7  8  1  0
  8  9  1  0
  9 10  1  0
  9 11  1  0
 11 12  1  0
 12 13  1  0
 13 14  2  0
 14 15  1  0
 15 16  2  0
 16 17  1  0
  2 18  1  0
 18 19  2  0
 19 20  1  0
 20 21  2  0
 21 22  1  0
 22 23  2  0
 23 24  1  0
 24 25  2  0
 25 26  1  0
 26 27  2  0
 12  7  1  0
 17 13  1  0
 27 18  1  0
 26 21  1  0
  3 28  1  0
  4 29  1  0
  4 30  1  0
  8 31  1  0
  8 32  1  0
  9 33  1  6
 10 34  1  0
 11 35  1  0
 11 36  1  0
 12 37  1  1
 15 38  1  0
 16 39  1  0
 17 40  1  0
 19 41  1  0
 20 42  1  0
 22 43  1  0
 23 44  1  0
 24 45  1  0
 25 46  1  0
M  END
>  <smiles>  (47) 
O=C(NCC(=O)N1C[C@H](O)C[C@H]1c1ncc[nH]1)c1ccc2ccccc2n1

>  <score_type>  (47) 
oracle

>  <origin>  (47) 
autodockgpu

>  <m_score__min__energy>  (47) 
-8.2100000000000009

>  <m_primary>  (47) 
energy

>  <rmsd>  (47) 
7.267802644948396

>  <m_score__min__rmsd>  (47) 
7.267802644948396

>  <meeko>  (47) 
{"free_energy": -7.61, "intermolecular_energy": -9.4, "internal_energy": -2.34, "cluster_size": 33, "cluster_id": 3, "rank_in_cluster": 9}

>  <energy>  (47) 
-7.17

>  <cluster_rmsd>  (47) 
0.99

>  <cluster>  (47) 
3

$$$$

     RDKit          3D

 46 49  0  0  0  0  0  0  0  0999 V2000
  140.3950   73.8800  222.3230 O   0  0  0  0  0  0  0  0  0  0  0  0
  140.2120   74.8410  221.5030 C   0  0  0  0  0  0  0  0  0  0  0  0
  140.1420   74.5860  220.0900 N   0  0  0  0  0  0  0  0  0  0  0  0
  140.2580   73.2770  219.5220 C   0  0  0  0  0  0  0  0  0  0  0  0
  141.5280   72.8620  218.9510 C   0  0  0  0  0  0  0  0  0  0  0  0
  141.4310   72.3470  217.7550 O   0  0  0  0  0  0  0  0  0  0  0  0
  142.8300   72.9360  219.5100 N   0  0  0  0  0  0  0  0  0  0  0  0
  143.9630   72.0390  219.3800 C   0  0  0  0  0  0  0  0  0  0  0  0
  145.1490   73.0050  219.6180 C   0  0  2  0  0  0  0  0  0  0  0  0
  146.3130   72.3250  219.8760 O   0  0  0  0  0  0  0  0  0  0  0  0
  144.5920   73.7380  220.8200 C   0  0  0  0  0  0  0  0  0  0  0  0
  143.2020   74.0680  220.3820 C   0  0  1  0  0  0  0  0  0  0  0  0
  143.1820   75.3200  219.5640 C   0  0  0  0  0  0  0  0  0  0  0  0
  143.4650   75.4260  218.2580 N   0  0  0  0  0  0  0  0  0  0  0  0
  143.3430   76.7050  217.8700 C   0  0  0  0  0  0  0  0  0  0  0  0
  142.9640   77.4180  219.0020 C   0  0  0  0  0  0  0  0  0  0  0  0
  142.8740   76.5470  220.0230 N   0  0  0  0  0  0  0  0  0  0  0  0
  140.0730   76.2220  222.0150 C   0  0  0  0  0  0  0  0  0  0  0  0
  138.8090   76.7150  222.2490 C   0  0  0  0  0  0  0  0  0  0  0  0
  138.6630   78.0140  222.7310 C   0  0  0  0  0  0  0  0  0  0  0  0
  139.7830   78.8150  222.9770 C   0  0  0  0  0  0  0  0  0  0  0  0
  139.6700   80.1030  223.4540 C   0  0  0  0  0  0  0  0  0  0  0  0
  140.7970   80.8600  223.6830 C   0  0  0  0  0  0  0  0  0  0  0  0
  142.0270   80.2920  223.4240 C   0  0  0  0  0  0  0  0  0  0  0  0
  142.1780   79.0040  222.9450 C   0  0  0  0  0  0  0  0  0  0  0  0
  141.0320   78.2620  222.7210 C   0  0  0  0  0  0  0  0  0  0  0  0
  141.1530   76.9960  222.2530 N   0  0  0  0  0  0  0  0  0  0  0  0
  139.9960   75.4630  219.5040 H   0  0  0  0  0  0  0  0  0  0  0  0
  140.0135   72.5584  220.3181 H   0  0  0  0  0  0  0  0  0  0  0  0
  139.5793   73.3062  218.6568 H   0  0  0  0  0  0  0  0  0  0  0  0
  143.9345   71.2429  220.1385 H   0  0  0  0  0  0  0  0  0  0  0  0
  144.0048   71.5050  218.4192 H   0  0  0  0  0  0  0  0  0  0  0  0
  145.4397   73.6507  218.7763 H   0  0  0  0  0  0  0  0  0  0  0  0
  146.2000   71.8700  220.7350 H   0  0  0  0  0  0  0  0  0  0  0  0
  144.5854   73.0930  221.7110 H   0  0  0  0  0  0  0  0  0  0  0  0
  145.1823   74.6205  221.1077 H   0  0  0  0  0  0  0  0  0  0  0  0
  142.5280   74.2205  221.2379 H   0  0  0  0  0  0  0  0  0  0  0  0
  143.5093   77.1080  216.8601 H   0  0  0  0  0  0  0  0  0  0  0  0
  142.7723   78.4999  219.0533 H   0  0  0  0  0  0  0  0  0  0  0  0
  142.6070   76.8080  220.9990 H   0  0  0  0  0  0  0  0  0  0  0  0
  137.9242   76.0902  222.0575 H   0  0  0  0  0  0  0  0  0  0  0  0
  137.6559   78.4141  222.9202 H   0  0  0  0  0  0  0  0  0  0  0  0
  138.6751   80.5281  223.6526 H   0  0  0  0  0  0  0  0  0  0  0  0
  140.7187   81.8896  224.0621 H   0  0  0  0  0  0  0  0  0  0  0  0
  142.9304   80.8922  223.6072 H   0  0  0  0  0  0  0  0  0  0  0  0
  143.1753   78.5835  222.7487 H   0  0  0  0  0  0  0  0  0  0  0  0
  1  2  2  0
  2  3  1  0
  3  4  1  0
  4  5  1  0
  5  6  2  0
  5  7  1  0
  7  8  1  0
  8  9  1  0
  9 10  1  0
  9 11  1  0
 11 12  1  0
 12 13  1  0
 13 14  2  0
 14 15  1  0
 15 16  2  0
 16 17  1  0
  2 18  1  0
 18 19  2  0
 19 20  1  0
 20 21  2  0
 21 22  1  0
 22 23  2  0
 23 24  1  0
 24 25  2  0
 25 26  1  0
 26 27  2  0
 12  7  1  0
 17 13  1  0
 27 18  1  0
 26 21  1  0
  3 28  1  0
  4 29  1  0
  4 30  1  0
  8 31  1  0
  8 32  1  0
  9 33  1  6
 10 34  1  0
 11 35  1  0
 11 36  1  0
 12 37  1  1
 15 38  1  0
 16 39  1  0
 17 40  1  0
 19 41  1  0
 20 42  1  0
 22 43  1  0
 23 44  1  0
 24 45  1  0
 25 46  1  0
M  END
>  <smiles>  (48) 
O=C(NCC(=O)N1C[C@H](O)C[C@H]1c1ncc[nH]1)c1ccc2ccccc2n1

>  <score_type>  (48) 
oracle

>  <origin>  (48) 
autodockgpu

>  <m_score__min__energy>  (48) 
-8.2100000000000009

>  <m_primary>  (48) 
energy

>  <rmsd>  (48) 
6.956346362926143

>  <m_score__min__rmsd>  (48) 
6.956346362926143

>  <meeko>  (48) 
{"free_energy": -7.28, "intermolecular_energy": -9.07, "internal_energy": -2.58, "cluster_size": 33, "cluster_id": 3, "rank_in_cluster": 26}

>  <energy>  (48) 
-7.1

>  <cluster_rmsd>  (48) 
1.02

>  <cluster>  (48) 
3

$$$$

     RDKit          3D

 46 49  0  0  0  0  0  0  0  0999 V2000
  138.6410   75.2710  222.2390 O   0  0  0  0  0  0  0  0  0  0  0  0
  139.8320   75.7310  222.2210 C   0  0  0  0  0  0  0  0  0  0  0  0
  140.9370   74.8730  221.8940 N   0  0  0  0  0  0  0  0  0  0  0  0
  140.7840   73.4870  221.5650 C   0  0  0  0  0  0  0  0  0  0  0  0
  141.6490   72.8990  220.5570 C   0  0  0  0  0  0  0  0  0  0  0  0
  141.0090   72.2820  219.6010 O   0  0  0  0  0  0  0  0  0  0  0  0
  143.0670   72.9020  220.4770 N   0  0  0  0  0  0  0  0  0  0  0  0
  143.9890   71.8580  220.0730 C   0  0  0  0  0  0  0  0  0  0  0  0
  145.1930   72.6900  219.5690 C   0  0  2  0  0  0  0  0  0  0  0  0
  146.3240   71.9220  219.4450 O   0  0  0  0  0  0  0  0  0  0  0  0
  145.2560   73.6890  220.7050 C   0  0  0  0  0  0  0  0  0  0  0  0
  143.8290   74.1130  220.8410 C   0  0  1  0  0  0  0  0  0  0  0  0
  143.4960   75.1930  219.8620 C   0  0  0  0  0  0  0  0  0  0  0  0
  142.5990   76.1750  220.0290 N   0  0  0  0  0  0  0  0  0  0  0  0
  142.5720   76.9550  218.9380 C   0  0  0  0  0  0  0  0  0  0  0  0
  143.5030   76.4190  218.0560 C   0  0  0  0  0  0  0  0  0  0  0  0
  144.0520   75.3410  218.6460 N   0  0  0  0  0  0  0  0  0  0  0  0
  140.0680   77.1560  222.5400 C   0  0  0  0  0  0  0  0  0  0  0  0
  138.9820   77.9860  222.7060 C   0  0  0  0  0  0  0  0  0  0  0  0
  139.1900   79.3290  223.0060 C   0  0  0  0  0  0  0  0  0  0  0  0
  140.4860   79.8390  223.1390 C   0  0  0  0  0  0  0  0  0  0  0  0
  140.7230   81.1650  223.4350 C   0  0  0  0  0  0  0  0  0  0  0  0
  142.0140   81.6280  223.5580 C   0  0  0  0  0  0  0  0  0  0  0  0
  143.0480   80.7330  223.3770 C   0  0  0  0  0  0  0  0  0  0  0  0
  142.8470   79.3990  223.0790 C   0  0  0  0  0  0  0  0  0  0  0  0
  141.5420   78.9540  222.9600 C   0  0  0  0  0  0  0  0  0  0  0  0
  141.3190   77.6500  222.6680 N   0  0  0  0  0  0  0  0  0  0  0  0
  141.8810   75.3630  221.9190 H   0  0  0  0  0  0  0  0  0  0  0  0
  140.9384   72.9173  222.4932 H   0  0  0  0  0  0  0  0  0  0  0  0
  139.7822   73.4339  221.1138 H   0  0  0  0  0  0  0  0  0  0  0  0
  144.2697   71.2185  220.9228 H   0  0  0  0  0  0  0  0  0  0  0  0
  143.5799   71.1619  219.3259 H   0  0  0  0  0  0  0  0  0  0  0  0
  145.1038   73.1346  218.5668 H   0  0  0  0  0  0  0  0  0  0  0  0
  146.3600   71.3290  220.2240 H   0  0  0  0  0  0  0  0  0  0  0  0
  145.6206   73.2175  221.6295 H   0  0  0  0  0  0  0  0  0  0  0  0
  145.9462   74.5246  220.5169 H   0  0  0  0  0  0  0  0  0  0  0  0
  143.6102   74.4999  221.8472 H   0  0  0  0  0  0  0  0  0  0  0  0
  141.9403   77.8405  218.7743 H   0  0  0  0  0  0  0  0  0  0  0  0
  143.7472   76.8062  217.0558 H   0  0  0  0  0  0  0  0  0  0  0  0
  144.7870   74.7400  218.2090 H   0  0  0  0  0  0  0  0  0  0  0  0
  137.9604   77.5916  222.6025 H   0  0  0  0  0  0  0  0  0  0  0  0
  138.3262   79.9967  223.1400 H   0  0  0  0  0  0  0  0  0  0  0  0
  139.8777   81.8552  223.5733 H   0  0  0  0  0  0  0  0  0  0  0  0
  142.2154   82.6833  223.7943 H   0  0  0  0  0  0  0  0  0  0  0  0
  144.0809   81.0985  223.4745 H   0  0  0  0  0  0  0  0  0  0  0  0
  143.6960   78.7134  222.9409 H   0  0  0  0  0  0  0  0  0  0  0  0
  1  2  2  0
  2  3  1  0
  3  4  1  0
  4  5  1  0
  5  6  2  0
  5  7  1  0
  7  8  1  0
  8  9  1  0
  9 10  1  0
  9 11  1  0
 11 12  1  0
 12 13  1  0
 13 14  2  0
 14 15  1  0
 15 16  2  0
 16 17  1  0
  2 18  1  0
 18 19  2  0
 19 20  1  0
 20 21  2  0
 21 22  1  0
 22 23  2  0
 23 24  1  0
 24 25  2  0
 25 26  1  0
 26 27  2  0
 12  7  1  0
 17 13  1  0
 27 18  1  0
 26 21  1  0
  3 28  1  0
  4 29  1  0
  4 30  1  0
  8 31  1  0
  8 32  1  0
  9 33  1  6
 10 34  1  0
 11 35  1  0
 11 36  1  0
 12 37  1  1
 15 38  1  0
 16 39  1  0
 17 40  1  0
 19 41  1  0
 20 42  1  0
 22 43  1  0
 23 44  1  0
 24 45  1  0
 25 46  1  0
M  END
>  <smiles>  (49) 
O=C(NCC(=O)N1C[C@H](O)C[C@H]1c1ncc[nH]1)c1ccc2ccccc2n1

>  <score_type>  (49) 
oracle

>  <origin>  (49) 
autodockgpu

>  <m_score__min__energy>  (49) 
-8.2100000000000009

>  <m_primary>  (49) 
energy

>  <rmsd>  (49) 
7.535819754965453

>  <m_score__min__rmsd>  (49) 
7.535819754965453

>  <meeko>  (49) 
{"free_energy": -7.49, "intermolecular_energy": -9.28, "internal_energy": -2.54, "cluster_size": 33, "cluster_id": 3, "rank_in_cluster": 12}

>  <energy>  (49) 
-6.87

>  <cluster_rmsd>  (49) 
1.14

>  <cluster>  (49) 
3

$$$$

     RDKit          3D

 46 49  0  0  0  0  0  0  0  0999 V2000
  141.3630   72.2550  221.4640 O   0  0  0  0  0  0  0  0  0  0  0  0
  140.4170   72.4830  222.2890 C   0  0  0  0  0  0  0  0  0  0  0  0
  139.5400   73.6050  222.0970 N   0  0  0  0  0  0  0  0  0  0  0  0
  139.6540   74.5110  220.9930 C   0  0  0  0  0  0  0  0  0  0  0  0
  140.8560   75.3160  220.8610 C   0  0  0  0  0  0  0  0  0  0  0  0
  141.4850   75.5230  221.9860 O   0  0  0  0  0  0  0  0  0  0  0  0
  141.4210   75.9010  219.6970 N   0  0  0  0  0  0  0  0  0  0  0  0
  141.4470   77.2820  219.2540 C   0  0  0  0  0  0  0  0  0  0  0  0
  142.7260   77.3010  218.3830 C   0  0  2  0  0  0  0  0  0  0  0  0
  142.7780   78.4160  217.5830 O   0  0  0  0  0  0  0  0  0  0  0  0
  142.4870   76.0150  217.6190 C   0  0  0  0  0  0  0  0  0  0  0  0
  142.1220   75.0570  218.7080 C   0  0  1  0  0  0  0  0  0  0  0  0
  143.3450   74.4900  219.3530 C   0  0  0  0  0  0  0  0  0  0  0  0
  144.1470   73.5400  218.8500 N   0  0  0  0  0  0  0  0  0  0  0  0
  145.1430   73.2860  219.7110 C   0  0  0  0  0  0  0  0  0  0  0  0
  144.9380   74.1250  220.8000 C   0  0  0  0  0  0  0  0  0  0  0  0
  143.8310   74.8490  220.5550 N   0  0  0  0  0  0  0  0  0  0  0  0
  140.2280   71.5850  223.4490 C   0  0  0  0  0  0  0  0  0  0  0  0
  139.5490   70.4020  223.2650 C   0  0  0  0  0  0  0  0  0  0  0  0
  139.3630   69.5460  224.3480 C   0  0  0  0  0  0  0  0  0  0  0  0
  139.8590   69.8780  225.6130 C   0  0  0  0  0  0  0  0  0  0  0  0
  139.6900   69.0510  226.7040 C   0  0  0  0  0  0  0  0  0  0  0  0
  140.1930   69.4140  227.9330 C   0  0  0  0  0  0  0  0  0  0  0  0
  140.8620   70.6160  228.0350 C   0  0  0  0  0  0  0  0  0  0  0  0
  141.0490   71.4680  226.9640 C   0  0  0  0  0  0  0  0  0  0  0  0
  140.5350   71.0850  225.7380 C   0  0  0  0  0  0  0  0  0  0  0  0
  140.7060   71.9040  224.6710 N   0  0  0  0  0  0  0  0  0  0  0  0
  138.7950   73.7000  222.8520 H   0  0  0  0  0  0  0  0  0  0  0  0
  139.5653   73.9121  220.0746 H   0  0  0  0  0  0  0  0  0  0  0  0
  138.8612   75.2509  221.1774 H   0  0  0  0  0  0  0  0  0  0  0  0
  140.5539   77.5313  218.6623 H   0  0  0  0  0  0  0  0  0  0  0  0
  141.4505   78.0163  220.0730 H   0  0  0  0  0  0  0  0  0  0  0  0
  143.6873   77.3511  218.9153 H   0  0  0  0  0  0  0  0  0  0  0  0
  143.7200   78.6610  217.4850 H   0  0  0  0  0  0  0  0  0  0  0  0
  141.6651   76.1282  216.8967 H   0  0  0  0  0  0  0  0  0  0  0  0
  143.3521   75.6918  217.0213 H   0  0  0  0  0  0  0  0  0  0  0  0
  141.5261   74.2132  218.3299 H   0  0  0  0  0  0  0  0  0  0  0  0
  145.9587   72.5594  219.5815 H   0  0  0  0  0  0  0  0  0  0  0  0
  145.5675   74.1860  221.7000 H   0  0  0  0  0  0  0  0  0  0  0  0
  143.4380   75.5650  221.2070 H   0  0  0  0  0  0  0  0  0  0  0  0
  139.1571   70.1352  222.2724 H   0  0  0  0  0  0  0  0  0  0  0  0
  138.8206   68.5994  224.2070 H   0  0  0  0  0  0  0  0  0  0  0  0
  139.1516   68.0984  226.5916 H   0  0  0  0  0  0  0  0  0  0  0  0
  140.0648   68.7629  228.8103 H   0  0  0  0  0  0  0  0  0  0  0  0
  141.2655   70.9098  229.0152 H   0  0  0  0  0  0  0  0  0  0  0  0
  141.5886   72.4193  227.0820 H   0  0  0  0  0  0  0  0  0  0  0  0
  1  2  2  0
  2  3  1  0
  3  4  1  0
  4  5  1  0
  5  6  2  0
  5  7  1  0
  7  8  1  0
  8  9  1  0
  9 10  1  0
  9 11  1  0
 11 12  1  0
 12 13  1  0
 13 14  2  0
 14 15  1  0
 15 16  2  0
 16 17  1  0
  2 18  1  0
 18 19  2  0
 19 20  1  0
 20 21  2  0
 21 22  1  0
 22 23  2  0
 23 24  1  0
 24 25  2  0
 25 26  1  0
 26 27  2  0
 12  7  1  0
 17 13  1  0
 27 18  1  0
 26 21  1  0
  3 28  1  0
  4 29  1  0
  4 30  1  0
  8 31  1  0
  8 32  1  0
  9 33  1  1
 10 34  1  0
 11 35  1  0
 11 36  1  0
 12 37  1  6
 15 38  1  0
 16 39  1  0
 17 40  1  0
 19 41  1  0
 20 42  1  0
 22 43  1  0
 23 44  1  0
 24 45  1  0
 25 46  1  0
M  END
>  <smiles>  (50) 
O=C(NCC(=O)N1C[C@H](O)C[C@H]1c1ncc[nH]1)c1ccc2ccccc2n1

>  <score_type>  (50) 
oracle

>  <origin>  (50) 
autodockgpu

>  <m_score__min__energy>  (50) 
-8.2100000000000009

>  <m_primary>  (50) 
energy

>  <rmsd>  (50) 
3.262370729845657

>  <m_score__min__rmsd>  (50) 
3.262370729845657

>  <meeko>  (50) 
{"free_energy": -7.71, "intermolecular_energy": -9.5, "internal_energy": -2.1, "cluster_size": 9, "cluster_id": 2, "rank_in_cluster": 4}

>  <energy>  (50) 
-7.0

>  <cluster_rmsd>  (50) 
0.0

>  <cluster>  (50) 
4

$$$$
