
     RDKit          3D

 55 58  0  0  0  0  0  0  0  0999 V2000
  130.8620   78.4100  228.6240 C   0  0  0  0  0  0  0  0  0  0  0  0
  131.7260   77.3610  228.0260 C   0  0  0  0  0  0  0  0  0  0  0  0
  132.9560   77.6980  227.5030 C   0  0  0  0  0  0  0  0  0  0  0  0
  133.7550   76.7130  226.9480 C   0  0  0  0  0  0  0  0  0  0  0  0
  133.3640   75.3900  226.8970 C   0  0  0  0  0  0  0  0  0  0  0  0
  132.1230   75.0540  227.4270 C   0  0  0  0  0  0  0  0  0  0  0  0
  131.3190   76.0390  227.9840 C   0  0  0  0  0  0  0  0  0  0  0  0
  131.9170   73.5940  227.2650 C   0  0  0  0  0  0  0  0  0  0  0  0
  133.1770   73.1800  226.5930 C   0  0  0  0  0  0  0  0  0  0  0  0
  133.4870   71.8070  226.2010 C   0  0  0  0  0  0  0  0  0  0  0  0
  132.5960   70.7760  226.4110 C   0  0  0  0  0  0  0  0  0  0  0  0
  132.8660   69.4670  226.0490 C   0  0  0  0  0  0  0  0  0  0  0  0
  134.0900   69.2250  225.4540 C   0  0  0  0  0  0  0  0  0  0  0  0
  135.0190   70.2120  225.2180 C   0  0  0  0  0  0  0  0  0  0  0  0
  136.3120   69.9850  224.5960 C   0  0  0  0  0  0  0  0  0  0  0  0
  136.7360   70.7300  223.6750 O   0  0  0  0  0  0  0  0  0  0  0  0
  137.1850   68.9120  224.9780 N   0  0  0  0  0  0  0  0  0  0  0  0
  138.4340   68.8150  224.2700 C   0  0  0  0  0  0  0  0  0  0  0  0
  139.5970   68.4610  225.1150 C   0  0  0  0  0  0  0  0  0  0  0  0
  140.0790   69.4450  226.1000 C   0  0  0  0  0  0  0  0  0  0  0  0
  139.5150   69.2260  227.4930 C   0  0  0  0  0  0  0  0  0  0  0  0
  139.7980   70.4680  228.3500 C   0  0  0  0  0  0  0  0  0  0  0  0
  141.1010   71.1110  227.9440 C   0  0  0  0  0  0  0  0  0  0  0  0
  141.0320   71.6660  226.5350 C   0  0  0  0  0  0  0  0  0  0  0  0
  140.0100   70.8830  225.7080 C   0  0  0  0  0  0  0  0  0  0  0  0
  134.6880   71.4910  225.6030 C   0  0  0  0  0  0  0  0  0  0  0  0
  133.9410   74.1870  226.4090 N   0  0  0  0  0  0  0  0  0  0  0  0
  130.9142   78.3466  229.7209 H   0  0  0  0  0  0  0  0  0  0  0  0
  131.2091   79.4013  228.2970 H   0  0  0  0  0  0  0  0  0  0  0  0
  129.8226   78.2593  228.2970 H   0  0  0  0  0  0  0  0  0  0  0  0
  133.3004   78.7424  227.5265 H   0  0  0  0  0  0  0  0  0  0  0  0
  134.7345   76.9940  226.5337 H   0  0  0  0  0  0  0  0  0  0  0  0
  130.3389   75.7632  228.4003 H   0  0  0  0  0  0  0  0  0  0  0  0
  131.8004   73.0958  228.2387 H   0  0  0  0  0  0  0  0  0  0  0  0
  131.0073   73.3327  226.7044 H   0  0  0  0  0  0  0  0  0  0  0  0
  131.6301   71.0028  226.8860 H   0  0  0  0  0  0  0  0  0  0  0  0
  132.1414   68.6587  226.2264 H   0  0  0  0  0  0  0  0  0  0  0  0
  134.3327   68.1946  225.1551 H   0  0  0  0  0  0  0  0  0  0  0  0
  136.8570   68.3020  225.7350 H   0  0  0  0  0  0  0  0  0  0  0  0
  138.3282   68.0445  223.4921 H   0  0  0  0  0  0  0  0  0  0  0  0
  138.6390   69.8158  223.8620 H   0  0  0  0  0  0  0  0  0  0  0  0
  139.3286   67.5505  225.6709 H   0  0  0  0  0  0  0  0  0  0  0  0
  140.4285   68.3671  224.4010 H   0  0  0  0  0  0  0  0  0  0  0  0
  141.1567   69.2255  226.1203 H   0  0  0  0  0  0  0  0  0  0  0  0
  138.4292   69.0620  227.4293 H   0  0  0  0  0  0  0  0  0  0  0  0
  139.9880   68.3444  227.9502 H   0  0  0  0  0  0  0  0  0  0  0  0
  138.9810   71.1924  228.2167 H   0  0  0  0  0  0  0  0  0  0  0  0
  139.8684   70.1615  229.4041 H   0  0  0  0  0  0  0  0  0  0  0  0
  141.3268   71.9318  228.6407 H   0  0  0  0  0  0  0  0  0  0  0  0
  141.8885   70.3435  227.9742 H   0  0  0  0  0  0  0  0  0  0  0  0
  140.7329   72.7238  226.5754 H   0  0  0  0  0  0  0  0  0  0  0  0
  142.0217   71.5732  226.0639 H   0  0  0  0  0  0  0  0  0  0  0  0
  138.9997   71.2719  225.9032 H   0  0  0  0  0  0  0  0  0  0  0  0
  140.2333   70.9907  224.6363 H   0  0  0  0  0  0  0  0  0  0  0  0
  135.4146   72.2975  225.4255 H   0  0  0  0  0  0  0  0  0  0  0  0
  1  2  1  0
  2  3  2  0
  3  4  1  0
  4  5  2  0
  5  6  1  0
  6  7  2  0
  6  8  1  0
  8  9  1  0
  9 10  1  0
 10 11  2  0
 11 12  1  0
 12 13  2  0
 13 14  1  0
 14 15  1  0
 15 16  2  0
 15 17  1  0
 17 18  1  0
 18 19  1  0
 19 20  1  0
 20 21  1  0
 21 22  1  0
 22 23  1  0
 23 24  1  0
 24 25  1  0
 14 26  2  0
  9 27  2  0
  7  2  1  0
 26 10  1  0
 27  5  1  0
 25 20  1  0
  1 28  1  0
  1 29  1  0
  1 30  1  0
  3 31  1  0
  4 32  1  0
  7 33  1  0
  8 34  1  0
  8 35  1  0
 11 36  1  0
 12 37  1  0
 13 38  1  0
 17 39  1  0
 18 40  1  0
 18 41  1  0
 19 42  1  0
 19 43  1  0
 20 44  1  0
 21 45  1  0
 21 46  1  0
 22 47  1  0
 22 48  1  0
 23 49  1  0
 23 50  1  0
 24 51  1  0
 24 52  1  0
 25 53  1  0
 25 54  1  0
 26 55  1  0
M  END
>  <smiles>  (1) 
Cc1ccc2c(c1)CC(c1cccc(C(=O)NCCC3CCCCC3)c1)=N2

>  <score_type>  (1) 
oracle

>  <origin>  (1) 
autodockgpu

>  <m_score__min__energy>  (1) 
-8.6999999999999993

>  <m_primary>  (1) 
energy

>  <rmsd>  (1) 
12.102740632941792

>  <m_score__min__rmsd>  (1) 
12.102740632941792

>  <meeko>  (1) 
{"free_energy": -8.19, "intermolecular_energy": -9.69, "internal_energy": -1.03, "cluster_size": 11, "cluster_id": 1, "rank_in_cluster": 6}

>  <energy>  (1) 
-8.7

>  <cluster_rmsd>  (1) 
0.0

>  <cluster>  (1) 
1

$$$$

     RDKit          3D

 55 58  0  0  0  0  0  0  0  0999 V2000
  133.0340   79.4240  226.5640 C   0  0  0  0  0  0  0  0  0  0  0  0
  132.9220   77.9610  226.7900 C   0  0  0  0  0  0  0  0  0  0  0  0
  132.1120   77.4810  227.7970 C   0  0  0  0  0  0  0  0  0  0  0  0
  132.0140   76.1150  228.0010 C   0  0  0  0  0  0  0  0  0  0  0  0
  132.7030   75.2040  227.2260 C   0  0  0  0  0  0  0  0  0  0  0  0
  133.5170   75.6930  226.2100 C   0  0  0  0  0  0  0  0  0  0  0  0
  133.6200   77.0620  226.0030 C   0  0  0  0  0  0  0  0  0  0  0  0
  134.1510   74.5440  225.5160 C   0  0  0  0  0  0  0  0  0  0  0  0
  133.5920   73.3880  226.2640 C   0  0  0  0  0  0  0  0  0  0  0  0
  133.9050   71.9920  225.9730 C   0  0  0  0  0  0  0  0  0  0  0  0
  133.0540   70.9680  226.3330 C   0  0  0  0  0  0  0  0  0  0  0  0
  133.3300   69.6370  226.0680 C   0  0  0  0  0  0  0  0  0  0  0  0
  134.5170   69.3640  225.4140 C   0  0  0  0  0  0  0  0  0  0  0  0
  135.4050   70.3410  225.0300 C   0  0  0  0  0  0  0  0  0  0  0  0
  136.6590   70.0820  224.3430 C   0  0  0  0  0  0  0  0  0  0  0  0
  136.9390   68.9380  223.9000 O   0  0  0  0  0  0  0  0  0  0  0  0
  137.6520   71.0940  224.1230 N   0  0  0  0  0  0  0  0  0  0  0  0
  138.8430   70.6850  223.4270 C   0  0  0  0  0  0  0  0  0  0  0  0
  139.6870   69.7170  224.1650 C   0  0  0  0  0  0  0  0  0  0  0  0
  140.1310   70.0620  225.5260 C   0  0  0  0  0  0  0  0  0  0  0  0
  139.3930   69.2960  226.6110 C   0  0  0  0  0  0  0  0  0  0  0  0
  139.6770   69.9520  227.9700 C   0  0  0  0  0  0  0  0  0  0  0  0
  141.0660   70.5390  228.0000 C   0  0  0  0  0  0  0  0  0  0  0  0
  141.2060   71.6880  227.0210 C   0  0  0  0  0  0  0  0  0  0  0  0
  140.2250   71.5140  225.8590 C   0  0  0  0  0  0  0  0  0  0  0  0
  135.0710   71.6440  225.3240 C   0  0  0  0  0  0  0  0  0  0  0  0
  132.8060   73.7870  227.1880 N   0  0  0  0  0  0  0  0  0  0  0  0
  133.0737   79.9428  227.5332 H   0  0  0  0  0  0  0  0  0  0  0  0
  133.9512   79.6381  225.9957 H   0  0  0  0  0  0  0  0  0  0  0  0
  132.1601   79.7752  225.9957 H   0  0  0  0  0  0  0  0  0  0  0  0
  131.5476   78.1781  228.4338 H   0  0  0  0  0  0  0  0  0  0  0  0
  131.3653   75.7433  228.8078 H   0  0  0  0  0  0  0  0  0  0  0  0
  134.2685   77.4390  225.1985 H   0  0  0  0  0  0  0  0  0  0  0  0
  133.8645   74.5101  224.4545 H   0  0  0  0  0  0  0  0  0  0  0  0
  135.2504   74.5799  225.5100 H   0  0  0  0  0  0  0  0  0  0  0  0
  132.1172   71.2189  226.8521 H   0  0  0  0  0  0  0  0  0  0  0  0
  132.6376   68.8351  226.3638 H   0  0  0  0  0  0  0  0  0  0  0  0
  134.7627   68.3154  225.1902 H   0  0  0  0  0  0  0  0  0  0  0  0
  137.4320   72.0340  224.4700 H   0  0  0  0  0  0  0  0  0  0  0  0
  138.5424   70.2224  222.4754 H   0  0  0  0  0  0  0  0  0  0  0  0
  139.4523   71.5910  223.2930 H   0  0  0  0  0  0  0  0  0  0  0  0
  139.1164   68.7794  224.2381 H   0  0  0  0  0  0  0  0  0  0  0  0
  140.6188   69.6751  223.5819 H   0  0  0  0  0  0  0  0  0  0  0  0
  141.1774   69.7234  225.5073 H   0  0  0  0  0  0  0  0  0  0  0  0
  138.3120   69.3203  226.4088 H   0  0  0  0  0  0  0  0  0  0  0  0
  139.7352   68.2507  226.6251 H   0  0  0  0  0  0  0  0  0  0  0  0
  138.9431   70.7525  228.1447 H   0  0  0  0  0  0  0  0  0  0  0  0
  139.6006   69.1853  228.7551 H   0  0  0  0  0  0  0  0  0  0  0  0
  141.2765   70.9069  229.0151 H   0  0  0  0  0  0  0  0  0  0  0  0
  141.7789   69.7523  227.7123 H   0  0  0  0  0  0  0  0  0  0  0  0
  140.9920   72.6347  227.5387 H   0  0  0  0  0  0  0  0  0  0  0  0
  142.2325   71.7001  226.6258 H   0  0  0  0  0  0  0  0  0  0  0  0
  139.2341   71.8917  226.1513 H   0  0  0  0  0  0  0  0  0  0  0  0
  140.5779   72.0776  224.9827 H   0  0  0  0  0  0  0  0  0  0  0  0
  135.7658   72.4437  225.0278 H   0  0  0  0  0  0  0  0  0  0  0  0
  1  2  1  0
  2  3  2  0
  3  4  1  0
  4  5  2  0
  5  6  1  0
  6  7  2  0
  6  8  1  0
  8  9  1  0
  9 10  1  0
 10 11  2  0
 11 12  1  0
 12 13  2  0
 13 14  1  0
 14 15  1  0
 15 16  2  0
 15 17  1  0
 17 18  1  0
 18 19  1  0
 19 20  1  0
 20 21  1  0
 21 22  1  0
 22 23  1  0
 23 24  1  0
 24 25  1  0
 14 26  2  0
  9 27  2  0
  7  2  1  0
 26 10  1  0
 27  5  1  0
 25 20  1  0
  1 28  1  0
  1 29  1  0
  1 30  1  0
  3 31  1  0
  4 32  1  0
  7 33  1  0
  8 34  1  0
  8 35  1  0
 11 36  1  0
 12 37  1  0
 13 38  1  0
 17 39  1  0
 18 40  1  0
 18 41  1  0
 19 42  1  0
 19 43  1  0
 20 44  1  0
 21 45  1  0
 21 46  1  0
 22 47  1  0
 22 48  1  0
 23 49  1  0
 23 50  1  0
 24 51  1  0
 24 52  1  0
 25 53  1  0
 25 54  1  0
 26 55  1  0
M  END
>  <smiles>  (2) 
Cc1ccc2c(c1)CC(c1cccc(C(=O)NCCC3CCCCC3)c1)=N2

>  <score_type>  (2) 
oracle

>  <origin>  (2) 
autodockgpu

>  <m_score__min__energy>  (2) 
-8.6999999999999993

>  <m_primary>  (2) 
energy

>  <rmsd>  (2) 
11.50431013373594

>  <m_score__min__rmsd>  (2) 
11.50431013373594

>  <meeko>  (2) 
{"free_energy": -7.93, "intermolecular_energy": -9.42, "internal_energy": -1.1, "cluster_size": 11, "cluster_id": 1, "rank_in_cluster": 11}

>  <energy>  (2) 
-8.62

>  <cluster_rmsd>  (2) 
0.15

>  <cluster>  (2) 
1

$$$$

     RDKit          3D

 55 58  0  0  0  0  0  0  0  0999 V2000
  137.6950   81.5250  224.1540 C   0  0  0  0  0  0  0  0  0  0  0  0
  138.7350   80.5570  223.7250 C   0  0  0  0  0  0  0  0  0  0  0  0
  140.0680   80.8960  223.8120 C   0  0  0  0  0  0  0  0  0  0  0  0
  141.0320   79.9860  223.4100 C   0  0  0  0  0  0  0  0  0  0  0  0
  140.7050   78.7380  222.9190 C   0  0  0  0  0  0  0  0  0  0  0  0
  139.3590   78.4000  222.8340 C   0  0  0  0  0  0  0  0  0  0  0  0
  138.3900   79.3090  223.2350 C   0  0  0  0  0  0  0  0  0  0  0  0
  139.2490   77.0250  222.2840 C   0  0  0  0  0  0  0  0  0  0  0  0
  140.6760   76.6600  222.0840 C   0  0  0  0  0  0  0  0  0  0  0  0
  141.1290   75.3790  221.5510 C   0  0  0  0  0  0  0  0  0  0  0  0
  142.1560   75.2990  220.6330 C   0  0  0  0  0  0  0  0  0  0  0  0
  142.6020   74.0960  220.1120 C   0  0  0  0  0  0  0  0  0  0  0  0
  141.9680   72.9510  220.5550 C   0  0  0  0  0  0  0  0  0  0  0  0
  140.9400   72.9670  221.4680 C   0  0  0  0  0  0  0  0  0  0  0  0
  140.2560   71.7790  221.9500 C   0  0  0  0  0  0  0  0  0  0  0  0
  140.4010   70.6640  221.3850 O   0  0  0  0  0  0  0  0  0  0  0  0
  139.3780   71.7900  223.0860 N   0  0  0  0  0  0  0  0  0  0  0  0
  138.7730   70.5340  223.4430 C   0  0  0  0  0  0  0  0  0  0  0  0
  139.5380   69.7400  224.4300 C   0  0  0  0  0  0  0  0  0  0  0  0
  139.9030   70.3680  225.7120 C   0  0  0  0  0  0  0  0  0  0  0  0
  140.8840   71.5180  225.5590 C   0  0  0  0  0  0  0  0  0  0  0  0
  141.4520   71.8780  226.9400 C   0  0  0  0  0  0  0  0  0  0  0  0
  140.4240   71.6450  228.0180 C   0  0  0  0  0  0  0  0  0  0  0  0
  140.0840   70.1740  228.1530 C   0  0  0  0  0  0  0  0  0  0  0  0
  140.3070   69.4550  226.8210 C   0  0  0  0  0  0  0  0  0  0  0  0
  140.5430   74.1950  221.9470 C   0  0  0  0  0  0  0  0  0  0  0  0
  141.4410   77.6190  222.4420 N   0  0  0  0  0  0  0  0  0  0  0  0
  137.6575   81.5599  225.2528 H   0  0  0  0  0  0  0  0  0  0  0  0
  137.9403   82.5237  223.7636 H   0  0  0  0  0  0  0  0  0  0  0  0
  136.7164   81.2088  223.7636 H   0  0  0  0  0  0  0  0  0  0  0  0
  140.3644   81.8825  224.1980 H   0  0  0  0  0  0  0  0  0  0  0  0
  142.0929   80.2671  223.4845 H   0  0  0  0  0  0  0  0  0  0  0  0
  137.3278   79.0327  223.1621 H   0  0  0  0  0  0  0  0  0  0  0  0
  138.7587   76.3466  222.9977 H   0  0  0  0  0  0  0  0  0  0  0  0
  138.6409   76.9592  221.3697 H   0  0  0  0  0  0  0  0  0  0  0  0
  142.6405   76.2292  220.3013 H   0  0  0  0  0  0  0  0  0  0  0  0
  143.4221   74.0539  219.3802 H   0  0  0  0  0  0  0  0  0  0  0  0
  142.3015   71.9807  220.1585 H   0  0  0  0  0  0  0  0  0  0  0  0
  139.2580   72.6900  223.5620 H   0  0  0  0  0  0  0  0  0  0  0  0
  137.7784   70.7400  223.8653 H   0  0  0  0  0  0  0  0  0  0  0  0
  138.7349   69.9335  222.5221 H   0  0  0  0  0  0  0  0  0  0  0  0
  138.9368   68.8493  224.6651 H   0  0  0  0  0  0  0  0  0  0  0  0
  140.5041   69.5587  223.9363 H   0  0  0  0  0  0  0  0  0  0  0  0
  138.9354   70.7747  226.0413 H   0  0  0  0  0  0  0  0  0  0  0  0
  141.7038   71.2169  224.8902 H   0  0  0  0  0  0  0  0  0  0  0  0
  140.3697   72.3905  225.1298 H   0  0  0  0  0  0  0  0  0  0  0  0
  142.3342   71.2526  227.1415 H   0  0  0  0  0  0  0  0  0  0  0  0
  141.7295   72.9424  226.9410 H   0  0  0  0  0  0  0  0  0  0  0  0
  140.8224   72.0092  228.9765 H   0  0  0  0  0  0  0  0  0  0  0  0
  139.5072   72.1873  227.7435 H   0  0  0  0  0  0  0  0  0  0  0  0
  140.7273   69.7216  228.9221 H   0  0  0  0  0  0  0  0  0  0  0  0
  139.0271   70.0752  228.4413 H   0  0  0  0  0  0  0  0  0  0  0  0
  141.3699   69.1920  226.7155 H   0  0  0  0  0  0  0  0  0  0  0  0
  139.7063   68.5342  226.7866 H   0  0  0  0  0  0  0  0  0  0  0  0
  139.7220   74.2336  222.6780 H   0  0  0  0  0  0  0  0  0  0  0  0
  1  2  1  0
  2  3  2  0
  3  4  1  0
  4  5  2  0
  5  6  1  0
  6  7  2  0
  6  8  1  0
  8  9  1  0
  9 10  1  0
 10 11  2  0
 11 12  1  0
 12 13  2  0
 13 14  1  0
 14 15  1  0
 15 16  2  0
 15 17  1  0
 17 18  1  0
 18 19  1  0
 19 20  1  0
 20 21  1  0
 21 22  1  0
 22 23  1  0
 23 24  1  0
 24 25  1  0
 14 26  2  0
  9 27  2  0
  7  2  1  0
 26 10  1  0
 27  5  1  0
 25 20  1  0
  1 28  1  0
  1 29  1  0
  1 30  1  0
  3 31  1  0
  4 32  1  0
  7 33  1  0
  8 34  1  0
  8 35  1  0
 11 36  1  0
 12 37  1  0
 13 38  1  0
 17 39  1  0
 18 40  1  0
 18 41  1  0
 19 42  1  0
 19 43  1  0
 20 44  1  0
 21 45  1  0
 21 46  1  0
 22 47  1  0
 22 48  1  0
 23 49  1  0
 23 50  1  0
 24 51  1  0
 24 52  1  0
 25 53  1  0
 25 54  1  0
 26 55  1  0
M  END
>  <smiles>  (3) 
Cc1ccc2c(c1)CC(c1cccc(C(=O)NCCC3CCCCC3)c1)=N2

>  <score_type>  (3) 
oracle

>  <origin>  (3) 
autodockgpu

>  <m_score__min__energy>  (3) 
-8.6999999999999993

>  <m_primary>  (3) 
energy

>  <rmsd>  (3) 
9.220981065313145

>  <m_score__min__rmsd>  (3) 
9.220981065313145

>  <meeko>  (3) 
{"free_energy": -8.6, "intermolecular_energy": -10.09, "internal_energy": -0.94, "cluster_size": 11, "cluster_id": 2, "rank_in_cluster": 2}

>  <energy>  (3) 
-8.55

>  <cluster_rmsd>  (3) 
0.34

>  <cluster>  (3) 
1

$$$$

     RDKit          3D

 55 58  0  0  0  0  0  0  0  0999 V2000
  130.7840   78.0200  228.6570 C   0  0  0  0  0  0  0  0  0  0  0  0
  131.7020   77.0540  228.0030 C   0  0  0  0  0  0  0  0  0  0  0  0
  132.8590   77.5020  227.4040 C   0  0  0  0  0  0  0  0  0  0  0  0
  133.7100   76.5940  226.7970 C   0  0  0  0  0  0  0  0  0  0  0  0
  133.4410   75.2410  226.7670 C   0  0  0  0  0  0  0  0  0  0  0  0
  132.2730   74.7920  227.3730 C   0  0  0  0  0  0  0  0  0  0  0  0
  131.4170   75.7000  227.9830 C   0  0  0  0  0  0  0  0  0  0  0  0
  132.1940   73.3180  227.2190 C   0  0  0  0  0  0  0  0  0  0  0  0
  133.4410   73.0220  226.4670 C   0  0  0  0  0  0  0  0  0  0  0  0
  133.8520   71.6830  226.0520 C   0  0  0  0  0  0  0  0  0  0  0  0
  133.0940   70.5690  226.3490 C   0  0  0  0  0  0  0  0  0  0  0  0
  133.4630   69.2900  225.9670 C   0  0  0  0  0  0  0  0  0  0  0  0
  134.6440   69.1660  225.2600 C   0  0  0  0  0  0  0  0  0  0  0  0
  135.4400   70.2390  224.9340 C   0  0  0  0  0  0  0  0  0  0  0  0
  136.6860   70.1360  224.1930 C   0  0  0  0  0  0  0  0  0  0  0  0
  136.9420   69.1340  223.4770 O   0  0  0  0  0  0  0  0  0  0  0  0
  137.6980   71.1530  224.2250 N   0  0  0  0  0  0  0  0  0  0  0  0
  138.8790   70.9090  223.4380 C   0  0  0  0  0  0  0  0  0  0  0  0
  139.9710   70.2190  224.1630 C   0  0  0  0  0  0  0  0  0  0  0  0
  140.0190   70.3230  225.6310 C   0  0  0  0  0  0  0  0  0  0  0  0
  140.7580   71.5560  226.1230 C   0  0  0  0  0  0  0  0  0  0  0  0
  141.0440   71.4030  227.6240 C   0  0  0  0  0  0  0  0  0  0  0  0
  139.9460   70.6230  228.3010 C   0  0  0  0  0  0  0  0  0  0  0  0
  139.8950   69.1900  227.8070 C   0  0  0  0  0  0  0  0  0  0  0  0
  140.4420   69.1040  226.3800 C   0  0  0  0  0  0  0  0  0  0  0  0
  135.0180   71.4830  225.3440 C   0  0  0  0  0  0  0  0  0  0  0  0
  134.0950   74.0950  226.2390 N   0  0  0  0  0  0  0  0  0  0  0  0
  130.8720   77.9274  229.7496 H   0  0  0  0  0  0  0  0  0  0  0  0
  131.0509   79.0429  228.3530 H   0  0  0  0  0  0  0  0  0  0  0  0
  129.7488   77.8055  228.3530 H   0  0  0  0  0  0  0  0  0  0  0  0
  133.1051   78.5741  227.4080 H   0  0  0  0  0  0  0  0  0  0  0  0
  134.6312   76.9636  226.3229 H   0  0  0  0  0  0  0  0  0  0  0  0
  130.4948   75.3358  228.4594 H   0  0  0  0  0  0  0  0  0  0  0  0
  132.1867   72.8133  228.1963 H   0  0  0  0  0  0  0  0  0  0  0  0
  131.2788   72.9717  226.7166 H   0  0  0  0  0  0  0  0  0  0  0  0
  132.1585   70.7022  226.9121 H   0  0  0  0  0  0  0  0  0  0  0  0
  132.8453   68.4142  226.2146 H   0  0  0  0  0  0  0  0  0  0  0  0
  134.9622   68.1619  224.9431 H   0  0  0  0  0  0  0  0  0  0  0  0
  137.4990   71.9800  224.7960 H   0  0  0  0  0  0  0  0  0  0  0  0
  138.5944   70.2888  222.5753 H   0  0  0  0  0  0  0  0  0  0  0  0
  139.2708   71.8955  223.1494 H   0  0  0  0  0  0  0  0  0  0  0  0
  139.8988   69.1495  223.9160 H   0  0  0  0  0  0  0  0  0  0  0  0
  140.8829   70.7350  223.8279 H   0  0  0  0  0  0  0  0  0  0  0  0
  138.9529   70.4331  225.8784 H   0  0  0  0  0  0  0  0  0  0  0  0
  141.7065   71.6601  225.5758 H   0  0  0  0  0  0  0  0  0  0  0  0
  140.1418   72.4510  225.9519 H   0  0  0  0  0  0  0  0  0  0  0  0
  141.9983   70.8723  227.7571 H   0  0  0  0  0  0  0  0  0  0  0  0
  141.0964   72.4041  228.0769 H   0  0  0  0  0  0  0  0  0  0  0  0
  140.1263   70.6206  229.3861 H   0  0  0  0  0  0  0  0  0  0  0  0
  138.9853   71.1036  228.0642 H   0  0  0  0  0  0  0  0  0  0  0  0
  140.5034   68.5556  228.4684 H   0  0  0  0  0  0  0  0  0  0  0  0
  138.8506   68.8449  227.8129 H   0  0  0  0  0  0  0  0  0  0  0  0
  141.5403   69.0489  226.4073 H   0  0  0  0  0  0  0  0  0  0  0  0
  140.0511   68.2041  225.8825 H   0  0  0  0  0  0  0  0  0  0  0  0
  135.6386   72.3567  225.0958 H   0  0  0  0  0  0  0  0  0  0  0  0
  1  2  1  0
  2  3  2  0
  3  4  1  0
  4  5  2  0
  5  6  1  0
  6  7  2  0
  6  8  1  0
  8  9  1  0
  9 10  1  0
 10 11  2  0
 11 12  1  0
 12 13  2  0
 13 14  1  0
 14 15  1  0
 15 16  2  0
 15 17  1  0
 17 18  1  0
 18 19  1  0
 19 20  1  0
 20 21  1  0
 21 22  1  0
 22 23  1  0
 23 24  1  0
 24 25  1  0
 14 26  2  0
  9 27  2  0
  7  2  1  0
 26 10  1  0
 27  5  1  0
 25 20  1  0
  1 28  1  0
  1 29  1  0
  1 30  1  0
  3 31  1  0
  4 32  1  0
  7 33  1  0
  8 34  1  0
  8 35  1  0
 11 36  1  0
 12 37  1  0
 13 38  1  0
 17 39  1  0
 18 40  1  0
 18 41  1  0
 19 42  1  0
 19 43  1  0
 20 44  1  0
 21 45  1  0
 21 46  1  0
 22 47  1  0
 22 48  1  0
 23 49  1  0
 23 50  1  0
 24 51  1  0
 24 52  1  0
 25 53  1  0
 25 54  1  0
 26 55  1  0
M  END
>  <smiles>  (4) 
Cc1ccc2c(c1)CC(c1cccc(C(=O)NCCC3CCCCC3)c1)=N2

>  <score_type>  (4) 
oracle

>  <origin>  (4) 
autodockgpu

>  <m_score__min__energy>  (4) 
-8.6999999999999993

>  <m_primary>  (4) 
energy

>  <rmsd>  (4) 
11.271156482271806

>  <m_score__min__rmsd>  (4) 
11.271156482271806

>  <meeko>  (4) 
{"free_energy": -8.55, "intermolecular_energy": -10.04, "internal_energy": -1.08, "cluster_size": 11, "cluster_id": 1, "rank_in_cluster": 3}

>  <energy>  (4) 
-8.34

>  <cluster_rmsd>  (4) 
1.07

>  <cluster>  (4) 
1

$$$$

     RDKit          3D

 55 58  0  0  0  0  0  0  0  0999 V2000
  141.0830   83.0470  219.5860 C   0  0  0  0  0  0  0  0  0  0  0  0
  141.5450   81.6760  219.2570 C   0  0  0  0  0  0  0  0  0  0  0  0
  142.1480   81.4250  218.0430 C   0  0  0  0  0  0  0  0  0  0  0  0
  142.5760   80.1420  217.7450 C   0  0  0  0  0  0  0  0  0  0  0  0
  142.4220   79.0920  218.6260 C   0  0  0  0  0  0  0  0  0  0  0  0
  141.8150   79.3490  219.8510 C   0  0  0  0  0  0  0  0  0  0  0  0
  141.3840   80.6330  220.1530 C   0  0  0  0  0  0  0  0  0  0  0  0
  141.7580   78.0850  220.6270 C   0  0  0  0  0  0  0  0  0  0  0  0
  142.3980   77.1230  219.6920 C   0  0  0  0  0  0  0  0  0  0  0  0
  142.5950   75.7050  219.9800 C   0  0  0  0  0  0  0  0  0  0  0  0
  143.6440   74.9940  219.4350 C   0  0  0  0  0  0  0  0  0  0  0  0
  143.8500   73.6490  219.6930 C   0  0  0  0  0  0  0  0  0  0  0  0
  142.9470   73.0290  220.5350 C   0  0  0  0  0  0  0  0  0  0  0  0
  141.8820   73.6850  221.1080 C   0  0  0  0  0  0  0  0  0  0  0  0
  140.9170   73.0580  221.9960 C   0  0  0  0  0  0  0  0  0  0  0  0
  139.8750   73.6600  222.3610 O   0  0  0  0  0  0  0  0  0  0  0  0
  141.0810   71.7290  222.5120 N   0  0  0  0  0  0  0  0  0  0  0  0
  140.0410   71.2450  223.3810 C   0  0  0  0  0  0  0  0  0  0  0  0
  140.2740   71.4950  224.8220 C   0  0  0  0  0  0  0  0  0  0  0  0
  140.4530   70.3400  225.7190 C   0  0  0  0  0  0  0  0  0  0  0  0
  139.6510   69.1210  225.2960 C   0  0  0  0  0  0  0  0  0  0  0  0
  139.6350   68.1070  226.4490 C   0  0  0  0  0  0  0  0  0  0  0  0
  140.9210   68.1700  227.2340 C   0  0  0  0  0  0  0  0  0  0  0  0
  141.0750   69.5020  227.9420 C   0  0  0  0  0  0  0  0  0  0  0  0
  140.3190   70.5950  227.1830 C   0  0  0  0  0  0  0  0  0  0  0  0
  141.7330   75.0210  220.8110 C   0  0  0  0  0  0  0  0  0  0  0  0
  142.7470   77.7080  218.6120 N   0  0  0  0  0  0  0  0  0  0  0  0
  141.0423   83.1679  220.6786 H   0  0  0  0  0  0  0  0  0  0  0  0
  141.7832   83.7816  219.1617 H   0  0  0  0  0  0  0  0  0  0  0  0
  140.0810   83.2080  219.1617 H   0  0  0  0  0  0  0  0  0  0  0  0
  142.2883   82.2383  217.3158 H   0  0  0  0  0  0  0  0  0  0  0  0
  143.0550   79.9540  216.7728 H   0  0  0  0  0  0  0  0  0  0  0  0
  140.9047   80.8260  221.1241 H   0  0  0  0  0  0  0  0  0  0  0  0
  142.3239   78.1665  221.5668 H   0  0  0  0  0  0  0  0  0  0  0  0
  140.7418   77.7973  220.9345 H   0  0  0  0  0  0  0  0  0  0  0  0
  144.3455   75.5167  218.7682 H   0  0  0  0  0  0  0  0  0  0  0  0
  144.6931   73.1000  219.2483 H   0  0  0  0  0  0  0  0  0  0  0  0
  143.0861   71.9608  220.7577 H   0  0  0  0  0  0  0  0  0  0  0  0
  141.9210   71.2220  222.2150 H   0  0  0  0  0  0  0  0  0  0  0  0
  139.0993   71.7366  223.0956 H   0  0  0  0  0  0  0  0  0  0  0  0
  140.0136   70.1526  223.2551 H   0  0  0  0  0  0  0  0  0  0  0  0
  141.1820   72.1108  224.9014 H   0  0  0  0  0  0  0  0  0  0  0  0
  139.3391   71.9602  225.1677 H   0  0  0  0  0  0  0  0  0  0  0  0
  141.5221   70.1195  225.5831 H   0  0  0  0  0  0  0  0  0  0  0  0
  138.6207   69.4227  225.0561 H   0  0  0  0  0  0  0  0  0  0  0  0
  140.1104   68.6647  224.4068 H   0  0  0  0  0  0  0  0  0  0  0  0
  138.7922   68.3348  227.1182 H   0  0  0  0  0  0  0  0  0  0  0  0
  139.5271   67.0962  226.0287 H   0  0  0  0  0  0  0  0  0  0  0  0
  140.9223   67.3647  227.9833 H   0  0  0  0  0  0  0  0  0  0  0  0
  141.7599   68.0531  226.5322 H   0  0  0  0  0  0  0  0  0  0  0  0
  140.6695   69.4206  228.9613 H   0  0  0  0  0  0  0  0  0  0  0  0
  142.1422   69.7657  227.9821 H   0  0  0  0  0  0  0  0  0  0  0  0
  139.2563   70.5753  227.4665 H   0  0  0  0  0  0  0  0  0  0  0  0
  140.7367   71.5818  227.4316 H   0  0  0  0  0  0  0  0  0  0  0  0
  140.8886   75.5673  221.2565 H   0  0  0  0  0  0  0  0  0  0  0  0
  1  2  1  0
  2  3  2  0
  3  4  1  0
  4  5  2  0
  5  6  1  0
  6  7  2  0
  6  8  1  0
  8  9  1  0
  9 10  1  0
 10 11  2  0
 11 12  1  0
 12 13  2  0
 13 14  1  0
 14 15  1  0
 15 16  2  0
 15 17  1  0
 17 18  1  0
 18 19  1  0
 19 20  1  0
 20 21  1  0
 21 22  1  0
 22 23  1  0
 23 24  1  0
 24 25  1  0
 14 26  2  0
  9 27  2  0
  7  2  1  0
 26 10  1  0
 27  5  1  0
 25 20  1  0
  1 28  1  0
  1 29  1  0
  1 30  1  0
  3 31  1  0
  4 32  1  0
  7 33  1  0
  8 34  1  0
  8 35  1  0
 11 36  1  0
 12 37  1  0
 13 38  1  0
 17 39  1  0
 18 40  1  0
 18 41  1  0
 19 42  1  0
 19 43  1  0
 20 44  1  0
 21 45  1  0
 21 46  1  0
 22 47  1  0
 22 48  1  0
 23 49  1  0
 23 50  1  0
 24 51  1  0
 24 52  1  0
 25 53  1  0
 25 54  1  0
 26 55  1  0
M  END
>  <smiles>  (5) 
Cc1ccc2c(c1)CC(c1cccc(C(=O)NCCC3CCCCC3)c1)=N2

>  <score_type>  (5) 
oracle

>  <origin>  (5) 
autodockgpu

>  <m_score__min__energy>  (5) 
-8.6999999999999993

>  <m_primary>  (5) 
energy

>  <rmsd>  (5) 
9.779061348316695

>  <m_score__min__rmsd>  (5) 
9.779061348316695

>  <meeko>  (5) 
{"free_energy": -8.27, "intermolecular_energy": -9.76, "internal_energy": -0.74, "cluster_size": 3, "cluster_id": 4, "rank_in_cluster": 3}

>  <energy>  (5) 
-8.2

>  <cluster_rmsd>  (5) 
1.14

>  <cluster>  (5) 
1

$$$$

     RDKit          3D

 55 58  0  0  0  0  0  0  0  0999 V2000
  141.1960   68.1480  228.9490 C   0  0  0  0  0  0  0  0  0  0  0  0
  140.6780   68.4240  227.5850 C   0  0  0  0  0  0  0  0  0  0  0  0
  139.8440   67.5150  226.9690 C   0  0  0  0  0  0  0  0  0  0  0  0
  139.3660   67.7810  225.6970 C   0  0  0  0  0  0  0  0  0  0  0  0
  139.6950   68.9340  225.0130 C   0  0  0  0  0  0  0  0  0  0  0  0
  140.5350   69.8480  225.6390 C   0  0  0  0  0  0  0  0  0  0  0  0
  141.0180   69.5860  226.9140 C   0  0  0  0  0  0  0  0  0  0  0  0
  140.7480   70.9990  224.7260 C   0  0  0  0  0  0  0  0  0  0  0  0
  139.9350   70.6080  223.5450 C   0  0  0  0  0  0  0  0  0  0  0  0
  139.8020   71.4150  222.3350 C   0  0  0  0  0  0  0  0  0  0  0  0
  139.5540   70.8400  221.1060 C   0  0  0  0  0  0  0  0  0  0  0  0
  139.4250   71.5840  219.9450 C   0  0  0  0  0  0  0  0  0  0  0  0
  139.5550   72.9550  220.0640 C   0  0  0  0  0  0  0  0  0  0  0  0
  139.8020   73.5840  221.2620 C   0  0  0  0  0  0  0  0  0  0  0  0
  139.9450   75.0230  221.4160 C   0  0  0  0  0  0  0  0  0  0  0  0
  140.6690   75.6960  220.6380 O   0  0  0  0  0  0  0  0  0  0  0  0
  139.2820   75.7660  222.4490 N   0  0  0  0  0  0  0  0  0  0  0  0
  139.5210   77.1850  222.4730 C   0  0  0  0  0  0  0  0  0  0  0  0
  140.9230   77.5690  222.7560 C   0  0  0  0  0  0  0  0  0  0  0  0
  141.2750   79.0000  222.7700 C   0  0  0  0  0  0  0  0  0  0  0  0
  141.0910   79.6760  221.4220 C   0  0  0  0  0  0  0  0  0  0  0  0
  141.7870   81.0450  221.4490 C   0  0  0  0  0  0  0  0  0  0  0  0
  141.7260   81.6480  222.8300 C   0  0  0  0  0  0  0  0  0  0  0  0
  142.5210   80.8310  223.8300 C   0  0  0  0  0  0  0  0  0  0  0  0
  142.5830   79.3680  223.3860 C   0  0  0  0  0  0  0  0  0  0  0  0
  139.9200   72.7880  222.3780 C   0  0  0  0  0  0  0  0  0  0  0  0
  139.3750   69.4760  223.7390 N   0  0  0  0  0  0  0  0  0  0  0  0
  140.4832   68.5278  229.6957 H   0  0  0  0  0  0  0  0  0  0  0  0
  141.3219   67.0632  229.0808 H   0  0  0  0  0  0  0  0  0  0  0  0
  142.1666   68.6485  229.0808 H   0  0  0  0  0  0  0  0  0  0  0  0
  139.5605   66.5854  227.4843 H   0  0  0  0  0  0  0  0  0  0  0  0
  138.7015   67.0487  225.2152 H   0  0  0  0  0  0  0  0  0  0  0  0
  141.6831   70.3152  227.3998 H   0  0  0  0  0  0  0  0  0  0  0  0
  140.3820   71.9359  225.1712 H   0  0  0  0  0  0  0  0  0  0  0  0
  141.8057   71.1920  224.4933 H   0  0  0  0  0  0  0  0  0  0  0  0
  139.4547   69.7462  221.0456 H   0  0  0  0  0  0  0  0  0  0  0  0
  139.2283   71.1063  218.9738 H   0  0  0  0  0  0  0  0  0  0  0  0
  139.4563   73.5717  219.1585 H   0  0  0  0  0  0  0  0  0  0  0  0
  138.6800   75.2320  223.0840 H   0  0  0  0  0  0  0  0  0  0  0  0
  139.2441   77.5963  221.4911 H   0  0  0  0  0  0  0  0  0  0  0  0
  138.9145   77.5896  223.2967 H   0  0  0  0  0  0  0  0  0  0  0  0
  141.1763   77.1634  223.7466 H   0  0  0  0  0  0  0  0  0  0  0  0
  141.4886   77.1628  221.9045 H   0  0  0  0  0  0  0  0  0  0  0  0
  140.5281   79.4038  223.4694 H   0  0  0  0  0  0  0  0  0  0  0  0
  141.5357   79.0519  220.6329 H   0  0  0  0  0  0  0  0  0  0  0  0
  140.0186   79.8087  221.2165 H   0  0  0  0  0  0  0  0  0  0  0  0
  142.8399   80.9204  221.1558 H   0  0  0  0  0  0  0  0  0  0  0  0
  141.2717   81.7171  220.7470 H   0  0  0  0  0  0  0  0  0  0  0  0
  142.1382   82.6672  222.7933 H   0  0  0  0  0  0  0  0  0  0  0  0
  140.6749   81.6615  223.1540 H   0  0  0  0  0  0  0  0  0  0  0  0
  143.5424   81.2337  223.8982 H   0  0  0  0  0  0  0  0  0  0  0  0
  142.0289   80.8877  224.8121 H   0  0  0  0  0  0  0  0  0  0  0  0
  143.3890   79.2386  222.6487 H   0  0  0  0  0  0  0  0  0  0  0  0
  142.7847   78.7212  224.2526 H   0  0  0  0  0  0  0  0  0  0  0  0
  140.1173   73.2684  223.3477 H   0  0  0  0  0  0  0  0  0  0  0  0
  1  2  1  0
  2  3  2  0
  3  4  1  0
  4  5  2  0
  5  6  1  0
  6  7  2  0
  6  8  1  0
  8  9  1  0
  9 10  1  0
 10 11  2  0
 11 12  1  0
 12 13  2  0
 13 14  1  0
 14 15  1  0
 15 16  2  0
 15 17  1  0
 17 18  1  0
 18 19  1  0
 19 20  1  0
 20 21  1  0
 21 22  1  0
 22 23  1  0
 23 24  1  0
 24 25  1  0
 14 26  2  0
  9 27  2  0
  7  2  1  0
 26 10  1  0
 27  5  1  0
 25 20  1  0
  1 28  1  0
  1 29  1  0
  1 30  1  0
  3 31  1  0
  4 32  1  0
  7 33  1  0
  8 34  1  0
  8 35  1  0
 11 36  1  0
 12 37  1  0
 13 38  1  0
 17 39  1  0
 18 40  1  0
 18 41  1  0
 19 42  1  0
 19 43  1  0
 20 44  1  0
 21 45  1  0
 21 46  1  0
 22 47  1  0
 22 48  1  0
 23 49  1  0
 23 50  1  0
 24 51  1  0
 24 52  1  0
 25 53  1  0
 25 54  1  0
 26 55  1  0
M  END
>  <smiles>  (6) 
Cc1ccc2c(c1)CC(c1cccc(C(=O)NCCC3CCCCC3)c1)=N2

>  <score_type>  (6) 
oracle

>  <origin>  (6) 
autodockgpu

>  <m_score__min__energy>  (6) 
-8.6999999999999993

>  <m_primary>  (6) 
energy

>  <rmsd>  (6) 
4.4420294859240705

>  <m_score__min__rmsd>  (6) 
4.4420294859240705

>  <meeko>  (6) 
{"free_energy": -8.58, "intermolecular_energy": -10.08, "internal_energy": -0.74, "cluster_size": 23, "cluster_id": 3, "rank_in_cluster": 2}

>  <energy>  (6) 
-8.19

>  <cluster_rmsd>  (6) 
1.16

>  <cluster>  (6) 
1

$$$$

     RDKit          3D

 55 58  0  0  0  0  0  0  0  0999 V2000
  142.9460   81.1720  224.1540 C   0  0  0  0  0  0  0  0  0  0  0  0
  141.7750   80.3600  223.7370 C   0  0  0  0  0  0  0  0  0  0  0  0
  140.5080   80.8990  223.7920 C   0  0  0  0  0  0  0  0  0  0  0  0
  139.4220   80.1340  223.4010 C   0  0  0  0  0  0  0  0  0  0  0  0
  139.5610   78.8360  222.9520 C   0  0  0  0  0  0  0  0  0  0  0  0
  140.8410   78.2960  222.8960 C   0  0  0  0  0  0  0  0  0  0  0  0
  141.9320   79.0600  223.2880 C   0  0  0  0  0  0  0  0  0  0  0  0
  140.7470   76.9050  222.3880 C   0  0  0  0  0  0  0  0  0  0  0  0
  139.2840   76.7540  222.1760 C   0  0  0  0  0  0  0  0  0  0  0  0
  138.6470   75.5400  221.6730 C   0  0  0  0  0  0  0  0  0  0  0  0
  137.5360   75.5890  220.8580 C   0  0  0  0  0  0  0  0  0  0  0  0
  136.9150   74.4520  220.3690 C   0  0  0  0  0  0  0  0  0  0  0  0
  137.4610   73.2370  220.7350 C   0  0  0  0  0  0  0  0  0  0  0  0
  138.5670   73.1240  221.5440 C   0  0  0  0  0  0  0  0  0  0  0  0
  139.1620   71.8600  221.9450 C   0  0  0  0  0  0  0  0  0  0  0  0
  139.9500   71.2370  221.1870 O   0  0  0  0  0  0  0  0  0  0  0  0
  138.8970   71.2400  223.2120 N   0  0  0  0  0  0  0  0  0  0  0  0
  139.5600   69.9870  223.4650 C   0  0  0  0  0  0  0  0  0  0  0  0
  139.3290   69.4300  224.8180 C   0  0  0  0  0  0  0  0  0  0  0  0
  139.8730   70.1530  225.9810 C   0  0  0  0  0  0  0  0  0  0  0  0
  140.6260   71.4170  225.6040 C   0  0  0  0  0  0  0  0  0  0  0  0
  141.4260   71.9050  226.8200 C   0  0  0  0  0  0  0  0  0  0  0  0
  140.7020   71.5780  228.1020 C   0  0  0  0  0  0  0  0  0  0  0  0
  140.6090   70.0810  228.3220 C   0  0  0  0  0  0  0  0  0  0  0  0
  140.6340   69.3470  226.9800 C   0  0  0  0  0  0  0  0  0  0  0  0
  139.1370   74.2920  221.9970 C   0  0  0  0  0  0  0  0  0  0  0  0
  138.6700   77.8280  222.4940 N   0  0  0  0  0  0  0  0  0  0  0  0
  142.9958   81.2065  225.2523 H   0  0  0  0  0  0  0  0  0  0  0  0
  143.8667   80.7174  223.7593 H   0  0  0  0  0  0  0  0  0  0  0  0
  142.8431   82.1936  223.7593 H   0  0  0  0  0  0  0  0  0  0  0  0
  140.3602   81.9305  224.1443 H   0  0  0  0  0  0  0  0  0  0  0  0
  138.4155   80.5751  223.4498 H   0  0  0  0  0  0  0  0  0  0  0  0
  142.9407   78.6238  223.2409 H   0  0  0  0  0  0  0  0  0  0  0  0
  141.3022   76.7847  221.4461 H   0  0  0  0  0  0  0  0  0  0  0  0
  141.1775   76.1540  223.0668 H   0  0  0  0  0  0  0  0  0  0  0  0
  137.1258   76.5724  220.5848 H   0  0  0  0  0  0  0  0  0  0  0  0
  136.0290   74.5134  219.7200 H   0  0  0  0  0  0  0  0  0  0  0  0
  136.9886   72.3164  220.3616 H   0  0  0  0  0  0  0  0  0  0  0  0
  138.2640   71.7410  223.8440 H   0  0  0  0  0  0  0  0  0  0  0  0
  139.2025   69.2543  222.7265 H   0  0  0  0  0  0  0  0  0  0  0  0
  140.6395   70.1842  223.3889 H   0  0  0  0  0  0  0  0  0  0  0  0
  138.2402   69.3618  224.9589 H   0  0  0  0  0  0  0  0  0  0  0  0
  139.8791   68.4774  224.8132 H   0  0  0  0  0  0  0  0  0  0  0  0
  138.9536   70.4398  226.5125 H   0  0  0  0  0  0  0  0  0  0  0  0
  141.3135   71.2024  224.7725 H   0  0  0  0  0  0  0  0  0  0  0  0
  139.9132   72.1947  225.2922 H   0  0  0  0  0  0  0  0  0  0  0  0
  142.4099   71.4132  226.8257 H   0  0  0  0  0  0  0  0  0  0  0  0
  141.5446   72.9963  226.7499 H   0  0  0  0  0  0  0  0  0  0  0  0
  141.2457   72.0299  228.9447 H   0  0  0  0  0  0  0  0  0  0  0  0
  139.6806   71.9806  228.0336 H   0  0  0  0  0  0  0  0  0  0  0  0
  141.4616   69.7499  228.9331 H   0  0  0  0  0  0  0  0  0  0  0  0
  139.6652   69.8522  228.8386 H   0  0  0  0  0  0  0  0  0  0  0  0
  141.6742   69.2261  226.6433 H   0  0  0  0  0  0  0  0  0  0  0  0
  140.1759   68.3527  227.0874 H   0  0  0  0  0  0  0  0  0  0  0  0
  140.0226   74.2274  222.6462 H   0  0  0  0  0  0  0  0  0  0  0  0
  1  2  1  0
  2  3  2  0
  3  4  1  0
  4  5  2  0
  5  6  1  0
  6  7  2  0
  6  8  1  0
  8  9  1  0
  9 10  1  0
 10 11  2  0
 11 12  1  0
 12 13  2  0
 13 14  1  0
 14 15  1  0
 15 16  2  0
 15 17  1  0
 17 18  1  0
 18 19  1  0
 19 20  1  0
 20 21  1  0
 21 22  1  0
 22 23  1  0
 23 24  1  0
 24 25  1  0
 14 26  2  0
  9 27  2  0
  7  2  1  0
 26 10  1  0
 27  5  1  0
 25 20  1  0
  1 28  1  0
  1 29  1  0
  1 30  1  0
  3 31  1  0
  4 32  1  0
  7 33  1  0
  8 34  1  0
  8 35  1  0
 11 36  1  0
 12 37  1  0
 13 38  1  0
 17 39  1  0
 18 40  1  0
 18 41  1  0
 19 42  1  0
 19 43  1  0
 20 44  1  0
 21 45  1  0
 21 46  1  0
 22 47  1  0
 22 48  1  0
 23 49  1  0
 23 50  1  0
 24 51  1  0
 24 52  1  0
 25 53  1  0
 25 54  1  0
 26 55  1  0
M  END
>  <smiles>  (7) 
Cc1ccc2c(c1)CC(c1cccc(C(=O)NCCC3CCCCC3)c1)=N2

>  <score_type>  (7) 
oracle

>  <origin>  (7) 
autodockgpu

>  <m_score__min__energy>  (7) 
-8.6999999999999993

>  <m_primary>  (7) 
energy

>  <rmsd>  (7) 
9.464775913716805

>  <m_score__min__rmsd>  (7) 
9.464775913716805

>  <meeko>  (7) 
{"free_energy": -8.28, "intermolecular_energy": -9.77, "internal_energy": -0.85, "cluster_size": 11, "cluster_id": 2, "rank_in_cluster": 10}

>  <energy>  (7) 
-8.17

>  <cluster_rmsd>  (7) 
1.17

>  <cluster>  (7) 
1

$$$$

     RDKit          3D

 55 58  0  0  0  0  0  0  0  0999 V2000
  141.3240   68.1450  228.8180 C   0  0  0  0  0  0  0  0  0  0  0  0
  140.7200   68.4960  227.5080 C   0  0  0  0  0  0  0  0  0  0  0  0
  139.8650   67.6120  226.8850 C   0  0  0  0  0  0  0  0  0  0  0  0
  139.3070   67.9480  225.6630 C   0  0  0  0  0  0  0  0  0  0  0  0
  139.5750   69.1480  225.0370 C   0  0  0  0  0  0  0  0  0  0  0  0
  140.4370   70.0370  225.6690 C   0  0  0  0  0  0  0  0  0  0  0  0
  141.0000   69.7040  226.8930 C   0  0  0  0  0  0  0  0  0  0  0  0
  140.5760   71.2470  224.8200 C   0  0  0  0  0  0  0  0  0  0  0  0
  139.6980   70.9150  223.6670 C   0  0  0  0  0  0  0  0  0  0  0  0
  139.4800   71.7940  222.5220 C   0  0  0  0  0  0  0  0  0  0  0  0
  138.5390   71.5030  221.5560 C   0  0  0  0  0  0  0  0  0  0  0  0
  138.3130   72.3210  220.4610 C   0  0  0  0  0  0  0  0  0  0  0  0
  139.0830   73.4650  220.3680 C   0  0  0  0  0  0  0  0  0  0  0  0
  140.0360   73.8070  221.2980 C   0  0  0  0  0  0  0  0  0  0  0  0
  140.8590   75.0030  221.2240 C   0  0  0  0  0  0  0  0  0  0  0  0
  141.1640   75.6530  222.2570 O   0  0  0  0  0  0  0  0  0  0  0  0
  141.3740   75.5200  219.9890 N   0  0  0  0  0  0  0  0  0  0  0  0
  142.1740   76.7130  220.0750 C   0  0  0  0  0  0  0  0  0  0  0  0
  141.4080   77.9500  220.3510 C   0  0  0  0  0  0  0  0  0  0  0  0
  141.6620   78.6730  221.6090 C   0  0  0  0  0  0  0  0  0  0  0  0
  140.5640   78.4840  222.6420 C   0  0  0  0  0  0  0  0  0  0  0  0
  140.7450   79.5210  223.7610 C   0  0  0  0  0  0  0  0  0  0  0  0
  142.2070   79.8270  223.9740 C   0  0  0  0  0  0  0  0  0  0  0  0
  142.8140   80.5080  222.7640 C   0  0  0  0  0  0  0  0  0  0  0  0
  142.0570   80.1070  221.4960 C   0  0  0  0  0  0  0  0  0  0  0  0
  140.2110   72.9520  222.3630 C   0  0  0  0  0  0  0  0  0  0  0  0
  139.1700   69.7620  223.8210 N   0  0  0  0  0  0  0  0  0  0  0  0
  140.6820   68.5181  229.6295 H   0  0  0  0  0  0  0  0  0  0  0  0
  141.4175   67.0519  228.8975 H   0  0  0  0  0  0  0  0  0  0  0  0
  142.3201   68.6050  228.8975 H   0  0  0  0  0  0  0  0  0  0  0  0
  139.6277   66.6464  227.3554 H   0  0  0  0  0  0  0  0  0  0  0  0
  138.6272   67.2341  225.1749 H   0  0  0  0  0  0  0  0  0  0  0  0
  141.6820   70.4138  227.3839 H   0  0  0  0  0  0  0  0  0  0  0  0
  140.2235   72.1469  225.3452 H   0  0  0  0  0  0  0  0  0  0  0  0
  141.6143   71.4746  224.5370 H   0  0  0  0  0  0  0  0  0  0  0  0
  137.9438   70.5838  221.6595 H   0  0  0  0  0  0  0  0  0  0  0  0
  137.5569   72.0719  219.7019 H   0  0  0  0  0  0  0  0  0  0  0  0
  138.9258   74.1337  219.5089 H   0  0  0  0  0  0  0  0  0  0  0  0
  141.1420   74.9940  219.1400 H   0  0  0  0  0  0  0  0  0  0  0  0
  142.9080   76.5765  220.8828 H   0  0  0  0  0  0  0  0  0  0  0  0
  142.6395   76.8482  219.0876 H   0  0  0  0  0  0  0  0  0  0  0  0
  141.6152   78.6497  219.5279 H   0  0  0  0  0  0  0  0  0  0  0  0
  140.3680   77.6046  220.4465 H   0  0  0  0  0  0  0  0  0  0  0  0
  142.5728   78.1729  221.9701 H   0  0  0  0  0  0  0  0  0  0  0  0
  139.5821   78.6229  222.1660 H   0  0  0  0  0  0  0  0  0  0  0  0
  140.6211   77.4694  223.0632 H   0  0  0  0  0  0  0  0  0  0  0  0
  140.2191   80.4466  223.4839 H   0  0  0  0  0  0  0  0  0  0  0  0
  140.3303   79.1106  224.6936 H   0  0  0  0  0  0  0  0  0  0  0  0
  142.3102   80.4894  224.8461 H   0  0  0  0  0  0  0  0  0  0  0  0
  142.7379   78.8777  224.1382 H   0  0  0  0  0  0  0  0  0  0  0  0
  142.7543   81.5988  222.8931 H   0  0  0  0  0  0  0  0  0  0  0  0
  143.8650   80.1979  222.6675 H   0  0  0  0  0  0  0  0  0  0  0  0
  141.1578   80.7314  221.3885 H   0  0  0  0  0  0  0  0  0  0  0  0
  142.6991   80.2509  220.6145 H   0  0  0  0  0  0  0  0  0  0  0  0
  140.9676   73.2041  223.1206 H   0  0  0  0  0  0  0  0  0  0  0  0
  1  2  1  0
  2  3  2  0
  3  4  1  0
  4  5  2  0
  5  6  1  0
  6  7  2  0
  6  8  1  0
  8  9  1  0
  9 10  1  0
 10 11  2  0
 11 12  1  0
 12 13  2  0
 13 14  1  0
 14 15  1  0
 15 16  2  0
 15 17  1  0
 17 18  1  0
 18 19  1  0
 19 20  1  0
 20 21  1  0
 21 22  1  0
 22 23  1  0
 23 24  1  0
 24 25  1  0
 14 26  2  0
  9 27  2  0
  7  2  1  0
 26 10  1  0
 27  5  1  0
 25 20  1  0
  1 28  1  0
  1 29  1  0
  1 30  1  0
  3 31  1  0
  4 32  1  0
  7 33  1  0
  8 34  1  0
  8 35  1  0
 11 36  1  0
 12 37  1  0
 13 38  1  0
 17 39  1  0
 18 40  1  0
 18 41  1  0
 19 42  1  0
 19 43  1  0
 20 44  1  0
 21 45  1  0
 21 46  1  0
 22 47  1  0
 22 48  1  0
 23 49  1  0
 23 50  1  0
 24 51  1  0
 24 52  1  0
 25 53  1  0
 25 54  1  0
 26 55  1  0
M  END
>  <smiles>  (8) 
Cc1ccc2c(c1)CC(c1cccc(C(=O)NCCC3CCCCC3)c1)=N2

>  <score_type>  (8) 
oracle

>  <origin>  (8) 
autodockgpu

>  <m_score__min__energy>  (8) 
-8.6999999999999993

>  <m_primary>  (8) 
energy

>  <rmsd>  (8) 
4.7136490555451225

>  <m_score__min__rmsd>  (8) 
4.7136490555451225

>  <meeko>  (8) 
{"free_energy": -8.35, "intermolecular_energy": -9.84, "internal_energy": -0.91, "cluster_size": 23, "cluster_id": 3, "rank_in_cluster": 6}

>  <energy>  (8) 
-8.16

>  <cluster_rmsd>  (8) 
0.88

>  <cluster>  (8) 
1

$$$$

     RDKit          3D

 55 58  0  0  0  0  0  0  0  0999 V2000
  137.7050   81.5090  224.2530 C   0  0  0  0  0  0  0  0  0  0  0  0
  138.7360   80.5450  223.7930 C   0  0  0  0  0  0  0  0  0  0  0  0
  140.0700   80.8870  223.8460 C   0  0  0  0  0  0  0  0  0  0  0  0
  141.0250   79.9810  223.4140 C   0  0  0  0  0  0  0  0  0  0  0  0
  140.6890   78.7340  222.9280 C   0  0  0  0  0  0  0  0  0  0  0  0
  139.3420   78.3930  222.8780 C   0  0  0  0  0  0  0  0  0  0  0  0
  138.3820   79.2980  223.3080 C   0  0  0  0  0  0  0  0  0  0  0  0
  139.2210   77.0200  222.3260 C   0  0  0  0  0  0  0  0  0  0  0  0
  140.6430   76.6600  222.0860 C   0  0  0  0  0  0  0  0  0  0  0  0
  141.0850   75.3810  221.5360 C   0  0  0  0  0  0  0  0  0  0  0  0
  142.0720   75.3090  220.5760 C   0  0  0  0  0  0  0  0  0  0  0  0
  142.5080   74.1090  220.0390 C   0  0  0  0  0  0  0  0  0  0  0  0
  141.9030   72.9590  220.5100 C   0  0  0  0  0  0  0  0  0  0  0  0
  140.9150   72.9680  221.4650 C   0  0  0  0  0  0  0  0  0  0  0  0
  140.2620   71.7740  221.9780 C   0  0  0  0  0  0  0  0  0  0  0  0
  140.4430   70.6490  221.4450 O   0  0  0  0  0  0  0  0  0  0  0  0
  139.3790   71.7920  223.1090 N   0  0  0  0  0  0  0  0  0  0  0  0
  138.8080   70.5290  223.4980 C   0  0  0  0  0  0  0  0  0  0  0  0
  139.6290   69.7500  224.4540 C   0  0  0  0  0  0  0  0  0  0  0  0
  139.9320   70.3410  225.7690 C   0  0  0  0  0  0  0  0  0  0  0  0
  140.8970   71.5110  225.6940 C   0  0  0  0  0  0  0  0  0  0  0  0
  141.4050   71.8330  227.1070 C   0  0  0  0  0  0  0  0  0  0  0  0
  140.3400   71.5460  228.1360 C   0  0  0  0  0  0  0  0  0  0  0  0
  140.0220   70.0650  228.2080 C   0  0  0  0  0  0  0  0  0  0  0  0
  140.3100   69.3970  226.8610 C   0  0  0  0  0  0  0  0  0  0  0  0
  140.5270   74.1930  221.9580 C   0  0  0  0  0  0  0  0  0  0  0  0
  141.4140   77.6190  222.4260 N   0  0  0  0  0  0  0  0  0  0  0  0
  137.6851   81.5276  225.3527 H   0  0  0  0  0  0  0  0  0  0  0  0
  137.9464   82.5129  223.8736 H   0  0  0  0  0  0  0  0  0  0  0  0
  136.7196   81.2008  223.8736 H   0  0  0  0  0  0  0  0  0  0  0  0
  140.3744   81.8724  224.2286 H   0  0  0  0  0  0  0  0  0  0  0  0
  142.0866   80.2653  223.4600 H   0  0  0  0  0  0  0  0  0  0  0  0
  137.3190   79.0189  223.2625 H   0  0  0  0  0  0  0  0  0  0  0  0
  138.7522   76.3375  223.0501 H   0  0  0  0  0  0  0  0  0  0  0  0
  138.5885   76.9559  221.4283 H   0  0  0  0  0  0  0  0  0  0  0  0
  142.5323   76.2432  220.2219 H   0  0  0  0  0  0  0  0  0  0  0  0
  143.2979   74.0730  219.2743 H   0  0  0  0  0  0  0  0  0  0  0  0
  142.2277   71.9909  220.1011 H   0  0  0  0  0  0  0  0  0  0  0  0
  139.2310   72.7010  223.5600 H   0  0  0  0  0  0  0  0  0  0  0  0
  137.8306   70.7231  223.9637 H   0  0  0  0  0  0  0  0  0  0  0  0
  138.7367   69.9236  222.5824 H   0  0  0  0  0  0  0  0  0  0  0  0
  139.1007   68.8029  224.6382 H   0  0  0  0  0  0  0  0  0  0  0  0
  140.6102   69.6719  223.9629 H   0  0  0  0  0  0  0  0  0  0  0  0
  138.9455   70.7213  226.0725 H   0  0  0  0  0  0  0  0  0  0  0  0
  141.7472   71.2467  225.0480 H   0  0  0  0  0  0  0  0  0  0  0  0
  140.3838   72.3891  225.2750 H   0  0  0  0  0  0  0  0  0  0  0  0
  142.2899   71.2159  227.3217 H   0  0  0  0  0  0  0  0  0  0  0  0
  141.6633   72.9012  227.1545 H   0  0  0  0  0  0  0  0  0  0  0  0
  140.6943   71.8839  229.1210 H   0  0  0  0  0  0  0  0  0  0  0  0
  139.4247   72.0819  227.8443 H   0  0  0  0  0  0  0  0  0  0  0  0
  140.6433   69.5972  228.9859 H   0  0  0  0  0  0  0  0  0  0  0  0
  138.9569   69.9377  228.4516 H   0  0  0  0  0  0  0  0  0  0  0  0
  141.3809   69.1566  226.7884 H   0  0  0  0  0  0  0  0  0  0  0  0
  139.7285   68.4676  226.7713 H   0  0  0  0  0  0  0  0  0  0  0  0
  139.7368   74.2257  222.7225 H   0  0  0  0  0  0  0  0  0  0  0  0
  1  2  1  0
  2  3  2  0
  3  4  1  0
  4  5  2  0
  5  6  1  0
  6  7  2  0
  6  8  1  0
  8  9  1  0
  9 10  1  0
 10 11  2  0
 11 12  1  0
 12 13  2  0
 13 14  1  0
 14 15  1  0
 15 16  2  0
 15 17  1  0
 17 18  1  0
 18 19  1  0
 19 20  1  0
 20 21  1  0
 21 22  1  0
 22 23  1  0
 23 24  1  0
 24 25  1  0
 14 26  2  0
  9 27  2  0
  7  2  1  0
 26 10  1  0
 27  5  1  0
 25 20  1  0
  1 28  1  0
  1 29  1  0
  1 30  1  0
  3 31  1  0
  4 32  1  0
  7 33  1  0
  8 34  1  0
  8 35  1  0
 11 36  1  0
 12 37  1  0
 13 38  1  0
 17 39  1  0
 18 40  1  0
 18 41  1  0
 19 42  1  0
 19 43  1  0
 20 44  1  0
 21 45  1  0
 21 46  1  0
 22 47  1  0
 22 48  1  0
 23 49  1  0
 23 50  1  0
 24 51  1  0
 24 52  1  0
 25 53  1  0
 25 54  1  0
 26 55  1  0
M  END
>  <smiles>  (9) 
Cc1ccc2c(c1)CC(c1cccc(C(=O)NCCC3CCCCC3)c1)=N2

>  <score_type>  (9) 
oracle

>  <origin>  (9) 
autodockgpu

>  <m_score__min__energy>  (9) 
-8.6999999999999993

>  <m_primary>  (9) 
energy

>  <rmsd>  (9) 
9.264879806877628

>  <m_score__min__rmsd>  (9) 
9.264879806877628

>  <meeko>  (9) 
{"free_energy": -8.61, "intermolecular_energy": -10.1, "internal_energy": -0.95, "cluster_size": 11, "cluster_id": 2, "rank_in_cluster": 1}

>  <energy>  (9) 
-8.13

>  <cluster_rmsd>  (9) 
1.47

>  <cluster>  (9) 
1

$$$$

     RDKit          3D

 55 58  0  0  0  0  0  0  0  0999 V2000
  141.2560   68.2070  228.8770 C   0  0  0  0  0  0  0  0  0  0  0  0
  140.6710   68.5310  227.5510 C   0  0  0  0  0  0  0  0  0  0  0  0
  139.7750   67.6630  226.9650 C   0  0  0  0  0  0  0  0  0  0  0  0
  139.2340   67.9740  225.7280 C   0  0  0  0  0  0  0  0  0  0  0  0
  139.5610   69.1310  225.0510 C   0  0  0  0  0  0  0  0  0  0  0  0
  140.4650   70.0040  225.6480 C   0  0  0  0  0  0  0  0  0  0  0  0
  141.0100   69.6970  226.8870 C   0  0  0  0  0  0  0  0  0  0  0  0
  140.6630   71.1690  224.7490 C   0  0  0  0  0  0  0  0  0  0  0  0
  139.7720   70.8300  223.6080 C   0  0  0  0  0  0  0  0  0  0  0  0
  139.5970   71.6690  222.4260 C   0  0  0  0  0  0  0  0  0  0  0  0
  138.8320   71.2590  221.3540 C   0  0  0  0  0  0  0  0  0  0  0  0
  138.6520   72.0360  220.2220 C   0  0  0  0  0  0  0  0  0  0  0  0
  139.2810   73.2670  220.2040 C   0  0  0  0  0  0  0  0  0  0  0  0
  140.0550   73.7300  221.2410 C   0  0  0  0  0  0  0  0  0  0  0  0
  140.7270   75.0180  221.2480 C   0  0  0  0  0  0  0  0  0  0  0  0
  141.0920   75.5620  222.3220 O   0  0  0  0  0  0  0  0  0  0  0  0
  141.0190   75.7520  220.0500 N   0  0  0  0  0  0  0  0  0  0  0  0
  141.6900   77.0150  220.2170 C   0  0  0  0  0  0  0  0  0  0  0  0
  140.8430   78.0930  220.7780 C   0  0  0  0  0  0  0  0  0  0  0  0
  141.4240   78.9900  221.7920 C   0  0  0  0  0  0  0  0  0  0  0  0
  141.4960   78.3660  223.1750 C   0  0  0  0  0  0  0  0  0  0  0  0
  141.7900   79.4660  224.2060 C   0  0  0  0  0  0  0  0  0  0  0  0
  142.6560   80.5450  223.6050 C   0  0  0  0  0  0  0  0  0  0  0  0
  141.9320   81.2870  222.4990 C   0  0  0  0  0  0  0  0  0  0  0  0
  140.8820   80.3790  221.8530 C   0  0  0  0  0  0  0  0  0  0  0  0
  140.1940   72.9090  222.3370 C   0  0  0  0  0  0  0  0  0  0  0  0
  139.1880   69.7130  223.8090 N   0  0  0  0  0  0  0  0  0  0  0  0
  140.5904   68.5757  229.6714 H   0  0  0  0  0  0  0  0  0  0  0  0
  141.3703   67.1170  228.9709 H   0  0  0  0  0  0  0  0  0  0  0  0
  142.2406   68.6884  228.9709 H   0  0  0  0  0  0  0  0  0  0  0  0
  139.4916   66.7307  227.4754 H   0  0  0  0  0  0  0  0  0  0  0  0
  138.5192   67.2745  225.2699 H   0  0  0  0  0  0  0  0  0  0  0  0
  141.7247   70.3934  227.3498 H   0  0  0  0  0  0  0  0  0  0  0  0
  140.3528   72.1062  225.2342 H   0  0  0  0  0  0  0  0  0  0  0  0
  141.7114   71.3350  224.4605 H   0  0  0  0  0  0  0  0  0  0  0  0
  138.3447   70.2739  221.4002 H   0  0  0  0  0  0  0  0  0  0  0  0
  138.0378   71.6903  219.3774 H   0  0  0  0  0  0  0  0  0  0  0  0
  139.1561   73.9062  219.3176 H   0  0  0  0  0  0  0  0  0  0  0  0
  140.7370   75.3160  219.1650 H   0  0  0  0  0  0  0  0  0  0  0  0
  142.5445   76.8630  220.8928 H   0  0  0  0  0  0  0  0  0  0  0  0
  141.9893   77.3448  219.2112 H   0  0  0  0  0  0  0  0  0  0  0  0
  140.5188   78.7222  219.9360 H   0  0  0  0  0  0  0  0  0  0  0  0
  140.0484   77.5568  221.3176 H   0  0  0  0  0  0  0  0  0  0  0  0
  142.4485   79.1182  221.4125 H   0  0  0  0  0  0  0  0  0  0  0  0
  140.5358   77.8849  223.4128 H   0  0  0  0  0  0  0  0  0  0  0  0
  142.2949   77.6102  223.2003 H   0  0  0  0  0  0  0  0  0  0  0  0
  140.8408   79.9099  224.5405 H   0  0  0  0  0  0  0  0  0  0  0  0
  142.3239   79.0183  225.0571 H   0  0  0  0  0  0  0  0  0  0  0  0
  142.9339   81.2605  224.3929 H   0  0  0  0  0  0  0  0  0  0  0  0
  143.5498   80.0701  223.1742 H   0  0  0  0  0  0  0  0  0  0  0  0
  141.4359   82.1737  222.9205 H   0  0  0  0  0  0  0  0  0  0  0  0
  142.6614   81.5929  221.7345 H   0  0  0  0  0  0  0  0  0  0  0  0
  139.9613   80.3911  222.4548 H   0  0  0  0  0  0  0  0  0  0  0  0
  140.6503   80.7361  220.8387 H   0  0  0  0  0  0  0  0  0  0  0  0
  140.8089   73.2576  223.1798 H   0  0  0  0  0  0  0  0  0  0  0  0
  1  2  1  0
  2  3  2  0
  3  4  1  0
  4  5  2  0
  5  6  1  0
  6  7  2  0
  6  8  1  0
  8  9  1  0
  9 10  1  0
 10 11  2  0
 11 12  1  0
 12 13  2  0
 13 14  1  0
 14 15  1  0
 15 16  2  0
 15 17  1  0
 17 18  1  0
 18 19  1  0
 19 20  1  0
 20 21  1  0
 21 22  1  0
 22 23  1  0
 23 24  1  0
 24 25  1  0
 14 26  2  0
  9 27  2  0
  7  2  1  0
 26 10  1  0
 27  5  1  0
 25 20  1  0
  1 28  1  0
  1 29  1  0
  1 30  1  0
  3 31  1  0
  4 32  1  0
  7 33  1  0
  8 34  1  0
  8 35  1  0
 11 36  1  0
 12 37  1  0
 13 38  1  0
 17 39  1  0
 18 40  1  0
 18 41  1  0
 19 42  1  0
 19 43  1  0
 20 44  1  0
 21 45  1  0
 21 46  1  0
 22 47  1  0
 22 48  1  0
 23 49  1  0
 23 50  1  0
 24 51  1  0
 24 52  1  0
 25 53  1  0
 25 54  1  0
 26 55  1  0
M  END
>  <smiles>  (10) 
Cc1ccc2c(c1)CC(c1cccc(C(=O)NCCC3CCCCC3)c1)=N2

>  <score_type>  (10) 
oracle

>  <origin>  (10) 
autodockgpu

>  <m_score__min__energy>  (10) 
-8.6999999999999993

>  <m_primary>  (10) 
energy

>  <rmsd>  (10) 
4.732340208485619

>  <m_score__min__rmsd>  (10) 
4.732340208485619

>  <meeko>  (10) 
{"free_energy": -8.26, "intermolecular_energy": -9.75, "internal_energy": -0.86, "cluster_size": 23, "cluster_id": 3, "rank_in_cluster": 14}

>  <energy>  (10) 
-7.97

>  <cluster_rmsd>  (10) 
0.85

>  <cluster>  (10) 
1

$$$$

     RDKit          3D

 55 58  0  0  0  0  0  0  0  0999 V2000
  141.1530   83.0960  219.4430 C   0  0  0  0  0  0  0  0  0  0  0  0
  141.5870   81.7050  219.1600 C   0  0  0  0  0  0  0  0  0  0  0  0
  142.1700   81.3990  217.9500 C   0  0  0  0  0  0  0  0  0  0  0  0
  142.5720   80.0980  217.6950 C   0  0  0  0  0  0  0  0  0  0  0  0
  142.4090   79.0840  218.6160 C   0  0  0  0  0  0  0  0  0  0  0  0
  141.8210   79.3980  219.8370 C   0  0  0  0  0  0  0  0  0  0  0  0
  141.4160   80.7000  220.0960 C   0  0  0  0  0  0  0  0  0  0  0  0
  141.7500   78.1640  220.6600 C   0  0  0  0  0  0  0  0  0  0  0  0
  142.3620   77.1560  219.7540 C   0  0  0  0  0  0  0  0  0  0  0  0
  142.5360   75.7470  220.0930 C   0  0  0  0  0  0  0  0  0  0  0  0
  143.6260   75.0260  219.6520 C   0  0  0  0  0  0  0  0  0  0  0  0
  143.8130   73.6880  219.9590 C   0  0  0  0  0  0  0  0  0  0  0  0
  142.8450   73.0870  220.7420 C   0  0  0  0  0  0  0  0  0  0  0  0
  141.7380   73.7540  221.2100 C   0  0  0  0  0  0  0  0  0  0  0  0
  140.7050   73.1460  222.0340 C   0  0  0  0  0  0  0  0  0  0  0  0
  139.6520   73.7670  222.3280 O   0  0  0  0  0  0  0  0  0  0  0  0
  140.8110   71.8160  222.5620 N   0  0  0  0  0  0  0  0  0  0  0  0
  139.7070   71.3520  223.3610 C   0  0  0  0  0  0  0  0  0  0  0  0
  140.0580   70.3060  224.3490 C   0  0  0  0  0  0  0  0  0  0  0  0
  140.1760   70.6860  225.7670 C   0  0  0  0  0  0  0  0  0  0  0  0
  141.0770   71.8880  225.9940 C   0  0  0  0  0  0  0  0  0  0  0  0
  141.4020   71.9950  227.4910 C   0  0  0  0  0  0  0  0  0  0  0  0
  140.2450   71.5060  228.3260 C   0  0  0  0  0  0  0  0  0  0  0  0
  140.0030   70.0230  228.1250 C   0  0  0  0  0  0  0  0  0  0  0  0
  140.4780   69.5920  226.7360 C   0  0  0  0  0  0  0  0  0  0  0  0
  141.6110   75.0810  220.8690 C   0  0  0  0  0  0  0  0  0  0  0  0
  142.7090   77.6950  218.6500 N   0  0  0  0  0  0  0  0  0  0  0  0
  141.1047   83.2509  220.5310 H   0  0  0  0  0  0  0  0  0  0  0  0
  141.8737   83.8015  219.0039 H   0  0  0  0  0  0  0  0  0  0  0  0
  140.1590   83.2665  219.0039 H   0  0  0  0  0  0  0  0  0  0  0  0
  142.3153   82.1823  217.1915 H   0  0  0  0  0  0  0  0  0  0  0  0
  143.0368   79.8657  216.7255 H   0  0  0  0  0  0  0  0  0  0  0  0
  140.9502   80.9377  221.0637 H   0  0  0  0  0  0  0  0  0  0  0  0
  142.3280   78.2694  221.5900 H   0  0  0  0  0  0  0  0  0  0  0  0
  140.7323   77.9067  220.9887 H   0  0  0  0  0  0  0  0  0  0  0  0
  144.3780   75.5344  219.0307 H   0  0  0  0  0  0  0  0  0  0  0  0
  144.6896   73.1306  219.5971 H   0  0  0  0  0  0  0  0  0  0  0  0
  142.9664   72.0253  221.0027 H   0  0  0  0  0  0  0  0  0  0  0  0
  141.6600   71.2940  222.3220 H   0  0  0  0  0  0  0  0  0  0  0  0
  139.2918   72.2129  223.9055 H   0  0  0  0  0  0  0  0  0  0  0  0
  138.9886   70.8948  222.6647 H   0  0  0  0  0  0  0  0  0  0  0  0
  139.2837   69.5272  224.2855 H   0  0  0  0  0  0  0  0  0  0  0  0
  141.0771   70.0025  224.0673 H   0  0  0  0  0  0  0  0  0  0  0  0
  139.1415   70.9751  226.0043 H   0  0  0  0  0  0  0  0  0  0  0  0
  142.0086   71.7635  225.4225 H   0  0  0  0  0  0  0  0  0  0  0  0
  140.5667   72.8030  225.6587 H   0  0  0  0  0  0  0  0  0  0  0  0
  142.2898   71.3843  227.7119 H   0  0  0  0  0  0  0  0  0  0  0  0
  141.5928   73.0502  227.7361 H   0  0  0  0  0  0  0  0  0  0  0  0
  140.4665   71.6915  229.3874 H   0  0  0  0  0  0  0  0  0  0  0  0
  139.3405   72.0488  228.0143 H   0  0  0  0  0  0  0  0  0  0  0  0
  140.5564   69.4579  228.8895 H   0  0  0  0  0  0  0  0  0  0  0  0
  138.9255   69.8206  228.2139 H   0  0  0  0  0  0  0  0  0  0  0  0
  141.5617   69.4046  226.7569 H   0  0  0  0  0  0  0  0  0  0  0  0
  139.9618   68.6692  226.4327 H   0  0  0  0  0  0  0  0  0  0  0  0
  140.7326   75.6351  221.2315 H   0  0  0  0  0  0  0  0  0  0  0  0
  1  2  1  0
  2  3  2  0
  3  4  1  0
  4  5  2  0
  5  6  1  0
  6  7  2  0
  6  8  1  0
  8  9  1  0
  9 10  1  0
 10 11  2  0
 11 12  1  0
 12 13  2  0
 13 14  1  0
 14 15  1  0
 15 16  2  0
 15 17  1  0
 17 18  1  0
 18 19  1  0
 19 20  1  0
 20 21  1  0
 21 22  1  0
 22 23  1  0
 23 24  1  0
 24 25  1  0
 14 26  2  0
  9 27  2  0
  7  2  1  0
 26 10  1  0
 27  5  1  0
 25 20  1  0
  1 28  1  0
  1 29  1  0
  1 30  1  0
  3 31  1  0
  4 32  1  0
  7 33  1  0
  8 34  1  0
  8 35  1  0
 11 36  1  0
 12 37  1  0
 13 38  1  0
 17 39  1  0
 18 40  1  0
 18 41  1  0
 19 42  1  0
 19 43  1  0
 20 44  1  0
 21 45  1  0
 21 46  1  0
 22 47  1  0
 22 48  1  0
 23 49  1  0
 23 50  1  0
 24 51  1  0
 24 52  1  0
 25 53  1  0
 25 54  1  0
 26 55  1  0
M  END
>  <smiles>  (11) 
Cc1ccc2c(c1)CC(c1cccc(C(=O)NCCC3CCCCC3)c1)=N2

>  <score_type>  (11) 
oracle

>  <origin>  (11) 
autodockgpu

>  <m_score__min__energy>  (11) 
-8.6999999999999993

>  <m_primary>  (11) 
energy

>  <rmsd>  (11) 
8.856673603913483

>  <m_score__min__rmsd>  (11) 
8.856673603913483

>  <meeko>  (11) 
{"free_energy": -8.45, "intermolecular_energy": -9.94, "internal_energy": -0.82, "cluster_size": 3, "cluster_id": 4, "rank_in_cluster": 1}

>  <energy>  (11) 
-7.93

>  <cluster_rmsd>  (11) 
1.0

>  <cluster>  (11) 
1

$$$$

     RDKit          3D

 55 58  0  0  0  0  0  0  0  0999 V2000
  142.9400   81.0720  223.8610 C   0  0  0  0  0  0  0  0  0  0  0  0
  141.8000   80.1780  223.5380 C   0  0  0  0  0  0  0  0  0  0  0  0
  140.5070   80.6290  223.6900 C   0  0  0  0  0  0  0  0  0  0  0  0
  139.4500   79.7880  223.3870 C   0  0  0  0  0  0  0  0  0  0  0  0
  139.6430   78.4990  222.9320 C   0  0  0  0  0  0  0  0  0  0  0  0
  140.9490   78.0480  222.7780 C   0  0  0  0  0  0  0  0  0  0  0  0
  142.0120   78.8880  223.0830 C   0  0  0  0  0  0  0  0  0  0  0  0
  140.9130   76.6500  222.2830 C   0  0  0  0  0  0  0  0  0  0  0  0
  139.4510   76.3970  222.1850 C   0  0  0  0  0  0  0  0  0  0  0  0
  138.8630   75.1380  221.7370 C   0  0  0  0  0  0  0  0  0  0  0  0
  137.8460   75.1050  220.8060 C   0  0  0  0  0  0  0  0  0  0  0  0
  137.2730   73.9240  220.3650 C   0  0  0  0  0  0  0  0  0  0  0  0
  137.7670   72.7510  220.9040 C   0  0  0  0  0  0  0  0  0  0  0  0
  138.7790   72.7210  221.8350 C   0  0  0  0  0  0  0  0  0  0  0  0
  139.3180   71.5030  222.4180 C   0  0  0  0  0  0  0  0  0  0  0  0
  140.5020   71.1380  222.1970 O   0  0  0  0  0  0  0  0  0  0  0  0
  138.5510   70.6420  223.2710 N   0  0  0  0  0  0  0  0  0  0  0  0
  139.2210   69.4710  223.7720 C   0  0  0  0  0  0  0  0  0  0  0  0
  139.0310   69.2230  225.2200 C   0  0  0  0  0  0  0  0  0  0  0  0
  139.8000   70.0330  226.1810 C   0  0  0  0  0  0  0  0  0  0  0  0
  140.4120   71.2790  225.5630 C   0  0  0  0  0  0  0  0  0  0  0  0
  141.4490   71.8620  226.5340 C   0  0  0  0  0  0  0  0  0  0  0  0
  141.0400   71.6150  227.9650 C   0  0  0  0  0  0  0  0  0  0  0  0
  141.0440   70.1360  228.2970 C   0  0  0  0  0  0  0  0  0  0  0  0
  140.7890   69.3100  227.0330 C   0  0  0  0  0  0  0  0  0  0  0  0
  139.3060   73.9290  222.2310 C   0  0  0  0  0  0  0  0  0  0  0  0
  138.7910   77.4280  222.5470 N   0  0  0  0  0  0  0  0  0  0  0  0
  143.0440   81.1536  224.9530 H   0  0  0  0  0  0  0  0  0  0  0  0
  143.8646   80.6557  223.4347 H   0  0  0  0  0  0  0  0  0  0  0  0
  142.7562   82.0692  223.4347 H   0  0  0  0  0  0  0  0  0  0  0  0
  140.3159   81.6508  224.0498 H   0  0  0  0  0  0  0  0  0  0  0  0
  138.4222   80.1591  223.5129 H   0  0  0  0  0  0  0  0  0  0  0  0
  143.0418   78.5213  222.9607 H   0  0  0  0  0  0  0  0  0  0  0  0
  141.4012   76.5604  221.3014 H   0  0  0  0  0  0  0  0  0  0  0  0
  141.4454   75.9360  222.9286 H   0  0  0  0  0  0  0  0  0  0  0  0
  137.4747   76.0562  220.3968 H   0  0  0  0  0  0  0  0  0  0  0  0
  136.4629   73.9196  219.6209 H   0  0  0  0  0  0  0  0  0  0  0  0
  137.3305   71.7971  220.5730 H   0  0  0  0  0  0  0  0  0  0  0  0
  137.5870   70.9310  223.4680 H   0  0  0  0  0  0  0  0  0  0  0  0
  138.8419   68.5972  223.2218 H   0  0  0  0  0  0  0  0  0  0  0  0
  140.2976   69.6409  223.6238 H   0  0  0  0  0  0  0  0  0  0  0  0
  137.9653   69.3844  225.4396 H   0  0  0  0  0  0  0  0  0  0  0  0
  139.4082   68.2005  225.3688 H   0  0  0  0  0  0  0  0  0  0  0  0
  139.0145   70.3426  226.8861 H   0  0  0  0  0  0  0  0  0  0  0  0
  140.9022   71.0170  224.6138 H   0  0  0  0  0  0  0  0  0  0  0  0
  139.6248   72.0227  225.3700 H   0  0  0  0  0  0  0  0  0  0  0  0
  142.4234   71.3858  226.3499 H   0  0  0  0  0  0  0  0  0  0  0  0
  141.5164   72.9474  226.3685 H   0  0  0  0  0  0  0  0  0  0  0  0
  141.7444   72.1330  228.6325 H   0  0  0  0  0  0  0  0  0  0  0  0
  140.0175   71.9966  228.1022 H   0  0  0  0  0  0  0  0  0  0  0  0
  142.0216   69.8611  228.7197 H   0  0  0  0  0  0  0  0  0  0  0  0
  140.2478   69.9298  229.0274 H   0  0  0  0  0  0  0  0  0  0  0  0
  141.7305   69.1808  226.4790 H   0  0  0  0  0  0  0  0  0  0  0  0
  140.3960   68.3194  227.3054 H   0  0  0  0  0  0  0  0  0  0  0  0
  140.1166   73.9303  222.9746 H   0  0  0  0  0  0  0  0  0  0  0  0
  1  2  1  0
  2  3  2  0
  3  4  1  0
  4  5  2  0
  5  6  1  0
  6  7  2  0
  6  8  1  0
  8  9  1  0
  9 10  1  0
 10 11  2  0
 11 12  1  0
 12 13  2  0
 13 14  1  0
 14 15  1  0
 15 16  2  0
 15 17  1  0
 17 18  1  0
 18 19  1  0
 19 20  1  0
 20 21  1  0
 21 22  1  0
 22 23  1  0
 23 24  1  0
 24 25  1  0
 14 26  2  0
  9 27  2  0
  7  2  1  0
 26 10  1  0
 27  5  1  0
 25 20  1  0
  1 28  1  0
  1 29  1  0
  1 30  1  0
  3 31  1  0
  4 32  1  0
  7 33  1  0
  8 34  1  0
  8 35  1  0
 11 36  1  0
 12 37  1  0
 13 38  1  0
 17 39  1  0
 18 40  1  0
 18 41  1  0
 19 42  1  0
 19 43  1  0
 20 44  1  0
 21 45  1  0
 21 46  1  0
 22 47  1  0
 22 48  1  0
 23 49  1  0
 23 50  1  0
 24 51  1  0
 24 52  1  0
 25 53  1  0
 25 54  1  0
 26 55  1  0
M  END
>  <smiles>  (12) 
Cc1ccc2c(c1)CC(c1cccc(C(=O)NCCC3CCCCC3)c1)=N2

>  <score_type>  (12) 
oracle

>  <origin>  (12) 
autodockgpu

>  <m_score__min__energy>  (12) 
-8.6999999999999993

>  <m_primary>  (12) 
energy

>  <rmsd>  (12) 
9.662278093516747

>  <m_score__min__rmsd>  (12) 
9.662278093516747

>  <meeko>  (12) 
{"free_energy": -8.14, "intermolecular_energy": -9.63, "internal_energy": -0.99, "cluster_size": 11, "cluster_id": 2, "rank_in_cluster": 11}

>  <energy>  (12) 
-8.61

>  <cluster_rmsd>  (12) 
0.0

>  <cluster>  (12) 
2

$$$$

     RDKit          3D

 55 58  0  0  0  0  0  0  0  0999 V2000
  141.3940   68.1160  228.8990 C   0  0  0  0  0  0  0  0  0  0  0  0
  140.8070   68.4480  227.5770 C   0  0  0  0  0  0  0  0  0  0  0  0
  140.1150   67.4880  226.8710 C   0  0  0  0  0  0  0  0  0  0  0  0
  139.5710   67.8070  225.6380 C   0  0  0  0  0  0  0  0  0  0  0  0
  139.6950   69.0640  225.0820 C   0  0  0  0  0  0  0  0  0  0  0  0
  140.3930   70.0300  225.7980 C   0  0  0  0  0  0  0  0  0  0  0  0
  140.9410   69.7140  227.0340 C   0  0  0  0  0  0  0  0  0  0  0  0
  140.3990   71.2900  225.0140 C   0  0  0  0  0  0  0  0  0  0  0  0
  139.6300   70.9000  223.8030 C   0  0  0  0  0  0  0  0  0  0  0  0
  139.3410   71.7990  222.6890 C   0  0  0  0  0  0  0  0  0  0  0  0
  138.3140   71.5490  221.8040 C   0  0  0  0  0  0  0  0  0  0  0  0
  138.0210   72.3850  220.7400 C   0  0  0  0  0  0  0  0  0  0  0  0
  138.8140   73.5080  220.5930 C   0  0  0  0  0  0  0  0  0  0  0  0
  139.8520   73.8110  221.4430 C   0  0  0  0  0  0  0  0  0  0  0  0
  140.7020   74.9830  221.3110 C   0  0  0  0  0  0  0  0  0  0  0  0
  141.0810   75.6340  222.3180 O   0  0  0  0  0  0  0  0  0  0  0  0
  141.1600   75.4750  220.0430 N   0  0  0  0  0  0  0  0  0  0  0  0
  141.9950   76.6470  220.0730 C   0  0  0  0  0  0  0  0  0  0  0  0
  141.2720   77.9130  220.3320 C   0  0  0  0  0  0  0  0  0  0  0  0
  141.5690   78.6550  221.5700 C   0  0  0  0  0  0  0  0  0  0  0  0
  140.5460   78.4220  222.6690 C   0  0  0  0  0  0  0  0  0  0  0  0
  140.7470   79.4730  223.7710 C   0  0  0  0  0  0  0  0  0  0  0  0
  142.2020   79.8500  223.8920 C   0  0  0  0  0  0  0  0  0  0  0  0
  142.7010   80.5510  222.6440 C   0  0  0  0  0  0  0  0  0  0  0  0
  141.8880   80.1060  221.4270 C   0  0  0  0  0  0  0  0  0  0  0  0
  140.0910   72.9380  222.4800 C   0  0  0  0  0  0  0  0  0  0  0  0
  139.2630   69.6790  223.8760 N   0  0  0  0  0  0  0  0  0  0  0  0
  140.7349   68.4888  229.6969 H   0  0  0  0  0  0  0  0  0  0  0  0
  141.4989   67.0248  228.9900 H   0  0  0  0  0  0  0  0  0  0  0  0
  142.3833   68.5883  228.9900 H   0  0  0  0  0  0  0  0  0  0  0  0
  139.9955   66.4754  227.2839 H   0  0  0  0  0  0  0  0  0  0  0  0
  139.0215   67.0323  225.0831 H   0  0  0  0  0  0  0  0  0  0  0  0
  141.4923   70.4848  227.5925 H   0  0  0  0  0  0  0  0  0  0  0  0
  139.8997   72.1038  225.5604 H   0  0  0  0  0  0  0  0  0  0  0  0
  141.4066   71.6740  224.7967 H   0  0  0  0  0  0  0  0  0  0  0  0
  137.7013   70.6471  221.9494 H   0  0  0  0  0  0  0  0  0  0  0  0
  137.1969   72.1663  220.0450 H   0  0  0  0  0  0  0  0  0  0  0  0
  138.6049   74.1914  219.7568 H   0  0  0  0  0  0  0  0  0  0  0  0
  140.8670   74.9480  219.2140 H   0  0  0  0  0  0  0  0  0  0  0  0
  142.7462   76.5128  220.8652 H   0  0  0  0  0  0  0  0  0  0  0  0
  142.4371   76.7403  219.0701 H   0  0  0  0  0  0  0  0  0  0  0  0
  141.4877   78.5875  219.4902 H   0  0  0  0  0  0  0  0  0  0  0  0
  140.2232   77.6032  220.4504 H   0  0  0  0  0  0  0  0  0  0  0  0
  142.5225   78.2003  221.8767 H   0  0  0  0  0  0  0  0  0  0  0  0
  139.5315   78.5127  222.2536 H   0  0  0  0  0  0  0  0  0  0  0  0
  140.6755   77.4137  223.0893 H   0  0  0  0  0  0  0  0  0  0  0  0
  140.1611   80.3707  223.5244 H   0  0  0  0  0  0  0  0  0  0  0  0
  140.4118   79.0483  224.7288 H   0  0  0  0  0  0  0  0  0  0  0  0
  142.3263   80.5226  224.7534 H   0  0  0  0  0  0  0  0  0  0  0  0
  142.7868   78.9282  224.0267 H   0  0  0  0  0  0  0  0  0  0  0  0
  142.5974   81.6386  222.7722 H   0  0  0  0  0  0  0  0  0  0  0  0
  143.7577   80.2905  222.4844 H   0  0  0  0  0  0  0  0  0  0  0  0
  140.9553   80.6865  221.3724 H   0  0  0  0  0  0  0  0  0  0  0  0
  142.4674   80.2738  220.5071 H   0  0  0  0  0  0  0  0  0  0  0  0
  140.9166   73.1582  223.1728 H   0  0  0  0  0  0  0  0  0  0  0  0
  1  2  1  0
  2  3  2  0
  3  4  1  0
  4  5  2  0
  5  6  1  0
  6  7  2  0
  6  8  1  0
  8  9  1  0
  9 10  1  0
 10 11  2  0
 11 12  1  0
 12 13  2  0
 13 14  1  0
 14 15  1  0
 15 16  2  0
 15 17  1  0
 17 18  1  0
 18 19  1  0
 19 20  1  0
 20 21  1  0
 21 22  1  0
 22 23  1  0
 23 24  1  0
 24 25  1  0
 14 26  2  0
  9 27  2  0
  7  2  1  0
 26 10  1  0
 27  5  1  0
 25 20  1  0
  1 28  1  0
  1 29  1  0
  1 30  1  0
  3 31  1  0
  4 32  1  0
  7 33  1  0
  8 34  1  0
  8 35  1  0
 11 36  1  0
 12 37  1  0
 13 38  1  0
 17 39  1  0
 18 40  1  0
 18 41  1  0
 19 42  1  0
 19 43  1  0
 20 44  1  0
 21 45  1  0
 21 46  1  0
 22 47  1  0
 22 48  1  0
 23 49  1  0
 23 50  1  0
 24 51  1  0
 24 52  1  0
 25 53  1  0
 25 54  1  0
 26 55  1  0
M  END
>  <smiles>  (13) 
Cc1ccc2c(c1)CC(c1cccc(C(=O)NCCC3CCCCC3)c1)=N2

>  <score_type>  (13) 
oracle

>  <origin>  (13) 
autodockgpu

>  <m_score__min__energy>  (13) 
-8.6999999999999993

>  <m_primary>  (13) 
energy

>  <rmsd>  (13) 
4.768544556180781

>  <m_score__min__rmsd>  (13) 
4.768544556180781

>  <meeko>  (13) 
{"free_energy": -8.38, "intermolecular_energy": -9.87, "internal_energy": -0.9, "cluster_size": 23, "cluster_id": 3, "rank_in_cluster": 4}

>  <energy>  (13) 
-8.6

>  <cluster_rmsd>  (13) 
0.08

>  <cluster>  (13) 
2

$$$$

     RDKit          3D

 55 58  0  0  0  0  0  0  0  0999 V2000
  141.0800   68.2880  228.8760 C   0  0  0  0  0  0  0  0  0  0  0  0
  140.5650   68.6170  227.5230 C   0  0  0  0  0  0  0  0  0  0  0  0
  139.6990   67.7530  226.8890 C   0  0  0  0  0  0  0  0  0  0  0  0
  139.2240   68.0680  225.6260 C   0  0  0  0  0  0  0  0  0  0  0  0
  139.5880   69.2270  224.9710 C   0  0  0  0  0  0  0  0  0  0  0  0
  140.4610   70.0960  225.6160 C   0  0  0  0  0  0  0  0  0  0  0  0
  140.9410   69.7840  226.8810 C   0  0  0  0  0  0  0  0  0  0  0  0
  140.7080   71.2620  224.7320 C   0  0  0  0  0  0  0  0  0  0  0  0
  139.8760   70.9300  223.5460 C   0  0  0  0  0  0  0  0  0  0  0  0
  139.7640   71.7720  222.3580 C   0  0  0  0  0  0  0  0  0  0  0  0
  139.1800   71.3120  221.1970 C   0  0  0  0  0  0  0  0  0  0  0  0
  139.0630   72.0910  220.0580 C   0  0  0  0  0  0  0  0  0  0  0  0
  139.5650   73.3770  220.1280 C   0  0  0  0  0  0  0  0  0  0  0  0
  140.1570   73.8920  221.2580 C   0  0  0  0  0  0  0  0  0  0  0  0
  140.6930   75.2390  221.3580 C   0  0  0  0  0  0  0  0  0  0  0  0
  140.6180   75.8960  222.4290 O   0  0  0  0  0  0  0  0  0  0  0  0
  141.3350   75.9070  220.2630 N   0  0  0  0  0  0  0  0  0  0  0  0
  141.8150   77.2410  220.5150 C   0  0  0  0  0  0  0  0  0  0  0  0
  140.7550   78.2310  220.8120 C   0  0  0  0  0  0  0  0  0  0  0  0
  141.0200   79.2670  221.8260 C   0  0  0  0  0  0  0  0  0  0  0  0
  142.4590   79.2780  222.3110 C   0  0  0  0  0  0  0  0  0  0  0  0
  142.5550   80.1400  223.5780 C   0  0  0  0  0  0  0  0  0  0  0  0
  141.5610   81.2740  223.5290 C   0  0  0  0  0  0  0  0  0  0  0  0
  140.1340   80.7640  223.5590 C   0  0  0  0  0  0  0  0  0  0  0  0
  140.0640   79.3540  222.9680 C   0  0  0  0  0  0  0  0  0  0  0  0
  140.2430   73.0650  222.3550 C   0  0  0  0  0  0  0  0  0  0  0  0
  139.2800   69.8130  223.7130 N   0  0  0  0  0  0  0  0  0  0  0  0
  140.4107   68.7156  229.6371 H   0  0  0  0  0  0  0  0  0  0  0  0
  141.1219   67.1954  228.9967 H   0  0  0  0  0  0  0  0  0  0  0  0
  142.0890   68.7092  228.9967 H   0  0  0  0  0  0  0  0  0  0  0  0
  139.3871   66.8203  227.3817 H   0  0  0  0  0  0  0  0  0  0  0  0
  138.5336   67.3709  225.1287 H   0  0  0  0  0  0  0  0  0  0  0  0
  141.6328   70.4771  227.3821 H   0  0  0  0  0  0  0  0  0  0  0  0
  140.3764   72.1988  225.2036 H   0  0  0  0  0  0  0  0  0  0  0  0
  141.7704   71.4248  224.4979 H   0  0  0  0  0  0  0  0  0  0  0  0
  138.7907   70.2834  221.1744 H   0  0  0  0  0  0  0  0  0  0  0  0
  138.5931   71.7049  219.1414 H   0  0  0  0  0  0  0  0  0  0  0  0
  139.4875   74.0189  219.2381 H   0  0  0  0  0  0  0  0  0  0  0  0
  141.4120   75.3800  219.3870 H   0  0  0  0  0  0  0  0  0  0  0  0
  142.4996   77.2027  221.3752 H   0  0  0  0  0  0  0  0  0  0  0  0
  142.3047   77.5765  219.5889 H   0  0  0  0  0  0  0  0  0  0  0  0
  140.5240   78.7507  219.8704 H   0  0  0  0  0  0  0  0  0  0  0  0
  139.9429   77.6309  221.2483 H   0  0  0  0  0  0  0  0  0  0  0  0
  140.8366   80.1878  221.2529 H   0  0  0  0  0  0  0  0  0  0  0  0
  142.7787   78.2505  222.5393 H   0  0  0  0  0  0  0  0  0  0  0  0
  143.1107   79.6945  221.5289 H   0  0  0  0  0  0  0  0  0  0  0  0
  142.3449   79.5136  224.4575 H   0  0  0  0  0  0  0  0  0  0  0  0
  143.5690   80.5615  223.6426 H   0  0  0  0  0  0  0  0  0  0  0  0
  141.7243   81.9301  224.3967 H   0  0  0  0  0  0  0  0  0  0  0  0
  141.7111   81.8239  222.5882 H   0  0  0  0  0  0  0  0  0  0  0  0
  139.7786   80.7398  224.5997 H   0  0  0  0  0  0  0  0  0  0  0  0
  139.5002   81.4356  222.9612 H   0  0  0  0  0  0  0  0  0  0  0  0
  140.3373   78.6162  223.7368 H   0  0  0  0  0  0  0  0  0  0  0  0
  139.0423   79.1439  222.6188 H   0  0  0  0  0  0  0  0  0  0  0  0
  140.7148   73.4528  223.2699 H   0  0  0  0  0  0  0  0  0  0  0  0
  1  2  1  0
  2  3  2  0
  3  4  1  0
  4  5  2  0
  5  6  1  0
  6  7  2  0
  6  8  1  0
  8  9  1  0
  9 10  1  0
 10 11  2  0
 11 12  1  0
 12 13  2  0
 13 14  1  0
 14 15  1  0
 15 16  2  0
 15 17  1  0
 17 18  1  0
 18 19  1  0
 19 20  1  0
 20 21  1  0
 21 22  1  0
 22 23  1  0
 23 24  1  0
 24 25  1  0
 14 26  2  0
  9 27  2  0
  7  2  1  0
 26 10  1  0
 27  5  1  0
 25 20  1  0
  1 28  1  0
  1 29  1  0
  1 30  1  0
  3 31  1  0
  4 32  1  0
  7 33  1  0
  8 34  1  0
  8 35  1  0
 11 36  1  0
 12 37  1  0
 13 38  1  0
 17 39  1  0
 18 40  1  0
 18 41  1  0
 19 42  1  0
 19 43  1  0
 20 44  1  0
 21 45  1  0
 21 46  1  0
 22 47  1  0
 22 48  1  0
 23 49  1  0
 23 50  1  0
 24 51  1  0
 24 52  1  0
 25 53  1  0
 25 54  1  0
 26 55  1  0
M  END
>  <smiles>  (14) 
Cc1ccc2c(c1)CC(c1cccc(C(=O)NCCC3CCCCC3)c1)=N2

>  <score_type>  (14) 
oracle

>  <origin>  (14) 
autodockgpu

>  <m_score__min__energy>  (14) 
-8.6999999999999993

>  <m_primary>  (14) 
energy

>  <rmsd>  (14) 
4.363151556178053

>  <m_score__min__rmsd>  (14) 
4.363151556178053

>  <meeko>  (14) 
{"free_energy": -8.18, "intermolecular_energy": -9.67, "internal_energy": -0.87, "cluster_size": 23, "cluster_id": 3, "rank_in_cluster": 18}

>  <energy>  (14) 
-8.59

>  <cluster_rmsd>  (14) 
0.1

>  <cluster>  (14) 
2

$$$$

     RDKit          3D

 55 58  0  0  0  0  0  0  0  0999 V2000
  141.4400   68.1550  228.7700 C   0  0  0  0  0  0  0  0  0  0  0  0
  140.7850   68.5020  227.4830 C   0  0  0  0  0  0  0  0  0  0  0  0
  140.0360   67.5570  226.8160 C   0  0  0  0  0  0  0  0  0  0  0  0
  139.4290   67.8900  225.6160 C   0  0  0  0  0  0  0  0  0  0  0  0
  139.5460   69.1460  225.0560 C   0  0  0  0  0  0  0  0  0  0  0  0
  140.3020   70.0960  225.7340 C   0  0  0  0  0  0  0  0  0  0  0  0
  140.9120   69.7660  226.9360 C   0  0  0  0  0  0  0  0  0  0  0  0
  140.2870   71.3580  224.9530 C   0  0  0  0  0  0  0  0  0  0  0  0
  139.4440   70.9870  223.7860 C   0  0  0  0  0  0  0  0  0  0  0  0
  139.1100   71.8940  222.6920 C   0  0  0  0  0  0  0  0  0  0  0  0
  138.0230   71.6710  221.8720 C   0  0  0  0  0  0  0  0  0  0  0  0
  137.6870   72.5160  220.8280 C   0  0  0  0  0  0  0  0  0  0  0  0
  138.4980   73.6180  220.6320 C   0  0  0  0  0  0  0  0  0  0  0  0
  139.5940   73.8930  221.4160 C   0  0  0  0  0  0  0  0  0  0  0  0
  140.4630   75.0430  221.2310 C   0  0  0  0  0  0  0  0  0  0  0  0
  141.4670   75.2310  221.9660 O   0  0  0  0  0  0  0  0  0  0  0  0
  140.2430   76.0320  220.2150 N   0  0  0  0  0  0  0  0  0  0  0  0
  141.1910   77.1150  220.1560 C   0  0  0  0  0  0  0  0  0  0  0  0
  140.6530   78.4280  220.5800 C   0  0  0  0  0  0  0  0  0  0  0  0
  141.2840   79.1130  221.7210 C   0  0  0  0  0  0  0  0  0  0  0  0
  141.4330   78.2270  222.9460 C   0  0  0  0  0  0  0  0  0  0  0  0
  141.7770   79.1030  224.1600 C   0  0  0  0  0  0  0  0  0  0  0  0
  142.6050   80.2930  223.7420 C   0  0  0  0  0  0  0  0  0  0  0  0
  141.8200   81.2300  222.8460 C   0  0  0  0  0  0  0  0  0  0  0  0
  140.7410   80.4540  222.0870 C   0  0  0  0  0  0  0  0  0  0  0  0
  139.8740   73.0130  222.4360 C   0  0  0  0  0  0  0  0  0  0  0  0
  139.0580   69.7730  223.8780 N   0  0  0  0  0  0  0  0  0  0  0  0
  140.8076   68.4900  229.6053 H   0  0  0  0  0  0  0  0  0  0  0  0
  141.5783   67.0653  228.8289 H   0  0  0  0  0  0  0  0  0  0  0  0
  142.4192   68.6526  228.8289 H   0  0  0  0  0  0  0  0  0  0  0  0
  139.9209   66.5457  227.2333 H   0  0  0  0  0  0  0  0  0  0  0  0
  138.8338   67.1277  225.0919 H   0  0  0  0  0  0  0  0  0  0  0  0
  141.5083   70.5246  227.4642 H   0  0  0  0  0  0  0  0  0  0  0  0
  139.8345   72.1791  225.5284 H   0  0  0  0  0  0  0  0  0  0  0  0
  141.2880   71.7233  224.6798 H   0  0  0  0  0  0  0  0  0  0  0  0
  137.3973   70.7850  222.0553 H   0  0  0  0  0  0  0  0  0  0  0  0
  136.8162   72.3197  220.1852 H   0  0  0  0  0  0  0  0  0  0  0  0
  138.2553   74.3076  219.8101 H   0  0  0  0  0  0  0  0  0  0  0  0
  139.4350   75.8870  219.6020 H   0  0  0  0  0  0  0  0  0  0  0  0
  142.0395   76.8644  220.8097 H   0  0  0  0  0  0  0  0  0  0  0  0
  141.4777   77.2216  219.0994 H   0  0  0  0  0  0  0  0  0  0  0  0
  140.7270   79.1034  219.7150 H   0  0  0  0  0  0  0  0  0  0  0  0
  139.6363   78.2001  220.9327 H   0  0  0  0  0  0  0  0  0  0  0  0
  142.2858   79.3291  221.3213 H   0  0  0  0  0  0  0  0  0  0  0  0
  140.4891   77.6937  223.1320 H   0  0  0  0  0  0  0  0  0  0  0  0
  142.2358   77.4939  222.7782 H   0  0  0  0  0  0  0  0  0  0  0  0
  140.8453   79.4570  224.6253 H   0  0  0  0  0  0  0  0  0  0  0  0
  142.3573   78.5026  224.8761 H   0  0  0  0  0  0  0  0  0  0  0  0
  142.9223   80.8411  224.6414 H   0  0  0  0  0  0  0  0  0  0  0  0
  143.4757   79.9263  223.1787 H   0  0  0  0  0  0  0  0  0  0  0  0
  141.3436   82.0074  223.4614 H   0  0  0  0  0  0  0  0  0  0  0  0
  142.5061   81.6931  222.1215 H   0  0  0  0  0  0  0  0  0  0  0  0
  139.8540   80.3323  222.7261 H   0  0  0  0  0  0  0  0  0  0  0  0
  140.4541   81.0030  221.1780 H   0  0  0  0  0  0  0  0  0  0  0  0
  140.7465   73.2110  223.0760 H   0  0  0  0  0  0  0  0  0  0  0  0
  1  2  1  0
  2  3  2  0
  3  4  1  0
  4  5  2  0
  5  6  1  0
  6  7  2  0
  6  8  1  0
  8  9  1  0
  9 10  1  0
 10 11  2  0
 11 12  1  0
 12 13  2  0
 13 14  1  0
 14 15  1  0
 15 16  2  0
 15 17  1  0
 17 18  1  0
 18 19  1  0
 19 20  1  0
 20 21  1  0
 21 22  1  0
 22 23  1  0
 23 24  1  0
 24 25  1  0
 14 26  2  0
  9 27  2  0
  7  2  1  0
 26 10  1  0
 27  5  1  0
 25 20  1  0
  1 28  1  0
  1 29  1  0
  1 30  1  0
  3 31  1  0
  4 32  1  0
  7 33  1  0
  8 34  1  0
  8 35  1  0
 11 36  1  0
 12 37  1  0
 13 38  1  0
 17 39  1  0
 18 40  1  0
 18 41  1  0
 19 42  1  0
 19 43  1  0
 20 44  1  0
 21 45  1  0
 21 46  1  0
 22 47  1  0
 22 48  1  0
 23 49  1  0
 23 50  1  0
 24 51  1  0
 24 52  1  0
 25 53  1  0
 25 54  1  0
 26 55  1  0
M  END
>  <smiles>  (15) 
Cc1ccc2c(c1)CC(c1cccc(C(=O)NCCC3CCCCC3)c1)=N2

>  <score_type>  (15) 
oracle

>  <origin>  (15) 
autodockgpu

>  <m_score__min__energy>  (15) 
-8.6999999999999993

>  <m_primary>  (15) 
energy

>  <rmsd>  (15) 
4.791878318417672

>  <m_score__min__rmsd>  (15) 
4.791878318417672

>  <meeko>  (15) 
{"free_energy": -8.27, "intermolecular_energy": -9.76, "internal_energy": -0.91, "cluster_size": 23, "cluster_id": 3, "rank_in_cluster": 12}

>  <energy>  (15) 
-8.58

>  <cluster_rmsd>  (15) 
0.12

>  <cluster>  (15) 
2

$$$$

     RDKit          3D

 55 58  0  0  0  0  0  0  0  0999 V2000
  140.6000   68.1300  228.9800 C   0  0  0  0  0  0  0  0  0  0  0  0
  140.6520   69.2150  227.9680 C   0  0  0  0  0  0  0  0  0  0  0  0
  141.0950   70.4690  228.3270 C   0  0  0  0  0  0  0  0  0  0  0  0
  141.1400   71.4760  227.3760 C   0  0  0  0  0  0  0  0  0  0  0  0
  140.7540   71.2690  226.0670 C   0  0  0  0  0  0  0  0  0  0  0  0
  140.3090   70.0010  225.7090 C   0  0  0  0  0  0  0  0  0  0  0  0
  140.2610   68.9900  226.6590 C   0  0  0  0  0  0  0  0  0  0  0  0
  139.9510   70.0130  224.2690 C   0  0  0  0  0  0  0  0  0  0  0  0
  140.2520   71.4190  223.8900 C   0  0  0  0  0  0  0  0  0  0  0  0
  140.0690   71.9650  222.5480 C   0  0  0  0  0  0  0  0  0  0  0  0
  139.9550   71.1480  221.4440 C   0  0  0  0  0  0  0  0  0  0  0  0
  139.7830   71.6420  220.1620 C   0  0  0  0  0  0  0  0  0  0  0  0
  139.7260   73.0160  220.0250 C   0  0  0  0  0  0  0  0  0  0  0  0
  139.8330   73.8810  221.0890 C   0  0  0  0  0  0  0  0  0  0  0  0
  139.7790   75.3290  220.9730 C   0  0  0  0  0  0  0  0  0  0  0  0
  139.0460   76.0190  221.7280 O   0  0  0  0  0  0  0  0  0  0  0  0
  140.5420   76.0640  220.0060 N   0  0  0  0  0  0  0  0  0  0  0  0
  140.3810   77.4950  220.0130 C   0  0  0  0  0  0  0  0  0  0  0  0
  141.6360   78.2550  220.2170 C   0  0  0  0  0  0  0  0  0  0  0  0
  141.8200   78.9880  221.4810 C   0  0  0  0  0  0  0  0  0  0  0  0
  141.4360   78.1770  222.7070 C   0  0  0  0  0  0  0  0  0  0  0  0
  141.3410   79.1150  223.9190 C   0  0  0  0  0  0  0  0  0  0  0  0
  142.3340   80.2440  223.8010 C   0  0  0  0  0  0  0  0  0  0  0  0
  142.0080   81.1500  222.6300 C   0  0  0  0  0  0  0  0  0  0  0  0
  141.2590   80.3690  221.5490 C   0  0  0  0  0  0  0  0  0  0  0  0
  140.0040   73.3260  222.3360 C   0  0  0  0  0  0  0  0  0  0  0  0
  140.6870   72.0730  224.8970 N   0  0  0  0  0  0  0  0  0  0  0  0
  140.6210   68.5682  229.9887 H   0  0  0  0  0  0  0  0  0  0  0  0
  139.6731   67.5519  228.8505 H   0  0  0  0  0  0  0  0  0  0  0  0
  141.4674   67.4660  228.8505 H   0  0  0  0  0  0  0  0  0  0  0  0
  141.4109   70.6696  229.3614 H   0  0  0  0  0  0  0  0  0  0  0  0
  141.4951   72.4735  227.6742 H   0  0  0  0  0  0  0  0  0  0  0  0
  139.9055   67.9910  226.3662 H   0  0  0  0  0  0  0  0  0  0  0  0
  140.5677   69.3038  223.6975 H   0  0  0  0  0  0  0  0  0  0  0  0
  138.9130   69.7105  224.0665 H   0  0  0  0  0  0  0  0  0  0  0  0
  140.0026   70.0584  221.5872 H   0  0  0  0  0  0  0  0  0  0  0  0
  139.6959   70.9725  219.2936 H   0  0  0  0  0  0  0  0  0  0  0  0
  139.5887   73.4374  219.0182 H   0  0  0  0  0  0  0  0  0  0  0  0
  141.1510   75.5160  219.3900 H   0  0  0  0  0  0  0  0  0  0  0  0
  139.9502   77.7967  219.0469 H   0  0  0  0  0  0  0  0  0  0  0  0
  139.7304   77.7317  220.8678 H   0  0  0  0  0  0  0  0  0  0  0  0
  142.4661   77.5379  220.1345 H   0  0  0  0  0  0  0  0  0  0  0  0
  141.5977   79.0451  219.4526 H   0  0  0  0  0  0  0  0  0  0  0  0
  142.9093   79.1412  221.4893 H   0  0  0  0  0  0  0  0  0  0  0  0
  140.4628   77.6928  222.5386 H   0  0  0  0  0  0  0  0  0  0  0  0
  142.1966   77.4047  222.8942 H   0  0  0  0  0  0  0  0  0  0  0  0
  140.3248   79.5326  223.9732 H   0  0  0  0  0  0  0  0  0  0  0  0
  141.5673   78.5398  224.8289 H   0  0  0  0  0  0  0  0  0  0  0  0
  142.3137   80.8363  224.7277 H   0  0  0  0  0  0  0  0  0  0  0  0
  143.3314   79.8107  223.6351 H   0  0  0  0  0  0  0  0  0  0  0  0
  141.3786   81.9820  222.9788 H   0  0  0  0  0  0  0  0  0  0  0  0
  142.9454   81.5395  222.2063 H   0  0  0  0  0  0  0  0  0  0  0  0
  140.1892   80.3219  221.8005 H   0  0  0  0  0  0  0  0  0  0  0  0
  141.3759   80.8693  220.5763 H   0  0  0  0  0  0  0  0  0  0  0  0
  140.0928   73.9977  223.2025 H   0  0  0  0  0  0  0  0  0  0  0  0
  1  2  1  0
  2  3  2  0
  3  4  1  0
  4  5  2  0
  5  6  1  0
  6  7  2  0
  6  8  1  0
  8  9  1  0
  9 10  1  0
 10 11  2  0
 11 12  1  0
 12 13  2  0
 13 14  1  0
 14 15  1  0
 15 16  2  0
 15 17  1  0
 17 18  1  0
 18 19  1  0
 19 20  1  0
 20 21  1  0
 21 22  1  0
 22 23  1  0
 23 24  1  0
 24 25  1  0
 14 26  2  0
  9 27  2  0
  7  2  1  0
 26 10  1  0
 27  5  1  0
 25 20  1  0
  1 28  1  0
  1 29  1  0
  1 30  1  0
  3 31  1  0
  4 32  1  0
  7 33  1  0
  8 34  1  0
  8 35  1  0
 11 36  1  0
 12 37  1  0
 13 38  1  0
 17 39  1  0
 18 40  1  0
 18 41  1  0
 19 42  1  0
 19 43  1  0
 20 44  1  0
 21 45  1  0
 21 46  1  0
 22 47  1  0
 22 48  1  0
 23 49  1  0
 23 50  1  0
 24 51  1  0
 24 52  1  0
 25 53  1  0
 25 54  1  0
 26 55  1  0
M  END
>  <smiles>  (16) 
Cc1ccc2c(c1)CC(c1cccc(C(=O)NCCC3CCCCC3)c1)=N2

>  <score_type>  (16) 
oracle

>  <origin>  (16) 
autodockgpu

>  <m_score__min__energy>  (16) 
-8.6999999999999993

>  <m_primary>  (16) 
energy

>  <rmsd>  (16) 
4.596084796999523

>  <m_score__min__rmsd>  (16) 
4.596084796999523

>  <meeko>  (16) 
{"free_energy": -7.98, "intermolecular_energy": -9.47, "internal_energy": -0.93, "cluster_size": 23, "cluster_id": 3, "rank_in_cluster": 21}

>  <energy>  (16) 
-8.57

>  <cluster_rmsd>  (16) 
0.14

>  <cluster>  (16) 
2

$$$$

     RDKit          3D

 55 58  0  0  0  0  0  0  0  0999 V2000
  137.6910   81.5040  224.1660 C   0  0  0  0  0  0  0  0  0  0  0  0
  138.7290   80.5550  223.6930 C   0  0  0  0  0  0  0  0  0  0  0  0
  140.0530   80.9380  223.6700 C   0  0  0  0  0  0  0  0  0  0  0  0
  141.0150   80.0460  223.2270 C   0  0  0  0  0  0  0  0  0  0  0  0
  140.6970   78.7710  222.8040 C   0  0  0  0  0  0  0  0  0  0  0  0
  139.3600   78.3880  222.8300 C   0  0  0  0  0  0  0  0  0  0  0  0
  138.3930   79.2800  223.2720 C   0  0  0  0  0  0  0  0  0  0  0  0
  139.2570   76.9920  222.3360 C   0  0  0  0  0  0  0  0  0  0  0  0
  140.6780   76.6660  222.0430 C   0  0  0  0  0  0  0  0  0  0  0  0
  141.1340   75.3810  221.5190 C   0  0  0  0  0  0  0  0  0  0  0  0
  142.1520   75.2970  220.5930 C   0  0  0  0  0  0  0  0  0  0  0  0
  142.6010   74.0910  220.0820 C   0  0  0  0  0  0  0  0  0  0  0  0
  141.9790   72.9470  220.5440 C   0  0  0  0  0  0  0  0  0  0  0  0
  140.9600   72.9670  221.4670 C   0  0  0  0  0  0  0  0  0  0  0  0
  140.2880   71.7800  221.9700 C   0  0  0  0  0  0  0  0  0  0  0  0
  140.3160   70.6940  221.3360 O   0  0  0  0  0  0  0  0  0  0  0  0
  139.5560   71.7620  223.2040 N   0  0  0  0  0  0  0  0  0  0  0  0
  138.9450   70.5110  223.5690 C   0  0  0  0  0  0  0  0  0  0  0  0
  139.6950   69.7290  224.5780 C   0  0  0  0  0  0  0  0  0  0  0  0
  139.9730   70.3470  225.8860 C   0  0  0  0  0  0  0  0  0  0  0  0
  140.9450   71.5120  225.8060 C   0  0  0  0  0  0  0  0  0  0  0  0
  141.4240   71.8630  227.2220 C   0  0  0  0  0  0  0  0  0  0  0  0
  140.3360   71.6030  228.2340 C   0  0  0  0  0  0  0  0  0  0  0  0
  140.0100   70.1260  228.3320 C   0  0  0  0  0  0  0  0  0  0  0  0
  140.3230   69.4260  227.0070 C   0  0  0  0  0  0  0  0  0  0  0  0
  140.5600   74.1980  221.9350 C   0  0  0  0  0  0  0  0  0  0  0  0
  141.4330   77.6600  222.3100 N   0  0  0  0  0  0  0  0  0  0  0  0
  137.6785   81.5154  225.2659 H   0  0  0  0  0  0  0  0  0  0  0  0
  137.9185   82.5129  223.7914 H   0  0  0  0  0  0  0  0  0  0  0  0
  136.7065   81.1872  223.7914 H   0  0  0  0  0  0  0  0  0  0  0  0
  140.3435   81.9459  224.0015 H   0  0  0  0  0  0  0  0  0  0  0  0
  142.0679   80.3640  223.2116 H   0  0  0  0  0  0  0  0  0  0  0  0
  137.3385   78.9675  223.2881 H   0  0  0  0  0  0  0  0  0  0  0  0
  138.8437   76.3243  223.1063 H   0  0  0  0  0  0  0  0  0  0  0  0
  138.5862   76.8740  221.4722 H   0  0  0  0  0  0  0  0  0  0  0  0
  142.6271   76.2264  220.2458 H   0  0  0  0  0  0  0  0  0  0  0  0
  143.4146   74.0458  219.3430 H   0  0  0  0  0  0  0  0  0  0  0  0
  142.3148   71.9744  220.1551 H   0  0  0  0  0  0  0  0  0  0  0  0
  139.5330   72.6370  223.7360 H   0  0  0  0  0  0  0  0  0  0  0  0
  137.9445   70.7233  223.9740 H   0  0  0  0  0  0  0  0  0  0  0  0
  138.9203   69.8984  222.6557 H   0  0  0  0  0  0  0  0  0  0  0  0
  139.1204   68.8107  224.7690 H   0  0  0  0  0  0  0  0  0  0  0  0
  140.6898   69.5954  224.1280 H   0  0  0  0  0  0  0  0  0  0  0  0
  138.9817   70.7372  226.1599 H   0  0  0  0  0  0  0  0  0  0  0  0
  141.8077   71.2303  225.1843 H   0  0  0  0  0  0  0  0  0  0  0  0
  140.4447   72.3827  225.3569 H   0  0  0  0  0  0  0  0  0  0  0  0
  142.3014   71.2472  227.4692 H   0  0  0  0  0  0  0  0  0  0  0  0
  141.6859   72.9310  227.2516 H   0  0  0  0  0  0  0  0  0  0  0  0
  140.6707   71.9613  229.2187 H   0  0  0  0  0  0  0  0  0  0  0  0
  139.4295   72.1358  227.9108 H   0  0  0  0  0  0  0  0  0  0  0  0
  140.6126   69.6734  229.1332 H   0  0  0  0  0  0  0  0  0  0  0  0
  138.9393   70.0090  228.5554 H   0  0  0  0  0  0  0  0  0  0  0  0
  141.3940   69.1789  226.9627 H   0  0  0  0  0  0  0  0  0  0  0  0
  139.7388   68.4975  226.9260 H   0  0  0  0  0  0  0  0  0  0  0  0
  139.7461   74.2401  222.6738 H   0  0  0  0  0  0  0  0  0  0  0  0
  1  2  1  0
  2  3  2  0
  3  4  1  0
  4  5  2  0
  5  6  1  0
  6  7  2  0
  6  8  1  0
  8  9  1  0
  9 10  1  0
 10 11  2  0
 11 12  1  0
 12 13  2  0
 13 14  1  0
 14 15  1  0
 15 16  2  0
 15 17  1  0
 17 18  1  0
 18 19  1  0
 19 20  1  0
 20 21  1  0
 21 22  1  0
 22 23  1  0
 23 24  1  0
 24 25  1  0
 14 26  2  0
  9 27  2  0
  7  2  1  0
 26 10  1  0
 27  5  1  0
 25 20  1  0
  1 28  1  0
  1 29  1  0
  1 30  1  0
  3 31  1  0
  4 32  1  0
  7 33  1  0
  8 34  1  0
  8 35  1  0
 11 36  1  0
 12 37  1  0
 13 38  1  0
 17 39  1  0
 18 40  1  0
 18 41  1  0
 19 42  1  0
 19 43  1  0
 20 44  1  0
 21 45  1  0
 21 46  1  0
 22 47  1  0
 22 48  1  0
 23 49  1  0
 23 50  1  0
 24 51  1  0
 24 52  1  0
 25 53  1  0
 25 54  1  0
 26 55  1  0
M  END
>  <smiles>  (17) 
Cc1ccc2c(c1)CC(c1cccc(C(=O)NCCC3CCCCC3)c1)=N2

>  <score_type>  (17) 
oracle

>  <origin>  (17) 
autodockgpu

>  <m_score__min__energy>  (17) 
-8.6999999999999993

>  <m_primary>  (17) 
energy

>  <rmsd>  (17) 
9.276230553685371

>  <m_score__min__rmsd>  (17) 
9.276230553685371

>  <meeko>  (17) 
{"free_energy": -8.57, "intermolecular_energy": -10.06, "internal_energy": -0.9, "cluster_size": 11, "cluster_id": 2, "rank_in_cluster": 6}

>  <energy>  (17) 
-8.57

>  <cluster_rmsd>  (17) 
0.13

>  <cluster>  (17) 
2

$$$$

     RDKit          3D

 55 58  0  0  0  0  0  0  0  0999 V2000
  141.3340   68.2230  228.7860 C   0  0  0  0  0  0  0  0  0  0  0  0
  140.7080   68.5890  227.4910 C   0  0  0  0  0  0  0  0  0  0  0  0
  139.8210   67.7240  226.8870 C   0  0  0  0  0  0  0  0  0  0  0  0
  139.2420   68.0750  225.6780 C   0  0  0  0  0  0  0  0  0  0  0  0
  139.5210   69.2700  225.0480 C   0  0  0  0  0  0  0  0  0  0  0  0
  140.4160   70.1400  225.6620 C   0  0  0  0  0  0  0  0  0  0  0  0
  140.9990   69.7920  226.8720 C   0  0  0  0  0  0  0  0  0  0  0  0
  140.5610   71.3480  224.8120 C   0  0  0  0  0  0  0  0  0  0  0  0
  139.6510   71.0370  223.6790 C   0  0  0  0  0  0  0  0  0  0  0  0
  139.4250   71.9230  222.5400 C   0  0  0  0  0  0  0  0  0  0  0  0
  138.4280   71.6780  221.6190 C   0  0  0  0  0  0  0  0  0  0  0  0
  138.1940   72.5020  220.5310 C   0  0  0  0  0  0  0  0  0  0  0  0
  139.0150   73.6060  220.3980 C   0  0  0  0  0  0  0  0  0  0  0  0
  140.0250   73.9030  221.2830 C   0  0  0  0  0  0  0  0  0  0  0  0
  140.9020   75.0550  221.1660 C   0  0  0  0  0  0  0  0  0  0  0  0
  141.3510   75.6430  222.1840 O   0  0  0  0  0  0  0  0  0  0  0  0
  141.3130   75.5980  219.9030 N   0  0  0  0  0  0  0  0  0  0  0  0
  142.1840   76.7430  219.9490 C   0  0  0  0  0  0  0  0  0  0  0  0
  141.5000   78.0280  220.2210 C   0  0  0  0  0  0  0  0  0  0  0  0
  141.6020   78.6100  221.5700 C   0  0  0  0  0  0  0  0  0  0  0  0
  140.3190   78.4900  222.3750 C   0  0  0  0  0  0  0  0  0  0  0  0
  140.4120   79.4030  223.6060 C   0  0  0  0  0  0  0  0  0  0  0  0
  141.8360   79.4930  224.0980 C   0  0  0  0  0  0  0  0  0  0  0  0
  142.7310   80.1800  223.0850 C   0  0  0  0  0  0  0  0  0  0  0  0
  142.1780   79.9830  221.6710 C   0  0  0  0  0  0  0  0  0  0  0  0
  140.2050   73.0430  222.3430 C   0  0  0  0  0  0  0  0  0  0  0  0
  139.1020   69.8960  223.8430 N   0  0  0  0  0  0  0  0  0  0  0  0
  140.7075   68.5893  229.6126 H   0  0  0  0  0  0  0  0  0  0  0  0
  141.4259   67.1289  228.8526 H   0  0  0  0  0  0  0  0  0  0  0  0
  142.3326   68.6796  228.8526 H   0  0  0  0  0  0  0  0  0  0  0  0
  139.5746   66.7624  227.3610 H   0  0  0  0  0  0  0  0  0  0  0  0
  138.5359   67.3770  225.2045 H   0  0  0  0  0  0  0  0  0  0  0  0
  141.7066   70.4862  227.3488 H   0  0  0  0  0  0  0  0  0  0  0  0
  140.2393   72.2541  225.3463 H   0  0  0  0  0  0  0  0  0  0  0  0
  141.5973   71.5542  224.5059 H   0  0  0  0  0  0  0  0  0  0  0  0
  137.7920   70.7908  221.7544 H   0  0  0  0  0  0  0  0  0  0  0  0
  137.3934   72.2883  219.8075 H   0  0  0  0  0  0  0  0  0  0  0  0
  138.8528   74.2793  219.5434 H   0  0  0  0  0  0  0  0  0  0  0  0
  140.9630   75.1230  219.0650 H   0  0  0  0  0  0  0  0  0  0  0  0
  142.9283   76.5761  220.7416 H   0  0  0  0  0  0  0  0  0  0  0  0
  142.6318   76.8341  218.9484 H   0  0  0  0  0  0  0  0  0  0  0  0
  141.9085   78.7680  219.5170 H   0  0  0  0  0  0  0  0  0  0  0  0
  140.4314   77.7910  220.1116 H   0  0  0  0  0  0  0  0  0  0  0  0
  142.3651   77.9653  222.0305 H   0  0  0  0  0  0  0  0  0  0  0  0
  139.4642   78.7952  221.7536 H   0  0  0  0  0  0  0  0  0  0  0  0
  140.1788   77.4473  222.6962 H   0  0  0  0  0  0  0  0  0  0  0  0
  140.0589   80.4093  223.3365 H   0  0  0  0  0  0  0  0  0  0  0  0
  139.7874   78.9808  224.4070 H   0  0  0  0  0  0  0  0  0  0  0  0
  141.8542   80.0651  225.0373 H   0  0  0  0  0  0  0  0  0  0  0  0
  142.2125   78.4714  224.2547 H   0  0  0  0  0  0  0  0  0  0  0  0
  142.7764   81.2556  223.3108 H   0  0  0  0  0  0  0  0  0  0  0  0
  143.7383   79.7416  223.1406 H   0  0  0  0  0  0  0  0  0  0  0  0
  141.3941   80.7288  221.4728 H   0  0  0  0  0  0  0  0  0  0  0  0
  142.9838   80.1069  220.9326 H   0  0  0  0  0  0  0  0  0  0  0  0
  141.0065   73.2589  223.0647 H   0  0  0  0  0  0  0  0  0  0  0  0
  1  2  1  0
  2  3  2  0
  3  4  1  0
  4  5  2  0
  5  6  1  0
  6  7  2  0
  6  8  1  0
  8  9  1  0
  9 10  1  0
 10 11  2  0
 11 12  1  0
 12 13  2  0
 13 14  1  0
 14 15  1  0
 15 16  2  0
 15 17  1  0
 17 18  1  0
 18 19  1  0
 19 20  1  0
 20 21  1  0
 21 22  1  0
 22 23  1  0
 23 24  1  0
 24 25  1  0
 14 26  2  0
  9 27  2  0
  7  2  1  0
 26 10  1  0
 27  5  1  0
 25 20  1  0
  1 28  1  0
  1 29  1  0
  1 30  1  0
  3 31  1  0
  4 32  1  0
  7 33  1  0
  8 34  1  0
  8 35  1  0
 11 36  1  0
 12 37  1  0
 13 38  1  0
 17 39  1  0
 18 40  1  0
 18 41  1  0
 19 42  1  0
 19 43  1  0
 20 44  1  0
 21 45  1  0
 21 46  1  0
 22 47  1  0
 22 48  1  0
 23 49  1  0
 23 50  1  0
 24 51  1  0
 24 52  1  0
 25 53  1  0
 25 54  1  0
 26 55  1  0
M  END
>  <smiles>  (18) 
Cc1ccc2c(c1)CC(c1cccc(C(=O)NCCC3CCCCC3)c1)=N2

>  <score_type>  (18) 
oracle

>  <origin>  (18) 
autodockgpu

>  <m_score__min__energy>  (18) 
-8.6999999999999993

>  <m_primary>  (18) 
energy

>  <rmsd>  (18) 
4.669645431647896

>  <m_score__min__rmsd>  (18) 
4.669645431647896

>  <meeko>  (18) 
{"free_energy": -8.25, "intermolecular_energy": -9.74, "internal_energy": -0.98, "cluster_size": 23, "cluster_id": 3, "rank_in_cluster": 16}

>  <energy>  (18) 
-8.56

>  <cluster_rmsd>  (18) 
0.12

>  <cluster>  (18) 
2

$$$$

     RDKit          3D

 55 58  0  0  0  0  0  0  0  0999 V2000
  133.6850   80.0770  225.2900 C   0  0  0  0  0  0  0  0  0  0  0  0
  133.5300   78.7050  225.8350 C   0  0  0  0  0  0  0  0  0  0  0  0
  133.0350   78.5220  227.1080 C   0  0  0  0  0  0  0  0  0  0  0  0
  132.8930   77.2390  227.6080 C   0  0  0  0  0  0  0  0  0  0  0  0
  133.2320   76.1210  226.8730 C   0  0  0  0  0  0  0  0  0  0  0  0
  133.7300   76.3100  225.5880 C   0  0  0  0  0  0  0  0  0  0  0  0
  133.8740   77.5950  225.0830 C   0  0  0  0  0  0  0  0  0  0  0  0
  134.0220   74.9820  224.9930 C   0  0  0  0  0  0  0  0  0  0  0  0
  133.6280   74.0610  226.0920 C   0  0  0  0  0  0  0  0  0  0  0  0
  133.7210   72.6050  226.0160 C   0  0  0  0  0  0  0  0  0  0  0  0
  132.7810   71.7880  226.6080 C   0  0  0  0  0  0  0  0  0  0  0  0
  132.8480   70.4060  226.5500 C   0  0  0  0  0  0  0  0  0  0  0  0
  133.9160   69.8610  225.8630 C   0  0  0  0  0  0  0  0  0  0  0  0
  134.8840   70.6240  225.2530 C   0  0  0  0  0  0  0  0  0  0  0  0
  136.0170   70.0780  224.5250 C   0  0  0  0  0  0  0  0  0  0  0  0
  136.0140   68.8930  224.1000 O   0  0  0  0  0  0  0  0  0  0  0  0
  137.2030   70.8360  224.2440 N   0  0  0  0  0  0  0  0  0  0  0  0
  138.2410   70.1570  223.5130 C   0  0  0  0  0  0  0  0  0  0  0  0
  139.1540   69.3450  224.3490 C   0  0  0  0  0  0  0  0  0  0  0  0
  139.6100   69.8960  225.6370 C   0  0  0  0  0  0  0  0  0  0  0  0
  140.3590   71.2100  225.4960 C   0  0  0  0  0  0  0  0  0  0  0  0
  141.0720   71.5250  226.8190 C   0  0  0  0  0  0  0  0  0  0  0  0
  140.2770   71.0070  227.9910 C   0  0  0  0  0  0  0  0  0  0  0  0
  140.2010   69.4930  227.9860 C   0  0  0  0  0  0  0  0  0  0  0  0
  140.3240   68.9620  226.5560 C   0  0  0  0  0  0  0  0  0  0  0  0
  134.7600   71.9920  225.3480 C   0  0  0  0  0  0  0  0  0  0  0  0
  133.2020   74.7180  227.1000 N   0  0  0  0  0  0  0  0  0  0  0  0
  133.7660   80.7943  226.1200 H   0  0  0  0  0  0  0  0  0  0  0  0
  134.5944   80.1259  224.6730 H   0  0  0  0  0  0  0  0  0  0  0  0
  132.8094   80.3275  224.6730 H   0  0  0  0  0  0  0  0  0  0  0  0
  132.7545   79.3899  227.7229 H   0  0  0  0  0  0  0  0  0  0  0  0
  132.4966   77.1060  228.6254 H   0  0  0  0  0  0  0  0  0  0  0  0
  134.2690   77.7338  224.0658 H   0  0  0  0  0  0  0  0  0  0  0  0
  133.4199   74.8073  224.0892 H   0  0  0  0  0  0  0  0  0  0  0  0
  135.0648   74.8616  224.6641 H   0  0  0  0  0  0  0  0  0  0  0  0
  131.9435   72.2532  227.1486 H   0  0  0  0  0  0  0  0  0  0  0  0
  132.0869   69.7719  227.0283 H   0  0  0  0  0  0  0  0  0  0  0  0
  133.9956   68.7656  225.8012 H   0  0  0  0  0  0  0  0  0  0  0  0
  137.2160   71.8060  224.5760 H   0  0  0  0  0  0  0  0  0  0  0  0
  137.7641   69.4906  222.7792 H   0  0  0  0  0  0  0  0  0  0  0  0
  138.8580   70.9401  223.0481 H   0  0  0  0  0  0  0  0  0  0  0  0
  138.6383   68.3979  224.5661 H   0  0  0  0  0  0  0  0  0  0  0  0
  140.0729   69.2722  223.7487 H   0  0  0  0  0  0  0  0  0  0  0  0
  138.6536   70.0909  226.1443 H   0  0  0  0  0  0  0  0  0  0  0  0
  141.1010   71.1265  224.6882 H   0  0  0  0  0  0  0  0  0  0  0  0
  139.6511   72.0166  225.2548 H   0  0  0  0  0  0  0  0  0  0  0  0
  142.0636   71.0487  226.8168 H   0  0  0  0  0  0  0  0  0  0  0  0
  141.1722   72.6162  226.9150 H   0  0  0  0  0  0  0  0  0  0  0  0
  140.7583   71.3375  228.9233 H   0  0  0  0  0  0  0  0  0  0  0  0
  139.2538   71.4039  227.9160 H   0  0  0  0  0  0  0  0  0  0  0  0
  141.0207   69.0861  228.5964 H   0  0  0  0  0  0  0  0  0  0  0  0
  139.2318   69.1810  228.4024 H   0  0  0  0  0  0  0  0  0  0  0  0
  141.3853   68.9030  226.2728 H   0  0  0  0  0  0  0  0  0  0  0  0
  139.8805   67.9576  226.4892 H   0  0  0  0  0  0  0  0  0  0  0  0
  135.5233   72.6236  224.8700 H   0  0  0  0  0  0  0  0  0  0  0  0
  1  2  1  0
  2  3  2  0
  3  4  1  0
  4  5  2  0
  5  6  1  0
  6  7  2  0
  6  8  1  0
  8  9  1  0
  9 10  1  0
 10 11  2  0
 11 12  1  0
 12 13  2  0
 13 14  1  0
 14 15  1  0
 15 16  2  0
 15 17  1  0
 17 18  1  0
 18 19  1  0
 19 20  1  0
 20 21  1  0
 21 22  1  0
 22 23  1  0
 23 24  1  0
 24 25  1  0
 14 26  2  0
  9 27  2  0
  7  2  1  0
 26 10  1  0
 27  5  1  0
 25 20  1  0
  1 28  1  0
  1 29  1  0
  1 30  1  0
  3 31  1  0
  4 32  1  0
  7 33  1  0
  8 34  1  0
  8 35  1  0
 11 36  1  0
 12 37  1  0
 13 38  1  0
 17 39  1  0
 18 40  1  0
 18 41  1  0
 19 42  1  0
 19 43  1  0
 20 44  1  0
 21 45  1  0
 21 46  1  0
 22 47  1  0
 22 48  1  0
 23 49  1  0
 23 50  1  0
 24 51  1  0
 24 52  1  0
 25 53  1  0
 25 54  1  0
 26 55  1  0
M  END
>  <smiles>  (19) 
Cc1ccc2c(c1)CC(c1cccc(C(=O)NCCC3CCCCC3)c1)=N2

>  <score_type>  (19) 
oracle

>  <origin>  (19) 
autodockgpu

>  <m_score__min__energy>  (19) 
-8.6999999999999993

>  <m_primary>  (19) 
energy

>  <rmsd>  (19) 
11.354430603387073

>  <m_score__min__rmsd>  (19) 
11.354430603387073

>  <meeko>  (19) 
{"free_energy": -8.13, "intermolecular_energy": -9.62, "internal_energy": -0.99, "cluster_size": 11, "cluster_id": 1, "rank_in_cluster": 9}

>  <energy>  (19) 
-8.53

>  <cluster_rmsd>  (19) 
1.22

>  <cluster>  (19) 
2

$$$$

     RDKit          3D

 55 58  0  0  0  0  0  0  0  0999 V2000
  141.3740   68.1410  228.7430 C   0  0  0  0  0  0  0  0  0  0  0  0
  140.7230   68.5120  227.4610 C   0  0  0  0  0  0  0  0  0  0  0  0
  139.8630   67.6290  226.8450 C   0  0  0  0  0  0  0  0  0  0  0  0
  139.2610   67.9840  225.6490 C   0  0  0  0  0  0  0  0  0  0  0  0
  139.4910   69.2020  225.0430 C   0  0  0  0  0  0  0  0  0  0  0  0
  140.3580   70.0910  225.6690 C   0  0  0  0  0  0  0  0  0  0  0  0
  140.9640   69.7390  226.8670 C   0  0  0  0  0  0  0  0  0  0  0  0
  140.4510   71.3220  224.8460 C   0  0  0  0  0  0  0  0  0  0  0  0
  139.5430   71.0020  223.7130 C   0  0  0  0  0  0  0  0  0  0  0  0
  139.2740   71.9040  222.5960 C   0  0  0  0  0  0  0  0  0  0  0  0
  138.2100   71.7020  221.7430 C   0  0  0  0  0  0  0  0  0  0  0  0
  137.9350   72.5420  220.6770 C   0  0  0  0  0  0  0  0  0  0  0  0
  138.7850   73.6160  220.4940 C   0  0  0  0  0  0  0  0  0  0  0  0
  139.8620   73.8690  221.3110 C   0  0  0  0  0  0  0  0  0  0  0  0
  140.7720   74.9890  221.1400 C   0  0  0  0  0  0  0  0  0  0  0  0
  141.4450   75.4400  222.1040 O   0  0  0  0  0  0  0  0  0  0  0  0
  140.9660   75.6530  219.8830 N   0  0  0  0  0  0  0  0  0  0  0  0
  141.9010   76.7470  219.8710 C   0  0  0  0  0  0  0  0  0  0  0  0
  141.3030   78.0710  220.1620 C   0  0  0  0  0  0  0  0  0  0  0  0
  141.5890   78.7040  221.4620 C   0  0  0  0  0  0  0  0  0  0  0  0
  140.5590   78.3740  222.5290 C   0  0  0  0  0  0  0  0  0  0  0  0
  140.7480   79.3260  223.7190 C   0  0  0  0  0  0  0  0  0  0  0  0
  142.2020   79.6940  223.8830 C   0  0  0  0  0  0  0  0  0  0  0  0
  142.7080   80.5020  222.7050 C   0  0  0  0  0  0  0  0  0  0  0  0
  141.9040   80.1620  221.4470 C   0  0  0  0  0  0  0  0  0  0  0  0
  140.0810   72.9950  222.3520 C   0  0  0  0  0  0  0  0  0  0  0  0
  139.0380   69.8380  223.8560 N   0  0  0  0  0  0  0  0  0  0  0  0
  140.7568   68.4927  229.5829 H   0  0  0  0  0  0  0  0  0  0  0  0
  141.4790   67.0474  228.7979 H   0  0  0  0  0  0  0  0  0  0  0  0
  142.3684   68.6080  228.7979 H   0  0  0  0  0  0  0  0  0  0  0  0
  139.6560   66.6491  227.2998 H   0  0  0  0  0  0  0  0  0  0  0  0
  138.5766   67.2709  225.1662 H   0  0  0  0  0  0  0  0  0  0  0  0
  141.6490   70.4487  227.3539 H   0  0  0  0  0  0  0  0  0  0  0  0
  140.1005   72.2033  225.4031 H   0  0  0  0  0  0  0  0  0  0  0  0
  141.4762   71.5738  224.5368 H   0  0  0  0  0  0  0  0  0  0  0  0
  137.5521   70.8376  221.9164 H   0  0  0  0  0  0  0  0  0  0  0  0
  137.0806   72.3628  220.0078 H   0  0  0  0  0  0  0  0  0  0  0  0
  138.5911   74.3009  219.6553 H   0  0  0  0  0  0  0  0  0  0  0  0
  140.4320   75.2900  219.0860 H   0  0  0  0  0  0  0  0  0  0  0  0
  142.6744   76.5460  220.6269 H   0  0  0  0  0  0  0  0  0  0  0  0
  142.3025   76.8036  218.8484 H   0  0  0  0  0  0  0  0  0  0  0  0
  141.6512   78.7628  219.3809 H   0  0  0  0  0  0  0  0  0  0  0  0
  140.2208   77.8759  220.1910 H   0  0  0  0  0  0  0  0  0  0  0  0
  142.5418   78.2272  221.7356 H   0  0  0  0  0  0  0  0  0  0  0  0
  139.5472   78.4973  222.1154 H   0  0  0  0  0  0  0  0  0  0  0  0
  140.6892   77.3336  222.8616 H   0  0  0  0  0  0  0  0  0  0  0  0
  140.1615   80.2404  223.5463 H   0  0  0  0  0  0  0  0  0  0  0  0
  140.4063   78.8200  224.6340 H   0  0  0  0  0  0  0  0  0  0  0  0
  142.3185   80.2891  224.8008 H   0  0  0  0  0  0  0  0  0  0  0  0
  142.7882   78.7650  223.9408 H   0  0  0  0  0  0  0  0  0  0  0  0
  142.6003   81.5741  222.9265 H   0  0  0  0  0  0  0  0  0  0  0  0
  143.7667   80.2593  222.5312 H   0  0  0  0  0  0  0  0  0  0  0  0
  140.9698   80.7427  221.4362 H   0  0  0  0  0  0  0  0  0  0  0  0
  142.4889   80.4105  220.5491 H   0  0  0  0  0  0  0  0  0  0  0  0
  140.9375   73.1750  223.0184 H   0  0  0  0  0  0  0  0  0  0  0  0
  1  2  1  0
  2  3  2  0
  3  4  1  0
  4  5  2  0
  5  6  1  0
  6  7  2  0
  6  8  1  0
  8  9  1  0
  9 10  1  0
 10 11  2  0
 11 12  1  0
 12 13  2  0
 13 14  1  0
 14 15  1  0
 15 16  2  0
 15 17  1  0
 17 18  1  0
 18 19  1  0
 19 20  1  0
 20 21  1  0
 21 22  1  0
 22 23  1  0
 23 24  1  0
 24 25  1  0
 14 26  2  0
  9 27  2  0
  7  2  1  0
 26 10  1  0
 27  5  1  0
 25 20  1  0
  1 28  1  0
  1 29  1  0
  1 30  1  0
  3 31  1  0
  4 32  1  0
  7 33  1  0
  8 34  1  0
  8 35  1  0
 11 36  1  0
 12 37  1  0
 13 38  1  0
 17 39  1  0
 18 40  1  0
 18 41  1  0
 19 42  1  0
 19 43  1  0
 20 44  1  0
 21 45  1  0
 21 46  1  0
 22 47  1  0
 22 48  1  0
 23 49  1  0
 23 50  1  0
 24 51  1  0
 24 52  1  0
 25 53  1  0
 25 54  1  0
 26 55  1  0
M  END
>  <smiles>  (20) 
Cc1ccc2c(c1)CC(c1cccc(C(=O)NCCC3CCCCC3)c1)=N2

>  <score_type>  (20) 
oracle

>  <origin>  (20) 
autodockgpu

>  <m_score__min__energy>  (20) 
-8.6999999999999993

>  <m_primary>  (20) 
energy

>  <rmsd>  (20) 
4.736855664518945

>  <m_score__min__rmsd>  (20) 
4.736855664518945

>  <meeko>  (20) 
{"free_energy": -8.26, "intermolecular_energy": -9.75, "internal_energy": -0.97, "cluster_size": 23, "cluster_id": 3, "rank_in_cluster": 13}

>  <energy>  (20) 
-8.47

>  <cluster_rmsd>  (20) 
0.2

>  <cluster>  (20) 
2

$$$$

     RDKit          3D

 55 58  0  0  0  0  0  0  0  0999 V2000
  137.7460   81.5170  224.2700 C   0  0  0  0  0  0  0  0  0  0  0  0
  138.7680   80.5490  223.7970 C   0  0  0  0  0  0  0  0  0  0  0  0
  140.1030   80.8910  223.8240 C   0  0  0  0  0  0  0  0  0  0  0  0
  141.0490   79.9820  223.3800 C   0  0  0  0  0  0  0  0  0  0  0  0
  140.7040   78.7320  222.9080 C   0  0  0  0  0  0  0  0  0  0  0  0
  139.3560   78.3910  222.8840 C   0  0  0  0  0  0  0  0  0  0  0  0
  138.4040   79.3000  223.3260 C   0  0  0  0  0  0  0  0  0  0  0  0
  139.2250   77.0150  222.3430 C   0  0  0  0  0  0  0  0  0  0  0  0
  140.6420   76.6530  222.0800 C   0  0  0  0  0  0  0  0  0  0  0  0
  141.0740   75.3700  221.5300 C   0  0  0  0  0  0  0  0  0  0  0  0
  142.0430   75.2920  220.5520 C   0  0  0  0  0  0  0  0  0  0  0  0
  142.4680   74.0890  220.0140 C   0  0  0  0  0  0  0  0  0  0  0  0
  141.8720   72.9420  220.5040 C   0  0  0  0  0  0  0  0  0  0  0  0
  140.9010   72.9570  221.4780 C   0  0  0  0  0  0  0  0  0  0  0  0
  140.2580   71.7670  222.0100 C   0  0  0  0  0  0  0  0  0  0  0  0
  140.5820   70.6160  221.6170 O   0  0  0  0  0  0  0  0  0  0  0  0
  139.2250   71.8170  223.0030 N   0  0  0  0  0  0  0  0  0  0  0  0
  138.6840   70.5530  223.4320 C   0  0  0  0  0  0  0  0  0  0  0  0
  139.5690   69.7770  224.3300 C   0  0  0  0  0  0  0  0  0  0  0  0
  139.9220   70.3490  225.6410 C   0  0  0  0  0  0  0  0  0  0  0  0
  140.8930   71.5130  225.5450 C   0  0  0  0  0  0  0  0  0  0  0  0
  141.4520   71.8150  226.9430 C   0  0  0  0  0  0  0  0  0  0  0  0
  140.4220   71.5220  228.0060 C   0  0  0  0  0  0  0  0  0  0  0  0
  140.0960   70.0430  228.0710 C   0  0  0  0  0  0  0  0  0  0  0  0
  140.3310   69.3890  226.7080 C   0  0  0  0  0  0  0  0  0  0  0  0
  140.5230   74.1850  221.9700 C   0  0  0  0  0  0  0  0  0  0  0  0
  141.4200   77.6140  222.4000 N   0  0  0  0  0  0  0  0  0  0  0  0
  137.7335   81.5288  225.3699 H   0  0  0  0  0  0  0  0  0  0  0  0
  137.9914   82.5217  223.8953 H   0  0  0  0  0  0  0  0  0  0  0  0
  136.7561   81.2175  223.8953 H   0  0  0  0  0  0  0  0  0  0  0  0
  140.4147   81.8784  224.1954 H   0  0  0  0  0  0  0  0  0  0  0  0
  142.1114   80.2661  223.4044 H   0  0  0  0  0  0  0  0  0  0  0  0
  137.3401   79.0218  223.3012 H   0  0  0  0  0  0  0  0  0  0  0  0
  138.7690   76.3372  223.0796 H   0  0  0  0  0  0  0  0  0  0  0  0
  138.5767   76.9455  221.4571 H   0  0  0  0  0  0  0  0  0  0  0  0
  142.4971   76.2239  220.1841 H   0  0  0  0  0  0  0  0  0  0  0  0
  143.2427   74.0480  219.2342 H   0  0  0  0  0  0  0  0  0  0  0  0
  142.1894   71.9712  220.0955 H   0  0  0  0  0  0  0  0  0  0  0  0
  138.9570   72.7470  223.3400 H   0  0  0  0  0  0  0  0  0  0  0  0
  137.7404   70.7462  223.9632 H   0  0  0  0  0  0  0  0  0  0  0  0
  138.5515   69.9462  222.5241 H   0  0  0  0  0  0  0  0  0  0  0  0
  139.0735   68.8134  224.5197 H   0  0  0  0  0  0  0  0  0  0  0  0
  140.5265   69.7339  223.7903 H   0  0  0  0  0  0  0  0  0  0  0  0
  138.9496   70.7316  225.9847 H   0  0  0  0  0  0  0  0  0  0  0  0
  141.7182   71.2498  224.8669 H   0  0  0  0  0  0  0  0  0  0  0  0
  140.3726   72.3995  225.1536 H   0  0  0  0  0  0  0  0  0  0  0  0
  142.3400   71.1902  227.1192 H   0  0  0  0  0  0  0  0  0  0  0  0
  141.7181   72.8811  226.9939 H   0  0  0  0  0  0  0  0  0  0  0  0
  140.8137   71.8449  228.9819 H   0  0  0  0  0  0  0  0  0  0  0  0
  139.5008   72.0677  227.7537 H   0  0  0  0  0  0  0  0  0  0  0  0
  140.7409   69.5615  228.8209 H   0  0  0  0  0  0  0  0  0  0  0  0
  139.0390   69.9207  228.3500 H   0  0  0  0  0  0  0  0  0  0  0  0
  141.3968   69.1415  226.5948 H   0  0  0  0  0  0  0  0  0  0  0  0
  139.7396   68.4649  226.6282 H   0  0  0  0  0  0  0  0  0  0  0  0
  139.7470   74.2232  222.7487 H   0  0  0  0  0  0  0  0  0  0  0  0
  1  2  1  0
  2  3  2  0
  3  4  1  0
  4  5  2  0
  5  6  1  0
  6  7  2  0
  6  8  1  0
  8  9  1  0
  9 10  1  0
 10 11  2  0
 11 12  1  0
 12 13  2  0
 13 14  1  0
 14 15  1  0
 15 16  2  0
 15 17  1  0
 17 18  1  0
 18 19  1  0
 19 20  1  0
 20 21  1  0
 21 22  1  0
 22 23  1  0
 23 24  1  0
 24 25  1  0
 14 26  2  0
  9 27  2  0
  7  2  1  0
 26 10  1  0
 27  5  1  0
 25 20  1  0
  1 28  1  0
  1 29  1  0
  1 30  1  0
  3 31  1  0
  4 32  1  0
  7 33  1  0
  8 34  1  0
  8 35  1  0
 11 36  1  0
 12 37  1  0
 13 38  1  0
 17 39  1  0
 18 40  1  0
 18 41  1  0
 19 42  1  0
 19 43  1  0
 20 44  1  0
 21 45  1  0
 21 46  1  0
 22 47  1  0
 22 48  1  0
 23 49  1  0
 23 50  1  0
 24 51  1  0
 24 52  1  0
 25 53  1  0
 25 54  1  0
 26 55  1  0
M  END
>  <smiles>  (21) 
Cc1ccc2c(c1)CC(c1cccc(C(=O)NCCC3CCCCC3)c1)=N2

>  <score_type>  (21) 
oracle

>  <origin>  (21) 
autodockgpu

>  <m_score__min__energy>  (21) 
-8.6999999999999993

>  <m_primary>  (21) 
energy

>  <rmsd>  (21) 
9.239444624421337

>  <m_score__min__rmsd>  (21) 
9.239444624421337

>  <meeko>  (21) 
{"free_energy": -8.56, "intermolecular_energy": -10.05, "internal_energy": -1.0, "cluster_size": 11, "cluster_id": 2, "rank_in_cluster": 7}

>  <energy>  (21) 
-8.28

>  <cluster_rmsd>  (21) 
1.87

>  <cluster>  (21) 
2

$$$$

     RDKit          3D

 55 58  0  0  0  0  0  0  0  0999 V2000
  137.7240   81.5690  224.1300 C   0  0  0  0  0  0  0  0  0  0  0  0
  138.7570   80.6200  223.6420 C   0  0  0  0  0  0  0  0  0  0  0  0
  140.0740   81.0190  223.5620 C   0  0  0  0  0  0  0  0  0  0  0  0
  141.0310   80.1270  223.1050 C   0  0  0  0  0  0  0  0  0  0  0  0
  140.7130   78.8400  222.7230 C   0  0  0  0  0  0  0  0  0  0  0  0
  139.3840   78.4420  222.8070 C   0  0  0  0  0  0  0  0  0  0  0  0
  138.4220   79.3320  223.2630 C   0  0  0  0  0  0  0  0  0  0  0  0
  139.2810   77.0330  222.3500 C   0  0  0  0  0  0  0  0  0  0  0  0
  140.6940   76.7170  222.0130 C   0  0  0  0  0  0  0  0  0  0  0  0
  141.1470   75.4250  221.5040 C   0  0  0  0  0  0  0  0  0  0  0  0
  142.1850   75.3270  220.6010 C   0  0  0  0  0  0  0  0  0  0  0  0
  142.6320   74.1150  220.1040 C   0  0  0  0  0  0  0  0  0  0  0  0
  141.9860   72.9790  220.5540 C   0  0  0  0  0  0  0  0  0  0  0  0
  140.9460   73.0130  221.4530 C   0  0  0  0  0  0  0  0  0  0  0  0
  140.2490   71.8360  221.9420 C   0  0  0  0  0  0  0  0  0  0  0  0
  140.1790   70.7830  221.2560 O   0  0  0  0  0  0  0  0  0  0  0  0
  139.5990   71.7890  223.2200 N   0  0  0  0  0  0  0  0  0  0  0  0
  138.9490   70.5520  223.5660 C   0  0  0  0  0  0  0  0  0  0  0  0
  139.6940   69.7130  224.5330 C   0  0  0  0  0  0  0  0  0  0  0  0
  139.9740   70.2590  225.8720 C   0  0  0  0  0  0  0  0  0  0  0  0
  140.8630   71.4910  225.8450 C   0  0  0  0  0  0  0  0  0  0  0  0
  141.3640   71.7780  227.2680 C   0  0  0  0  0  0  0  0  0  0  0  0
  140.3310   71.3750  228.2910 C   0  0  0  0  0  0  0  0  0  0  0  0
  140.1070   69.8760  228.2940 C   0  0  0  0  0  0  0  0  0  0  0  0
  140.4220   69.2910  226.9160 C   0  0  0  0  0  0  0  0  0  0  0  0
  140.5490   74.2500  221.9080 C   0  0  0  0  0  0  0  0  0  0  0  0
  141.4450   77.7260  222.2300 N   0  0  0  0  0  0  0  0  0  0  0  0
  137.7199   81.5727  225.2300 H   0  0  0  0  0  0  0  0  0  0  0  0
  137.9511   82.5800  223.7607 H   0  0  0  0  0  0  0  0  0  0  0  0
  136.7359   81.2571  223.7607 H   0  0  0  0  0  0  0  0  0  0  0  0
  140.3632   82.0380  223.8587 H   0  0  0  0  0  0  0  0  0  0  0  0
  142.0789   80.4560  223.0448 H   0  0  0  0  0  0  0  0  0  0  0  0
  137.3728   79.0074  223.3244 H   0  0  0  0  0  0  0  0  0  0  0  0
  138.9046   76.3791  223.1504 H   0  0  0  0  0  0  0  0  0  0  0  0
  138.5809   76.8864  221.5144 H   0  0  0  0  0  0  0  0  0  0  0  0
  142.6779   76.2501  220.2619 H   0  0  0  0  0  0  0  0  0  0  0  0
  143.4623   74.0585  219.3847 H   0  0  0  0  0  0  0  0  0  0  0  0
  142.3195   72.0016  220.1751 H   0  0  0  0  0  0  0  0  0  0  0  0
  139.6560   72.6360  223.7950 H   0  0  0  0  0  0  0  0  0  0  0  0
  137.9682   70.7905  224.0031 H   0  0  0  0  0  0  0  0  0  0  0  0
  138.8770   69.9674  222.6370 H   0  0  0  0  0  0  0  0  0  0  0  0
  139.1141   68.7890  224.6745 H   0  0  0  0  0  0  0  0  0  0  0  0
  140.6885   69.5980  224.0773 H   0  0  0  0  0  0  0  0  0  0  0  0
  138.9686   70.5605  226.2009 H   0  0  0  0  0  0  0  0  0  0  0  0
  141.7215   71.3117  225.1810 H   0  0  0  0  0  0  0  0  0  0  0  0
  140.2914   72.3534  225.4715 H   0  0  0  0  0  0  0  0  0  0  0  0
  142.2889   71.2098  227.4462 H   0  0  0  0  0  0  0  0  0  0  0  0
  141.5532   72.8573  227.3642 H   0  0  0  0  0  0  0  0  0  0  0  0
  140.6749   71.6869  229.2882 H   0  0  0  0  0  0  0  0  0  0  0  0
  139.3806   71.8653  228.0332 H   0  0  0  0  0  0  0  0  0  0  0  0
  140.7641   69.4121  229.0443 H   0  0  0  0  0  0  0  0  0  0  0  0
  139.0542   69.6713  228.5382 H   0  0  0  0  0  0  0  0  0  0  0  0
  141.5051   69.1223  226.8242 H   0  0  0  0  0  0  0  0  0  0  0  0
  139.8990   68.3319  226.7873 H   0  0  0  0  0  0  0  0  0  0  0  0
  139.7174   74.3036  222.6261 H   0  0  0  0  0  0  0  0  0  0  0  0
  1  2  1  0
  2  3  2  0
  3  4  1  0
  4  5  2  0
  5  6  1  0
  6  7  2  0
  6  8  1  0
  8  9  1  0
  9 10  1  0
 10 11  2  0
 11 12  1  0
 12 13  2  0
 13 14  1  0
 14 15  1  0
 15 16  2  0
 15 17  1  0
 17 18  1  0
 18 19  1  0
 19 20  1  0
 20 21  1  0
 21 22  1  0
 22 23  1  0
 23 24  1  0
 24 25  1  0
 14 26  2  0
  9 27  2  0
  7  2  1  0
 26 10  1  0
 27  5  1  0
 25 20  1  0
  1 28  1  0
  1 29  1  0
  1 30  1  0
  3 31  1  0
  4 32  1  0
  7 33  1  0
  8 34  1  0
  8 35  1  0
 11 36  1  0
 12 37  1  0
 13 38  1  0
 17 39  1  0
 18 40  1  0
 18 41  1  0
 19 42  1  0
 19 43  1  0
 20 44  1  0
 21 45  1  0
 21 46  1  0
 22 47  1  0
 22 48  1  0
 23 49  1  0
 23 50  1  0
 24 51  1  0
 24 52  1  0
 25 53  1  0
 25 54  1  0
 26 55  1  0
M  END
>  <smiles>  (22) 
Cc1ccc2c(c1)CC(c1cccc(C(=O)NCCC3CCCCC3)c1)=N2

>  <score_type>  (22) 
oracle

>  <origin>  (22) 
autodockgpu

>  <m_score__min__energy>  (22) 
-8.6999999999999993

>  <m_primary>  (22) 
energy

>  <rmsd>  (22) 
9.321373517916411

>  <m_score__min__rmsd>  (22) 
9.321373517916411

>  <meeko>  (22) 
{"free_energy": -8.47, "intermolecular_energy": -9.96, "internal_energy": -0.87, "cluster_size": 11, "cluster_id": 2, "rank_in_cluster": 9}

>  <energy>  (22) 
-8.14

>  <cluster_rmsd>  (22) 
1.86

>  <cluster>  (22) 
2

$$$$

     RDKit          3D

 55 58  0  0  0  0  0  0  0  0999 V2000
  140.7320   68.1350  229.0490 C   0  0  0  0  0  0  0  0  0  0  0  0
  140.7310   69.1990  228.0140 C   0  0  0  0  0  0  0  0  0  0  0  0
  141.1330   70.4760  228.3390 C   0  0  0  0  0  0  0  0  0  0  0  0
  141.1290   71.4620  227.3670 C   0  0  0  0  0  0  0  0  0  0  0  0
  140.7330   71.2130  226.0680 C   0  0  0  0  0  0  0  0  0  0  0  0
  140.3290   69.9230  225.7440 C   0  0  0  0  0  0  0  0  0  0  0  0
  140.3310   68.9320  226.7160 C   0  0  0  0  0  0  0  0  0  0  0  0
  139.9530   69.8910  224.3080 C   0  0  0  0  0  0  0  0  0  0  0  0
  140.1970   71.2980  223.8960 C   0  0  0  0  0  0  0  0  0  0  0  0
  139.9770   71.8080  222.5450 C   0  0  0  0  0  0  0  0  0  0  0  0
  139.6610   70.9690  221.4980 C   0  0  0  0  0  0  0  0  0  0  0  0
  139.4480   71.4290  220.2090 C   0  0  0  0  0  0  0  0  0  0  0  0
  139.5670   72.7910  220.0050 C   0  0  0  0  0  0  0  0  0  0  0  0
  139.8800   73.6760  221.0090 C   0  0  0  0  0  0  0  0  0  0  0  0
  140.0120   75.1120  220.8220 C   0  0  0  0  0  0  0  0  0  0  0  0
  139.2060   75.7550  220.1010 O   0  0  0  0  0  0  0  0  0  0  0  0
  141.0520   75.8860  221.4350 N   0  0  0  0  0  0  0  0  0  0  0  0
  141.0530   77.2980  221.1560 C   0  0  0  0  0  0  0  0  0  0  0  0
  140.4180   78.1330  222.2000 C   0  0  0  0  0  0  0  0  0  0  0  0
  141.2070   79.2120  222.8190 C   0  0  0  0  0  0  0  0  0  0  0  0
  140.3770   80.4300  223.1850 C   0  0  0  0  0  0  0  0  0  0  0  0
  141.3180   81.6020  223.5000 C   0  0  0  0  0  0  0  0  0  0  0  0
  142.6000   81.1060  224.1210 C   0  0  0  0  0  0  0  0  0  0  0  0
  143.4010   80.2660  223.1460 C   0  0  0  0  0  0  0  0  0  0  0  0
  142.4700   79.6060  222.1270 C   0  0  0  0  0  0  0  0  0  0  0  0
  140.0790   73.1550  222.2670 C   0  0  0  0  0  0  0  0  0  0  0  0
  140.6230   71.9890  224.8820 N   0  0  0  0  0  0  0  0  0  0  0  0
  140.7316   68.5953  230.0481 H   0  0  0  0  0  0  0  0  0  0  0  0
  139.8344   67.5098  228.9330 H   0  0  0  0  0  0  0  0  0  0  0  0
  141.6307   67.5114  228.9330 H   0  0  0  0  0  0  0  0  0  0  0  0
  141.4551   70.7108  229.3642 H   0  0  0  0  0  0  0  0  0  0  0  0
  141.4521   72.4777  227.6388 H   0  0  0  0  0  0  0  0  0  0  0  0
  140.0084   67.9147  226.4496 H   0  0  0  0  0  0  0  0  0  0  0  0
  140.5885   69.1928  223.7435 H   0  0  0  0  0  0  0  0  0  0  0  0
  138.9245   69.5463  224.1253 H   0  0  0  0  0  0  0  0  0  0  0  0
  139.5744   69.8901  221.6942 H   0  0  0  0  0  0  0  0  0  0  0  0
  139.1961   70.7431  219.3867 H   0  0  0  0  0  0  0  0  0  0  0  0
  139.4035   73.1852  218.9912 H   0  0  0  0  0  0  0  0  0  0  0  0
  141.7100   75.3760  222.0340 H   0  0  0  0  0  0  0  0  0  0  0  0
  142.0973   77.6247  221.0436 H   0  0  0  0  0  0  0  0  0  0  0  0
  140.4569   77.4354  220.2418 H   0  0  0  0  0  0  0  0  0  0  0  0
  139.5311   78.5996  221.7465 H   0  0  0  0  0  0  0  0  0  0  0  0
  140.2304   77.4313  223.0261 H   0  0  0  0  0  0  0  0  0  0  0  0
  141.5482   78.7304  223.7473 H   0  0  0  0  0  0  0  0  0  0  0  0
  139.7241   80.6981  222.3413 H   0  0  0  0  0  0  0  0  0  0  0  0
  139.7567   80.2054  224.0652 H   0  0  0  0  0  0  0  0  0  0  0  0
  141.5520   82.1374  222.5680 H   0  0  0  0  0  0  0  0  0  0  0  0
  140.8179   82.2748  224.2122 H   0  0  0  0  0  0  0  0  0  0  0  0
  143.2058   81.9709  224.4293 H   0  0  0  0  0  0  0  0  0  0  0  0
  142.3436   80.4786  224.9874 H   0  0  0  0  0  0  0  0  0  0  0  0
  144.1200   80.9094  222.6177 H   0  0  0  0  0  0  0  0  0  0  0  0
  143.9360   79.4827  223.7029 H   0  0  0  0  0  0  0  0  0  0  0  0
  142.2431   80.3162  221.3182 H   0  0  0  0  0  0  0  0  0  0  0  0
  142.9547   78.7175  221.6962 H   0  0  0  0  0  0  0  0  0  0  0  0
  140.3306   73.8434  223.0873 H   0  0  0  0  0  0  0  0  0  0  0  0
  1  2  1  0
  2  3  2  0
  3  4  1  0
  4  5  2  0
  5  6  1  0
  6  7  2  0
  6  8  1  0
  8  9  1  0
  9 10  1  0
 10 11  2  0
 11 12  1  0
 12 13  2  0
 13 14  1  0
 14 15  1  0
 15 16  2  0
 15 17  1  0
 17 18  1  0
 18 19  1  0
 19 20  1  0
 20 21  1  0
 21 22  1  0
 22 23  1  0
 23 24  1  0
 24 25  1  0
 14 26  2  0
  9 27  2  0
  7  2  1  0
 26 10  1  0
 27  5  1  0
 25 20  1  0
  1 28  1  0
  1 29  1  0
  1 30  1  0
  3 31  1  0
  4 32  1  0
  7 33  1  0
  8 34  1  0
  8 35  1  0
 11 36  1  0
 12 37  1  0
 13 38  1  0
 17 39  1  0
 18 40  1  0
 18 41  1  0
 19 42  1  0
 19 43  1  0
 20 44  1  0
 21 45  1  0
 21 46  1  0
 22 47  1  0
 22 48  1  0
 23 49  1  0
 23 50  1  0
 24 51  1  0
 24 52  1  0
 25 53  1  0
 25 54  1  0
 26 55  1  0
M  END
>  <smiles>  (23) 
Cc1ccc2c(c1)CC(c1cccc(C(=O)NCCC3CCCCC3)c1)=N2

>  <score_type>  (23) 
oracle

>  <origin>  (23) 
autodockgpu

>  <m_score__min__energy>  (23) 
-8.6999999999999993

>  <m_primary>  (23) 
energy

>  <rmsd>  (23) 
4.446930729826141

>  <m_score__min__rmsd>  (23) 
4.446930729826141

>  <meeko>  (23) 
{"free_energy": -8.38, "intermolecular_energy": -9.87, "internal_energy": -0.74, "cluster_size": 23, "cluster_id": 3, "rank_in_cluster": 5}

>  <energy>  (23) 
-8.59

>  <cluster_rmsd>  (23) 
0.0

>  <cluster>  (23) 
3

$$$$

     RDKit          3D

 55 58  0  0  0  0  0  0  0  0999 V2000
  141.0790   68.0250  229.0350 C   0  0  0  0  0  0  0  0  0  0  0  0
  140.9420   69.0940  228.0140 C   0  0  0  0  0  0  0  0  0  0  0  0
  141.2450   70.3990  228.3380 C   0  0  0  0  0  0  0  0  0  0  0  0
  141.1140   71.3890  227.3790 C   0  0  0  0  0  0  0  0  0  0  0  0
  140.6880   71.1180  226.0940 C   0  0  0  0  0  0  0  0  0  0  0  0
  140.3840   69.8000  225.7710 C   0  0  0  0  0  0  0  0  0  0  0  0
  140.5130   68.8040  226.7300 C   0  0  0  0  0  0  0  0  0  0  0  0
  139.9520   69.7470  224.3520 C   0  0  0  0  0  0  0  0  0  0  0  0
  140.0560   71.1740  223.9470 C   0  0  0  0  0  0  0  0  0  0  0  0
  139.7360   71.6740  222.6130 C   0  0  0  0  0  0  0  0  0  0  0  0
  139.5370   70.8200  221.5480 C   0  0  0  0  0  0  0  0  0  0  0  0
  139.2330   71.2710  220.2750 C   0  0  0  0  0  0  0  0  0  0  0  0
  139.1340   72.6390  220.1040 C   0  0  0  0  0  0  0  0  0  0  0  0
  139.3220   73.5390  221.1260 C   0  0  0  0  0  0  0  0  0  0  0  0
  139.2240   74.9810  220.9740 C   0  0  0  0  0  0  0  0  0  0  0  0
  139.2420   75.5230  219.8390 O   0  0  0  0  0  0  0  0  0  0  0  0
  139.1040   75.8770  222.0890 N   0  0  0  0  0  0  0  0  0  0  0  0
  139.0180   77.2800  221.7800 C   0  0  0  0  0  0  0  0  0  0  0  0
  139.0650   78.1750  222.9580 C   0  0  0  0  0  0  0  0  0  0  0  0
  140.1370   79.1830  223.0370 C   0  0  0  0  0  0  0  0  0  0  0  0
  140.0550   80.2330  221.9430 C   0  0  0  0  0  0  0  0  0  0  0  0
  141.3740   81.0200  221.9040 C   0  0  0  0  0  0  0  0  0  0  0  0
  141.9700   81.1320  223.2850 C   0  0  0  0  0  0  0  0  0  0  0  0
  142.3860   79.7770  223.8230 C   0  0  0  0  0  0  0  0  0  0  0  0
  141.5310   78.6740  223.1960 C   0  0  0  0  0  0  0  0  0  0  0  0
  139.6210   73.0260  222.3680 C   0  0  0  0  0  0  0  0  0  0  0  0
  140.4600   71.8910  224.9240 N   0  0  0  0  0  0  0  0  0  0  0  0
  141.0222   68.4684  230.0401 H   0  0  0  0  0  0  0  0  0  0  0  0
  140.2673   67.2931  228.9107 H   0  0  0  0  0  0  0  0  0  0  0  0
  142.0490   67.5214  228.9107 H   0  0  0  0  0  0  0  0  0  0  0  0
  141.5886   70.6523  229.3518 H   0  0  0  0  0  0  0  0  0  0  0  0
  141.3576   72.4268  227.6501 H   0  0  0  0  0  0  0  0  0  0  0  0
  140.2697   67.7647  226.4644 H   0  0  0  0  0  0  0  0  0  0  0  0
  140.6210   69.1113  223.7534 H   0  0  0  0  0  0  0  0  0  0  0  0
  138.9504   69.3156  224.2078 H   0  0  0  0  0  0  0  0  0  0  0  0
  139.6234   69.7365  221.7172 H   0  0  0  0  0  0  0  0  0  0  0  0
  139.0775   70.5734  219.4388 H   0  0  0  0  0  0  0  0  0  0  0  0
  138.8934   73.0259  219.1028 H   0  0  0  0  0  0  0  0  0  0  0  0
  139.0780   75.4480  223.0200 H   0  0  0  0  0  0  0  0  0  0  0  0
  139.8590   77.5379  221.1195 H   0  0  0  0  0  0  0  0  0  0  0  0
  138.0360   77.4357  221.3095 H   0  0  0  0  0  0  0  0  0  0  0  0
  138.1080   78.7164  222.9920 H   0  0  0  0  0  0  0  0  0  0  0  0
  139.2713   77.4982  223.8003 H   0  0  0  0  0  0  0  0  0  0  0  0
  139.9167   79.6648  224.0010 H   0  0  0  0  0  0  0  0  0  0  0  0
  139.8898   79.7422  220.9725 H   0  0  0  0  0  0  0  0  0  0  0  0
  139.2195   80.9185  222.1481 H   0  0  0  0  0  0  0  0  0  0  0  0
  142.0851   80.5002  221.2451 H   0  0  0  0  0  0  0  0  0  0  0  0
  141.1705   82.0320  221.5239 H   0  0  0  0  0  0  0  0  0  0  0  0
  142.8537   81.7856  223.2408 H   0  0  0  0  0  0  0  0  0  0  0  0
  141.2064   81.5503  223.9572 H   0  0  0  0  0  0  0  0  0  0  0  0
  143.4440   79.5989  223.5801 H   0  0  0  0  0  0  0  0  0  0  0  0
  142.2437   79.7649  224.9137 H   0  0  0  0  0  0  0  0  0  0  0  0
  141.9406   78.4022  222.2119 H   0  0  0  0  0  0  0  0  0  0  0  0
  141.5341   77.7837  223.8421 H   0  0  0  0  0  0  0  0  0  0  0  0
  139.7751   73.7261  223.2024 H   0  0  0  0  0  0  0  0  0  0  0  0
  1  2  1  0
  2  3  2  0
  3  4  1  0
  4  5  2  0
  5  6  1  0
  6  7  2  0
  6  8  1  0
  8  9  1  0
  9 10  1  0
 10 11  2  0
 11 12  1  0
 12 13  2  0
 13 14  1  0
 14 15  1  0
 15 16  2  0
 15 17  1  0
 17 18  1  0
 18 19  1  0
 19 20  1  0
 20 21  1  0
 21 22  1  0
 22 23  1  0
 23 24  1  0
 24 25  1  0
 14 26  2  0
  9 27  2  0
  7  2  1  0
 26 10  1  0
 27  5  1  0
 25 20  1  0
  1 28  1  0
  1 29  1  0
  1 30  1  0
  3 31  1  0
  4 32  1  0
  7 33  1  0
  8 34  1  0
  8 35  1  0
 11 36  1  0
 12 37  1  0
 13 38  1  0
 17 39  1  0
 18 40  1  0
 18 41  1  0
 19 42  1  0
 19 43  1  0
 20 44  1  0
 21 45  1  0
 21 46  1  0
 22 47  1  0
 22 48  1  0
 23 49  1  0
 23 50  1  0
 24 51  1  0
 24 52  1  0
 25 53  1  0
 25 54  1  0
 26 55  1  0
M  END
>  <smiles>  (24) 
Cc1ccc2c(c1)CC(c1cccc(C(=O)NCCC3CCCCC3)c1)=N2

>  <score_type>  (24) 
oracle

>  <origin>  (24) 
autodockgpu

>  <m_score__min__energy>  (24) 
-8.6999999999999993

>  <m_primary>  (24) 
energy

>  <rmsd>  (24) 
4.49927105740583

>  <m_score__min__rmsd>  (24) 
4.49927105740583

>  <meeko>  (24) 
{"free_energy": -8.27, "intermolecular_energy": -9.76, "internal_energy": -0.77, "cluster_size": 23, "cluster_id": 3, "rank_in_cluster": 11}

>  <energy>  (24) 
-8.58

>  <cluster_rmsd>  (24) 
1.38

>  <cluster>  (24) 
3

$$$$

     RDKit          3D

 55 58  0  0  0  0  0  0  0  0999 V2000
  141.4330   68.1310  228.9380 C   0  0  0  0  0  0  0  0  0  0  0  0
  140.8260   68.4850  227.6310 C   0  0  0  0  0  0  0  0  0  0  0  0
  140.1410   67.5310  226.9100 C   0  0  0  0  0  0  0  0  0  0  0  0
  139.5780   67.8700  225.6910 C   0  0  0  0  0  0  0  0  0  0  0  0
  139.6770   69.1420  225.1630 C   0  0  0  0  0  0  0  0  0  0  0  0
  140.3670   70.1020  225.8950 C   0  0  0  0  0  0  0  0  0  0  0  0
  140.9340   69.7660  227.1170 C   0  0  0  0  0  0  0  0  0  0  0  0
  140.3440   71.3800  225.1410 C   0  0  0  0  0  0  0  0  0  0  0  0
  139.5680   71.0070  223.9290 C   0  0  0  0  0  0  0  0  0  0  0  0
  139.2530   71.9280  222.8400 C   0  0  0  0  0  0  0  0  0  0  0  0
  138.1350   71.7590  222.0510 C   0  0  0  0  0  0  0  0  0  0  0  0
  137.8160   72.6180  221.0120 C   0  0  0  0  0  0  0  0  0  0  0  0
  138.6770   73.6750  220.7890 C   0  0  0  0  0  0  0  0  0  0  0  0
  139.8070   73.8940  221.5420 C   0  0  0  0  0  0  0  0  0  0  0  0
  140.7300   74.9970  221.3290 C   0  0  0  0  0  0  0  0  0  0  0  0
  141.2050   75.6490  222.2950 O   0  0  0  0  0  0  0  0  0  0  0  0
  141.1580   75.4150  220.0250 N   0  0  0  0  0  0  0  0  0  0  0  0
  142.0750   76.5230  219.9750 C   0  0  0  0  0  0  0  0  0  0  0  0
  141.4480   77.8510  220.1650 C   0  0  0  0  0  0  0  0  0  0  0  0
  141.5400   78.4920  221.4880 C   0  0  0  0  0  0  0  0  0  0  0  0
  140.2460   78.4210  222.2800 C   0  0  0  0  0  0  0  0  0  0  0  0
  140.3330   79.3870  223.4710 C   0  0  0  0  0  0  0  0  0  0  0  0
  141.7510   79.4860  223.9760 C   0  0  0  0  0  0  0  0  0  0  0  0
  142.6650   80.1180  222.9450 C   0  0  0  0  0  0  0  0  0  0  0  0
  142.1280   79.8630  221.5350 C   0  0  0  0  0  0  0  0  0  0  0  0
  140.0680   73.0040  222.5590 C   0  0  0  0  0  0  0  0  0  0  0  0
  139.2210   69.7790  223.9770 N   0  0  0  0  0  0  0  0  0  0  0  0
  140.7939   68.5037  229.7520 H   0  0  0  0  0  0  0  0  0  0  0  0
  141.5250   67.0376  229.0154 H   0  0  0  0  0  0  0  0  0  0  0  0
  142.4300   68.5893  229.0154 H   0  0  0  0  0  0  0  0  0  0  0  0
  140.0421   66.5073  227.3001 H   0  0  0  0  0  0  0  0  0  0  0  0
  139.0337   67.1001  225.1244 H   0  0  0  0  0  0  0  0  0  0  0  0
  141.4794   70.5321  227.6876 H   0  0  0  0  0  0  0  0  0  0  0  0
  139.8379   72.1723  225.7120 H   0  0  0  0  0  0  0  0  0  0  0  0
  141.3430   71.7849  224.9220 H   0  0  0  0  0  0  0  0  0  0  0  0
  137.4692   70.9074  222.2548 H   0  0  0  0  0  0  0  0  0  0  0  0
  136.9192   72.4655  220.3936 H   0  0  0  0  0  0  0  0  0  0  0  0
  138.4482   74.3741  219.9711 H   0  0  0  0  0  0  0  0  0  0  0  0
  140.7870   74.8850  219.2300 H   0  0  0  0  0  0  0  0  0  0  0  0
  142.8267   76.3822  220.7656 H   0  0  0  0  0  0  0  0  0  0  0  0
  142.5077   76.5243  218.9637 H   0  0  0  0  0  0  0  0  0  0  0  0
  141.9127   78.5355  219.4401 H   0  0  0  0  0  0  0  0  0  0  0  0
  140.3726   77.6608  220.0337 H   0  0  0  0  0  0  0  0  0  0  0  0
  142.2913   77.8617  221.9863 H   0  0  0  0  0  0  0  0  0  0  0  0
  139.4026   78.7071  221.6343 H   0  0  0  0  0  0  0  0  0  0  0  0
  140.0904   77.3951  222.6451 H   0  0  0  0  0  0  0  0  0  0  0  0
  139.9927   80.3835  223.1530 H   0  0  0  0  0  0  0  0  0  0  0  0
  139.6949   79.0061  224.2821 H   0  0  0  0  0  0  0  0  0  0  0  0
  141.7633   80.0998  224.8887 H   0  0  0  0  0  0  0  0  0  0  0  0
  142.1154   78.4690  224.1831 H   0  0  0  0  0  0  0  0  0  0  0  0
  142.7183   81.2022  223.1228 H   0  0  0  0  0  0  0  0  0  0  0  0
  143.6671   79.6730  223.0332 H   0  0  0  0  0  0  0  0  0  0  0  0
  141.3539   80.6063  221.2936 H   0  0  0  0  0  0  0  0  0  0  0  0
  142.9441   79.9463  220.8022 H   0  0  0  0  0  0  0  0  0  0  0  0
  140.9664   73.1580  223.1747 H   0  0  0  0  0  0  0  0  0  0  0  0
  1  2  1  0
  2  3  2  0
  3  4  1  0
  4  5  2  0
  5  6  1  0
  6  7  2  0
  6  8  1  0
  8  9  1  0
  9 10  1  0
 10 11  2  0
 11 12  1  0
 12 13  2  0
 13 14  1  0
 14 15  1  0
 15 16  2  0
 15 17  1  0
 17 18  1  0
 18 19  1  0
 19 20  1  0
 20 21  1  0
 21 22  1  0
 22 23  1  0
 23 24  1  0
 24 25  1  0
 14 26  2  0
  9 27  2  0
  7  2  1  0
 26 10  1  0
 27  5  1  0
 25 20  1  0
  1 28  1  0
  1 29  1  0
  1 30  1  0
  3 31  1  0
  4 32  1  0
  7 33  1  0
  8 34  1  0
  8 35  1  0
 11 36  1  0
 12 37  1  0
 13 38  1  0
 17 39  1  0
 18 40  1  0
 18 41  1  0
 19 42  1  0
 19 43  1  0
 20 44  1  0
 21 45  1  0
 21 46  1  0
 22 47  1  0
 22 48  1  0
 23 49  1  0
 23 50  1  0
 24 51  1  0
 24 52  1  0
 25 53  1  0
 25 54  1  0
 26 55  1  0
M  END
>  <smiles>  (25) 
Cc1ccc2c(c1)CC(c1cccc(C(=O)NCCC3CCCCC3)c1)=N2

>  <score_type>  (25) 
oracle

>  <origin>  (25) 
autodockgpu

>  <m_score__min__energy>  (25) 
-8.6999999999999993

>  <m_primary>  (25) 
energy

>  <rmsd>  (25) 
4.770223858856696

>  <m_score__min__rmsd>  (25) 
4.770223858856696

>  <meeko>  (25) 
{"free_energy": -8.26, "intermolecular_energy": -9.75, "internal_energy": -0.97, "cluster_size": 23, "cluster_id": 3, "rank_in_cluster": 15}

>  <energy>  (25) 
-8.54

>  <cluster_rmsd>  (25) 
1.34

>  <cluster>  (25) 
3

$$$$

     RDKit          3D

 55 58  0  0  0  0  0  0  0  0999 V2000
  140.6990   68.1430  228.9680 C   0  0  0  0  0  0  0  0  0  0  0  0
  140.7400   69.2340  227.9620 C   0  0  0  0  0  0  0  0  0  0  0  0
  141.1620   70.4940  228.3300 C   0  0  0  0  0  0  0  0  0  0  0  0
  141.1960   71.5050  227.3840 C   0  0  0  0  0  0  0  0  0  0  0  0
  140.8200   71.2990  226.0720 C   0  0  0  0  0  0  0  0  0  0  0  0
  140.3960   70.0270  225.7060 C   0  0  0  0  0  0  0  0  0  0  0  0
  140.3590   69.0100  226.6500 C   0  0  0  0  0  0  0  0  0  0  0  0
  140.0460   70.0410  224.2630 C   0  0  0  0  0  0  0  0  0  0  0  0
  140.3270   71.4530  223.8940 C   0  0  0  0  0  0  0  0  0  0  0  0
  140.1430   72.0030  222.5540 C   0  0  0  0  0  0  0  0  0  0  0  0
  140.3250   71.2330  221.4240 C   0  0  0  0  0  0  0  0  0  0  0  0
  140.1570   71.7330  220.1430 C   0  0  0  0  0  0  0  0  0  0  0  0
  139.7920   73.0610  220.0340 C   0  0  0  0  0  0  0  0  0  0  0  0
  139.5970   73.8780  221.1230 C   0  0  0  0  0  0  0  0  0  0  0  0
  139.2140   75.2770  221.0380 C   0  0  0  0  0  0  0  0  0  0  0  0
  139.2250   75.8940  219.9410 O   0  0  0  0  0  0  0  0  0  0  0  0
  138.8030   76.0450  222.1780 N   0  0  0  0  0  0  0  0  0  0  0  0
  138.4540   77.4200  221.9350 C   0  0  0  0  0  0  0  0  0  0  0  0
  138.6190   78.3140  223.1040 C   0  0  0  0  0  0  0  0  0  0  0  0
  139.8880   79.0470  223.2580 C   0  0  0  0  0  0  0  0  0  0  0  0
  139.7270   80.5540  223.1570 C   0  0  0  0  0  0  0  0  0  0  0  0
  141.1120   81.1960  222.9930 C   0  0  0  0  0  0  0  0  0  0  0  0
  142.1610   80.4010  223.7300 C   0  0  0  0  0  0  0  0  0  0  0  0
  142.3400   79.0230  223.1250 C   0  0  0  0  0  0  0  0  0  0  0  0
  141.0460   78.5710  222.4450 C   0  0  0  0  0  0  0  0  0  0  0  0
  139.7800   73.3210  222.3680 C   0  0  0  0  0  0  0  0  0  0  0  0
  140.7480   72.1080  224.9060 N   0  0  0  0  0  0  0  0  0  0  0  0
  140.7153   68.5758  229.9791 H   0  0  0  0  0  0  0  0  0  0  0  0
  139.7782   67.5561  228.8351 H   0  0  0  0  0  0  0  0  0  0  0  0
  141.5732   67.4887  228.8351 H   0  0  0  0  0  0  0  0  0  0  0  0
  141.4693   70.6947  229.3670 H   0  0  0  0  0  0  0  0  0  0  0  0
  141.5342   72.5064  227.6887 H   0  0  0  0  0  0  0  0  0  0  0  0
  140.0206   68.0073  226.3500 H   0  0  0  0  0  0  0  0  0  0  0  0
  140.6772   69.3447  223.6913 H   0  0  0  0  0  0  0  0  0  0  0  0
  139.0142   69.7231  224.0524 H   0  0  0  0  0  0  0  0  0  0  0  0
  140.6154   70.1789  221.5450 H   0  0  0  0  0  0  0  0  0  0  0  0
  140.3072   71.1023  219.2544 H   0  0  0  0  0  0  0  0  0  0  0  0
  139.6507   73.4849  219.0288 H   0  0  0  0  0  0  0  0  0  0  0  0
  138.7780   75.5530  223.0770 H   0  0  0  0  0  0  0  0  0  0  0  0
  139.0916   77.7972  221.1219 H   0  0  0  0  0  0  0  0  0  0  0  0
  137.3831   77.4300  221.6837 H   0  0  0  0  0  0  0  0  0  0  0  0
  137.8155   79.0636  223.0549 H   0  0  0  0  0  0  0  0  0  0  0  0
  138.5962   77.6331  223.9676 H   0  0  0  0  0  0  0  0  0  0  0  0
  140.1646   78.7929  224.2919 H   0  0  0  0  0  0  0  0  0  0  0  0
  139.1012   80.8003  222.2866 H   0  0  0  0  0  0  0  0  0  0  0  0
  139.2456   80.9377  224.0686 H   0  0  0  0  0  0  0  0  0  0  0  0
  141.3697   81.2297  221.9241 H   0  0  0  0  0  0  0  0  0  0  0  0
  141.0813   82.2129  223.4114 H   0  0  0  0  0  0  0  0  0  0  0  0
  143.1185   80.9403  223.6806 H   0  0  0  0  0  0  0  0  0  0  0  0
  141.8331   80.2802  224.7730 H   0  0  0  0  0  0  0  0  0  0  0  0
  143.1492   79.0556  222.3806 H   0  0  0  0  0  0  0  0  0  0  0  0
  142.5926   78.3107  223.9243 H   0  0  0  0  0  0  0  0  0  0  0  0
  140.9897   78.9999  221.4336 H   0  0  0  0  0  0  0  0  0  0  0  0
  141.0254   77.4738  222.3690 H   0  0  0  0  0  0  0  0  0  0  0  0
  139.6302   73.9549  223.2544 H   0  0  0  0  0  0  0  0  0  0  0  0
  1  2  1  0
  2  3  2  0
  3  4  1  0
  4  5  2  0
  5  6  1  0
  6  7  2  0
  6  8  1  0
  8  9  1  0
  9 10  1  0
 10 11  2  0
 11 12  1  0
 12 13  2  0
 13 14  1  0
 14 15  1  0
 15 16  2  0
 15 17  1  0
 17 18  1  0
 18 19  1  0
 19 20  1  0
 20 21  1  0
 21 22  1  0
 22 23  1  0
 23 24  1  0
 24 25  1  0
 14 26  2  0
  9 27  2  0
  7  2  1  0
 26 10  1  0
 27  5  1  0
 25 20  1  0
  1 28  1  0
  1 29  1  0
  1 30  1  0
  3 31  1  0
  4 32  1  0
  7 33  1  0
  8 34  1  0
  8 35  1  0
 11 36  1  0
 12 37  1  0
 13 38  1  0
 17 39  1  0
 18 40  1  0
 18 41  1  0
 19 42  1  0
 19 43  1  0
 20 44  1  0
 21 45  1  0
 21 46  1  0
 22 47  1  0
 22 48  1  0
 23 49  1  0
 23 50  1  0
 24 51  1  0
 24 52  1  0
 25 53  1  0
 25 54  1  0
 26 55  1  0
M  END
>  <smiles>  (26) 
Cc1ccc2c(c1)CC(c1cccc(C(=O)NCCC3CCCCC3)c1)=N2

>  <score_type>  (26) 
oracle

>  <origin>  (26) 
autodockgpu

>  <m_score__min__energy>  (26) 
-8.6999999999999993

>  <m_primary>  (26) 
energy

>  <rmsd>  (26) 
4.559897205632581

>  <m_score__min__rmsd>  (26) 
4.559897205632581

>  <meeko>  (26) 
{"free_energy": -8.17, "intermolecular_energy": -9.66, "internal_energy": -0.87, "cluster_size": 23, "cluster_id": 3, "rank_in_cluster": 19}

>  <energy>  (26) 
-8.38

>  <cluster_rmsd>  (26) 
1.45

>  <cluster>  (26) 
3

$$$$

     RDKit          3D

 55 58  0  0  0  0  0  0  0  0999 V2000
  137.6880   81.4990  224.2050 C   0  0  0  0  0  0  0  0  0  0  0  0
  138.7240   80.5400  223.7470 C   0  0  0  0  0  0  0  0  0  0  0  0
  140.0550   80.8980  223.7760 C   0  0  0  0  0  0  0  0  0  0  0  0
  141.0140   79.9960  223.3460 C   0  0  0  0  0  0  0  0  0  0  0  0
  140.6860   78.7370  222.8850 C   0  0  0  0  0  0  0  0  0  0  0  0
  139.3430   78.3800  222.8590 C   0  0  0  0  0  0  0  0  0  0  0  0
  138.3780   79.2810  223.2880 C   0  0  0  0  0  0  0  0  0  0  0  0
  139.2310   76.9970  222.3320 C   0  0  0  0  0  0  0  0  0  0  0  0
  140.6540   76.6490  222.0790 C   0  0  0  0  0  0  0  0  0  0  0  0
  141.1030   75.3660  221.5440 C   0  0  0  0  0  0  0  0  0  0  0  0
  142.1040   75.2870  220.5990 C   0  0  0  0  0  0  0  0  0  0  0  0
  142.5460   74.0840  220.0760 C   0  0  0  0  0  0  0  0  0  0  0  0
  141.9360   72.9370  220.5470 C   0  0  0  0  0  0  0  0  0  0  0  0
  140.9340   72.9520  221.4890 C   0  0  0  0  0  0  0  0  0  0  0  0
  140.2750   71.7620  222.0010 C   0  0  0  0  0  0  0  0  0  0  0  0
  140.3500   70.6610  221.3980 O   0  0  0  0  0  0  0  0  0  0  0  0
  139.5020   71.7580  223.2100 N   0  0  0  0  0  0  0  0  0  0  0  0
  138.9090   70.5020  223.5890 C   0  0  0  0  0  0  0  0  0  0  0  0
  139.6890   69.7260  224.5800 C   0  0  0  0  0  0  0  0  0  0  0  0
  139.9690   70.3350  225.8910 C   0  0  0  0  0  0  0  0  0  0  0  0
  140.9290   71.5100  225.8150 C   0  0  0  0  0  0  0  0  0  0  0  0
  141.4130   71.8550  227.2310 C   0  0  0  0  0  0  0  0  0  0  0  0
  140.3350   71.5740  228.2480 C   0  0  0  0  0  0  0  0  0  0  0  0
  140.0240   70.0930  228.3350 C   0  0  0  0  0  0  0  0  0  0  0  0
  140.3360   69.4090  227.0020 C   0  0  0  0  0  0  0  0  0  0  0  0
  140.5400   74.1810  221.9680 C   0  0  0  0  0  0  0  0  0  0  0  0
  141.4180   77.6230  222.3930 N   0  0  0  0  0  0  0  0  0  0  0  0
  137.6669   81.5185  225.3046 H   0  0  0  0  0  0  0  0  0  0  0  0
  137.9247   82.5037  223.8249 H   0  0  0  0  0  0  0  0  0  0  0  0
  136.7045   81.1855  223.8249 H   0  0  0  0  0  0  0  0  0  0  0  0
  140.3532   81.8930  224.1381 H   0  0  0  0  0  0  0  0  0  0  0  0
  142.0728   80.2930  223.3728 H   0  0  0  0  0  0  0  0  0  0  0  0
  137.3179   78.9887  223.2626 H   0  0  0  0  0  0  0  0  0  0  0  0
  138.7797   76.3216  223.0737 H   0  0  0  0  0  0  0  0  0  0  0  0
  138.5877   76.9105  221.4440 H   0  0  0  0  0  0  0  0  0  0  0  0
  142.5706   76.2185  220.2461 H   0  0  0  0  0  0  0  0  0  0  0  0
  143.3451   74.0430  219.3211 H   0  0  0  0  0  0  0  0  0  0  0  0
  142.2674   71.9662  220.1498 H   0  0  0  0  0  0  0  0  0  0  0  0
  139.4400   72.6470  223.7180 H   0  0  0  0  0  0  0  0  0  0  0  0
  137.9168   70.7065  224.0175 H   0  0  0  0  0  0  0  0  0  0  0  0
  138.8670   69.8892  222.6765 H   0  0  0  0  0  0  0  0  0  0  0  0
  139.1377   68.7927  224.7673 H   0  0  0  0  0  0  0  0  0  0  0  0
  140.6810   69.6203  224.1165 H   0  0  0  0  0  0  0  0  0  0  0  0
  138.9751   70.7119  226.1740 H   0  0  0  0  0  0  0  0  0  0  0  0
  141.7908   71.2417  225.1862 H   0  0  0  0  0  0  0  0  0  0  0  0
  140.4173   72.3791  225.3759 H   0  0  0  0  0  0  0  0  0  0  0  0
  142.2991   71.2476  227.4674 H   0  0  0  0  0  0  0  0  0  0  0  0
  141.6623   72.9258  227.2677 H   0  0  0  0  0  0  0  0  0  0  0  0
  140.6732   71.9265  229.2336 H   0  0  0  0  0  0  0  0  0  0  0  0
  139.4210   72.1002  227.9356 H   0  0  0  0  0  0  0  0  0  0  0  0
  140.6359   69.6391  229.1284 H   0  0  0  0  0  0  0  0  0  0  0  0
  138.9560   69.9631  228.5641 H   0  0  0  0  0  0  0  0  0  0  0  0
  141.4094   69.1743  226.9488 H   0  0  0  0  0  0  0  0  0  0  0  0
  139.7610   68.4751  226.9166 H   0  0  0  0  0  0  0  0  0  0  0  0
  139.7405   74.2193  222.7225 H   0  0  0  0  0  0  0  0  0  0  0  0
  1  2  1  0
  2  3  2  0
  3  4  1  0
  4  5  2  0
  5  6  1  0
  6  7  2  0
  6  8  1  0
  8  9  1  0
  9 10  1  0
 10 11  2  0
 11 12  1  0
 12 13  2  0
 13 14  1  0
 14 15  1  0
 15 16  2  0
 15 17  1  0
 17 18  1  0
 18 19  1  0
 19 20  1  0
 20 21  1  0
 21 22  1  0
 22 23  1  0
 23 24  1  0
 24 25  1  0
 14 26  2  0
  9 27  2  0
  7  2  1  0
 26 10  1  0
 27  5  1  0
 25 20  1  0
  1 28  1  0
  1 29  1  0
  1 30  1  0
  3 31  1  0
  4 32  1  0
  7 33  1  0
  8 34  1  0
  8 35  1  0
 11 36  1  0
 12 37  1  0
 13 38  1  0
 17 39  1  0
 18 40  1  0
 18 41  1  0
 19 42  1  0
 19 43  1  0
 20 44  1  0
 21 45  1  0
 21 46  1  0
 22 47  1  0
 22 48  1  0
 23 49  1  0
 23 50  1  0
 24 51  1  0
 24 52  1  0
 25 53  1  0
 25 54  1  0
 26 55  1  0
M  END
>  <smiles>  (27) 
Cc1ccc2c(c1)CC(c1cccc(C(=O)NCCC3CCCCC3)c1)=N2

>  <score_type>  (27) 
oracle

>  <origin>  (27) 
autodockgpu

>  <m_score__min__energy>  (27) 
-8.6999999999999993

>  <m_primary>  (27) 
energy

>  <rmsd>  (27) 
9.293581146139175

>  <m_score__min__rmsd>  (27) 
9.293581146139175

>  <meeko>  (27) 
{"free_energy": -8.59, "intermolecular_energy": -10.08, "internal_energy": -0.92, "cluster_size": 11, "cluster_id": 2, "rank_in_cluster": 3}

>  <energy>  (27) 
-8.38

>  <cluster_rmsd>  (27) 
0.42

>  <cluster>  (27) 
3

$$$$

     RDKit          3D

 55 58  0  0  0  0  0  0  0  0999 V2000
  141.3190   82.3200  221.9470 C   0  0  0  0  0  0  0  0  0  0  0  0
  141.2160   80.8560  222.1760 C   0  0  0  0  0  0  0  0  0  0  0  0
  140.7660   80.3790  223.3870 C   0  0  0  0  0  0  0  0  0  0  0  0
  140.6730   79.0120  223.5910 C   0  0  0  0  0  0  0  0  0  0  0  0
  141.0190   78.0980  222.6160 C   0  0  0  0  0  0  0  0  0  0  0  0
  141.4710   78.5840  221.3950 C   0  0  0  0  0  0  0  0  0  0  0  0
  141.5660   79.9530  221.1870 C   0  0  0  0  0  0  0  0  0  0  0  0
  141.7800   77.4320  220.5110 C   0  0  0  0  0  0  0  0  0  0  0  0
  141.4450   76.2770  221.3850 C   0  0  0  0  0  0  0  0  0  0  0  0
  141.5740   74.8790  220.9830 C   0  0  0  0  0  0  0  0  0  0  0  0
  142.4680   74.4850  220.0100 C   0  0  0  0  0  0  0  0  0  0  0  0
  142.6080   73.1660  219.6120 C   0  0  0  0  0  0  0  0  0  0  0  0
  141.8020   72.2360  220.2400 C   0  0  0  0  0  0  0  0  0  0  0  0
  140.8930   72.5680  221.2170 C   0  0  0  0  0  0  0  0  0  0  0  0
  140.0330   71.6110  221.8930 C   0  0  0  0  0  0  0  0  0  0  0  0
  139.8030   70.4760  221.4010 O   0  0  0  0  0  0  0  0  0  0  0  0
  139.3940   71.8870  223.1470 N   0  0  0  0  0  0  0  0  0  0  0  0
  138.5710   70.8390  223.6930 C   0  0  0  0  0  0  0  0  0  0  0  0
  139.2760   69.9170  224.6130 C   0  0  0  0  0  0  0  0  0  0  0  0
  139.7340   70.4330  225.9150 C   0  0  0  0  0  0  0  0  0  0  0  0
  140.7630   71.5430  225.7920 C   0  0  0  0  0  0  0  0  0  0  0  0
  141.4170   71.7750  227.1620 C   0  0  0  0  0  0  0  0  0  0  0  0
  140.4330   71.5110  228.2750 C   0  0  0  0  0  0  0  0  0  0  0  0
  140.0270   70.0520  228.3230 C   0  0  0  0  0  0  0  0  0  0  0  0
  140.1470   69.4230  226.9330 C   0  0  0  0  0  0  0  0  0  0  0  0
  140.8020   73.8960  221.5660 C   0  0  0  0  0  0  0  0  0  0  0  0
  141.0330   76.6800  222.5250 N   0  0  0  0  0  0  0  0  0  0  0  0
  141.3556   82.8409  222.9152 H   0  0  0  0  0  0  0  0  0  0  0  0
  142.2347   82.5386  221.3781 H   0  0  0  0  0  0  0  0  0  0  0  0
  140.4429   82.6647  221.3781 H   0  0  0  0  0  0  0  0  0  0  0  0
  140.4823   81.0788  224.1869 H   0  0  0  0  0  0  0  0  0  0  0  0
  140.3115   78.6426  224.5620 H   0  0  0  0  0  0  0  0  0  0  0  0
  141.9264   80.3276  220.2175 H   0  0  0  0  0  0  0  0  0  0  0  0
  141.1552   77.4433  219.6058 H   0  0  0  0  0  0  0  0  0  0  0  0
  142.8150   77.4224  220.1386 H   0  0  0  0  0  0  0  0  0  0  0  0
  143.0960   75.2500  219.5300 H   0  0  0  0  0  0  0  0  0  0  0  0
  143.3269   72.8726  218.8328 H   0  0  0  0  0  0  0  0  0  0  0  0
  141.8917   71.1802  219.9446 H   0  0  0  0  0  0  0  0  0  0  0  0
  139.5810   72.8040  223.5650 H   0  0  0  0  0  0  0  0  0  0  0  0
  137.7417   71.3062  224.2444 H   0  0  0  0  0  0  0  0  0  0  0  0
  138.2342   70.2311  222.8403 H   0  0  0  0  0  0  0  0  0  0  0  0
  138.5935   69.0791  224.8183 H   0  0  0  0  0  0  0  0  0  0  0  0
  140.2061   69.6672  224.0815 H   0  0  0  0  0  0  0  0  0  0  0  0
  138.8057   70.8600  226.3224 H   0  0  0  0  0  0  0  0  0  0  0  0
  141.5321   71.2531  225.0609 H   0  0  0  0  0  0  0  0  0  0  0  0
  140.2725   72.4677  225.4538 H   0  0  0  0  0  0  0  0  0  0  0  0
  142.2762   71.0968  227.2714 H   0  0  0  0  0  0  0  0  0  0  0  0
  141.7471   72.8225  227.2232 H   0  0  0  0  0  0  0  0  0  0  0  0
  140.8965   71.7847  229.2343 H   0  0  0  0  0  0  0  0  0  0  0  0
  139.5319   72.1140  228.0892 H   0  0  0  0  0  0  0  0  0  0  0  0
  140.6843   69.5149  229.0226 H   0  0  0  0  0  0  0  0  0  0  0  0
  138.9821   69.9815  228.6594 H   0  0  0  0  0  0  0  0  0  0  0  0
  141.1888   69.1197  226.7524 H   0  0  0  0  0  0  0  0  0  0  0  0
  139.5003   68.5358  226.8654 H   0  0  0  0  0  0  0  0  0  0  0  0
  140.0814   74.1865  222.3447 H   0  0  0  0  0  0  0  0  0  0  0  0
  1  2  1  0
  2  3  2  0
  3  4  1  0
  4  5  2  0
  5  6  1  0
  6  7  2  0
  6  8  1  0
  8  9  1  0
  9 10  1  0
 10 11  2  0
 11 12  1  0
 12 13  2  0
 13 14  1  0
 14 15  1  0
 15 16  2  0
 15 17  1  0
 17 18  1  0
 18 19  1  0
 19 20  1  0
 20 21  1  0
 21 22  1  0
 22 23  1  0
 23 24  1  0
 24 25  1  0
 14 26  2  0
  9 27  2  0
  7  2  1  0
 26 10  1  0
 27  5  1  0
 25 20  1  0
  1 28  1  0
  1 29  1  0
  1 30  1  0
  3 31  1  0
  4 32  1  0
  7 33  1  0
  8 34  1  0
  8 35  1  0
 11 36  1  0
 12 37  1  0
 13 38  1  0
 17 39  1  0
 18 40  1  0
 18 41  1  0
 19 42  1  0
 19 43  1  0
 20 44  1  0
 21 45  1  0
 21 46  1  0
 22 47  1  0
 22 48  1  0
 23 49  1  0
 23 50  1  0
 24 51  1  0
 24 52  1  0
 25 53  1  0
 25 54  1  0
 26 55  1  0
M  END
>  <smiles>  (28) 
Cc1ccc2c(c1)CC(c1cccc(C(=O)NCCC3CCCCC3)c1)=N2

>  <score_type>  (28) 
oracle

>  <origin>  (28) 
autodockgpu

>  <m_score__min__energy>  (28) 
-8.6999999999999993

>  <m_primary>  (28) 
energy

>  <rmsd>  (28) 
9.223578962759694

>  <m_score__min__rmsd>  (28) 
9.223578962759694

>  <meeko>  (28) 
{"free_energy": -8.53, "intermolecular_energy": -10.02, "internal_energy": -0.9, "cluster_size": 11, "cluster_id": 2, "rank_in_cluster": 8}

>  <energy>  (28) 
-8.35

>  <cluster_rmsd>  (28) 
1.39

>  <cluster>  (28) 
3

$$$$

     RDKit          3D

 55 58  0  0  0  0  0  0  0  0999 V2000
  141.3550   68.4230  229.0000 C   0  0  0  0  0  0  0  0  0  0  0  0
  140.7320   68.6510  227.6720 C   0  0  0  0  0  0  0  0  0  0  0  0
  139.8120   67.7500  227.1800 C   0  0  0  0  0  0  0  0  0  0  0  0
  139.2370   67.9710  225.9390 C   0  0  0  0  0  0  0  0  0  0  0  0
  139.5520   69.0700  225.1670 C   0  0  0  0  0  0  0  0  0  0  0  0
  140.4800   69.9770  225.6680 C   0  0  0  0  0  0  0  0  0  0  0  0
  141.0600   69.7590  226.9100 C   0  0  0  0  0  0  0  0  0  0  0  0
  140.6610   71.0670  224.6770 C   0  0  0  0  0  0  0  0  0  0  0  0
  139.7320   70.6520  223.5930 C   0  0  0  0  0  0  0  0  0  0  0  0
  139.5280   71.4000  222.3550 C   0  0  0  0  0  0  0  0  0  0  0  0
  139.1980   70.7690  221.1740 C   0  0  0  0  0  0  0  0  0  0  0  0
  139.0000   71.4560  219.9880 C   0  0  0  0  0  0  0  0  0  0  0  0
  139.1490   72.8300  220.0310 C   0  0  0  0  0  0  0  0  0  0  0  0
  139.4770   73.5140  221.1770 C   0  0  0  0  0  0  0  0  0  0  0  0
  139.6400   74.9570  221.2500 C   0  0  0  0  0  0  0  0  0  0  0  0
  140.0890   75.6150  220.2760 O   0  0  0  0  0  0  0  0  0  0  0  0
  139.3080   75.7220  222.4180 N   0  0  0  0  0  0  0  0  0  0  0  0
  139.5250   77.1420  222.3380 C   0  0  0  0  0  0  0  0  0  0  0  0
  140.9000   77.5760  222.6790 C   0  0  0  0  0  0  0  0  0  0  0  0
  141.1740   79.0180  222.8050 C   0  0  0  0  0  0  0  0  0  0  0  0
  142.5540   79.3190  223.3640 C   0  0  0  0  0  0  0  0  0  0  0  0
  142.6190   80.7990  223.7690 C   0  0  0  0  0  0  0  0  0  0  0  0
  141.7580   81.6400  222.8590 C   0  0  0  0  0  0  0  0  0  0  0  0
  140.2890   81.2990  223.0110 C   0  0  0  0  0  0  0  0  0  0  0  0
  140.1280   79.8490  223.4700 C   0  0  0  0  0  0  0  0  0  0  0  0
  139.6600   72.7720  222.3220 C   0  0  0  0  0  0  0  0  0  0  0  0
  139.1460   69.5590  223.8960 N   0  0  0  0  0  0  0  0  0  0  0  0
  140.6376   68.6855  229.7915 H   0  0  0  0  0  0  0  0  0  0  0  0
  141.6358   67.3638  229.0963 H   0  0  0  0  0  0  0  0  0  0  0  0
  142.2532   69.0507  229.0963 H   0  0  0  0  0  0  0  0  0  0  0  0
  139.5365   66.8623  227.7682 H   0  0  0  0  0  0  0  0  0  0  0  0
  138.5043   67.2453  225.5562 H   0  0  0  0  0  0  0  0  0  0  0  0
  141.7947   70.4809  227.2963 H   0  0  0  0  0  0  0  0  0  0  0  0
  140.3748   72.0422  225.0979 H   0  0  0  0  0  0  0  0  0  0  0  0
  141.7015   71.1982  224.3451 H   0  0  0  0  0  0  0  0  0  0  0  0
  139.0875   69.6746  221.1740 H   0  0  0  0  0  0  0  0  0  0  0  0
  138.7368   70.9337  219.0564 H   0  0  0  0  0  0  0  0  0  0  0  0
  138.9979   73.4027  219.1041 H   0  0  0  0  0  0  0  0  0  0  0  0
  138.9310   75.1990  223.2160 H   0  0  0  0  0  0  0  0  0  0  0  0
  139.3086   77.4647  221.3089 H   0  0  0  0  0  0  0  0  0  0  0  0
  138.8592   77.6016  223.0833 H   0  0  0  0  0  0  0  0  0  0  0  0
  141.1568   77.1118  223.6427 H   0  0  0  0  0  0  0  0  0  0  0  0
  141.5021   77.2635  221.8131 H   0  0  0  0  0  0  0  0  0  0  0  0
  141.1429   79.3411  221.7540 H   0  0  0  0  0  0  0  0  0  0  0  0
  142.7406   78.6873  224.2450 H   0  0  0  0  0  0  0  0  0  0  0  0
  143.3175   79.1094  222.6004 H   0  0  0  0  0  0  0  0  0  0  0  0
  142.2622   80.9060  224.8040 H   0  0  0  0  0  0  0  0  0  0  0  0
  143.6608   81.1425  223.6866 H   0  0  0  0  0  0  0  0  0  0  0  0
  141.9059   82.7013  223.1075 H   0  0  0  0  0  0  0  0  0  0  0  0
  142.0534   81.4358  221.8193 H   0  0  0  0  0  0  0  0  0  0  0  0
  139.8359   81.9686  223.7568 H   0  0  0  0  0  0  0  0  0  0  0  0
  139.7888   81.4255  222.0395 H   0  0  0  0  0  0  0  0  0  0  0  0
  140.2479   79.7909  224.5619 H   0  0  0  0  0  0  0  0  0  0  0  0
  139.1278   79.4792  223.2002 H   0  0  0  0  0  0  0  0  0  0  0  0
  139.9233   73.2971  223.2520 H   0  0  0  0  0  0  0  0  0  0  0  0
  1  2  1  0
  2  3  2  0
  3  4  1  0
  4  5  2  0
  5  6  1  0
  6  7  2  0
  6  8  1  0
  8  9  1  0
  9 10  1  0
 10 11  2  0
 11 12  1  0
 12 13  2  0
 13 14  1  0
 14 15  1  0
 15 16  2  0
 15 17  1  0
 17 18  1  0
 18 19  1  0
 19 20  1  0
 20 21  1  0
 21 22  1  0
 22 23  1  0
 23 24  1  0
 24 25  1  0
 14 26  2  0
  9 27  2  0
  7  2  1  0
 26 10  1  0
 27  5  1  0
 25 20  1  0
  1 28  1  0
  1 29  1  0
  1 30  1  0
  3 31  1  0
  4 32  1  0
  7 33  1  0
  8 34  1  0
  8 35  1  0
 11 36  1  0
 12 37  1  0
 13 38  1  0
 17 39  1  0
 18 40  1  0
 18 41  1  0
 19 42  1  0
 19 43  1  0
 20 44  1  0
 21 45  1  0
 21 46  1  0
 22 47  1  0
 22 48  1  0
 23 49  1  0
 23 50  1  0
 24 51  1  0
 24 52  1  0
 25 53  1  0
 25 54  1  0
 26 55  1  0
M  END
>  <smiles>  (29) 
Cc1ccc2c(c1)CC(c1cccc(C(=O)NCCC3CCCCC3)c1)=N2

>  <score_type>  (29) 
oracle

>  <origin>  (29) 
autodockgpu

>  <m_score__min__energy>  (29) 
-8.6999999999999993

>  <m_primary>  (29) 
energy

>  <rmsd>  (29) 
4.660484656121844

>  <m_score__min__rmsd>  (29) 
4.660484656121844

>  <meeko>  (29) 
{"free_energy": -8.54, "intermolecular_energy": -10.03, "internal_energy": -0.74, "cluster_size": 23, "cluster_id": 3, "rank_in_cluster": 3}

>  <energy>  (29) 
-8.35

>  <cluster_rmsd>  (29) 
1.38

>  <cluster>  (29) 
3

$$$$

     RDKit          3D

 55 58  0  0  0  0  0  0  0  0999 V2000
  140.7510   68.1450  228.9940 C   0  0  0  0  0  0  0  0  0  0  0  0
  140.4660   68.5700  227.6000 C   0  0  0  0  0  0  0  0  0  0  0  0
  139.7390   67.7490  226.7650 C   0  0  0  0  0  0  0  0  0  0  0  0
  139.4780   68.1530  225.4660 C   0  0  0  0  0  0  0  0  0  0  0  0
  139.9230   69.3610  224.9690 C   0  0  0  0  0  0  0  0  0  0  0  0
  140.6550   70.1870  225.8150 C   0  0  0  0  0  0  0  0  0  0  0  0
  140.9190   69.7850  227.1170 C   0  0  0  0  0  0  0  0  0  0  0  0
  141.0240   71.4190  225.0730 C   0  0  0  0  0  0  0  0  0  0  0  0
  140.4120   71.1680  223.7410 C   0  0  0  0  0  0  0  0  0  0  0  0
  140.4860   72.0970  222.6160 C   0  0  0  0  0  0  0  0  0  0  0  0
  141.4580   71.9810  221.6450 C   0  0  0  0  0  0  0  0  0  0  0  0
  141.5490   72.8490  220.5700 C   0  0  0  0  0  0  0  0  0  0  0  0
  140.6070   73.8590  220.5020 C   0  0  0  0  0  0  0  0  0  0  0  0
  139.6150   74.0250  221.4400 C   0  0  0  0  0  0  0  0  0  0  0  0
  138.6140   75.0770  221.3930 C   0  0  0  0  0  0  0  0  0  0  0  0
  138.0900   75.4360  220.3070 O   0  0  0  0  0  0  0  0  0  0  0  0
  138.1580   75.7730  222.5630 N   0  0  0  0  0  0  0  0  0  0  0  0
  137.1620   76.7910  222.3580 C   0  0  0  0  0  0  0  0  0  0  0  0
  137.6730   78.1790  222.4420 C   0  0  0  0  0  0  0  0  0  0  0  0
  139.1000   78.3890  222.7440 C   0  0  0  0  0  0  0  0  0  0  0  0
  139.3570   79.6170  223.6000 C   0  0  0  0  0  0  0  0  0  0  0  0
  140.8590   79.9370  223.5780 C   0  0  0  0  0  0  0  0  0  0  0  0
  141.6730   78.6730  223.4630 C   0  0  0  0  0  0  0  0  0  0  0  0
  141.4430   77.9830  222.1330 C   0  0  0  0  0  0  0  0  0  0  0  0
  140.0500   78.3200  221.5960 C   0  0  0  0  0  0  0  0  0  0  0  0
  139.5810   73.1290  222.4840 C   0  0  0  0  0  0  0  0  0  0  0  0
  139.8210   70.0370  223.7230 N   0  0  0  0  0  0  0  0  0  0  0  0
  140.2791   68.8486  229.6956 H   0  0  0  0  0  0  0  0  0  0  0  0
  140.3466   67.1355  229.1595 H   0  0  0  0  0  0  0  0  0  0  0  0
  141.8384   68.1360  229.1595 H   0  0  0  0  0  0  0  0  0  0  0  0
  139.3684   66.7790  227.1279 H   0  0  0  0  0  0  0  0  0  0  0  0
  138.8969   67.4891  224.8090 H   0  0  0  0  0  0  0  0  0  0  0  0
  141.4998   70.4453  227.7779 H   0  0  0  0  0  0  0  0  0  0  0  0
  140.5971   72.3150  225.5473 H   0  0  0  0  0  0  0  0  0  0  0  0
  142.1068   71.6091  225.0366 H   0  0  0  0  0  0  0  0  0  0  0  0
  142.1914   71.1653  221.7277 H   0  0  0  0  0  0  0  0  0  0  0  0
  142.3333   72.7403  219.8065 H   0  0  0  0  0  0  0  0  0  0  0  0
  140.6532   74.5628  219.6579 H   0  0  0  0  0  0  0  0  0  0  0  0
  138.5690   75.4830  223.4570 H   0  0  0  0  0  0  0  0  0  0  0  0
  136.7240   76.6464  221.3594 H   0  0  0  0  0  0  0  0  0  0  0  0
  136.4293   76.6786  223.1707 H   0  0  0  0  0  0  0  0  0  0  0  0
  137.4733   78.6572  221.4717 H   0  0  0  0  0  0  0  0  0  0  0  0
  137.1499   78.6049  223.3109 H   0  0  0  0  0  0  0  0  0  0  0  0
  139.3345   77.4933  223.3379 H   0  0  0  0  0  0  0  0  0  0  0  0
  138.7921   80.4712  223.1984 H   0  0  0  0  0  0  0  0  0  0  0  0
  139.0335   79.4237  224.6334 H   0  0  0  0  0  0  0  0  0  0  0  0
  141.0770   80.5862  222.7172 H   0  0  0  0  0  0  0  0  0  0  0  0
  141.1256   80.4445  224.5168 H   0  0  0  0  0  0  0  0  0  0  0  0
  142.7397   78.9252  223.5550 H   0  0  0  0  0  0  0  0  0  0  0  0
  141.3619   77.9880  224.2655 H   0  0  0  0  0  0  0  0  0  0  0  0
  142.2018   78.3214  221.4122 H   0  0  0  0  0  0  0  0  0  0  0  0
  141.5189   76.8949  222.2756 H   0  0  0  0  0  0  0  0  0  0  0  0
  140.0772   79.2905  221.0789 H   0  0  0  0  0  0  0  0  0  0  0  0
  139.7244   77.5461  220.8854 H   0  0  0  0  0  0  0  0  0  0  0  0
  138.7969   73.2411  223.2473 H   0  0  0  0  0  0  0  0  0  0  0  0
  1  2  1  0
  2  3  2  0
  3  4  1  0
  4  5  2  0
  5  6  1  0
  6  7  2  0
  6  8  1  0
  8  9  1  0
  9 10  1  0
 10 11  2  0
 11 12  1  0
 12 13  2  0
 13 14  1  0
 14 15  1  0
 15 16  2  0
 15 17  1  0
 17 18  1  0
 18 19  1  0
 19 20  1  0
 20 21  1  0
 21 22  1  0
 22 23  1  0
 23 24  1  0
 24 25  1  0
 14 26  2  0
  9 27  2  0
  7  2  1  0
 26 10  1  0
 27  5  1  0
 25 20  1  0
  1 28  1  0
  1 29  1  0
  1 30  1  0
  3 31  1  0
  4 32  1  0
  7 33  1  0
  8 34  1  0
  8 35  1  0
 11 36  1  0
 12 37  1  0
 13 38  1  0
 17 39  1  0
 18 40  1  0
 18 41  1  0
 19 42  1  0
 19 43  1  0
 20 44  1  0
 21 45  1  0
 21 46  1  0
 22 47  1  0
 22 48  1  0
 23 49  1  0
 23 50  1  0
 24 51  1  0
 24 52  1  0
 25 53  1  0
 25 54  1  0
 26 55  1  0
M  END
>  <smiles>  (30) 
Cc1ccc2c(c1)CC(c1cccc(C(=O)NCCC3CCCCC3)c1)=N2

>  <score_type>  (30) 
oracle

>  <origin>  (30) 
autodockgpu

>  <m_score__min__energy>  (30) 
-8.6999999999999993

>  <m_primary>  (30) 
energy

>  <rmsd>  (30) 
5.024659514154781

>  <m_score__min__rmsd>  (30) 
5.024659514154781

>  <meeko>  (30) 
{"free_energy": -7.94, "intermolecular_energy": -9.44, "internal_energy": -1.18, "cluster_size": 23, "cluster_id": 3, "rank_in_cluster": 23}

>  <energy>  (30) 
-8.33

>  <cluster_rmsd>  (30) 
1.27

>  <cluster>  (30) 
3

$$$$

     RDKit          3D

 55 58  0  0  0  0  0  0  0  0999 V2000
  141.3560   68.1550  228.7940 C   0  0  0  0  0  0  0  0  0  0  0  0
  140.7340   68.5180  227.4960 C   0  0  0  0  0  0  0  0  0  0  0  0
  139.8440   67.6550  226.8940 C   0  0  0  0  0  0  0  0  0  0  0  0
  139.2680   68.0020  225.6830 C   0  0  0  0  0  0  0  0  0  0  0  0
  139.5540   69.1930  225.0470 C   0  0  0  0  0  0  0  0  0  0  0  0
  140.4520   70.0610  225.6580 C   0  0  0  0  0  0  0  0  0  0  0  0
  141.0320   69.7170  226.8720 C   0  0  0  0  0  0  0  0  0  0  0  0
  140.6040   71.2650  224.8030 C   0  0  0  0  0  0  0  0  0  0  0  0
  139.6940   70.9530  223.6700 C   0  0  0  0  0  0  0  0  0  0  0  0
  139.4740   71.8340  222.5260 C   0  0  0  0  0  0  0  0  0  0  0  0
  138.5300   71.5460  221.5620 C   0  0  0  0  0  0  0  0  0  0  0  0
  138.3040   72.3650  220.4690 C   0  0  0  0  0  0  0  0  0  0  0  0
  139.0750   73.5090  220.3760 C   0  0  0  0  0  0  0  0  0  0  0  0
  140.0300   73.8480  221.3050 C   0  0  0  0  0  0  0  0  0  0  0  0
  140.8540   75.0430  221.2310 C   0  0  0  0  0  0  0  0  0  0  0  0
  141.1270   75.7160  222.2590 O   0  0  0  0  0  0  0  0  0  0  0  0
  141.4060   75.5350  220.0020 N   0  0  0  0  0  0  0  0  0  0  0  0
  142.2020   76.7320  220.0880 C   0  0  0  0  0  0  0  0  0  0  0  0
  141.4310   77.9670  220.3550 C   0  0  0  0  0  0  0  0  0  0  0  0
  141.6800   78.6970  221.6110 C   0  0  0  0  0  0  0  0  0  0  0  0
  140.5330   78.5940  222.6020 C   0  0  0  0  0  0  0  0  0  0  0  0
  140.7330   79.6380  223.7100 C   0  0  0  0  0  0  0  0  0  0  0  0
  142.2010   79.8600  223.9760 C   0  0  0  0  0  0  0  0  0  0  0  0
  142.8950   80.4820  222.7810 C   0  0  0  0  0  0  0  0  0  0  0  0
  142.1650   80.1030  221.4900 C   0  0  0  0  0  0  0  0  0  0  0  0
  140.2060   72.9910  222.3680 C   0  0  0  0  0  0  0  0  0  0  0  0
  139.1390   69.8150  223.8380 N   0  0  0  0  0  0  0  0  0  0  0  0
  140.7264   68.5224  229.6178 H   0  0  0  0  0  0  0  0  0  0  0  0
  141.4486   67.0611  228.8631 H   0  0  0  0  0  0  0  0  0  0  0  0
  142.3540   68.6125  228.8631 H   0  0  0  0  0  0  0  0  0  0  0  0
  139.5926   66.6968  227.3721 H   0  0  0  0  0  0  0  0  0  0  0  0
  138.5589   67.3050  225.2125 H   0  0  0  0  0  0  0  0  0  0  0  0
  141.7417   70.4105  227.3467 H   0  0  0  0  0  0  0  0  0  0  0  0
  140.2858   72.1749  225.3330 H   0  0  0  0  0  0  0  0  0  0  0  0
  141.6416   71.4653  224.4976 H   0  0  0  0  0  0  0  0  0  0  0  0
  137.9326   70.6282  221.6661 H   0  0  0  0  0  0  0  0  0  0  0  0
  137.5469   72.1174  219.7104 H   0  0  0  0  0  0  0  0  0  0  0  0
  138.9168   74.1794  219.5184 H   0  0  0  0  0  0  0  0  0  0  0  0
  141.2000   74.9920  219.1570 H   0  0  0  0  0  0  0  0  0  0  0  0
  142.9320   76.6009  220.9003 H   0  0  0  0  0  0  0  0  0  0  0  0
  142.6723   76.8651  219.1025 H   0  0  0  0  0  0  0  0  0  0  0  0
  141.6379   78.6633  219.5289 H   0  0  0  0  0  0  0  0  0  0  0  0
  140.3917   77.6191  220.4488 H   0  0  0  0  0  0  0  0  0  0  0  0
  142.5440   78.1500  222.0163 H   0  0  0  0  0  0  0  0  0  0  0  0
  139.5808   78.7833  222.0847 H   0  0  0  0  0  0  0  0  0  0  0  0
  140.5115   77.5858  223.0414 H   0  0  0  0  0  0  0  0  0  0  0  0
  140.2751   80.5881  223.3976 H   0  0  0  0  0  0  0  0  0  0  0  0
  140.2587   79.2701  224.6318 H   0  0  0  0  0  0  0  0  0  0  0  0
  142.3099   80.5304  224.8413 H   0  0  0  0  0  0  0  0  0  0  0  0
  142.6667   78.8836  224.1755 H   0  0  0  0  0  0  0  0  0  0  0  0
  142.8957   81.5766  222.8902 H   0  0  0  0  0  0  0  0  0  0  0  0
  143.9287   80.1091  222.7318 H   0  0  0  0  0  0  0  0  0  0  0  0
  141.3100   80.7778  221.3363 H   0  0  0  0  0  0  0  0  0  0  0  0
  142.8484   80.1917  220.6326 H   0  0  0  0  0  0  0  0  0  0  0  0
  140.9644   73.2407  223.1246 H   0  0  0  0  0  0  0  0  0  0  0  0
  1  2  1  0
  2  3  2  0
  3  4  1  0
  4  5  2  0
  5  6  1  0
  6  7  2  0
  6  8  1  0
  8  9  1  0
  9 10  1  0
 10 11  2  0
 11 12  1  0
 12 13  2  0
 13 14  1  0
 14 15  1  0
 15 16  2  0
 15 17  1  0
 17 18  1  0
 18 19  1  0
 19 20  1  0
 20 21  1  0
 21 22  1  0
 22 23  1  0
 23 24  1  0
 24 25  1  0
 14 26  2  0
  9 27  2  0
  7  2  1  0
 26 10  1  0
 27  5  1  0
 25 20  1  0
  1 28  1  0
  1 29  1  0
  1 30  1  0
  3 31  1  0
  4 32  1  0
  7 33  1  0
  8 34  1  0
  8 35  1  0
 11 36  1  0
 12 37  1  0
 13 38  1  0
 17 39  1  0
 18 40  1  0
 18 41  1  0
 19 42  1  0
 19 43  1  0
 20 44  1  0
 21 45  1  0
 21 46  1  0
 22 47  1  0
 22 48  1  0
 23 49  1  0
 23 50  1  0
 24 51  1  0
 24 52  1  0
 25 53  1  0
 25 54  1  0
 26 55  1  0
M  END
>  <smiles>  (31) 
Cc1ccc2c(c1)CC(c1cccc(C(=O)NCCC3CCCCC3)c1)=N2

>  <score_type>  (31) 
oracle

>  <origin>  (31) 
autodockgpu

>  <m_score__min__energy>  (31) 
-8.6999999999999993

>  <m_primary>  (31) 
energy

>  <rmsd>  (31) 
4.682193479617399

>  <m_score__min__rmsd>  (31) 
4.682193479617399

>  <meeko>  (31) 
{"free_energy": -8.35, "intermolecular_energy": -9.84, "internal_energy": -0.91, "cluster_size": 23, "cluster_id": 3, "rank_in_cluster": 7}

>  <energy>  (31) 
-8.31

>  <cluster_rmsd>  (31) 
1.46

>  <cluster>  (31) 
3

$$$$

     RDKit          3D

 55 58  0  0  0  0  0  0  0  0999 V2000
  141.3450   68.1460  228.9440 C   0  0  0  0  0  0  0  0  0  0  0  0
  140.7670   68.4900  227.6200 C   0  0  0  0  0  0  0  0  0  0  0  0
  140.1140   67.5250  226.8840 C   0  0  0  0  0  0  0  0  0  0  0  0
  139.5780   67.8550  225.6500 C   0  0  0  0  0  0  0  0  0  0  0  0
  139.6730   69.1270  225.1230 C   0  0  0  0  0  0  0  0  0  0  0  0
  140.3320   70.0970  225.8700 C   0  0  0  0  0  0  0  0  0  0  0  0
  140.8710   69.7710  227.1070 C   0  0  0  0  0  0  0  0  0  0  0  0
  140.3110   71.3740  225.1130 C   0  0  0  0  0  0  0  0  0  0  0  0
  139.5720   70.9890  223.8820 C   0  0  0  0  0  0  0  0  0  0  0  0
  139.2730   71.9030  222.7840 C   0  0  0  0  0  0  0  0  0  0  0  0
  138.1900   71.7060  221.9530 C   0  0  0  0  0  0  0  0  0  0  0  0
  137.8870   72.5580  220.9040 C   0  0  0  0  0  0  0  0  0  0  0  0
  138.7270   73.6390  220.7160 C   0  0  0  0  0  0  0  0  0  0  0  0
  139.8210   73.8880  221.5110 C   0  0  0  0  0  0  0  0  0  0  0  0
  140.7210   75.0150  221.3350 C   0  0  0  0  0  0  0  0  0  0  0  0
  141.0770   75.7280  222.3090 O   0  0  0  0  0  0  0  0  0  0  0  0
  141.2590   75.3920  220.0590 N   0  0  0  0  0  0  0  0  0  0  0  0
  142.1370   76.5330  220.0440 C   0  0  0  0  0  0  0  0  0  0  0  0
  141.4570   77.8370  220.2130 C   0  0  0  0  0  0  0  0  0  0  0  0
  141.5860   78.5380  221.5020 C   0  0  0  0  0  0  0  0  0  0  0  0
  140.3130   78.5120  222.3310 C   0  0  0  0  0  0  0  0  0  0  0  0
  140.4370   79.5320  223.4720 C   0  0  0  0  0  0  0  0  0  0  0  0
  141.8680   79.6460  223.9340 C   0  0  0  0  0  0  0  0  0  0  0  0
  142.7580   80.2230  222.8510 C   0  0  0  0  0  0  0  0  0  0  0  0
  142.1820   79.9060  221.4690 C   0  0  0  0  0  0  0  0  0  0  0  0
  140.0680   73.0020  222.5360 C   0  0  0  0  0  0  0  0  0  0  0  0
  139.2400   69.7560  223.9240 N   0  0  0  0  0  0  0  0  0  0  0  0
  140.6932   68.5339  229.7406 H   0  0  0  0  0  0  0  0  0  0  0  0
  141.4257   67.0528  229.0360 H   0  0  0  0  0  0  0  0  0  0  0  0
  142.3443   68.5964  229.0360 H   0  0  0  0  0  0  0  0  0  0  0  0
  140.0191   66.5006  227.2734 H   0  0  0  0  0  0  0  0  0  0  0  0
  139.0592   67.0771  225.0706 H   0  0  0  0  0  0  0  0  0  0  0  0
  141.3905   70.5455  227.6904 H   0  0  0  0  0  0  0  0  0  0  0  0
  139.7794   72.1601  225.6693 H   0  0  0  0  0  0  0  0  0  0  0  0
  141.3098   71.7921  224.9192 H   0  0  0  0  0  0  0  0  0  0  0  0
  137.5402   70.8364  222.1307 H   0  0  0  0  0  0  0  0  0  0  0  0
  137.0190   72.3825  220.2515 H   0  0  0  0  0  0  0  0  0  0  0  0
  138.5102   74.3335  219.8910 H   0  0  0  0  0  0  0  0  0  0  0  0
  140.9860   74.8130  219.2580 H   0  0  0  0  0  0  0  0  0  0  0  0
  142.8641   76.4170  220.8612 H   0  0  0  0  0  0  0  0  0  0  0  0
  142.6052   76.5526  219.0488 H   0  0  0  0  0  0  0  0  0  0  0  0
  141.8499   78.5104  219.4370 H   0  0  0  0  0  0  0  0  0  0  0  0
  140.3867   77.5917  220.1473 H   0  0  0  0  0  0  0  0  0  0  0  0
  142.3460   77.9262  222.0099 H   0  0  0  0  0  0  0  0  0  0  0  0
  139.4539   78.7726  221.6954 H   0  0  0  0  0  0  0  0  0  0  0  0
  140.1622   77.5053  222.7479 H   0  0  0  0  0  0  0  0  0  0  0  0
  140.0933   80.5146  223.1165 H   0  0  0  0  0  0  0  0  0  0  0  0
  139.8192   79.1934  224.3168 H   0  0  0  0  0  0  0  0  0  0  0  0
  141.9075   80.3021  224.8161 H   0  0  0  0  0  0  0  0  0  0  0  0
  142.2326   78.6375  224.1789 H   0  0  0  0  0  0  0  0  0  0  0  0
  142.8222   81.3139  222.9764 H   0  0  0  0  0  0  0  0  0  0  0  0
  143.7596   79.7759  222.9336 H   0  0  0  0  0  0  0  0  0  0  0  0
  141.4055   80.6421  221.2137 H   0  0  0  0  0  0  0  0  0  0  0  0
  142.9785   79.9499  220.7116 H   0  0  0  0  0  0  0  0  0  0  0  0
  140.9379   73.1789  223.1856 H   0  0  0  0  0  0  0  0  0  0  0  0
  1  2  1  0
  2  3  2  0
  3  4  1  0
  4  5  2  0
  5  6  1  0
  6  7  2  0
  6  8  1  0
  8  9  1  0
  9 10  1  0
 10 11  2  0
 11 12  1  0
 12 13  2  0
 13 14  1  0
 14 15  1  0
 15 16  2  0
 15 17  1  0
 17 18  1  0
 18 19  1  0
 19 20  1  0
 20 21  1  0
 21 22  1  0
 22 23  1  0
 23 24  1  0
 24 25  1  0
 14 26  2  0
  9 27  2  0
  7  2  1  0
 26 10  1  0
 27  5  1  0
 25 20  1  0
  1 28  1  0
  1 29  1  0
  1 30  1  0
  3 31  1  0
  4 32  1  0
  7 33  1  0
  8 34  1  0
  8 35  1  0
 11 36  1  0
 12 37  1  0
 13 38  1  0
 17 39  1  0
 18 40  1  0
 18 41  1  0
 19 42  1  0
 19 43  1  0
 20 44  1  0
 21 45  1  0
 21 46  1  0
 22 47  1  0
 22 48  1  0
 23 49  1  0
 23 50  1  0
 24 51  1  0
 24 52  1  0
 25 53  1  0
 25 54  1  0
 26 55  1  0
M  END
>  <smiles>  (32) 
Cc1ccc2c(c1)CC(c1cccc(C(=O)NCCC3CCCCC3)c1)=N2

>  <score_type>  (32) 
oracle

>  <origin>  (32) 
autodockgpu

>  <m_score__min__energy>  (32) 
-8.6999999999999993

>  <m_primary>  (32) 
energy

>  <rmsd>  (32) 
4.73943821605469

>  <m_score__min__rmsd>  (32) 
4.73943821605469

>  <meeko>  (32) 
{"free_energy": -8.31, "intermolecular_energy": -9.8, "internal_energy": -0.93, "cluster_size": 23, "cluster_id": 3, "rank_in_cluster": 9}

>  <energy>  (32) 
-8.28

>  <cluster_rmsd>  (32) 
1.55

>  <cluster>  (32) 
3

$$$$

     RDKit          3D

 55 58  0  0  0  0  0  0  0  0999 V2000
  131.0870   78.4790  228.6200 C   0  0  0  0  0  0  0  0  0  0  0  0
  131.8890   77.3860  228.0150 C   0  0  0  0  0  0  0  0  0  0  0  0
  133.1310   77.6580  227.4820 C   0  0  0  0  0  0  0  0  0  0  0  0
  133.8720   76.6320  226.9190 C   0  0  0  0  0  0  0  0  0  0  0  0
  133.4110   75.3320  226.8710 C   0  0  0  0  0  0  0  0  0  0  0  0
  132.1590   75.0620  227.4120 C   0  0  0  0  0  0  0  0  0  0  0  0
  131.4120   76.0870  227.9760 C   0  0  0  0  0  0  0  0  0  0  0  0
  131.8750   73.6140  227.2500 C   0  0  0  0  0  0  0  0  0  0  0  0
  133.1050   73.1350  226.5670 C   0  0  0  0  0  0  0  0  0  0  0  0
  133.3380   71.7490  226.1720 C   0  0  0  0  0  0  0  0  0  0  0  0
  132.4260   70.7530  226.4520 C   0  0  0  0  0  0  0  0  0  0  0  0
  132.6250   69.4320  226.0890 C   0  0  0  0  0  0  0  0  0  0  0  0
  133.7980   69.1390  225.4180 C   0  0  0  0  0  0  0  0  0  0  0  0
  134.7440   70.0880  225.1100 C   0  0  0  0  0  0  0  0  0  0  0  0
  135.9850   69.8080  224.4070 C   0  0  0  0  0  0  0  0  0  0  0  0
  136.0760   69.9440  223.1590 O   0  0  0  0  0  0  0  0  0  0  0  0
  137.1750   69.3630  225.0720 N   0  0  0  0  0  0  0  0  0  0  0  0
  138.3260   69.1260  224.2410 C   0  0  0  0  0  0  0  0  0  0  0  0
  139.5710   68.8230  224.9830 C   0  0  0  0  0  0  0  0  0  0  0  0
  140.0020   69.7470  226.0460 C   0  0  0  0  0  0  0  0  0  0  0  0
  140.4060   71.1160  225.5250 C   0  0  0  0  0  0  0  0  0  0  0  0
  141.1440   71.8770  226.6370 C   0  0  0  0  0  0  0  0  0  0  0  0
  140.6030   71.5000  227.9930 C   0  0  0  0  0  0  0  0  0  0  0  0
  140.8830   70.0460  228.3190 C   0  0  0  0  0  0  0  0  0  0  0  0
  140.9960   69.2280  227.0310 C   0  0  0  0  0  0  0  0  0  0  0  0
  134.4860   71.3830  225.5000 C   0  0  0  0  0  0  0  0  0  0  0  0
  133.9200   74.1000  226.3780 N   0  0  0  0  0  0  0  0  0  0  0  0
  131.1390   78.4082  229.7165 H   0  0  0  0  0  0  0  0  0  0  0  0
  131.4880   79.4507  228.2959 H   0  0  0  0  0  0  0  0  0  0  0  0
  130.0398   78.3880  228.2959 H   0  0  0  0  0  0  0  0  0  0  0  0
  133.5307   78.6826  227.5036 H   0  0  0  0  0  0  0  0  0  0  0  0
  134.8612   76.8611  226.4959 H   0  0  0  0  0  0  0  0  0  0  0  0
  130.4221   75.8628  228.4001 H   0  0  0  0  0  0  0  0  0  0  0  0
  131.7406   73.1212  228.2242 H   0  0  0  0  0  0  0  0  0  0  0  0
  130.9482   73.4020  226.6968 H   0  0  0  0  0  0  0  0  0  0  0  0
  131.5020   71.0194  226.9860 H   0  0  0  0  0  0  0  0  0  0  0  0
  131.8851   68.6524  226.3232 H   0  0  0  0  0  0  0  0  0  0  0  0
  133.9830   68.0975  225.1164 H   0  0  0  0  0  0  0  0  0  0  0  0
  137.1190   69.2580  226.0910 H   0  0  0  0  0  0  0  0  0  0  0  0
  138.1035   68.2739  223.5819 H   0  0  0  0  0  0  0  0  0  0  0  0
  138.5108   70.0606  223.6911 H   0  0  0  0  0  0  0  0  0  0  0  0
  139.4393   67.8343  225.4468 H   0  0  0  0  0  0  0  0  0  0  0  0
  140.3619   68.9022  224.2226 H   0  0  0  0  0  0  0  0  0  0  0  0
  139.0770   69.8542  226.6315 H   0  0  0  0  0  0  0  0  0  0  0  0
  141.0696   70.9985  224.6556 H   0  0  0  0  0  0  0  0  0  0  0  0
  139.5099   71.6775  225.2222 H   0  0  0  0  0  0  0  0  0  0  0  0
  142.2149   71.6292  226.5942 H   0  0  0  0  0  0  0  0  0  0  0  0
  140.9946   72.9562  226.4851 H   0  0  0  0  0  0  0  0  0  0  0  0
  141.0770   72.1350  228.7560 H   0  0  0  0  0  0  0  0  0  0  0  0
  139.5130   71.6474  227.9826 H   0  0  0  0  0  0  0  0  0  0  0  0
  141.8271   69.9745  228.8789 H   0  0  0  0  0  0  0  0  0  0  0  0
  140.0558   69.6484  228.9253 H   0  0  0  0  0  0  0  0  0  0  0  0
  142.0112   69.3251  226.6187 H   0  0  0  0  0  0  0  0  0  0  0  0
  140.7960   68.1671  227.2419 H   0  0  0  0  0  0  0  0  0  0  0  0
  135.2281   72.1603  225.2654 H   0  0  0  0  0  0  0  0  0  0  0  0
  1  2  1  0
  2  3  2  0
  3  4  1  0
  4  5  2  0
  5  6  1  0
  6  7  2  0
  6  8  1  0
  8  9  1  0
  9 10  1  0
 10 11  2  0
 11 12  1  0
 12 13  2  0
 13 14  1  0
 14 15  1  0
 15 16  2  0
 15 17  1  0
 17 18  1  0
 18 19  1  0
 19 20  1  0
 20 21  1  0
 21 22  1  0
 22 23  1  0
 23 24  1  0
 24 25  1  0
 14 26  2  0
  9 27  2  0
  7  2  1  0
 26 10  1  0
 27  5  1  0
 25 20  1  0
  1 28  1  0
  1 29  1  0
  1 30  1  0
  3 31  1  0
  4 32  1  0
  7 33  1  0
  8 34  1  0
  8 35  1  0
 11 36  1  0
 12 37  1  0
 13 38  1  0
 17 39  1  0
 18 40  1  0
 18 41  1  0
 19 42  1  0
 19 43  1  0
 20 44  1  0
 21 45  1  0
 21 46  1  0
 22 47  1  0
 22 48  1  0
 23 49  1  0
 23 50  1  0
 24 51  1  0
 24 52  1  0
 25 53  1  0
 25 54  1  0
 26 55  1  0
M  END
>  <smiles>  (33) 
Cc1ccc2c(c1)CC(c1cccc(C(=O)NCCC3CCCCC3)c1)=N2

>  <score_type>  (33) 
oracle

>  <origin>  (33) 
autodockgpu

>  <m_score__min__energy>  (33) 
-8.6999999999999993

>  <m_primary>  (33) 
energy

>  <rmsd>  (33) 
11.720813052765338

>  <m_score__min__rmsd>  (33) 
11.720813052765338

>  <meeko>  (33) 
{"free_energy": -8.34, "intermolecular_energy": -9.83, "internal_energy": -0.84, "cluster_size": 11, "cluster_id": 1, "rank_in_cluster": 4}

>  <energy>  (33) 
-8.27

>  <cluster_rmsd>  (33) 
1.1

>  <cluster>  (33) 
3

$$$$

     RDKit          3D

 55 58  0  0  0  0  0  0  0  0999 V2000
  132.9220   79.3620  226.9210 C   0  0  0  0  0  0  0  0  0  0  0  0
  132.8090   77.8880  227.0550 C   0  0  0  0  0  0  0  0  0  0  0  0
  131.9200   77.3450  227.9570 C   0  0  0  0  0  0  0  0  0  0  0  0
  131.8210   75.9680  228.0750 C   0  0  0  0  0  0  0  0  0  0  0  0
  132.5870   75.1080  227.3140 C   0  0  0  0  0  0  0  0  0  0  0  0
  133.4820   75.6610  226.4050 C   0  0  0  0  0  0  0  0  0  0  0  0
  133.5850   77.0400  226.2840 C   0  0  0  0  0  0  0  0  0  0  0  0
  134.1890   74.5580  225.7060 C   0  0  0  0  0  0  0  0  0  0  0  0
  133.5800   73.3570  226.3360 C   0  0  0  0  0  0  0  0  0  0  0  0
  133.9360   71.9820  225.9960 C   0  0  0  0  0  0  0  0  0  0  0  0
  133.1570   70.9140  226.3900 C   0  0  0  0  0  0  0  0  0  0  0  0
  133.4740   69.6020  226.0800 C   0  0  0  0  0  0  0  0  0  0  0  0
  134.6260   69.3950  225.3450 C   0  0  0  0  0  0  0  0  0  0  0  0
  135.4420   70.4190  224.9240 C   0  0  0  0  0  0  0  0  0  0  0  0
  136.6580   70.2300  224.1510 C   0  0  0  0  0  0  0  0  0  0  0  0
  136.8020   69.2400  223.3870 O   0  0  0  0  0  0  0  0  0  0  0  0
  137.7650   71.1420  224.2010 N   0  0  0  0  0  0  0  0  0  0  0  0
  138.9010   70.8200  223.3780 C   0  0  0  0  0  0  0  0  0  0  0  0
  140.0510   70.2460  224.1130 C   0  0  0  0  0  0  0  0  0  0  0  0
  140.0630   70.3310  225.5840 C   0  0  0  0  0  0  0  0  0  0  0  0
  140.8220   71.5370  226.1100 C   0  0  0  0  0  0  0  0  0  0  0  0
  141.0640   71.3590  227.6160 C   0  0  0  0  0  0  0  0  0  0  0  0
  139.9270   70.6010  228.2540 C   0  0  0  0  0  0  0  0  0  0  0  0
  139.8510   69.1770  227.7410 C   0  0  0  0  0  0  0  0  0  0  0  0
  140.4330   69.0920  226.3280 C   0  0  0  0  0  0  0  0  0  0  0  0
  135.0710   71.7000  225.2650 C   0  0  0  0  0  0  0  0  0  0  0  0
  132.7110   73.6970  227.2070 N   0  0  0  0  0  0  0  0  0  0  0  0
  132.9571   79.8194  227.9208 H   0  0  0  0  0  0  0  0  0  0  0  0
  133.8418   79.6108  226.3715 H   0  0  0  0  0  0  0  0  0  0  0  0
  132.0508   79.7481  226.3715 H   0  0  0  0  0  0  0  0  0  0  0  0
  131.2930   78.0004  228.5793 H   0  0  0  0  0  0  0  0  0  0  0  0
  131.1084   75.5462  228.7991 H   0  0  0  0  0  0  0  0  0  0  0  0
  134.2966   77.4668  225.5619 H   0  0  0  0  0  0  0  0  0  0  0  0
  133.9974   74.5826  224.6231 H   0  0  0  0  0  0  0  0  0  0  0  0
  135.2842   74.6021  225.7989 H   0  0  0  0  0  0  0  0  0  0  0  0
  132.2465   71.1126  226.9745 H   0  0  0  0  0  0  0  0  0  0  0  0
  132.8389   68.7642  226.4035 H   0  0  0  0  0  0  0  0  0  0  0  0
  134.9033   68.3629  225.0845 H   0  0  0  0  0  0  0  0  0  0  0  0
  137.6570   71.9590  224.8110 H   0  0  0  0  0  0  0  0  0  0  0  0
  138.5798   70.0907  222.6197 H   0  0  0  0  0  0  0  0  0  0  0  0
  139.2503   71.7683  222.9435 H   0  0  0  0  0  0  0  0  0  0  0  0
  140.1040   69.1793  223.8497 H   0  0  0  0  0  0  0  0  0  0  0  0
  140.9041   70.8670  223.8021 H   0  0  0  0  0  0  0  0  0  0  0  0
  138.9942   70.4672  225.8055 H   0  0  0  0  0  0  0  0  0  0  0  0
  141.7871   71.6211  225.5890 H   0  0  0  0  0  0  0  0  0  0  0  0
  140.2353   72.4506  225.9338 H   0  0  0  0  0  0  0  0  0  0  0  0
  141.9997   70.8010  227.7676 H   0  0  0  0  0  0  0  0  0  0  0  0
  141.1316   72.3528  228.0826 H   0  0  0  0  0  0  0  0  0  0  0  0
  140.0778   70.5808  229.3434 H   0  0  0  0  0  0  0  0  0  0  0  0
  138.9863   71.1105  227.9980 H   0  0  0  0  0  0  0  0  0  0  0  0
  140.4243   68.5187  228.4102 H   0  0  0  0  0  0  0  0  0  0  0  0
  138.7977   68.8609  227.7148 H   0  0  0  0  0  0  0  0  0  0  0  0
  141.5283   69.0063  226.3832 H   0  0  0  0  0  0  0  0  0  0  0  0
  140.0315   68.2089  225.8094 H   0  0  0  0  0  0  0  0  0  0  0  0
  135.7080   72.5358  224.9400 H   0  0  0  0  0  0  0  0  0  0  0  0
  1  2  1  0
  2  3  2  0
  3  4  1  0
  4  5  2  0
  5  6  1  0
  6  7  2  0
  6  8  1  0
  8  9  1  0
  9 10  1  0
 10 11  2  0
 11 12  1  0
 12 13  2  0
 13 14  1  0
 14 15  1  0
 15 16  2  0
 15 17  1  0
 17 18  1  0
 18 19  1  0
 19 20  1  0
 20 21  1  0
 21 22  1  0
 22 23  1  0
 23 24  1  0
 24 25  1  0
 14 26  2  0
  9 27  2  0
  7  2  1  0
 26 10  1  0
 27  5  1  0
 25 20  1  0
  1 28  1  0
  1 29  1  0
  1 30  1  0
  3 31  1  0
  4 32  1  0
  7 33  1  0
  8 34  1  0
  8 35  1  0
 11 36  1  0
 12 37  1  0
 13 38  1  0
 17 39  1  0
 18 40  1  0
 18 41  1  0
 19 42  1  0
 19 43  1  0
 20 44  1  0
 21 45  1  0
 21 46  1  0
 22 47  1  0
 22 48  1  0
 23 49  1  0
 23 50  1  0
 24 51  1  0
 24 52  1  0
 25 53  1  0
 25 54  1  0
 26 55  1  0
M  END
>  <smiles>  (34) 
Cc1ccc2c(c1)CC(c1cccc(C(=O)NCCC3CCCCC3)c1)=N2

>  <score_type>  (34) 
oracle

>  <origin>  (34) 
autodockgpu

>  <m_score__min__energy>  (34) 
-8.6999999999999993

>  <m_primary>  (34) 
energy

>  <rmsd>  (34) 
11.213857155023453

>  <m_score__min__rmsd>  (34) 
11.213857155023453

>  <meeko>  (34) 
{"free_energy": -8.16, "intermolecular_energy": -9.65, "internal_energy": -1.08, "cluster_size": 11, "cluster_id": 1, "rank_in_cluster": 8}

>  <energy>  (34) 
-8.27

>  <cluster_rmsd>  (34) 
1.53

>  <cluster>  (34) 
3

$$$$

     RDKit          3D

 55 58  0  0  0  0  0  0  0  0999 V2000
  137.7290   81.5260  224.1400 C   0  0  0  0  0  0  0  0  0  0  0  0
  138.7570   80.5600  223.6790 C   0  0  0  0  0  0  0  0  0  0  0  0
  140.0850   80.9260  223.6580 C   0  0  0  0  0  0  0  0  0  0  0  0
  141.0380   80.0170  223.2260 C   0  0  0  0  0  0  0  0  0  0  0  0
  140.7040   78.7430  222.8120 C   0  0  0  0  0  0  0  0  0  0  0  0
  139.3630   78.3780  222.8360 C   0  0  0  0  0  0  0  0  0  0  0  0
  138.4050   79.2860  223.2670 C   0  0  0  0  0  0  0  0  0  0  0  0
  139.2430   76.9790  222.3530 C   0  0  0  0  0  0  0  0  0  0  0  0
  140.6600   76.6320  222.0680 C   0  0  0  0  0  0  0  0  0  0  0  0
  141.1020   75.3370  221.5570 C   0  0  0  0  0  0  0  0  0  0  0  0
  142.1310   75.2310  220.6450 C   0  0  0  0  0  0  0  0  0  0  0  0
  142.5660   74.0150  220.1460 C   0  0  0  0  0  0  0  0  0  0  0  0
  141.9190   72.8840  220.6050 C   0  0  0  0  0  0  0  0  0  0  0  0
  140.8870   72.9260  221.5140 C   0  0  0  0  0  0  0  0  0  0  0  0
  140.1890   71.7530  222.0130 C   0  0  0  0  0  0  0  0  0  0  0  0
  140.4000   70.6110  221.5310 O   0  0  0  0  0  0  0  0  0  0  0  0
  139.2230   71.8130  223.0720 N   0  0  0  0  0  0  0  0  0  0  0  0
  138.6140   70.5660  223.4570 C   0  0  0  0  0  0  0  0  0  0  0  0
  139.4120   69.7590  224.4090 C   0  0  0  0  0  0  0  0  0  0  0  0
  139.8270   70.3730  225.6810 C   0  0  0  0  0  0  0  0  0  0  0  0
  140.8140   71.5150  225.5030 C   0  0  0  0  0  0  0  0  0  0  0  0
  141.4340   71.8590  226.8650 C   0  0  0  0  0  0  0  0  0  0  0  0
  140.4420   71.6270  227.9770 C   0  0  0  0  0  0  0  0  0  0  0  0
  140.0930   70.1580  228.1130 C   0  0  0  0  0  0  0  0  0  0  0  0
  140.2620   69.4480  226.7680 C   0  0  0  0  0  0  0  0  0  0  0  0
  140.5020   74.1660  221.9700 C   0  0  0  0  0  0  0  0  0  0  0  0
  141.4270   77.6190  222.3300 N   0  0  0  0  0  0  0  0  0  0  0  0
  137.7098   81.5441  225.2397 H   0  0  0  0  0  0  0  0  0  0  0  0
  137.9727   82.5295  223.7610 H   0  0  0  0  0  0  0  0  0  0  0  0
  136.7426   81.2205  223.7610 H   0  0  0  0  0  0  0  0  0  0  0  0
  140.3870   81.9329  223.9819 H   0  0  0  0  0  0  0  0  0  0  0  0
  142.0952   80.3206  223.2126 H   0  0  0  0  0  0  0  0  0  0  0  0
  137.3464   78.9875  223.2814 H   0  0  0  0  0  0  0  0  0  0  0  0
  138.8182   76.3232  223.1273 H   0  0  0  0  0  0  0  0  0  0  0  0
  138.5736   76.8627  221.4879 H   0  0  0  0  0  0  0  0  0  0  0  0
  142.6265   76.1504  220.2998 H   0  0  0  0  0  0  0  0  0  0  0  0
  143.3883   73.9524  219.4181 H   0  0  0  0  0  0  0  0  0  0  0  0
  142.2442   71.9039  220.2260 H   0  0  0  0  0  0  0  0  0  0  0  0
  139.0480   72.7360  223.4820 H   0  0  0  0  0  0  0  0  0  0  0  0
  137.6434   70.7879  223.9246 H   0  0  0  0  0  0  0  0  0  0  0  0
  138.5232   69.9665  222.5392 H   0  0  0  0  0  0  0  0  0  0  0  0
  138.8156   68.8690  224.6584 H   0  0  0  0  0  0  0  0  0  0  0  0
  140.3584   69.5781  223.8783 H   0  0  0  0  0  0  0  0  0  0  0  0
  138.8749   70.7856  226.0460 H   0  0  0  0  0  0  0  0  0  0  0  0
  141.6067   71.2113  224.8034 H   0  0  0  0  0  0  0  0  0  0  0  0
  140.2932   72.3959  225.0994 H   0  0  0  0  0  0  0  0  0  0  0  0
  142.3168   71.2239  227.0305 H   0  0  0  0  0  0  0  0  0  0  0  0
  141.7219   72.9207  226.8641 H   0  0  0  0  0  0  0  0  0  0  0  0
  140.8772   71.9801  228.9236 H   0  0  0  0  0  0  0  0  0  0  0  0
  139.5213   72.1798  227.7389 H   0  0  0  0  0  0  0  0  0  0  0  0
  140.7589   69.6935  228.8552 H   0  0  0  0  0  0  0  0  0  0  0  0
  139.0462   70.0664  228.4382 H   0  0  0  0  0  0  0  0  0  0  0  0
  141.3181   69.1767  226.6227 H   0  0  0  0  0  0  0  0  0  0  0  0
  139.6520   68.5328  226.7479 H   0  0  0  0  0  0  0  0  0  0  0  0
  139.6784   74.2258  222.6968 H   0  0  0  0  0  0  0  0  0  0  0  0
  1  2  1  0
  2  3  2  0
  3  4  1  0
  4  5  2  0
  5  6  1  0
  6  7  2  0
  6  8  1  0
  8  9  1  0
  9 10  1  0
 10 11  2  0
 11 12  1  0
 12 13  2  0
 13 14  1  0
 14 15  1  0
 15 16  2  0
 15 17  1  0
 17 18  1  0
 18 19  1  0
 19 20  1  0
 20 21  1  0
 21 22  1  0
 22 23  1  0
 23 24  1  0
 24 25  1  0
 14 26  2  0
  9 27  2  0
  7  2  1  0
 26 10  1  0
 27  5  1  0
 25 20  1  0
  1 28  1  0
  1 29  1  0
  1 30  1  0
  3 31  1  0
  4 32  1  0
  7 33  1  0
  8 34  1  0
  8 35  1  0
 11 36  1  0
 12 37  1  0
 13 38  1  0
 17 39  1  0
 18 40  1  0
 18 41  1  0
 19 42  1  0
 19 43  1  0
 20 44  1  0
 21 45  1  0
 21 46  1  0
 22 47  1  0
 22 48  1  0
 23 49  1  0
 23 50  1  0
 24 51  1  0
 24 52  1  0
 25 53  1  0
 25 54  1  0
 26 55  1  0
M  END
>  <smiles>  (35) 
Cc1ccc2c(c1)CC(c1cccc(C(=O)NCCC3CCCCC3)c1)=N2

>  <score_type>  (35) 
oracle

>  <origin>  (35) 
autodockgpu

>  <m_score__min__energy>  (35) 
-8.6999999999999993

>  <m_primary>  (35) 
energy

>  <rmsd>  (35) 
9.221051677878032

>  <m_score__min__rmsd>  (35) 
9.221051677878032

>  <meeko>  (35) 
{"free_energy": -8.57, "intermolecular_energy": -10.07, "internal_energy": -0.97, "cluster_size": 11, "cluster_id": 2, "rank_in_cluster": 5}

>  <energy>  (35) 
-8.26

>  <cluster_rmsd>  (35) 
1.49

>  <cluster>  (35) 
3

$$$$

     RDKit          3D

 55 58  0  0  0  0  0  0  0  0999 V2000
  142.2970   82.5610  217.3620 C   0  0  0  0  0  0  0  0  0  0  0  0
  142.1270   81.3700  218.2310 C   0  0  0  0  0  0  0  0  0  0  0  0
  141.5130   81.4960  219.4590 C   0  0  0  0  0  0  0  0  0  0  0  0
  141.3590   80.3790  220.2640 C   0  0  0  0  0  0  0  0  0  0  0  0
  141.8000   79.1290  219.8790 C   0  0  0  0  0  0  0  0  0  0  0  0
  142.4170   79.0060  218.6390 C   0  0  0  0  0  0  0  0  0  0  0  0
  142.5750   80.1230  217.8300 C   0  0  0  0  0  0  0  0  0  0  0  0
  142.8040   77.5870  218.4410 C   0  0  0  0  0  0  0  0  0  0  0  0
  142.3300   76.9610  219.7030 C   0  0  0  0  0  0  0  0  0  0  0  0
  142.4710   75.5420  220.0200 C   0  0  0  0  0  0  0  0  0  0  0  0
  143.4790   74.7760  219.4740 C   0  0  0  0  0  0  0  0  0  0  0  0
  143.6330   73.4290  219.7580 C   0  0  0  0  0  0  0  0  0  0  0  0
  142.7190   72.8670  220.6300 C   0  0  0  0  0  0  0  0  0  0  0  0
  141.6940   73.5800  221.2060 C   0  0  0  0  0  0  0  0  0  0  0  0
  140.7200   73.0150  222.1240 C   0  0  0  0  0  0  0  0  0  0  0  0
  139.8460   73.7330  222.6770 O   0  0  0  0  0  0  0  0  0  0  0  0
  140.6840   71.6210  222.4620 N   0  0  0  0  0  0  0  0  0  0  0  0
  139.6600   71.2100  223.3870 C   0  0  0  0  0  0  0  0  0  0  0  0
  140.1030   70.2230  224.3990 C   0  0  0  0  0  0  0  0  0  0  0  0
  140.1790   70.6430  225.8090 C   0  0  0  0  0  0  0  0  0  0  0  0
  141.0860   71.8410  226.0300 C   0  0  0  0  0  0  0  0  0  0  0  0
  141.3620   71.9890  227.5340 C   0  0  0  0  0  0  0  0  0  0  0  0
  140.1720   71.5370  228.3430 C   0  0  0  0  0  0  0  0  0  0  0  0
  139.9200   70.0510  228.1780 C   0  0  0  0  0  0  0  0  0  0  0  0
  140.4370   69.5750  226.8180 C   0  0  0  0  0  0  0  0  0  0  0  0
  141.5960   74.9140  220.8810 C   0  0  0  0  0  0  0  0  0  0  0  0
  141.7880   77.8330  220.4620 N   0  0  0  0  0  0  0  0  0  0  0  0
  142.4248   83.4564  217.9880 H   0  0  0  0  0  0  0  0  0  0  0  0
  143.1852   82.4278  216.7269 H   0  0  0  0  0  0  0  0  0  0  0  0
  141.4070   82.6816  216.7269 H   0  0  0  0  0  0  0  0  0  0  0  0
  141.1478   82.4769  219.7974 H   0  0  0  0  0  0  0  0  0  0  0  0
  140.8690   80.4920  221.2424 H   0  0  0  0  0  0  0  0  0  0  0  0
  143.0656   80.0152  216.8514 H   0  0  0  0  0  0  0  0  0  0  0  0
  142.2994   77.1532  217.5651 H   0  0  0  0  0  0  0  0  0  0  0  0
  143.8772   77.4417  218.2485 H   0  0  0  0  0  0  0  0  0  0  0  0
  144.1902   75.2542  218.7845 H   0  0  0  0  0  0  0  0  0  0  0  0
  144.4437   72.8348  219.3111 H   0  0  0  0  0  0  0  0  0  0  0  0
  142.8164   71.7990  220.8746 H   0  0  0  0  0  0  0  0  0  0  0  0
  141.3830   71.0220  222.0110 H   0  0  0  0  0  0  0  0  0  0  0  0
  139.2963   72.1036  223.9155 H   0  0  0  0  0  0  0  0  0  0  0  0
  138.8805   70.7150  222.7892 H   0  0  0  0  0  0  0  0  0  0  0  0
  139.4051   69.3741  224.3509 H   0  0  0  0  0  0  0  0  0  0  0  0
  141.1472   70.0103  224.1264 H   0  0  0  0  0  0  0  0  0  0  0  0
  139.1408   70.9497  226.0044 H   0  0  0  0  0  0  0  0  0  0  0  0
  142.0346   71.6891  225.4942 H   0  0  0  0  0  0  0  0  0  0  0  0
  140.5985   72.7511  225.6504 H   0  0  0  0  0  0  0  0  0  0  0  0
  142.2349   71.3759  227.8027 H   0  0  0  0  0  0  0  0  0  0  0  0
  141.5567   73.0489  227.7545 H   0  0  0  0  0  0  0  0  0  0  0  0
  140.3596   71.7519  229.4054 H   0  0  0  0  0  0  0  0  0  0  0  0
  139.2848   72.0794  227.9844 H   0  0  0  0  0  0  0  0  0  0  0  0
  140.4412   69.5032  228.9769 H   0  0  0  0  0  0  0  0  0  0  0  0
  138.8380   69.8617  228.2370 H   0  0  0  0  0  0  0  0  0  0  0  0
  141.5174   69.3780  226.8808 H   0  0  0  0  0  0  0  0  0  0  0  0
  139.9218   68.6486  226.5240 H   0  0  0  0  0  0  0  0  0  0  0  0
  140.7834   75.5054  221.3281 H   0  0  0  0  0  0  0  0  0  0  0  0
  1  2  1  0
  2  3  2  0
  3  4  1  0
  4  5  2  0
  5  6  1  0
  6  7  2  0
  6  8  1  0
  8  9  1  0
  9 10  1  0
 10 11  2  0
 11 12  1  0
 12 13  2  0
 13 14  1  0
 14 15  1  0
 15 16  2  0
 15 17  1  0
 17 18  1  0
 18 19  1  0
 19 20  1  0
 20 21  1  0
 21 22  1  0
 22 23  1  0
 23 24  1  0
 24 25  1  0
 14 26  2  0
  9 27  2  0
  7  2  1  0
 26 10  1  0
 27  5  1  0
 25 20  1  0
  1 28  1  0
  1 29  1  0
  1 30  1  0
  3 31  1  0
  4 32  1  0
  7 33  1  0
  8 34  1  0
  8 35  1  0
 11 36  1  0
 12 37  1  0
 13 38  1  0
 17 39  1  0
 18 40  1  0
 18 41  1  0
 19 42  1  0
 19 43  1  0
 20 44  1  0
 21 45  1  0
 21 46  1  0
 22 47  1  0
 22 48  1  0
 23 49  1  0
 23 50  1  0
 24 51  1  0
 24 52  1  0
 25 53  1  0
 25 54  1  0
 26 55  1  0
M  END
>  <smiles>  (36) 
Cc1ccc2c(c1)CC(c1cccc(C(=O)NCCC3CCCCC3)c1)=N2

>  <score_type>  (36) 
oracle

>  <origin>  (36) 
autodockgpu

>  <m_score__min__energy>  (36) 
-8.6999999999999993

>  <m_primary>  (36) 
energy

>  <rmsd>  (36) 
8.89714003163049

>  <m_score__min__rmsd>  (36) 
8.89714003163049

>  <meeko>  (36) 
{"free_energy": -8.35, "intermolecular_energy": -9.84, "internal_energy": -0.83, "cluster_size": 3, "cluster_id": 4, "rank_in_cluster": 2}

>  <energy>  (36) 
-8.26

>  <cluster_rmsd>  (36) 
1.33

>  <cluster>  (36) 
3

$$$$

     RDKit          3D

 55 58  0  0  0  0  0  0  0  0999 V2000
  141.4290   68.1510  228.7410 C   0  0  0  0  0  0  0  0  0  0  0  0
  140.7830   68.5390  227.4620 C   0  0  0  0  0  0  0  0  0  0  0  0
  139.9760   67.6410  226.7980 C   0  0  0  0  0  0  0  0  0  0  0  0
  139.3770   68.0110  225.6050 C   0  0  0  0  0  0  0  0  0  0  0  0
  139.5600   69.2610  225.0480 C   0  0  0  0  0  0  0  0  0  0  0  0
  140.3740   70.1650  225.7220 C   0  0  0  0  0  0  0  0  0  0  0  0
  140.9760   69.7970  226.9170 C   0  0  0  0  0  0  0  0  0  0  0  0
  140.4230   71.4290  224.9450 C   0  0  0  0  0  0  0  0  0  0  0  0
  139.5490   71.1090  223.7850 C   0  0  0  0  0  0  0  0  0  0  0  0
  139.2570   72.0380  222.6970 C   0  0  0  0  0  0  0  0  0  0  0  0
  138.0460   72.0210  222.0360 C   0  0  0  0  0  0  0  0  0  0  0  0
  137.7460   72.8910  221.0010 C   0  0  0  0  0  0  0  0  0  0  0  0
  138.7260   73.7980  220.6450 C   0  0  0  0  0  0  0  0  0  0  0  0
  139.9520   73.8630  221.2660 C   0  0  0  0  0  0  0  0  0  0  0  0
  140.9990   74.8050  220.9110 C   0  0  0  0  0  0  0  0  0  0  0  0
  142.2000   74.6000  221.2270 O   0  0  0  0  0  0  0  0  0  0  0  0
  140.7450   76.0180  220.1870 N   0  0  0  0  0  0  0  0  0  0  0  0
  141.8850   76.8520  219.9100 C   0  0  0  0  0  0  0  0  0  0  0  0
  141.6410   78.3040  220.0680 C   0  0  0  0  0  0  0  0  0  0  0  0
  141.8190   78.9080  221.4000 C   0  0  0  0  0  0  0  0  0  0  0  0
  141.0960   78.1540  222.5030 C   0  0  0  0  0  0  0  0  0  0  0  0
  141.0590   79.0270  223.7650 C   0  0  0  0  0  0  0  0  0  0  0  0
  142.2940   79.8890  223.8560 C   0  0  0  0  0  0  0  0  0  0  0  0
  142.3480   80.9030  222.7310 C   0  0  0  0  0  0  0  0  0  0  0  0
  141.5890   80.3790  221.5100 C   0  0  0  0  0  0  0  0  0  0  0  0
  140.1870   72.9700  222.2870 C   0  0  0  0  0  0  0  0  0  0  0  0
  139.0970   69.9180  223.8760 N   0  0  0  0  0  0  0  0  0  0  0  0
  140.8226   68.5152  229.5834 H   0  0  0  0  0  0  0  0  0  0  0  0
  141.5091   67.0552  228.7937 H   0  0  0  0  0  0  0  0  0  0  0  0
  142.4340   68.5951  228.7937 H   0  0  0  0  0  0  0  0  0  0  0  0
  139.8084   66.6361  227.2128 H   0  0  0  0  0  0  0  0  0  0  0  0
  138.7347   67.2854  225.0845 H   0  0  0  0  0  0  0  0  0  0  0  0
  141.6191   70.5190  227.4415 H   0  0  0  0  0  0  0  0  0  0  0  0
  140.0229   72.2723  225.5270 H   0  0  0  0  0  0  0  0  0  0  0  0
  141.4402   71.7389  224.6634 H   0  0  0  0  0  0  0  0  0  0  0  0
  137.2875   71.2861  222.3437 H   0  0  0  0  0  0  0  0  0  0  0  0
  136.7740   72.8615  220.4869 H   0  0  0  0  0  0  0  0  0  0  0  0
  138.5158   74.5016  219.8260 H   0  0  0  0  0  0  0  0  0  0  0  0
  139.7720   76.1940  219.9140 H   0  0  0  0  0  0  0  0  0  0  0  0
  142.6953   76.5639  220.5958 H   0  0  0  0  0  0  0  0  0  0  0  0
  142.1375   76.6923  218.8514 H   0  0  0  0  0  0  0  0  0  0  0  0
  142.3254   78.8244  219.3819 H   0  0  0  0  0  0  0  0  0  0  0  0
  140.5666   78.4194  219.8625 H   0  0  0  0  0  0  0  0  0  0  0  0
  142.9027   78.7939  221.5506 H   0  0  0  0  0  0  0  0  0  0  0  0
  140.0688   77.9265  222.1819 H   0  0  0  0  0  0  0  0  0  0  0  0
  141.6243   77.2133  222.7176 H   0  0  0  0  0  0  0  0  0  0  0  0
  140.1697   79.6734  223.7305 H   0  0  0  0  0  0  0  0  0  0  0  0
  141.0211   78.3707  224.6470 H   0  0  0  0  0  0  0  0  0  0  0  0
  142.2874   80.4225  224.8180 H   0  0  0  0  0  0  0  0  0  0  0  0
  143.1764   79.2372  223.7756 H   0  0  0  0  0  0  0  0  0  0  0  0
  141.8888   81.8441  223.0678 H   0  0  0  0  0  0  0  0  0  0  0  0
  143.3984   81.0756  222.4537 H   0  0  0  0  0  0  0  0  0  0  0  0
  140.5137   80.5779  221.6289 H   0  0  0  0  0  0  0  0  0  0  0  0
  141.9468   80.8839  220.6006 H   0  0  0  0  0  0  0  0  0  0  0  0
  141.1602   73.0013  222.7987 H   0  0  0  0  0  0  0  0  0  0  0  0
  1  2  1  0
  2  3  2  0
  3  4  1  0
  4  5  2  0
  5  6  1  0
  6  7  2  0
  6  8  1  0
  8  9  1  0
  9 10  1  0
 10 11  2  0
 11 12  1  0
 12 13  2  0
 13 14  1  0
 14 15  1  0
 15 16  2  0
 15 17  1  0
 17 18  1  0
 18 19  1  0
 19 20  1  0
 20 21  1  0
 21 22  1  0
 22 23  1  0
 23 24  1  0
 24 25  1  0
 14 26  2  0
  9 27  2  0
  7  2  1  0
 26 10  1  0
 27  5  1  0
 25 20  1  0
  1 28  1  0
  1 29  1  0
  1 30  1  0
  3 31  1  0
  4 32  1  0
  7 33  1  0
  8 34  1  0
  8 35  1  0
 11 36  1  0
 12 37  1  0
 13 38  1  0
 17 39  1  0
 18 40  1  0
 18 41  1  0
 19 42  1  0
 19 43  1  0
 20 44  1  0
 21 45  1  0
 21 46  1  0
 22 47  1  0
 22 48  1  0
 23 49  1  0
 23 50  1  0
 24 51  1  0
 24 52  1  0
 25 53  1  0
 25 54  1  0
 26 55  1  0
M  END
>  <smiles>  (37) 
Cc1ccc2c(c1)CC(c1cccc(C(=O)NCCC3CCCCC3)c1)=N2

>  <score_type>  (37) 
oracle

>  <origin>  (37) 
autodockgpu

>  <m_score__min__energy>  (37) 
-8.6999999999999993

>  <m_primary>  (37) 
energy

>  <rmsd>  (37) 
4.769052125141309

>  <m_score__min__rmsd>  (37) 
4.769052125141309

>  <meeko>  (37) 
{"free_energy": -8.28, "intermolecular_energy": -9.77, "internal_energy": -0.92, "cluster_size": 23, "cluster_id": 3, "rank_in_cluster": 10}

>  <energy>  (37) 
-8.26

>  <cluster_rmsd>  (37) 
1.48

>  <cluster>  (37) 
3

$$$$

     RDKit          3D

 55 58  0  0  0  0  0  0  0  0999 V2000
  137.7020   81.5140  224.2270 C   0  0  0  0  0  0  0  0  0  0  0  0
  138.7310   80.5480  223.7680 C   0  0  0  0  0  0  0  0  0  0  0  0
  140.0650   80.8930  223.8070 C   0  0  0  0  0  0  0  0  0  0  0  0
  141.0180   79.9850  223.3770 C   0  0  0  0  0  0  0  0  0  0  0  0
  140.6810   78.7330  222.9050 C   0  0  0  0  0  0  0  0  0  0  0  0
  139.3350   78.3880  222.8690 C   0  0  0  0  0  0  0  0  0  0  0  0
  138.3760   79.2950  223.2980 C   0  0  0  0  0  0  0  0  0  0  0  0
  139.2130   77.0100  222.3310 C   0  0  0  0  0  0  0  0  0  0  0  0
  140.6340   76.6500  222.0840 C   0  0  0  0  0  0  0  0  0  0  0  0
  141.0740   75.3680  221.5420 C   0  0  0  0  0  0  0  0  0  0  0  0
  142.0640   75.2880  220.5850 C   0  0  0  0  0  0  0  0  0  0  0  0
  142.4980   74.0840  220.0560 C   0  0  0  0  0  0  0  0  0  0  0  0
  141.8900   72.9380  220.5330 C   0  0  0  0  0  0  0  0  0  0  0  0
  140.8990   72.9540  221.4860 C   0  0  0  0  0  0  0  0  0  0  0  0
  140.2420   71.7650  222.0030 C   0  0  0  0  0  0  0  0  0  0  0  0
  140.5380   70.6170  221.5820 O   0  0  0  0  0  0  0  0  0  0  0  0
  139.2260   71.8130  223.0150 N   0  0  0  0  0  0  0  0  0  0  0  0
  138.6690   70.5510  223.4260 C   0  0  0  0  0  0  0  0  0  0  0  0
  139.5320   69.7630  224.3350 C   0  0  0  0  0  0  0  0  0  0  0  0
  139.8970   70.3410  225.6400 C   0  0  0  0  0  0  0  0  0  0  0  0
  140.8590   71.5120  225.5300 C   0  0  0  0  0  0  0  0  0  0  0  0
  141.4330   71.8210  226.9200 C   0  0  0  0  0  0  0  0  0  0  0  0
  140.4180   71.5250  227.9960 C   0  0  0  0  0  0  0  0  0  0  0  0
  140.1020   70.0440  228.0690 C   0  0  0  0  0  0  0  0  0  0  0  0
  140.3250   69.3880  226.7050 C   0  0  0  0  0  0  0  0  0  0  0  0
  140.5130   74.1830  221.9700 C   0  0  0  0  0  0  0  0  0  0  0  0
  141.4050   77.6150  222.4090 N   0  0  0  0  0  0  0  0  0  0  0  0
  137.6816   81.5331  225.3266 H   0  0  0  0  0  0  0  0  0  0  0  0
  137.9456   82.5172  223.8473 H   0  0  0  0  0  0  0  0  0  0  0  0
  136.7161   81.2076  223.8473 H   0  0  0  0  0  0  0  0  0  0  0  0
  140.3704   81.8828  224.1772 H   0  0  0  0  0  0  0  0  0  0  0  0
  142.0794   80.2715  223.4129 H   0  0  0  0  0  0  0  0  0  0  0  0
  137.3133   79.0129  223.2639 H   0  0  0  0  0  0  0  0  0  0  0  0
  138.7507   76.3335  223.0649 H   0  0  0  0  0  0  0  0  0  0  0  0
  138.5744   76.9364  221.4384 H   0  0  0  0  0  0  0  0  0  0  0  0
  142.5280   76.2190  220.2272 H   0  0  0  0  0  0  0  0  0  0  0  0
  143.2889   74.0417  219.2926 H   0  0  0  0  0  0  0  0  0  0  0  0
  142.2144   71.9668  220.1310 H   0  0  0  0  0  0  0  0  0  0  0  0
  138.9820   72.7410  223.3760 H   0  0  0  0  0  0  0  0  0  0  0  0
  137.7172   70.7476  223.9412 H   0  0  0  0  0  0  0  0  0  0  0  0
  138.5490   69.9508  222.5120 H   0  0  0  0  0  0  0  0  0  0  0  0
  139.0115   68.8147  224.5348 H   0  0  0  0  0  0  0  0  0  0  0  0
  140.4891   69.6889  223.7980 H   0  0  0  0  0  0  0  0  0  0  0  0
  138.9256   70.7174  225.9931 H   0  0  0  0  0  0  0  0  0  0  0  0
  141.6776   71.2532  224.8424 H   0  0  0  0  0  0  0  0  0  0  0  0
  140.3274   72.3940  225.1435 H   0  0  0  0  0  0  0  0  0  0  0  0
  142.3267   71.2018  227.0870 H   0  0  0  0  0  0  0  0  0  0  0  0
  141.6934   72.8888  226.9648 H   0  0  0  0  0  0  0  0  0  0  0  0
  140.8194   71.8531  228.9661 H   0  0  0  0  0  0  0  0  0  0  0  0
  139.4905   72.0644  227.7535 H   0  0  0  0  0  0  0  0  0  0  0  0
  140.7587   69.5686  228.8125 H   0  0  0  0  0  0  0  0  0  0  0  0
  139.0493   69.9157  228.3610 H   0  0  0  0  0  0  0  0  0  0  0  0
  141.3911   69.1475  226.5798 H   0  0  0  0  0  0  0  0  0  0  0  0
  139.7385   68.4600  226.6352 H   0  0  0  0  0  0  0  0  0  0  0  0
  139.7213   74.2220  222.7327 H   0  0  0  0  0  0  0  0  0  0  0  0
  1  2  1  0
  2  3  2  0
  3  4  1  0
  4  5  2  0
  5  6  1  0
  6  7  2  0
  6  8  1  0
  8  9  1  0
  9 10  1  0
 10 11  2  0
 11 12  1  0
 12 13  2  0
 13 14  1  0
 14 15  1  0
 15 16  2  0
 15 17  1  0
 17 18  1  0
 18 19  1  0
 19 20  1  0
 20 21  1  0
 21 22  1  0
 22 23  1  0
 23 24  1  0
 24 25  1  0
 14 26  2  0
  9 27  2  0
  7  2  1  0
 26 10  1  0
 27  5  1  0
 25 20  1  0
  1 28  1  0
  1 29  1  0
  1 30  1  0
  3 31  1  0
  4 32  1  0
  7 33  1  0
  8 34  1  0
  8 35  1  0
 11 36  1  0
 12 37  1  0
 13 38  1  0
 17 39  1  0
 18 40  1  0
 18 41  1  0
 19 42  1  0
 19 43  1  0
 20 44  1  0
 21 45  1  0
 21 46  1  0
 22 47  1  0
 22 48  1  0
 23 49  1  0
 23 50  1  0
 24 51  1  0
 24 52  1  0
 25 53  1  0
 25 54  1  0
 26 55  1  0
M  END
>  <smiles>  (38) 
Cc1ccc2c(c1)CC(c1cccc(C(=O)NCCC3CCCCC3)c1)=N2

>  <score_type>  (38) 
oracle

>  <origin>  (38) 
autodockgpu

>  <m_score__min__energy>  (38) 
-8.6999999999999993

>  <m_primary>  (38) 
energy

>  <rmsd>  (38) 
9.23985004094145

>  <m_score__min__rmsd>  (38) 
9.23985004094145

>  <meeko>  (38) 
{"free_energy": -8.58, "intermolecular_energy": -10.07, "internal_energy": -0.99, "cluster_size": 11, "cluster_id": 2, "rank_in_cluster": 4}

>  <energy>  (38) 
-8.25

>  <cluster_rmsd>  (38) 
1.42

>  <cluster>  (38) 
3

$$$$

     RDKit          3D

 55 58  0  0  0  0  0  0  0  0999 V2000
  132.7770   79.2840  227.0190 C   0  0  0  0  0  0  0  0  0  0  0  0
  132.6780   77.8060  227.1110 C   0  0  0  0  0  0  0  0  0  0  0  0
  131.7410   77.2290  227.9410 C   0  0  0  0  0  0  0  0  0  0  0  0
  131.6550   75.8490  228.0200 C   0  0  0  0  0  0  0  0  0  0  0  0
  132.4810   75.0180  227.2910 C   0  0  0  0  0  0  0  0  0  0  0  0
  133.4240   75.6040  226.4540 C   0  0  0  0  0  0  0  0  0  0  0  0
  133.5140   76.9870  226.3720 C   0  0  0  0  0  0  0  0  0  0  0  0
  134.1910   74.5280  225.7770 C   0  0  0  0  0  0  0  0  0  0  0  0
  133.5610   73.3040  226.3380 C   0  0  0  0  0  0  0  0  0  0  0  0
  133.9580   71.9420  225.9890 C   0  0  0  0  0  0  0  0  0  0  0  0
  133.2430   70.8460  226.4230 C   0  0  0  0  0  0  0  0  0  0  0  0
  133.6000   69.5460  226.1070 C   0  0  0  0  0  0  0  0  0  0  0  0
  134.7260   69.3820  225.3220 C   0  0  0  0  0  0  0  0  0  0  0  0
  135.4790   70.4360  224.8590 C   0  0  0  0  0  0  0  0  0  0  0  0
  136.6660   70.2910  224.0330 C   0  0  0  0  0  0  0  0  0  0  0  0
  136.9090   69.2220  223.4170 O   0  0  0  0  0  0  0  0  0  0  0  0
  137.6310   71.3400  223.8640 N   0  0  0  0  0  0  0  0  0  0  0  0
  138.7550   71.0470  223.0150 C   0  0  0  0  0  0  0  0  0  0  0  0
  139.9290   70.4820  223.7190 C   0  0  0  0  0  0  0  0  0  0  0  0
  139.8840   70.3680  225.1870 C   0  0  0  0  0  0  0  0  0  0  0  0
  140.6610   71.4610  225.8990 C   0  0  0  0  0  0  0  0  0  0  0  0
  140.8350   71.0730  227.3750 C   0  0  0  0  0  0  0  0  0  0  0  0
  139.6480   70.2810  227.8630 C   0  0  0  0  0  0  0  0  0  0  0  0
  139.5450   68.9420  227.1580 C   0  0  0  0  0  0  0  0  0  0  0  0
  140.1810   69.0260  225.7690 C   0  0  0  0  0  0  0  0  0  0  0  0
  135.0700   71.7020  225.2100 C   0  0  0  0  0  0  0  0  0  0  0  0
  132.6330   73.6110  227.1590 N   0  0  0  0  0  0  0  0  0  0  0  0
  132.8057   79.7133  228.0314 H   0  0  0  0  0  0  0  0  0  0  0  0
  133.6954   79.5570  226.4787 H   0  0  0  0  0  0  0  0  0  0  0  0
  131.9032   79.6771  226.4787 H   0  0  0  0  0  0  0  0  0  0  0  0
  131.0658   77.8606  228.5369 H   0  0  0  0  0  0  0  0  0  0  0  0
  130.9032   75.4004  228.6860 H   0  0  0  0  0  0  0  0  0  0  0  0
  134.2639   77.4405  225.7071 H   0  0  0  0  0  0  0  0  0  0  0  0
  134.0693   74.5761  224.6848 H   0  0  0  0  0  0  0  0  0  0  0  0
  135.2771   74.5847  225.9418 H   0  0  0  0  0  0  0  0  0  0  0  0
  132.3518   71.0112  227.0463 H   0  0  0  0  0  0  0  0  0  0  0  0
  133.0156   68.6850  226.4635 H   0  0  0  0  0  0  0  0  0  0  0  0
  135.0344   68.3604  225.0550 H   0  0  0  0  0  0  0  0  0  0  0  0
  137.4400   72.2210  224.3520 H   0  0  0  0  0  0  0  0  0  0  0  0
  138.4302   70.3225  222.2537 H   0  0  0  0  0  0  0  0  0  0  0  0
  139.0805   72.0065  222.5868 H   0  0  0  0  0  0  0  0  0  0  0  0
  140.0899   69.4696  223.3200 H   0  0  0  0  0  0  0  0  0  0  0  0
  140.7306   71.2116  223.5314 H   0  0  0  0  0  0  0  0  0  0  0  0
  138.8122   70.5152  225.3861 H   0  0  0  0  0  0  0  0  0  0  0  0
  141.6490   71.5764  225.4294 H   0  0  0  0  0  0  0  0  0  0  0  0
  140.1131   72.4122  225.8277 H   0  0  0  0  0  0  0  0  0  0  0  0
  141.7444   70.4637  227.4831 H   0  0  0  0  0  0  0  0  0  0  0  0
  140.9169   71.9918  227.9743 H   0  0  0  0  0  0  0  0  0  0  0  0
  139.7536   70.1084  228.9442 H   0  0  0  0  0  0  0  0  0  0  0  0
  138.7362   70.8565  227.6454 H   0  0  0  0  0  0  0  0  0  0  0  0
  140.0680   68.1777  227.7515 H   0  0  0  0  0  0  0  0  0  0  0  0
  138.4837   68.6733  227.0512 H   0  0  0  0  0  0  0  0  0  0  0  0
  141.2696   68.8910  225.8516 H   0  0  0  0  0  0  0  0  0  0  0  0
  139.7712   68.2374  225.1208 H   0  0  0  0  0  0  0  0  0  0  0  0
  135.6566   72.5613  224.8531 H   0  0  0  0  0  0  0  0  0  0  0  0
  1  2  1  0
  2  3  2  0
  3  4  1  0
  4  5  2  0
  5  6  1  0
  6  7  2  0
  6  8  1  0
  8  9  1  0
  9 10  1  0
 10 11  2  0
 11 12  1  0
 12 13  2  0
 13 14  1  0
 14 15  1  0
 15 16  2  0
 15 17  1  0
 17 18  1  0
 18 19  1  0
 19 20  1  0
 20 21  1  0
 21 22  1  0
 22 23  1  0
 23 24  1  0
 24 25  1  0
 14 26  2  0
  9 27  2  0
  7  2  1  0
 26 10  1  0
 27  5  1  0
 25 20  1  0
  1 28  1  0
  1 29  1  0
  1 30  1  0
  3 31  1  0
  4 32  1  0
  7 33  1  0
  8 34  1  0
  8 35  1  0
 11 36  1  0
 12 37  1  0
 13 38  1  0
 17 39  1  0
 18 40  1  0
 18 41  1  0
 19 42  1  0
 19 43  1  0
 20 44  1  0
 21 45  1  0
 21 46  1  0
 22 47  1  0
 22 48  1  0
 23 49  1  0
 23 50  1  0
 24 51  1  0
 24 52  1  0
 25 53  1  0
 25 54  1  0
 26 55  1  0
M  END
>  <smiles>  (39) 
Cc1ccc2c(c1)CC(c1cccc(C(=O)NCCC3CCCCC3)c1)=N2

>  <score_type>  (39) 
oracle

>  <origin>  (39) 
autodockgpu

>  <m_score__min__energy>  (39) 
-8.6999999999999993

>  <m_primary>  (39) 
energy

>  <rmsd>  (39) 
11.156329414847143

>  <m_score__min__rmsd>  (39) 
11.156329414847143

>  <meeko>  (39) 
{"free_energy": -7.97, "intermolecular_energy": -9.47, "internal_energy": -1.2, "cluster_size": 11, "cluster_id": 1, "rank_in_cluster": 10}

>  <energy>  (39) 
-8.24

>  <cluster_rmsd>  (39) 
1.54

>  <cluster>  (39) 
3

$$$$

     RDKit          3D

 55 58  0  0  0  0  0  0  0  0999 V2000
  130.7520   78.0130  228.6640 C   0  0  0  0  0  0  0  0  0  0  0  0
  131.6830   77.0670  227.9990 C   0  0  0  0  0  0  0  0  0  0  0  0
  132.8500   77.5340  227.4330 C   0  0  0  0  0  0  0  0  0  0  0  0
  133.7130   76.6440  226.8150 C   0  0  0  0  0  0  0  0  0  0  0  0
  133.4470   75.2910  226.7430 C   0  0  0  0  0  0  0  0  0  0  0  0
  132.2690   74.8250  227.3160 C   0  0  0  0  0  0  0  0  0  0  0  0
  131.4010   75.7140  227.9360 C   0  0  0  0  0  0  0  0  0  0  0  0
  132.1950   73.3560  227.1200 C   0  0  0  0  0  0  0  0  0  0  0  0
  133.4570   73.0820  226.3820 C   0  0  0  0  0  0  0  0  0  0  0  0
  133.8770   71.7560  225.9370 C   0  0  0  0  0  0  0  0  0  0  0  0
  133.0810   70.6450  226.1220 C   0  0  0  0  0  0  0  0  0  0  0  0
  133.4570   69.3780  225.7100 C   0  0  0  0  0  0  0  0  0  0  0  0
  134.6880   69.2630  225.0910 C   0  0  0  0  0  0  0  0  0  0  0  0
  135.5240   70.3330  224.8790 C   0  0  0  0  0  0  0  0  0  0  0  0
  136.8230   70.2400  224.2320 C   0  0  0  0  0  0  0  0  0  0  0  0
  137.2730   69.1400  223.8200 O   0  0  0  0  0  0  0  0  0  0  0  0
  137.6720   71.3780  224.0200 N   0  0  0  0  0  0  0  0  0  0  0  0
  138.9290   71.1280  223.3660 C   0  0  0  0  0  0  0  0  0  0  0  0
  140.1140   71.2230  224.2500 C   0  0  0  0  0  0  0  0  0  0  0  0
  140.0110   70.7090  225.6260 C   0  0  0  0  0  0  0  0  0  0  0  0
  140.7110   71.5880  226.6490 C   0  0  0  0  0  0  0  0  0  0  0  0
  140.8390   70.8150  227.9700 C   0  0  0  0  0  0  0  0  0  0  0  0
  139.6660   69.8860  228.1610 C   0  0  0  0  0  0  0  0  0  0  0  0
  139.6490   68.7890  227.1140 C   0  0  0  0  0  0  0  0  0  0  0  0
  140.3390   69.2690  225.8350 C   0  0  0  0  0  0  0  0  0  0  0  0
  135.0910   71.5650  225.3130 C   0  0  0  0  0  0  0  0  0  0  0  0
  134.1130   74.1620  226.1950 N   0  0  0  0  0  0  0  0  0  0  0  0
  130.8479   77.9155  229.7555 H   0  0  0  0  0  0  0  0  0  0  0  0
  130.9993   79.0422  228.3646 H   0  0  0  0  0  0  0  0  0  0  0  0
  129.7190   77.7822  228.3646 H   0  0  0  0  0  0  0  0  0  0  0  0
  133.0942   78.6058  227.4718 H   0  0  0  0  0  0  0  0  0  0  0  0
  134.6412   77.0279  226.3666 H   0  0  0  0  0  0  0  0  0  0  0  0
  130.4713   75.3352  228.3857 H   0  0  0  0  0  0  0  0  0  0  0  0
  132.1709   72.8245  228.0827 H   0  0  0  0  0  0  0  0  0  0  0  0
  131.2895   73.0227  226.5918 H   0  0  0  0  0  0  0  0  0  0  0  0
  132.1070   70.7709  226.6174 H   0  0  0  0  0  0  0  0  0  0  0  0
  132.8074   68.5044  225.8676 H   0  0  0  0  0  0  0  0  0  0  0  0
  135.0135   68.2683  224.7523 H   0  0  0  0  0  0  0  0  0  0  0  0
  137.3130   72.2830  224.3410 H   0  0  0  0  0  0  0  0  0  0  0  0
  138.8987   70.1140  222.9407 H   0  0  0  0  0  0  0  0  0  0  0  0
  139.0452   71.9125  222.6037 H   0  0  0  0  0  0  0  0  0  0  0  0
  140.9298   70.6725  223.7587 H   0  0  0  0  0  0  0  0  0  0  0  0
  140.2658   72.3048  224.3790 H   0  0  0  0  0  0  0  0  0  0  0  0
  138.9264   70.7638  225.8011 H   0  0  0  0  0  0  0  0  0  0  0  0
  141.7121   71.8567  226.2807 H   0  0  0  0  0  0  0  0  0  0  0  0
  140.1270   72.5060  226.8112 H   0  0  0  0  0  0  0  0  0  0  0  0
  141.7676   70.2255  227.9547 H   0  0  0  0  0  0  0  0  0  0  0  0
  140.8577   71.5358  228.8007 H   0  0  0  0  0  0  0  0  0  0  0  0
  139.7324   69.4270  229.1584 H   0  0  0  0  0  0  0  0  0  0  0  0
  138.7412   70.4730  228.0606 H   0  0  0  0  0  0  0  0  0  0  0  0
  140.1783   67.9068  227.5033 H   0  0  0  0  0  0  0  0  0  0  0  0
  138.6054   68.5290  226.8832 H   0  0  0  0  0  0  0  0  0  0  0  0
  141.4278   69.1480  225.9341 H   0  0  0  0  0  0  0  0  0  0  0  0
  139.9902   68.6768  224.9762 H   0  0  0  0  0  0  0  0  0  0  0  0
  135.7431   72.4366  225.1548 H   0  0  0  0  0  0  0  0  0  0  0  0
  1  2  1  0
  2  3  2  0
  3  4  1  0
  4  5  2  0
  5  6  1  0
  6  7  2  0
  6  8  1  0
  8  9  1  0
  9 10  1  0
 10 11  2  0
 11 12  1  0
 12 13  2  0
 13 14  1  0
 14 15  1  0
 15 16  2  0
 15 17  1  0
 17 18  1  0
 18 19  1  0
 19 20  1  0
 20 21  1  0
 21 22  1  0
 22 23  1  0
 23 24  1  0
 24 25  1  0
 14 26  2  0
  9 27  2  0
  7  2  1  0
 26 10  1  0
 27  5  1  0
 25 20  1  0
  1 28  1  0
  1 29  1  0
  1 30  1  0
  3 31  1  0
  4 32  1  0
  7 33  1  0
  8 34  1  0
  8 35  1  0
 11 36  1  0
 12 37  1  0
 13 38  1  0
 17 39  1  0
 18 40  1  0
 18 41  1  0
 19 42  1  0
 19 43  1  0
 20 44  1  0
 21 45  1  0
 21 46  1  0
 22 47  1  0
 22 48  1  0
 23 49  1  0
 23 50  1  0
 24 51  1  0
 24 52  1  0
 25 53  1  0
 25 54  1  0
 26 55  1  0
M  END
>  <smiles>  (40) 
Cc1ccc2c(c1)CC(c1cccc(C(=O)NCCC3CCCCC3)c1)=N2

>  <score_type>  (40) 
oracle

>  <origin>  (40) 
autodockgpu

>  <m_score__min__energy>  (40) 
-8.6999999999999993

>  <m_primary>  (40) 
energy

>  <rmsd>  (40) 
11.278492977855969

>  <m_score__min__rmsd>  (40) 
11.278492977855969

>  <meeko>  (40) 
{"free_energy": -8.62, "intermolecular_energy": -10.11, "internal_energy": -1.16, "cluster_size": 11, "cluster_id": 1, "rank_in_cluster": 2}

>  <energy>  (40) 
-8.18

>  <cluster_rmsd>  (40) 
1.21

>  <cluster>  (40) 
3

$$$$

     RDKit          3D

 55 58  0  0  0  0  0  0  0  0999 V2000
  141.0370   67.9920  229.0370 C   0  0  0  0  0  0  0  0  0  0  0  0
  140.8860   69.0710  228.0280 C   0  0  0  0  0  0  0  0  0  0  0  0
  141.1890   70.3730  228.3630 C   0  0  0  0  0  0  0  0  0  0  0  0
  141.0440   71.3730  227.4160 C   0  0  0  0  0  0  0  0  0  0  0  0
  140.6050   71.1140  226.1340 C   0  0  0  0  0  0  0  0  0  0  0  0
  140.3020   69.7990  225.8000 C   0  0  0  0  0  0  0  0  0  0  0  0
  140.4440   68.7930  226.7460 C   0  0  0  0  0  0  0  0  0  0  0  0
  139.8550   69.7600  224.3850 C   0  0  0  0  0  0  0  0  0  0  0  0
  139.9500   71.1910  223.9940 C   0  0  0  0  0  0  0  0  0  0  0  0
  139.6140   71.7050  222.6690 C   0  0  0  0  0  0  0  0  0  0  0  0
  139.2440   70.8640  221.6400 C   0  0  0  0  0  0  0  0  0  0  0  0
  138.9210   71.3280  220.3750 C   0  0  0  0  0  0  0  0  0  0  0  0
  138.9850   72.6940  220.1760 C   0  0  0  0  0  0  0  0  0  0  0  0
  139.3460   73.5800  221.1630 C   0  0  0  0  0  0  0  0  0  0  0  0
  139.4220   75.0200  220.9810 C   0  0  0  0  0  0  0  0  0  0  0  0
  140.0340   75.5260  220.0050 O   0  0  0  0  0  0  0  0  0  0  0  0
  138.8150   75.9540  221.8860 N   0  0  0  0  0  0  0  0  0  0  0  0
  138.9760   77.3500  221.5730 C   0  0  0  0  0  0  0  0  0  0  0  0
  139.1320   78.2320  222.7520 C   0  0  0  0  0  0  0  0  0  0  0  0
  140.2310   79.2130  222.7590 C   0  0  0  0  0  0  0  0  0  0  0  0
  141.5210   78.6640  223.3450 C   0  0  0  0  0  0  0  0  0  0  0  0
  142.4830   79.8300  223.6170 C   0  0  0  0  0  0  0  0  0  0  0  0
  142.2940   80.9280  222.6010 C   0  0  0  0  0  0  0  0  0  0  0  0
  140.9250   81.5680  222.7220 C   0  0  0  0  0  0  0  0  0  0  0  0
  139.9230   80.5680  223.3030 C   0  0  0  0  0  0  0  0  0  0  0  0
  139.6550   73.0560  222.3970 C   0  0  0  0  0  0  0  0  0  0  0  0
  140.3620   71.8990  224.9740 N   0  0  0  0  0  0  0  0  0  0  0  0
  140.9766   68.4235  230.0471 H   0  0  0  0  0  0  0  0  0  0  0  0
  140.2336   67.2522  228.9057 H   0  0  0  0  0  0  0  0  0  0  0  0
  142.0126   67.5011  228.9057 H   0  0  0  0  0  0  0  0  0  0  0  0
  141.5435   70.6162  229.3755 H   0  0  0  0  0  0  0  0  0  0  0  0
  141.2871   72.4088  227.6954 H   0  0  0  0  0  0  0  0  0  0  0  0
  140.2008   67.7559  226.4718 H   0  0  0  0  0  0  0  0  0  0  0  0
  140.5196   69.1329  223.7726 H   0  0  0  0  0  0  0  0  0  0  0  0
  138.8532   69.3271  224.2471 H   0  0  0  0  0  0  0  0  0  0  0  0
  139.2038   69.7815  221.8314 H   0  0  0  0  0  0  0  0  0  0  0  0
  138.6275   70.6414  219.5673 H   0  0  0  0  0  0  0  0  0  0  0  0
  138.7353   73.0910  219.1810 H   0  0  0  0  0  0  0  0  0  0  0  0
  138.3040   75.5560  222.6810 H   0  0  0  0  0  0  0  0  0  0  0  0
  139.8704   77.4592  220.9421 H   0  0  0  0  0  0  0  0  0  0  0  0
  138.0508   77.6650  221.0682 H   0  0  0  0  0  0  0  0  0  0  0  0
  138.1937   78.7956  222.8616 H   0  0  0  0  0  0  0  0  0  0  0  0
  139.3834   77.5422  223.5712 H   0  0  0  0  0  0  0  0  0  0  0  0
  140.3804   79.3851  221.6829 H   0  0  0  0  0  0  0  0  0  0  0  0
  141.3038   78.1379  224.2863 H   0  0  0  0  0  0  0  0  0  0  0  0
  141.9813   77.9603  222.6358 H   0  0  0  0  0  0  0  0  0  0  0  0
  142.2880   80.2315  224.6224 H   0  0  0  0  0  0  0  0  0  0  0  0
  143.5160   79.4586  223.5469 H   0  0  0  0  0  0  0  0  0  0  0  0
  143.0636   81.6978  222.7594 H   0  0  0  0  0  0  0  0  0  0  0  0
  142.3813   80.4875  221.5968 H   0  0  0  0  0  0  0  0  0  0  0  0
  140.9905   82.4433  223.3849 H   0  0  0  0  0  0  0  0  0  0  0  0
  140.5843   81.8778  221.7230 H   0  0  0  0  0  0  0  0  0  0  0  0
  140.0067   80.5546  224.3997 H   0  0  0  0  0  0  0  0  0  0  0  0
  138.8989   80.8594  223.0268 H   0  0  0  0  0  0  0  0  0  0  0  0
  139.9478   73.7456  223.2024 H   0  0  0  0  0  0  0  0  0  0  0  0
  1  2  1  0
  2  3  2  0
  3  4  1  0
  4  5  2  0
  5  6  1  0
  6  7  2  0
  6  8  1  0
  8  9  1  0
  9 10  1  0
 10 11  2  0
 11 12  1  0
 12 13  2  0
 13 14  1  0
 14 15  1  0
 15 16  2  0
 15 17  1  0
 17 18  1  0
 18 19  1  0
 19 20  1  0
 20 21  1  0
 21 22  1  0
 22 23  1  0
 23 24  1  0
 24 25  1  0
 14 26  2  0
  9 27  2  0
  7  2  1  0
 26 10  1  0
 27  5  1  0
 25 20  1  0
  1 28  1  0
  1 29  1  0
  1 30  1  0
  3 31  1  0
  4 32  1  0
  7 33  1  0
  8 34  1  0
  8 35  1  0
 11 36  1  0
 12 37  1  0
 13 38  1  0
 17 39  1  0
 18 40  1  0
 18 41  1  0
 19 42  1  0
 19 43  1  0
 20 44  1  0
 21 45  1  0
 21 46  1  0
 22 47  1  0
 22 48  1  0
 23 49  1  0
 23 50  1  0
 24 51  1  0
 24 52  1  0
 25 53  1  0
 25 54  1  0
 26 55  1  0
M  END
>  <smiles>  (41) 
Cc1ccc2c(c1)CC(c1cccc(C(=O)NCCC3CCCCC3)c1)=N2

>  <score_type>  (41) 
oracle

>  <origin>  (41) 
autodockgpu

>  <m_score__min__energy>  (41) 
-8.6999999999999993

>  <m_primary>  (41) 
energy

>  <rmsd>  (41) 
4.776069215367924

>  <m_score__min__rmsd>  (41) 
4.776069215367924

>  <meeko>  (41) 
{"free_energy": -8.16, "intermolecular_energy": -9.65, "internal_energy": -0.75, "cluster_size": 23, "cluster_id": 3, "rank_in_cluster": 20}

>  <energy>  (41) 
-8.17

>  <cluster_rmsd>  (41) 
1.19

>  <cluster>  (41) 
3

$$$$

     RDKit          3D

 55 58  0  0  0  0  0  0  0  0999 V2000
  141.4160   68.1780  228.7710 C   0  0  0  0  0  0  0  0  0  0  0  0
  140.7610   68.5330  227.4870 C   0  0  0  0  0  0  0  0  0  0  0  0
  139.9770   67.6060  226.8350 C   0  0  0  0  0  0  0  0  0  0  0  0
  139.3690   67.9460  225.6370 C   0  0  0  0  0  0  0  0  0  0  0  0
  139.5210   69.1930  225.0640 C   0  0  0  0  0  0  0  0  0  0  0  0
  140.3120   70.1250  225.7260 C   0  0  0  0  0  0  0  0  0  0  0  0
  140.9230   69.7880  226.9260 C   0  0  0  0  0  0  0  0  0  0  0  0
  140.3290   71.3800  224.9330 C   0  0  0  0  0  0  0  0  0  0  0  0
  139.4640   71.0240  223.7770 C   0  0  0  0  0  0  0  0  0  0  0  0
  139.1490   71.9310  222.6770 C   0  0  0  0  0  0  0  0  0  0  0  0
  138.0300   71.7540  221.8910 C   0  0  0  0  0  0  0  0  0  0  0  0
  137.7110   72.5990  220.8420 C   0  0  0  0  0  0  0  0  0  0  0  0
  138.5730   73.6530  220.6060 C   0  0  0  0  0  0  0  0  0  0  0  0
  139.7030   73.8820  221.3550 C   0  0  0  0  0  0  0  0  0  0  0  0
  140.6270   74.9810  221.1280 C   0  0  0  0  0  0  0  0  0  0  0  0
  141.4820   75.3070  221.9920 O   0  0  0  0  0  0  0  0  0  0  0  0
  140.6300   75.7610  219.9240 N   0  0  0  0  0  0  0  0  0  0  0  0
  141.6050   76.8170  219.8450 C   0  0  0  0  0  0  0  0  0  0  0  0
  141.0810   78.1640  220.1700 C   0  0  0  0  0  0  0  0  0  0  0  0
  141.4500   78.7720  221.4600 C   0  0  0  0  0  0  0  0  0  0  0  0
  140.4830   78.4340  222.5820 C   0  0  0  0  0  0  0  0  0  0  0  0
  140.7530   79.3650  223.7730 C   0  0  0  0  0  0  0  0  0  0  0  0
  142.2170   79.7160  223.8560 C   0  0  0  0  0  0  0  0  0  0  0  0
  142.6600   80.5390  222.6630 C   0  0  0  0  0  0  0  0  0  0  0  0
  141.7800   80.2280  221.4500 C   0  0  0  0  0  0  0  0  0  0  0  0
  139.9640   73.0040  222.3830 C   0  0  0  0  0  0  0  0  0  0  0  0
  139.0420   69.8240  223.8840 N   0  0  0  0  0  0  0  0  0  0  0  0
  140.7891   68.5177  229.6086 H   0  0  0  0  0  0  0  0  0  0  0  0
  141.5441   67.0870  228.8279 H   0  0  0  0  0  0  0  0  0  0  0  0
  142.4001   68.6662  228.8279 H   0  0  0  0  0  0  0  0  0  0  0  0
  139.8347   66.6026  227.2628 H   0  0  0  0  0  0  0  0  0  0  0  0
  138.7450   67.1981  225.1259 H   0  0  0  0  0  0  0  0  0  0  0  0
  141.5479   70.5325  227.4410 H   0  0  0  0  0  0  0  0  0  0  0  0
  139.9074   72.2201  225.5044 H   0  0  0  0  0  0  0  0  0  0  0  0
  141.3382   71.7118  224.6475 H   0  0  0  0  0  0  0  0  0  0  0  0
  137.3631   70.9061  222.1065 H   0  0  0  0  0  0  0  0  0  0  0  0
  136.8141   72.4391  220.2256 H   0  0  0  0  0  0  0  0  0  0  0  0
  138.3441   74.3417  219.7794 H   0  0  0  0  0  0  0  0  0  0  0  0
  139.9450   75.4990  219.2070 H   0  0  0  0  0  0  0  0  0  0  0  0
  142.4188   76.5863  220.5482 H   0  0  0  0  0  0  0  0  0  0  0  0
  141.9389   76.8561  218.7976 H   0  0  0  0  0  0  0  0  0  0  0  0
  141.4271   78.8460  219.3794 H   0  0  0  0  0  0  0  0  0  0  0  0
  139.9933   78.0179  220.2439 H   0  0  0  0  0  0  0  0  0  0  0  0
  142.4120   78.2808  221.6679 H   0  0  0  0  0  0  0  0  0  0  0  0
  139.4494   78.5730  222.2323 H   0  0  0  0  0  0  0  0  0  0  0  0
  140.6226   77.3872  222.8898 H   0  0  0  0  0  0  0  0  0  0  0  0
  140.1672   80.2878  223.6496 H   0  0  0  0  0  0  0  0  0  0  0  0
  140.4611   78.8475  224.6987 H   0  0  0  0  0  0  0  0  0  0  0  0
  142.3942   80.2944  224.7747 H   0  0  0  0  0  0  0  0  0  0  0  0
  142.7960   78.7807  223.8639 H   0  0  0  0  0  0  0  0  0  0  0  0
  142.5764   81.6081  222.9079 H   0  0  0  0  0  0  0  0  0  0  0  0
  143.7039   80.2892  222.4225 H   0  0  0  0  0  0  0  0  0  0  0  0
  140.8533   80.8181  221.5037 H   0  0  0  0  0  0  0  0  0  0  0  0
  142.3138   80.4854  220.5233 H   0  0  0  0  0  0  0  0  0  0  0  0
  140.8623   73.1655  222.9969 H   0  0  0  0  0  0  0  0  0  0  0  0
  1  2  1  0
  2  3  2  0
  3  4  1  0
  4  5  2  0
  5  6  1  0
  6  7  2  0
  6  8  1  0
  8  9  1  0
  9 10  1  0
 10 11  2  0
 11 12  1  0
 12 13  2  0
 13 14  1  0
 14 15  1  0
 15 16  2  0
 15 17  1  0
 17 18  1  0
 18 19  1  0
 19 20  1  0
 20 21  1  0
 21 22  1  0
 22 23  1  0
 23 24  1  0
 24 25  1  0
 14 26  2  0
  9 27  2  0
  7  2  1  0
 26 10  1  0
 27  5  1  0
 25 20  1  0
  1 28  1  0
  1 29  1  0
  1 30  1  0
  3 31  1  0
  4 32  1  0
  7 33  1  0
  8 34  1  0
  8 35  1  0
 11 36  1  0
 12 37  1  0
 13 38  1  0
 17 39  1  0
 18 40  1  0
 18 41  1  0
 19 42  1  0
 19 43  1  0
 20 44  1  0
 21 45  1  0
 21 46  1  0
 22 47  1  0
 22 48  1  0
 23 49  1  0
 23 50  1  0
 24 51  1  0
 24 52  1  0
 25 53  1  0
 25 54  1  0
 26 55  1  0
M  END
>  <smiles>  (42) 
Cc1ccc2c(c1)CC(c1cccc(C(=O)NCCC3CCCCC3)c1)=N2

>  <score_type>  (42) 
oracle

>  <origin>  (42) 
autodockgpu

>  <m_score__min__energy>  (42) 
-8.6999999999999993

>  <m_primary>  (42) 
energy

>  <rmsd>  (42) 
4.749344617696691

>  <m_score__min__rmsd>  (42) 
4.749344617696691

>  <meeko>  (42) 
{"free_energy": -8.24, "intermolecular_energy": -9.73, "internal_energy": -0.96, "cluster_size": 23, "cluster_id": 3, "rank_in_cluster": 17}

>  <energy>  (42) 
-8.16

>  <cluster_rmsd>  (42) 
1.22

>  <cluster>  (42) 
3

$$$$

     RDKit          3D

 55 58  0  0  0  0  0  0  0  0999 V2000
  130.7360   77.9970  228.6840 C   0  0  0  0  0  0  0  0  0  0  0  0
  131.6670   77.0480  228.0220 C   0  0  0  0  0  0  0  0  0  0  0  0
  132.8310   77.5140  227.4490 C   0  0  0  0  0  0  0  0  0  0  0  0
  133.6940   76.6220  226.8340 C   0  0  0  0  0  0  0  0  0  0  0  0
  133.4310   75.2690  226.7720 C   0  0  0  0  0  0  0  0  0  0  0  0
  132.2560   74.8030  227.3520 C   0  0  0  0  0  0  0  0  0  0  0  0
  131.3880   75.6940  227.9690 C   0  0  0  0  0  0  0  0  0  0  0  0
  132.1850   73.3320  227.1660 C   0  0  0  0  0  0  0  0  0  0  0  0
  133.4450   73.0560  226.4260 C   0  0  0  0  0  0  0  0  0  0  0  0
  133.8670   71.7290  225.9880 C   0  0  0  0  0  0  0  0  0  0  0  0
  133.0860   70.6130  226.2060 C   0  0  0  0  0  0  0  0  0  0  0  0
  133.4640   69.3440  225.8010 C   0  0  0  0  0  0  0  0  0  0  0  0
  134.6810   69.2320  225.1550 C   0  0  0  0  0  0  0  0  0  0  0  0
  135.5020   70.3070  224.9100 C   0  0  0  0  0  0  0  0  0  0  0  0
  136.7860   70.2180  224.2340 C   0  0  0  0  0  0  0  0  0  0  0  0
  137.1630   69.1510  223.6830 O   0  0  0  0  0  0  0  0  0  0  0  0
  137.7010   71.3200  224.1480 N   0  0  0  0  0  0  0  0  0  0  0  0
  138.9340   71.0780  223.4460 C   0  0  0  0  0  0  0  0  0  0  0  0
  140.1550   71.2470  224.2680 C   0  0  0  0  0  0  0  0  0  0  0  0
  140.1330   70.7850  225.6670 C   0  0  0  0  0  0  0  0  0  0  0  0
  140.8120   71.7460  226.6270 C   0  0  0  0  0  0  0  0  0  0  0  0
  141.0350   71.0380  227.9710 C   0  0  0  0  0  0  0  0  0  0  0  0
  139.9310   70.0470  228.2430 C   0  0  0  0  0  0  0  0  0  0  0  0
  139.9470   68.9090  227.2410 C   0  0  0  0  0  0  0  0  0  0  0  0
  140.5600   69.3770  225.9190 C   0  0  0  0  0  0  0  0  0  0  0  0
  135.0680   71.5410  225.3380 C   0  0  0  0  0  0  0  0  0  0  0  0
  134.0980   74.1370  226.2300 N   0  0  0  0  0  0  0  0  0  0  0  0
  130.8299   77.9013  229.7758 H   0  0  0  0  0  0  0  0  0  0  0  0
  130.9854   79.0253  228.3833 H   0  0  0  0  0  0  0  0  0  0  0  0
  129.7031   77.7673  228.3833 H   0  0  0  0  0  0  0  0  0  0  0  0
  133.0728   78.5867  227.4800 H   0  0  0  0  0  0  0  0  0  0  0  0
  134.6198   77.0051  226.3799 H   0  0  0  0  0  0  0  0  0  0  0  0
  130.4608   75.3160  228.4244 H   0  0  0  0  0  0  0  0  0  0  0  0
  132.1652   72.8069  228.1324 H   0  0  0  0  0  0  0  0  0  0  0  0
  131.2786   72.9931  226.6429 H   0  0  0  0  0  0  0  0  0  0  0  0
  132.1229   70.7363  226.7230 H   0  0  0  0  0  0  0  0  0  0  0  0
  132.8262   68.4668  225.9846 H   0  0  0  0  0  0  0  0  0  0  0  0
  135.0077   68.2360  224.8214 H   0  0  0  0  0  0  0  0  0  0  0  0
  137.4020   72.1980  224.5840 H   0  0  0  0  0  0  0  0  0  0  0  0
  138.9159   70.0456  223.0666 H   0  0  0  0  0  0  0  0  0  0  0  0
  138.9902   71.8307  222.6458 H   0  0  0  0  0  0  0  0  0  0  0  0
  140.9656   70.7041  223.7600 H   0  0  0  0  0  0  0  0  0  0  0  0
  140.2759   72.3374  224.3476 H   0  0  0  0  0  0  0  0  0  0  0  0
  139.0541   70.7805  225.8812 H   0  0  0  0  0  0  0  0  0  0  0  0
  141.7805   72.0600  226.2107 H   0  0  0  0  0  0  0  0  0  0  0  0
  140.1777   72.6324  226.7753 H   0  0  0  0  0  0  0  0  0  0  0  0
  141.9979   70.5069  227.9436 H   0  0  0  0  0  0  0  0  0  0  0  0
  141.0371   71.7926  228.7714 H   0  0  0  0  0  0  0  0  0  0  0  0
  140.0619   69.6347  229.2544 H   0  0  0  0  0  0  0  0  0  0  0  0
  138.9676   70.5707  228.1554 H   0  0  0  0  0  0  0  0  0  0  0  0
  140.5444   68.0781  227.6444 H   0  0  0  0  0  0  0  0  0  0  0  0
  138.9144   68.5760  227.0597 H   0  0  0  0  0  0  0  0  0  0  0  0
  141.6571   69.3282  225.9816 H   0  0  0  0  0  0  0  0  0  0  0  0
  140.2204   68.7290  225.0976 H   0  0  0  0  0  0  0  0  0  0  0  0
  135.7081   72.4163  225.1531 H   0  0  0  0  0  0  0  0  0  0  0  0
  1  2  1  0
  2  3  2  0
  3  4  1  0
  4  5  2  0
  5  6  1  0
  6  7  2  0
  6  8  1  0
  8  9  1  0
  9 10  1  0
 10 11  2  0
 11 12  1  0
 12 13  2  0
 13 14  1  0
 14 15  1  0
 15 16  2  0
 15 17  1  0
 17 18  1  0
 18 19  1  0
 19 20  1  0
 20 21  1  0
 21 22  1  0
 22 23  1  0
 23 24  1  0
 24 25  1  0
 14 26  2  0
  9 27  2  0
  7  2  1  0
 26 10  1  0
 27  5  1  0
 25 20  1  0
  1 28  1  0
  1 29  1  0
  1 30  1  0
  3 31  1  0
  4 32  1  0
  7 33  1  0
  8 34  1  0
  8 35  1  0
 11 36  1  0
 12 37  1  0
 13 38  1  0
 17 39  1  0
 18 40  1  0
 18 41  1  0
 19 42  1  0
 19 43  1  0
 20 44  1  0
 21 45  1  0
 21 46  1  0
 22 47  1  0
 22 48  1  0
 23 49  1  0
 23 50  1  0
 24 51  1  0
 24 52  1  0
 25 53  1  0
 25 54  1  0
 26 55  1  0
M  END
>  <smiles>  (43) 
Cc1ccc2c(c1)CC(c1cccc(C(=O)NCCC3CCCCC3)c1)=N2

>  <score_type>  (43) 
oracle

>  <origin>  (43) 
autodockgpu

>  <m_score__min__energy>  (43) 
-8.6999999999999993

>  <m_primary>  (43) 
energy

>  <rmsd>  (43) 
11.261748957395712

>  <m_score__min__rmsd>  (43) 
11.261748957395712

>  <meeko>  (43) 
{"free_energy": -8.7, "intermolecular_energy": -10.19, "internal_energy": -1.09, "cluster_size": 11, "cluster_id": 1, "rank_in_cluster": 1}

>  <energy>  (43) 
-7.98

>  <cluster_rmsd>  (43) 
0.9

>  <cluster>  (43) 
3

$$$$

     RDKit          3D

 55 58  0  0  0  0  0  0  0  0999 V2000
  130.8990   78.2530  228.6790 C   0  0  0  0  0  0  0  0  0  0  0  0
  131.7560   77.2230  228.0400 C   0  0  0  0  0  0  0  0  0  0  0  0
  132.9770   77.5770  227.5090 C   0  0  0  0  0  0  0  0  0  0  0  0
  133.7700   76.6100  226.9150 C   0  0  0  0  0  0  0  0  0  0  0  0
  133.3810   75.2880  226.8330 C   0  0  0  0  0  0  0  0  0  0  0  0
  132.1490   74.9350  227.3720 C   0  0  0  0  0  0  0  0  0  0  0  0
  131.3500   75.9020  227.9670 C   0  0  0  0  0  0  0  0  0  0  0  0
  131.9440   73.4780  227.1710 C   0  0  0  0  0  0  0  0  0  0  0  0
  133.1950   73.0870  226.4690 C   0  0  0  0  0  0  0  0  0  0  0  0
  133.5010   71.7270  226.0340 C   0  0  0  0  0  0  0  0  0  0  0  0
  132.5820   70.7050  226.1530 C   0  0  0  0  0  0  0  0  0  0  0  0
  132.8500   69.4080  225.7490 C   0  0  0  0  0  0  0  0  0  0  0  0
  134.0990   69.1670  225.2090 C   0  0  0  0  0  0  0  0  0  0  0  0
  135.0560   70.1450  225.0650 C   0  0  0  0  0  0  0  0  0  0  0  0
  136.3770   69.9200  224.5020 C   0  0  0  0  0  0  0  0  0  0  0  0
  136.8200   70.6340  223.5660 O   0  0  0  0  0  0  0  0  0  0  0  0
  137.2560   68.8840  224.9650 N   0  0  0  0  0  0  0  0  0  0  0  0
  138.5330   68.7850  224.3080 C   0  0  0  0  0  0  0  0  0  0  0  0
  139.6680   68.4810  225.2100 C   0  0  0  0  0  0  0  0  0  0  0  0
  140.1260   69.5240  226.1430 C   0  0  0  0  0  0  0  0  0  0  0  0
  139.5720   69.3590  227.5480 C   0  0  0  0  0  0  0  0  0  0  0  0
  139.8250   70.6490  228.3410 C   0  0  0  0  0  0  0  0  0  0  0  0
  141.1080   71.3060  227.8990 C   0  0  0  0  0  0  0  0  0  0  0  0
  141.0200   71.7890  226.4640 C   0  0  0  0  0  0  0  0  0  0  0  0
  140.0170   70.9390  225.6810 C   0  0  0  0  0  0  0  0  0  0  0  0
  134.7270   71.4130  225.4870 C   0  0  0  0  0  0  0  0  0  0  0  0
  133.9540   74.1000  226.3030 N   0  0  0  0  0  0  0  0  0  0  0  0
  130.9729   78.1642  229.7729 H   0  0  0  0  0  0  0  0  0  0  0  0
  131.2350   79.2534  228.3688 H   0  0  0  0  0  0  0  0  0  0  0  0
  129.8541   78.1045  228.3688 H   0  0  0  0  0  0  0  0  0  0  0  0
  133.3196   78.6212  227.5567 H   0  0  0  0  0  0  0  0  0  0  0  0
  134.7426   76.9050  226.4943 H   0  0  0  0  0  0  0  0  0  0  0  0
  130.3759   75.6127  228.3883 H   0  0  0  0  0  0  0  0  0  0  0  0
  131.8430   72.9518  228.1317 H   0  0  0  0  0  0  0  0  0  0  0  0
  131.0268   73.2302  226.6166 H   0  0  0  0  0  0  0  0  0  0  0  0
  131.5963   70.9296  226.5865 H   0  0  0  0  0  0  0  0  0  0  0  0
  132.1035   68.6068  225.8530 H   0  0  0  0  0  0  0  0  0  0  0  0
  134.3393   68.1456  224.8789 H   0  0  0  0  0  0  0  0  0  0  0  0
  136.9120   68.3010  225.7350 H   0  0  0  0  0  0  0  0  0  0  0  0
  138.4702   67.9863  223.5542 H   0  0  0  0  0  0  0  0  0  0  0  0
  138.7371   69.7741  223.8721 H   0  0  0  0  0  0  0  0  0  0  0  0
  139.3768   67.6098  225.8152 H   0  0  0  0  0  0  0  0  0  0  0  0
  140.5202   68.3371  224.5295 H   0  0  0  0  0  0  0  0  0  0  0  0
  141.2092   69.3343  226.1696 H   0  0  0  0  0  0  0  0  0  0  0  0
  138.4907   69.1636  227.4973 H   0  0  0  0  0  0  0  0  0  0  0  0
  140.0692   68.5136  228.0461 H   0  0  0  0  0  0  0  0  0  0  0  0
  138.9884   71.3439  228.1758 H   0  0  0  0  0  0  0  0  0  0  0  0
  139.9077   70.3964  229.4084 H   0  0  0  0  0  0  0  0  0  0  0  0
  141.3131   72.1659  228.5536 H   0  0  0  0  0  0  0  0  0  0  0  0
  141.9163   70.5627  227.9638 H   0  0  0  0  0  0  0  0  0  0  0  0
  140.6927   72.8391  226.4535 H   0  0  0  0  0  0  0  0  0  0  0  0
  142.0104   71.6997  225.9938 H   0  0  0  0  0  0  0  0  0  0  0  0
  138.9972   71.3098  225.8613 H   0  0  0  0  0  0  0  0  0  0  0  0
  140.2340   70.9997  224.6043 H   0  0  0  0  0  0  0  0  0  0  0  0
  135.4760   72.2119  225.3832 H   0  0  0  0  0  0  0  0  0  0  0  0
  1  2  1  0
  2  3  2  0
  3  4  1  0
  4  5  2  0
  5  6  1  0
  6  7  2  0
  6  8  1  0
  8  9  1  0
  9 10  1  0
 10 11  2  0
 11 12  1  0
 12 13  2  0
 13 14  1  0
 14 15  1  0
 15 16  2  0
 15 17  1  0
 17 18  1  0
 18 19  1  0
 19 20  1  0
 20 21  1  0
 21 22  1  0
 22 23  1  0
 23 24  1  0
 24 25  1  0
 14 26  2  0
  9 27  2  0
  7  2  1  0
 26 10  1  0
 27  5  1  0
 25 20  1  0
  1 28  1  0
  1 29  1  0
  1 30  1  0
  3 31  1  0
  4 32  1  0
  7 33  1  0
  8 34  1  0
  8 35  1  0
 11 36  1  0
 12 37  1  0
 13 38  1  0
 17 39  1  0
 18 40  1  0
 18 41  1  0
 19 42  1  0
 19 43  1  0
 20 44  1  0
 21 45  1  0
 21 46  1  0
 22 47  1  0
 22 48  1  0
 23 49  1  0
 23 50  1  0
 24 51  1  0
 24 52  1  0
 25 53  1  0
 25 54  1  0
 26 55  1  0
M  END
>  <smiles>  (44) 
Cc1ccc2c(c1)CC(c1cccc(C(=O)NCCC3CCCCC3)c1)=N2

>  <score_type>  (44) 
oracle

>  <origin>  (44) 
autodockgpu

>  <m_score__min__energy>  (44) 
-8.6999999999999993

>  <m_primary>  (44) 
energy

>  <rmsd>  (44) 
12.026227627718702

>  <m_score__min__rmsd>  (44) 
12.026227627718702

>  <meeko>  (44) 
{"free_energy": -8.2, "intermolecular_energy": -9.69, "internal_energy": -1.03, "cluster_size": 11, "cluster_id": 1, "rank_in_cluster": 5}

>  <energy>  (44) 
-7.96

>  <cluster_rmsd>  (44) 
1.77

>  <cluster>  (44) 
3

$$$$

     RDKit          3D

 55 58  0  0  0  0  0  0  0  0999 V2000
  130.8130   78.4440  228.6040 C   0  0  0  0  0  0  0  0  0  0  0  0
  131.6860   77.3970  228.0160 C   0  0  0  0  0  0  0  0  0  0  0  0
  132.9180   77.7380  227.5010 C   0  0  0  0  0  0  0  0  0  0  0  0
  133.7260   76.7550  226.9550 C   0  0  0  0  0  0  0  0  0  0  0  0
  133.3420   75.4300  226.9070 C   0  0  0  0  0  0  0  0  0  0  0  0
  132.0990   75.0900  227.4290 C   0  0  0  0  0  0  0  0  0  0  0  0
  131.2850   76.0730  227.9760 C   0  0  0  0  0  0  0  0  0  0  0  0
  131.9010   73.6280  227.2700 C   0  0  0  0  0  0  0  0  0  0  0  0
  133.1680   73.2180  226.6090 C   0  0  0  0  0  0  0  0  0  0  0  0
  133.4870   71.8460  226.2240 C   0  0  0  0  0  0  0  0  0  0  0  0
  132.6020   70.8100  226.4380 C   0  0  0  0  0  0  0  0  0  0  0  0
  132.8820   69.5010  226.0820 C   0  0  0  0  0  0  0  0  0  0  0  0
  134.1090   69.2640  225.4910 C   0  0  0  0  0  0  0  0  0  0  0  0
  135.0320   70.2550  225.2530 C   0  0  0  0  0  0  0  0  0  0  0  0
  136.3280   70.0330  224.6340 C   0  0  0  0  0  0  0  0  0  0  0  0
  136.7970   70.8390  223.7890 O   0  0  0  0  0  0  0  0  0  0  0  0
  137.1530   68.8980  224.9360 N   0  0  0  0  0  0  0  0  0  0  0  0
  138.4110   68.8160  224.2420 C   0  0  0  0  0  0  0  0  0  0  0  0
  139.5620   68.4390  225.0950 C   0  0  0  0  0  0  0  0  0  0  0  0
  140.0480   69.4070  226.0930 C   0  0  0  0  0  0  0  0  0  0  0  0
  139.4530   69.1960  227.4740 C   0  0  0  0  0  0  0  0  0  0  0  0
  139.7490   70.4290  228.3410 C   0  0  0  0  0  0  0  0  0  0  0  0
  141.0730   71.0430  227.9620 C   0  0  0  0  0  0  0  0  0  0  0  0
  141.0430   71.6040  226.5540 C   0  0  0  0  0  0  0  0  0  0  0  0
  140.0190   70.8480  225.7050 C   0  0  0  0  0  0  0  0  0  0  0  0
  134.6920   71.5340  225.6300 C   0  0  0  0  0  0  0  0  0  0  0  0
  133.9280   74.2280  226.4270 N   0  0  0  0  0  0  0  0  0  0  0  0
  130.8604   78.3871  229.7015 H   0  0  0  0  0  0  0  0  0  0  0  0
  131.1557   79.4355  228.2731 H   0  0  0  0  0  0  0  0  0  0  0  0
  129.7761   78.2851  228.2731 H   0  0  0  0  0  0  0  0  0  0  0  0
  133.2572   78.7842  227.5236 H   0  0  0  0  0  0  0  0  0  0  0  0
  134.7066   77.0395  226.5458 H   0  0  0  0  0  0  0  0  0  0  0  0
  130.3028   75.7941  228.3853 H   0  0  0  0  0  0  0  0  0  0  0  0
  131.7793   73.1323  228.2444 H   0  0  0  0  0  0  0  0  0  0  0  0
  130.9969   73.3606  226.7034 H   0  0  0  0  0  0  0  0  0  0  0  0
  131.6340   71.0324  226.9108 H   0  0  0  0  0  0  0  0  0  0  0  0
  132.1622   68.6887  226.2611 H   0  0  0  0  0  0  0  0  0  0  0  0
  134.3588   68.2338  225.1972 H   0  0  0  0  0  0  0  0  0  0  0  0
  136.7870   68.2380  225.6310 H   0  0  0  0  0  0  0  0  0  0  0  0
  138.3145   68.0648  223.4442 H   0  0  0  0  0  0  0  0  0  0  0  0
  138.6231   69.8256  223.8603 H   0  0  0  0  0  0  0  0  0  0  0  0
  139.2764   67.5273  225.6402 H   0  0  0  0  0  0  0  0  0  0  0  0
  140.3987   68.3409  224.3876 H   0  0  0  0  0  0  0  0  0  0  0  0
  141.1197   69.1623  226.1336 H   0  0  0  0  0  0  0  0  0  0  0  0
  138.3650   69.0575  227.3894 H   0  0  0  0  0  0  0  0  0  0  0  0
  139.8964   68.3019  227.9366 H   0  0  0  0  0  0  0  0  0  0  0  0
  138.9515   71.1725  228.1953 H   0  0  0  0  0  0  0  0  0  0  0  0
  139.7930   70.1173  229.3950 H   0  0  0  0  0  0  0  0  0  0  0  0
  141.3044   71.8561  228.6658 H   0  0  0  0  0  0  0  0  0  0  0  0
  141.8421   70.2577  228.0041 H   0  0  0  0  0  0  0  0  0  0  0  0
  140.7678   72.6683  226.5928 H   0  0  0  0  0  0  0  0  0  0  0  0
  142.0389   71.4896  226.1011 H   0  0  0  0  0  0  0  0  0  0  0  0
  139.0144   71.2593  225.8829 H   0  0  0  0  0  0  0  0  0  0  0  0
  140.2643   70.9544  224.6380 H   0  0  0  0  0  0  0  0  0  0  0  0
  135.4139   72.3441  225.4495 H   0  0  0  0  0  0  0  0  0  0  0  0
  1  2  1  0
  2  3  2  0
  3  4  1  0
  4  5  2  0
  5  6  1  0
  6  7  2  0
  6  8  1  0
  8  9  1  0
  9 10  1  0
 10 11  2  0
 11 12  1  0
 12 13  2  0
 13 14  1  0
 14 15  1  0
 15 16  2  0
 15 17  1  0
 17 18  1  0
 18 19  1  0
 19 20  1  0
 20 21  1  0
 21 22  1  0
 22 23  1  0
 23 24  1  0
 24 25  1  0
 14 26  2  0
  9 27  2  0
  7  2  1  0
 26 10  1  0
 27  5  1  0
 25 20  1  0
  1 28  1  0
  1 29  1  0
  1 30  1  0
  3 31  1  0
  4 32  1  0
  7 33  1  0
  8 34  1  0
  8 35  1  0
 11 36  1  0
 12 37  1  0
 13 38  1  0
 17 39  1  0
 18 40  1  0
 18 41  1  0
 19 42  1  0
 19 43  1  0
 20 44  1  0
 21 45  1  0
 21 46  1  0
 22 47  1  0
 22 48  1  0
 23 49  1  0
 23 50  1  0
 24 51  1  0
 24 52  1  0
 25 53  1  0
 25 54  1  0
 26 55  1  0
M  END
>  <smiles>  (45) 
Cc1ccc2c(c1)CC(c1cccc(C(=O)NCCC3CCCCC3)c1)=N2

>  <score_type>  (45) 
oracle

>  <origin>  (45) 
autodockgpu

>  <m_score__min__energy>  (45) 
-8.6999999999999993

>  <m_primary>  (45) 
energy

>  <rmsd>  (45) 
12.117748098006016

>  <m_score__min__rmsd>  (45) 
12.117748098006016

>  <meeko>  (45) 
{"free_energy": -8.17, "intermolecular_energy": -9.66, "internal_energy": -1.05, "cluster_size": 11, "cluster_id": 1, "rank_in_cluster": 7}

>  <energy>  (45) 
-7.94

>  <cluster_rmsd>  (45) 
1.78

>  <cluster>  (45) 
3

$$$$

     RDKit          3D

 55 58  0  0  0  0  0  0  0  0999 V2000
  140.7810   68.1480  228.9780 C   0  0  0  0  0  0  0  0  0  0  0  0
  140.4900   68.5760  227.5870 C   0  0  0  0  0  0  0  0  0  0  0  0
  139.7570   67.7590  226.7540 C   0  0  0  0  0  0  0  0  0  0  0  0
  139.4910   68.1670  225.4570 C   0  0  0  0  0  0  0  0  0  0  0  0
  139.9360   69.3750  224.9610 C   0  0  0  0  0  0  0  0  0  0  0  0
  140.6740   70.1970  225.8050 C   0  0  0  0  0  0  0  0  0  0  0  0
  140.9440   69.7920  227.1050 C   0  0  0  0  0  0  0  0  0  0  0  0
  141.0410   71.4300  225.0640 C   0  0  0  0  0  0  0  0  0  0  0  0
  140.4230   71.1840  223.7340 C   0  0  0  0  0  0  0  0  0  0  0  0
  140.4930   72.1140  222.6110 C   0  0  0  0  0  0  0  0  0  0  0  0
  141.4580   71.9970  221.6330 C   0  0  0  0  0  0  0  0  0  0  0  0
  141.5450   72.8670  220.5590 C   0  0  0  0  0  0  0  0  0  0  0  0
  140.6080   73.8820  220.5010 C   0  0  0  0  0  0  0  0  0  0  0  0
  139.6230   74.0490  221.4450 C   0  0  0  0  0  0  0  0  0  0  0  0
  138.6270   75.1060  221.4080 C   0  0  0  0  0  0  0  0  0  0  0  0
  138.0840   75.4580  220.3290 O   0  0  0  0  0  0  0  0  0  0  0  0
  138.1970   75.8150  222.5800 N   0  0  0  0  0  0  0  0  0  0  0  0
  137.2020   76.8370  222.3840 C   0  0  0  0  0  0  0  0  0  0  0  0
  137.6920   78.2200  222.5840 C   0  0  0  0  0  0  0  0  0  0  0  0
  139.1310   78.4330  222.8180 C   0  0  0  0  0  0  0  0  0  0  0  0
  139.4290   79.6810  223.6300 C   0  0  0  0  0  0  0  0  0  0  0  0
  140.9290   79.9960  223.5340 C   0  0  0  0  0  0  0  0  0  0  0  0
  141.7340   78.7260  223.4150 C   0  0  0  0  0  0  0  0  0  0  0  0
  141.4440   78.0030  222.1150 C   0  0  0  0  0  0  0  0  0  0  0  0
  140.0300   78.3320  221.6310 C   0  0  0  0  0  0  0  0  0  0  0  0
  139.5920   73.1510  222.4880 C   0  0  0  0  0  0  0  0  0  0  0  0
  139.8290   70.0530  223.7160 N   0  0  0  0  0  0  0  0  0  0  0  0
  140.3064   68.8461  229.6833 H   0  0  0  0  0  0  0  0  0  0  0  0
  140.3834   67.1354  229.1408 H   0  0  0  0  0  0  0  0  0  0  0  0
  141.8689   68.1454  229.1408 H   0  0  0  0  0  0  0  0  0  0  0  0
  139.3855   66.7892  227.1164 H   0  0  0  0  0  0  0  0  0  0  0  0
  138.9056   67.5059  224.8010 H   0  0  0  0  0  0  0  0  0  0  0  0
  141.5296   70.4494  227.7645 H   0  0  0  0  0  0  0  0  0  0  0  0
  140.6175   72.3254  225.5425 H   0  0  0  0  0  0  0  0  0  0  0  0
  142.1240   71.6181  225.0229 H   0  0  0  0  0  0  0  0  0  0  0  0
  142.1891   71.1786  221.7090 H   0  0  0  0  0  0  0  0  0  0  0  0
  142.3225   72.7558  219.7888 H   0  0  0  0  0  0  0  0  0  0  0  0
  140.6529   74.5893  219.6597 H   0  0  0  0  0  0  0  0  0  0  0  0
  138.6230   75.5320  223.4690 H   0  0  0  0  0  0  0  0  0  0  0  0
  136.8217   76.7530  221.3552 H   0  0  0  0  0  0  0  0  0  0  0  0
  136.4265   76.6676  223.1455 H   0  0  0  0  0  0  0  0  0  0  0  0
  137.4218   78.7927  221.6845 H   0  0  0  0  0  0  0  0  0  0  0  0
  137.2181   78.5383  223.5243 H   0  0  0  0  0  0  0  0  0  0  0  0
  139.3883   77.5519  223.4241 H   0  0  0  0  0  0  0  0  0  0  0  0
  138.8487   80.5266  223.2323 H   0  0  0  0  0  0  0  0  0  0  0  0
  139.1516   79.5144  224.6813 H   0  0  0  0  0  0  0  0  0  0  0  0
  141.1104   80.6228  222.6484 H   0  0  0  0  0  0  0  0  0  0  0  0
  141.2381   80.5264  224.4468 H   0  0  0  0  0  0  0  0  0  0  0  0
  142.8044   78.9766  223.4533 H   0  0  0  0  0  0  0  0  0  0  0  0
  141.4565   78.0628  224.2475 H   0  0  0  0  0  0  0  0  0  0  0  0
  142.1716   78.3195  221.3531 H   0  0  0  0  0  0  0  0  0  0  0  0
  141.5228   76.9186  222.2822 H   0  0  0  0  0  0  0  0  0  0  0  0
  140.0373   79.2893  221.0893 H   0  0  0  0  0  0  0  0  0  0  0  0
  139.6714   77.5421  220.9546 H   0  0  0  0  0  0  0  0  0  0  0  0
  138.8142   73.2656  223.2574 H   0  0  0  0  0  0  0  0  0  0  0  0
  1  2  1  0
  2  3  2  0
  3  4  1  0
  4  5  2  0
  5  6  1  0
  6  7  2  0
  6  8  1  0
  8  9  1  0
  9 10  1  0
 10 11  2  0
 11 12  1  0
 12 13  2  0
 13 14  1  0
 14 15  1  0
 15 16  2  0
 15 17  1  0
 17 18  1  0
 18 19  1  0
 19 20  1  0
 20 21  1  0
 21 22  1  0
 22 23  1  0
 23 24  1  0
 24 25  1  0
 14 26  2  0
  9 27  2  0
  7  2  1  0
 26 10  1  0
 27  5  1  0
 25 20  1  0
  1 28  1  0
  1 29  1  0
  1 30  1  0
  3 31  1  0
  4 32  1  0
  7 33  1  0
  8 34  1  0
  8 35  1  0
 11 36  1  0
 12 37  1  0
 13 38  1  0
 17 39  1  0
 18 40  1  0
 18 41  1  0
 19 42  1  0
 19 43  1  0
 20 44  1  0
 21 45  1  0
 21 46  1  0
 22 47  1  0
 22 48  1  0
 23 49  1  0
 23 50  1  0
 24 51  1  0
 24 52  1  0
 25 53  1  0
 25 54  1  0
 26 55  1  0
M  END
>  <smiles>  (46) 
Cc1ccc2c(c1)CC(c1cccc(C(=O)NCCC3CCCCC3)c1)=N2

>  <score_type>  (46) 
oracle

>  <origin>  (46) 
autodockgpu

>  <m_score__min__energy>  (46) 
-8.6999999999999993

>  <m_primary>  (46) 
energy

>  <rmsd>  (46) 
4.9994983875024115

>  <m_score__min__rmsd>  (46) 
4.9994983875024115

>  <meeko>  (46) 
{"free_energy": -7.96, "intermolecular_energy": -9.45, "internal_energy": -1.17, "cluster_size": 23, "cluster_id": 3, "rank_in_cluster": 22}

>  <energy>  (46) 
-8.45

>  <cluster_rmsd>  (46) 
0.0

>  <cluster>  (46) 
4

$$$$

     RDKit          3D

 55 58  0  0  0  0  0  0  0  0999 V2000
  143.2860   76.6790  219.3510 C   0  0  0  0  0  0  0  0  0  0  0  0
  142.2010   76.0810  220.1690 C   0  0  0  0  0  0  0  0  0  0  0  0
  141.5070   76.8620  221.0670 C   0  0  0  0  0  0  0  0  0  0  0  0
  140.4960   76.2950  221.8260 C   0  0  0  0  0  0  0  0  0  0  0  0
  140.1520   74.9630  221.7160 C   0  0  0  0  0  0  0  0  0  0  0  0
  140.8550   74.1790  220.8070 C   0  0  0  0  0  0  0  0  0  0  0  0
  141.8690   74.7430  220.0450 C   0  0  0  0  0  0  0  0  0  0  0  0
  140.3180   72.7960  220.8600 C   0  0  0  0  0  0  0  0  0  0  0  0
  139.2540   72.9190  221.8910 C   0  0  0  0  0  0  0  0  0  0  0  0
  138.4030   71.8160  222.3280 C   0  0  0  0  0  0  0  0  0  0  0  0
  137.1870   71.5590  221.7300 C   0  0  0  0  0  0  0  0  0  0  0  0
  136.3620   70.5210  222.1270 C   0  0  0  0  0  0  0  0  0  0  0  0
  136.8110   69.7310  223.1700 C   0  0  0  0  0  0  0  0  0  0  0  0
  138.0130   69.9380  223.8050 C   0  0  0  0  0  0  0  0  0  0  0  0
  138.5080   69.1250  224.9030 C   0  0  0  0  0  0  0  0  0  0  0  0
  138.0580   69.2560  226.0710 O   0  0  0  0  0  0  0  0  0  0  0  0
  139.5290   68.1310  224.7380 N   0  0  0  0  0  0  0  0  0  0  0  0
  139.9160   67.4050  225.9200 C   0  0  0  0  0  0  0  0  0  0  0  0
  141.1040   67.9500  226.6170 C   0  0  0  0  0  0  0  0  0  0  0  0
  141.0810   69.3550  227.0590 C   0  0  0  0  0  0  0  0  0  0  0  0
  140.0950   69.6130  228.1860 C   0  0  0  0  0  0  0  0  0  0  0  0
  139.8990   71.1280  228.3430 C   0  0  0  0  0  0  0  0  0  0  0  0
  141.1690   71.8690  228.0040 C   0  0  0  0  0  0  0  0  0  0  0  0
  141.5300   71.7120  226.5400 C   0  0  0  0  0  0  0  0  0  0  0  0
  140.9720   70.3960  225.9960 C   0  0  0  0  0  0  0  0  0  0  0  0
  138.7850   70.9880  223.3620 C   0  0  0  0  0  0  0  0  0  0  0  0
  139.1940   74.1150  222.3340 N   0  0  0  0  0  0  0  0  0  0  0  0
  144.0544   77.1025  220.0144 H   0  0  0  0  0  0  0  0  0  0  0  0
  143.7373   75.9022  218.7162 H   0  0  0  0  0  0  0  0  0  0  0  0
  142.8702   77.4754  218.7162 H   0  0  0  0  0  0  0  0  0  0  0  0
  141.7537   77.9279  221.1806 H   0  0  0  0  0  0  0  0  0  0  0  0
  139.9491   76.9279  222.5404 H   0  0  0  0  0  0  0  0  0  0  0  0
  142.4191   74.1147  219.3290 H   0  0  0  0  0  0  0  0  0  0  0  0
  139.9007   72.4914  219.8889 H   0  0  0  0  0  0  0  0  0  0  0  0
  141.0761   72.0336  221.0926 H   0  0  0  0  0  0  0  0  0  0  0  0
  136.8592   72.2060  220.9030 H   0  0  0  0  0  0  0  0  0  0  0  0
  135.3955   70.3332  221.6366 H   0  0  0  0  0  0  0  0  0  0  0  0
  136.1767   68.8980  223.5073 H   0  0  0  0  0  0  0  0  0  0  0  0
  139.8990   68.0060  223.7900 H   0  0  0  0  0  0  0  0  0  0  0  0
  139.0700   67.4178  226.6229 H   0  0  0  0  0  0  0  0  0  0  0  0
  140.1865   66.3915  225.5888 H   0  0  0  0  0  0  0  0  0  0  0  0
  141.2666   67.3315  227.5120 H   0  0  0  0  0  0  0  0  0  0  0  0
  141.8972   67.9221  225.8554 H   0  0  0  0  0  0  0  0  0  0  0  0
  142.1014   69.4795  227.4504 H   0  0  0  0  0  0  0  0  0  0  0  0
  139.1311   69.1393  227.9482 H   0  0  0  0  0  0  0  0  0  0  0  0
  140.4841   69.1898  229.1238 H   0  0  0  0  0  0  0  0  0  0  0  0
  139.0963   71.4599  227.6681 H   0  0  0  0  0  0  0  0  0  0  0  0
  139.6327   71.3433  229.3883 H   0  0  0  0  0  0  0  0  0  0  0  0
  141.0293   72.9375  228.2251 H   0  0  0  0  0  0  0  0  0  0  0  0
  141.9861   71.4477  228.6080 H   0  0  0  0  0  0  0  0  0  0  0  0
  141.1047   72.5505  225.9690 H   0  0  0  0  0  0  0  0  0  0  0  0
  142.6254   71.7060  226.4393 H   0  0  0  0  0  0  0  0  0  0  0  0
  139.9169   70.5292  225.7151 H   0  0  0  0  0  0  0  0  0  0  0  0
  141.5417   70.0859  225.1076 H   0  0  0  0  0  0  0  0  0  0  0  0
  139.7503   71.1749  223.8553 H   0  0  0  0  0  0  0  0  0  0  0  0
  1  2  1  0
  2  3  2  0
  3  4  1  0
  4  5  2  0
  5  6  1  0
  6  7  2  0
  6  8  1  0
  8  9  1  0
  9 10  1  0
 10 11  2  0
 11 12  1  0
 12 13  2  0
 13 14  1  0
 14 15  1  0
 15 16  2  0
 15 17  1  0
 17 18  1  0
 18 19  1  0
 19 20  1  0
 20 21  1  0
 21 22  1  0
 22 23  1  0
 23 24  1  0
 24 25  1  0
 14 26  2  0
  9 27  2  0
  7  2  1  0
 26 10  1  0
 27  5  1  0
 25 20  1  0
  1 28  1  0
  1 29  1  0
  1 30  1  0
  3 31  1  0
  4 32  1  0
  7 33  1  0
  8 34  1  0
  8 35  1  0
 11 36  1  0
 12 37  1  0
 13 38  1  0
 17 39  1  0
 18 40  1  0
 18 41  1  0
 19 42  1  0
 19 43  1  0
 20 44  1  0
 21 45  1  0
 21 46  1  0
 22 47  1  0
 22 48  1  0
 23 49  1  0
 23 50  1  0
 24 51  1  0
 24 52  1  0
 25 53  1  0
 25 54  1  0
 26 55  1  0
M  END
>  <smiles>  (47) 
Cc1ccc2c(c1)CC(c1cccc(C(=O)NCCC3CCCCC3)c1)=N2

>  <score_type>  (47) 
oracle

>  <origin>  (47) 
autodockgpu

>  <m_score__min__energy>  (47) 
-8.6999999999999993

>  <m_primary>  (47) 
energy

>  <rmsd>  (47) 
11.111568696694127

>  <m_score__min__rmsd>  (47) 
11.111568696694127

>  <meeko>  (47) 
{"free_energy": -7.86, "intermolecular_energy": -9.36, "internal_energy": -1.22, "cluster_size": 1, "cluster_id": 6, "rank_in_cluster": 1}

>  <energy>  (47) 
-8.35

>  <cluster_rmsd>  (47) 
0.7

>  <cluster>  (47) 
4

$$$$

     RDKit          3D

 55 58  0  0  0  0  0  0  0  0999 V2000
  141.0380   68.1980  228.9060 C   0  0  0  0  0  0  0  0  0  0  0  0
  140.5540   68.5080  227.5380 C   0  0  0  0  0  0  0  0  0  0  0  0
  139.7330   67.6170  226.8800 C   0  0  0  0  0  0  0  0  0  0  0  0
  139.2850   67.9150  225.6030 C   0  0  0  0  0  0  0  0  0  0  0  0
  139.6330   69.0830  224.9560 C   0  0  0  0  0  0  0  0  0  0  0  0
  140.4610   69.9790  225.6240 C   0  0  0  0  0  0  0  0  0  0  0  0
  140.9120   69.6840  226.9030 C   0  0  0  0  0  0  0  0  0  0  0  0
  140.6990   71.1510  224.7440 C   0  0  0  0  0  0  0  0  0  0  0  0
  139.9120   70.7900  223.5350 C   0  0  0  0  0  0  0  0  0  0  0  0
  139.8100   71.6270  222.3420 C   0  0  0  0  0  0  0  0  0  0  0  0
  139.6170   71.0810  221.0900 C   0  0  0  0  0  0  0  0  0  0  0  0
  139.5180   71.8530  219.9450 C   0  0  0  0  0  0  0  0  0  0  0  0
  139.6210   73.2220  220.1040 C   0  0  0  0  0  0  0  0  0  0  0  0
  139.8140   73.8240  221.3260 C   0  0  0  0  0  0  0  0  0  0  0  0
  139.9260   75.2590  221.5210 C   0  0  0  0  0  0  0  0  0  0  0  0
  139.9280   75.7650  222.6730 O   0  0  0  0  0  0  0  0  0  0  0  0
  140.0410   76.1880  220.4340 N   0  0  0  0  0  0  0  0  0  0  0  0
  140.1450   77.5800  220.7860 C   0  0  0  0  0  0  0  0  0  0  0  0
  141.4700   77.9880  221.3060 C   0  0  0  0  0  0  0  0  0  0  0  0
  141.5600   79.2040  222.1320 C   0  0  0  0  0  0  0  0  0  0  0  0
  142.9440   79.4290  222.7190 C   0  0  0  0  0  0  0  0  0  0  0  0
  142.8550   80.5050  223.8120 C   0  0  0  0  0  0  0  0  0  0  0  0
  141.7880   81.5180  223.4790 C   0  0  0  0  0  0  0  0  0  0  0  0
  140.4070   80.8940  223.4890 C   0  0  0  0  0  0  0  0  0  0  0  0
  140.4980   79.4030  223.1610 C   0  0  0  0  0  0  0  0  0  0  0  0
  139.9040   73.0000  222.4250 C   0  0  0  0  0  0  0  0  0  0  0  0
  139.3450   69.6560  223.6880 N   0  0  0  0  0  0  0  0  0  0  0  0
  140.3525   68.6371  229.6458 H   0  0  0  0  0  0  0  0  0  0  0  0
  141.0757   67.1072  229.0432 H   0  0  0  0  0  0  0  0  0  0  0  0
  142.0446   68.6198  229.0432 H   0  0  0  0  0  0  0  0  0  0  0  0
  139.4356   66.6758  227.3655 H   0  0  0  0  0  0  0  0  0  0  0  0
  138.6302   67.1966  225.0880 H   0  0  0  0  0  0  0  0  0  0  0  0
  141.5670   70.3992  227.4221 H   0  0  0  0  0  0  0  0  0  0  0  0
  140.3254   72.0784  225.2027 H   0  0  0  0  0  0  0  0  0  0  0  0
  141.7623   71.3463  224.5409 H   0  0  0  0  0  0  0  0  0  0  0  0
  139.5386   69.9877  220.9976 H   0  0  0  0  0  0  0  0  0  0  0  0
  139.3646   71.3981  218.9553 H   0  0  0  0  0  0  0  0  0  0  0  0
  139.5451   73.8604  219.2114 H   0  0  0  0  0  0  0  0  0  0  0  0
  140.0510   75.7890  219.4890 H   0  0  0  0  0  0  0  0  0  0  0  0
  139.9302   78.1778  219.8879 H   0  0  0  0  0  0  0  0  0  0  0  0
  139.4253   77.7498  221.6003 H   0  0  0  0  0  0  0  0  0  0  0  0
  141.8502   77.1541  221.9143 H   0  0  0  0  0  0  0  0  0  0  0  0
  142.0479   78.2342  220.4030 H   0  0  0  0  0  0  0  0  0  0  0  0
  141.3613   79.9899  221.3884 H   0  0  0  0  0  0  0  0  0  0  0  0
  143.3167   78.4904  223.1550 H   0  0  0  0  0  0  0  0  0  0  0  0
  143.6339   79.7588  221.9282 H   0  0  0  0  0  0  0  0  0  0  0  0
  142.6106   80.0255  224.7714 H   0  0  0  0  0  0  0  0  0  0  0  0
  143.8239   81.0216  223.8787 H   0  0  0  0  0  0  0  0  0  0  0  0
  141.8196   82.3279  224.2226 H   0  0  0  0  0  0  0  0  0  0  0  0
  141.9840   81.9061  222.4686 H   0  0  0  0  0  0  0  0  0  0  0  0
  139.9587   81.0200  224.4856 H   0  0  0  0  0  0  0  0  0  0  0  0
  139.7836   81.3906  222.7309 H   0  0  0  0  0  0  0  0  0  0  0  0
  140.7530   78.8388  224.0702 H   0  0  0  0  0  0  0  0  0  0  0  0
  139.5318   79.0439  222.7770 H   0  0  0  0  0  0  0  0  0  0  0  0
  140.0578   73.4574  223.4135 H   0  0  0  0  0  0  0  0  0  0  0  0
  1  2  1  0
  2  3  2  0
  3  4  1  0
  4  5  2  0
  5  6  1  0
  6  7  2  0
  6  8  1  0
  8  9  1  0
  9 10  1  0
 10 11  2  0
 11 12  1  0
 12 13  2  0
 13 14  1  0
 14 15  1  0
 15 16  2  0
 15 17  1  0
 17 18  1  0
 18 19  1  0
 19 20  1  0
 20 21  1  0
 21 22  1  0
 22 23  1  0
 23 24  1  0
 24 25  1  0
 14 26  2  0
  9 27  2  0
  7  2  1  0
 26 10  1  0
 27  5  1  0
 25 20  1  0
  1 28  1  0
  1 29  1  0
  1 30  1  0
  3 31  1  0
  4 32  1  0
  7 33  1  0
  8 34  1  0
  8 35  1  0
 11 36  1  0
 12 37  1  0
 13 38  1  0
 17 39  1  0
 18 40  1  0
 18 41  1  0
 19 42  1  0
 19 43  1  0
 20 44  1  0
 21 45  1  0
 21 46  1  0
 22 47  1  0
 22 48  1  0
 23 49  1  0
 23 50  1  0
 24 51  1  0
 24 52  1  0
 25 53  1  0
 25 54  1  0
 26 55  1  0
M  END
>  <smiles>  (48) 
Cc1ccc2c(c1)CC(c1cccc(C(=O)NCCC3CCCCC3)c1)=N2

>  <score_type>  (48) 
oracle

>  <origin>  (48) 
autodockgpu

>  <m_score__min__energy>  (48) 
-8.6999999999999993

>  <m_primary>  (48) 
energy

>  <rmsd>  (48) 
4.4856437024370415

>  <m_score__min__rmsd>  (48) 
4.4856437024370415

>  <meeko>  (48) 
{"free_energy": -8.33, "intermolecular_energy": -9.83, "internal_energy": -0.84, "cluster_size": 23, "cluster_id": 3, "rank_in_cluster": 8}

>  <energy>  (48) 
-8.27

>  <cluster_rmsd>  (48) 
0.68

>  <cluster>  (48) 
4

$$$$

     RDKit          3D

 55 58  0  0  0  0  0  0  0  0999 V2000
  140.4220   68.1560  228.9900 C   0  0  0  0  0  0  0  0  0  0  0  0
  140.5180   69.2290  227.9680 C   0  0  0  0  0  0  0  0  0  0  0  0
  140.9800   70.4780  228.3230 C   0  0  0  0  0  0  0  0  0  0  0  0
  141.0660   71.4730  227.3630 C   0  0  0  0  0  0  0  0  0  0  0  0
  140.7030   71.2600  226.0490 C   0  0  0  0  0  0  0  0  0  0  0  0
  140.2380   69.9980  225.6950 C   0  0  0  0  0  0  0  0  0  0  0  0
  140.1500   68.9980  226.6540 C   0  0  0  0  0  0  0  0  0  0  0  0
  139.9110   70.0020  224.2470 C   0  0  0  0  0  0  0  0  0  0  0  0
  140.2490   71.3970  223.8610 C   0  0  0  0  0  0  0  0  0  0  0  0
  140.1060   71.9330  222.5100 C   0  0  0  0  0  0  0  0  0  0  0  0
  139.8480   71.1140  221.4300 C   0  0  0  0  0  0  0  0  0  0  0  0
  139.7090   71.5980  220.1400 C   0  0  0  0  0  0  0  0  0  0  0  0
  139.8410   72.9630  219.9690 C   0  0  0  0  0  0  0  0  0  0  0  0
  140.0980   73.8290  221.0050 C   0  0  0  0  0  0  0  0  0  0  0  0
  140.2420   75.2670  220.8530 C   0  0  0  0  0  0  0  0  0  0  0  0
  139.3470   75.9610  220.3050 O   0  0  0  0  0  0  0  0  0  0  0  0
  141.3970   75.9880  221.3070 N   0  0  0  0  0  0  0  0  0  0  0  0
  141.3950   77.4110  221.0850 C   0  0  0  0  0  0  0  0  0  0  0  0
  140.5900   78.1850  222.0570 C   0  0  0  0  0  0  0  0  0  0  0  0
  141.1760   79.4000  222.6500 C   0  0  0  0  0  0  0  0  0  0  0  0
  140.5720   80.6840  222.1090 C   0  0  0  0  0  0  0  0  0  0  0  0
  141.4580   81.8680  222.5230 C   0  0  0  0  0  0  0  0  0  0  0  0
  142.0990   81.6130  223.8630 C   0  0  0  0  0  0  0  0  0  0  0  0
  143.0730   80.4520  223.8020 C   0  0  0  0  0  0  0  0  0  0  0  0
  142.6650   79.4790  222.6930 C   0  0  0  0  0  0  0  0  0  0  0  0
  140.2260   73.2840  222.2630 C   0  0  0  0  0  0  0  0  0  0  0  0
  140.6780   72.0530  224.8700 N   0  0  0  0  0  0  0  0  0  0  0  0
  140.4619   68.6020  229.9947 H   0  0  0  0  0  0  0  0  0  0  0  0
  139.4719   67.6156  228.8662 H   0  0  0  0  0  0  0  0  0  0  0  0
  141.2611   67.4555  228.8662 H   0  0  0  0  0  0  0  0  0  0  0  0
  141.2784   70.6834  229.3616 H   0  0  0  0  0  0  0  0  0  0  0  0
  141.4360   72.4660  227.6581 H   0  0  0  0  0  0  0  0  0  0  0  0
  139.7808   68.0032  226.3640 H   0  0  0  0  0  0  0  0  0  0  0  0
  140.5250   69.2744  223.6960 H   0  0  0  0  0  0  0  0  0  0  0  0
  138.8716   69.7185  224.0250 H   0  0  0  0  0  0  0  0  0  0  0  0
  139.7486   70.0319  221.6007 H   0  0  0  0  0  0  0  0  0  0  0  0
  139.5034   70.9281  219.2921 H   0  0  0  0  0  0  0  0  0  0  0  0
  139.7353   73.3763  218.9551 H   0  0  0  0  0  0  0  0  0  0  0  0
  142.1300   75.4370  221.7650 H   0  0  0  0  0  0  0  0  0  0  0  0
  142.4340   77.7681  221.1385 H   0  0  0  0  0  0  0  0  0  0  0  0
  140.9337   77.5723  220.0995 H   0  0  0  0  0  0  0  0  0  0  0  0
  139.6656   78.4883  221.5436 H   0  0  0  0  0  0  0  0  0  0  0  0
  140.4703   77.5013  222.9104 H   0  0  0  0  0  0  0  0  0  0  0  0
  140.8829   79.2932  223.7048 H   0  0  0  0  0  0  0  0  0  0  0  0
  140.5163   80.6314  221.0117 H   0  0  0  0  0  0  0  0  0  0  0  0
  139.5591   80.8181  222.5165 H   0  0  0  0  0  0  0  0  0  0  0  0
  142.2450   82.0110  221.7679 H   0  0  0  0  0  0  0  0  0  0  0  0
  140.8311   82.7688  222.5974 H   0  0  0  0  0  0  0  0  0  0  0  0
  142.6403   82.5173  224.1781 H   0  0  0  0  0  0  0  0  0  0  0  0
  141.3059   81.3604  224.5822 H   0  0  0  0  0  0  0  0  0  0  0  0
  144.0832   80.8354  223.5958 H   0  0  0  0  0  0  0  0  0  0  0  0
  143.0623   79.9228  224.7663 H   0  0  0  0  0  0  0  0  0  0  0  0
  143.0446   79.8400  221.7257 H   0  0  0  0  0  0  0  0  0  0  0  0
  143.0875   78.4834  222.8937 H   0  0  0  0  0  0  0  0  0  0  0  0
  140.4332   73.9565  223.1085 H   0  0  0  0  0  0  0  0  0  0  0  0
  1  2  1  0
  2  3  2  0
  3  4  1  0
  4  5  2  0
  5  6  1  0
  6  7  2  0
  6  8  1  0
  8  9  1  0
  9 10  1  0
 10 11  2  0
 11 12  1  0
 12 13  2  0
 13 14  1  0
 14 15  1  0
 15 16  2  0
 15 17  1  0
 17 18  1  0
 18 19  1  0
 19 20  1  0
 20 21  1  0
 21 22  1  0
 22 23  1  0
 23 24  1  0
 24 25  1  0
 14 26  2  0
  9 27  2  0
  7  2  1  0
 26 10  1  0
 27  5  1  0
 25 20  1  0
  1 28  1  0
  1 29  1  0
  1 30  1  0
  3 31  1  0
  4 32  1  0
  7 33  1  0
  8 34  1  0
  8 35  1  0
 11 36  1  0
 12 37  1  0
 13 38  1  0
 17 39  1  0
 18 40  1  0
 18 41  1  0
 19 42  1  0
 19 43  1  0
 20 44  1  0
 21 45  1  0
 21 46  1  0
 22 47  1  0
 22 48  1  0
 23 49  1  0
 23 50  1  0
 24 51  1  0
 24 52  1  0
 25 53  1  0
 25 54  1  0
 26 55  1  0
M  END
>  <smiles>  (49) 
Cc1ccc2c(c1)CC(c1cccc(C(=O)NCCC3CCCCC3)c1)=N2

>  <score_type>  (49) 
oracle

>  <origin>  (49) 
autodockgpu

>  <m_score__min__energy>  (49) 
-8.6999999999999993

>  <m_primary>  (49) 
energy

>  <rmsd>  (49) 
4.1865175077269505

>  <m_score__min__rmsd>  (49) 
4.1865175077269505

>  <meeko>  (49) 
{"free_energy": -8.59, "intermolecular_energy": -10.08, "internal_energy": -0.76, "cluster_size": 23, "cluster_id": 3, "rank_in_cluster": 1}

>  <energy>  (49) 
-8.06

>  <cluster_rmsd>  (49) 
0.0

>  <cluster>  (49) 
5

$$$$

     RDKit          3D

 55 58  0  0  0  0  0  0  0  0999 V2000
  147.2060   66.5960  215.9580 C   0  0  0  0  0  0  0  0  0  0  0  0
  146.4960   67.3180  217.0430 C   0  0  0  0  0  0  0  0  0  0  0  0
  146.2940   66.7040  218.2600 C   0  0  0  0  0  0  0  0  0  0  0  0
  145.6310   67.3850  219.2680 C   0  0  0  0  0  0  0  0  0  0  0  0
  145.1590   68.6710  219.0990 C   0  0  0  0  0  0  0  0  0  0  0  0
  145.3670   69.2880  217.8700 C   0  0  0  0  0  0  0  0  0  0  0  0
  146.0300   68.6080  216.8570 C   0  0  0  0  0  0  0  0  0  0  0  0
  144.7820   70.6510  217.9180 C   0  0  0  0  0  0  0  0  0  0  0  0
  144.2390   70.7020  219.3020 C   0  0  0  0  0  0  0  0  0  0  0  0
  143.5450   71.8550  219.8700 C   0  0  0  0  0  0  0  0  0  0  0  0
  143.9490   73.1470  219.6020 C   0  0  0  0  0  0  0  0  0  0  0  0
  143.3080   74.2550  220.1290 C   0  0  0  0  0  0  0  0  0  0  0  0
  142.2230   74.0160  220.9520 C   0  0  0  0  0  0  0  0  0  0  0  0
  141.7740   72.7520  221.2550 C   0  0  0  0  0  0  0  0  0  0  0  0
  140.6380   72.4730  222.1170 C   0  0  0  0  0  0  0  0  0  0  0  0
  140.0340   73.3940  222.7240 O   0  0  0  0  0  0  0  0  0  0  0  0
  140.1320   71.1480  222.3350 N   0  0  0  0  0  0  0  0  0  0  0  0
  139.0000   71.0300  223.2170 C   0  0  0  0  0  0  0  0  0  0  0  0
  139.1700   70.0460  224.3100 C   0  0  0  0  0  0  0  0  0  0  0  0
  139.6970   70.5120  225.6040 C   0  0  0  0  0  0  0  0  0  0  0  0
  140.7110   71.6350  225.4700 C   0  0  0  0  0  0  0  0  0  0  0  0
  141.4380   71.8170  226.8100 C   0  0  0  0  0  0  0  0  0  0  0  0
  140.5190   71.5010  227.9640 C   0  0  0  0  0  0  0  0  0  0  0  0
  140.1250   70.0370  227.9750 C   0  0  0  0  0  0  0  0  0  0  0  0
  140.1710   69.4660  226.5560 C   0  0  0  0  0  0  0  0  0  0  0  0
  142.4560   71.6930  220.6990 C   0  0  0  0  0  0  0  0  0  0  0  0
  144.4640   69.6050  219.9150 N   0  0  0  0  0  0  0  0  0  0  0  0
  147.9130   65.8770  216.3975 H   0  0  0  0  0  0  0  0  0  0  0  0
  146.4752   66.0582  215.3361 H   0  0  0  0  0  0  0  0  0  0  0  0
  147.7560   67.3177  215.3361 H   0  0  0  0  0  0  0  0  0  0  0  0
  146.6569   65.6796  218.4301 H   0  0  0  0  0  0  0  0  0  0  0  0
  145.4756   66.8843  220.2350 H   0  0  0  0  0  0  0  0  0  0  0  0
  146.1879   69.1041  215.8880 H   0  0  0  0  0  0  0  0  0  0  0  0
  145.5505   71.4222  217.7608 H   0  0  0  0  0  0  0  0  0  0  0  0
  144.0300   70.8402  217.1378 H   0  0  0  0  0  0  0  0  0  0  0  0
  144.8157   73.3028  218.9428 H   0  0  0  0  0  0  0  0  0  0  0  0
  143.6459   75.2773  219.9036 H   0  0  0  0  0  0  0  0  0  0  0  0
  141.6939   74.8778  221.3849 H   0  0  0  0  0  0  0  0  0  0  0  0
  140.6080   70.3880  221.8390 H   0  0  0  0  0  0  0  0  0  0  0  0
  138.8128   72.0154  223.6686 H   0  0  0  0  0  0  0  0  0  0  0  0
  138.1618   70.6708  222.6019 H   0  0  0  0  0  0  0  0  0  0  0  0
  138.1821   69.6025  224.5033 H   0  0  0  0  0  0  0  0  0  0  0  0
  139.9457   69.3617  223.9358 H   0  0  0  0  0  0  0  0  0  0  0  0
  138.7900   70.9143  226.0789 H   0  0  0  0  0  0  0  0  0  0  0  0
  141.4403   71.3814  224.6866 H   0  0  0  0  0  0  0  0  0  0  0  0
  140.1968   72.5684  225.1972 H   0  0  0  0  0  0  0  0  0  0  0  0
  142.3057   71.1418  226.8444 H   0  0  0  0  0  0  0  0  0  0  0  0
  141.7646   72.8639  226.8952 H   0  0  0  0  0  0  0  0  0  0  0  0
  141.0334   71.7399  228.9065 H   0  0  0  0  0  0  0  0  0  0  0  0
  139.6055   72.1037  227.8531 H   0  0  0  0  0  0  0  0  0  0  0  0
  140.8237   69.4776  228.6145 H   0  0  0  0  0  0  0  0  0  0  0  0
  139.1010   69.9441  228.3660 H   0  0  0  0  0  0  0  0  0  0  0  0
  141.2029   69.1783  226.3061 H   0  0  0  0  0  0  0  0  0  0  0  0
  139.5259   68.5776  226.4884 H   0  0  0  0  0  0  0  0  0  0  0  0
  142.1164   70.6718  220.9267 H   0  0  0  0  0  0  0  0  0  0  0  0
  1  2  1  0
  2  3  2  0
  3  4  1  0
  4  5  2  0
  5  6  1  0
  6  7  2  0
  6  8  1  0
  8  9  1  0
  9 10  1  0
 10 11  2  0
 11 12  1  0
 12 13  2  0
 13 14  1  0
 14 15  1  0
 15 16  2  0
 15 17  1  0
 17 18  1  0
 18 19  1  0
 19 20  1  0
 20 21  1  0
 21 22  1  0
 22 23  1  0
 23 24  1  0
 24 25  1  0
 14 26  2  0
  9 27  2  0
  7  2  1  0
 26 10  1  0
 27  5  1  0
 25 20  1  0
  1 28  1  0
  1 29  1  0
  1 30  1  0
  3 31  1  0
  4 32  1  0
  7 33  1  0
  8 34  1  0
  8 35  1  0
 11 36  1  0
 12 37  1  0
 13 38  1  0
 17 39  1  0
 18 40  1  0
 18 41  1  0
 19 42  1  0
 19 43  1  0
 20 44  1  0
 21 45  1  0
 21 46  1  0
 22 47  1  0
 22 48  1  0
 23 49  1  0
 23 50  1  0
 24 51  1  0
 24 52  1  0
 25 53  1  0
 25 54  1  0
 26 55  1  0
M  END
>  <smiles>  (50) 
Cc1ccc2c(c1)CC(c1cccc(C(=O)NCCC3CCCCC3)c1)=N2

>  <score_type>  (50) 
oracle

>  <origin>  (50) 
autodockgpu

>  <m_score__min__energy>  (50) 
-8.6999999999999993

>  <m_primary>  (50) 
energy

>  <rmsd>  (50) 
9.289236262965215

>  <m_score__min__rmsd>  (50) 
9.289236262965215

>  <meeko>  (50) 
{"free_energy": -8.06, "intermolecular_energy": -9.56, "internal_energy": -0.95, "cluster_size": 1, "cluster_id": 5, "rank_in_cluster": 1}

>  <energy>  (50) 
-7.86

>  <cluster_rmsd>  (50) 
0.0

>  <cluster>  (50) 
6

$$$$
