
     RDKit          3D

 52 55  0  0  0  0  0  0  0  0999 V2000
  140.2590   71.2930  221.1970 O   0  0  0  0  0  0  0  0  0  0  0  0
  139.9200   71.7980  222.3070 C   0  0  0  0  0  0  0  0  0  0  0  0
  139.5240   73.1640  222.2830 N   0  0  0  0  0  0  0  0  0  0  0  0
  139.5440   73.8540  220.9810 C   0  0  0  0  0  0  0  0  0  0  0  0
  140.8550   74.4570  220.7860 C   0  0  0  0  0  0  0  0  0  0  0  0
  141.8380   73.6710  220.5670 O   0  0  0  0  0  0  0  0  0  0  0  0
  141.1570   75.8470  220.8160 N   0  0  0  0  0  0  0  0  0  0  0  0
  141.0360   76.6290  222.0260 C   0  0  0  0  0  0  0  0  0  0  0  0
  141.4590   78.0040  221.6360 C   0  0  2  0  0  0  0  0  0  0  0  0
  140.7280   79.0580  222.4120 C   0  0  0  0  0  0  0  0  0  0  0  0
  141.3150   80.2620  222.7420 C   0  0  0  0  0  0  0  0  0  0  0  0
  140.6020   81.2140  223.4640 C   0  0  0  0  0  0  0  0  0  0  0  0
  139.2950   80.9450  223.8500 C   0  0  0  0  0  0  0  0  0  0  0  0
  138.6880   79.7440  223.5300 C   0  0  0  0  0  0  0  0  0  0  0  0
  139.4180   78.8150  222.8110 C   0  0  0  0  0  0  0  0  0  0  0  0
  141.1260   78.0780  220.1720 C   0  0  0  0  0  0  0  0  0  0  0  0
  141.5960   76.6850  219.7250 C   0  0  1  0  0  0  0  0  0  0  0  0
  143.0700   76.7610  219.5250 C   0  0  0  0  0  0  0  0  0  0  0  0
  143.8030   75.7230  220.0670 O   0  0  0  0  0  0  0  0  0  0  0  0
  139.9330   71.0310  223.5360 C   0  0  0  0  0  0  0  0  0  0  0  0
  139.4170   69.7560  223.5470 C   0  0  0  0  0  0  0  0  0  0  0  0
  139.3890   68.9550  224.6690 C   0  0  0  0  0  0  0  0  0  0  0  0
  139.9180   69.4960  225.8340 C   0  0  0  0  0  0  0  0  0  0  0  0
  139.9240   68.7590  226.9860 C   0  0  0  0  0  0  0  0  0  0  0  0
  140.4470   69.2820  228.1540 C   0  0  0  0  0  0  0  0  0  0  0  0
  140.4130   68.4880  229.2470 F   0  0  0  0  0  0  0  0  0  0  0  0
  140.9680   70.5580  228.1640 C   0  0  0  0  0  0  0  0  0  0  0  0
  140.9530   71.2860  226.9900 C   0  0  0  0  0  0  0  0  0  0  0  0
  140.4320   70.7630  225.8260 C   0  0  0  0  0  0  0  0  0  0  0  0
  140.4350   71.5030  224.7020 N   0  0  0  0  0  0  0  0  0  0  0  0
  139.2310   73.6480  223.1560 H   0  0  0  0  0  0  0  0  0  0  0  0
  139.3474   73.1300  220.1765 H   0  0  0  0  0  0  0  0  0  0  0  0
  138.7687   74.6340  220.9610 H   0  0  0  0  0  0  0  0  0  0  0  0
  139.9958   76.6306  222.3837 H   0  0  0  0  0  0  0  0  0  0  0  0
  141.6482   76.2234  222.8449 H   0  0  0  0  0  0  0  0  0  0  0  0
  142.5235   78.1865  221.8447 H   0  0  0  0  0  0  0  0  0  0  0  0
  142.3501   80.4701  222.4333 H   0  0  0  0  0  0  0  0  0  0  0  0
  141.0704   82.1738  223.7275 H   0  0  0  0  0  0  0  0  0  0  0  0
  138.7332   81.6998  224.4198 H   0  0  0  0  0  0  0  0  0  0  0  0
  137.6534   79.5336  223.8388 H   0  0  0  0  0  0  0  0  0  0  0  0
  138.9487   77.8558  222.5470 H   0  0  0  0  0  0  0  0  0  0  0  0
  140.0480   78.2191  220.0045 H   0  0  0  0  0  0  0  0  0  0  0  0
  141.5860   78.9191  219.6326 H   0  0  0  0  0  0  0  0  0  0  0  0
  141.2010   76.2926  218.7763 H   0  0  0  0  0  0  0  0  0  0  0  0
  143.2634   76.7819  218.4423 H   0  0  0  0  0  0  0  0  0  0  0  0
  143.3978   77.6677  220.0546 H   0  0  0  0  0  0  0  0  0  0  0  0
  143.3440   75.2440  220.7950 H   0  0  0  0  0  0  0  0  0  0  0  0
  139.0044   69.3536  222.6101 H   0  0  0  0  0  0  0  0  0  0  0  0
  138.9689   67.9387  224.6429 H   0  0  0  0  0  0  0  0  0  0  0  0
  139.5087   67.7404  226.9832 H   0  0  0  0  0  0  0  0  0  0  0  0
  141.3865   70.9872  229.0863 H   0  0  0  0  0  0  0  0  0  0  0  0
  141.3659   72.3055  226.9840 H   0  0  0  0  0  0  0  0  0  0  0  0
  1  2  2  0
  2  3  1  0
  3  4  1  0
  4  5  1  0
  5  6  2  0
  5  7  1  0
  7  8  1  0
  8  9  1  0
  9 10  1  0
 10 11  2  0
 11 12  1  0
 12 13  2  0
 13 14  1  0
 14 15  2  0
  9 16  1  0
 16 17  1  0
 17 18  1  0
 18 19  1  0
  2 20  1  0
 20 21  2  0
 21 22  1  0
 22 23  2  0
 23 24  1  0
 24 25  2  0
 25 26  1  0
 25 27  1  0
 27 28  2  0
 28 29  1  0
 29 30  2  0
 17  7  1  0
 30 20  1  0
 15 10  1  0
 29 23  1  0
  3 31  1  0
  4 32  1  0
  4 33  1  0
  8 34  1  0
  8 35  1  0
  9 36  1  6
 11 37  1  0
 12 38  1  0
 13 39  1  0
 14 40  1  0
 15 41  1  0
 16 42  1  0
 16 43  1  0
 17 44  1  6
 18 45  1  0
 18 46  1  0
 19 47  1  0
 21 48  1  0
 22 49  1  0
 24 50  1  0
 27 51  1  0
 28 52  1  0
M  END
>  <smiles>  (1) 
O=C(NCC(=O)N1C[C@H](c2ccccc2)C[C@H]1CO)c1ccc2cc(F)ccc2n1

>  <score_type>  (1) 
oracle

>  <origin>  (1) 
autodockgpu

>  <m_score__min__energy>  (1) 
-9.0299999999999994

>  <m_primary>  (1) 
energy

>  <rmsd>  (1) 
2.4482989798772326

>  <m_score__min__rmsd>  (1) 
2.4482989798772326

>  <meeko>  (1) 
{"free_energy": -8.21, "intermolecular_energy": -10.3, "internal_energy": -2.0, "cluster_size": 40, "cluster_id": 1, "rank_in_cluster": 22}

>  <energy>  (1) 
-9.03

>  <cluster_rmsd>  (1) 
0.0

>  <cluster>  (1) 
1

$$$$

     RDKit          3D

 52 55  0  0  0  0  0  0  0  0999 V2000
  136.6860   71.5470  221.3630 O   0  0  0  0  0  0  0  0  0  0  0  0
  137.4020   71.9930  222.3070 C   0  0  0  0  0  0  0  0  0  0  0  0
  137.5980   73.4010  222.3370 N   0  0  0  0  0  0  0  0  0  0  0  0
  136.9550   74.1990  221.2780 C   0  0  0  0  0  0  0  0  0  0  0  0
  137.9860   74.8710  220.4990 C   0  0  0  0  0  0  0  0  0  0  0  0
  137.7700   75.0310  219.2500 O   0  0  0  0  0  0  0  0  0  0  0  0
  139.2230   75.3700  220.9910 N   0  0  0  0  0  0  0  0  0  0  0  0
  139.2870   76.4980  221.8940 C   0  0  0  0  0  0  0  0  0  0  0  0
  140.7400   76.6790  222.1750 C   0  0  2  0  0  0  0  0  0  0  0  0
  141.0920   78.1190  222.4040 C   0  0  0  0  0  0  0  0  0  0  0  0
  141.4810   78.5880  223.6420 C   0  0  0  0  0  0  0  0  0  0  0  0
  141.7980   79.9320  223.8120 C   0  0  0  0  0  0  0  0  0  0  0  0
  141.7220   80.7980  222.7290 C   0  0  0  0  0  0  0  0  0  0  0  0
  141.3340   80.3480  221.4800 C   0  0  0  0  0  0  0  0  0  0  0  0
  141.0240   79.0080  221.3370 C   0  0  0  0  0  0  0  0  0  0  0  0
  141.4120   76.1450  220.9420 C   0  0  0  0  0  0  0  0  0  0  0  0
  140.5550   74.8940  220.6960 C   0  0  1  0  0  0  0  0  0  0  0  0
  141.0690   73.8240  221.5960 C   0  0  0  0  0  0  0  0  0  0  0  0
  140.1370   73.2470  222.4360 O   0  0  0  0  0  0  0  0  0  0  0  0
  137.9910   71.1210  223.3030 C   0  0  0  0  0  0  0  0  0  0  0  0
  137.5470   69.8250  223.4200 C   0  0  0  0  0  0  0  0  0  0  0  0
  138.0490   68.9260  224.3380 C   0  0  0  0  0  0  0  0  0  0  0  0
  139.0570   69.3890  225.1730 C   0  0  0  0  0  0  0  0  0  0  0  0
  139.6040   68.5540  226.1090 C   0  0  0  0  0  0  0  0  0  0  0  0
  140.6080   68.9970  226.9490 C   0  0  0  0  0  0  0  0  0  0  0  0
  141.0920   68.1090  227.8440 F   0  0  0  0  0  0  0  0  0  0  0  0
  141.0670   70.2930  226.8480 C   0  0  0  0  0  0  0  0  0  0  0  0
  140.5030   71.1210  225.8970 C   0  0  0  0  0  0  0  0  0  0  0  0
  139.5010   70.6770  225.0600 C   0  0  0  0  0  0  0  0  0  0  0  0
  138.9760   71.5130  224.1460 N   0  0  0  0  0  0  0  0  0  0  0  0
  138.1750   73.8420  223.0820 H   0  0  0  0  0  0  0  0  0  0  0  0
  136.3693   73.5380  220.6223 H   0  0  0  0  0  0  0  0  0  0  0  0
  136.2848   74.9451  221.7298 H   0  0  0  0  0  0  0  0  0  0  0  0
  138.8690   77.3982  221.4198 H   0  0  0  0  0  0  0  0  0  0  0  0
  138.7046   76.3288  222.8117 H   0  0  0  0  0  0  0  0  0  0  0  0
  141.0537   76.1610  223.0933 H   0  0  0  0  0  0  0  0  0  0  0  0
  141.5406   77.8978  224.4964 H   0  0  0  0  0  0  0  0  0  0  0  0
  142.1072   80.3066  224.7989 H   0  0  0  0  0  0  0  0  0  0  0  0
  141.9746   81.8597  222.8668 H   0  0  0  0  0  0  0  0  0  0  0  0
  141.2737   81.0367  220.6244 H   0  0  0  0  0  0  0  0  0  0  0  0
  140.7144   78.6342  220.3499 H   0  0  0  0  0  0  0  0  0  0  0  0
  141.3505   76.8541  220.1033 H   0  0  0  0  0  0  0  0  0  0  0  0
  142.4907   75.9562  221.0456 H   0  0  0  0  0  0  0  0  0  0  0  0
  140.5747   74.4516  219.6891 H   0  0  0  0  0  0  0  0  0  0  0  0
  141.4942   73.0286  220.9663 H   0  0  0  0  0  0  0  0  0  0  0  0
  141.8023   74.3133  222.2540 H   0  0  0  0  0  0  0  0  0  0  0  0
  139.7230   73.8780  223.0690 H   0  0  0  0  0  0  0  0  0  0  0  0
  136.7476   69.4864  222.7445 H   0  0  0  0  0  0  0  0  0  0  0  0
  137.6702   67.8955  224.4050 H   0  0  0  0  0  0  0  0  0  0  0  0
  139.2407   67.5192  226.1937 H   0  0  0  0  0  0  0  0  0  0  0  0
  141.8650   70.6598  227.5103 H   0  0  0  0  0  0  0  0  0  0  0  0
  140.8609   72.1571  225.8053 H   0  0  0  0  0  0  0  0  0  0  0  0
  1  2  2  0
  2  3  1  0
  3  4  1  0
  4  5  1  0
  5  6  2  0
  5  7  1  0
  7  8  1  0
  8  9  1  0
  9 10  1  0
 10 11  2  0
 11 12  1  0
 12 13  2  0
 13 14  1  0
 14 15  2  0
  9 16  1  0
 16 17  1  0
 17 18  1  0
 18 19  1  0
  2 20  1  0
 20 21  2  0
 21 22  1  0
 22 23  2  0
 23 24  1  0
 24 25  2  0
 25 26  1  0
 25 27  1  0
 27 28  2  0
 28 29  1  0
 29 30  2  0
 17  7  1  0
 30 20  1  0
 15 10  1  0
 29 23  1  0
  3 31  1  0
  4 32  1  0
  4 33  1  0
  8 34  1  0
  8 35  1  0
  9 36  1  1
 11 37  1  0
 12 38  1  0
 13 39  1  0
 14 40  1  0
 15 41  1  0
 16 42  1  0
 16 43  1  0
 17 44  1  6
 18 45  1  0
 18 46  1  0
 19 47  1  0
 21 48  1  0
 22 49  1  0
 24 50  1  0
 27 51  1  0
 28 52  1  0
M  END
>  <smiles>  (2) 
O=C(NCC(=O)N1C[C@H](c2ccccc2)C[C@H]1CO)c1ccc2cc(F)ccc2n1

>  <score_type>  (2) 
oracle

>  <origin>  (2) 
autodockgpu

>  <m_score__min__energy>  (2) 
-9.0299999999999994

>  <m_primary>  (2) 
energy

>  <rmsd>  (2) 
2.641657876196495

>  <m_score__min__rmsd>  (2) 
2.641657876196495

>  <meeko>  (2) 
{"free_energy": -8.05, "intermolecular_energy": -10.14, "internal_energy": -2.43, "cluster_size": 40, "cluster_id": 1, "rank_in_cluster": 27}

>  <energy>  (2) 
-8.97

>  <cluster_rmsd>  (2) 
0.33

>  <cluster>  (2) 
1

$$$$

     RDKit          3D

 52 55  0  0  0  0  0  0  0  0999 V2000
  141.0730   71.9520  221.5590 O   0  0  0  0  0  0  0  0  0  0  0  0
  140.2710   72.2090  222.5050 C   0  0  0  0  0  0  0  0  0  0  0  0
  139.4620   73.3680  222.3470 N   0  0  0  0  0  0  0  0  0  0  0  0
  139.6320   74.1520  221.1110 C   0  0  0  0  0  0  0  0  0  0  0  0
  139.4160   75.5610  221.4100 C   0  0  0  0  0  0  0  0  0  0  0  0
  138.3080   75.8830  221.9580 O   0  0  0  0  0  0  0  0  0  0  0  0
  140.3210   76.6260  221.1490 N   0  0  0  0  0  0  0  0  0  0  0  0
  140.9780   77.3490  222.2160 C   0  0  0  0  0  0  0  0  0  0  0  0
  141.8400   78.3490  221.5250 C   0  0  2  0  0  0  0  0  0  0  0  0
  141.9800   79.6130  222.3190 C   0  0  0  0  0  0  0  0  0  0  0  0
  142.6850   79.6580  223.5040 C   0  0  0  0  0  0  0  0  0  0  0  0
  142.7900   80.8520  224.2110 C   0  0  0  0  0  0  0  0  0  0  0  0
  142.1820   81.9980  223.7160 C   0  0  0  0  0  0  0  0  0  0  0  0
  141.4710   81.9760  222.5310 C   0  0  0  0  0  0  0  0  0  0  0  0
  141.3800   80.7760  221.8470 C   0  0  0  0  0  0  0  0  0  0  0  0
  141.1260   78.6000  220.2260 C   0  0  0  0  0  0  0  0  0  0  0  0
  140.7200   77.1620  219.8690 C   0  0  1  0  0  0  0  0  0  0  0  0
  141.9040   76.5130  219.2400 C   0  0  0  0  0  0  0  0  0  0  0  0
  142.6650   75.7180  220.0740 O   0  0  0  0  0  0  0  0  0  0  0  0
  140.1790   71.3710  223.6840 C   0  0  0  0  0  0  0  0  0  0  0  0
  139.5890   70.1320  223.5930 C   0  0  0  0  0  0  0  0  0  0  0  0
  139.4580   69.2700  224.6610 C   0  0  0  0  0  0  0  0  0  0  0  0
  139.9610   69.7080  225.8790 C   0  0  0  0  0  0  0  0  0  0  0  0
  139.8670   68.9060  226.9830 C   0  0  0  0  0  0  0  0  0  0  0  0
  140.3630   69.3260  228.2040 C   0  0  0  0  0  0  0  0  0  0  0  0
  140.2290   68.4730  229.2430 F   0  0  0  0  0  0  0  0  0  0  0  0
  140.9570   70.5640  228.3150 C   0  0  0  0  0  0  0  0  0  0  0  0
  141.0430   71.3590  227.1890 C   0  0  0  0  0  0  0  0  0  0  0  0
  140.5490   70.9390  225.9730 C   0  0  0  0  0  0  0  0  0  0  0  0
  140.6500   71.7420  224.8980 N   0  0  0  0  0  0  0  0  0  0  0  0
  138.7790   73.6450  223.0820 H   0  0  0  0  0  0  0  0  0  0  0  0
  140.6507   74.0096  220.7211 H   0  0  0  0  0  0  0  0  0  0  0  0
  138.9062   73.8168  220.3554 H   0  0  0  0  0  0  0  0  0  0  0  0
  140.2381   77.8519  222.8560 H   0  0  0  0  0  0  0  0  0  0  0  0
  141.5586   76.6836  222.8719 H   0  0  0  0  0  0  0  0  0  0  0  0
  142.8690   77.9857  221.3864 H   0  0  0  0  0  0  0  0  0  0  0  0
  143.1655   78.7474  223.8911 H   0  0  0  0  0  0  0  0  0  0  0  0
  143.3513   80.8877  225.1563 H   0  0  0  0  0  0  0  0  0  0  0  0
  142.2678   82.9403  224.2770 H   0  0  0  0  0  0  0  0  0  0  0  0
  140.9910   82.8863  222.1424 H   0  0  0  0  0  0  0  0  0  0  0  0
  140.8169   80.7410  220.9027 H   0  0  0  0  0  0  0  0  0  0  0  0
  140.2497   79.2512  220.3600 H   0  0  0  0  0  0  0  0  0  0  0  0
  141.7214   79.1191  219.4605 H   0  0  0  0  0  0  0  0  0  0  0  0
  139.9044   77.0275  219.1433 H   0  0  0  0  0  0  0  0  0  0  0  0
  141.5448   75.8860  218.4106 H   0  0  0  0  0  0  0  0  0  0  0  0
  142.5640   77.3347  218.9249 H   0  0  0  0  0  0  0  0  0  0  0  0
  142.6850   76.0220  221.0110 H   0  0  0  0  0  0  0  0  0  0  0  0
  139.2006   69.8114  222.6151 H   0  0  0  0  0  0  0  0  0  0  0  0
  138.9794   68.2854  224.5537 H   0  0  0  0  0  0  0  0  0  0  0  0
  139.3923   67.9173  226.8990 H   0  0  0  0  0  0  0  0  0  0  0  0
  141.3543   70.9119  229.2799 H   0  0  0  0  0  0  0  0  0  0  0  0
  141.5162   72.3492  227.2644 H   0  0  0  0  0  0  0  0  0  0  0  0
  1  2  2  0
  2  3  1  0
  3  4  1  0
  4  5  1  0
  5  6  2  0
  5  7  1  0
  7  8  1  0
  8  9  1  0
  9 10  1  0
 10 11  2  0
 11 12  1  0
 12 13  2  0
 13 14  1  0
 14 15  2  0
  9 16  1  0
 16 17  1  0
 17 18  1  0
 18 19  1  0
  2 20  1  0
 20 21  2  0
 21 22  1  0
 22 23  2  0
 23 24  1  0
 24 25  2  0
 25 26  1  0
 25 27  1  0
 27 28  2  0
 28 29  1  0
 29 30  2  0
 17  7  1  0
 30 20  1  0
 15 10  1  0
 29 23  1  0
  3 31  1  0
  4 32  1  0
  4 33  1  0
  8 34  1  0
  8 35  1  0
  9 36  1  6
 11 37  1  0
 12 38  1  0
 13 39  1  0
 14 40  1  0
 15 41  1  0
 16 42  1  0
 16 43  1  0
 17 44  1  6
 18 45  1  0
 18 46  1  0
 19 47  1  0
 21 48  1  0
 22 49  1  0
 24 50  1  0
 27 51  1  0
 28 52  1  0
M  END
>  <smiles>  (3) 
O=C(NCC(=O)N1C[C@H](c2ccccc2)C[C@H]1CO)c1ccc2cc(F)ccc2n1

>  <score_type>  (3) 
oracle

>  <origin>  (3) 
autodockgpu

>  <m_score__min__energy>  (3) 
-9.0299999999999994

>  <m_primary>  (3) 
energy

>  <rmsd>  (3) 
2.657435019353441

>  <m_score__min__rmsd>  (3) 
2.657435019353441

>  <meeko>  (3) 
{"free_energy": -8.97, "intermolecular_energy": -11.05, "internal_energy": -1.51, "cluster_size": 40, "cluster_id": 1, "rank_in_cluster": 2}

>  <energy>  (3) 
-8.71

>  <cluster_rmsd>  (3) 
1.6

>  <cluster>  (3) 
1

$$$$

     RDKit          3D

 52 55  0  0  0  0  0  0  0  0999 V2000
  137.7130   70.8050  221.3630 O   0  0  0  0  0  0  0  0  0  0  0  0
  138.1220   71.4590  222.3670 C   0  0  0  0  0  0  0  0  0  0  0  0
  138.0360   72.8750  222.2730 N   0  0  0  0  0  0  0  0  0  0  0  0
  137.4830   73.4410  221.0300 C   0  0  0  0  0  0  0  0  0  0  0  0
  137.9660   74.8060  220.8750 C   0  0  0  0  0  0  0  0  0  0  0  0
  137.1580   75.6650  220.3820 O   0  0  0  0  0  0  0  0  0  0  0  0
  139.2600   75.2870  221.2190 N   0  0  0  0  0  0  0  0  0  0  0  0
  139.4460   76.3950  222.1300 C   0  0  0  0  0  0  0  0  0  0  0  0
  140.9240   76.5610  222.2320 C   0  0  2  0  0  0  0  0  0  0  0  0
  141.3150   77.9930  222.4430 C   0  0  0  0  0  0  0  0  0  0  0  0
  141.5130   78.5170  223.7040 C   0  0  0  0  0  0  0  0  0  0  0  0
  141.8750   79.8520  223.8570 C   0  0  0  0  0  0  0  0  0  0  0  0
  142.0350   80.6530  222.7340 C   0  0  0  0  0  0  0  0  0  0  0  0
  141.8410   80.1480  221.4610 C   0  0  0  0  0  0  0  0  0  0  0  0
  141.4820   78.8170  221.3360 C   0  0  0  0  0  0  0  0  0  0  0  0
  141.4330   76.0480  220.9140 C   0  0  0  0  0  0  0  0  0  0  0  0
  140.5400   74.8090  220.7520 C   0  0  1  0  0  0  0  0  0  0  0  0
  141.1520   73.7160  221.5590 C   0  0  0  0  0  0  0  0  0  0  0  0
  140.4800   73.3780  222.7180 O   0  0  0  0  0  0  0  0  0  0  0  0
  138.6500   70.8050  223.5480 C   0  0  0  0  0  0  0  0  0  0  0  0
  138.4140   69.4640  223.7440 C   0  0  0  0  0  0  0  0  0  0  0  0
  138.8770   68.7610  224.8370 C   0  0  0  0  0  0  0  0  0  0  0  0
  139.6170   69.4770  225.7690 C   0  0  0  0  0  0  0  0  0  0  0  0
  140.1090   68.8450  226.8780 C   0  0  0  0  0  0  0  0  0  0  0  0
  140.8480   69.5420  227.8160 C   0  0  0  0  0  0  0  0  0  0  0  0
  141.2960   68.8430  228.8820 F   0  0  0  0  0  0  0  0  0  0  0  0
  141.0950   70.8860  227.6370 C   0  0  0  0  0  0  0  0  0  0  0  0
  140.5900   71.5060  226.5100 C   0  0  0  0  0  0  0  0  0  0  0  0
  139.8540   70.8100  225.5760 C   0  0  0  0  0  0  0  0  0  0  0  0
  139.3780   71.4480  224.4910 N   0  0  0  0  0  0  0  0  0  0  0  0
  138.3520   73.4810  223.0580 H   0  0  0  0  0  0  0  0  0  0  0  0
  137.8087   72.8348  220.1718 H   0  0  0  0  0  0  0  0  0  0  0  0
  136.3840   73.4386  221.0771 H   0  0  0  0  0  0  0  0  0  0  0  0
  138.9803   77.3078  221.7300 H   0  0  0  0  0  0  0  0  0  0  0  0
  138.9807   76.2096  223.1093 H   0  0  0  0  0  0  0  0  0  0  0  0
  141.3441   76.0225  223.0943 H   0  0  0  0  0  0  0  0  0  0  0  0
  141.3844   77.8782  224.5902 H   0  0  0  0  0  0  0  0  0  0  0  0
  142.0335   80.2704  224.8619 H   0  0  0  0  0  0  0  0  0  0  0  0
  142.3211   81.7078  222.8590 H   0  0  0  0  0  0  0  0  0  0  0  0
  141.9683   80.7856  220.5737 H   0  0  0  0  0  0  0  0  0  0  0  0
  141.3242   78.3989  220.3309 H   0  0  0  0  0  0  0  0  0  0  0  0
  141.2748   76.7748  220.1037 H   0  0  0  0  0  0  0  0  0  0  0  0
  142.5144   75.8494  220.8787 H   0  0  0  0  0  0  0  0  0  0  0  0
  140.4300   74.3881  219.7417 H   0  0  0  0  0  0  0  0  0  0  0  0
  141.2061   72.8182  220.9258 H   0  0  0  0  0  0  0  0  0  0  0  0
  142.1332   74.0948  221.8812 H   0  0  0  0  0  0  0  0  0  0  0  0
  140.3370   72.4100  222.8310 H   0  0  0  0  0  0  0  0  0  0  0  0
  137.8246   68.9233  222.9888 H   0  0  0  0  0  0  0  0  0  0  0  0
  138.6706   67.6880  224.9639 H   0  0  0  0  0  0  0  0  0  0  0  0
  139.9149   67.7723  227.0249 H   0  0  0  0  0  0  0  0  0  0  0  0
  141.6814   71.4528  228.3752 H   0  0  0  0  0  0  0  0  0  0  0  0
  140.7797   72.5784  226.3552 H   0  0  0  0  0  0  0  0  0  0  0  0
  1  2  2  0
  2  3  1  0
  3  4  1  0
  4  5  1  0
  5  6  2  0
  5  7  1  0
  7  8  1  0
  8  9  1  0
  9 10  1  0
 10 11  2  0
 11 12  1  0
 12 13  2  0
 13 14  1  0
 14 15  2  0
  9 16  1  0
 16 17  1  0
 17 18  1  0
 18 19  1  0
  2 20  1  0
 20 21  2  0
 21 22  1  0
 22 23  2  0
 23 24  1  0
 24 25  2  0
 25 26  1  0
 25 27  1  0
 27 28  2  0
 28 29  1  0
 29 30  2  0
 17  7  1  0
 30 20  1  0
 15 10  1  0
 29 23  1  0
  3 31  1  0
  4 32  1  0
  4 33  1  0
  8 34  1  0
  8 35  1  0
  9 36  1  1
 11 37  1  0
 12 38  1  0
 13 39  1  0
 14 40  1  0
 15 41  1  0
 16 42  1  0
 16 43  1  0
 17 44  1  6
 18 45  1  0
 18 46  1  0
 19 47  1  0
 21 48  1  0
 22 49  1  0
 24 50  1  0
 27 51  1  0
 28 52  1  0
M  END
>  <smiles>  (4) 
O=C(NCC(=O)N1C[C@H](c2ccccc2)C[C@H]1CO)c1ccc2cc(F)ccc2n1

>  <score_type>  (4) 
oracle

>  <origin>  (4) 
autodockgpu

>  <m_score__min__energy>  (4) 
-9.0299999999999994

>  <m_primary>  (4) 
energy

>  <rmsd>  (4) 
2.5327238385686206

>  <m_score__min__rmsd>  (4) 
2.5327238385686206

>  <meeko>  (4) 
{"free_energy": -8.21, "intermolecular_energy": -10.3, "internal_energy": -2.92, "cluster_size": 40, "cluster_id": 1, "rank_in_cluster": 21}

>  <energy>  (4) 
-8.7

>  <cluster_rmsd>  (4) 
1.42

>  <cluster>  (4) 
1

$$$$

     RDKit          3D

 52 55  0  0  0  0  0  0  0  0999 V2000
  137.0300   70.9100  221.4700 O   0  0  0  0  0  0  0  0  0  0  0  0
  137.6570   71.5450  222.3680 C   0  0  0  0  0  0  0  0  0  0  0  0
  137.7030   72.9590  222.2240 N   0  0  0  0  0  0  0  0  0  0  0  0
  137.0210   73.5460  221.0570 C   0  0  0  0  0  0  0  0  0  0  0  0
  137.9070   74.5180  220.4310 C   0  0  0  0  0  0  0  0  0  0  0  0
  137.6320   74.8820  219.2370 O   0  0  0  0  0  0  0  0  0  0  0  0
  139.0600   75.1080  221.0180 N   0  0  0  0  0  0  0  0  0  0  0  0
  138.9610   76.1530  222.0130 C   0  0  0  0  0  0  0  0  0  0  0  0
  140.3720   76.4710  222.3730 C   0  0  2  0  0  0  0  0  0  0  0  0
  140.5470   77.9150  222.7360 C   0  0  0  0  0  0  0  0  0  0  0  0
  141.7850   78.5230  222.7400 C   0  0  0  0  0  0  0  0  0  0  0  0
  141.9040   79.8660  223.0830 C   0  0  0  0  0  0  0  0  0  0  0  0
  140.7690   80.5920  223.4210 C   0  0  0  0  0  0  0  0  0  0  0  0
  139.5180   80.0020  223.4240 C   0  0  0  0  0  0  0  0  0  0  0  0
  139.4260   78.6650  223.0790 C   0  0  0  0  0  0  0  0  0  0  0  0
  141.1450   76.1250  221.1320 C   0  0  0  0  0  0  0  0  0  0  0  0
  140.4470   74.8120  220.7450 C   0  0  1  0  0  0  0  0  0  0  0  0
  141.0490   73.7320  221.5760 C   0  0  0  0  0  0  0  0  0  0  0  0
  140.3450   73.3860  222.7130 O   0  0  0  0  0  0  0  0  0  0  0  0
  138.2950   70.8720  223.4820 C   0  0  0  0  0  0  0  0  0  0  0  0
  138.1050   69.5210  223.6580 C   0  0  0  0  0  0  0  0  0  0  0  0
  138.6720   68.8000  224.6880 C   0  0  0  0  0  0  0  0  0  0  0  0
  139.4720   69.5070  225.5760 C   0  0  0  0  0  0  0  0  0  0  0  0
  140.0680   68.8580  226.6220 C   0  0  0  0  0  0  0  0  0  0  0  0
  140.8680   69.5460  227.5150 C   0  0  0  0  0  0  0  0  0  0  0  0
  141.4180   68.8290  228.5200 F   0  0  0  0  0  0  0  0  0  0  0  0
  141.0710   70.9000  227.3550 C   0  0  0  0  0  0  0  0  0  0  0  0
  140.4610   71.5370  226.2920 C   0  0  0  0  0  0  0  0  0  0  0  0
  139.6640   70.8500  225.4020 C   0  0  0  0  0  0  0  0  0  0  0  0
  139.0860   71.5060  224.3790 N   0  0  0  0  0  0  0  0  0  0  0  0
  138.2000   73.5490  222.9230 H   0  0  0  0  0  0  0  0  0  0  0  0
  136.7749   72.7527  220.3358 H   0  0  0  0  0  0  0  0  0  0  0  0
  136.0929   74.0412  221.3785 H   0  0  0  0  0  0  0  0  0  0  0  0
  138.4584   77.0384  221.5964 H   0  0  0  0  0  0  0  0  0  0  0  0
  138.3701   75.8400  222.8864 H   0  0  0  0  0  0  0  0  0  0  0  0
  140.7105   75.9134  223.2588 H   0  0  0  0  0  0  0  0  0  0  0  0
  142.6810   77.9443  222.4712 H   0  0  0  0  0  0  0  0  0  0  0  0
  142.8916   80.3504  223.0865 H   0  0  0  0  0  0  0  0  0  0  0  0
  140.8667   81.6539  223.6908 H   0  0  0  0  0  0  0  0  0  0  0  0
  138.6213   80.5794  223.6931 H   0  0  0  0  0  0  0  0  0  0  0  0
  138.4382   78.1810  223.0758 H   0  0  0  0  0  0  0  0  0  0  0  0
  141.0323   76.8931  220.3527 H   0  0  0  0  0  0  0  0  0  0  0  0
  142.2339   76.0498  221.2686 H   0  0  0  0  0  0  0  0  0  0  0  0
  140.5530   74.4643  219.7068 H   0  0  0  0  0  0  0  0  0  0  0  0
  141.1390   72.8333  220.9481 H   0  0  0  0  0  0  0  0  0  0  0  0
  142.0121   74.1285  221.9297 H   0  0  0  0  0  0  0  0  0  0  0  0
  139.8870   72.5160  222.6520 H   0  0  0  0  0  0  0  0  0  0  0  0
  137.4666   68.9871  222.9387 H   0  0  0  0  0  0  0  0  0  0  0  0
  138.4992   67.7195  224.8004 H   0  0  0  0  0  0  0  0  0  0  0  0
  139.9091   67.7776  226.7540 H   0  0  0  0  0  0  0  0  0  0  0  0
  141.7046   71.4606  228.0581 H   0  0  0  0  0  0  0  0  0  0  0  0
  140.6148   72.6172  226.1527 H   0  0  0  0  0  0  0  0  0  0  0  0
  1  2  2  0
  2  3  1  0
  3  4  1  0
  4  5  1  0
  5  6  2  0
  5  7  1  0
  7  8  1  0
  8  9  1  0
  9 10  1  0
 10 11  2  0
 11 12  1  0
 12 13  2  0
 13 14  1  0
 14 15  2  0
  9 16  1  0
 16 17  1  0
 17 18  1  0
 18 19  1  0
  2 20  1  0
 20 21  2  0
 21 22  1  0
 22 23  2  0
 23 24  1  0
 24 25  2  0
 25 26  1  0
 25 27  1  0
 27 28  2  0
 28 29  1  0
 29 30  2  0
 17  7  1  0
 30 20  1  0
 15 10  1  0
 29 23  1  0
  3 31  1  0
  4 32  1  0
  4 33  1  0
  8 34  1  0
  8 35  1  0
  9 36  1  1
 11 37  1  0
 12 38  1  0
 13 39  1  0
 14 40  1  0
 15 41  1  0
 16 42  1  0
 16 43  1  0
 17 44  1  6
 18 45  1  0
 18 46  1  0
 19 47  1  0
 21 48  1  0
 22 49  1  0
 24 50  1  0
 27 51  1  0
 28 52  1  0
M  END
>  <smiles>  (5) 
O=C(NCC(=O)N1C[C@H](c2ccccc2)C[C@H]1CO)c1ccc2cc(F)ccc2n1

>  <score_type>  (5) 
oracle

>  <origin>  (5) 
autodockgpu

>  <m_score__min__energy>  (5) 
-9.0299999999999994

>  <m_primary>  (5) 
energy

>  <rmsd>  (5) 
2.601443306288157

>  <m_score__min__rmsd>  (5) 
2.601443306288157

>  <meeko>  (5) 
{"free_energy": -7.75, "intermolecular_energy": -9.84, "internal_energy": -3.08, "cluster_size": 40, "cluster_id": 1, "rank_in_cluster": 37}

>  <energy>  (5) 
-8.58

>  <cluster_rmsd>  (5) 
1.53

>  <cluster>  (5) 
1

$$$$

     RDKit          3D

 52 55  0  0  0  0  0  0  0  0999 V2000
  140.9720   73.0410  222.2820 O   0  0  0  0  0  0  0  0  0  0  0  0
  139.9330   72.5740  222.8340 C   0  0  0  0  0  0  0  0  0  0  0  0
  138.6880   73.0560  222.3450 N   0  0  0  0  0  0  0  0  0  0  0  0
  138.7250   74.0450  221.2520 C   0  0  0  0  0  0  0  0  0  0  0  0
  138.8260   75.3800  221.8240 C   0  0  0  0  0  0  0  0  0  0  0  0
  137.9150   75.7390  222.6450 O   0  0  0  0  0  0  0  0  0  0  0  0
  139.8440   76.3360  221.5580 N   0  0  0  0  0  0  0  0  0  0  0  0
  140.5050   77.0630  222.6200 C   0  0  0  0  0  0  0  0  0  0  0  0
  141.4990   77.9310  221.9260 C   0  0  2  0  0  0  0  0  0  0  0  0
  141.7160   79.2260  222.6500 C   0  0  0  0  0  0  0  0  0  0  0  0
  142.9640   79.6200  223.0850 C   0  0  0  0  0  0  0  0  0  0  0  0
  143.1220   80.8300  223.7550 C   0  0  0  0  0  0  0  0  0  0  0  0
  142.0160   81.6380  223.9810 C   0  0  0  0  0  0  0  0  0  0  0  0
  140.7560   81.2620  223.5540 C   0  0  0  0  0  0  0  0  0  0  0  0
  140.6250   80.0540  222.8910 C   0  0  0  0  0  0  0  0  0  0  0  0
  140.8900   78.1610  220.5720 C   0  0  0  0  0  0  0  0  0  0  0  0
  140.3660   76.7470  220.2760 C   0  0  1  0  0  0  0  0  0  0  0  0
  141.5160   75.9500  219.7650 C   0  0  0  0  0  0  0  0  0  0  0  0
  141.9580   74.9360  220.5910 O   0  0  0  0  0  0  0  0  0  0  0  0
  140.0040   71.6000  223.9050 C   0  0  0  0  0  0  0  0  0  0  0  0
  139.5310   70.3250  223.6970 C   0  0  0  0  0  0  0  0  0  0  0  0
  139.5590   69.3360  224.6580 C   0  0  0  0  0  0  0  0  0  0  0  0
  140.1000   69.6800  225.8900 C   0  0  0  0  0  0  0  0  0  0  0  0
  140.1610   68.7500  226.8910 C   0  0  0  0  0  0  0  0  0  0  0  0
  140.6970   69.0760  228.1230 C   0  0  0  0  0  0  0  0  0  0  0  0
  140.7180   68.0990  229.0570 F   0  0  0  0  0  0  0  0  0  0  0  0
  141.1750   70.3480  228.3510 C   0  0  0  0  0  0  0  0  0  0  0  0
  141.1060   71.2720  227.3280 C   0  0  0  0  0  0  0  0  0  0  0  0
  140.5720   70.9470  226.0990 C   0  0  0  0  0  0  0  0  0  0  0  0
  140.5200   71.8750  225.1260 N   0  0  0  0  0  0  0  0  0  0  0  0
  137.7910   72.7190  222.7480 H   0  0  0  0  0  0  0  0  0  0  0  0
  139.5968   73.8521  220.6095 H   0  0  0  0  0  0  0  0  0  0  0  0
  137.8081   73.9673  220.6493 H   0  0  0  0  0  0  0  0  0  0  0  0
  139.7816   77.6737  223.1801 H   0  0  0  0  0  0  0  0  0  0  0  0
  140.9790   76.3911  223.3506 H   0  0  0  0  0  0  0  0  0  0  0  0
  142.4940   77.4647  221.8755 H   0  0  0  0  0  0  0  0  0  0  0  0
  143.8371   78.9763  222.9020 H   0  0  0  0  0  0  0  0  0  0  0  0
  144.1171   81.1439  224.1032 H   0  0  0  0  0  0  0  0  0  0  0  0
  142.1444   82.5943  224.5092 H   0  0  0  0  0  0  0  0  0  0  0  0
  139.8821   81.9048  223.7360 H   0  0  0  0  0  0  0  0  0  0  0  0
  139.6293   79.7399  222.5448 H   0  0  0  0  0  0  0  0  0  0  0  0
  140.0754   78.8993  220.6101 H   0  0  0  0  0  0  0  0  0  0  0  0
  141.5772   78.5697  219.8166 H   0  0  0  0  0  0  0  0  0  0  0  0
  139.5844   76.6425  219.5091 H   0  0  0  0  0  0  0  0  0  0  0  0
  141.2153   75.4989  218.8079 H   0  0  0  0  0  0  0  0  0  0  0  0
  142.3557   76.6558  219.6825 H   0  0  0  0  0  0  0  0  0  0  0  0
  141.5700   74.9580  221.4960 H   0  0  0  0  0  0  0  0  0  0  0  0
  139.1078   70.0812  222.7114 H   0  0  0  0  0  0  0  0  0  0  0  0
  139.1723   68.3257  224.4587 H   0  0  0  0  0  0  0  0  0  0  0  0
  139.7801   67.7333  226.7142 H   0  0  0  0  0  0  0  0  0  0  0  0
  141.6023   70.6212  229.3271 H   0  0  0  0  0  0  0  0  0  0  0  0
  141.4855   72.2905  227.4970 H   0  0  0  0  0  0  0  0  0  0  0  0
  1  2  2  0
  2  3  1  0
  3  4  1  0
  4  5  1  0
  5  6  2  0
  5  7  1  0
  7  8  1  0
  8  9  1  0
  9 10  1  0
 10 11  2  0
 11 12  1  0
 12 13  2  0
 13 14  1  0
 14 15  2  0
  9 16  1  0
 16 17  1  0
 17 18  1  0
 18 19  1  0
  2 20  1  0
 20 21  2  0
 21 22  1  0
 22 23  2  0
 23 24  1  0
 24 25  2  0
 25 26  1  0
 25 27  1  0
 27 28  2  0
 28 29  1  0
 29 30  2  0
 17  7  1  0
 30 20  1  0
 15 10  1  0
 29 23  1  0
  3 31  1  0
  4 32  1  0
  4 33  1  0
  8 34  1  0
  8 35  1  0
  9 36  1  6
 11 37  1  0
 12 38  1  0
 13 39  1  0
 14 40  1  0
 15 41  1  0
 16 42  1  0
 16 43  1  0
 17 44  1  6
 18 45  1  0
 18 46  1  0
 19 47  1  0
 21 48  1  0
 22 49  1  0
 24 50  1  0
 27 51  1  0
 28 52  1  0
M  END
>  <smiles>  (6) 
O=C(NCC(=O)N1C[C@H](c2ccccc2)C[C@H]1CO)c1ccc2cc(F)ccc2n1

>  <score_type>  (6) 
oracle

>  <origin>  (6) 
autodockgpu

>  <m_score__min__energy>  (6) 
-9.0299999999999994

>  <m_primary>  (6) 
energy

>  <rmsd>  (6) 
2.6789300760061767

>  <m_score__min__rmsd>  (6) 
2.6789300760061767

>  <meeko>  (6) 
{"free_energy": -8.56, "intermolecular_energy": -10.65, "internal_energy": -2.17, "cluster_size": 40, "cluster_id": 1, "rank_in_cluster": 11}

>  <energy>  (6) 
-8.58

>  <cluster_rmsd>  (6) 
0.72

>  <cluster>  (6) 
1

$$$$

     RDKit          3D

 52 55  0  0  0  0  0  0  0  0999 V2000
  136.8490   71.2980  221.4480 O   0  0  0  0  0  0  0  0  0  0  0  0
  137.5610   71.8030  222.3650 C   0  0  0  0  0  0  0  0  0  0  0  0
  137.6990   73.2180  222.3480 N   0  0  0  0  0  0  0  0  0  0  0  0
  137.0080   73.9560  221.2750 C   0  0  0  0  0  0  0  0  0  0  0  0
  137.9950   74.6800  220.4870 C   0  0  0  0  0  0  0  0  0  0  0  0
  137.7120   74.9170  219.2630 O   0  0  0  0  0  0  0  0  0  0  0  0
  139.2550   75.1550  220.9430 N   0  0  0  0  0  0  0  0  0  0  0  0
  139.3680   76.3010  221.8180 C   0  0  0  0  0  0  0  0  0  0  0  0
  140.8310   76.4470  222.0680 C   0  0  2  0  0  0  0  0  0  0  0  0
  141.2270   77.8800  222.2560 C   0  0  0  0  0  0  0  0  0  0  0  0
  141.3830   78.7420  221.1900 C   0  0  0  0  0  0  0  0  0  0  0  0
  141.7530   80.0660  221.4090 C   0  0  0  0  0  0  0  0  0  0  0  0
  141.9650   80.5140  222.7060 C   0  0  0  0  0  0  0  0  0  0  0  0
  141.8150   79.6670  223.7890 C   0  0  0  0  0  0  0  0  0  0  0  0
  141.4460   78.3560  223.5450 C   0  0  0  0  0  0  0  0  0  0  0  0
  141.4640   75.8660  220.8350 C   0  0  0  0  0  0  0  0  0  0  0  0
  140.5670   74.6350  220.6340 C   0  0  1  0  0  0  0  0  0  0  0  0
  141.0680   73.5710  221.5490 C   0  0  0  0  0  0  0  0  0  0  0  0
  140.3430   73.3870  222.7090 O   0  0  0  0  0  0  0  0  0  0  0  0
  138.2000   70.9880  223.3790 C   0  0  0  0  0  0  0  0  0  0  0  0
  137.9640   69.6340  223.4100 C   0  0  0  0  0  0  0  0  0  0  0  0
  138.5290   68.7830  224.3370 C   0  0  0  0  0  0  0  0  0  0  0  0
  139.3770   69.3580  225.2740 C   0  0  0  0  0  0  0  0  0  0  0  0
  139.9730   68.5750  226.2240 C   0  0  0  0  0  0  0  0  0  0  0  0
  140.8210   69.1310  227.1650 C   0  0  0  0  0  0  0  0  0  0  0  0
  141.3680   68.2880  228.0680 F   0  0  0  0  0  0  0  0  0  0  0  0
  141.0690   70.4870  227.1500 C   0  0  0  0  0  0  0  0  0  0  0  0
  140.4580   71.2600  226.1830 C   0  0  0  0  0  0  0  0  0  0  0  0
  139.6140   70.7040  225.2450 C   0  0  0  0  0  0  0  0  0  0  0  0
  139.0360   71.4900  224.3180 N   0  0  0  0  0  0  0  0  0  0  0  0
  138.2690   73.7060  223.0690 H   0  0  0  0  0  0  0  0  0  0  0  0
  136.4676   73.2482  220.6293 H   0  0  0  0  0  0  0  0  0  0  0  0
  136.2900   74.6645  221.7137 H   0  0  0  0  0  0  0  0  0  0  0  0
  138.9664   77.2017  221.3306 H   0  0  0  0  0  0  0  0  0  0  0  0
  138.7987   76.1694  222.7500 H   0  0  0  0  0  0  0  0  0  0  0  0
  141.1476   75.9415  222.9922 H   0  0  0  0  0  0  0  0  0  0  0  0
  141.2145   78.3820  220.1643 H   0  0  0  0  0  0  0  0  0  0  0  0
  141.8767   80.7535  220.5592 H   0  0  0  0  0  0  0  0  0  0  0  0
  142.2573   81.5609  222.8751 H   0  0  0  0  0  0  0  0  0  0  0  0
  141.9842   80.0254  224.8151 H   0  0  0  0  0  0  0  0  0  0  0  0
  141.3221   77.6695  224.3955 H   0  0  0  0  0  0  0  0  0  0  0  0
  141.4066   76.5574  219.9814 H   0  0  0  0  0  0  0  0  0  0  0  0
  142.5387   75.6485  220.9228 H   0  0  0  0  0  0  0  0  0  0  0  0
  140.5546   74.1701  219.6371 H   0  0  0  0  0  0  0  0  0  0  0  0
  141.0657   72.6207  220.9950 H   0  0  0  0  0  0  0  0  0  0  0  0
  142.0678   73.8988  221.8699 H   0  0  0  0  0  0  0  0  0  0  0  0
  140.0980   72.4490  222.8850 H   0  0  0  0  0  0  0  0  0  0  0  0
  137.2882   69.2062  222.6549 H   0  0  0  0  0  0  0  0  0  0  0  0
  138.3184   67.7034  224.3340 H   0  0  0  0  0  0  0  0  0  0  0  0
  139.7762   67.4929  226.2399 H   0  0  0  0  0  0  0  0  0  0  0  0
  141.7396   70.9435  227.8929 H   0  0  0  0  0  0  0  0  0  0  0  0
  140.6486   72.3431  226.1603 H   0  0  0  0  0  0  0  0  0  0  0  0
  1  2  2  0
  2  3  1  0
  3  4  1  0
  4  5  1  0
  5  6  2  0
  5  7  1  0
  7  8  1  0
  8  9  1  0
  9 10  1  0
 10 11  2  0
 11 12  1  0
 12 13  2  0
 13 14  1  0
 14 15  2  0
  9 16  1  0
 16 17  1  0
 17 18  1  0
 18 19  1  0
  2 20  1  0
 20 21  2  0
 21 22  1  0
 22 23  2  0
 23 24  1  0
 24 25  2  0
 25 26  1  0
 25 27  1  0
 27 28  2  0
 28 29  1  0
 29 30  2  0
 17  7  1  0
 30 20  1  0
 15 10  1  0
 29 23  1  0
  3 31  1  0
  4 32  1  0
  4 33  1  0
  8 34  1  0
  8 35  1  0
  9 36  1  1
 11 37  1  0
 12 38  1  0
 13 39  1  0
 14 40  1  0
 15 41  1  0
 16 42  1  0
 16 43  1  0
 17 44  1  6
 18 45  1  0
 18 46  1  0
 19 47  1  0
 21 48  1  0
 22 49  1  0
 24 50  1  0
 27 51  1  0
 28 52  1  0
M  END
>  <smiles>  (7) 
O=C(NCC(=O)N1C[C@H](c2ccccc2)C[C@H]1CO)c1ccc2cc(F)ccc2n1

>  <score_type>  (7) 
oracle

>  <origin>  (7) 
autodockgpu

>  <m_score__min__energy>  (7) 
-9.0299999999999994

>  <m_primary>  (7) 
energy

>  <rmsd>  (7) 
2.5534741554412848

>  <m_score__min__rmsd>  (7) 
2.5534741554412848

>  <meeko>  (7) 
{"free_energy": -7.76, "intermolecular_energy": -9.85, "internal_energy": -3.08, "cluster_size": 40, "cluster_id": 1, "rank_in_cluster": 34}

>  <energy>  (7) 
-8.58

>  <cluster_rmsd>  (7) 
1.56

>  <cluster>  (7) 
1

$$$$

     RDKit          3D

 52 55  0  0  0  0  0  0  0  0999 V2000
  139.5710   74.2310  222.4820 O   0  0  0  0  0  0  0  0  0  0  0  0
  140.2550   74.7600  221.5570 C   0  0  0  0  0  0  0  0  0  0  0  0
  140.5570   73.9300  220.4430 N   0  0  0  0  0  0  0  0  0  0  0  0
  140.0500   72.5460  220.4690 C   0  0  0  0  0  0  0  0  0  0  0  0
  140.6290   71.8520  221.6110 C   0  0  0  0  0  0  0  0  0  0  0  0
  141.8950   71.6770  221.6140 O   0  0  0  0  0  0  0  0  0  0  0  0
  139.9220   71.3400  222.7340 N   0  0  0  0  0  0  0  0  0  0  0  0
  140.4550   71.4250  224.0760 C   0  0  0  0  0  0  0  0  0  0  0  0
  139.4130   70.8030  224.9410 C   0  0  2  0  0  0  0  0  0  0  0  0
  140.0100   70.1090  226.1280 C   0  0  0  0  0  0  0  0  0  0  0  0
  140.1170   68.7350  226.1950 C   0  0  0  0  0  0  0  0  0  0  0  0
  140.6770   68.1310  227.3160 C   0  0  0  0  0  0  0  0  0  0  0  0
  141.1280   68.9180  228.3670 C   0  0  0  0  0  0  0  0  0  0  0  0
  141.0300   70.2970  228.3210 C   0  0  0  0  0  0  0  0  0  0  0  0
  140.4690   70.8740  227.1950 C   0  0  0  0  0  0  0  0  0  0  0  0
  138.7280   69.8250  224.0280 C   0  0  0  0  0  0  0  0  0  0  0  0
  138.6400   70.6750  222.7510 C   0  0  1  0  0  0  0  0  0  0  0  0
  137.4550   71.5660  222.8960 C   0  0  0  0  0  0  0  0  0  0  0  0
  137.5370   72.7840  222.2490 O   0  0  0  0  0  0  0  0  0  0  0  0
  140.7070   76.1360  221.6250 C   0  0  0  0  0  0  0  0  0  0  0  0
  141.4670   76.6530  220.6030 C   0  0  0  0  0  0  0  0  0  0  0  0
  141.9390   77.9490  220.5840 C   0  0  0  0  0  0  0  0  0  0  0  0
  141.6110   78.7460  221.6730 C   0  0  0  0  0  0  0  0  0  0  0  0
  142.0440   80.0420  221.7230 C   0  0  0  0  0  0  0  0  0  0  0  0
  141.7260   80.8500  222.7990 C   0  0  0  0  0  0  0  0  0  0  0  0
  142.1940   82.1180  222.7710 F   0  0  0  0  0  0  0  0  0  0  0  0
  140.9660   80.3500  223.8350 C   0  0  0  0  0  0  0  0  0  0  0  0
  140.5380   79.0390  223.7650 C   0  0  0  0  0  0  0  0  0  0  0  0
  140.8550   78.2340  222.6910 C   0  0  0  0  0  0  0  0  0  0  0  0
  140.4190   76.9620  222.6590 N   0  0  0  0  0  0  0  0  0  0  0  0
  141.1140   74.2940  219.6430 H   0  0  0  0  0  0  0  0  0  0  0  0
  138.9538   72.5561  220.5602 H   0  0  0  0  0  0  0  0  0  0  0  0
  140.3293   72.0296  219.5388 H   0  0  0  0  0  0  0  0  0  0  0  0
  141.4025   70.8714  224.1522 H   0  0  0  0  0  0  0  0  0  0  0  0
  140.6735   72.4621  224.3705 H   0  0  0  0  0  0  0  0  0  0  0  0
  138.7252   71.5492  225.3654 H   0  0  0  0  0  0  0  0  0  0  0  0
  139.7585   68.1155  225.3597 H   0  0  0  0  0  0  0  0  0  0  0  0
  140.7620   67.0356  227.3694 H   0  0  0  0  0  0  0  0  0  0  0  0
  141.5709   68.4367  229.2515 H   0  0  0  0  0  0  0  0  0  0  0  0
  141.3878   70.9175  229.1558 H   0  0  0  0  0  0  0  0  0  0  0  0
  140.3837   71.9694  227.1424 H   0  0  0  0  0  0  0  0  0  0  0  0
  139.3307   68.9177  223.8745 H   0  0  0  0  0  0  0  0  0  0  0  0
  137.7661   69.4397  224.3971 H   0  0  0  0  0  0  0  0  0  0  0  0
  138.4846   70.1493  221.7974 H   0  0  0  0  0  0  0  0  0  0  0  0
  136.5797   71.0310  222.4991 H   0  0  0  0  0  0  0  0  0  0  0  0
  137.3866   71.8009  223.9685 H   0  0  0  0  0  0  0  0  0  0  0  0
  138.0970   73.4480  222.7140 H   0  0  0  0  0  0  0  0  0  0  0  0
  141.7121   75.9977  219.7542 H   0  0  0  0  0  0  0  0  0  0  0  0
  142.5442   78.3316  219.7490 H   0  0  0  0  0  0  0  0  0  0  0  0
  142.6512   80.4456  220.8993 H   0  0  0  0  0  0  0  0  0  0  0  0
  140.7065   80.9811  224.6978 H   0  0  0  0  0  0  0  0  0  0  0  0
  139.9304   78.6274  224.5844 H   0  0  0  0  0  0  0  0  0  0  0  0
  1  2  2  0
  2  3  1  0
  3  4  1  0
  4  5  1  0
  5  6  2  0
  5  7  1  0
  7  8  1  0
  8  9  1  0
  9 10  1  0
 10 11  2  0
 11 12  1  0
 12 13  2  0
 13 14  1  0
 14 15  2  0
  9 16  1  0
 16 17  1  0
 17 18  1  0
 18 19  1  0
  2 20  1  0
 20 21  2  0
 21 22  1  0
 22 23  2  0
 23 24  1  0
 24 25  2  0
 25 26  1  0
 25 27  1  0
 27 28  2  0
 28 29  1  0
 29 30  2  0
 17  7  1  0
 30 20  1  0
 15 10  1  0
 29 23  1  0
  3 31  1  0
  4 32  1  0
  4 33  1  0
  8 34  1  0
  8 35  1  0
  9 36  1  1
 11 37  1  0
 12 38  1  0
 13 39  1  0
 14 40  1  0
 15 41  1  0
 16 42  1  0
 16 43  1  0
 17 44  1  6
 18 45  1  0
 18 46  1  0
 19 47  1  0
 21 48  1  0
 22 49  1  0
 24 50  1  0
 27 51  1  0
 28 52  1  0
M  END
>  <smiles>  (8) 
O=C(NCC(=O)N1C[C@H](c2ccccc2)C[C@H]1CO)c1ccc2cc(F)ccc2n1

>  <score_type>  (8) 
oracle

>  <origin>  (8) 
autodockgpu

>  <m_score__min__energy>  (8) 
-9.0299999999999994

>  <m_primary>  (8) 
energy

>  <rmsd>  (8) 
8.530783177946525

>  <m_score__min__rmsd>  (8) 
8.530783177946525

>  <meeko>  (8) 
{"free_energy": -8.72, "intermolecular_energy": -10.81, "internal_energy": -2.1, "cluster_size": 10, "cluster_id": 2, "rank_in_cluster": 1}

>  <energy>  (8) 
-8.57

>  <cluster_rmsd>  (8) 
1.52

>  <cluster>  (8) 
1

$$$$

     RDKit          3D

 52 55  0  0  0  0  0  0  0  0999 V2000
  137.7530   70.8710  221.2180 O   0  0  0  0  0  0  0  0  0  0  0  0
  138.1050   71.4730  222.2750 C   0  0  0  0  0  0  0  0  0  0  0  0
  137.9880   72.8900  222.2620 N   0  0  0  0  0  0  0  0  0  0  0  0
  137.4710   73.5180  221.0330 C   0  0  0  0  0  0  0  0  0  0  0  0
  137.9060   74.9070  220.9930 C   0  0  0  0  0  0  0  0  0  0  0  0
  137.0400   75.7860  220.6590 O   0  0  0  0  0  0  0  0  0  0  0  0
  139.2100   75.3910  221.2880 N   0  0  0  0  0  0  0  0  0  0  0  0
  139.4250   76.5180  222.1680 C   0  0  0  0  0  0  0  0  0  0  0  0
  140.9060   76.6830  222.2230 C   0  0  2  0  0  0  0  0  0  0  0  0
  141.3060   78.1170  222.3920 C   0  0  0  0  0  0  0  0  0  0  0  0
  141.2050   79.0310  221.3630 C   0  0  0  0  0  0  0  0  0  0  0  0
  141.5880   80.3540  221.5620 C   0  0  0  0  0  0  0  0  0  0  0  0
  142.0720   80.7490  222.8020 C   0  0  0  0  0  0  0  0  0  0  0  0
  142.1810   79.8500  223.8470 C   0  0  0  0  0  0  0  0  0  0  0  0
  141.7940   78.5410  223.6240 C   0  0  0  0  0  0  0  0  0  0  0  0
  141.3750   76.1400  220.9020 C   0  0  0  0  0  0  0  0  0  0  0  0
  140.4750   74.9000  220.7930 C   0  0  1  0  0  0  0  0  0  0  0  0
  141.1090   73.8230  221.6050 C   0  0  0  0  0  0  0  0  0  0  0  0
  140.3900   73.4000  222.7050 O   0  0  0  0  0  0  0  0  0  0  0  0
  138.6010   70.7600  223.4360 C   0  0  0  0  0  0  0  0  0  0  0  0
  138.2980   69.4280  223.5960 C   0  0  0  0  0  0  0  0  0  0  0  0
  138.7270   68.6730  224.6670 C   0  0  0  0  0  0  0  0  0  0  0  0
  139.5030   69.3240  225.6160 C   0  0  0  0  0  0  0  0  0  0  0  0
  139.9640   68.6380  226.7060 C   0  0  0  0  0  0  0  0  0  0  0  0
  140.7390   69.2700  227.6610 C   0  0  0  0  0  0  0  0  0  0  0  0
  141.1530   68.5200  228.7060 F   0  0  0  0  0  0  0  0  0  0  0  0
  141.0520   70.6050  227.5190 C   0  0  0  0  0  0  0  0  0  0  0  0
  140.5780   71.2800  226.4120 C   0  0  0  0  0  0  0  0  0  0  0  0
  139.8060   70.6480  225.4600 C   0  0  0  0  0  0  0  0  0  0  0  0
  139.3620   71.3390  224.3950 N   0  0  0  0  0  0  0  0  0  0  0  0
  138.2570   73.4540  223.0940 H   0  0  0  0  0  0  0  0  0  0  0  0
  137.8603   72.9839  220.1537 H   0  0  0  0  0  0  0  0  0  0  0  0
  136.3720   73.4717  221.0253 H   0  0  0  0  0  0  0  0  0  0  0  0
  138.9494   77.4228  221.7617 H   0  0  0  0  0  0  0  0  0  0  0  0
  138.9886   76.3551  223.1645 H   0  0  0  0  0  0  0  0  0  0  0  0
  141.3503   76.1625  223.0842 H   0  0  0  0  0  0  0  0  0  0  0  0
  140.8206   78.7129  220.3827 H   0  0  0  0  0  0  0  0  0  0  0  0
  141.5078   81.0825  220.7418 H   0  0  0  0  0  0  0  0  0  0  0  0
  142.3741   81.7955  222.9558 H   0  0  0  0  0  0  0  0  0  0  0  0
  142.5647   80.1670  224.8280 H   0  0  0  0  0  0  0  0  0  0  0  0
  141.8745   77.8135  224.4451 H   0  0  0  0  0  0  0  0  0  0  0  0
  141.1946   76.8496  220.0810 H   0  0  0  0  0  0  0  0  0  0  0  0
  142.4544   75.9377  220.8395 H   0  0  0  0  0  0  0  0  0  0  0  0
  140.3340   74.4582  219.7955 H   0  0  0  0  0  0  0  0  0  0  0  0
  141.2662   72.9538  220.9495 H   0  0  0  0  0  0  0  0  0  0  0  0
  142.0386   74.2558  222.0031 H   0  0  0  0  0  0  0  0  0  0  0  0
  140.3540   72.4220  222.8100 H   0  0  0  0  0  0  0  0  0  0  0  0
  137.6803   68.9388  222.8284 H   0  0  0  0  0  0  0  0  0  0  0  0
  138.4674   67.6085  224.7644 H   0  0  0  0  0  0  0  0  0  0  0  0
  139.7157   67.5729  226.8240 H   0  0  0  0  0  0  0  0  0  0  0  0
  141.6662   71.1213  228.2715 H   0  0  0  0  0  0  0  0  0  0  0  0
  140.8215   72.3454  226.2865 H   0  0  0  0  0  0  0  0  0  0  0  0
  1  2  2  0
  2  3  1  0
  3  4  1  0
  4  5  1  0
  5  6  2  0
  5  7  1  0
  7  8  1  0
  8  9  1  0
  9 10  1  0
 10 11  2  0
 11 12  1  0
 12 13  2  0
 13 14  1  0
 14 15  2  0
  9 16  1  0
 16 17  1  0
 17 18  1  0
 18 19  1  0
  2 20  1  0
 20 21  2  0
 21 22  1  0
 22 23  2  0
 23 24  1  0
 24 25  2  0
 25 26  1  0
 25 27  1  0
 27 28  2  0
 28 29  1  0
 29 30  2  0
 17  7  1  0
 30 20  1  0
 15 10  1  0
 29 23  1  0
  3 31  1  0
  4 32  1  0
  4 33  1  0
  8 34  1  0
  8 35  1  0
  9 36  1  1
 11 37  1  0
 12 38  1  0
 13 39  1  0
 14 40  1  0
 15 41  1  0
 16 42  1  0
 16 43  1  0
 17 44  1  6
 18 45  1  0
 18 46  1  0
 19 47  1  0
 21 48  1  0
 22 49  1  0
 24 50  1  0
 27 51  1  0
 28 52  1  0
M  END
>  <smiles>  (9) 
O=C(NCC(=O)N1C[C@H](c2ccccc2)C[C@H]1CO)c1ccc2cc(F)ccc2n1

>  <score_type>  (9) 
oracle

>  <origin>  (9) 
autodockgpu

>  <m_score__min__energy>  (9) 
-9.0299999999999994

>  <m_primary>  (9) 
energy

>  <rmsd>  (9) 
2.5276291842757175

>  <m_score__min__rmsd>  (9) 
2.5276291842757175

>  <meeko>  (9) 
{"free_energy": -8.24, "intermolecular_energy": -10.33, "internal_energy": -2.84, "cluster_size": 40, "cluster_id": 1, "rank_in_cluster": 20}

>  <energy>  (9) 
-8.57

>  <cluster_rmsd>  (9) 
0.75

>  <cluster>  (9) 
1

$$$$

     RDKit          3D

 52 55  0  0  0  0  0  0  0  0999 V2000
  137.5150   70.8810  221.9460 O   0  0  0  0  0  0  0  0  0  0  0  0
  138.2200   71.6330  222.6810 C   0  0  0  0  0  0  0  0  0  0  0  0
  138.2560   73.0080  222.3250 N   0  0  0  0  0  0  0  0  0  0  0  0
  137.4760   73.4250  221.1450 C   0  0  0  0  0  0  0  0  0  0  0  0
  138.0620   74.6400  220.5960 C   0  0  0  0  0  0  0  0  0  0  0  0
  137.4860   75.1670  219.5840 O   0  0  0  0  0  0  0  0  0  0  0  0
  139.2230   75.3070  221.0740 N   0  0  0  0  0  0  0  0  0  0  0  0
  139.1700   76.2290  222.1880 C   0  0  0  0  0  0  0  0  0  0  0  0
  140.5780   76.6820  222.3750 C   0  0  2  0  0  0  0  0  0  0  0  0
  140.6520   78.0940  222.8730 C   0  0  0  0  0  0  0  0  0  0  0  0
  139.5250   78.8720  223.0350 C   0  0  0  0  0  0  0  0  0  0  0  0
  139.6370   80.1790  223.4990 C   0  0  0  0  0  0  0  0  0  0  0  0
  140.8910   80.6950  223.8000 C   0  0  0  0  0  0  0  0  0  0  0  0
  142.0340   79.9320  223.6450 C   0  0  0  0  0  0  0  0  0  0  0  0
  141.8960   78.6360  223.1820 C   0  0  0  0  0  0  0  0  0  0  0  0
  141.1790   76.5570  221.0030 C   0  0  0  0  0  0  0  0  0  0  0  0
  140.5740   75.2130  220.5720 C   0  0  1  0  0  0  0  0  0  0  0  0
  141.4110   74.1390  221.1760 C   0  0  0  0  0  0  0  0  0  0  0  0
  140.8760   73.5150  222.2870 O   0  0  0  0  0  0  0  0  0  0  0  0
  138.9510   71.1230  223.8250 C   0  0  0  0  0  0  0  0  0  0  0  0
  139.9670   71.8720  224.3700 C   0  0  0  0  0  0  0  0  0  0  0  0
  140.7140   71.4670  225.4560 C   0  0  0  0  0  0  0  0  0  0  0  0
  140.3960   70.2310  226.0040 C   0  0  0  0  0  0  0  0  0  0  0  0
  141.0950   69.7640  227.0830 C   0  0  0  0  0  0  0  0  0  0  0  0
  140.7910   68.5360  227.6410 C   0  0  0  0  0  0  0  0  0  0  0  0
  141.5300   68.1490  228.7040 F   0  0  0  0  0  0  0  0  0  0  0  0
  139.7760   67.7700  227.1080 C   0  0  0  0  0  0  0  0  0  0  0  0
  139.0830   68.2600  226.0190 C   0  0  0  0  0  0  0  0  0  0  0  0
  139.3860   69.4850  225.4640 C   0  0  0  0  0  0  0  0  0  0  0  0
  138.6870   69.9270  224.4030 N   0  0  0  0  0  0  0  0  0  0  0  0
  138.8130   73.6880  222.8810 H   0  0  0  0  0  0  0  0  0  0  0  0
  137.4997   72.6285  220.3867 H   0  0  0  0  0  0  0  0  0  0  0  0
  136.4323   73.6140  221.4366 H   0  0  0  0  0  0  0  0  0  0  0  0
  138.5163   77.0822  221.9540 H   0  0  0  0  0  0  0  0  0  0  0  0
  138.7606   75.7608  223.0953 H   0  0  0  0  0  0  0  0  0  0  0  0
  141.1092   76.0868  223.1323 H   0  0  0  0  0  0  0  0  0  0  0  0
  138.5342   78.4580  222.7966 H   0  0  0  0  0  0  0  0  0  0  0  0
  138.7380   80.7998  223.6266 H   0  0  0  0  0  0  0  0  0  0  0  0
  140.9764   81.7281  224.1679 H   0  0  0  0  0  0  0  0  0  0  0  0
  143.0255   80.3444  223.8834 H   0  0  0  0  0  0  0  0  0  0  0  0
  142.7955   78.0158  223.0543 H   0  0  0  0  0  0  0  0  0  0  0  0
  140.8636   77.3779  220.3422 H   0  0  0  0  0  0  0  0  0  0  0  0
  142.2776   76.6035  220.9711 H   0  0  0  0  0  0  0  0  0  0  0  0
  140.5527   74.9848  219.4962 H   0  0  0  0  0  0  0  0  0  0  0  0
  141.5821   73.3713  220.4070 H   0  0  0  0  0  0  0  0  0  0  0  0
  142.3292   74.6348  221.5240 H   0  0  0  0  0  0  0  0  0  0  0  0
  140.5050   72.6210  222.1050 H   0  0  0  0  0  0  0  0  0  0  0  0
  140.1963   72.8470  223.9152 H   0  0  0  0  0  0  0  0  0  0  0  0
  141.5209   72.0912  225.8675 H   0  0  0  0  0  0  0  0  0  0  0  0
  141.9065   70.3710  227.5108 H   0  0  0  0  0  0  0  0  0  0  0  0
  139.5240   66.7905  227.5406 H   0  0  0  0  0  0  0  0  0  0  0  0
  138.2705   67.6592  225.5843 H   0  0  0  0  0  0  0  0  0  0  0  0
  1  2  2  0
  2  3  1  0
  3  4  1  0
  4  5  1  0
  5  6  2  0
  5  7  1  0
  7  8  1  0
  8  9  1  0
  9 10  1  0
 10 11  2  0
 11 12  1  0
 12 13  2  0
 13 14  1  0
 14 15  2  0
  9 16  1  0
 16 17  1  0
 17 18  1  0
 18 19  1  0
  2 20  1  0
 20 21  2  0
 21 22  1  0
 22 23  2  0
 23 24  1  0
 24 25  2  0
 25 26  1  0
 25 27  1  0
 27 28  2  0
 28 29  1  0
 29 30  2  0
 17  7  1  0
 30 20  1  0
 15 10  1  0
 29 23  1  0
  3 31  1  0
  4 32  1  0
  4 33  1  0
  8 34  1  0
  8 35  1  0
  9 36  1  1
 11 37  1  0
 12 38  1  0
 13 39  1  0
 14 40  1  0
 15 41  1  0
 16 42  1  0
 16 43  1  0
 17 44  1  6
 18 45  1  0
 18 46  1  0
 19 47  1  0
 21 48  1  0
 22 49  1  0
 24 50  1  0
 27 51  1  0
 28 52  1  0
M  END
>  <smiles>  (10) 
O=C(NCC(=O)N1C[C@H](c2ccccc2)C[C@H]1CO)c1ccc2cc(F)ccc2n1

>  <score_type>  (10) 
oracle

>  <origin>  (10) 
autodockgpu

>  <m_score__min__energy>  (10) 
-9.0299999999999994

>  <m_primary>  (10) 
energy

>  <rmsd>  (10) 
3.2798572679884233

>  <m_score__min__rmsd>  (10) 
3.2798572679884233

>  <meeko>  (10) 
{"free_energy": -8.18, "intermolecular_energy": -10.27, "internal_energy": -2.18, "cluster_size": 40, "cluster_id": 1, "rank_in_cluster": 24}

>  <energy>  (10) 
-8.56

>  <cluster_rmsd>  (10) 
0.79

>  <cluster>  (10) 
1

$$$$

     RDKit          3D

 52 55  0  0  0  0  0  0  0  0999 V2000
  137.3530   70.8020  221.5610 O   0  0  0  0  0  0  0  0  0  0  0  0
  137.9280   71.4600  222.4780 C   0  0  0  0  0  0  0  0  0  0  0  0
  137.9440   72.8730  222.3240 N   0  0  0  0  0  0  0  0  0  0  0  0
  137.2970   73.4340  221.1240 C   0  0  0  0  0  0  0  0  0  0  0  0
  137.8370   74.7620  220.8720 C   0  0  0  0  0  0  0  0  0  0  0  0
  137.0710   75.6110  220.3020 O   0  0  0  0  0  0  0  0  0  0  0  0
  139.1460   75.2160  221.1950 N   0  0  0  0  0  0  0  0  0  0  0  0
  139.3690   76.3080  222.1160 C   0  0  0  0  0  0  0  0  0  0  0  0
  140.8520   76.4470  222.1900 C   0  0  2  0  0  0  0  0  0  0  0  0
  141.2720   77.8690  222.4130 C   0  0  0  0  0  0  0  0  0  0  0  0
  141.4990   78.3740  223.6770 C   0  0  0  0  0  0  0  0  0  0  0  0
  141.8870   79.7010  223.8400 C   0  0  0  0  0  0  0  0  0  0  0  0
  142.0440   80.5130  222.7240 C   0  0  0  0  0  0  0  0  0  0  0  0
  141.8210   80.0260  221.4490 C   0  0  0  0  0  0  0  0  0  0  0  0
  141.4360   78.7040  221.3130 C   0  0  0  0  0  0  0  0  0  0  0  0
  141.3250   75.9440  220.8560 C   0  0  0  0  0  0  0  0  0  0  0  0
  140.4080   74.7220  220.6950 C   0  0  1  0  0  0  0  0  0  0  0  0
  141.0170   73.6090  221.4750 C   0  0  0  0  0  0  0  0  0  0  0  0
  140.4510   73.3620  222.7110 O   0  0  0  0  0  0  0  0  0  0  0  0
  138.5360   70.8120  223.6230 C   0  0  0  0  0  0  0  0  0  0  0  0
  138.4180   69.4500  223.7740 C   0  0  0  0  0  0  0  0  0  0  0  0
  138.9640   68.7510  224.8300 C   0  0  0  0  0  0  0  0  0  0  0  0
  139.6640   69.4930  225.7730 C   0  0  0  0  0  0  0  0  0  0  0  0
  140.2320   68.8670  226.8480 C   0  0  0  0  0  0  0  0  0  0  0  0
  140.9330   69.5900  227.7950 C   0  0  0  0  0  0  0  0  0  0  0  0
  141.4630   68.8940  228.8250 F   0  0  0  0  0  0  0  0  0  0  0  0
  141.0610   70.9560  227.6610 C   0  0  0  0  0  0  0  0  0  0  0  0
  140.4810   71.5690  226.5690 C   0  0  0  0  0  0  0  0  0  0  0  0
  139.7830   70.8470  225.6240 C   0  0  0  0  0  0  0  0  0  0  0  0
  139.2300   71.4810  224.5740 N   0  0  0  0  0  0  0  0  0  0  0  0
  138.3980   73.4810  223.0360 H   0  0  0  0  0  0  0  0  0  0  0  0
  137.4970   72.7843  220.2592 H   0  0  0  0  0  0  0  0  0  0  0  0
  136.2105   73.4985  221.2832 H   0  0  0  0  0  0  0  0  0  0  0  0
  138.9114   77.2339  221.7373 H   0  0  0  0  0  0  0  0  0  0  0  0
  138.9200   76.1179  223.1020 H   0  0  0  0  0  0  0  0  0  0  0  0
  141.2802   75.8892  223.0359 H   0  0  0  0  0  0  0  0  0  0  0  0
  141.3731   77.7268  224.5575 H   0  0  0  0  0  0  0  0  0  0  0  0
  142.0683   80.1043  224.8472 H   0  0  0  0  0  0  0  0  0  0  0  0
  142.3509   81.5610  222.8566 H   0  0  0  0  0  0  0  0  0  0  0  0
  141.9462   80.6718  220.5674 H   0  0  0  0  0  0  0  0  0  0  0  0
  141.2543   78.3017  220.3055 H   0  0  0  0  0  0  0  0  0  0  0  0
  141.1628   76.6846  220.0590 H   0  0  0  0  0  0  0  0  0  0  0  0
  142.4019   75.7278  220.7963 H   0  0  0  0  0  0  0  0  0  0  0  0
  140.2706   74.3165  219.6818 H   0  0  0  0  0  0  0  0  0  0  0  0
  140.9325   72.6907  220.8753 H   0  0  0  0  0  0  0  0  0  0  0  0
  142.0535   73.9172  221.6768 H   0  0  0  0  0  0  0  0  0  0  0  0
  140.1880   72.4230  222.8520 H   0  0  0  0  0  0  0  0  0  0  0  0
  137.8582   68.8882  223.0117 H   0  0  0  0  0  0  0  0  0  0  0  0
  138.8509   67.6606  224.9210 H   0  0  0  0  0  0  0  0  0  0  0  0
  140.1301   67.7775  226.9603 H   0  0  0  0  0  0  0  0  0  0  0  0
  141.6134   71.5446  228.4082 H   0  0  0  0  0  0  0  0  0  0  0  0
  140.5777   72.6582  226.4498 H   0  0  0  0  0  0  0  0  0  0  0  0
  1  2  2  0
  2  3  1  0
  3  4  1  0
  4  5  1  0
  5  6  2  0
  5  7  1  0
  7  8  1  0
  8  9  1  0
  9 10  1  0
 10 11  2  0
 11 12  1  0
 12 13  2  0
 13 14  1  0
 14 15  2  0
  9 16  1  0
 16 17  1  0
 17 18  1  0
 18 19  1  0
  2 20  1  0
 20 21  2  0
 21 22  1  0
 22 23  2  0
 23 24  1  0
 24 25  2  0
 25 26  1  0
 25 27  1  0
 27 28  2  0
 28 29  1  0
 29 30  2  0
 17  7  1  0
 30 20  1  0
 15 10  1  0
 29 23  1  0
  3 31  1  0
  4 32  1  0
  4 33  1  0
  8 34  1  0
  8 35  1  0
  9 36  1  1
 11 37  1  0
 12 38  1  0
 13 39  1  0
 14 40  1  0
 15 41  1  0
 16 42  1  0
 16 43  1  0
 17 44  1  6
 18 45  1  0
 18 46  1  0
 19 47  1  0
 21 48  1  0
 22 49  1  0
 24 50  1  0
 27 51  1  0
 28 52  1  0
M  END
>  <smiles>  (11) 
O=C(NCC(=O)N1C[C@H](c2ccccc2)C[C@H]1CO)c1ccc2cc(F)ccc2n1

>  <score_type>  (11) 
oracle

>  <origin>  (11) 
autodockgpu

>  <m_score__min__energy>  (11) 
-9.0299999999999994

>  <m_primary>  (11) 
energy

>  <rmsd>  (11) 
2.5482048348033115

>  <m_score__min__rmsd>  (11) 
2.5482048348033115

>  <meeko>  (11) 
{"free_energy": -8.12, "intermolecular_energy": -10.21, "internal_energy": -2.97, "cluster_size": 40, "cluster_id": 1, "rank_in_cluster": 25}

>  <energy>  (11) 
-8.56

>  <cluster_rmsd>  (11) 
0.69

>  <cluster>  (11) 
1

$$$$

     RDKit          3D

 52 55  0  0  0  0  0  0  0  0999 V2000
  137.4170   70.7240  221.8370 O   0  0  0  0  0  0  0  0  0  0  0  0
  138.1620   71.2850  222.6940 C   0  0  0  0  0  0  0  0  0  0  0  0
  138.4230   72.6680  222.4930 N   0  0  0  0  0  0  0  0  0  0  0  0
  137.8080   73.3120  221.3190 C   0  0  0  0  0  0  0  0  0  0  0  0
  137.9720   74.7540  221.4310 C   0  0  0  0  0  0  0  0  0  0  0  0
  136.9130   75.4710  221.4080 O   0  0  0  0  0  0  0  0  0  0  0  0
  139.2020   75.4560  221.5620 N   0  0  0  0  0  0  0  0  0  0  0  0
  139.4050   76.4550  222.5880 C   0  0  0  0  0  0  0  0  0  0  0  0
  140.8070   76.9220  222.3920 C   0  0  2  0  0  0  0  0  0  0  0  0
  140.9740   78.3660  222.7590 C   0  0  0  0  0  0  0  0  0  0  0  0
  142.2030   78.9930  222.7190 C   0  0  0  0  0  0  0  0  0  0  0  0
  142.3150   80.3350  223.0690 C   0  0  0  0  0  0  0  0  0  0  0  0
  141.1830   81.0400  223.4570 C   0  0  0  0  0  0  0  0  0  0  0  0
  139.9420   80.4310  223.5040 C   0  0  0  0  0  0  0  0  0  0  0  0
  139.8570   79.0950  223.1520 C   0  0  0  0  0  0  0  0  0  0  0  0
  141.0560   76.7020  220.9270 C   0  0  0  0  0  0  0  0  0  0  0  0
  140.3890   75.3290  220.7510 C   0  0  1  0  0  0  0  0  0  0  0  0
  141.3700   74.3020  221.2030 C   0  0  0  0  0  0  0  0  0  0  0  0
  140.9690   73.5170  222.2660 O   0  0  0  0  0  0  0  0  0  0  0  0
  138.7190   70.5600  223.8190 C   0  0  0  0  0  0  0  0  0  0  0  0
  138.6010   69.1910  223.8710 C   0  0  0  0  0  0  0  0  0  0  0  0
  139.1000   68.4210  224.9010 C   0  0  0  0  0  0  0  0  0  0  0  0
  139.7500   69.0980  225.9240 C   0  0  0  0  0  0  0  0  0  0  0  0
  140.2710   68.4000  226.9790 C   0  0  0  0  0  0  0  0  0  0  0  0
  140.9220   69.0580  228.0060 C   0  0  0  0  0  0  0  0  0  0  0  0
  141.4070   68.2940  229.0100 F   0  0  0  0  0  0  0  0  0  0  0  0
  141.0500   70.4300  227.9730 C   0  0  0  0  0  0  0  0  0  0  0  0
  140.5180   71.1160  226.8990 C   0  0  0  0  0  0  0  0  0  0  0  0
  139.8700   70.4590  225.8750 C   0  0  0  0  0  0  0  0  0  0  0  0
  139.3640   71.1630  224.8460 N   0  0  0  0  0  0  0  0  0  0  0  0
  139.0260   73.1970  223.1560 H   0  0  0  0  0  0  0  0  0  0  0  0
  138.2998   72.9547  220.4022 H   0  0  0  0  0  0  0  0  0  0  0  0
  136.7378   73.0614  221.2749 H   0  0  0  0  0  0  0  0  0  0  0  0
  138.6979   77.2883  222.4629 H   0  0  0  0  0  0  0  0  0  0  0  0
  139.2385   76.0528  223.5982 H   0  0  0  0  0  0  0  0  0  0  0  0
  141.5184   76.3821  223.0343 H   0  0  0  0  0  0  0  0  0  0  0  0
  143.0961   78.4303  222.4096 H   0  0  0  0  0  0  0  0  0  0  0  0
  143.2945   80.8347  223.0386 H   0  0  0  0  0  0  0  0  0  0  0  0
  141.2750   82.1012  223.7317 H   0  0  0  0  0  0  0  0  0  0  0  0
  139.0478   80.9925  223.8124 H   0  0  0  0  0  0  0  0  0  0  0  0
  138.8775   78.5955  223.1841 H   0  0  0  0  0  0  0  0  0  0  0  0
  140.5728   77.4736  220.3096 H   0  0  0  0  0  0  0  0  0  0  0  0
  142.1120   76.7484  220.6227 H   0  0  0  0  0  0  0  0  0  0  0  0
  140.1084   75.0247  219.7319 H   0  0  0  0  0  0  0  0  0  0  0  0
  141.5793   73.6371  220.3521 H   0  0  0  0  0  0  0  0  0  0  0  0
  142.2476   74.8619  221.5584 H   0  0  0  0  0  0  0  0  0  0  0  0
  140.5680   72.6570  222.0020 H   0  0  0  0  0  0  0  0  0  0  0  0
  138.0803   68.6822  223.0464 H   0  0  0  0  0  0  0  0  0  0  0  0
  138.9886   67.3267  224.9113 H   0  0  0  0  0  0  0  0  0  0  0  0
  140.1710   67.3050  227.0105 H   0  0  0  0  0  0  0  0  0  0  0  0
  141.5644   70.9665  228.7840 H   0  0  0  0  0  0  0  0  0  0  0  0
  140.6135   72.2111  226.8598 H   0  0  0  0  0  0  0  0  0  0  0  0
  1  2  2  0
  2  3  1  0
  3  4  1  0
  4  5  1  0
  5  6  2  0
  5  7  1  0
  7  8  1  0
  8  9  1  0
  9 10  1  0
 10 11  2  0
 11 12  1  0
 12 13  2  0
 13 14  1  0
 14 15  2  0
  9 16  1  0
 16 17  1  0
 17 18  1  0
 18 19  1  0
  2 20  1  0
 20 21  2  0
 21 22  1  0
 22 23  2  0
 23 24  1  0
 24 25  2  0
 25 26  1  0
 25 27  1  0
 27 28  2  0
 28 29  1  0
 29 30  2  0
 17  7  1  0
 30 20  1  0
 15 10  1  0
 29 23  1  0
  3 31  1  0
  4 32  1  0
  4 33  1  0
  8 34  1  0
  8 35  1  0
  9 36  1  1
 11 37  1  0
 12 38  1  0
 13 39  1  0
 14 40  1  0
 15 41  1  0
 16 42  1  0
 16 43  1  0
 17 44  1  6
 18 45  1  0
 18 46  1  0
 19 47  1  0
 21 48  1  0
 22 49  1  0
 24 50  1  0
 27 51  1  0
 28 52  1  0
M  END
>  <smiles>  (12) 
O=C(NCC(=O)N1C[C@H](c2ccccc2)C[C@H]1CO)c1ccc2cc(F)ccc2n1

>  <score_type>  (12) 
oracle

>  <origin>  (12) 
autodockgpu

>  <m_score__min__energy>  (12) 
-9.0299999999999994

>  <m_primary>  (12) 
energy

>  <rmsd>  (12) 
2.5859349864389687

>  <m_score__min__rmsd>  (12) 
2.5859349864389687

>  <meeko>  (12) 
{"free_energy": -8.41, "intermolecular_energy": -10.5, "internal_energy": -2.24, "cluster_size": 40, "cluster_id": 1, "rank_in_cluster": 15}

>  <energy>  (12) 
-8.53

>  <cluster_rmsd>  (12) 
1.24

>  <cluster>  (12) 
1

$$$$

     RDKit          3D

 52 55  0  0  0  0  0  0  0  0999 V2000
  139.3270   71.4270  221.0320 O   0  0  0  0  0  0  0  0  0  0  0  0
  139.0130   71.8980  222.1640 C   0  0  0  0  0  0  0  0  0  0  0  0
  138.3020   73.1290  222.1590 N   0  0  0  0  0  0  0  0  0  0  0  0
  137.9990   73.7330  220.8490 C   0  0  0  0  0  0  0  0  0  0  0  0
  138.2340   75.1680  220.9230 C   0  0  0  0  0  0  0  0  0  0  0  0
  137.2450   75.9410  220.6850 O   0  0  0  0  0  0  0  0  0  0  0  0
  139.4670   75.8060  221.2350 N   0  0  0  0  0  0  0  0  0  0  0  0
  139.5950   76.7150  222.3530 C   0  0  0  0  0  0  0  0  0  0  0  0
  141.0250   77.1360  222.3400 C   0  0  2  0  0  0  0  0  0  0  0  0
  141.2010   78.5400  222.8350 C   0  0  0  0  0  0  0  0  0  0  0  0
  142.4490   79.0930  223.0350 C   0  0  0  0  0  0  0  0  0  0  0  0
  142.5690   80.4000  223.4970 C   0  0  0  0  0  0  0  0  0  0  0  0
  141.4250   81.1450  223.7550 C   0  0  0  0  0  0  0  0  0  0  0  0
  140.1650   80.6090  223.5620 C   0  0  0  0  0  0  0  0  0  0  0  0
  140.0720   79.3080  223.1020 C   0  0  0  0  0  0  0  0  0  0  0  0
  141.4200   77.0160  220.8950 C   0  0  0  0  0  0  0  0  0  0  0  0
  140.7290   75.6900  220.5430 C   0  0  1  0  0  0  0  0  0  0  0  0
  141.6200   74.5910  221.0100 C   0  0  0  0  0  0  0  0  0  0  0  0
  141.0820   73.7450  221.9610 O   0  0  0  0  0  0  0  0  0  0  0  0
  139.3580   71.2240  223.4000 C   0  0  0  0  0  0  0  0  0  0  0  0
  139.1040   69.8790  223.5340 C   0  0  0  0  0  0  0  0  0  0  0  0
  139.3990   69.1580  224.6720 C   0  0  0  0  0  0  0  0  0  0  0  0
  139.9830   69.8580  225.7190 C   0  0  0  0  0  0  0  0  0  0  0  0
  140.3040   69.2080  226.8790 C   0  0  0  0  0  0  0  0  0  0  0  0
  140.8870   69.8900  227.9310 C   0  0  0  0  0  0  0  0  0  0  0  0
  141.1710   69.1730  229.0410 F   0  0  0  0  0  0  0  0  0  0  0  0
  141.1490   71.2380  227.8160 C   0  0  0  0  0  0  0  0  0  0  0  0
  140.8180   71.8760  226.6370 C   0  0  0  0  0  0  0  0  0  0  0  0
  140.2380   71.1950  225.5880 C   0  0  0  0  0  0  0  0  0  0  0  0
  139.9300   71.8520  224.4550 N   0  0  0  0  0  0  0  0  0  0  0  0
  138.0100   73.5790  223.0500 H   0  0  0  0  0  0  0  0  0  0  0  0
  138.6501   73.2918  220.0800 H   0  0  0  0  0  0  0  0  0  0  0  0
  136.9483   73.5415  220.5855 H   0  0  0  0  0  0  0  0  0  0  0  0
  138.9339   77.5845  222.2230 H   0  0  0  0  0  0  0  0  0  0  0  0
  139.3094   76.2445  223.3054 H   0  0  0  0  0  0  0  0  0  0  0  0
  141.6457   76.5203  223.0075 H   0  0  0  0  0  0  0  0  0  0  0  0
  143.3516   78.4991  222.8287 H   0  0  0  0  0  0  0  0  0  0  0  0
  143.5640   80.8409  223.6570 H   0  0  0  0  0  0  0  0  0  0  0  0
  141.5232   82.1784  224.1189 H   0  0  0  0  0  0  0  0  0  0  0  0
  139.2613   81.2012  223.7687 H   0  0  0  0  0  0  0  0  0  0  0  0
  139.0766   78.8677  222.9426 H   0  0  0  0  0  0  0  0  0  0  0  0
  141.0316   77.8516  220.2942 H   0  0  0  0  0  0  0  0  0  0  0  0
  142.5033   77.0401  220.7057 H   0  0  0  0  0  0  0  0  0  0  0  0
  140.5480   75.4757  219.4794 H   0  0  0  0  0  0  0  0  0  0  0  0
  141.8947   73.9840  220.1347 H   0  0  0  0  0  0  0  0  0  0  0  0
  142.4738   75.0846  221.4973 H   0  0  0  0  0  0  0  0  0  0  0  0
  140.8600   72.8490  221.6200 H   0  0  0  0  0  0  0  0  0  0  0  0
  138.6407   69.3500  222.6881 H   0  0  0  0  0  0  0  0  0  0  0  0
  139.1824   68.0821  224.7464 H   0  0  0  0  0  0  0  0  0  0  0  0
  140.0963   68.1321  226.9758 H   0  0  0  0  0  0  0  0  0  0  0  0
  141.6116   71.7935  228.6451 H   0  0  0  0  0  0  0  0  0  0  0  0
  141.0217   72.9519  226.5324 H   0  0  0  0  0  0  0  0  0  0  0  0
  1  2  2  0
  2  3  1  0
  3  4  1  0
  4  5  1  0
  5  6  2  0
  5  7  1  0
  7  8  1  0
  8  9  1  0
  9 10  1  0
 10 11  2  0
 11 12  1  0
 12 13  2  0
 13 14  1  0
 14 15  2  0
  9 16  1  0
 16 17  1  0
 17 18  1  0
 18 19  1  0
  2 20  1  0
 20 21  2  0
 21 22  1  0
 22 23  2  0
 23 24  1  0
 24 25  2  0
 25 26  1  0
 25 27  1  0
 27 28  2  0
 28 29  1  0
 29 30  2  0
 17  7  1  0
 30 20  1  0
 15 10  1  0
 29 23  1  0
  3 31  1  0
  4 32  1  0
  4 33  1  0
  8 34  1  0
  8 35  1  0
  9 36  1  1
 11 37  1  0
 12 38  1  0
 13 39  1  0
 14 40  1  0
 15 41  1  0
 16 42  1  0
 16 43  1  0
 17 44  1  6
 18 45  1  0
 18 46  1  0
 19 47  1  0
 21 48  1  0
 22 49  1  0
 24 50  1  0
 27 51  1  0
 28 52  1  0
M  END
>  <smiles>  (13) 
O=C(NCC(=O)N1C[C@H](c2ccccc2)C[C@H]1CO)c1ccc2cc(F)ccc2n1

>  <score_type>  (13) 
oracle

>  <origin>  (13) 
autodockgpu

>  <m_score__min__energy>  (13) 
-9.0299999999999994

>  <m_primary>  (13) 
energy

>  <rmsd>  (13) 
2.5502993853158484

>  <m_score__min__rmsd>  (13) 
2.5502993853158484

>  <meeko>  (13) 
{"free_energy": -8.53, "intermolecular_energy": -10.62, "internal_energy": -2.19, "cluster_size": 40, "cluster_id": 1, "rank_in_cluster": 12}

>  <energy>  (13) 
-8.53

>  <cluster_rmsd>  (13) 
1.53

>  <cluster>  (13) 
1

$$$$

     RDKit          3D

 52 55  0  0  0  0  0  0  0  0999 V2000
  141.9560   73.9740  220.9320 O   0  0  0  0  0  0  0  0  0  0  0  0
  141.0810   74.7330  221.4420 C   0  0  0  0  0  0  0  0  0  0  0  0
  139.9250   74.0960  221.9710 N   0  0  0  0  0  0  0  0  0  0  0  0
  139.8570   72.6260  221.8770 C   0  0  0  0  0  0  0  0  0  0  0  0
  138.6320   72.1680  222.5160 C   0  0  0  0  0  0  0  0  0  0  0  0
  137.5910   72.8980  222.3880 O   0  0  0  0  0  0  0  0  0  0  0  0
  138.4730   70.9780  223.2790 N   0  0  0  0  0  0  0  0  0  0  0  0
  138.8350   70.9130  224.6770 C   0  0  0  0  0  0  0  0  0  0  0  0
  138.4970   69.5220  225.0950 C   0  0  2  0  0  0  0  0  0  0  0  0
  139.4270   69.0120  226.1540 C   0  0  0  0  0  0  0  0  0  0  0  0
  140.1560   67.8520  225.9910 C   0  0  0  0  0  0  0  0  0  0  0  0
  141.0080   67.4130  227.0000 C   0  0  0  0  0  0  0  0  0  0  0  0
  141.1200   68.1500  228.1720 C   0  0  0  0  0  0  0  0  0  0  0  0
  140.3990   69.3150  228.3570 C   0  0  0  0  0  0  0  0  0  0  0  0
  139.5590   69.7300  227.3380 C   0  0  0  0  0  0  0  0  0  0  0  0
  138.6300   68.7260  223.8270 C   0  0  0  0  0  0  0  0  0  0  0  0
  137.9710   69.6980  222.8360 C   0  0  1  0  0  0  0  0  0  0  0  0
  136.4970   69.5110  222.9510 C   0  0  0  0  0  0  0  0  0  0  0  0
  135.7770   70.6300  223.3200 O   0  0  0  0  0  0  0  0  0  0  0  0
  141.2440   76.1730  221.4870 C   0  0  0  0  0  0  0  0  0  0  0  0
  141.5800   76.8540  220.3400 C   0  0  0  0  0  0  0  0  0  0  0  0
  141.7550   78.2210  220.2900 C   0  0  0  0  0  0  0  0  0  0  0  0
  141.5740   78.9160  221.4790 C   0  0  0  0  0  0  0  0  0  0  0  0
  141.7310   80.2740  221.5050 C   0  0  0  0  0  0  0  0  0  0  0  0
  141.5530   80.9820  222.6800 C   0  0  0  0  0  0  0  0  0  0  0  0
  141.7280   82.3200  222.6180 F   0  0  0  0  0  0  0  0  0  0  0  0
  141.2160   80.3170  223.8390 C   0  0  0  0  0  0  0  0  0  0  0  0
  141.0620   78.9450  223.7920 C   0  0  0  0  0  0  0  0  0  0  0  0
  141.2380   78.2410  222.6200 C   0  0  0  0  0  0  0  0  0  0  0  0
  141.0800   76.9050  222.6140 N   0  0  0  0  0  0  0  0  0  0  0  0
  139.1620   74.6530  222.4070 H   0  0  0  0  0  0  0  0  0  0  0  0
  139.8570   72.3234  220.8194 H   0  0  0  0  0  0  0  0  0  0  0  0
  140.7281   72.1801  222.3793 H   0  0  0  0  0  0  0  0  0  0  0  0
  139.9099   71.1064  224.8081 H   0  0  0  0  0  0  0  0  0  0  0  0
  138.3055   71.6669  225.2780 H   0  0  0  0  0  0  0  0  0  0  0  0
  137.4943   69.4546  225.5423 H   0  0  0  0  0  0  0  0  0  0  0  0
  140.0635   67.2724  225.0607 H   0  0  0  0  0  0  0  0  0  0  0  0
  141.5891   66.4881  226.8702 H   0  0  0  0  0  0  0  0  0  0  0  0
  141.7946   67.8004  228.9674 H   0  0  0  0  0  0  0  0  0  0  0  0
  140.4902   69.8954  229.2870 H   0  0  0  0  0  0  0  0  0  0  0  0
  138.9786   70.6552  227.4685 H   0  0  0  0  0  0  0  0  0  0  0  0
  139.6830   68.5346  223.5730 H   0  0  0  0  0  0  0  0  0  0  0  0
  138.1828   67.7215  223.8598 H   0  0  0  0  0  0  0  0  0  0  0  0
  138.1921   69.5649  221.7667 H   0  0  0  0  0  0  0  0  0  0  0  0
  136.1219   69.1755  221.9729 H   0  0  0  0  0  0  0  0  0  0  0  0
  136.3504   68.7807  223.7604 H   0  0  0  0  0  0  0  0  0  0  0  0
  136.2690   71.4770  223.2130 H   0  0  0  0  0  0  0  0  0  0  0  0
  141.7164   76.2774  219.4132 H   0  0  0  0  0  0  0  0  0  0  0  0
  142.0244   78.7351  219.3556 H   0  0  0  0  0  0  0  0  0  0  0  0
  142.0015   80.8087  220.5826 H   0  0  0  0  0  0  0  0  0  0  0  0
  141.0728   80.8667  224.7810 H   0  0  0  0  0  0  0  0  0  0  0  0
  140.7929   78.4022  224.7102 H   0  0  0  0  0  0  0  0  0  0  0  0
  1  2  2  0
  2  3  1  0
  3  4  1  0
  4  5  1  0
  5  6  2  0
  5  7  1  0
  7  8  1  0
  8  9  1  0
  9 10  1  0
 10 11  2  0
 11 12  1  0
 12 13  2  0
 13 14  1  0
 14 15  2  0
  9 16  1  0
 16 17  1  0
 17 18  1  0
 18 19  1  0
  2 20  1  0
 20 21  2  0
 21 22  1  0
 22 23  2  0
 23 24  1  0
 24 25  2  0
 25 26  1  0
 25 27  1  0
 27 28  2  0
 28 29  1  0
 29 30  2  0
 17  7  1  0
 30 20  1  0
 15 10  1  0
 29 23  1  0
  3 31  1  0
  4 32  1  0
  4 33  1  0
  8 34  1  0
  8 35  1  0
  9 36  1  1
 11 37  1  0
 12 38  1  0
 13 39  1  0
 14 40  1  0
 15 41  1  0
 16 42  1  0
 16 43  1  0
 17 44  1  6
 18 45  1  0
 18 46  1  0
 19 47  1  0
 21 48  1  0
 22 49  1  0
 24 50  1  0
 27 51  1  0
 28 52  1  0
M  END
>  <smiles>  (14) 
O=C(NCC(=O)N1C[C@H](c2ccccc2)C[C@H]1CO)c1ccc2cc(F)ccc2n1

>  <score_type>  (14) 
oracle

>  <origin>  (14) 
autodockgpu

>  <m_score__min__energy>  (14) 
-9.0299999999999994

>  <m_primary>  (14) 
energy

>  <rmsd>  (14) 
8.89041943935798

>  <m_score__min__rmsd>  (14) 
8.89041943935798

>  <meeko>  (14) 
{"free_energy": -7.58, "intermolecular_energy": -9.67, "internal_energy": -2.36, "cluster_size": 10, "cluster_id": 2, "rank_in_cluster": 10}

>  <energy>  (14) 
-8.49

>  <cluster_rmsd>  (14) 
1.61

>  <cluster>  (14) 
1

$$$$

     RDKit          3D

 52 55  0  0  0  0  0  0  0  0999 V2000
  137.6400   70.5680  221.4070 O   0  0  0  0  0  0  0  0  0  0  0  0
  138.0540   71.2260  222.4070 C   0  0  0  0  0  0  0  0  0  0  0  0
  137.9290   72.6400  222.3260 N   0  0  0  0  0  0  0  0  0  0  0  0
  137.3330   73.2000  221.1000 C   0  0  0  0  0  0  0  0  0  0  0  0
  137.6260   74.6260  221.0410 C   0  0  0  0  0  0  0  0  0  0  0  0
  136.6930   75.4030  220.6430 O   0  0  0  0  0  0  0  0  0  0  0  0
  138.8590   75.2480  221.3820 N   0  0  0  0  0  0  0  0  0  0  0  0
  138.9340   76.3050  222.3670 C   0  0  0  0  0  0  0  0  0  0  0  0
  140.3800   76.6570  222.4390 C   0  0  2  0  0  0  0  0  0  0  0  0
  140.5890   78.1100  222.7450 C   0  0  0  0  0  0  0  0  0  0  0  0
  141.8060   78.5980  223.1740 C   0  0  0  0  0  0  0  0  0  0  0  0
  141.9580   79.9540  223.4490 C   0  0  0  0  0  0  0  0  0  0  0  0
  140.8780   80.8120  223.2890 C   0  0  0  0  0  0  0  0  0  0  0  0
  139.6500   80.3430  222.8610 C   0  0  0  0  0  0  0  0  0  0  0  0
  139.5240   78.9910  222.5940 C   0  0  0  0  0  0  0  0  0  0  0  0
  140.9010   76.3100  221.0720 C   0  0  0  0  0  0  0  0  0  0  0  0
  140.1710   74.9780  220.8440 C   0  0  1  0  0  0  0  0  0  0  0  0
  140.9510   73.9220  221.5490 C   0  0  0  0  0  0  0  0  0  0  0  0
  140.3550   73.3870  222.6740 O   0  0  0  0  0  0  0  0  0  0  0  0
  138.6260   70.5770  223.5700 C   0  0  0  0  0  0  0  0  0  0  0  0
  138.4980   69.2160  223.7200 C   0  0  0  0  0  0  0  0  0  0  0  0
  139.0100   68.5160  224.7930 C   0  0  0  0  0  0  0  0  0  0  0  0
  139.6830   69.2570  225.7550 C   0  0  0  0  0  0  0  0  0  0  0  0
  140.2170   68.6300  226.8470 C   0  0  0  0  0  0  0  0  0  0  0  0
  140.8910   69.3530  227.8150 C   0  0  0  0  0  0  0  0  0  0  0  0
  141.3870   68.6570  228.8610 F   0  0  0  0  0  0  0  0  0  0  0  0
  141.0280   70.7180  227.6830 C   0  0  0  0  0  0  0  0  0  0  0  0
  140.4820   71.3320  226.5730 C   0  0  0  0  0  0  0  0  0  0  0  0
  139.8110   70.6100  225.6080 C   0  0  0  0  0  0  0  0  0  0  0  0
  139.2930   71.2450  224.5410 N   0  0  0  0  0  0  0  0  0  0  0  0
  138.2470   73.2480  223.1090 H   0  0  0  0  0  0  0  0  0  0  0  0
  137.7606   72.6985  220.2193 H   0  0  0  0  0  0  0  0  0  0  0  0
  136.2442   73.0436  221.1101 H   0  0  0  0  0  0  0  0  0  0  0  0
  138.3392   77.1739  222.0489 H   0  0  0  0  0  0  0  0  0  0  0  0
  138.5340   75.9921  223.3428 H   0  0  0  0  0  0  0  0  0  0  0  0
  140.8991   76.1193  223.2461 H   0  0  0  0  0  0  0  0  0  0  0  0
  142.6583   77.9139  223.2990 H   0  0  0  0  0  0  0  0  0  0  0  0
  142.9281   80.3437  223.7911 H   0  0  0  0  0  0  0  0  0  0  0  0
  141.0017   81.8832  223.5065 H   0  0  0  0  0  0  0  0  0  0  0  0
  138.7966   81.0257  222.7361 H   0  0  0  0  0  0  0  0  0  0  0  0
  138.5534   78.6021  222.2525 H   0  0  0  0  0  0  0  0  0  0  0  0
  140.6187   77.0645  220.3230 H   0  0  0  0  0  0  0  0  0  0  0  0
  141.9968   76.2597  220.9909 H   0  0  0  0  0  0  0  0  0  0  0  0
  140.0775   74.6181  219.8087 H   0  0  0  0  0  0  0  0  0  0  0  0
  141.1283   73.1016  220.8380 H   0  0  0  0  0  0  0  0  0  0  0  0
  141.8698   74.4134  221.9017 H   0  0  0  0  0  0  0  0  0  0  0  0
  139.6330   73.9430  223.0490 H   0  0  0  0  0  0  0  0  0  0  0  0
  137.9583   68.6553  222.9426 H   0  0  0  0  0  0  0  0  0  0  0  0
  138.8910   67.4261  224.8818 H   0  0  0  0  0  0  0  0  0  0  0  0
  140.1096   67.5408  226.9566 H   0  0  0  0  0  0  0  0  0  0  0  0
  141.5607   71.3056  228.4452 H   0  0  0  0  0  0  0  0  0  0  0  0
  140.5844   72.4209  226.4558 H   0  0  0  0  0  0  0  0  0  0  0  0
  1  2  2  0
  2  3  1  0
  3  4  1  0
  4  5  1  0
  5  6  2  0
  5  7  1  0
  7  8  1  0
  8  9  1  0
  9 10  1  0
 10 11  2  0
 11 12  1  0
 12 13  2  0
 13 14  1  0
 14 15  2  0
  9 16  1  0
 16 17  1  0
 17 18  1  0
 18 19  1  0
  2 20  1  0
 20 21  2  0
 21 22  1  0
 22 23  2  0
 23 24  1  0
 24 25  2  0
 25 26  1  0
 25 27  1  0
 27 28  2  0
 28 29  1  0
 29 30  2  0
 17  7  1  0
 30 20  1  0
 15 10  1  0
 29 23  1  0
  3 31  1  0
  4 32  1  0
  4 33  1  0
  8 34  1  0
  8 35  1  0
  9 36  1  1
 11 37  1  0
 12 38  1  0
 13 39  1  0
 14 40  1  0
 15 41  1  0
 16 42  1  0
 16 43  1  0
 17 44  1  6
 18 45  1  0
 18 46  1  0
 19 47  1  0
 21 48  1  0
 22 49  1  0
 24 50  1  0
 27 51  1  0
 28 52  1  0
M  END
>  <smiles>  (15) 
O=C(NCC(=O)N1C[C@H](c2ccccc2)C[C@H]1CO)c1ccc2cc(F)ccc2n1

>  <score_type>  (15) 
oracle

>  <origin>  (15) 
autodockgpu

>  <m_score__min__energy>  (15) 
-9.0299999999999994

>  <m_primary>  (15) 
energy

>  <rmsd>  (15) 
2.607284514868726

>  <m_score__min__rmsd>  (15) 
2.607284514868726

>  <meeko>  (15) 
{"free_energy": -8.58, "intermolecular_energy": -10.67, "internal_energy": -2.31, "cluster_size": 40, "cluster_id": 1, "rank_in_cluster": 5}

>  <energy>  (15) 
-8.41

>  <cluster_rmsd>  (15) 
1.45

>  <cluster>  (15) 
1

$$$$

     RDKit          3D

 52 55  0  0  0  0  0  0  0  0999 V2000
  137.3980   70.6080  221.5300 O   0  0  0  0  0  0  0  0  0  0  0  0
  137.9660   71.3300  222.4010 C   0  0  0  0  0  0  0  0  0  0  0  0
  137.9530   72.7320  222.1620 N   0  0  0  0  0  0  0  0  0  0  0  0
  137.2870   73.2060  220.9360 C   0  0  0  0  0  0  0  0  0  0  0  0
  137.8250   74.5110  220.5800 C   0  0  0  0  0  0  0  0  0  0  0  0
  137.1820   75.1980  219.7150 O   0  0  0  0  0  0  0  0  0  0  0  0
  139.0080   75.1060  221.0990 N   0  0  0  0  0  0  0  0  0  0  0  0
  138.9630   76.1370  222.1120 C   0  0  0  0  0  0  0  0  0  0  0  0
  140.3910   76.4650  222.3860 C   0  0  2  0  0  0  0  0  0  0  0  0
  140.5750   77.9070  222.7560 C   0  0  0  0  0  0  0  0  0  0  0  0
  141.8240   78.4530  222.9680 C   0  0  0  0  0  0  0  0  0  0  0  0
  141.9510   79.7960  223.3100 C   0  0  0  0  0  0  0  0  0  0  0  0
  140.8130   80.5820  223.4370 C   0  0  0  0  0  0  0  0  0  0  0  0
  139.5520   80.0550  223.2300 C   0  0  0  0  0  0  0  0  0  0  0  0
  139.4530   78.7170  222.8900 C   0  0  0  0  0  0  0  0  0  0  0  0
  141.0860   76.1440  221.0930 C   0  0  0  0  0  0  0  0  0  0  0  0
  140.3780   74.8290  220.7340 C   0  0  1  0  0  0  0  0  0  0  0  0
  141.0430   73.7440  221.5100 C   0  0  0  0  0  0  0  0  0  0  0  0
  140.4200   73.3810  222.6880 O   0  0  0  0  0  0  0  0  0  0  0  0
  138.5940   70.7640  223.5790 C   0  0  0  0  0  0  0  0  0  0  0  0
  138.4880   69.4150  223.8230 C   0  0  0  0  0  0  0  0  0  0  0  0
  139.0530   68.7920  224.9160 C   0  0  0  0  0  0  0  0  0  0  0  0
  139.7600   69.6000  225.7960 C   0  0  0  0  0  0  0  0  0  0  0  0
  140.3480   69.0510  226.9020 C   0  0  0  0  0  0  0  0  0  0  0  0
  141.0570   69.8400  227.7890 C   0  0  0  0  0  0  0  0  0  0  0  0
  141.6050   69.2190  228.8560 F   0  0  0  0  0  0  0  0  0  0  0  0
  141.1740   71.1950  227.5610 C   0  0  0  0  0  0  0  0  0  0  0  0
  140.5740   71.7300  226.4390 C   0  0  0  0  0  0  0  0  0  0  0  0
  139.8680   70.9410  225.5550 C   0  0  0  0  0  0  0  0  0  0  0  0
  139.2970   71.5000  224.4720 N   0  0  0  0  0  0  0  0  0  0  0  0
  138.3990   73.3900  222.8340 H   0  0  0  0  0  0  0  0  0  0  0  0
  137.4716   72.4949  220.1173 H   0  0  0  0  0  0  0  0  0  0  0  0
  136.2033   73.2845  221.1078 H   0  0  0  0  0  0  0  0  0  0  0  0
  138.4266   77.0224  221.7400 H   0  0  0  0  0  0  0  0  0  0  0  0
  138.4321   75.8067  223.0170 H   0  0  0  0  0  0  0  0  0  0  0  0
  140.7905   75.8996  223.2408 H   0  0  0  0  0  0  0  0  0  0  0  0
  142.7217   77.8254  222.8665 H   0  0  0  0  0  0  0  0  0  0  0  0
  142.9466   80.2323  223.4787 H   0  0  0  0  0  0  0  0  0  0  0  0
  140.9171   81.6432  223.7072 H   0  0  0  0  0  0  0  0  0  0  0  0
  138.6532   80.6809  223.3325 H   0  0  0  0  0  0  0  0  0  0  0  0
  138.4571   78.2816  222.7208 H   0  0  0  0  0  0  0  0  0  0  0  0
  140.9154   76.9209  220.3332 H   0  0  0  0  0  0  0  0  0  0  0  0
  142.1822   76.0791  221.1580 H   0  0  0  0  0  0  0  0  0  0  0  0
  140.4210   74.4962  219.6864 H   0  0  0  0  0  0  0  0  0  0  0  0
  141.0960   72.8528  220.8674 H   0  0  0  0  0  0  0  0  0  0  0  0
  142.0256   74.1434  221.8016 H   0  0  0  0  0  0  0  0  0  0  0  0
  140.1970   72.4240  222.7460 H   0  0  0  0  0  0  0  0  0  0  0  0
  137.9222   68.7996  223.1080 H   0  0  0  0  0  0  0  0  0  0  0  0
  138.9487   67.7096  225.0821 H   0  0  0  0  0  0  0  0  0  0  0  0
  140.2560   67.9707  227.0878 H   0  0  0  0  0  0  0  0  0  0  0  0
  141.7335   71.8358  228.2584 H   0  0  0  0  0  0  0  0  0  0  0  0
  140.6608   72.8094  226.2456 H   0  0  0  0  0  0  0  0  0  0  0  0
  1  2  2  0
  2  3  1  0
  3  4  1  0
  4  5  1  0
  5  6  2  0
  5  7  1  0
  7  8  1  0
  8  9  1  0
  9 10  1  0
 10 11  2  0
 11 12  1  0
 12 13  2  0
 13 14  1  0
 14 15  2  0
  9 16  1  0
 16 17  1  0
 17 18  1  0
 18 19  1  0
  2 20  1  0
 20 21  2  0
 21 22  1  0
 22 23  2  0
 23 24  1  0
 24 25  2  0
 25 26  1  0
 25 27  1  0
 27 28  2  0
 28 29  1  0
 29 30  2  0
 17  7  1  0
 30 20  1  0
 15 10  1  0
 29 23  1  0
  3 31  1  0
  4 32  1  0
  4 33  1  0
  8 34  1  0
  8 35  1  0
  9 36  1  1
 11 37  1  0
 12 38  1  0
 13 39  1  0
 14 40  1  0
 15 41  1  0
 16 42  1  0
 16 43  1  0
 17 44  1  6
 18 45  1  0
 18 46  1  0
 19 47  1  0
 21 48  1  0
 22 49  1  0
 24 50  1  0
 27 51  1  0
 28 52  1  0
M  END
>  <smiles>  (16) 
O=C(NCC(=O)N1C[C@H](c2ccccc2)C[C@H]1CO)c1ccc2cc(F)ccc2n1

>  <score_type>  (16) 
oracle

>  <origin>  (16) 
autodockgpu

>  <m_score__min__energy>  (16) 
-9.0299999999999994

>  <m_primary>  (16) 
energy

>  <rmsd>  (16) 
2.5972166343499894

>  <m_score__min__rmsd>  (16) 
2.5972166343499894

>  <meeko>  (16) 
{"free_energy": -7.85, "intermolecular_energy": -9.94, "internal_energy": -3.02, "cluster_size": 40, "cluster_id": 1, "rank_in_cluster": 33}

>  <energy>  (16) 
-8.29

>  <cluster_rmsd>  (16) 
0.95

>  <cluster>  (16) 
1

$$$$

     RDKit          3D

 52 55  0  0  0  0  0  0  0  0999 V2000
  136.6910   71.3720  221.4200 O   0  0  0  0  0  0  0  0  0  0  0  0
  137.3850   71.8760  222.3510 C   0  0  0  0  0  0  0  0  0  0  0  0
  137.5190   73.2920  222.3410 N   0  0  0  0  0  0  0  0  0  0  0  0
  136.8450   74.0300  221.2590 C   0  0  0  0  0  0  0  0  0  0  0  0
  137.8210   74.8690  220.5770 C   0  0  0  0  0  0  0  0  0  0  0  0
  137.6240   75.1160  219.3390 O   0  0  0  0  0  0  0  0  0  0  0  0
  138.9860   75.4460  221.1540 N   0  0  0  0  0  0  0  0  0  0  0  0
  138.9080   76.5160  222.1230 C   0  0  0  0  0  0  0  0  0  0  0  0
  140.3250   76.8090  222.4820 C   0  0  2  0  0  0  0  0  0  0  0  0
  140.5330   78.2570  222.8100 C   0  0  0  0  0  0  0  0  0  0  0  0
  139.4860   79.0850  223.1610 C   0  0  0  0  0  0  0  0  0  0  0  0
  139.7220   80.4240  223.4580 C   0  0  0  0  0  0  0  0  0  0  0  0
  141.0170   80.9220  223.3990 C   0  0  0  0  0  0  0  0  0  0  0  0
  142.0810   80.1100  223.0490 C   0  0  0  0  0  0  0  0  0  0  0  0
  141.8200   78.7830  222.7590 C   0  0  0  0  0  0  0  0  0  0  0  0
  141.0940   76.4160  221.2520 C   0  0  0  0  0  0  0  0  0  0  0  0
  140.3670   75.1110  220.8940 C   0  0  1  0  0  0  0  0  0  0  0  0
  140.9400   74.0370  221.7530 C   0  0  0  0  0  0  0  0  0  0  0  0
  140.0250   73.1880  222.3450 O   0  0  0  0  0  0  0  0  0  0  0  0
  138.0090   71.0600  223.3740 C   0  0  0  0  0  0  0  0  0  0  0  0
  137.6210   69.7490  223.5270 C   0  0  0  0  0  0  0  0  0  0  0  0
  138.1590   68.9010  224.4710 C   0  0  0  0  0  0  0  0  0  0  0  0
  139.1440   69.4310  225.2940 C   0  0  0  0  0  0  0  0  0  0  0  0
  139.7240   68.6480  226.2540 C   0  0  0  0  0  0  0  0  0  0  0  0
  140.7070   69.1590  227.0820 C   0  0  0  0  0  0  0  0  0  0  0  0
  141.2270   68.3180  228.0040 F   0  0  0  0  0  0  0  0  0  0  0  0
  141.1090   70.4700  226.9440 C   0  0  0  0  0  0  0  0  0  0  0  0
  140.5110   71.2440  225.9690 C   0  0  0  0  0  0  0  0  0  0  0  0
  139.5320   70.7330  225.1440 C   0  0  0  0  0  0  0  0  0  0  0  0
  138.9740   71.5190  224.2050 N   0  0  0  0  0  0  0  0  0  0  0  0
  138.0750   73.7790  223.0740 H   0  0  0  0  0  0  0  0  0  0  0  0
  136.4073   73.3178  220.5440 H   0  0  0  0  0  0  0  0  0  0  0  0
  136.0452   74.6574  221.6795 H   0  0  0  0  0  0  0  0  0  0  0  0
  138.4284   77.4029  221.6832 H   0  0  0  0  0  0  0  0  0  0  0  0
  138.3063   76.2380  223.0009 H   0  0  0  0  0  0  0  0  0  0  0  0
  140.6464   76.2649  223.3824 H   0  0  0  0  0  0  0  0  0  0  0  0
  138.4621   78.6854  223.2061 H   0  0  0  0  0  0  0  0  0  0  0  0
  138.8877   81.0840  223.7378 H   0  0  0  0  0  0  0  0  0  0  0  0
  141.2000   81.9807  223.6347 H   0  0  0  0  0  0  0  0  0  0  0  0
  143.1053   80.5083  223.0026 H   0  0  0  0  0  0  0  0  0  0  0  0
  142.6551   78.1237  222.4797 H   0  0  0  0  0  0  0  0  0  0  0  0
  141.0015   77.1677  220.4543 H   0  0  0  0  0  0  0  0  0  0  0  0
  142.1805   76.3191  221.3941 H   0  0  0  0  0  0  0  0  0  0  0  0
  140.4690   74.7361  219.8649 H   0  0  0  0  0  0  0  0  0  0  0  0
  141.6110   73.4281  221.1293 H   0  0  0  0  0  0  0  0  0  0  0  0
  141.4460   74.5550  222.5810 H   0  0  0  0  0  0  0  0  0  0  0  0
  139.8820   73.3580  223.3040 H   0  0  0  0  0  0  0  0  0  0  0  0
  136.8393   69.3564  222.8600 H   0  0  0  0  0  0  0  0  0  0  0  0
  137.8251   67.8574  224.5676 H   0  0  0  0  0  0  0  0  0  0  0  0
  139.4054   67.6014  226.3686 H   0  0  0  0  0  0  0  0  0  0  0  0
  141.8888   70.8905  227.5959 H   0  0  0  0  0  0  0  0  0  0  0  0
  140.8230   72.2919  225.8480 H   0  0  0  0  0  0  0  0  0  0  0  0
  1  2  2  0
  2  3  1  0
  3  4  1  0
  4  5  1  0
  5  6  2  0
  5  7  1  0
  7  8  1  0
  8  9  1  0
  9 10  1  0
 10 11  2  0
 11 12  1  0
 12 13  2  0
 13 14  1  0
 14 15  2  0
  9 16  1  0
 16 17  1  0
 17 18  1  0
 18 19  1  0
  2 20  1  0
 20 21  2  0
 21 22  1  0
 22 23  2  0
 23 24  1  0
 24 25  2  0
 25 26  1  0
 25 27  1  0
 27 28  2  0
 28 29  1  0
 29 30  2  0
 17  7  1  0
 30 20  1  0
 15 10  1  0
 29 23  1  0
  3 31  1  0
  4 32  1  0
  4 33  1  0
  8 34  1  0
  8 35  1  0
  9 36  1  1
 11 37  1  0
 12 38  1  0
 13 39  1  0
 14 40  1  0
 15 41  1  0
 16 42  1  0
 16 43  1  0
 17 44  1  6
 18 45  1  0
 18 46  1  0
 19 47  1  0
 21 48  1  0
 22 49  1  0
 24 50  1  0
 27 51  1  0
 28 52  1  0
M  END
>  <smiles>  (17) 
O=C(NCC(=O)N1C[C@H](c2ccccc2)C[C@H]1CO)c1ccc2cc(F)ccc2n1

>  <score_type>  (17) 
oracle

>  <origin>  (17) 
autodockgpu

>  <m_score__min__energy>  (17) 
-9.0299999999999994

>  <m_primary>  (17) 
energy

>  <rmsd>  (17) 
2.7180022295225568

>  <m_score__min__rmsd>  (17) 
2.7180022295225568

>  <meeko>  (17) 
{"free_energy": -7.88, "intermolecular_energy": -9.96, "internal_energy": -2.81, "cluster_size": 40, "cluster_id": 1, "rank_in_cluster": 32}

>  <energy>  (17) 
-8.26

>  <cluster_rmsd>  (17) 
1.62

>  <cluster>  (17) 
1

$$$$

     RDKit          3D

 52 55  0  0  0  0  0  0  0  0999 V2000
  140.9410   73.0460  222.3350 O   0  0  0  0  0  0  0  0  0  0  0  0
  139.9020   72.5300  222.8410 C   0  0  0  0  0  0  0  0  0  0  0  0
  138.6580   72.9730  222.3140 N   0  0  0  0  0  0  0  0  0  0  0  0
  138.6950   73.9800  221.2390 C   0  0  0  0  0  0  0  0  0  0  0  0
  138.8110   75.3040  221.8350 C   0  0  0  0  0  0  0  0  0  0  0  0
  137.9310   75.6400  222.6990 O   0  0  0  0  0  0  0  0  0  0  0  0
  139.8110   76.2740  221.5480 N   0  0  0  0  0  0  0  0  0  0  0  0
  140.4890   77.0050  222.5960 C   0  0  0  0  0  0  0  0  0  0  0  0
  141.4560   77.8860  221.8820 C   0  0  2  0  0  0  0  0  0  0  0  0
  141.6740   79.1810  222.6060 C   0  0  0  0  0  0  0  0  0  0  0  0
  140.6480   80.0770  222.8260 C   0  0  0  0  0  0  0  0  0  0  0  0
  140.8940   81.2690  223.5010 C   0  0  0  0  0  0  0  0  0  0  0  0
  142.1770   81.5510  223.9520 C   0  0  0  0  0  0  0  0  0  0  0  0
  143.2190   80.6670  223.7420 C   0  0  0  0  0  0  0  0  0  0  0  0
  142.9490   79.4890  223.0680 C   0  0  0  0  0  0  0  0  0  0  0  0
  140.8110   78.1140  220.5440 C   0  0  0  0  0  0  0  0  0  0  0  0
  140.2980   76.6950  220.2550 C   0  0  1  0  0  0  0  0  0  0  0  0
  141.4440   75.9130  219.7140 C   0  0  0  0  0  0  0  0  0  0  0  0
  141.9530   74.9380  220.5490 O   0  0  0  0  0  0  0  0  0  0  0  0
  139.9720   71.5420  223.8990 C   0  0  0  0  0  0  0  0  0  0  0  0
  139.5150   70.2650  223.6680 C   0  0  0  0  0  0  0  0  0  0  0  0
  139.5430   69.2630  224.6150 C   0  0  0  0  0  0  0  0  0  0  0  0
  140.0670   69.5940  225.8570 C   0  0  0  0  0  0  0  0  0  0  0  0
  140.1270   68.6510  226.8450 C   0  0  0  0  0  0  0  0  0  0  0  0
  140.6470   68.9640  228.0880 C   0  0  0  0  0  0  0  0  0  0  0  0
  140.6690   67.9740  229.0070 F   0  0  0  0  0  0  0  0  0  0  0  0
  141.1100   70.2380  228.3390 C   0  0  0  0  0  0  0  0  0  0  0  0
  141.0410   71.1760  227.3280 C   0  0  0  0  0  0  0  0  0  0  0  0
  140.5230   70.8620  226.0890 C   0  0  0  0  0  0  0  0  0  0  0  0
  140.4730   71.8040  225.1300 N   0  0  0  0  0  0  0  0  0  0  0  0
  137.7600   72.5950  222.6800 H   0  0  0  0  0  0  0  0  0  0  0  0
  139.5605   73.7918  220.5867 H   0  0  0  0  0  0  0  0  0  0  0  0
  137.7735   73.9204  220.6413 H   0  0  0  0  0  0  0  0  0  0  0  0
  139.7724   77.6057  223.1753 H   0  0  0  0  0  0  0  0  0  0  0  0
  140.9880   76.3361  223.3126 H   0  0  0  0  0  0  0  0  0  0  0  0
  142.4549   77.4317  221.8054 H   0  0  0  0  0  0  0  0  0  0  0  0
  139.6335   79.8487  222.4672 H   0  0  0  0  0  0  0  0  0  0  0  0
  140.0766   81.9840  223.6764 H   0  0  0  0  0  0  0  0  0  0  0  0
  142.3673   82.4940  224.4855 H   0  0  0  0  0  0  0  0  0  0  0  0
  144.2339   80.8936  224.1005 H   0  0  0  0  0  0  0  0  0  0  0  0
  143.7672   78.7750  222.8924 H   0  0  0  0  0  0  0  0  0  0  0  0
  139.9884   78.8417  220.6052 H   0  0  0  0  0  0  0  0  0  0  0  0
  141.4742   78.5346  219.7737 H   0  0  0  0  0  0  0  0  0  0  0  0
  139.5005   76.5836  219.5057 H   0  0  0  0  0  0  0  0  0  0  0  0
  141.1110   75.4234  218.7870 H   0  0  0  0  0  0  0  0  0  0  0  0
  142.2587   76.6377  219.5691 H   0  0  0  0  0  0  0  0  0  0  0  0
  141.5390   74.9190  221.4430 H   0  0  0  0  0  0  0  0  0  0  0  0
  139.1052   70.0307  222.6744 H   0  0  0  0  0  0  0  0  0  0  0  0
  139.1687   68.2519  224.3970 H   0  0  0  0  0  0  0  0  0  0  0  0
  139.7581   67.6333  226.6496 H   0  0  0  0  0  0  0  0  0  0  0  0
  141.5252   70.5015  229.3229 H   0  0  0  0  0  0  0  0  0  0  0  0
  141.4073   72.1962  227.5150 H   0  0  0  0  0  0  0  0  0  0  0  0
  1  2  2  0
  2  3  1  0
  3  4  1  0
  4  5  1  0
  5  6  2  0
  5  7  1  0
  7  8  1  0
  8  9  1  0
  9 10  1  0
 10 11  2  0
 11 12  1  0
 12 13  2  0
 13 14  1  0
 14 15  2  0
  9 16  1  0
 16 17  1  0
 17 18  1  0
 18 19  1  0
  2 20  1  0
 20 21  2  0
 21 22  1  0
 22 23  2  0
 23 24  1  0
 24 25  2  0
 25 26  1  0
 25 27  1  0
 27 28  2  0
 28 29  1  0
 29 30  2  0
 17  7  1  0
 30 20  1  0
 15 10  1  0
 29 23  1  0
  3 31  1  0
  4 32  1  0
  4 33  1  0
  8 34  1  0
  8 35  1  0
  9 36  1  6
 11 37  1  0
 12 38  1  0
 13 39  1  0
 14 40  1  0
 15 41  1  0
 16 42  1  0
 16 43  1  0
 17 44  1  6
 18 45  1  0
 18 46  1  0
 19 47  1  0
 21 48  1  0
 22 49  1  0
 24 50  1  0
 27 51  1  0
 28 52  1  0
M  END
>  <smiles>  (18) 
O=C(NCC(=O)N1C[C@H](c2ccccc2)C[C@H]1CO)c1ccc2cc(F)ccc2n1

>  <score_type>  (18) 
oracle

>  <origin>  (18) 
autodockgpu

>  <m_score__min__energy>  (18) 
-9.0299999999999994

>  <m_primary>  (18) 
energy

>  <rmsd>  (18) 
2.649311514823211

>  <m_score__min__rmsd>  (18) 
2.649311514823211

>  <meeko>  (18) 
{"free_energy": -8.58, "intermolecular_energy": -10.67, "internal_energy": -2.17, "cluster_size": 40, "cluster_id": 1, "rank_in_cluster": 6}

>  <energy>  (18) 
-8.25

>  <cluster_rmsd>  (18) 
1.5

>  <cluster>  (18) 
1

$$$$

     RDKit          3D

 52 55  0  0  0  0  0  0  0  0999 V2000
  141.0910   71.8610  221.5570 O   0  0  0  0  0  0  0  0  0  0  0  0
  140.2930   72.1260  222.5040 C   0  0  0  0  0  0  0  0  0  0  0  0
  139.4830   73.2830  222.3390 N   0  0  0  0  0  0  0  0  0  0  0  0
  139.6460   74.0550  221.0950 C   0  0  0  0  0  0  0  0  0  0  0  0
  139.3880   75.4610  221.3730 C   0  0  0  0  0  0  0  0  0  0  0  0
  138.2440   75.7670  221.8520 O   0  0  0  0  0  0  0  0  0  0  0  0
  140.2890   76.5410  221.1630 N   0  0  0  0  0  0  0  0  0  0  0  0
  140.9320   77.2250  222.2630 C   0  0  0  0  0  0  0  0  0  0  0  0
  141.7940   78.2570  221.6200 C   0  0  2  0  0  0  0  0  0  0  0  0
  141.9200   79.4890  222.4640 C   0  0  0  0  0  0  0  0  0  0  0  0
  140.8730   80.3720  222.6290 C   0  0  0  0  0  0  0  0  0  0  0  0
  141.0310   81.5060  223.4210 C   0  0  0  0  0  0  0  0  0  0  0  0
  142.2500   81.7420  224.0440 C   0  0  0  0  0  0  0  0  0  0  0  0
  143.3120   80.8700  223.8930 C   0  0  0  0  0  0  0  0  0  0  0  0
  143.1290   79.7500  223.1000 C   0  0  0  0  0  0  0  0  0  0  0  0
  141.0900   78.5540  220.3260 C   0  0  0  0  0  0  0  0  0  0  0  0
  140.6950   77.1300  219.9080 C   0  0  1  0  0  0  0  0  0  0  0  0
  141.8890   76.5120  219.2650 C   0  0  0  0  0  0  0  0  0  0  0  0
  142.6800   75.7360  220.0890 O   0  0  0  0  0  0  0  0  0  0  0  0
  140.2070   71.2990  223.6910 C   0  0  0  0  0  0  0  0  0  0  0  0
  139.6160   70.0590  223.6140 C   0  0  0  0  0  0  0  0  0  0  0  0
  139.4910   69.2060  224.6900 C   0  0  0  0  0  0  0  0  0  0  0  0
  140.0010   69.6550  225.9020 C   0  0  0  0  0  0  0  0  0  0  0  0
  139.9130   68.8630  227.0130 C   0  0  0  0  0  0  0  0  0  0  0  0
  140.4150   69.2940  228.2270 C   0  0  0  0  0  0  0  0  0  0  0  0
  140.2860   68.4500  229.2750 F   0  0  0  0  0  0  0  0  0  0  0  0
  141.0100   70.5330  228.3250 C   0  0  0  0  0  0  0  0  0  0  0  0
  141.0900   71.3180  227.1910 C   0  0  0  0  0  0  0  0  0  0  0  0
  140.5890   70.8870  225.9810 C   0  0  0  0  0  0  0  0  0  0  0  0
  140.6850   71.6800  224.8990 N   0  0  0  0  0  0  0  0  0  0  0  0
  138.8020   73.5650  223.0750 H   0  0  0  0  0  0  0  0  0  0  0  0
  140.6727   73.9357  220.7186 H   0  0  0  0  0  0  0  0  0  0  0  0
  138.9388   73.6902  220.3356 H   0  0  0  0  0  0  0  0  0  0  0  0
  140.1834   77.6977  222.9157 H   0  0  0  0  0  0  0  0  0  0  0  0
  141.5112   76.5375  222.8970 H   0  0  0  0  0  0  0  0  0  0  0  0
  142.8266   77.9060  221.4768 H   0  0  0  0  0  0  0  0  0  0  0  0
  139.9102   80.1795  222.1332 H   0  0  0  0  0  0  0  0  0  0  0  0
  140.1963   82.2103  223.5526 H   0  0  0  0  0  0  0  0  0  0  0  0
  142.3724   82.6390  224.6688 H   0  0  0  0  0  0  0  0  0  0  0  0
  144.2752   81.0606  224.3889 H   0  0  0  0  0  0  0  0  0  0  0  0
  143.9641   79.0461  222.9692 H   0  0  0  0  0  0  0  0  0  0  0  0
  140.2088   79.1947  220.4778 H   0  0  0  0  0  0  0  0  0  0  0  0
  141.6897   79.1055  219.5869 H   0  0  0  0  0  0  0  0  0  0  0  0
  139.8866   77.0210  219.1701 H   0  0  0  0  0  0  0  0  0  0  0  0
  141.5368   75.8768  218.4389 H   0  0  0  0  0  0  0  0  0  0  0  0
  142.5240   77.3510  218.9441 H   0  0  0  0  0  0  0  0  0  0  0  0
  142.6730   76.0160  221.0330 H   0  0  0  0  0  0  0  0  0  0  0  0
  139.2218   69.7302  222.6411 H   0  0  0  0  0  0  0  0  0  0  0  0
  139.0120   68.2204  224.5939 H   0  0  0  0  0  0  0  0  0  0  0  0
  139.4382   67.8734  226.9403 H   0  0  0  0  0  0  0  0  0  0  0  0
  141.4123   70.8891  229.2848 H   0  0  0  0  0  0  0  0  0  0  0  0
  141.5638   72.3087  227.2549 H   0  0  0  0  0  0  0  0  0  0  0  0
  1  2  2  0
  2  3  1  0
  3  4  1  0
  4  5  1  0
  5  6  2  0
  5  7  1  0
  7  8  1  0
  8  9  1  0
  9 10  1  0
 10 11  2  0
 11 12  1  0
 12 13  2  0
 13 14  1  0
 14 15  2  0
  9 16  1  0
 16 17  1  0
 17 18  1  0
 18 19  1  0
  2 20  1  0
 20 21  2  0
 21 22  1  0
 22 23  2  0
 23 24  1  0
 24 25  2  0
 25 26  1  0
 25 27  1  0
 27 28  2  0
 28 29  1  0
 29 30  2  0
 17  7  1  0
 30 20  1  0
 15 10  1  0
 29 23  1  0
  3 31  1  0
  4 32  1  0
  4 33  1  0
  8 34  1  0
  8 35  1  0
  9 36  1  6
 11 37  1  0
 12 38  1  0
 13 39  1  0
 14 40  1  0
 15 41  1  0
 16 42  1  0
 16 43  1  0
 17 44  1  6
 18 45  1  0
 18 46  1  0
 19 47  1  0
 21 48  1  0
 22 49  1  0
 24 50  1  0
 27 51  1  0
 28 52  1  0
M  END
>  <smiles>  (19) 
O=C(NCC(=O)N1C[C@H](c2ccccc2)C[C@H]1CO)c1ccc2cc(F)ccc2n1

>  <score_type>  (19) 
oracle

>  <origin>  (19) 
autodockgpu

>  <m_score__min__energy>  (19) 
-9.0299999999999994

>  <m_primary>  (19) 
energy

>  <rmsd>  (19) 
2.652862129494287

>  <m_score__min__rmsd>  (19) 
2.652862129494287

>  <meeko>  (19) 
{"free_energy": -9.03, "intermolecular_energy": -11.12, "internal_energy": -1.48, "cluster_size": 40, "cluster_id": 1, "rank_in_cluster": 1}

>  <energy>  (19) 
-8.24

>  <cluster_rmsd>  (19) 
1.5

>  <cluster>  (19) 
1

$$$$

     RDKit          3D

 52 55  0  0  0  0  0  0  0  0999 V2000
  136.8270   71.2870  221.4680 O   0  0  0  0  0  0  0  0  0  0  0  0
  137.5400   71.7970  222.3820 C   0  0  0  0  0  0  0  0  0  0  0  0
  137.6940   73.2100  222.3450 N   0  0  0  0  0  0  0  0  0  0  0  0
  137.0160   73.9390  221.2590 C   0  0  0  0  0  0  0  0  0  0  0  0
  138.0140   74.6450  220.4670 C   0  0  0  0  0  0  0  0  0  0  0  0
  137.7570   74.8380  219.2310 O   0  0  0  0  0  0  0  0  0  0  0  0
  139.2620   75.1440  220.9340 N   0  0  0  0  0  0  0  0  0  0  0  0
  139.3450   76.2890  221.8140 C   0  0  0  0  0  0  0  0  0  0  0  0
  140.8020   76.4650  222.0730 C   0  0  2  0  0  0  0  0  0  0  0  0
  141.1670   77.9060  222.2690 C   0  0  0  0  0  0  0  0  0  0  0  0
  141.2160   78.7980  221.2180 C   0  0  0  0  0  0  0  0  0  0  0  0
  141.5600   80.1270  221.4420 C   0  0  0  0  0  0  0  0  0  0  0  0
  141.8540   80.5510  222.7320 C   0  0  0  0  0  0  0  0  0  0  0  0
  141.8120   79.6740  223.8000 C   0  0  0  0  0  0  0  0  0  0  0  0
  141.4670   78.3580  223.5500 C   0  0  0  0  0  0  0  0  0  0  0  0
  141.4550   75.9020  220.8430 C   0  0  0  0  0  0  0  0  0  0  0  0
  140.5860   74.6530  220.6320 C   0  0  1  0  0  0  0  0  0  0  0  0
  141.1040   73.5970  221.5460 C   0  0  0  0  0  0  0  0  0  0  0  0
  140.3620   73.3780  222.6910 O   0  0  0  0  0  0  0  0  0  0  0  0
  138.1660   70.9890  223.4100 C   0  0  0  0  0  0  0  0  0  0  0  0
  137.8780   69.6460  223.4880 C   0  0  0  0  0  0  0  0  0  0  0  0
  138.4260   68.8030  224.4310 C   0  0  0  0  0  0  0  0  0  0  0  0
  139.3120   69.3730  225.3360 C   0  0  0  0  0  0  0  0  0  0  0  0
  139.8950   68.5980  226.3000 C   0  0  0  0  0  0  0  0  0  0  0  0
  140.7800   69.1490  227.2090 C   0  0  0  0  0  0  0  0  0  0  0  0
  141.3100   68.3140  228.1290 F   0  0  0  0  0  0  0  0  0  0  0  0
  141.0800   70.4930  227.1470 C   0  0  0  0  0  0  0  0  0  0  0  0
  140.4820   71.2590  226.1660 C   0  0  0  0  0  0  0  0  0  0  0  0
  139.6000   70.7080  225.2610 C   0  0  0  0  0  0  0  0  0  0  0  0
  139.0370   71.4870  224.3190 N   0  0  0  0  0  0  0  0  0  0  0  0
  138.2660   73.7020  223.0630 H   0  0  0  0  0  0  0  0  0  0  0  0
  136.4736   73.2272  220.6194 H   0  0  0  0  0  0  0  0  0  0  0  0
  136.3014   74.6591  221.6842 H   0  0  0  0  0  0  0  0  0  0  0  0
  138.9271   77.1827  221.3275 H   0  0  0  0  0  0  0  0  0  0  0  0
  138.7730   76.1419  222.7420 H   0  0  0  0  0  0  0  0  0  0  0  0
  141.1232   75.9629  222.9975 H   0  0  0  0  0  0  0  0  0  0  0  0
  140.9821   78.4570  220.1987 H   0  0  0  0  0  0  0  0  0  0  0  0
  141.5990   80.8377  220.6033 H   0  0  0  0  0  0  0  0  0  0  0  0
  142.1249   81.6027  222.9066 H   0  0  0  0  0  0  0  0  0  0  0  0
  142.0463   80.0132  224.8198 H   0  0  0  0  0  0  0  0  0  0  0  0
  141.4287   77.6477  224.3891 H   0  0  0  0  0  0  0  0  0  0  0  0
  141.3885   76.5949  219.9913 H   0  0  0  0  0  0  0  0  0  0  0  0
  142.5335   75.7072  220.9373 H   0  0  0  0  0  0  0  0  0  0  0  0
  140.5895   74.1911  219.6337 H   0  0  0  0  0  0  0  0  0  0  0  0
  141.1435   72.6527  220.9832 H   0  0  0  0  0  0  0  0  0  0  0  0
  142.0864   73.9535  221.8893 H   0  0  0  0  0  0  0  0  0  0  0  0
  139.8330   72.5480  222.6740 H   0  0  0  0  0  0  0  0  0  0  0  0
  137.1723   69.2220  222.7585 H   0  0  0  0  0  0  0  0  0  0  0  0
  138.1742   67.7327  224.4650 H   0  0  0  0  0  0  0  0  0  0  0  0
  139.6577   67.5252  226.3531 H   0  0  0  0  0  0  0  0  0  0  0  0
  141.7809   70.9457  227.8638 H   0  0  0  0  0  0  0  0  0  0  0  0
  140.7145   72.3324  226.1053 H   0  0  0  0  0  0  0  0  0  0  0  0
  1  2  2  0
  2  3  1  0
  3  4  1  0
  4  5  1  0
  5  6  2  0
  5  7  1  0
  7  8  1  0
  8  9  1  0
  9 10  1  0
 10 11  2  0
 11 12  1  0
 12 13  2  0
 13 14  1  0
 14 15  2  0
  9 16  1  0
 16 17  1  0
 17 18  1  0
 18 19  1  0
  2 20  1  0
 20 21  2  0
 21 22  1  0
 22 23  2  0
 23 24  1  0
 24 25  2  0
 25 26  1  0
 25 27  1  0
 27 28  2  0
 28 29  1  0
 29 30  2  0
 17  7  1  0
 30 20  1  0
 15 10  1  0
 29 23  1  0
  3 31  1  0
  4 32  1  0
  4 33  1  0
  8 34  1  0
  8 35  1  0
  9 36  1  1
 11 37  1  0
 12 38  1  0
 13 39  1  0
 14 40  1  0
 15 41  1  0
 16 42  1  0
 16 43  1  0
 17 44  1  6
 18 45  1  0
 18 46  1  0
 19 47  1  0
 21 48  1  0
 22 49  1  0
 24 50  1  0
 27 51  1  0
 28 52  1  0
M  END
>  <smiles>  (20) 
O=C(NCC(=O)N1C[C@H](c2ccccc2)C[C@H]1CO)c1ccc2cc(F)ccc2n1

>  <score_type>  (20) 
oracle

>  <origin>  (20) 
autodockgpu

>  <m_score__min__energy>  (20) 
-9.0299999999999994

>  <m_primary>  (20) 
energy

>  <rmsd>  (20) 
2.5536274361766145

>  <m_score__min__rmsd>  (20) 
2.5536274361766145

>  <meeko>  (20) 
{"free_energy": -7.76, "intermolecular_energy": -9.85, "internal_energy": -3.08, "cluster_size": 40, "cluster_id": 1, "rank_in_cluster": 35}

>  <energy>  (20) 
-8.24

>  <cluster_rmsd>  (20) 
1.49

>  <cluster>  (20) 
1

$$$$

     RDKit          3D

 52 55  0  0  0  0  0  0  0  0999 V2000
  137.4370   70.3430  221.8350 O   0  0  0  0  0  0  0  0  0  0  0  0
  137.9610   70.9820  222.7940 C   0  0  0  0  0  0  0  0  0  0  0  0
  137.8920   72.4000  222.7170 N   0  0  0  0  0  0  0  0  0  0  0  0
  137.2230   72.9850  221.5420 C   0  0  0  0  0  0  0  0  0  0  0  0
  137.6050   74.3860  221.4280 C   0  0  0  0  0  0  0  0  0  0  0  0
  136.6740   75.2360  221.2210 O   0  0  0  0  0  0  0  0  0  0  0  0
  138.9240   74.9100  221.5210 N   0  0  0  0  0  0  0  0  0  0  0  0
  139.2310   76.0640  222.3370 C   0  0  0  0  0  0  0  0  0  0  0  0
  140.6990   76.2660  222.1750 C   0  0  2  0  0  0  0  0  0  0  0  0
  141.0790   77.7140  222.2540 C   0  0  0  0  0  0  0  0  0  0  0  0
  141.0650   78.5350  221.1450 C   0  0  0  0  0  0  0  0  0  0  0  0
  141.4250   79.8740  221.2610 C   0  0  0  0  0  0  0  0  0  0  0  0
  141.7980   80.3800  222.5000 C   0  0  0  0  0  0  0  0  0  0  0  0
  141.8190   79.5740  223.6240 C   0  0  0  0  0  0  0  0  0  0  0  0
  141.4560   78.2460  223.4820 C   0  0  0  0  0  0  0  0  0  0  0  0
  140.9890   75.7020  220.8120 C   0  0  0  0  0  0  0  0  0  0  0  0
  140.1180   74.4380  220.8610 C   0  0  1  0  0  0  0  0  0  0  0  0
  140.8920   73.3980  221.5960 C   0  0  0  0  0  0  0  0  0  0  0  0
  140.3650   73.0060  222.8110 O   0  0  0  0  0  0  0  0  0  0  0  0
  138.5970   70.3100  223.9090 C   0  0  0  0  0  0  0  0  0  0  0  0
  138.5820   68.9360  223.9720 C   0  0  0  0  0  0  0  0  0  0  0  0
  139.1620   68.2140  224.9950 C   0  0  0  0  0  0  0  0  0  0  0  0
  139.7850   68.9450  225.9970 C   0  0  0  0  0  0  0  0  0  0  0  0
  140.3810   68.2960  227.0430 C   0  0  0  0  0  0  0  0  0  0  0  0
  141.0060   69.0090  228.0500 C   0  0  0  0  0  0  0  0  0  0  0  0
  141.5700   68.2910  229.0470 F   0  0  0  0  0  0  0  0  0  0  0  0
  141.0310   70.3860  228.0050 C   0  0  0  0  0  0  0  0  0  0  0  0
  140.4240   71.0220  226.9400 C   0  0  0  0  0  0  0  0  0  0  0  0
  139.8010   70.3110  225.9370 C   0  0  0  0  0  0  0  0  0  0  0  0
  139.2200   70.9670  224.9160 N   0  0  0  0  0  0  0  0  0  0  0  0
  138.3000   72.9940  223.4680 H   0  0  0  0  0  0  0  0  0  0  0  0
  137.5305   72.4438  220.6350 H   0  0  0  0  0  0  0  0  0  0  0  0
  136.1320   72.9053  221.6573 H   0  0  0  0  0  0  0  0  0  0  0  0
  138.6772   76.9465  221.9840 H   0  0  0  0  0  0  0  0  0  0  0  0
  138.9461   75.9159  223.3891 H   0  0  0  0  0  0  0  0  0  0  0  0
  141.2763   75.7779  222.9741 H   0  0  0  0  0  0  0  0  0  0  0  0
  140.7684   78.1297  220.1664 H   0  0  0  0  0  0  0  0  0  0  0  0
  141.4144   80.5282  220.3768 H   0  0  0  0  0  0  0  0  0  0  0  0
  142.0813   81.4392  222.5886 H   0  0  0  0  0  0  0  0  0  0  0  0
  142.1159   79.9773  224.6034 H   0  0  0  0  0  0  0  0  0  0  0  0
  141.4660   77.5923  224.3666 H   0  0  0  0  0  0  0  0  0  0  0  0
  140.6727   76.3859  220.0106 H   0  0  0  0  0  0  0  0  0  0  0  0
  142.0535   75.5253  220.5986 H   0  0  0  0  0  0  0  0  0  0  0  0
  139.8478   73.9671  219.9043 H   0  0  0  0  0  0  0  0  0  0  0  0
  140.9573   72.5079  220.9530 H   0  0  0  0  0  0  0  0  0  0  0  0
  141.8659   73.8552  221.8252 H   0  0  0  0  0  0  0  0  0  0  0  0
  139.6040   73.5530  223.1140 H   0  0  0  0  0  0  0  0  0  0  0  0
  138.0809   68.3832  223.1637 H   0  0  0  0  0  0  0  0  0  0  0  0
  139.1321   67.1146  225.0153 H   0  0  0  0  0  0  0  0  0  0  0  0
  140.3631   67.1969  227.0838 H   0  0  0  0  0  0  0  0  0  0  0  0
  141.5235   70.9657  228.7996 H   0  0  0  0  0  0  0  0  0  0  0  0
  140.4380   72.1208  226.8911 H   0  0  0  0  0  0  0  0  0  0  0  0
  1  2  2  0
  2  3  1  0
  3  4  1  0
  4  5  1  0
  5  6  2  0
  5  7  1  0
  7  8  1  0
  8  9  1  0
  9 10  1  0
 10 11  2  0
 11 12  1  0
 12 13  2  0
 13 14  1  0
 14 15  2  0
  9 16  1  0
 16 17  1  0
 17 18  1  0
 18 19  1  0
  2 20  1  0
 20 21  2  0
 21 22  1  0
 22 23  2  0
 23 24  1  0
 24 25  2  0
 25 26  1  0
 25 27  1  0
 27 28  2  0
 28 29  1  0
 29 30  2  0
 17  7  1  0
 30 20  1  0
 15 10  1  0
 29 23  1  0
  3 31  1  0
  4 32  1  0
  4 33  1  0
  8 34  1  0
  8 35  1  0
  9 36  1  1
 11 37  1  0
 12 38  1  0
 13 39  1  0
 14 40  1  0
 15 41  1  0
 16 42  1  0
 16 43  1  0
 17 44  1  6
 18 45  1  0
 18 46  1  0
 19 47  1  0
 21 48  1  0
 22 49  1  0
 24 50  1  0
 27 51  1  0
 28 52  1  0
M  END
>  <smiles>  (21) 
O=C(NCC(=O)N1C[C@H](c2ccccc2)C[C@H]1CO)c1ccc2cc(F)ccc2n1

>  <score_type>  (21) 
oracle

>  <origin>  (21) 
autodockgpu

>  <m_score__min__energy>  (21) 
-9.0299999999999994

>  <m_primary>  (21) 
energy

>  <rmsd>  (21) 
2.6201716258707397

>  <m_score__min__rmsd>  (21) 
2.6201716258707397

>  <meeko>  (21) 
{"free_energy": -8.71, "intermolecular_energy": -10.8, "internal_energy": -2.25, "cluster_size": 40, "cluster_id": 1, "rank_in_cluster": 3}

>  <energy>  (21) 
-8.21

>  <cluster_rmsd>  (21) 
1.5

>  <cluster>  (21) 
1

$$$$

     RDKit          3D

 52 55  0  0  0  0  0  0  0  0999 V2000
  138.2570   71.8080  220.9950 O   0  0  0  0  0  0  0  0  0  0  0  0
  138.0050   72.1010  222.2000 C   0  0  0  0  0  0  0  0  0  0  0  0
  137.2690   73.2980  222.4170 N   0  0  0  0  0  0  0  0  0  0  0  0
  136.8720   74.0760  221.2290 C   0  0  0  0  0  0  0  0  0  0  0  0
  138.0670   74.4390  220.4800 C   0  0  0  0  0  0  0  0  0  0  0  0
  138.0890   74.1580  219.2340 O   0  0  0  0  0  0  0  0  0  0  0  0
  139.2250   75.0800  221.0000 N   0  0  0  0  0  0  0  0  0  0  0  0
  139.1450   76.0630  222.0580 C   0  0  0  0  0  0  0  0  0  0  0  0
  140.5570   76.4630  222.3150 C   0  0  2  0  0  0  0  0  0  0  0  0
  140.6660   77.8960  222.7430 C   0  0  0  0  0  0  0  0  0  0  0  0
  139.6610   78.8100  222.5010 C   0  0  0  0  0  0  0  0  0  0  0  0
  139.8020   80.1310  222.9140 C   0  0  0  0  0  0  0  0  0  0  0  0
  140.9600   80.5240  223.5720 C   0  0  0  0  0  0  0  0  0  0  0  0
  141.9790   79.6250  223.8250 C   0  0  0  0  0  0  0  0  0  0  0  0
  141.8150   78.3170  223.4040 C   0  0  0  0  0  0  0  0  0  0  0  0
  141.2390   76.2380  220.9950 C   0  0  0  0  0  0  0  0  0  0  0  0
  140.5990   74.9000  220.5940 C   0  0  1  0  0  0  0  0  0  0  0  0
  141.3440   73.8250  221.3080 C   0  0  0  0  0  0  0  0  0  0  0  0
  140.6900   73.2520  222.3800 O   0  0  0  0  0  0  0  0  0  0  0  0
  138.4410   71.2660  223.3020 C   0  0  0  0  0  0  0  0  0  0  0  0
  137.7290   70.1320  223.6180 C   0  0  0  0  0  0  0  0  0  0  0  0
  138.0710   69.2800  224.6470 C   0  0  0  0  0  0  0  0  0  0  0  0
  139.2000   69.6150  225.3830 C   0  0  0  0  0  0  0  0  0  0  0  0
  139.5990   68.8170  226.4200 C   0  0  0  0  0  0  0  0  0  0  0  0
  140.7210   69.1350  227.1630 C   0  0  0  0  0  0  0  0  0  0  0  0
  141.0450   68.2940  228.1690 F   0  0  0  0  0  0  0  0  0  0  0  0
  141.4470   70.2670  226.8620 C   0  0  0  0  0  0  0  0  0  0  0  0
  141.0280   71.0600  225.8120 C   0  0  0  0  0  0  0  0  0  0  0  0
  139.9090   70.7410  225.0710 C   0  0  0  0  0  0  0  0  0  0  0  0
  139.5320   71.5390  224.0550 N   0  0  0  0  0  0  0  0  0  0  0  0
  137.0240   73.6050  223.3800 H   0  0  0  0  0  0  0  0  0  0  0  0
  136.2093   73.4688  220.5948 H   0  0  0  0  0  0  0  0  0  0  0  0
  136.3381   74.9856  221.5414 H   0  0  0  0  0  0  0  0  0  0  0  0
  138.5492   76.9301  221.7368 H   0  0  0  0  0  0  0  0  0  0  0  0
  138.6565   75.6637  222.9591 H   0  0  0  0  0  0  0  0  0  0  0  0
  141.0087   75.8867  223.1359 H   0  0  0  0  0  0  0  0  0  0  0  0
  138.7455   78.4932  221.9799 H   0  0  0  0  0  0  0  0  0  0  0  0
  139.0011   80.8597  222.7205 H   0  0  0  0  0  0  0  0  0  0  0  0
  141.0683   81.5691  223.8976 H   0  0  0  0  0  0  0  0  0  0  0  0
  142.8947   79.9405  224.3464 H   0  0  0  0  0  0  0  0  0  0  0  0
  142.6167   77.5891  223.5978 H   0  0  0  0  0  0  0  0  0  0  0  0
  141.0065   77.0351  220.2734 H   0  0  0  0  0  0  0  0  0  0  0  0
  142.3383   76.2344  221.0342 H   0  0  0  0  0  0  0  0  0  0  0  0
  140.6354   74.6151  219.5322 H   0  0  0  0  0  0  0  0  0  0  0  0
  141.5652   73.0284  220.5824 H   0  0  0  0  0  0  0  0  0  0  0  0
  142.2385   74.3088  221.7272 H   0  0  0  0  0  0  0  0  0  0  0  0
  140.0840   72.5150  222.1340 H   0  0  0  0  0  0  0  0  0  0  0  0
  136.8391   69.8920  223.0176 H   0  0  0  0  0  0  0  0  0  0  0  0
  137.4795   68.3806  224.8734 H   0  0  0  0  0  0  0  0  0  0  0  0
  139.0216   67.9134  226.6652 H   0  0  0  0  0  0  0  0  0  0  0  0
  142.3408   70.5331  227.4454 H   0  0  0  0  0  0  0  0  0  0  0  0
  141.5991   71.9660  225.5609 H   0  0  0  0  0  0  0  0  0  0  0  0
  1  2  2  0
  2  3  1  0
  3  4  1  0
  4  5  1  0
  5  6  2  0
  5  7  1  0
  7  8  1  0
  8  9  1  0
  9 10  1  0
 10 11  2  0
 11 12  1  0
 12 13  2  0
 13 14  1  0
 14 15  2  0
  9 16  1  0
 16 17  1  0
 17 18  1  0
 18 19  1  0
  2 20  1  0
 20 21  2  0
 21 22  1  0
 22 23  2  0
 23 24  1  0
 24 25  2  0
 25 26  1  0
 25 27  1  0
 27 28  2  0
 28 29  1  0
 29 30  2  0
 17  7  1  0
 30 20  1  0
 15 10  1  0
 29 23  1  0
  3 31  1  0
  4 32  1  0
  4 33  1  0
  8 34  1  0
  8 35  1  0
  9 36  1  1
 11 37  1  0
 12 38  1  0
 13 39  1  0
 14 40  1  0
 15 41  1  0
 16 42  1  0
 16 43  1  0
 17 44  1  6
 18 45  1  0
 18 46  1  0
 19 47  1  0
 21 48  1  0
 22 49  1  0
 24 50  1  0
 27 51  1  0
 28 52  1  0
M  END
>  <smiles>  (22) 
O=C(NCC(=O)N1C[C@H](c2ccccc2)C[C@H]1CO)c1ccc2cc(F)ccc2n1

>  <score_type>  (22) 
oracle

>  <origin>  (22) 
autodockgpu

>  <m_score__min__energy>  (22) 
-9.0299999999999994

>  <m_primary>  (22) 
energy

>  <rmsd>  (22) 
2.6413499694565563

>  <m_score__min__rmsd>  (22) 
2.6413499694565563

>  <meeko>  (22) 
{"free_energy": -7.52, "intermolecular_energy": -9.6, "internal_energy": -2.66, "cluster_size": 40, "cluster_id": 1, "rank_in_cluster": 40}

>  <energy>  (22) 
-8.21

>  <cluster_rmsd>  (22) 
0.99

>  <cluster>  (22) 
1

$$$$

     RDKit          3D

 52 55  0  0  0  0  0  0  0  0999 V2000
  136.9570   71.0390  221.4710 O   0  0  0  0  0  0  0  0  0  0  0  0
  137.5900   71.6300  222.3940 C   0  0  0  0  0  0  0  0  0  0  0  0
  137.6230   73.0500  222.3250 N   0  0  0  0  0  0  0  0  0  0  0  0
  136.9240   73.6920  221.1990 C   0  0  0  0  0  0  0  0  0  0  0  0
  137.8440   74.5970  220.5240 C   0  0  0  0  0  0  0  0  0  0  0  0
  137.5930   74.8920  219.3060 O   0  0  0  0  0  0  0  0  0  0  0  0
  139.0070   75.1910  221.0870 N   0  0  0  0  0  0  0  0  0  0  0  0
  138.9260   76.2410  222.0770 C   0  0  0  0  0  0  0  0  0  0  0  0
  140.3430   76.5610  222.4110 C   0  0  2  0  0  0  0  0  0  0  0  0
  140.5230   78.0080  222.7630 C   0  0  0  0  0  0  0  0  0  0  0  0
  141.7650   78.6100  222.7650 C   0  0  0  0  0  0  0  0  0  0  0  0
  141.8890   79.9550  223.0980 C   0  0  0  0  0  0  0  0  0  0  0  0
  140.7570   80.6880  223.4280 C   0  0  0  0  0  0  0  0  0  0  0  0
  139.5030   80.1040  223.4320 C   0  0  0  0  0  0  0  0  0  0  0  0
  139.4060   78.7650  223.0970 C   0  0  0  0  0  0  0  0  0  0  0  0
  141.0940   76.2090  221.1580 C   0  0  0  0  0  0  0  0  0  0  0  0
  140.3890   74.8940  220.7910 C   0  0  1  0  0  0  0  0  0  0  0  0
  141.0070   73.8180  221.6170 C   0  0  0  0  0  0  0  0  0  0  0  0
  140.2360   73.3470  222.6620 O   0  0  0  0  0  0  0  0  0  0  0  0
  138.2460   70.9040  223.4630 C   0  0  0  0  0  0  0  0  0  0  0  0
  138.0590   69.5460  223.5770 C   0  0  0  0  0  0  0  0  0  0  0  0
  138.6420   68.7760  224.5610 C   0  0  0  0  0  0  0  0  0  0  0  0
  139.4580   69.4390  225.4680 C   0  0  0  0  0  0  0  0  0  0  0  0
  140.0700   68.7400  226.4710 C   0  0  0  0  0  0  0  0  0  0  0  0
  140.8860   69.3850  227.3830 C   0  0  0  0  0  0  0  0  0  0  0  0
  141.4520   68.6200  228.3430 F   0  0  0  0  0  0  0  0  0  0  0  0
  141.0860   70.7450  227.2860 C   0  0  0  0  0  0  0  0  0  0  0  0
  140.4590   71.4330  226.2660 C   0  0  0  0  0  0  0  0  0  0  0  0
  139.6470   70.7890  225.3570 C   0  0  0  0  0  0  0  0  0  0  0  0
  139.0520   71.4940  224.3770 N   0  0  0  0  0  0  0  0  0  0  0  0
  138.1240   73.6060  223.0480 H   0  0  0  0  0  0  0  0  0  0  0  0
  136.5784   72.9229  220.4926 H   0  0  0  0  0  0  0  0  0  0  0  0
  136.0560   74.2549  221.5727 H   0  0  0  0  0  0  0  0  0  0  0  0
  138.4165   77.1241  221.6641 H   0  0  0  0  0  0  0  0  0  0  0  0
  138.3506   75.9328  222.9624 H   0  0  0  0  0  0  0  0  0  0  0  0
  140.6976   76.0082  223.2934 H   0  0  0  0  0  0  0  0  0  0  0  0
  142.6588   78.0250  222.5027 H   0  0  0  0  0  0  0  0  0  0  0  0
  142.8787   80.4352  223.0999 H   0  0  0  0  0  0  0  0  0  0  0  0
  140.8590   81.7513  223.6907 H   0  0  0  0  0  0  0  0  0  0  0  0
  138.6082   80.6876  223.6941 H   0  0  0  0  0  0  0  0  0  0  0  0
  138.4160   78.2855  223.0949 H   0  0  0  0  0  0  0  0  0  0  0  0
  140.9671   76.9730  220.3768 H   0  0  0  0  0  0  0  0  0  0  0  0
  142.1852   76.1349  221.2750 H   0  0  0  0  0  0  0  0  0  0  0  0
  140.4759   74.5407  219.7529 H   0  0  0  0  0  0  0  0  0  0  0  0
  141.2316   72.9697  220.9537 H   0  0  0  0  0  0  0  0  0  0  0  0
  141.8964   74.2697  222.0807 H   0  0  0  0  0  0  0  0  0  0  0  0
  139.5900   74.0030  223.0120 H   0  0  0  0  0  0  0  0  0  0  0  0
  137.4089   69.0472  222.8431 H   0  0  0  0  0  0  0  0  0  0  0  0
  138.4694   67.6915  224.6243 H   0  0  0  0  0  0  0  0  0  0  0  0
  139.9121   67.6545  226.5535 H   0  0  0  0  0  0  0  0  0  0  0  0
  141.7309   71.2710  228.0053 H   0  0  0  0  0  0  0  0  0  0  0  0
  140.6108   72.5188  226.1769 H   0  0  0  0  0  0  0  0  0  0  0  0
  1  2  2  0
  2  3  1  0
  3  4  1  0
  4  5  1  0
  5  6  2  0
  5  7  1  0
  7  8  1  0
  8  9  1  0
  9 10  1  0
 10 11  2  0
 11 12  1  0
 12 13  2  0
 13 14  1  0
 14 15  2  0
  9 16  1  0
 16 17  1  0
 17 18  1  0
 18 19  1  0
  2 20  1  0
 20 21  2  0
 21 22  1  0
 22 23  2  0
 23 24  1  0
 24 25  2  0
 25 26  1  0
 25 27  1  0
 27 28  2  0
 28 29  1  0
 29 30  2  0
 17  7  1  0
 30 20  1  0
 15 10  1  0
 29 23  1  0
  3 31  1  0
  4 32  1  0
  4 33  1  0
  8 34  1  0
  8 35  1  0
  9 36  1  1
 11 37  1  0
 12 38  1  0
 13 39  1  0
 14 40  1  0
 15 41  1  0
 16 42  1  0
 16 43  1  0
 17 44  1  6
 18 45  1  0
 18 46  1  0
 19 47  1  0
 21 48  1  0
 22 49  1  0
 24 50  1  0
 27 51  1  0
 28 52  1  0
M  END
>  <smiles>  (23) 
O=C(NCC(=O)N1C[C@H](c2ccccc2)C[C@H]1CO)c1ccc2cc(F)ccc2n1

>  <score_type>  (23) 
oracle

>  <origin>  (23) 
autodockgpu

>  <m_score__min__energy>  (23) 
-9.0299999999999994

>  <m_primary>  (23) 
energy

>  <rmsd>  (23) 
2.6268252707011355

>  <m_score__min__rmsd>  (23) 
2.6268252707011355

>  <meeko>  (23) 
{"free_energy": -8.2, "intermolecular_energy": -10.29, "internal_energy": -2.47, "cluster_size": 40, "cluster_id": 1, "rank_in_cluster": 23}

>  <energy>  (23) 
-8.2

>  <cluster_rmsd>  (23) 
1.71

>  <cluster>  (23) 
1

$$$$

     RDKit          3D

 52 55  0  0  0  0  0  0  0  0999 V2000
  137.7630   70.6990  221.3040 O   0  0  0  0  0  0  0  0  0  0  0  0
  138.0780   71.3880  222.3180 C   0  0  0  0  0  0  0  0  0  0  0  0
  137.8660   72.7900  222.2170 N   0  0  0  0  0  0  0  0  0  0  0  0
  137.3040   73.3030  220.9550 C   0  0  0  0  0  0  0  0  0  0  0  0
  137.7160   74.6890  220.7820 C   0  0  0  0  0  0  0  0  0  0  0  0
  136.9120   75.4710  220.1680 O   0  0  0  0  0  0  0  0  0  0  0  0
  138.9360   75.2680  221.2290 N   0  0  0  0  0  0  0  0  0  0  0  0
  138.9620   76.3340  222.2060 C   0  0  0  0  0  0  0  0  0  0  0  0
  140.4090   76.6320  222.4070 C   0  0  2  0  0  0  0  0  0  0  0  0
  140.6460   78.0790  222.7170 C   0  0  0  0  0  0  0  0  0  0  0  0
  141.8340   78.7080  222.4050 C   0  0  0  0  0  0  0  0  0  0  0  0
  142.0150   80.0540  222.7110 C   0  0  0  0  0  0  0  0  0  0  0  0
  140.9920   80.7590  223.3320 C   0  0  0  0  0  0  0  0  0  0  0  0
  139.7940   80.1480  223.6540 C   0  0  0  0  0  0  0  0  0  0  0  0
  139.6390   78.8100  223.3390 C   0  0  0  0  0  0  0  0  0  0  0  0
  141.0380   76.2460  221.0980 C   0  0  0  0  0  0  0  0  0  0  0  0
  140.2800   74.9400  220.8170 C   0  0  1  0  0  0  0  0  0  0  0  0
  140.9490   73.8650  221.6010 C   0  0  0  0  0  0  0  0  0  0  0  0
  140.2450   73.3910  222.6910 O   0  0  0  0  0  0  0  0  0  0  0  0
  138.6250   70.7850  223.5170 C   0  0  0  0  0  0  0  0  0  0  0  0
  138.4270   69.4450  223.7540 C   0  0  0  0  0  0  0  0  0  0  0  0
  138.9110   68.7890  224.8670 C   0  0  0  0  0  0  0  0  0  0  0  0
  139.6320   69.5520  225.7750 C   0  0  0  0  0  0  0  0  0  0  0  0
  140.1430   68.9690  226.9020 C   0  0  0  0  0  0  0  0  0  0  0  0
  140.8640   69.7140  227.8170 C   0  0  0  0  0  0  0  0  0  0  0  0
  141.3320   69.0610  228.9030 F   0  0  0  0  0  0  0  0  0  0  0  0
  141.0720   71.0590  227.5960 C   0  0  0  0  0  0  0  0  0  0  0  0
  140.5490   71.6290  226.4530 C   0  0  0  0  0  0  0  0  0  0  0  0
  139.8310   70.8850  225.5410 C   0  0  0  0  0  0  0  0  0  0  0  0
  139.3370   71.4760  224.4380 N   0  0  0  0  0  0  0  0  0  0  0  0
  138.1010   73.4220  223.0100 H   0  0  0  0  0  0  0  0  0  0  0  0
  137.6757   72.6999  220.1135 H   0  0  0  0  0  0  0  0  0  0  0  0
  136.2061   73.2424  220.9850 H   0  0  0  0  0  0  0  0  0  0  0  0
  138.4330   77.2205  221.8262 H   0  0  0  0  0  0  0  0  0  0  0  0
  138.4627   76.0495  223.1440 H   0  0  0  0  0  0  0  0  0  0  0  0
  140.8312   76.0865  223.2638 H   0  0  0  0  0  0  0  0  0  0  0  0
  142.6403   78.1442  221.9131 H   0  0  0  0  0  0  0  0  0  0  0  0
  142.9618   80.5558  222.4626 H   0  0  0  0  0  0  0  0  0  0  0  0
  141.1374   81.8226  223.5720 H   0  0  0  0  0  0  0  0  0  0  0  0
  138.9870   80.7101  224.1468 H   0  0  0  0  0  0  0  0  0  0  0  0
  138.6917   78.3093  223.5877 H   0  0  0  0  0  0  0  0  0  0  0  0
  140.8555   77.0004  220.3185 H   0  0  0  0  0  0  0  0  0  0  0  0
  142.1338   76.1520  221.1188 H   0  0  0  0  0  0  0  0  0  0  0  0
  140.2679   74.5697  219.7813 H   0  0  0  0  0  0  0  0  0  0  0  0
  141.1337   73.0181  220.9238 H   0  0  0  0  0  0  0  0  0  0  0  0
  141.8644   74.3178  222.0096 H   0  0  0  0  0  0  0  0  0  0  0  0
  139.5990   74.0350  223.0630 H   0  0  0  0  0  0  0  0  0  0  0  0
  137.8521   68.8652  223.0169 H   0  0  0  0  0  0  0  0  0  0  0  0
  138.7343   67.7151  225.0268 H   0  0  0  0  0  0  0  0  0  0  0  0
  139.9787   67.8964  227.0823 H   0  0  0  0  0  0  0  0  0  0  0  0
  141.6426   71.6648  228.3153 H   0  0  0  0  0  0  0  0  0  0  0  0
  140.7086   72.7011  226.2655 H   0  0  0  0  0  0  0  0  0  0  0  0
  1  2  2  0
  2  3  1  0
  3  4  1  0
  4  5  1  0
  5  6  2  0
  5  7  1  0
  7  8  1  0
  8  9  1  0
  9 10  1  0
 10 11  2  0
 11 12  1  0
 12 13  2  0
 13 14  1  0
 14 15  2  0
  9 16  1  0
 16 17  1  0
 17 18  1  0
 18 19  1  0
  2 20  1  0
 20 21  2  0
 21 22  1  0
 22 23  2  0
 23 24  1  0
 24 25  2  0
 25 26  1  0
 25 27  1  0
 27 28  2  0
 28 29  1  0
 29 30  2  0
 17  7  1  0
 30 20  1  0
 15 10  1  0
 29 23  1  0
  3 31  1  0
  4 32  1  0
  4 33  1  0
  8 34  1  0
  8 35  1  0
  9 36  1  1
 11 37  1  0
 12 38  1  0
 13 39  1  0
 14 40  1  0
 15 41  1  0
 16 42  1  0
 16 43  1  0
 17 44  1  6
 18 45  1  0
 18 46  1  0
 19 47  1  0
 21 48  1  0
 22 49  1  0
 24 50  1  0
 27 51  1  0
 28 52  1  0
M  END
>  <smiles>  (24) 
O=C(NCC(=O)N1C[C@H](c2ccccc2)C[C@H]1CO)c1ccc2cc(F)ccc2n1

>  <score_type>  (24) 
oracle

>  <origin>  (24) 
autodockgpu

>  <m_score__min__energy>  (24) 
-9.0299999999999994

>  <m_primary>  (24) 
energy

>  <rmsd>  (24) 
2.597745271900209

>  <m_score__min__rmsd>  (24) 
2.597745271900209

>  <meeko>  (24) 
{"free_energy": -8.53, "intermolecular_energy": -10.62, "internal_energy": -2.29, "cluster_size": 40, "cluster_id": 1, "rank_in_cluster": 13}

>  <energy>  (24) 
-8.18

>  <cluster_rmsd>  (24) 
1.65

>  <cluster>  (24) 
1

$$$$

     RDKit          3D

 52 55  0  0  0  0  0  0  0  0999 V2000
  138.4000   75.3780  221.5330 O   0  0  0  0  0  0  0  0  0  0  0  0
  139.5990   75.6790  221.8060 C   0  0  0  0  0  0  0  0  0  0  0  0
  140.5710   74.6690  221.5710 N   0  0  0  0  0  0  0  0  0  0  0  0
  140.0970   73.3800  221.0360 C   0  0  0  0  0  0  0  0  0  0  0  0
  140.6020   72.3040  221.8760 C   0  0  0  0  0  0  0  0  0  0  0  0
  141.7930   71.8960  221.6580 O   0  0  0  0  0  0  0  0  0  0  0  0
  139.8980   71.6520  222.9260 N   0  0  0  0  0  0  0  0  0  0  0  0
  140.4220   71.5860  224.2720 C   0  0  0  0  0  0  0  0  0  0  0  0
  139.3860   70.8490  225.0490 C   0  0  2  0  0  0  0  0  0  0  0  0
  139.9880   70.0290  226.1510 C   0  0  0  0  0  0  0  0  0  0  0  0
  140.4770   70.6030  227.3060 C   0  0  0  0  0  0  0  0  0  0  0  0
  141.0290   69.8060  228.3040 C   0  0  0  0  0  0  0  0  0  0  0  0
  141.0830   68.4290  228.1310 C   0  0  0  0  0  0  0  0  0  0  0  0
  140.5980   67.8330  226.9810 C   0  0  0  0  0  0  0  0  0  0  0  0
  140.0540   68.6470  226.0040 C   0  0  0  0  0  0  0  0  0  0  0  0
  138.7220   69.9760  224.0220 C   0  0  0  0  0  0  0  0  0  0  0  0
  138.6270   70.9690  222.8540 C   0  0  1  0  0  0  0  0  0  0  0  0
  137.4270   71.8180  223.0950 C   0  0  0  0  0  0  0  0  0  0  0  0
  137.3790   73.0040  222.3880 O   0  0  0  0  0  0  0  0  0  0  0  0
  139.9640   76.9800  222.3300 C   0  0  0  0  0  0  0  0  0  0  0  0
  138.9940   77.7930  222.8680 C   0  0  0  0  0  0  0  0  0  0  0  0
  139.2500   79.0440  223.3890 C   0  0  0  0  0  0  0  0  0  0  0  0
  140.5690   79.4750  223.3510 C   0  0  0  0  0  0  0  0  0  0  0  0
  140.8980   80.7060  223.8490 C   0  0  0  0  0  0  0  0  0  0  0  0
  142.2070   81.1510  223.8200 C   0  0  0  0  0  0  0  0  0  0  0  0
  142.4460   82.3780  224.3320 F   0  0  0  0  0  0  0  0  0  0  0  0
  143.1930   80.3520  223.2830 C   0  0  0  0  0  0  0  0  0  0  0  0
  142.8410   79.1130  222.7860 C   0  0  0  0  0  0  0  0  0  0  0  0
  141.5360   78.6700  222.8160 C   0  0  0  0  0  0  0  0  0  0  0  0
  141.2320   77.4560  222.3210 N   0  0  0  0  0  0  0  0  0  0  0  0
  141.5780   74.8420  221.7710 H   0  0  0  0  0  0  0  0  0  0  0  0
  138.9971   73.3627  221.0360 H   0  0  0  0  0  0  0  0  0  0  0  0
  140.4600   73.2490  220.0059 H   0  0  0  0  0  0  0  0  0  0  0  0
  141.3784   71.0428  224.2891 H   0  0  0  0  0  0  0  0  0  0  0  0
  140.6213   72.5842  224.6890 H   0  0  0  0  0  0  0  0  0  0  0  0
  138.6833   71.5285  225.5535 H   0  0  0  0  0  0  0  0  0  0  0  0
  140.4304   71.6940  227.4385 H   0  0  0  0  0  0  0  0  0  0  0  0
  141.4203   70.2638  229.2245 H   0  0  0  0  0  0  0  0  0  0  0  0
  141.5190   67.8015  228.9223 H   0  0  0  0  0  0  0  0  0  0  0  0
  140.6437   66.7421  226.8471 H   0  0  0  0  0  0  0  0  0  0  0  0
  139.6622   68.1885  225.0841 H   0  0  0  0  0  0  0  0  0  0  0  0
  139.3401   69.1026  223.7668 H   0  0  0  0  0  0  0  0  0  0  0  0
  137.7643   69.5353  224.3361 H   0  0  0  0  0  0  0  0  0  0  0  0
  138.4856   70.5572  221.8438 H   0  0  0  0  0  0  0  0  0  0  0  0
  136.5373   71.2290  222.8274 H   0  0  0  0  0  0  0  0  0  0  0  0
  137.4709   72.1038  224.1563 H   0  0  0  0  0  0  0  0  0  0  0  0
  137.9120   73.7300  222.7870 H   0  0  0  0  0  0  0  0  0  0  0  0
  137.9574   77.4254  222.8836 H   0  0  0  0  0  0  0  0  0  0  0  0
  138.4498   79.6684  223.8131 H   0  0  0  0  0  0  0  0  0  0  0  0
  140.1138   81.3480  224.2766 H   0  0  0  0  0  0  0  0  0  0  0  0
  144.2380   80.6940  223.2510 H   0  0  0  0  0  0  0  0  0  0  0  0
  143.6192   78.4649  222.3565 H   0  0  0  0  0  0  0  0  0  0  0  0
  1  2  2  0
  2  3  1  0
  3  4  1  0
  4  5  1  0
  5  6  2  0
  5  7  1  0
  7  8  1  0
  8  9  1  0
  9 10  1  0
 10 11  2  0
 11 12  1  0
 12 13  2  0
 13 14  1  0
 14 15  2  0
  9 16  1  0
 16 17  1  0
 17 18  1  0
 18 19  1  0
  2 20  1  0
 20 21  2  0
 21 22  1  0
 22 23  2  0
 23 24  1  0
 24 25  2  0
 25 26  1  0
 25 27  1  0
 27 28  2  0
 28 29  1  0
 29 30  2  0
 17  7  1  0
 30 20  1  0
 15 10  1  0
 29 23  1  0
  3 31  1  0
  4 32  1  0
  4 33  1  0
  8 34  1  0
  8 35  1  0
  9 36  1  1
 11 37  1  0
 12 38  1  0
 13 39  1  0
 14 40  1  0
 15 41  1  0
 16 42  1  0
 16 43  1  0
 17 44  1  6
 18 45  1  0
 18 46  1  0
 19 47  1  0
 21 48  1  0
 22 49  1  0
 24 50  1  0
 27 51  1  0
 28 52  1  0
M  END
>  <smiles>  (25) 
O=C(NCC(=O)N1C[C@H](c2ccccc2)C[C@H]1CO)c1ccc2cc(F)ccc2n1

>  <score_type>  (25) 
oracle

>  <origin>  (25) 
autodockgpu

>  <m_score__min__energy>  (25) 
-9.0299999999999994

>  <m_primary>  (25) 
energy

>  <rmsd>  (25) 
8.60904951475672

>  <m_score__min__rmsd>  (25) 
8.60904951475672

>  <meeko>  (25) 
{"free_energy": -8.68, "intermolecular_energy": -10.77, "internal_energy": -2.24, "cluster_size": 10, "cluster_id": 2, "rank_in_cluster": 3}

>  <energy>  (25) 
-8.12

>  <cluster_rmsd>  (25) 
1.57

>  <cluster>  (25) 
1

$$$$

     RDKit          3D

 52 55  0  0  0  0  0  0  0  0999 V2000
  138.2040   75.2740  222.0520 O   0  0  0  0  0  0  0  0  0  0  0  0
  139.4150   75.6410  222.0570 C   0  0  0  0  0  0  0  0  0  0  0  0
  140.3640   74.6900  221.5930 N   0  0  0  0  0  0  0  0  0  0  0  0
  139.8530   73.3800  221.1520 C   0  0  0  0  0  0  0  0  0  0  0  0
  140.4340   72.3390  221.9880 C   0  0  0  0  0  0  0  0  0  0  0  0
  141.6730   72.0750  221.8240 O   0  0  0  0  0  0  0  0  0  0  0  0
  139.7550   71.5750  222.9770 N   0  0  0  0  0  0  0  0  0  0  0  0
  140.2490   71.4710  224.3330 C   0  0  0  0  0  0  0  0  0  0  0  0
  139.2530   70.6140  225.0370 C   0  0  2  0  0  0  0  0  0  0  0  0
  139.8880   69.7790  226.1080 C   0  0  0  0  0  0  0  0  0  0  0  0
  140.3300   70.3250  227.2950 C   0  0  0  0  0  0  0  0  0  0  0  0
  140.9150   69.5150  228.2630 C   0  0  0  0  0  0  0  0  0  0  0  0
  141.0510   68.1530  228.0280 C   0  0  0  0  0  0  0  0  0  0  0  0
  140.6150   67.5850  226.8450 C   0  0  0  0  0  0  0  0  0  0  0  0
  140.0370   68.4120  225.8980 C   0  0  0  0  0  0  0  0  0  0  0  0
  138.6850   69.7540  223.9430 C   0  0  0  0  0  0  0  0  0  0  0  0
  138.5430   70.8040  222.8300 C   0  0  1  0  0  0  0  0  0  0  0  0
  137.2750   71.5450  223.0830 C   0  0  0  0  0  0  0  0  0  0  0  0
  137.2200   72.8290  222.5770 O   0  0  0  0  0  0  0  0  0  0  0  0
  139.8170   76.9580  222.5120 C   0  0  0  0  0  0  0  0  0  0  0  0
  138.8680   77.8300  222.9900 C   0  0  0  0  0  0  0  0  0  0  0  0
  139.1590   79.1000  223.4420 C   0  0  0  0  0  0  0  0  0  0  0  0
  140.4930   79.4850  223.3990 C   0  0  0  0  0  0  0  0  0  0  0  0
  140.8570   80.7310  223.8320 C   0  0  0  0  0  0  0  0  0  0  0  0
  142.1800   81.1300  223.7970 C   0  0  0  0  0  0  0  0  0  0  0  0
  142.4530   82.3770  224.2420 F   0  0  0  0  0  0  0  0  0  0  0  0
  143.1460   80.2700  223.3210 C   0  0  0  0  0  0  0  0  0  0  0  0
  142.7590   79.0170  222.8890 C   0  0  0  0  0  0  0  0  0  0  0  0
  141.4390   78.6190  222.9260 C   0  0  0  0  0  0  0  0  0  0  0  0
  141.1000   77.3900  222.4950 N   0  0  0  0  0  0  0  0  0  0  0  0
  141.3790   74.9180  221.5680 H   0  0  0  0  0  0  0  0  0  0  0  0
  138.7573   73.3605  221.2468 H   0  0  0  0  0  0  0  0  0  0  0  0
  140.1273   73.2087  220.1006 H   0  0  0  0  0  0  0  0  0  0  0  0
  141.2436   71.0013  224.3480 H   0  0  0  0  0  0  0  0  0  0  0  0
  140.3606   72.4556  224.8107 H   0  0  0  0  0  0  0  0  0  0  0  0
  138.4877   71.2082  225.5578 H   0  0  0  0  0  0  0  0  0  0  0  0
  140.2196   71.4042  227.4768 H   0  0  0  0  0  0  0  0  0  0  0  0
  141.2679   69.9509  229.2093 H   0  0  0  0  0  0  0  0  0  0  0  0
  141.5133   67.5153  228.7959 H   0  0  0  0  0  0  0  0  0  0  0  0
  140.7246   66.5059  226.6619 H   0  0  0  0  0  0  0  0  0  0  0  0
  139.6851   67.9757  224.9515 H   0  0  0  0  0  0  0  0  0  0  0  0
  139.3753   68.9465  223.6576 H   0  0  0  0  0  0  0  0  0  0  0  0
  137.7568   69.2240  224.2030 H   0  0  0  0  0  0  0  0  0  0  0  0
  138.4589   70.4423  221.7946 H   0  0  0  0  0  0  0  0  0  0  0  0
  136.4520   70.9694  222.6342 H   0  0  0  0  0  0  0  0  0  0  0  0
  137.2022   71.6501  224.1755 H   0  0  0  0  0  0  0  0  0  0  0  0
  137.7650   73.4800  223.0760 H   0  0  0  0  0  0  0  0  0  0  0  0
  137.8199   77.4969  223.0133 H   0  0  0  0  0  0  0  0  0  0  0  0
  138.3747   79.7738  223.8174 H   0  0  0  0  0  0  0  0  0  0  0  0
  140.0895   81.4216  224.2115 H   0  0  0  0  0  0  0  0  0  0  0  0
  144.2022   80.5752  223.2860 H   0  0  0  0  0  0  0  0  0  0  0  0
  143.5202   78.3209  222.5069 H   0  0  0  0  0  0  0  0  0  0  0  0
  1  2  2  0
  2  3  1  0
  3  4  1  0
  4  5  1  0
  5  6  2  0
  5  7  1  0
  7  8  1  0
  8  9  1  0
  9 10  1  0
 10 11  2  0
 11 12  1  0
 12 13  2  0
 13 14  1  0
 14 15  2  0
  9 16  1  0
 16 17  1  0
 17 18  1  0
 18 19  1  0
  2 20  1  0
 20 21  2  0
 21 22  1  0
 22 23  2  0
 23 24  1  0
 24 25  2  0
 25 26  1  0
 25 27  1  0
 27 28  2  0
 28 29  1  0
 29 30  2  0
 17  7  1  0
 30 20  1  0
 15 10  1  0
 29 23  1  0
  3 31  1  0
  4 32  1  0
  4 33  1  0
  8 34  1  0
  8 35  1  0
  9 36  1  1
 11 37  1  0
 12 38  1  0
 13 39  1  0
 14 40  1  0
 15 41  1  0
 16 42  1  0
 16 43  1  0
 17 44  1  6
 18 45  1  0
 18 46  1  0
 19 47  1  0
 21 48  1  0
 22 49  1  0
 24 50  1  0
 27 51  1  0
 28 52  1  0
M  END
>  <smiles>  (26) 
O=C(NCC(=O)N1C[C@H](c2ccccc2)C[C@H]1CO)c1ccc2cc(F)ccc2n1

>  <score_type>  (26) 
oracle

>  <origin>  (26) 
autodockgpu

>  <m_score__min__energy>  (26) 
-9.0299999999999994

>  <m_primary>  (26) 
energy

>  <rmsd>  (26) 
8.631850382544883

>  <m_score__min__rmsd>  (26) 
8.631850382544883

>  <meeko>  (26) 
{"free_energy": -8.67, "intermolecular_energy": -10.76, "internal_energy": -2.28, "cluster_size": 10, "cluster_id": 2, "rank_in_cluster": 4}

>  <energy>  (26) 
-8.09

>  <cluster_rmsd>  (26) 
1.7

>  <cluster>  (26) 
1

$$$$

     RDKit          3D

 52 55  0  0  0  0  0  0  0  0999 V2000
  137.4880   71.0540  221.3980 O   0  0  0  0  0  0  0  0  0  0  0  0
  138.0470   71.6340  222.3750 C   0  0  0  0  0  0  0  0  0  0  0  0
  138.1240   73.0520  222.3070 N   0  0  0  0  0  0  0  0  0  0  0  0
  137.5500   73.7060  221.1170 C   0  0  0  0  0  0  0  0  0  0  0  0
  137.8140   75.1370  221.1910 C   0  0  0  0  0  0  0  0  0  0  0  0
  136.8270   75.9280  221.0100 O   0  0  0  0  0  0  0  0  0  0  0  0
  139.0720   75.7500  221.4430 N   0  0  0  0  0  0  0  0  0  0  0  0
  139.2420   76.7440  222.4800 C   0  0  0  0  0  0  0  0  0  0  0  0
  140.6870   77.1080  222.4260 C   0  0  2  0  0  0  0  0  0  0  0  0
  140.9200   78.5410  222.8000 C   0  0  0  0  0  0  0  0  0  0  0  0
  139.8840   79.3850  223.1400 C   0  0  0  0  0  0  0  0  0  0  0  0
  140.1430   80.7090  223.4800 C   0  0  0  0  0  0  0  0  0  0  0  0
  141.4510   81.1750  223.4760 C   0  0  0  0  0  0  0  0  0  0  0  0
  142.5050   80.3460  223.1390 C   0  0  0  0  0  0  0  0  0  0  0  0
  142.2210   79.0340  222.8040 C   0  0  0  0  0  0  0  0  0  0  0  0
  141.0670   76.8510  220.9950 C   0  0  0  0  0  0  0  0  0  0  0  0
  140.3240   75.5280  220.7590 C   0  0  1  0  0  0  0  0  0  0  0  0
  141.1760   74.4390  221.3140 C   0  0  0  0  0  0  0  0  0  0  0  0
  140.6120   73.6960  222.3330 O   0  0  0  0  0  0  0  0  0  0  0  0
  138.5800   70.8960  223.5030 C   0  0  0  0  0  0  0  0  0  0  0  0
  138.3400   69.5460  223.6070 C   0  0  0  0  0  0  0  0  0  0  0  0
  138.8070   68.7660  224.6430 C   0  0  0  0  0  0  0  0  0  0  0  0
  139.5580   69.4110  225.6180 C   0  0  0  0  0  0  0  0  0  0  0  0
  140.0550   68.7010  226.6760 C   0  0  0  0  0  0  0  0  0  0  0  0
  140.8040   69.3270  227.6550 C   0  0  0  0  0  0  0  0  0  0  0  0
  141.2560   68.5530  228.6660 F   0  0  0  0  0  0  0  0  0  0  0  0
  141.0550   70.6800  227.5690 C   0  0  0  0  0  0  0  0  0  0  0  0
  140.5460   71.3790  226.4930 C   0  0  0  0  0  0  0  0  0  0  0  0
  139.7990   70.7530  225.5170 C   0  0  0  0  0  0  0  0  0  0  0  0
  139.3180   71.4680  224.4830 N   0  0  0  0  0  0  0  0  0  0  0  0
  138.5680   73.5980  223.0720 H   0  0  0  0  0  0  0  0  0  0  0  0
  138.0124   73.2918  220.2089 H   0  0  0  0  0  0  0  0  0  0  0  0
  136.4650   73.5287  221.0814 H   0  0  0  0  0  0  0  0  0  0  0  0
  138.6131   77.6240  222.2800 H   0  0  0  0  0  0  0  0  0  0  0  0
  138.9458   76.3662  223.4697 H   0  0  0  0  0  0  0  0  0  0  0  0
  141.2887   76.5279  223.1412 H   0  0  0  0  0  0  0  0  0  0  0  0
  138.8497   79.0104  223.1424 H   0  0  0  0  0  0  0  0  0  0  0  0
  139.3165   81.3826  223.7504 H   0  0  0  0  0  0  0  0  0  0  0  0
  141.6522   82.2223  223.7457 H   0  0  0  0  0  0  0  0  0  0  0  0
  143.5399   80.7189  223.1373 H   0  0  0  0  0  0  0  0  0  0  0  0
  143.0479   78.3611  222.5329 H   0  0  0  0  0  0  0  0  0  0  0  0
  140.7065   77.6471  220.3270 H   0  0  0  0  0  0  0  0  0  0  0  0
  142.1491   76.8172  220.8005 H   0  0  0  0  0  0  0  0  0  0  0  0
  140.1277   75.2319  219.7179 H   0  0  0  0  0  0  0  0  0  0  0  0
  141.4234   73.7515  220.4918 H   0  0  0  0  0  0  0  0  0  0  0  0
  142.0501   74.9390  221.7566 H   0  0  0  0  0  0  0  0  0  0  0  0
  139.8650   74.1460  222.7910 H   0  0  0  0  0  0  0  0  0  0  0  0
  137.7426   69.0621  222.8203 H   0  0  0  0  0  0  0  0  0  0  0  0
  138.5959   67.6877  224.6953 H   0  0  0  0  0  0  0  0  0  0  0  0
  139.8569   67.6214  226.7487 H   0  0  0  0  0  0  0  0  0  0  0  0
  141.6482   71.1915  228.3413 H   0  0  0  0  0  0  0  0  0  0  0  0
  140.7404   72.4587  226.4122 H   0  0  0  0  0  0  0  0  0  0  0  0
  1  2  2  0
  2  3  1  0
  3  4  1  0
  4  5  1  0
  5  6  2  0
  5  7  1  0
  7  8  1  0
  8  9  1  0
  9 10  1  0
 10 11  2  0
 11 12  1  0
 12 13  2  0
 13 14  1  0
 14 15  2  0
  9 16  1  0
 16 17  1  0
 17 18  1  0
 18 19  1  0
  2 20  1  0
 20 21  2  0
 21 22  1  0
 22 23  2  0
 23 24  1  0
 24 25  2  0
 25 26  1  0
 25 27  1  0
 27 28  2  0
 28 29  1  0
 29 30  2  0
 17  7  1  0
 30 20  1  0
 15 10  1  0
 29 23  1  0
  3 31  1  0
  4 32  1  0
  4 33  1  0
  8 34  1  0
  8 35  1  0
  9 36  1  1
 11 37  1  0
 12 38  1  0
 13 39  1  0
 14 40  1  0
 15 41  1  0
 16 42  1  0
 16 43  1  0
 17 44  1  6
 18 45  1  0
 18 46  1  0
 19 47  1  0
 21 48  1  0
 22 49  1  0
 24 50  1  0
 27 51  1  0
 28 52  1  0
M  END
>  <smiles>  (27) 
O=C(NCC(=O)N1C[C@H](c2ccccc2)C[C@H]1CO)c1ccc2cc(F)ccc2n1

>  <score_type>  (27) 
oracle

>  <origin>  (27) 
autodockgpu

>  <m_score__min__energy>  (27) 
-9.0299999999999994

>  <m_primary>  (27) 
energy

>  <rmsd>  (27) 
2.601887505873569

>  <m_score__min__rmsd>  (27) 
2.601887505873569

>  <meeko>  (27) 
{"free_energy": -8.7, "intermolecular_energy": -10.79, "internal_energy": -2.2, "cluster_size": 40, "cluster_id": 1, "rank_in_cluster": 4}

>  <energy>  (27) 
-8.05

>  <cluster_rmsd>  (27) 
1.76

>  <cluster>  (27) 
1

$$$$

     RDKit          3D

 52 55  0  0  0  0  0  0  0  0999 V2000
  135.8170   71.4920  222.0250 O   0  0  0  0  0  0  0  0  0  0  0  0
  136.8230   71.9480  222.6430 C   0  0  0  0  0  0  0  0  0  0  0  0
  137.1860   73.2910  222.3520 N   0  0  0  0  0  0  0  0  0  0  0  0
  136.3650   74.0190  221.3690 C   0  0  0  0  0  0  0  0  0  0  0  0
  137.1520   75.1060  220.8060 C   0  0  0  0  0  0  0  0  0  0  0  0
  136.6520   75.7480  219.8200 O   0  0  0  0  0  0  0  0  0  0  0  0
  138.4370   75.5320  221.2440 N   0  0  0  0  0  0  0  0  0  0  0  0
  138.6000   76.5000  222.3060 C   0  0  0  0  0  0  0  0  0  0  0  0
  140.0740   76.6470  222.4650 C   0  0  2  0  0  0  0  0  0  0  0  0
  140.4580   78.0340  222.8860 C   0  0  0  0  0  0  0  0  0  0  0  0
  139.5180   79.0260  223.0750 C   0  0  0  0  0  0  0  0  0  0  0  0
  139.9160   80.3010  223.4660 C   0  0  0  0  0  0  0  0  0  0  0  0
  141.2640   80.5690  223.6660 C   0  0  0  0  0  0  0  0  0  0  0  0
  142.2220   79.5890  223.4820 C   0  0  0  0  0  0  0  0  0  0  0  0
  141.8010   78.3290  223.0930 C   0  0  0  0  0  0  0  0  0  0  0  0
  140.6150   76.3260  221.1000 C   0  0  0  0  0  0  0  0  0  0  0  0
  139.7280   75.1230  220.7430 C   0  0  1  0  0  0  0  0  0  0  0  0
  140.3240   73.9260  221.4010 C   0  0  0  0  0  0  0  0  0  0  0  0
  139.9540   73.7180  222.7160 O   0  0  0  0  0  0  0  0  0  0  0  0
  137.5670   71.1470  223.5960 C   0  0  0  0  0  0  0  0  0  0  0  0
  137.0320   69.9670  224.0560 C   0  0  0  0  0  0  0  0  0  0  0  0
  137.6680   69.1430  224.9610 C   0  0  0  0  0  0  0  0  0  0  0  0
  138.9140   69.5590  225.4120 C   0  0  0  0  0  0  0  0  0  0  0  0
  139.6040   68.7930  226.3110 C   0  0  0  0  0  0  0  0  0  0  0  0
  140.8450   69.1920  226.7700 C   0  0  0  0  0  0  0  0  0  0  0  0
  141.4590   68.3770  227.6570 F   0  0  0  0  0  0  0  0  0  0  0  0
  141.3980   70.3720  226.3220 C   0  0  0  0  0  0  0  0  0  0  0  0
  140.6860   71.1310  225.4140 C   0  0  0  0  0  0  0  0  0  0  0  0
  139.4480   70.7320  224.9560 C   0  0  0  0  0  0  0  0  0  0  0  0
  138.7850   71.5000  224.0720 N   0  0  0  0  0  0  0  0  0  0  0  0
  138.0020   73.7350  222.8200 H   0  0  0  0  0  0  0  0  0  0  0  0
  136.0563   73.3331  220.5663 H   0  0  0  0  0  0  0  0  0  0  0  0
  135.4692   74.4253  221.8614 H   0  0  0  0  0  0  0  0  0  0  0  0
  138.1427   77.4610  222.0278 H   0  0  0  0  0  0  0  0  0  0  0  0
  138.1121   76.1793  223.2382 H   0  0  0  0  0  0  0  0  0  0  0  0
  140.4741   75.9904  223.2517 H   0  0  0  0  0  0  0  0  0  0  0  0
  138.4514   78.8087  222.9163 H   0  0  0  0  0  0  0  0  0  0  0  0
  139.1668   81.0924  223.6159 H   0  0  0  0  0  0  0  0  0  0  0  0
  141.5747   81.5777  223.9759 H   0  0  0  0  0  0  0  0  0  0  0  0
  143.2890   79.8047  223.6403 H   0  0  0  0  0  0  0  0  0  0  0  0
  142.5507   77.5381  222.9433 H   0  0  0  0  0  0  0  0  0  0  0  0
  140.4743   77.1607  220.3976 H   0  0  0  0  0  0  0  0  0  0  0  0
  141.6973   76.1334  221.0621 H   0  0  0  0  0  0  0  0  0  0  0  0
  139.6416   74.8495  219.6810 H   0  0  0  0  0  0  0  0  0  0  0  0
  140.0268   73.0391  220.8221 H   0  0  0  0  0  0  0  0  0  0  0  0
  141.4094   74.1037  221.4197 H   0  0  0  0  0  0  0  0  0  0  0  0
  139.2400   74.3190  223.0320 H   0  0  0  0  0  0  0  0  0  0  0  0
  136.0430   69.6636  223.6820 H   0  0  0  0  0  0  0  0  0  0  0  0
  137.2116   68.2042  225.3079 H   0  0  0  0  0  0  0  0  0  0  0  0
  139.1669   67.8504  226.6721 H   0  0  0  0  0  0  0  0  0  0  0  0
  142.3845   70.7021  226.6796 H   0  0  0  0  0  0  0  0  0  0  0  0
  141.1161   72.0749  225.0480 H   0  0  0  0  0  0  0  0  0  0  0  0
  1  2  2  0
  2  3  1  0
  3  4  1  0
  4  5  1  0
  5  6  2  0
  5  7  1  0
  7  8  1  0
  8  9  1  0
  9 10  1  0
 10 11  2  0
 11 12  1  0
 12 13  2  0
 13 14  1  0
 14 15  2  0
  9 16  1  0
 16 17  1  0
 17 18  1  0
 18 19  1  0
  2 20  1  0
 20 21  2  0
 21 22  1  0
 22 23  2  0
 23 24  1  0
 24 25  2  0
 25 26  1  0
 25 27  1  0
 27 28  2  0
 28 29  1  0
 29 30  2  0
 17  7  1  0
 30 20  1  0
 15 10  1  0
 29 23  1  0
  3 31  1  0
  4 32  1  0
  4 33  1  0
  8 34  1  0
  8 35  1  0
  9 36  1  1
 11 37  1  0
 12 38  1  0
 13 39  1  0
 14 40  1  0
 15 41  1  0
 16 42  1  0
 16 43  1  0
 17 44  1  6
 18 45  1  0
 18 46  1  0
 19 47  1  0
 21 48  1  0
 22 49  1  0
 24 50  1  0
 27 51  1  0
 28 52  1  0
M  END
>  <smiles>  (28) 
O=C(NCC(=O)N1C[C@H](c2ccccc2)C[C@H]1CO)c1ccc2cc(F)ccc2n1

>  <score_type>  (28) 
oracle

>  <origin>  (28) 
autodockgpu

>  <m_score__min__energy>  (28) 
-9.0299999999999994

>  <m_primary>  (28) 
energy

>  <rmsd>  (28) 
2.9611946508268914

>  <m_score__min__rmsd>  (28) 
2.9611946508268914

>  <meeko>  (28) 
{"free_energy": -7.92, "intermolecular_energy": -10.01, "internal_energy": -2.4, "cluster_size": 40, "cluster_id": 1, "rank_in_cluster": 31}

>  <energy>  (28) 
-8.01

>  <cluster_rmsd>  (28) 
1.55

>  <cluster>  (28) 
1

$$$$

     RDKit          3D

 52 55  0  0  0  0  0  0  0  0999 V2000
  137.8220   70.6200  221.4880 O   0  0  0  0  0  0  0  0  0  0  0  0
  138.1720   71.3450  222.4660 C   0  0  0  0  0  0  0  0  0  0  0  0
  137.9570   72.7430  222.3220 N   0  0  0  0  0  0  0  0  0  0  0  0
  137.3530   73.2120  221.0620 C   0  0  0  0  0  0  0  0  0  0  0  0
  137.7500   74.5940  220.8320 C   0  0  0  0  0  0  0  0  0  0  0  0
  136.9550   75.3310  220.1550 O   0  0  0  0  0  0  0  0  0  0  0  0
  138.9470   75.2140  221.2860 N   0  0  0  0  0  0  0  0  0  0  0  0
  138.9340   76.2550  222.2890 C   0  0  0  0  0  0  0  0  0  0  0  0
  140.3680   76.6110  222.4880 C   0  0  2  0  0  0  0  0  0  0  0  0
  140.5450   78.0590  222.8330 C   0  0  0  0  0  0  0  0  0  0  0  0
  139.4760   78.9270  222.9130 C   0  0  0  0  0  0  0  0  0  0  0  0
  139.6840   80.2650  223.2360 C   0  0  0  0  0  0  0  0  0  0  0  0
  140.9730   80.7200  223.4780 C   0  0  0  0  0  0  0  0  0  0  0  0
  142.0590   79.8670  223.4030 C   0  0  0  0  0  0  0  0  0  0  0  0
  141.8260   78.5420  223.0800 C   0  0  0  0  0  0  0  0  0  0  0  0
  141.0040   76.2860  221.1660 C   0  0  0  0  0  0  0  0  0  0  0  0
  140.3010   74.9550  220.8560 C   0  0  1  0  0  0  0  0  0  0  0  0
  141.0220   73.8910  221.6100 C   0  0  0  0  0  0  0  0  0  0  0  0
  140.3620   73.3830  222.7110 O   0  0  0  0  0  0  0  0  0  0  0  0
  138.7590   70.7840  223.6660 C   0  0  0  0  0  0  0  0  0  0  0  0
  138.6500   69.4350  223.9100 C   0  0  0  0  0  0  0  0  0  0  0  0
  139.1770   68.8170  225.0240 C   0  0  0  0  0  0  0  0  0  0  0  0
  139.8470   69.6300  225.9280 C   0  0  0  0  0  0  0  0  0  0  0  0
  140.3960   69.0860  227.0570 C   0  0  0  0  0  0  0  0  0  0  0  0
  141.0670   69.8810  227.9680 C   0  0  0  0  0  0  0  0  0  0  0  0
  141.5790   69.2640  229.0560 F   0  0  0  0  0  0  0  0  0  0  0  0
  141.1860   71.2350  227.7420 C   0  0  0  0  0  0  0  0  0  0  0  0
  140.6250   71.7650  226.5970 C   0  0  0  0  0  0  0  0  0  0  0  0
  139.9570   70.9710  225.6890 C   0  0  0  0  0  0  0  0  0  0  0  0
  139.4240   71.5250  224.5840 N   0  0  0  0  0  0  0  0  0  0  0  0
  138.2190   73.4030  223.0830 H   0  0  0  0  0  0  0  0  0  0  0  0
  137.7028   72.5843  220.2292 H   0  0  0  0  0  0  0  0  0  0  0  0
  136.2570   73.1461  221.1279 H   0  0  0  0  0  0  0  0  0  0  0  0
  138.3640   77.1267  221.9352 H   0  0  0  0  0  0  0  0  0  0  0  0
  138.4548   75.9256  223.2227 H   0  0  0  0  0  0  0  0  0  0  0  0
  140.8192   76.0629  223.3282 H   0  0  0  0  0  0  0  0  0  0  0  0
  138.4566   78.5610  222.7211 H   0  0  0  0  0  0  0  0  0  0  0  0
  138.8319   80.9578  223.2991 H   0  0  0  0  0  0  0  0  0  0  0  0
  141.1335   81.7777  223.7339 H   0  0  0  0  0  0  0  0  0  0  0  0
  143.0790   80.2316  223.5947 H   0  0  0  0  0  0  0  0  0  0  0  0
  142.6788   77.8501  223.0166 H   0  0  0  0  0  0  0  0  0  0  0  0
  140.7836   77.0512  220.4072 H   0  0  0  0  0  0  0  0  0  0  0  0
  142.1029   76.2394  221.1780 H   0  0  0  0  0  0  0  0  0  0  0  0
  140.2972   74.6107  219.8113 H   0  0  0  0  0  0  0  0  0  0  0  0
  141.2144   73.0581  220.9178 H   0  0  0  0  0  0  0  0  0  0  0  0
  141.9333   74.3670  222.0011 H   0  0  0  0  0  0  0  0  0  0  0  0
  139.6500   73.9690  223.0570 H   0  0  0  0  0  0  0  0  0  0  0  0
  138.1132   68.8154  223.1765 H   0  0  0  0  0  0  0  0  0  0  0  0
  139.0719   67.7344  225.1882 H   0  0  0  0  0  0  0  0  0  0  0  0
  140.3027   68.0057  227.2418 H   0  0  0  0  0  0  0  0  0  0  0  0
  141.7164   71.8798  228.4582 H   0  0  0  0  0  0  0  0  0  0  0  0
  140.7130   72.8445  226.4050 H   0  0  0  0  0  0  0  0  0  0  0  0
  1  2  2  0
  2  3  1  0
  3  4  1  0
  4  5  1  0
  5  6  2  0
  5  7  1  0
  7  8  1  0
  8  9  1  0
  9 10  1  0
 10 11  2  0
 11 12  1  0
 12 13  2  0
 13 14  1  0
 14 15  2  0
  9 16  1  0
 16 17  1  0
 17 18  1  0
 18 19  1  0
  2 20  1  0
 20 21  2  0
 21 22  1  0
 22 23  2  0
 23 24  1  0
 24 25  2  0
 25 26  1  0
 25 27  1  0
 27 28  2  0
 28 29  1  0
 29 30  2  0
 17  7  1  0
 30 20  1  0
 15 10  1  0
 29 23  1  0
  3 31  1  0
  4 32  1  0
  4 33  1  0
  8 34  1  0
  8 35  1  0
  9 36  1  1
 11 37  1  0
 12 38  1  0
 13 39  1  0
 14 40  1  0
 15 41  1  0
 16 42  1  0
 16 43  1  0
 17 44  1  6
 18 45  1  0
 18 46  1  0
 19 47  1  0
 21 48  1  0
 22 49  1  0
 24 50  1  0
 27 51  1  0
 28 52  1  0
M  END
>  <smiles>  (29) 
O=C(NCC(=O)N1C[C@H](c2ccccc2)C[C@H]1CO)c1ccc2cc(F)ccc2n1

>  <score_type>  (29) 
oracle

>  <origin>  (29) 
autodockgpu

>  <m_score__min__energy>  (29) 
-9.0299999999999994

>  <m_primary>  (29) 
energy

>  <rmsd>  (29) 
2.635140778682628

>  <m_score__min__rmsd>  (29) 
2.635140778682628

>  <meeko>  (29) 
{"free_energy": -8.57, "intermolecular_energy": -10.66, "internal_energy": -2.34, "cluster_size": 40, "cluster_id": 1, "rank_in_cluster": 8}

>  <energy>  (29) 
-7.98

>  <cluster_rmsd>  (29) 
1.57

>  <cluster>  (29) 
1

$$$$

     RDKit          3D

 52 55  0  0  0  0  0  0  0  0999 V2000
  138.6900   74.8380  222.2040 O   0  0  0  0  0  0  0  0  0  0  0  0
  139.7150   75.4800  221.8300 C   0  0  0  0  0  0  0  0  0  0  0  0
  140.5670   74.8200  220.9020 N   0  0  0  0  0  0  0  0  0  0  0  0
  140.1790   73.4670  220.4670 C   0  0  0  0  0  0  0  0  0  0  0  0
  140.7580   72.4920  221.3820 C   0  0  0  0  0  0  0  0  0  0  0  0
  142.0010   72.2270  221.2500 O   0  0  0  0  0  0  0  0  0  0  0  0
  140.0730   71.7960  222.4160 N   0  0  0  0  0  0  0  0  0  0  0  0
  140.3090   72.0810  223.8140 C   0  0  0  0  0  0  0  0  0  0  0  0
  139.3930   71.1630  224.5500 C   0  0  2  0  0  0  0  0  0  0  0  0
  139.9690   70.7330  225.8660 C   0  0  0  0  0  0  0  0  0  0  0  0
  139.8300   69.4440  226.3380 C   0  0  0  0  0  0  0  0  0  0  0  0
  140.3780   69.0860  227.5660 C   0  0  0  0  0  0  0  0  0  0  0  0
  141.0670   70.0340  228.3120 C   0  0  0  0  0  0  0  0  0  0  0  0
  141.2170   71.3310  227.8580 C   0  0  0  0  0  0  0  0  0  0  0  0
  140.6630   71.6620  226.6340 C   0  0  0  0  0  0  0  0  0  0  0  0
  139.2350   69.9950  223.6190 C   0  0  0  0  0  0  0  0  0  0  0  0
  139.0970   70.7400  222.2820 C   0  0  1  0  0  0  0  0  0  0  0  0
  137.6800   71.1860  222.1710 C   0  0  0  0  0  0  0  0  0  0  0  0
  137.4310   72.4920  222.5430 O   0  0  0  0  0  0  0  0  0  0  0  0
  140.0080   76.8130  222.3180 C   0  0  0  0  0  0  0  0  0  0  0  0
  138.9870   77.6020  222.7950 C   0  0  0  0  0  0  0  0  0  0  0  0
  139.1730   78.8800  223.2780 C   0  0  0  0  0  0  0  0  0  0  0  0
  140.4740   79.3650  223.2680 C   0  0  0  0  0  0  0  0  0  0  0  0
  140.7350   80.6250  223.7320 C   0  0  0  0  0  0  0  0  0  0  0  0
  142.0240   81.1240  223.7310 C   0  0  0  0  0  0  0  0  0  0  0  0
  142.1940   82.3780  224.2060 F   0  0  0  0  0  0  0  0  0  0  0  0
  143.0610   80.3490  223.2570 C   0  0  0  0  0  0  0  0  0  0  0  0
  142.7770   79.0800  222.7930 C   0  0  0  0  0  0  0  0  0  0  0  0
  141.4910   78.5830  222.7960 C   0  0  0  0  0  0  0  0  0  0  0  0
  141.2550   77.3410  222.3350 N   0  0  0  0  0  0  0  0  0  0  0  0
  141.4290   75.2840  220.5490 H   0  0  0  0  0  0  0  0  0  0  0  0
  139.0828   73.3764  220.4764 H   0  0  0  0  0  0  0  0  0  0  0  0
  140.5468   73.2842  219.4465 H   0  0  0  0  0  0  0  0  0  0  0  0
  141.3569   71.8775  224.0794 H   0  0  0  0  0  0  0  0  0  0  0  0
  140.1236   73.1371  224.0594 H   0  0  0  0  0  0  0  0  0  0  0  0
  138.4363   71.6436  224.8026 H   0  0  0  0  0  0  0  0  0  0  0  0
  139.2846   68.6974  225.7421 H   0  0  0  0  0  0  0  0  0  0  0  0
  140.2663   68.0589  227.9436 H   0  0  0  0  0  0  0  0  0  0  0  0
  141.5010   69.7474  229.2813 H   0  0  0  0  0  0  0  0  0  0  0  0
  141.7615   72.0790  228.4531 H   0  0  0  0  0  0  0  0  0  0  0  0
  140.7747   72.6895  226.2575 H   0  0  0  0  0  0  0  0  0  0  0  0
  140.1182   69.3394  223.6323 H   0  0  0  0  0  0  0  0  0  0  0  0
  138.4030   69.3174  223.8611 H   0  0  0  0  0  0  0  0  0  0  0  0
  139.2898   70.1730  221.3593 H   0  0  0  0  0  0  0  0  0  0  0  0
  137.3703   71.0688  221.1220 H   0  0  0  0  0  0  0  0  0  0  0  0
  137.1135   70.5608  222.8768 H   0  0  0  0  0  0  0  0  0  0  0  0
  138.1650   72.9130  223.0460 H   0  0  0  0  0  0  0  0  0  0  0  0
  137.9667   77.1910  222.7909 H   0  0  0  0  0  0  0  0  0  0  0  0
  138.3336   79.4845  223.6521 H   0  0  0  0  0  0  0  0  0  0  0  0
  139.9106   81.2476  224.1098 H   0  0  0  0  0  0  0  0  0  0  0  0
  144.0917   80.7331  223.2487 H   0  0  0  0  0  0  0  0  0  0  0  0
  143.5954   78.4512  222.4123 H   0  0  0  0  0  0  0  0  0  0  0  0
  1  2  2  0
  2  3  1  0
  3  4  1  0
  4  5  1  0
  5  6  2  0
  5  7  1  0
  7  8  1  0
  8  9  1  0
  9 10  1  0
 10 11  2  0
 11 12  1  0
 12 13  2  0
 13 14  1  0
 14 15  2  0
  9 16  1  0
 16 17  1  0
 17 18  1  0
 18 19  1  0
  2 20  1  0
 20 21  2  0
 21 22  1  0
 22 23  2  0
 23 24  1  0
 24 25  2  0
 25 26  1  0
 25 27  1  0
 27 28  2  0
 28 29  1  0
 29 30  2  0
 17  7  1  0
 30 20  1  0
 15 10  1  0
 29 23  1  0
  3 31  1  0
  4 32  1  0
  4 33  1  0
  8 34  1  0
  8 35  1  0
  9 36  1  1
 11 37  1  0
 12 38  1  0
 13 39  1  0
 14 40  1  0
 15 41  1  0
 16 42  1  0
 16 43  1  0
 17 44  1  6
 18 45  1  0
 18 46  1  0
 19 47  1  0
 21 48  1  0
 22 49  1  0
 24 50  1  0
 27 51  1  0
 28 52  1  0
M  END
>  <smiles>  (30) 
O=C(NCC(=O)N1C[C@H](c2ccccc2)C[C@H]1CO)c1ccc2cc(F)ccc2n1

>  <score_type>  (30) 
oracle

>  <origin>  (30) 
autodockgpu

>  <m_score__min__energy>  (30) 
-9.0299999999999994

>  <m_primary>  (30) 
energy

>  <rmsd>  (30) 
8.438076616552905

>  <m_score__min__rmsd>  (30) 
8.438076616552905

>  <meeko>  (30) 
{"free_energy": -8.13, "intermolecular_energy": -10.22, "internal_energy": -2.34, "cluster_size": 10, "cluster_id": 2, "rank_in_cluster": 8}

>  <energy>  (30) 
-7.93

>  <cluster_rmsd>  (30) 
1.57

>  <cluster>  (30) 
1

$$$$

     RDKit          3D

 52 55  0  0  0  0  0  0  0  0999 V2000
  137.3450   70.5480  221.6690 O   0  0  0  0  0  0  0  0  0  0  0  0
  137.9070   71.2380  222.5690 C   0  0  0  0  0  0  0  0  0  0  0  0
  137.8630   72.6490  222.4010 N   0  0  0  0  0  0  0  0  0  0  0  0
  137.1740   73.1700  221.2070 C   0  0  0  0  0  0  0  0  0  0  0  0
  137.5430   74.5660  221.0190 C   0  0  0  0  0  0  0  0  0  0  0  0
  136.6750   75.3390  220.4880 O   0  0  0  0  0  0  0  0  0  0  0  0
  138.7860   75.1640  221.3660 N   0  0  0  0  0  0  0  0  0  0  0  0
  138.8810   76.1970  222.3740 C   0  0  0  0  0  0  0  0  0  0  0  0
  140.3330   76.5280  222.4450 C   0  0  2  0  0  0  0  0  0  0  0  0
  140.5640   77.9700  222.7830 C   0  0  0  0  0  0  0  0  0  0  0  0
  141.8280   78.5240  222.8020 C   0  0  0  0  0  0  0  0  0  0  0  0
  141.9990   79.8670  223.1220 C   0  0  0  0  0  0  0  0  0  0  0  0
  140.8900   80.6470  223.4220 C   0  0  0  0  0  0  0  0  0  0  0  0
  139.6140   80.1130  223.4090 C   0  0  0  0  0  0  0  0  0  0  0  0
  139.4710   78.7750  223.0880 C   0  0  0  0  0  0  0  0  0  0  0  0
  140.8410   76.2060  221.0680 C   0  0  0  0  0  0  0  0  0  0  0  0
  140.0920   74.8890  220.8140 C   0  0  1  0  0  0  0  0  0  0  0  0
  140.8610   73.8070  221.4900 C   0  0  0  0  0  0  0  0  0  0  0  0
  140.3510   73.3730  222.6980 O   0  0  0  0  0  0  0  0  0  0  0  0
  138.5590   70.6270  223.7110 C   0  0  0  0  0  0  0  0  0  0  0  0
  138.5160   69.2620  223.8670 C   0  0  0  0  0  0  0  0  0  0  0  0
  139.1080   68.5960  224.9200 C   0  0  0  0  0  0  0  0  0  0  0  0
  139.7750   69.3780  225.8540 C   0  0  0  0  0  0  0  0  0  0  0  0
  140.3870   68.7870  226.9250 C   0  0  0  0  0  0  0  0  0  0  0  0
  141.0560   69.5500  227.8640 C   0  0  0  0  0  0  0  0  0  0  0  0
  141.6310   68.8870  228.8920 F   0  0  0  0  0  0  0  0  0  0  0  0
  141.1100   70.9200  227.7250 C   0  0  0  0  0  0  0  0  0  0  0  0
  140.4870   71.4980  226.6360 C   0  0  0  0  0  0  0  0  0  0  0  0
  139.8210   70.7360  225.7000 C   0  0  0  0  0  0  0  0  0  0  0  0
  139.2250   71.3360  224.6530 N   0  0  0  0  0  0  0  0  0  0  0  0
  138.3030   73.2830  223.1000 H   0  0  0  0  0  0  0  0  0  0  0  0
  137.4743   72.5869  220.3239 H   0  0  0  0  0  0  0  0  0  0  0  0
  136.0852   73.0878  221.3403 H   0  0  0  0  0  0  0  0  0  0  0  0
  138.2961   77.0808  222.0793 H   0  0  0  0  0  0  0  0  0  0  0  0
  138.4824   75.8675  223.3449 H   0  0  0  0  0  0  0  0  0  0  0  0
  140.8491   75.9647  223.2364 H   0  0  0  0  0  0  0  0  0  0  0  0
  142.7030   77.9016  222.5633 H   0  0  0  0  0  0  0  0  0  0  0  0
  143.0065   80.3083  223.1373 H   0  0  0  0  0  0  0  0  0  0  0  0
  141.0287   81.7086  223.6745 H   0  0  0  0  0  0  0  0  0  0  0  0
  138.7381   80.7345  223.6471 H   0  0  0  0  0  0  0  0  0  0  0  0
  138.4632   78.3345  223.0735 H   0  0  0  0  0  0  0  0  0  0  0  0
  140.5643   76.9812  220.3383 H   0  0  0  0  0  0  0  0  0  0  0  0
  141.9356   76.1433  220.9789 H   0  0  0  0  0  0  0  0  0  0  0  0
  139.9883   74.5544  219.7713 H   0  0  0  0  0  0  0  0  0  0  0  0
  140.8985   72.9436  220.8095 H   0  0  0  0  0  0  0  0  0  0  0  0
  141.8465   74.2386  221.7190 H   0  0  0  0  0  0  0  0  0  0  0  0
  139.6360   73.9460  223.0610 H   0  0  0  0  0  0  0  0  0  0  0  0
  137.9805   68.6686  223.1112 H   0  0  0  0  0  0  0  0  0  0  0  0
  139.0545   67.5014  225.0151 H   0  0  0  0  0  0  0  0  0  0  0  0
  140.3465   67.6938  227.0404 H   0  0  0  0  0  0  0  0  0  0  0  0
  141.6376   71.5397  228.4650 H   0  0  0  0  0  0  0  0  0  0  0  0
  140.5231   72.5905  226.5130 H   0  0  0  0  0  0  0  0  0  0  0  0
  1  2  2  0
  2  3  1  0
  3  4  1  0
  4  5  1  0
  5  6  2  0
  5  7  1  0
  7  8  1  0
  8  9  1  0
  9 10  1  0
 10 11  2  0
 11 12  1  0
 12 13  2  0
 13 14  1  0
 14 15  2  0
  9 16  1  0
 16 17  1  0
 17 18  1  0
 18 19  1  0
  2 20  1  0
 20 21  2  0
 21 22  1  0
 22 23  2  0
 23 24  1  0
 24 25  2  0
 25 26  1  0
 25 27  1  0
 27 28  2  0
 28 29  1  0
 29 30  2  0
 17  7  1  0
 30 20  1  0
 15 10  1  0
 29 23  1  0
  3 31  1  0
  4 32  1  0
  4 33  1  0
  8 34  1  0
  8 35  1  0
  9 36  1  1
 11 37  1  0
 12 38  1  0
 13 39  1  0
 14 40  1  0
 15 41  1  0
 16 42  1  0
 16 43  1  0
 17 44  1  6
 18 45  1  0
 18 46  1  0
 19 47  1  0
 21 48  1  0
 22 49  1  0
 24 50  1  0
 27 51  1  0
 28 52  1  0
M  END
>  <smiles>  (31) 
O=C(NCC(=O)N1C[C@H](c2ccccc2)C[C@H]1CO)c1ccc2cc(F)ccc2n1

>  <score_type>  (31) 
oracle

>  <origin>  (31) 
autodockgpu

>  <m_score__min__energy>  (31) 
-9.0299999999999994

>  <m_primary>  (31) 
energy

>  <rmsd>  (31) 
2.647461034111792

>  <m_score__min__rmsd>  (31) 
2.647461034111792

>  <meeko>  (31) 
{"free_energy": -8.49, "intermolecular_energy": -10.58, "internal_energy": -2.37, "cluster_size": 40, "cluster_id": 1, "rank_in_cluster": 14}

>  <energy>  (31) 
-7.92

>  <cluster_rmsd>  (31) 
2.0

>  <cluster>  (31) 
1

$$$$

     RDKit          3D

 52 55  0  0  0  0  0  0  0  0999 V2000
  139.5740   74.4110  222.5330 O   0  0  0  0  0  0  0  0  0  0  0  0
  140.2650   74.9110  221.5980 C   0  0  0  0  0  0  0  0  0  0  0  0
  140.5930   74.0410  220.5230 N   0  0  0  0  0  0  0  0  0  0  0  0
  140.1020   72.6530  220.5970 C   0  0  0  0  0  0  0  0  0  0  0  0
  140.6770   72.0100  221.7700 C   0  0  0  0  0  0  0  0  0  0  0  0
  141.9510   71.9880  221.8640 O   0  0  0  0  0  0  0  0  0  0  0  0
  139.9590   71.3940  222.8320 N   0  0  0  0  0  0  0  0  0  0  0  0
  140.4430   71.4150  224.1940 C   0  0  0  0  0  0  0  0  0  0  0  0
  139.4040   70.6900  224.9800 C   0  0  2  0  0  0  0  0  0  0  0  0
  139.9930   69.9480  226.1410 C   0  0  0  0  0  0  0  0  0  0  0  0
  140.4760   70.6010  227.2560 C   0  0  0  0  0  0  0  0  0  0  0  0
  141.0170   69.8740  228.3130 C   0  0  0  0  0  0  0  0  0  0  0  0
  141.0670   68.4880  228.2380 C   0  0  0  0  0  0  0  0  0  0  0  0
  140.5880   67.8140  227.1290 C   0  0  0  0  0  0  0  0  0  0  0  0
  140.0560   68.5590  226.0920 C   0  0  0  0  0  0  0  0  0  0  0  0
  138.7960   69.7450  223.9820 C   0  0  0  0  0  0  0  0  0  0  0  0
  138.7100   70.6720  222.7600 C   0  0  1  0  0  0  0  0  0  0  0  0
  137.4800   71.4970  222.9190 C   0  0  0  0  0  0  0  0  0  0  0  0
  137.5190   72.7490  222.3380 O   0  0  0  0  0  0  0  0  0  0  0  0
  140.7000   76.2940  221.6180 C   0  0  0  0  0  0  0  0  0  0  0  0
  141.3820   76.8070  220.5400 C   0  0  0  0  0  0  0  0  0  0  0  0
  141.8320   78.1090  220.4730 C   0  0  0  0  0  0  0  0  0  0  0  0
  141.5660   78.9170  221.5700 C   0  0  0  0  0  0  0  0  0  0  0  0
  141.9830   80.2200  221.5750 C   0  0  0  0  0  0  0  0  0  0  0  0
  141.7260   81.0380  222.6590 C   0  0  0  0  0  0  0  0  0  0  0  0
  142.1720   82.3110  222.5820 F   0  0  0  0  0  0  0  0  0  0  0  0
  141.0450   80.5420  223.7490 C   0  0  0  0  0  0  0  0  0  0  0  0
  140.6320   79.2240  223.7260 C   0  0  0  0  0  0  0  0  0  0  0  0
  140.8880   78.4090  222.6440 C   0  0  0  0  0  0  0  0  0  0  0  0
  140.4700   77.1300  222.6580 N   0  0  0  0  0  0  0  0  0  0  0  0
  141.1590   74.3790  219.7170 H   0  0  0  0  0  0  0  0  0  0  0  0
  139.0049   72.6534  220.6769 H   0  0  0  0  0  0  0  0  0  0  0  0
  140.3970   72.1050  219.6900 H   0  0  0  0  0  0  0  0  0  0  0  0
  141.4131   70.9017  224.2682 H   0  0  0  0  0  0  0  0  0  0  0  0
  140.6016   72.4394  224.5620 H   0  0  0  0  0  0  0  0  0  0  0  0
  138.6682   71.3746  225.4271 H   0  0  0  0  0  0  0  0  0  0  0  0
  140.4336   71.6988  227.3101 H   0  0  0  0  0  0  0  0  0  0  0  0
  141.4025   70.3942  229.2022 H   0  0  0  0  0  0  0  0  0  0  0  0
  141.4948   67.9165  229.0748 H   0  0  0  0  0  0  0  0  0  0  0  0
  140.6290   66.7162  227.0733 H   0  0  0  0  0  0  0  0  0  0  0  0
  139.6716   68.0381  225.2027 H   0  0  0  0  0  0  0  0  0  0  0  0
  139.4453   68.8776  223.7922 H   0  0  0  0  0  0  0  0  0  0  0  0
  137.8415   69.2939  224.2910 H   0  0  0  0  0  0  0  0  0  0  0  0
  138.6113   70.2036  221.7696 H   0  0  0  0  0  0  0  0  0  0  0  0
  136.6414   70.9430  222.4719 H   0  0  0  0  0  0  0  0  0  0  0  0
  137.3739   71.6715  223.9999 H   0  0  0  0  0  0  0  0  0  0  0  0
  138.1400   73.3750  222.7750 H   0  0  0  0  0  0  0  0  0  0  0  0
  141.5793   76.1434  219.6852 H   0  0  0  0  0  0  0  0  0  0  0  0
  142.3745   78.4881  219.5944 H   0  0  0  0  0  0  0  0  0  0  0  0
  142.5282   80.6206  220.7077 H   0  0  0  0  0  0  0  0  0  0  0  0
  140.8347   81.1817  224.6188 H   0  0  0  0  0  0  0  0  0  0  0  0
  140.0870   78.8159  224.5899 H   0  0  0  0  0  0  0  0  0  0  0  0
  1  2  2  0
  2  3  1  0
  3  4  1  0
  4  5  1  0
  5  6  2  0
  5  7  1  0
  7  8  1  0
  8  9  1  0
  9 10  1  0
 10 11  2  0
 11 12  1  0
 12 13  2  0
 13 14  1  0
 14 15  2  0
  9 16  1  0
 16 17  1  0
 17 18  1  0
 18 19  1  0
  2 20  1  0
 20 21  2  0
 21 22  1  0
 22 23  2  0
 23 24  1  0
 24 25  2  0
 25 26  1  0
 25 27  1  0
 27 28  2  0
 28 29  1  0
 29 30  2  0
 17  7  1  0
 30 20  1  0
 15 10  1  0
 29 23  1  0
  3 31  1  0
  4 32  1  0
  4 33  1  0
  8 34  1  0
  8 35  1  0
  9 36  1  1
 11 37  1  0
 12 38  1  0
 13 39  1  0
 14 40  1  0
 15 41  1  0
 16 42  1  0
 16 43  1  0
 17 44  1  6
 18 45  1  0
 18 46  1  0
 19 47  1  0
 21 48  1  0
 22 49  1  0
 24 50  1  0
 27 51  1  0
 28 52  1  0
M  END
>  <smiles>  (32) 
O=C(NCC(=O)N1C[C@H](c2ccccc2)C[C@H]1CO)c1ccc2cc(F)ccc2n1

>  <score_type>  (32) 
oracle

>  <origin>  (32) 
autodockgpu

>  <m_score__min__energy>  (32) 
-9.0299999999999994

>  <m_primary>  (32) 
energy

>  <rmsd>  (32) 
8.640000930847902

>  <m_score__min__rmsd>  (32) 
8.640000930847902

>  <meeko>  (32) 
{"free_energy": -8.68, "intermolecular_energy": -10.77, "internal_energy": -2.12, "cluster_size": 10, "cluster_id": 2, "rank_in_cluster": 2}

>  <energy>  (32) 
-7.88

>  <cluster_rmsd>  (32) 
1.75

>  <cluster>  (32) 
1

$$$$

     RDKit          3D

 52 55  0  0  0  0  0  0  0  0999 V2000
  137.5020   70.6510  221.5710 O   0  0  0  0  0  0  0  0  0  0  0  0
  138.0350   71.3620  222.4730 C   0  0  0  0  0  0  0  0  0  0  0  0
  138.0170   72.7680  222.2590 N   0  0  0  0  0  0  0  0  0  0  0  0
  137.3850   73.2590  221.0210 C   0  0  0  0  0  0  0  0  0  0  0  0
  137.9670   74.5470  220.6720 C   0  0  0  0  0  0  0  0  0  0  0  0
  137.2710   75.3280  219.9370 O   0  0  0  0  0  0  0  0  0  0  0  0
  139.2440   75.0310  221.0670 N   0  0  0  0  0  0  0  0  0  0  0  0
  139.3910   76.1320  221.9940 C   0  0  0  0  0  0  0  0  0  0  0  0
  140.8630   76.3040  222.1520 C   0  0  2  0  0  0  0  0  0  0  0  0
  141.2390   77.7350  222.3900 C   0  0  0  0  0  0  0  0  0  0  0  0
  141.4530   78.2330  223.6590 C   0  0  0  0  0  0  0  0  0  0  0  0
  141.7990   79.5690  223.8380 C   0  0  0  0  0  0  0  0  0  0  0  0
  141.9290   80.3980  222.7310 C   0  0  0  0  0  0  0  0  0  0  0  0
  141.7200   79.9200  221.4510 C   0  0  0  0  0  0  0  0  0  0  0  0
  141.3760   78.5880  221.3000 C   0  0  0  0  0  0  0  0  0  0  0  0
  141.4230   75.8050  220.8490 C   0  0  0  0  0  0  0  0  0  0  0  0
  140.5430   74.5630  220.6430 C   0  0  1  0  0  0  0  0  0  0  0  0
  141.1310   73.4660  221.4620 C   0  0  0  0  0  0  0  0  0  0  0  0
  140.5800   73.2940  222.7170 O   0  0  0  0  0  0  0  0  0  0  0  0
  138.6310   70.7800  223.6590 C   0  0  0  0  0  0  0  0  0  0  0  0
  138.4980   69.4310  223.8930 C   0  0  0  0  0  0  0  0  0  0  0  0
  139.0320   68.7940  224.9930 C   0  0  0  0  0  0  0  0  0  0  0  0
  139.7340   69.5860  225.8920 C   0  0  0  0  0  0  0  0  0  0  0  0
  140.2920   69.0220  227.0070 C   0  0  0  0  0  0  0  0  0  0  0  0
  140.9950   69.7950  227.9110 C   0  0  0  0  0  0  0  0  0  0  0  0
  141.5120   69.1600  228.9860 F   0  0  0  0  0  0  0  0  0  0  0  0
  141.1380   71.1490  227.6940 C   0  0  0  0  0  0  0  0  0  0  0  0
  140.5690   71.6990  226.5630 C   0  0  0  0  0  0  0  0  0  0  0  0
  139.8680   70.9270  225.6610 C   0  0  0  0  0  0  0  0  0  0  0  0
  139.3270   71.5000  224.5700 N   0  0  0  0  0  0  0  0  0  0  0  0
  138.4350   73.4180  222.9560 H   0  0  0  0  0  0  0  0  0  0  0  0
  137.5620   72.5412  220.2065 H   0  0  0  0  0  0  0  0  0  0  0  0
  136.3014   73.3695  221.1747 H   0  0  0  0  0  0  0  0  0  0  0  0
  138.9359   77.0461  221.5850 H   0  0  0  0  0  0  0  0  0  0  0  0
  138.8909   75.9357  222.9539 H   0  0  0  0  0  0  0  0  0  0  0  0
  141.2536   75.7598  223.0245 H   0  0  0  0  0  0  0  0  0  0  0  0
  141.3498   77.5718  224.5320 H   0  0  0  0  0  0  0  0  0  0  0  0
  141.9685   79.9661  224.8497 H   0  0  0  0  0  0  0  0  0  0  0  0
  142.2031   81.4534  222.8756 H   0  0  0  0  0  0  0  0  0  0  0  0
  141.8242   80.5797  220.5770 H   0  0  0  0  0  0  0  0  0  0  0  0
  141.2059   78.1922  220.2879 H   0  0  0  0  0  0  0  0  0  0  0  0
  141.2911   76.5383  220.0398 H   0  0  0  0  0  0  0  0  0  0  0  0
  142.5059   75.6119  220.8522 H   0  0  0  0  0  0  0  0  0  0  0  0
  140.4720   74.1505  219.6258 H   0  0  0  0  0  0  0  0  0  0  0  0
  141.0060   72.5250  220.9062 H   0  0  0  0  0  0  0  0  0  0  0  0
  142.1807   73.7480  221.6315 H   0  0  0  0  0  0  0  0  0  0  0  0
  140.1880   72.4030  222.8650 H   0  0  0  0  0  0  0  0  0  0  0  0
  137.9360   68.8287  223.1641 H   0  0  0  0  0  0  0  0  0  0  0  0
  138.9081   67.7124  225.1506 H   0  0  0  0  0  0  0  0  0  0  0  0
  140.1797   67.9424  227.1853 H   0  0  0  0  0  0  0  0  0  0  0  0
  141.6932   71.7770  228.4063 H   0  0  0  0  0  0  0  0  0  0  0  0
  140.6773   72.7778  226.3771 H   0  0  0  0  0  0  0  0  0  0  0  0
  1  2  2  0
  2  3  1  0
  3  4  1  0
  4  5  1  0
  5  6  2  0
  5  7  1  0
  7  8  1  0
  8  9  1  0
  9 10  1  0
 10 11  2  0
 11 12  1  0
 12 13  2  0
 13 14  1  0
 14 15  2  0
  9 16  1  0
 16 17  1  0
 17 18  1  0
 18 19  1  0
  2 20  1  0
 20 21  2  0
 21 22  1  0
 22 23  2  0
 23 24  1  0
 24 25  2  0
 25 26  1  0
 25 27  1  0
 27 28  2  0
 28 29  1  0
 29 30  2  0
 17  7  1  0
 30 20  1  0
 15 10  1  0
 29 23  1  0
  3 31  1  0
  4 32  1  0
  4 33  1  0
  8 34  1  0
  8 35  1  0
  9 36  1  1
 11 37  1  0
 12 38  1  0
 13 39  1  0
 14 40  1  0
 15 41  1  0
 16 42  1  0
 16 43  1  0
 17 44  1  6
 18 45  1  0
 18 46  1  0
 19 47  1  0
 21 48  1  0
 22 49  1  0
 24 50  1  0
 27 51  1  0
 28 52  1  0
M  END
>  <smiles>  (33) 
O=C(NCC(=O)N1C[C@H](c2ccccc2)C[C@H]1CO)c1ccc2cc(F)ccc2n1

>  <score_type>  (33) 
oracle

>  <origin>  (33) 
autodockgpu

>  <m_score__min__energy>  (33) 
-9.0299999999999994

>  <m_primary>  (33) 
energy

>  <rmsd>  (33) 
2.537153044528897

>  <m_score__min__rmsd>  (33) 
2.537153044528897

>  <meeko>  (33) 
{"free_energy": -7.93, "intermolecular_energy": -10.02, "internal_energy": -3.03, "cluster_size": 40, "cluster_id": 1, "rank_in_cluster": 30}

>  <energy>  (33) 
-7.85

>  <cluster_rmsd>  (33) 
1.63

>  <cluster>  (33) 
1

$$$$

     RDKit          3D

 52 55  0  0  0  0  0  0  0  0999 V2000
  139.1150   74.5740  222.3590 O   0  0  0  0  0  0  0  0  0  0  0  0
  139.9330   75.3310  221.7580 C   0  0  0  0  0  0  0  0  0  0  0  0
  140.5990   74.7730  220.6330 N   0  0  0  0  0  0  0  0  0  0  0  0
  140.2770   73.3800  220.2750 C   0  0  0  0  0  0  0  0  0  0  0  0
  140.8640   72.4890  221.2660 C   0  0  0  0  0  0  0  0  0  0  0  0
  142.1310   72.3280  221.2360 O   0  0  0  0  0  0  0  0  0  0  0  0
  140.1630   71.7690  222.2730 N   0  0  0  0  0  0  0  0  0  0  0  0
  140.4150   71.9850  223.6810 C   0  0  0  0  0  0  0  0  0  0  0  0
  139.4750   71.0650  224.3810 C   0  0  2  0  0  0  0  0  0  0  0  0
  140.0430   70.5590  225.6730 C   0  0  0  0  0  0  0  0  0  0  0  0
  140.5580   71.4100  226.6290 C   0  0  0  0  0  0  0  0  0  0  0  0
  141.0770   70.8990  227.8140 C   0  0  0  0  0  0  0  0  0  0  0  0
  141.0730   69.5280  228.0310 C   0  0  0  0  0  0  0  0  0  0  0  0
  140.5620   68.6560  227.0860 C   0  0  0  0  0  0  0  0  0  0  0  0
  140.0520   69.1890  225.9150 C   0  0  0  0  0  0  0  0  0  0  0  0
  139.2740   69.9440  223.4000 C   0  0  0  0  0  0  0  0  0  0  0  0
  139.1530   70.7520  222.1000 C   0  0  1  0  0  0  0  0  0  0  0  0
  137.7500   71.2470  222.0180 C   0  0  0  0  0  0  0  0  0  0  0  0
  137.4760   72.3960  222.7340 O   0  0  0  0  0  0  0  0  0  0  0  0
  140.1790   76.6930  222.1910 C   0  0  0  0  0  0  0  0  0  0  0  0
  139.1260   77.4770  222.5990 C   0  0  0  0  0  0  0  0  0  0  0  0
  139.2670   78.7800  223.0260 C   0  0  0  0  0  0  0  0  0  0  0  0
  140.5560   79.2970  223.0320 C   0  0  0  0  0  0  0  0  0  0  0  0
  140.7730   80.5830  223.4430 C   0  0  0  0  0  0  0  0  0  0  0  0
  142.0500   81.1140  223.4560 C   0  0  0  0  0  0  0  0  0  0  0  0
  142.1760   82.3920  223.8760 F   0  0  0  0  0  0  0  0  0  0  0  0
  143.1180   80.3440  223.0500 C   0  0  0  0  0  0  0  0  0  0  0  0
  142.8790   79.0470  222.6390 C   0  0  0  0  0  0  0  0  0  0  0  0
  141.6060   78.5190  222.6270 C   0  0  0  0  0  0  0  0  0  0  0  0
  141.4120   77.2520  222.2190 N   0  0  0  0  0  0  0  0  0  0  0  0
  141.2850   75.3340  220.0880 H   0  0  0  0  0  0  0  0  0  0  0  0
  139.1853   73.2461  220.2590 H   0  0  0  0  0  0  0  0  0  0  0  0
  140.6832   73.1483  219.2794 H   0  0  0  0  0  0  0  0  0  0  0  0
  141.4573   71.7376  223.9306 H   0  0  0  0  0  0  0  0  0  0  0  0
  140.2642   73.0346  223.9737 H   0  0  0  0  0  0  0  0  0  0  0  0
  138.5357   71.5645  224.6606 H   0  0  0  0  0  0  0  0  0  0  0  0
  140.5582   72.4959  226.4536 H   0  0  0  0  0  0  0  0  0  0  0  0
  141.4885   71.5780  228.5753 H   0  0  0  0  0  0  0  0  0  0  0  0
  141.4830   69.1280  228.9701 H   0  0  0  0  0  0  0  0  0  0  0  0
  140.5611   67.5699  227.2605 H   0  0  0  0  0  0  0  0  0  0  0  0
  139.6418   68.5096  225.1534 H   0  0  0  0  0  0  0  0  0  0  0  0
  140.1355   69.2604  223.3780 H   0  0  0  0  0  0  0  0  0  0  0  0
  138.4222   69.2828  223.6175 H   0  0  0  0  0  0  0  0  0  0  0  0
  139.3228   70.2210  221.1517 H   0  0  0  0  0  0  0  0  0  0  0  0
  137.5235   71.4462  220.9602 H   0  0  0  0  0  0  0  0  0  0  0  0
  137.1280   70.4589  222.4675 H   0  0  0  0  0  0  0  0  0  0  0  0
  138.2780   72.8730  223.0490 H   0  0  0  0  0  0  0  0  0  0  0  0
  138.1163   77.0409  222.5839 H   0  0  0  0  0  0  0  0  0  0  0  0
  138.4023   79.3800  223.3458 H   0  0  0  0  0  0  0  0  0  0  0  0
  139.9230   81.2017  223.7667 H   0  0  0  0  0  0  0  0  0  0  0  0
  144.1390   80.7533  223.0531 H   0  0  0  0  0  0  0  0  0  0  0  0
  143.7236   78.4216  222.3141 H   0  0  0  0  0  0  0  0  0  0  0  0
  1  2  2  0
  2  3  1  0
  3  4  1  0
  4  5  1  0
  5  6  2  0
  5  7  1  0
  7  8  1  0
  8  9  1  0
  9 10  1  0
 10 11  2  0
 11 12  1  0
 12 13  2  0
 13 14  1  0
 14 15  2  0
  9 16  1  0
 16 17  1  0
 17 18  1  0
 18 19  1  0
  2 20  1  0
 20 21  2  0
 21 22  1  0
 22 23  2  0
 23 24  1  0
 24 25  2  0
 25 26  1  0
 25 27  1  0
 27 28  2  0
 28 29  1  0
 29 30  2  0
 17  7  1  0
 30 20  1  0
 15 10  1  0
 29 23  1  0
  3 31  1  0
  4 32  1  0
  4 33  1  0
  8 34  1  0
  8 35  1  0
  9 36  1  1
 11 37  1  0
 12 38  1  0
 13 39  1  0
 14 40  1  0
 15 41  1  0
 16 42  1  0
 16 43  1  0
 17 44  1  6
 18 45  1  0
 18 46  1  0
 19 47  1  0
 21 48  1  0
 22 49  1  0
 24 50  1  0
 27 51  1  0
 28 52  1  0
M  END
>  <smiles>  (34) 
O=C(NCC(=O)N1C[C@H](c2ccccc2)C[C@H]1CO)c1ccc2cc(F)ccc2n1

>  <score_type>  (34) 
oracle

>  <origin>  (34) 
autodockgpu

>  <m_score__min__energy>  (34) 
-9.0299999999999994

>  <m_primary>  (34) 
energy

>  <rmsd>  (34) 
8.424887463831688

>  <m_score__min__rmsd>  (34) 
8.424887463831688

>  <meeko>  (34) 
{"free_energy": -8.21, "intermolecular_energy": -10.3, "internal_energy": -2.28, "cluster_size": 10, "cluster_id": 2, "rank_in_cluster": 7}

>  <energy>  (34) 
-7.76

>  <cluster_rmsd>  (34) 
1.73

>  <cluster>  (34) 
1

$$$$

     RDKit          3D

 52 55  0  0  0  0  0  0  0  0999 V2000
  137.4280   70.5850  221.6190 O   0  0  0  0  0  0  0  0  0  0  0  0
  138.0330   71.3100  222.4620 C   0  0  0  0  0  0  0  0  0  0  0  0
  138.0700   72.7030  222.1840 N   0  0  0  0  0  0  0  0  0  0  0  0
  137.4060   73.1680  220.9530 C   0  0  0  0  0  0  0  0  0  0  0  0
  138.0590   74.3860  220.4930 C   0  0  0  0  0  0  0  0  0  0  0  0
  137.5080   75.0240  219.5330 O   0  0  0  0  0  0  0  0  0  0  0  0
  139.2620   74.9440  221.0090 N   0  0  0  0  0  0  0  0  0  0  0  0
  139.2520   76.0150  221.9800 C   0  0  0  0  0  0  0  0  0  0  0  0
  140.6900   76.2850  222.2640 C   0  0  2  0  0  0  0  0  0  0  0  0
  140.9380   77.7300  222.5810 C   0  0  0  0  0  0  0  0  0  0  0  0
  140.3500   78.7480  221.8580 C   0  0  0  0  0  0  0  0  0  0  0  0
  140.6070   80.0760  222.1840 C   0  0  0  0  0  0  0  0  0  0  0  0
  141.4590   80.3700  223.2410 C   0  0  0  0  0  0  0  0  0  0  0  0
  142.0580   79.3660  223.9780 C   0  0  0  0  0  0  0  0  0  0  0  0
  141.7870   78.0530  223.6340 C   0  0  0  0  0  0  0  0  0  0  0  0
  141.3870   75.8800  220.9970 C   0  0  0  0  0  0  0  0  0  0  0  0
  140.6210   74.5870  220.6780 C   0  0  1  0  0  0  0  0  0  0  0  0
  141.2220   73.5040  221.5060 C   0  0  0  0  0  0  0  0  0  0  0  0
  140.5890   73.2460  222.7070 O   0  0  0  0  0  0  0  0  0  0  0  0
  138.6550   70.7530  223.6470 C   0  0  0  0  0  0  0  0  0  0  0  0
  138.5730   69.4020  223.8870 C   0  0  0  0  0  0  0  0  0  0  0  0
  139.1340   68.7870  224.9860 C   0  0  0  0  0  0  0  0  0  0  0  0
  139.8110   69.6070  225.8800 C   0  0  0  0  0  0  0  0  0  0  0  0
  140.3930   69.0680  226.9930 C   0  0  0  0  0  0  0  0  0  0  0  0
  141.0720   69.8690  227.8930 C   0  0  0  0  0  0  0  0  0  0  0  0
  141.6170   69.2560  228.9670 F   0  0  0  0  0  0  0  0  0  0  0  0
  141.1650   71.2260  227.6700 C   0  0  0  0  0  0  0  0  0  0  0  0
  140.5710   71.7520  226.5400 C   0  0  0  0  0  0  0  0  0  0  0  0
  139.8950   70.9510  225.6440 C   0  0  0  0  0  0  0  0  0  0  0  0
  139.3290   71.5010  224.5540 N   0  0  0  0  0  0  0  0  0  0  0  0
  138.5490   73.3630  222.8310 H   0  0  0  0  0  0  0  0  0  0  0  0
  137.4833   72.3924  220.1768 H   0  0  0  0  0  0  0  0  0  0  0  0
  136.3442   73.3700  221.1571 H   0  0  0  0  0  0  0  0  0  0  0  0
  138.7644   76.9095  221.5652 H   0  0  0  0  0  0  0  0  0  0  0  0
  138.6927   75.7466  222.8884 H   0  0  0  0  0  0  0  0  0  0  0  0
  141.0496   75.7355  223.1464 H   0  0  0  0  0  0  0  0  0  0  0  0
  139.6764   78.5088  221.0219 H   0  0  0  0  0  0  0  0  0  0  0  0
  140.1385   80.8879  221.6084 H   0  0  0  0  0  0  0  0  0  0  0  0
  141.6606   81.4209  223.4960 H   0  0  0  0  0  0  0  0  0  0  0  0
  142.7314   79.6037  224.8147 H   0  0  0  0  0  0  0  0  0  0  0  0
  142.2565   77.2419  224.2099 H   0  0  0  0  0  0  0  0  0  0  0  0
  141.2655   76.6333  220.2047 H   0  0  0  0  0  0  0  0  0  0  0  0
  142.4776   75.7652  221.0826 H   0  0  0  0  0  0  0  0  0  0  0  0
  140.6620   74.2104  219.6453 H   0  0  0  0  0  0  0  0  0  0  0  0
  141.2098   72.5783  220.9120 H   0  0  0  0  0  0  0  0  0  0  0  0
  142.2317   73.8527  221.7683 H   0  0  0  0  0  0  0  0  0  0  0  0
  140.3450   72.3010  222.8370 H   0  0  0  0  0  0  0  0  0  0  0  0
  138.0300   68.7773  223.1625 H   0  0  0  0  0  0  0  0  0  0  0  0
  139.0498   67.7021  225.1468 H   0  0  0  0  0  0  0  0  0  0  0  0
  140.3206   67.9856  227.1749 H   0  0  0  0  0  0  0  0  0  0  0  0
  141.7010   71.8761  228.3772 H   0  0  0  0  0  0  0  0  0  0  0  0
  140.6385   72.8334  226.3504 H   0  0  0  0  0  0  0  0  0  0  0  0
  1  2  2  0
  2  3  1  0
  3  4  1  0
  4  5  1  0
  5  6  2  0
  5  7  1  0
  7  8  1  0
  8  9  1  0
  9 10  1  0
 10 11  2  0
 11 12  1  0
 12 13  2  0
 13 14  1  0
 14 15  2  0
  9 16  1  0
 16 17  1  0
 17 18  1  0
 18 19  1  0
  2 20  1  0
 20 21  2  0
 21 22  1  0
 22 23  2  0
 23 24  1  0
 24 25  2  0
 25 26  1  0
 25 27  1  0
 27 28  2  0
 28 29  1  0
 29 30  2  0
 17  7  1  0
 30 20  1  0
 15 10  1  0
 29 23  1  0
  3 31  1  0
  4 32  1  0
  4 33  1  0
  8 34  1  0
  8 35  1  0
  9 36  1  1
 11 37  1  0
 12 38  1  0
 13 39  1  0
 14 40  1  0
 15 41  1  0
 16 42  1  0
 16 43  1  0
 17 44  1  6
 18 45  1  0
 18 46  1  0
 19 47  1  0
 21 48  1  0
 22 49  1  0
 24 50  1  0
 27 51  1  0
 28 52  1  0
M  END
>  <smiles>  (35) 
O=C(NCC(=O)N1C[C@H](c2ccccc2)C[C@H]1CO)c1ccc2cc(F)ccc2n1

>  <score_type>  (35) 
oracle

>  <origin>  (35) 
autodockgpu

>  <m_score__min__energy>  (35) 
-9.0299999999999994

>  <m_primary>  (35) 
energy

>  <rmsd>  (35) 
2.560371445054404

>  <m_score__min__rmsd>  (35) 
2.560371445054404

>  <meeko>  (35) 
{"free_energy": -7.65, "intermolecular_energy": -9.73, "internal_energy": -3.06, "cluster_size": 40, "cluster_id": 1, "rank_in_cluster": 39}

>  <energy>  (35) 
-7.76

>  <cluster_rmsd>  (35) 
1.73

>  <cluster>  (35) 
1

$$$$

     RDKit          3D

 52 55  0  0  0  0  0  0  0  0999 V2000
  135.7770   71.8730  222.0930 O   0  0  0  0  0  0  0  0  0  0  0  0
  136.8710   72.1850  222.6490 C   0  0  0  0  0  0  0  0  0  0  0  0
  137.3730   73.4840  222.3650 N   0  0  0  0  0  0  0  0  0  0  0  0
  136.5810   74.3360  221.4600 C   0  0  0  0  0  0  0  0  0  0  0  0
  137.4790   75.2360  220.7500 C   0  0  0  0  0  0  0  0  0  0  0  0
  137.0350   75.7980  219.6910 O   0  0  0  0  0  0  0  0  0  0  0  0
  138.8150   75.5570  221.1170 N   0  0  0  0  0  0  0  0  0  0  0  0
  139.1160   76.6220  222.0490 C   0  0  0  0  0  0  0  0  0  0  0  0
  140.6020   76.6130  222.1710 C   0  0  2  0  0  0  0  0  0  0  0  0
  141.1540   77.9860  222.4120 C   0  0  0  0  0  0  0  0  0  0  0  0
  141.4630   78.4370  223.6780 C   0  0  0  0  0  0  0  0  0  0  0  0
  141.9730   79.7190  223.8590 C   0  0  0  0  0  0  0  0  0  0  0  0
  142.1700   80.5410  222.7570 C   0  0  0  0  0  0  0  0  0  0  0  0
  141.8670   80.1080  221.4790 C   0  0  0  0  0  0  0  0  0  0  0  0
  141.3610   78.8290  221.3260 C   0  0  0  0  0  0  0  0  0  0  0  0
  141.0660   76.0640  220.8510 C   0  0  0  0  0  0  0  0  0  0  0  0
  140.0370   74.9400  220.6570 C   0  0  1  0  0  0  0  0  0  0  0  0
  140.5060   73.7720  221.4530 C   0  0  0  0  0  0  0  0  0  0  0  0
  139.9480   73.6380  222.7090 O   0  0  0  0  0  0  0  0  0  0  0  0
  137.5750   71.2720  223.5280 C   0  0  0  0  0  0  0  0  0  0  0  0
  136.9730   70.0950  223.9070 C   0  0  0  0  0  0  0  0  0  0  0  0
  137.5680   69.1680  224.7370 C   0  0  0  0  0  0  0  0  0  0  0  0
  138.8420   69.4730  225.1980 C   0  0  0  0  0  0  0  0  0  0  0  0
  139.4940   68.6010  226.0260 C   0  0  0  0  0  0  0  0  0  0  0  0
  140.7630   68.8880  226.4930 C   0  0  0  0  0  0  0  0  0  0  0  0
  141.3360   67.9730  227.3070 F   0  0  0  0  0  0  0  0  0  0  0  0
  141.3820   70.0630  226.1250 C   0  0  0  0  0  0  0  0  0  0  0  0
  140.7080   70.9300  225.2880 C   0  0  0  0  0  0  0  0  0  0  0  0
  139.4430   70.6420  224.8220 C   0  0  0  0  0  0  0  0  0  0  0  0
  138.8170   71.5130  224.0080 N   0  0  0  0  0  0  0  0  0  0  0  0
  138.2670   73.8130  222.7850 H   0  0  0  0  0  0  0  0  0  0  0  0
  136.0428   73.7056  220.7368 H   0  0  0  0  0  0  0  0  0  0  0  0
  135.8527   74.9200  222.0417 H   0  0  0  0  0  0  0  0  0  0  0  0
  138.7651   77.5888  221.6590 H   0  0  0  0  0  0  0  0  0  0  0  0
  138.6189   76.4772  223.0195 H   0  0  0  0  0  0  0  0  0  0  0  0
  140.9451   76.0158  223.0287 H   0  0  0  0  0  0  0  0  0  0  0  0
  141.3059   77.7815  224.5473 H   0  0  0  0  0  0  0  0  0  0  0  0
  142.2187   80.0792  224.8689 H   0  0  0  0  0  0  0  0  0  0  0  0
  142.5739   81.5537  222.9032 H   0  0  0  0  0  0  0  0  0  0  0  0
  142.0238   80.7619  220.6085 H   0  0  0  0  0  0  0  0  0  0  0  0
  141.1155   78.4690  220.3160 H   0  0  0  0  0  0  0  0  0  0  0  0
  141.0050   76.8166  220.0511 H   0  0  0  0  0  0  0  0  0  0  0  0
  142.1172   75.7410  220.8258 H   0  0  0  0  0  0  0  0  0  0  0  0
  139.8929   74.5504  219.6385 H   0  0  0  0  0  0  0  0  0  0  0  0
  140.2757   72.8602  220.8823 H   0  0  0  0  0  0  0  0  0  0  0  0
  141.5809   73.9360  221.6194 H   0  0  0  0  0  0  0  0  0  0  0  0
  139.4330   72.8080  222.8330 H   0  0  0  0  0  0  0  0  0  0  0  0
  135.9628   69.8815  223.5278 H   0  0  0  0  0  0  0  0  0  0  0  0
  137.0593   68.2345  225.0195 H   0  0  0  0  0  0  0  0  0  0  0  0
  139.0037   67.6622  226.3231 H   0  0  0  0  0  0  0  0  0  0  0  0
  142.3910   70.3049  226.4901 H   0  0  0  0  0  0  0  0  0  0  0  0
  141.1910   71.8711  224.9864 H   0  0  0  0  0  0  0  0  0  0  0  0
  1  2  2  0
  2  3  1  0
  3  4  1  0
  4  5  1  0
  5  6  2  0
  5  7  1  0
  7  8  1  0
  8  9  1  0
  9 10  1  0
 10 11  2  0
 11 12  1  0
 12 13  2  0
 13 14  1  0
 14 15  2  0
  9 16  1  0
 16 17  1  0
 17 18  1  0
 18 19  1  0
  2 20  1  0
 20 21  2  0
 21 22  1  0
 22 23  2  0
 23 24  1  0
 24 25  2  0
 25 26  1  0
 25 27  1  0
 27 28  2  0
 28 29  1  0
 29 30  2  0
 17  7  1  0
 30 20  1  0
 15 10  1  0
 29 23  1  0
  3 31  1  0
  4 32  1  0
  4 33  1  0
  8 34  1  0
  8 35  1  0
  9 36  1  1
 11 37  1  0
 12 38  1  0
 13 39  1  0
 14 40  1  0
 15 41  1  0
 16 42  1  0
 16 43  1  0
 17 44  1  6
 18 45  1  0
 18 46  1  0
 19 47  1  0
 21 48  1  0
 22 49  1  0
 24 50  1  0
 27 51  1  0
 28 52  1  0
M  END
>  <smiles>  (36) 
O=C(NCC(=O)N1C[C@H](c2ccccc2)C[C@H]1CO)c1ccc2cc(F)ccc2n1

>  <score_type>  (36) 
oracle

>  <origin>  (36) 
autodockgpu

>  <m_score__min__energy>  (36) 
-9.0299999999999994

>  <m_primary>  (36) 
energy

>  <rmsd>  (36) 
2.8905189930997333

>  <m_score__min__rmsd>  (36) 
2.8905189930997333

>  <meeko>  (36) 
{"free_energy": -7.75, "intermolecular_energy": -9.84, "internal_energy": -3.04, "cluster_size": 40, "cluster_id": 1, "rank_in_cluster": 36}

>  <energy>  (36) 
-7.75

>  <cluster_rmsd>  (36) 
1.93

>  <cluster>  (36) 
1

$$$$

     RDKit          3D

 52 55  0  0  0  0  0  0  0  0999 V2000
  137.7020   70.8370  221.2900 O   0  0  0  0  0  0  0  0  0  0  0  0
  138.0790   71.4610  222.3240 C   0  0  0  0  0  0  0  0  0  0  0  0
  137.9750   72.8790  222.2780 N   0  0  0  0  0  0  0  0  0  0  0  0
  137.4410   73.4800  221.0420 C   0  0  0  0  0  0  0  0  0  0  0  0
  137.8920   74.8620  220.9560 C   0  0  0  0  0  0  0  0  0  0  0  0
  137.0510   75.7310  220.5430 O   0  0  0  0  0  0  0  0  0  0  0  0
  139.1870   75.3490  221.2860 N   0  0  0  0  0  0  0  0  0  0  0  0
  139.3780   76.4540  222.1990 C   0  0  0  0  0  0  0  0  0  0  0  0
  140.8560   76.6280  222.2840 C   0  0  2  0  0  0  0  0  0  0  0  0
  141.2410   78.0610  222.4970 C   0  0  0  0  0  0  0  0  0  0  0  0
  141.7930   78.5010  223.6830 C   0  0  0  0  0  0  0  0  0  0  0  0
  142.1350   79.8400  223.8410 C   0  0  0  0  0  0  0  0  0  0  0  0
  141.9200   80.7320  222.7980 C   0  0  0  0  0  0  0  0  0  0  0  0
  141.3680   80.3120  221.6010 C   0  0  0  0  0  0  0  0  0  0  0  0
  141.0360   78.9750  221.4690 C   0  0  0  0  0  0  0  0  0  0  0  0
  141.3510   76.1240  220.9570 C   0  0  0  0  0  0  0  0  0  0  0  0
  140.4640   74.8800  220.8000 C   0  0  1  0  0  0  0  0  0  0  0  0
  141.0920   73.7880  221.5950 C   0  0  0  0  0  0  0  0  0  0  0  0
  140.3940   73.3840  222.7160 O   0  0  0  0  0  0  0  0  0  0  0  0
  138.5900   70.7740  223.4930 C   0  0  0  0  0  0  0  0  0  0  0  0
  138.3010   69.4420  223.6790 C   0  0  0  0  0  0  0  0  0  0  0  0
  138.7440   68.7090  224.7600 C   0  0  0  0  0  0  0  0  0  0  0  0
  139.5220   69.3840  225.6910 C   0  0  0  0  0  0  0  0  0  0  0  0
  139.9980   68.7210  226.7900 C   0  0  0  0  0  0  0  0  0  0  0  0
  140.7750   69.3770  227.7270 C   0  0  0  0  0  0  0  0  0  0  0  0
  141.2030   68.6490  228.7820 F   0  0  0  0  0  0  0  0  0  0  0  0
  141.0750   70.7110  227.5590 C   0  0  0  0  0  0  0  0  0  0  0  0
  140.5860   71.3620  226.4440 C   0  0  0  0  0  0  0  0  0  0  0  0
  139.8120   70.7070  225.5090 C   0  0  0  0  0  0  0  0  0  0  0  0
  139.3540   71.3760  224.4360 N   0  0  0  0  0  0  0  0  0  0  0  0
  138.2650   73.4610  223.0900 H   0  0  0  0  0  0  0  0  0  0  0  0
  137.8064   72.9175  220.1702 H   0  0  0  0  0  0  0  0  0  0  0  0
  136.3416   73.4472  221.0566 H   0  0  0  0  0  0  0  0  0  0  0  0
  138.9025   77.3658  221.8084 H   0  0  0  0  0  0  0  0  0  0  0  0
  138.9257   76.2619  223.1831 H   0  0  0  0  0  0  0  0  0  0  0  0
  141.2903   76.0882  223.1384 H   0  0  0  0  0  0  0  0  0  0  0  0
  141.9630   77.7908  224.5056 H   0  0  0  0  0  0  0  0  0  0  0  0
  142.5734   80.1907  224.7869 H   0  0  0  0  0  0  0  0  0  0  0  0
  142.1932   81.7898  222.9260 H   0  0  0  0  0  0  0  0  0  0  0  0
  141.1978   81.0209  220.7773 H   0  0  0  0  0  0  0  0  0  0  0  0
  140.5970   78.6249  220.5231 H   0  0  0  0  0  0  0  0  0  0  0  0
  141.1778   76.8537  220.1523 H   0  0  0  0  0  0  0  0  0  0  0  0
  142.4330   75.9322  220.9073 H   0  0  0  0  0  0  0  0  0  0  0  0
  140.3443   74.4626  219.7893 H   0  0  0  0  0  0  0  0  0  0  0  0
  141.2079   72.9146  220.9364 H   0  0  0  0  0  0  0  0  0  0  0  0
  142.0432   74.1972  221.9662 H   0  0  0  0  0  0  0  0  0  0  0  0
  140.2990   72.4070  222.7990 H   0  0  0  0  0  0  0  0  0  0  0  0
  137.6828   68.9338  222.9243 H   0  0  0  0  0  0  0  0  0  0  0  0
  138.4938   67.6444  224.8785 H   0  0  0  0  0  0  0  0  0  0  0  0
  139.7601   67.6561  226.9290 H   0  0  0  0  0  0  0  0  0  0  0  0
  141.6907   71.2458  228.2971 H   0  0  0  0  0  0  0  0  0  0  0  0
  140.8189   72.4271  226.2980 H   0  0  0  0  0  0  0  0  0  0  0  0
  1  2  2  0
  2  3  1  0
  3  4  1  0
  4  5  1  0
  5  6  2  0
  5  7  1  0
  7  8  1  0
  8  9  1  0
  9 10  1  0
 10 11  2  0
 11 12  1  0
 12 13  2  0
 13 14  1  0
 14 15  2  0
  9 16  1  0
 16 17  1  0
 17 18  1  0
 18 19  1  0
  2 20  1  0
 20 21  2  0
 21 22  1  0
 22 23  2  0
 23 24  1  0
 24 25  2  0
 25 26  1  0
 25 27  1  0
 27 28  2  0
 28 29  1  0
 29 30  2  0
 17  7  1  0
 30 20  1  0
 15 10  1  0
 29 23  1  0
  3 31  1  0
  4 32  1  0
  4 33  1  0
  8 34  1  0
  8 35  1  0
  9 36  1  1
 11 37  1  0
 12 38  1  0
 13 39  1  0
 14 40  1  0
 15 41  1  0
 16 42  1  0
 16 43  1  0
 17 44  1  6
 18 45  1  0
 18 46  1  0
 19 47  1  0
 21 48  1  0
 22 49  1  0
 24 50  1  0
 27 51  1  0
 28 52  1  0
M  END
>  <smiles>  (37) 
O=C(NCC(=O)N1C[C@H](c2ccccc2)C[C@H]1CO)c1ccc2cc(F)ccc2n1

>  <score_type>  (37) 
oracle

>  <origin>  (37) 
autodockgpu

>  <m_score__min__energy>  (37) 
-9.0299999999999994

>  <m_primary>  (37) 
energy

>  <rmsd>  (37) 
2.54987931058225

>  <m_score__min__rmsd>  (37) 
2.54987931058225

>  <meeko>  (37) 
{"free_energy": -8.25, "intermolecular_energy": -10.34, "internal_energy": -2.87, "cluster_size": 40, "cluster_id": 1, "rank_in_cluster": 18}

>  <energy>  (37) 
-7.75

>  <cluster_rmsd>  (37) 
1.71

>  <cluster>  (37) 
1

$$$$

     RDKit          3D

 52 55  0  0  0  0  0  0  0  0999 V2000
  137.2780   70.8240  221.5350 O   0  0  0  0  0  0  0  0  0  0  0  0
  137.8510   71.4580  222.4680 C   0  0  0  0  0  0  0  0  0  0  0  0
  137.8600   72.8750  222.3540 N   0  0  0  0  0  0  0  0  0  0  0  0
  137.2080   73.4660  221.1710 C   0  0  0  0  0  0  0  0  0  0  0  0
  137.7040   74.8220  220.9850 C   0  0  0  0  0  0  0  0  0  0  0  0
  136.8860   75.6900  220.5250 O   0  0  0  0  0  0  0  0  0  0  0  0
  139.0200   75.2850  221.2630 N   0  0  0  0  0  0  0  0  0  0  0  0
  139.2680   76.3740  222.1810 C   0  0  0  0  0  0  0  0  0  0  0  0
  140.7510   76.5250  222.2020 C   0  0  2  0  0  0  0  0  0  0  0  0
  141.1670   77.9490  222.4170 C   0  0  0  0  0  0  0  0  0  0  0  0
  141.5140   78.4290  223.6630 C   0  0  0  0  0  0  0  0  0  0  0  0
  141.8950   79.7590  223.8190 C   0  0  0  0  0  0  0  0  0  0  0  0
  141.9230   80.5990  222.7140 C   0  0  0  0  0  0  0  0  0  0  0  0
  141.5790   80.1380  221.4570 C   0  0  0  0  0  0  0  0  0  0  0  0
  141.2040   78.8130  221.3270 C   0  0  0  0  0  0  0  0  0  0  0  0
  141.1790   76.0320  220.8490 C   0  0  0  0  0  0  0  0  0  0  0  0
  140.2660   74.8040  220.7160 C   0  0  1  0  0  0  0  0  0  0  0  0
  140.9120   73.6910  221.4670 C   0  0  0  0  0  0  0  0  0  0  0  0
  140.3540   73.3930  222.6950 O   0  0  0  0  0  0  0  0  0  0  0  0
  138.4640   70.7810  223.5940 C   0  0  0  0  0  0  0  0  0  0  0  0
  138.3220   69.4200  223.7270 C   0  0  0  0  0  0  0  0  0  0  0  0
  138.8710   68.6950  224.7640 C   0  0  0  0  0  0  0  0  0  0  0  0
  139.5990   69.4090  225.7060 C   0  0  0  0  0  0  0  0  0  0  0  0
  140.1720   68.7560  226.7630 C   0  0  0  0  0  0  0  0  0  0  0  0
  140.9010   69.4520  227.7100 C   0  0  0  0  0  0  0  0  0  0  0  0
  141.4330   68.7310  228.7210 F   0  0  0  0  0  0  0  0  0  0  0  0
  141.0540   70.8170  227.5940 C   0  0  0  0  0  0  0  0  0  0  0  0
  140.4680   71.4570  226.5200 C   0  0  0  0  0  0  0  0  0  0  0  0
  139.7420   70.7620  225.5760 C   0  0  0  0  0  0  0  0  0  0  0  0
  139.1850   71.4220  224.5440 N   0  0  0  0  0  0  0  0  0  0  0  0
  138.3120   73.4650  223.0820 H   0  0  0  0  0  0  0  0  0  0  0  0
  137.4412   72.8626  220.2813 H   0  0  0  0  0  0  0  0  0  0  0  0
  136.1180   73.4856  221.3181 H   0  0  0  0  0  0  0  0  0  0  0  0
  138.7895   77.2980  221.8242 H   0  0  0  0  0  0  0  0  0  0  0  0
  138.8570   76.1749  223.1817 H   0  0  0  0  0  0  0  0  0  0  0  0
  141.2145   75.9670  223.0289 H   0  0  0  0  0  0  0  0  0  0  0  0
  141.4896   77.7593  224.5353 H   0  0  0  0  0  0  0  0  0  0  0  0
  142.1723   80.1421  224.8122 H   0  0  0  0  0  0  0  0  0  0  0  0
  142.2241   81.6494  222.8409 H   0  0  0  0  0  0  0  0  0  0  0  0
  141.6028   80.8067  220.5839 H   0  0  0  0  0  0  0  0  0  0  0  0
  140.9270   78.4313  220.3332 H   0  0  0  0  0  0  0  0  0  0  0  0
  140.9822   76.7750  220.0620 H   0  0  0  0  0  0  0  0  0  0  0  0
  142.2546   75.8245  220.7487 H   0  0  0  0  0  0  0  0  0  0  0  0
  140.0946   74.4023  219.7064 H   0  0  0  0  0  0  0  0  0  0  0  0
  140.8583   72.7866  220.8431 H   0  0  0  0  0  0  0  0  0  0  0  0
  141.9378   74.0277  221.6779 H   0  0  0  0  0  0  0  0  0  0  0  0
  139.6420   74.0140  222.9740 H   0  0  0  0  0  0  0  0  0  0  0  0
  137.7394   68.8805  222.9657 H   0  0  0  0  0  0  0  0  0  0  0  0
  138.7386   67.6057  224.8408 H   0  0  0  0  0  0  0  0  0  0  0  0
  140.0517   67.6670  226.8605 H   0  0  0  0  0  0  0  0  0  0  0  0
  141.6300   71.3837  228.3403 H   0  0  0  0  0  0  0  0  0  0  0  0
  140.5829   72.5459  226.4151 H   0  0  0  0  0  0  0  0  0  0  0  0
  1  2  2  0
  2  3  1  0
  3  4  1  0
  4  5  1  0
  5  6  2  0
  5  7  1  0
  7  8  1  0
  8  9  1  0
  9 10  1  0
 10 11  2  0
 11 12  1  0
 12 13  2  0
 13 14  1  0
 14 15  2  0
  9 16  1  0
 16 17  1  0
 17 18  1  0
 18 19  1  0
  2 20  1  0
 20 21  2  0
 21 22  1  0
 22 23  2  0
 23 24  1  0
 24 25  2  0
 25 26  1  0
 25 27  1  0
 27 28  2  0
 28 29  1  0
 29 30  2  0
 17  7  1  0
 30 20  1  0
 15 10  1  0
 29 23  1  0
  3 31  1  0
  4 32  1  0
  4 33  1  0
  8 34  1  0
  8 35  1  0
  9 36  1  1
 11 37  1  0
 12 38  1  0
 13 39  1  0
 14 40  1  0
 15 41  1  0
 16 42  1  0
 16 43  1  0
 17 44  1  6
 18 45  1  0
 18 46  1  0
 19 47  1  0
 21 48  1  0
 22 49  1  0
 24 50  1  0
 27 51  1  0
 28 52  1  0
M  END
>  <smiles>  (38) 
O=C(NCC(=O)N1C[C@H](c2ccccc2)C[C@H]1CO)c1ccc2cc(F)ccc2n1

>  <score_type>  (38) 
oracle

>  <origin>  (38) 
autodockgpu

>  <m_score__min__energy>  (38) 
-9.0299999999999994

>  <m_primary>  (38) 
energy

>  <rmsd>  (38) 
2.5600530061550417

>  <m_score__min__rmsd>  (38) 
2.5600530061550417

>  <meeko>  (38) 
{"free_energy": -8.58, "intermolecular_energy": -10.66, "internal_energy": -2.34, "cluster_size": 40, "cluster_id": 1, "rank_in_cluster": 7}

>  <energy>  (38) 
-7.73

>  <cluster_rmsd>  (38) 
1.69

>  <cluster>  (38) 
1

$$$$

     RDKit          3D

 52 55  0  0  0  0  0  0  0  0999 V2000
  138.3970   74.9350  222.2890 O   0  0  0  0  0  0  0  0  0  0  0  0
  139.4910   75.4800  221.9580 C   0  0  0  0  0  0  0  0  0  0  0  0
  140.3670   74.6970  221.1570 N   0  0  0  0  0  0  0  0  0  0  0  0
  139.9220   73.3410  220.7900 C   0  0  0  0  0  0  0  0  0  0  0  0
  140.5230   72.3820  221.7070 C   0  0  0  0  0  0  0  0  0  0  0  0
  141.7970   72.2880  221.7100 O   0  0  0  0  0  0  0  0  0  0  0  0
  139.8290   71.5270  222.6070 N   0  0  0  0  0  0  0  0  0  0  0  0
  140.1620   71.4670  224.0130 C   0  0  0  0  0  0  0  0  0  0  0  0
  139.2020   70.4840  224.5910 C   0  0  2  0  0  0  0  0  0  0  0  0
  139.8000   69.7200  225.7340 C   0  0  0  0  0  0  0  0  0  0  0  0
  139.8410   68.3410  225.7490 C   0  0  0  0  0  0  0  0  0  0  0  0
  140.4050   67.6700  226.8300 C   0  0  0  0  0  0  0  0  0  0  0  0
  140.9260   68.3960  227.8930 C   0  0  0  0  0  0  0  0  0  0  0  0
  140.8940   69.7780  227.8980 C   0  0  0  0  0  0  0  0  0  0  0  0
  140.3290   70.4220  226.8120 C   0  0  0  0  0  0  0  0  0  0  0  0
  138.8830   69.5750  223.4380 C   0  0  0  0  0  0  0  0  0  0  0  0
  138.7490   70.6140  222.3140 C   0  0  1  0  0  0  0  0  0  0  0  0
  137.3780   71.1890  222.4070 C   0  0  0  0  0  0  0  0  0  0  0  0
  137.2120   72.1990  223.3330 O   0  0  0  0  0  0  0  0  0  0  0  0
  139.8360   76.8260  222.3710 C   0  0  0  0  0  0  0  0  0  0  0  0
  138.8470   77.6770  222.8050 C   0  0  0  0  0  0  0  0  0  0  0  0
  139.0830   78.9720  223.2160 C   0  0  0  0  0  0  0  0  0  0  0  0
  140.4010   79.4070  223.1780 C   0  0  0  0  0  0  0  0  0  0  0  0
  140.7110   80.6800  223.5710 C   0  0  0  0  0  0  0  0  0  0  0  0
  142.0180   81.1290  223.5400 C   0  0  0  0  0  0  0  0  0  0  0  0
  142.2370   82.4000  223.9440 F   0  0  0  0  0  0  0  0  0  0  0  0
  143.0230   80.2900  223.1080 C   0  0  0  0  0  0  0  0  0  0  0  0
  142.6900   79.0090  222.7150 C   0  0  0  0  0  0  0  0  0  0  0  0
  141.3860   78.5620  222.7480 C   0  0  0  0  0  0  0  0  0  0  0  0
  141.1020   77.3070  222.3570 N   0  0  0  0  0  0  0  0  0  0  0  0
  141.2850   75.0760  220.8450 H   0  0  0  0  0  0  0  0  0  0  0  0
  138.8258   73.2809  220.8592 H   0  0  0  0  0  0  0  0  0  0  0  0
  140.2308   73.1141  219.7589 H   0  0  0  0  0  0  0  0  0  0  0  0
  141.1980   71.1240  224.1514 H   0  0  0  0  0  0  0  0  0  0  0  0
  140.0906   72.4514  224.4986 H   0  0  0  0  0  0  0  0  0  0  0  0
  138.3109   70.9723  225.0124 H   0  0  0  0  0  0  0  0  0  0  0  0
  139.4269   67.7705  224.9045 H   0  0  0  0  0  0  0  0  0  0  0  0
  140.4379   66.5706  226.8423 H   0  0  0  0  0  0  0  0  0  0  0  0
  141.3717   67.8624  228.7454 H   0  0  0  0  0  0  0  0  0  0  0  0
  141.3065   70.3498  228.7423 H   0  0  0  0  0  0  0  0  0  0  0  0
  140.2971   71.5215  226.8006 H   0  0  0  0  0  0  0  0  0  0  0  0
  139.6977   68.8626  223.2414 H   0  0  0  0  0  0  0  0  0  0  0  0
  138.0031   68.9311  223.5832 H   0  0  0  0  0  0  0  0  0  0  0  0
  138.8378   70.2582  221.2769 H   0  0  0  0  0  0  0  0  0  0  0  0
  137.1127   71.5909  221.4180 H   0  0  0  0  0  0  0  0  0  0  0  0
  136.7308   70.3657  222.7435 H   0  0  0  0  0  0  0  0  0  0  0  0
  137.6670   73.0400  223.0960 H   0  0  0  0  0  0  0  0  0  0  0  0
  137.8121   77.3048  222.8254 H   0  0  0  0  0  0  0  0  0  0  0  0
  138.2680   79.6274  223.5568 H   0  0  0  0  0  0  0  0  0  0  0  0
  139.9121   81.3533  223.9152 H   0  0  0  0  0  0  0  0  0  0  0  0
  144.0675   80.6337  223.0771 H   0  0  0  0  0  0  0  0  0  0  0  0
  143.4826   78.3299  222.3678 H   0  0  0  0  0  0  0  0  0  0  0  0
  1  2  2  0
  2  3  1  0
  3  4  1  0
  4  5  1  0
  5  6  2  0
  5  7  1  0
  7  8  1  0
  8  9  1  0
  9 10  1  0
 10 11  2  0
 11 12  1  0
 12 13  2  0
 13 14  1  0
 14 15  2  0
  9 16  1  0
 16 17  1  0
 17 18  1  0
 18 19  1  0
  2 20  1  0
 20 21  2  0
 21 22  1  0
 22 23  2  0
 23 24  1  0
 24 25  2  0
 25 26  1  0
 25 27  1  0
 27 28  2  0
 28 29  1  0
 29 30  2  0
 17  7  1  0
 30 20  1  0
 15 10  1  0
 29 23  1  0
  3 31  1  0
  4 32  1  0
  4 33  1  0
  8 34  1  0
  8 35  1  0
  9 36  1  1
 11 37  1  0
 12 38  1  0
 13 39  1  0
 14 40  1  0
 15 41  1  0
 16 42  1  0
 16 43  1  0
 17 44  1  6
 18 45  1  0
 18 46  1  0
 19 47  1  0
 21 48  1  0
 22 49  1  0
 24 50  1  0
 27 51  1  0
 28 52  1  0
M  END
>  <smiles>  (39) 
O=C(NCC(=O)N1C[C@H](c2ccccc2)C[C@H]1CO)c1ccc2cc(F)ccc2n1

>  <score_type>  (39) 
oracle

>  <origin>  (39) 
autodockgpu

>  <m_score__min__energy>  (39) 
-9.0299999999999994

>  <m_primary>  (39) 
energy

>  <rmsd>  (39) 
8.559226025289457

>  <m_score__min__rmsd>  (39) 
8.559226025289457

>  <meeko>  (39) 
{"free_energy": -8.29, "intermolecular_energy": -10.38, "internal_energy": -2.28, "cluster_size": 10, "cluster_id": 2, "rank_in_cluster": 6}

>  <energy>  (39) 
-7.65

>  <cluster_rmsd>  (39) 
1.62

>  <cluster>  (39) 
1

$$$$

     RDKit          3D

 52 55  0  0  0  0  0  0  0  0999 V2000
  138.4480   70.7710  221.3950 O   0  0  0  0  0  0  0  0  0  0  0  0
  138.4990   71.4960  222.4320 C   0  0  0  0  0  0  0  0  0  0  0  0
  137.8890   72.7760  222.3370 N   0  0  0  0  0  0  0  0  0  0  0  0
  137.2600   73.1360  221.0530 C   0  0  0  0  0  0  0  0  0  0  0  0
  137.6460   74.4950  220.7010 C   0  0  0  0  0  0  0  0  0  0  0  0
  136.8420   75.1640  219.9670 O   0  0  0  0  0  0  0  0  0  0  0  0
  138.8410   75.1600  221.0920 N   0  0  0  0  0  0  0  0  0  0  0  0
  138.8710   76.0840  222.2050 C   0  0  0  0  0  0  0  0  0  0  0  0
  140.2900   76.5340  222.2890 C   0  0  2  0  0  0  0  0  0  0  0  0
  140.4030   77.9470  222.7780 C   0  0  0  0  0  0  0  0  0  0  0  0
  141.6240   78.5380  223.0290 C   0  0  0  0  0  0  0  0  0  0  0  0
  141.6850   79.8520  223.4830 C   0  0  0  0  0  0  0  0  0  0  0  0
  140.5100   80.5650  223.6820 C   0  0  0  0  0  0  0  0  0  0  0  0
  139.2750   79.9910  223.4360 C   0  0  0  0  0  0  0  0  0  0  0  0
  139.2410   78.6830  222.9850 C   0  0  0  0  0  0  0  0  0  0  0  0
  140.7890   76.4060  220.8770 C   0  0  0  0  0  0  0  0  0  0  0  0
  140.1510   75.0630  220.4930 C   0  0  1  0  0  0  0  0  0  0  0  0
  141.0280   73.9880  221.0370 C   0  0  0  0  0  0  0  0  0  0  0  0
  140.7550   73.5870  222.3300 O   0  0  0  0  0  0  0  0  0  0  0  0
  139.1430   71.0480  223.6510 C   0  0  0  0  0  0  0  0  0  0  0  0
  140.0560   71.8640  224.2770 C   0  0  0  0  0  0  0  0  0  0  0  0
  140.7150   71.5210  225.4380 C   0  0  0  0  0  0  0  0  0  0  0  0
  140.4180   70.2760  225.9780 C   0  0  0  0  0  0  0  0  0  0  0  0
  141.0330   69.8680  227.1290 C   0  0  0  0  0  0  0  0  0  0  0  0
  140.7480   68.6320  227.6800 C   0  0  0  0  0  0  0  0  0  0  0  0
  141.4010   68.3060  228.8180 F   0  0  0  0  0  0  0  0  0  0  0  0
  139.8370   67.7990  227.0680 C   0  0  0  0  0  0  0  0  0  0  0  0
  139.2260   68.2300  225.9070 C   0  0  0  0  0  0  0  0  0  0  0  0
  139.5100   69.4630  225.3580 C   0  0  0  0  0  0  0  0  0  0  0  0
  138.8940   69.8470  224.2250 N   0  0  0  0  0  0  0  0  0  0  0  0
  137.8910   73.4280  223.1480 H   0  0  0  0  0  0  0  0  0  0  0  0
  137.5978   72.4419  220.2693 H   0  0  0  0  0  0  0  0  0  0  0  0
  136.1656   73.0722  221.1443 H   0  0  0  0  0  0  0  0  0  0  0  0
  138.2041   76.9384  222.0173 H   0  0  0  0  0  0  0  0  0  0  0  0
  138.5273   75.6183  223.1404 H   0  0  0  0  0  0  0  0  0  0  0  0
  140.8735   75.9387  223.0068 H   0  0  0  0  0  0  0  0  0  0  0  0
  142.5519   77.9690  222.8698 H   0  0  0  0  0  0  0  0  0  0  0  0
  142.6585   80.3233  223.6831 H   0  0  0  0  0  0  0  0  0  0  0  0
  140.5618   81.6034  224.0412 H   0  0  0  0  0  0  0  0  0  0  0  0
  138.3462   80.5586  223.5945 H   0  0  0  0  0  0  0  0  0  0  0  0
  138.2673   78.2120  222.7845 H   0  0  0  0  0  0  0  0  0  0  0  0
  140.4282   77.2270  220.2399 H   0  0  0  0  0  0  0  0  0  0  0  0
  141.8824   76.4498  220.7649 H   0  0  0  0  0  0  0  0  0  0  0  0
  140.0505   74.8338  219.4218 H   0  0  0  0  0  0  0  0  0  0  0  0
  140.9297   73.1090  220.3831 H   0  0  0  0  0  0  0  0  0  0  0  0
  142.0417   74.4142  221.0639 H   0  0  0  0  0  0  0  0  0  0  0  0
  139.8460   73.8120  222.6360 H   0  0  0  0  0  0  0  0  0  0  0  0
  140.2722   72.8440  223.8265 H   0  0  0  0  0  0  0  0  0  0  0  0
  141.4395   72.1989  225.9130 H   0  0  0  0  0  0  0  0  0  0  0  0
  141.7614   70.5291  227.6214 H   0  0  0  0  0  0  0  0  0  0  0  0
  139.6017   66.8128  227.4946 H   0  0  0  0  0  0  0  0  0  0  0  0
  138.4962   67.5750  225.4087 H   0  0  0  0  0  0  0  0  0  0  0  0
  1  2  2  0
  2  3  1  0
  3  4  1  0
  4  5  1  0
  5  6  2  0
  5  7  1  0
  7  8  1  0
  8  9  1  0
  9 10  1  0
 10 11  2  0
 11 12  1  0
 12 13  2  0
 13 14  1  0
 14 15  2  0
  9 16  1  0
 16 17  1  0
 17 18  1  0
 18 19  1  0
  2 20  1  0
 20 21  2  0
 21 22  1  0
 22 23  2  0
 23 24  1  0
 24 25  2  0
 25 26  1  0
 25 27  1  0
 27 28  2  0
 28 29  1  0
 29 30  2  0
 17  7  1  0
 30 20  1  0
 15 10  1  0
 29 23  1  0
  3 31  1  0
  4 32  1  0
  4 33  1  0
  8 34  1  0
  8 35  1  0
  9 36  1  1
 11 37  1  0
 12 38  1  0
 13 39  1  0
 14 40  1  0
 15 41  1  0
 16 42  1  0
 16 43  1  0
 17 44  1  6
 18 45  1  0
 18 46  1  0
 19 47  1  0
 21 48  1  0
 22 49  1  0
 24 50  1  0
 27 51  1  0
 28 52  1  0
M  END
>  <smiles>  (40) 
O=C(NCC(=O)N1C[C@H](c2ccccc2)C[C@H]1CO)c1ccc2cc(F)ccc2n1

>  <score_type>  (40) 
oracle

>  <origin>  (40) 
autodockgpu

>  <m_score__min__energy>  (40) 
-9.0299999999999994

>  <m_primary>  (40) 
energy

>  <rmsd>  (40) 
3.277504384010256

>  <m_score__min__rmsd>  (40) 
3.277504384010256

>  <meeko>  (40) 
{"free_energy": -8.26, "intermolecular_energy": -10.34, "internal_energy": -1.65, "cluster_size": 40, "cluster_id": 1, "rank_in_cluster": 17}

>  <energy>  (40) 
-7.52

>  <cluster_rmsd>  (40) 
1.7

>  <cluster>  (40) 
1

$$$$

     RDKit          3D

 52 55  0  0  0  0  0  0  0  0999 V2000
  137.2570   70.7050  221.4320 O   0  0  0  0  0  0  0  0  0  0  0  0
  137.8200   71.4080  222.3230 C   0  0  0  0  0  0  0  0  0  0  0  0
  137.8130   72.8140  222.1130 N   0  0  0  0  0  0  0  0  0  0  0  0
  137.1580   73.3150  220.8910 C   0  0  0  0  0  0  0  0  0  0  0  0
  137.9520   74.4060  220.3420 C   0  0  0  0  0  0  0  0  0  0  0  0
  137.6150   74.8610  219.1970 O   0  0  0  0  0  0  0  0  0  0  0  0
  139.0770   75.0220  220.9560 N   0  0  0  0  0  0  0  0  0  0  0  0
  138.9300   76.0550  221.9580 C   0  0  0  0  0  0  0  0  0  0  0  0
  140.3250   76.4080  222.3490 C   0  0  2  0  0  0  0  0  0  0  0  0
  140.4530   77.8540  222.7270 C   0  0  0  0  0  0  0  0  0  0  0  0
  139.3730   78.7120  222.7100 C   0  0  0  0  0  0  0  0  0  0  0  0
  139.5350   80.0470  223.0670 C   0  0  0  0  0  0  0  0  0  0  0  0
  140.7890   80.5100  223.4410 C   0  0  0  0  0  0  0  0  0  0  0  0
  141.8850   79.6670  223.4650 C   0  0  0  0  0  0  0  0  0  0  0  0
  141.6980   78.3440  223.1050 C   0  0  0  0  0  0  0  0  0  0  0  0
  141.1300   76.0950  221.1200 C   0  0  0  0  0  0  0  0  0  0  0  0
  140.4760   74.7670  220.7080 C   0  0  1  0  0  0  0  0  0  0  0  0
  141.0920   73.6960  221.5410 C   0  0  0  0  0  0  0  0  0  0  0  0
  140.4050   73.3610  222.6920 O   0  0  0  0  0  0  0  0  0  0  0  0
  138.4370   70.8160  223.4930 C   0  0  0  0  0  0  0  0  0  0  0  0
  138.2410   69.4810  223.7630 C   0  0  0  0  0  0  0  0  0  0  0  0
  138.7890   68.8350  224.8510 C   0  0  0  0  0  0  0  0  0  0  0  0
  139.5750   69.6040  225.7000 C   0  0  0  0  0  0  0  0  0  0  0  0
  140.1520   69.0310  226.8000 C   0  0  0  0  0  0  0  0  0  0  0  0
  140.9380   69.7810  227.6550 C   0  0  0  0  0  0  0  0  0  0  0  0
  141.4690   69.1370  228.7180 F   0  0  0  0  0  0  0  0  0  0  0  0
  141.1450   71.1190  227.4020 C   0  0  0  0  0  0  0  0  0  0  0  0
  140.5550   71.6790  226.2860 C   0  0  0  0  0  0  0  0  0  0  0  0
  139.7720   70.9300  225.4340 C   0  0  0  0  0  0  0  0  0  0  0  0
  139.2140   71.5120  224.3560 N   0  0  0  0  0  0  0  0  0  0  0  0
  138.2560   73.4570  222.8010 H   0  0  0  0  0  0  0  0  0  0  0  0
  137.0852   72.5034  220.1521 H   0  0  0  0  0  0  0  0  0  0  0  0
  136.1468   73.6751  221.1316 H   0  0  0  0  0  0  0  0  0  0  0  0
  138.4118   76.9302  221.5391 H   0  0  0  0  0  0  0  0  0  0  0  0
  138.3308   75.7181  222.8168 H   0  0  0  0  0  0  0  0  0  0  0  0
  140.6617   75.8521  223.2365 H   0  0  0  0  0  0  0  0  0  0  0  0
  138.3813   78.3398  222.4135 H   0  0  0  0  0  0  0  0  0  0  0  0
  138.6742   80.7317  223.0529 H   0  0  0  0  0  0  0  0  0  0  0  0
  140.9131   81.5659  223.7232 H   0  0  0  0  0  0  0  0  0  0  0  0
  142.8772   80.0376  223.7618 H   0  0  0  0  0  0  0  0  0  0  0  0
  142.5595   77.6601  223.1183 H   0  0  0  0  0  0  0  0  0  0  0  0
  141.0107   76.8670  220.3456 H   0  0  0  0  0  0  0  0  0  0  0  0
  142.2178   76.0483  221.2765 H   0  0  0  0  0  0  0  0  0  0  0  0
  140.6113   74.4319  219.6690 H   0  0  0  0  0  0  0  0  0  0  0  0
  141.1739   72.7910  220.9211 H   0  0  0  0  0  0  0  0  0  0  0  0
  142.0599   74.0970  221.8762 H   0  0  0  0  0  0  0  0  0  0  0  0
  140.0590   72.4390  222.6980 H   0  0  0  0  0  0  0  0  0  0  0  0
  137.6131   68.8975  223.0735 H   0  0  0  0  0  0  0  0  0  0  0  0
  138.6128   67.7653  225.0372 H   0  0  0  0  0  0  0  0  0  0  0  0
  139.9890   67.9629  227.0063 H   0  0  0  0  0  0  0  0  0  0  0  0
  141.7668   71.7283  228.0743 H   0  0  0  0  0  0  0  0  0  0  0  0
  140.7134   72.7464  226.0723 H   0  0  0  0  0  0  0  0  0  0  0  0
  1  2  2  0
  2  3  1  0
  3  4  1  0
  4  5  1  0
  5  6  2  0
  5  7  1  0
  7  8  1  0
  8  9  1  0
  9 10  1  0
 10 11  2  0
 11 12  1  0
 12 13  2  0
 13 14  1  0
 14 15  2  0
  9 16  1  0
 16 17  1  0
 17 18  1  0
 18 19  1  0
  2 20  1  0
 20 21  2  0
 21 22  1  0
 22 23  2  0
 23 24  1  0
 24 25  2  0
 25 26  1  0
 25 27  1  0
 27 28  2  0
 28 29  1  0
 29 30  2  0
 17  7  1  0
 30 20  1  0
 15 10  1  0
 29 23  1  0
  3 31  1  0
  4 32  1  0
  4 33  1  0
  8 34  1  0
  8 35  1  0
  9 36  1  1
 11 37  1  0
 12 38  1  0
 13 39  1  0
 14 40  1  0
 15 41  1  0
 16 42  1  0
 16 43  1  0
 17 44  1  6
 18 45  1  0
 18 46  1  0
 19 47  1  0
 21 48  1  0
 22 49  1  0
 24 50  1  0
 27 51  1  0
 28 52  1  0
M  END
>  <smiles>  (41) 
O=C(NCC(=O)N1C[C@H](c2ccccc2)C[C@H]1CO)c1ccc2cc(F)ccc2n1

>  <score_type>  (41) 
oracle

>  <origin>  (41) 
autodockgpu

>  <m_score__min__energy>  (41) 
-9.0299999999999994

>  <m_primary>  (41) 
energy

>  <rmsd>  (41) 
2.5823143876001717

>  <m_score__min__rmsd>  (41) 
2.5823143876001717

>  <meeko>  (41) 
{"free_energy": -7.73, "intermolecular_energy": -9.82, "internal_energy": -3.08, "cluster_size": 40, "cluster_id": 1, "rank_in_cluster": 38}

>  <energy>  (41) 
-8.72

>  <cluster_rmsd>  (41) 
0.0

>  <cluster>  (41) 
2

$$$$

     RDKit          3D

 52 55  0  0  0  0  0  0  0  0999 V2000
  140.8810   73.0740  222.3260 O   0  0  0  0  0  0  0  0  0  0  0  0
  139.8490   72.5460  222.8370 C   0  0  0  0  0  0  0  0  0  0  0  0
  138.5980   72.9790  222.3200 N   0  0  0  0  0  0  0  0  0  0  0  0
  138.6190   73.9920  221.2490 C   0  0  0  0  0  0  0  0  0  0  0  0
  138.7600   75.3110  221.8480 C   0  0  0  0  0  0  0  0  0  0  0  0
  137.8770   75.6700  222.6990 O   0  0  0  0  0  0  0  0  0  0  0  0
  139.7910   76.2540  221.5780 N   0  0  0  0  0  0  0  0  0  0  0  0
  140.4320   77.0070  222.6330 C   0  0  0  0  0  0  0  0  0  0  0  0
  141.4470   77.8490  221.9380 C   0  0  2  0  0  0  0  0  0  0  0  0
  141.6560   79.1630  222.6290 C   0  0  0  0  0  0  0  0  0  0  0  0
  142.8990   79.5670  223.0700 C   0  0  0  0  0  0  0  0  0  0  0  0
  143.0490   80.7950  223.7080 C   0  0  0  0  0  0  0  0  0  0  0  0
  141.9410   81.6100  223.8980 C   0  0  0  0  0  0  0  0  0  0  0  0
  140.6860   81.2240  223.4630 C   0  0  0  0  0  0  0  0  0  0  0  0
  140.5630   79.9990  222.8320 C   0  0  0  0  0  0  0  0  0  0  0  0
  140.8700   78.0430  220.5640 C   0  0  0  0  0  0  0  0  0  0  0  0
  140.3450   76.6240  220.2970 C   0  0  1  0  0  0  0  0  0  0  0  0
  141.5010   75.8060  219.8350 C   0  0  0  0  0  0  0  0  0  0  0  0
  142.0990   75.0160  220.7980 O   0  0  0  0  0  0  0  0  0  0  0  0
  139.9360   71.5530  223.8900 C   0  0  0  0  0  0  0  0  0  0  0  0
  139.4950   70.2720  223.6540 C   0  0  0  0  0  0  0  0  0  0  0  0
  139.5400   69.2660  224.5950 C   0  0  0  0  0  0  0  0  0  0  0  0
  140.0630   69.5980  225.8380 C   0  0  0  0  0  0  0  0  0  0  0  0
  140.1380   68.6510  226.8210 C   0  0  0  0  0  0  0  0  0  0  0  0
  140.6570   68.9650  228.0640 C   0  0  0  0  0  0  0  0  0  0  0  0
  140.6940   67.9710  228.9790 F   0  0  0  0  0  0  0  0  0  0  0  0
  141.1030   70.2440  228.3200 C   0  0  0  0  0  0  0  0  0  0  0  0
  141.0190   71.1860  227.3140 C   0  0  0  0  0  0  0  0  0  0  0  0
  140.5020   70.8710  226.0750 C   0  0  0  0  0  0  0  0  0  0  0  0
  140.4360   71.8170  225.1200 N   0  0  0  0  0  0  0  0  0  0  0  0
  137.7060   72.5910  222.6890 H   0  0  0  0  0  0  0  0  0  0  0  0
  139.4676   73.7998  220.5760 H   0  0  0  0  0  0  0  0  0  0  0  0
  137.6834   73.9433  220.6726 H   0  0  0  0  0  0  0  0  0  0  0  0
  139.6999   77.6376  223.1587 H   0  0  0  0  0  0  0  0  0  0  0  0
  140.8851   76.3534  223.3930 H   0  0  0  0  0  0  0  0  0  0  0  0
  142.4401   77.3761  221.9242 H   0  0  0  0  0  0  0  0  0  0  0  0
  143.7735   78.9174  222.9172 H   0  0  0  0  0  0  0  0  0  0  0  0
  144.0399   81.1180  224.0597 H   0  0  0  0  0  0  0  0  0  0  0  0
  142.0634   82.5794  224.4032 H   0  0  0  0  0  0  0  0  0  0  0  0
  139.8106   81.8726  223.6145 H   0  0  0  0  0  0  0  0  0  0  0  0
  139.5718   79.6767  222.4805 H   0  0  0  0  0  0  0  0  0  0  0  0
  140.0590   78.7861  220.5623 H   0  0  0  0  0  0  0  0  0  0  0  0
  141.5764   78.4263  219.8130 H   0  0  0  0  0  0  0  0  0  0  0  0
  139.5808   76.5010  219.5154 H   0  0  0  0  0  0  0  0  0  0  0  0
  141.1476   75.1466  219.0286 H   0  0  0  0  0  0  0  0  0  0  0  0
  142.2700   76.5258  219.5179 H   0  0  0  0  0  0  0  0  0  0  0  0
  141.6060   74.9790  221.6500 H   0  0  0  0  0  0  0  0  0  0  0  0
  139.0842   70.0377  222.6608 H   0  0  0  0  0  0  0  0  0  0  0  0
  139.1796   68.2508  224.3726 H   0  0  0  0  0  0  0  0  0  0  0  0
  139.7822   67.6294  226.6215 H   0  0  0  0  0  0  0  0  0  0  0  0
  141.5168   70.5084  229.3043 H   0  0  0  0  0  0  0  0  0  0  0  0
  141.3722   72.2101  227.5050 H   0  0  0  0  0  0  0  0  0  0  0  0
  1  2  2  0
  2  3  1  0
  3  4  1  0
  4  5  1  0
  5  6  2  0
  5  7  1  0
  7  8  1  0
  8  9  1  0
  9 10  1  0
 10 11  2  0
 11 12  1  0
 12 13  2  0
 13 14  1  0
 14 15  2  0
  9 16  1  0
 16 17  1  0
 17 18  1  0
 18 19  1  0
  2 20  1  0
 20 21  2  0
 21 22  1  0
 22 23  2  0
 23 24  1  0
 24 25  2  0
 25 26  1  0
 25 27  1  0
 27 28  2  0
 28 29  1  0
 29 30  2  0
 17  7  1  0
 30 20  1  0
 15 10  1  0
 29 23  1  0
  3 31  1  0
  4 32  1  0
  4 33  1  0
  8 34  1  0
  8 35  1  0
  9 36  1  6
 11 37  1  0
 12 38  1  0
 13 39  1  0
 14 40  1  0
 15 41  1  0
 16 42  1  0
 16 43  1  0
 17 44  1  6
 18 45  1  0
 18 46  1  0
 19 47  1  0
 21 48  1  0
 22 49  1  0
 24 50  1  0
 27 51  1  0
 28 52  1  0
M  END
>  <smiles>  (42) 
O=C(NCC(=O)N1C[C@H](c2ccccc2)C[C@H]1CO)c1ccc2cc(F)ccc2n1

>  <score_type>  (42) 
oracle

>  <origin>  (42) 
autodockgpu

>  <m_score__min__energy>  (42) 
-9.0299999999999994

>  <m_primary>  (42) 
energy

>  <rmsd>  (42) 
2.653842744964874

>  <m_score__min__rmsd>  (42) 
2.653842744964874

>  <meeko>  (42) 
{"free_energy": -8.57, "intermolecular_energy": -10.65, "internal_energy": -2.17, "cluster_size": 40, "cluster_id": 1, "rank_in_cluster": 9}

>  <energy>  (42) 
-8.68

>  <cluster_rmsd>  (42) 
0.22

>  <cluster>  (42) 
2

$$$$

     RDKit          3D

 52 55  0  0  0  0  0  0  0  0999 V2000
  137.3220   70.2510  221.7950 O   0  0  0  0  0  0  0  0  0  0  0  0
  137.8550   70.9930  222.6720 C   0  0  0  0  0  0  0  0  0  0  0  0
  137.7440   72.3950  222.4630 N   0  0  0  0  0  0  0  0  0  0  0  0
  137.0250   72.8470  221.2590 C   0  0  0  0  0  0  0  0  0  0  0  0
  137.6820   74.0370  220.7350 C   0  0  0  0  0  0  0  0  0  0  0  0
  137.0390   74.7360  219.8800 O   0  0  0  0  0  0  0  0  0  0  0  0
  138.9800   74.5040  221.0780 N   0  0  0  0  0  0  0  0  0  0  0  0
  139.1770   75.7010  221.8660 C   0  0  0  0  0  0  0  0  0  0  0  0
  140.6560   75.8210  222.0140 C   0  0  2  0  0  0  0  0  0  0  0  0
  141.0990   77.2520  222.0810 C   0  0  0  0  0  0  0  0  0  0  0  0
  141.3790   77.8740  223.2790 C   0  0  0  0  0  0  0  0  0  0  0  0
  141.7870   79.2050  223.2980 C   0  0  0  0  0  0  0  0  0  0  0  0
  141.9100   79.9020  222.1030 C   0  0  0  0  0  0  0  0  0  0  0  0
  141.6340   79.2970  220.8910 C   0  0  0  0  0  0  0  0  0  0  0  0
  141.2310   77.9730  220.8990 C   0  0  0  0  0  0  0  0  0  0  0  0
  141.1940   75.1430  220.7850 C   0  0  0  0  0  0  0  0  0  0  0  0
  140.2560   73.9280  220.7240 C   0  0  1  0  0  0  0  0  0  0  0  0
  140.7890   72.9120  221.6740 C   0  0  0  0  0  0  0  0  0  0  0  0
  140.3140   72.9940  222.9690 O   0  0  0  0  0  0  0  0  0  0  0  0
  138.5420   70.4470  223.8260 C   0  0  0  0  0  0  0  0  0  0  0  0
  138.5750   69.0850  224.0160 C   0  0  0  0  0  0  0  0  0  0  0  0
  139.2040   68.4800  225.0830 C   0  0  0  0  0  0  0  0  0  0  0  0
  139.8280   69.3200  225.9960 C   0  0  0  0  0  0  0  0  0  0  0  0
  140.4730   68.7900  227.0800 C   0  0  0  0  0  0  0  0  0  0  0  0
  141.1000   69.6110  227.9980 C   0  0  0  0  0  0  0  0  0  0  0  0
  141.7120   69.0070  229.0400 F   0  0  0  0  0  0  0  0  0  0  0  0
  141.0770   70.9790  227.8250 C   0  0  0  0  0  0  0  0  0  0  0  0
  140.4220   71.4940  226.7250 C   0  0  0  0  0  0  0  0  0  0  0  0
  139.7980   70.6740  225.8090 C   0  0  0  0  0  0  0  0  0  0  0  0
  139.1690   71.2140  224.7490 N   0  0  0  0  0  0  0  0  0  0  0  0
  138.1570   73.0680  223.1410 H   0  0  0  0  0  0  0  0  0  0  0  0
  137.0410   72.0517  220.4992 H   0  0  0  0  0  0  0  0  0  0  0  0
  135.9808   73.0802  221.5144 H   0  0  0  0  0  0  0  0  0  0  0  0
  138.7672   76.5792  221.3456 H   0  0  0  0  0  0  0  0  0  0  0  0
  138.6656   75.6466  222.8384 H   0  0  0  0  0  0  0  0  0  0  0  0
  141.0187   75.3680  222.9485 H   0  0  0  0  0  0  0  0  0  0  0  0
  141.2798   77.3172  224.2225 H   0  0  0  0  0  0  0  0  0  0  0  0
  142.0106   79.7016  224.2537 H   0  0  0  0  0  0  0  0  0  0  0  0
  142.2326   80.9535  222.1212 H   0  0  0  0  0  0  0  0  0  0  0  0
  141.7320   79.8524  219.9466 H   0  0  0  0  0  0  0  0  0  0  0  0
  141.0087   77.4766  219.9429 H   0  0  0  0  0  0  0  0  0  0  0  0
  141.0985   75.7786  219.8923 H   0  0  0  0  0  0  0  0  0  0  0  0
  142.2665   74.9012  220.8192 H   0  0  0  0  0  0  0  0  0  0  0  0
  140.1677   73.3994  219.7634 H   0  0  0  0  0  0  0  0  0  0  0  0
  140.5328   71.9164  221.2826 H   0  0  0  0  0  0  0  0  0  0  0  0
  141.8706   73.1014  221.7392 H   0  0  0  0  0  0  0  0  0  0  0  0
  139.5320   73.5830  223.0730 H   0  0  0  0  0  0  0  0  0  0  0  0
  138.0724   68.4441  223.2767 H   0  0  0  0  0  0  0  0  0  0  0  0
  139.2113   67.3868  225.2051 H   0  0  0  0  0  0  0  0  0  0  0  0
  140.4927   67.6994  227.2223 H   0  0  0  0  0  0  0  0  0  0  0  0
  141.5701   71.6452  228.5482 H   0  0  0  0  0  0  0  0  0  0  0  0
  140.3972   72.5835  226.5756 H   0  0  0  0  0  0  0  0  0  0  0  0
  1  2  2  0
  2  3  1  0
  3  4  1  0
  4  5  1  0
  5  6  2  0
  5  7  1  0
  7  8  1  0
  8  9  1  0
  9 10  1  0
 10 11  2  0
 11 12  1  0
 12 13  2  0
 13 14  1  0
 14 15  2  0
  9 16  1  0
 16 17  1  0
 17 18  1  0
 18 19  1  0
  2 20  1  0
 20 21  2  0
 21 22  1  0
 22 23  2  0
 23 24  1  0
 24 25  2  0
 25 26  1  0
 25 27  1  0
 27 28  2  0
 28 29  1  0
 29 30  2  0
 17  7  1  0
 30 20  1  0
 15 10  1  0
 29 23  1  0
  3 31  1  0
  4 32  1  0
  4 33  1  0
  8 34  1  0
  8 35  1  0
  9 36  1  1
 11 37  1  0
 12 38  1  0
 13 39  1  0
 14 40  1  0
 15 41  1  0
 16 42  1  0
 16 43  1  0
 17 44  1  6
 18 45  1  0
 18 46  1  0
 19 47  1  0
 21 48  1  0
 22 49  1  0
 24 50  1  0
 27 51  1  0
 28 52  1  0
M  END
>  <smiles>  (43) 
O=C(NCC(=O)N1C[C@H](c2ccccc2)C[C@H]1CO)c1ccc2cc(F)ccc2n1

>  <score_type>  (43) 
oracle

>  <origin>  (43) 
autodockgpu

>  <m_score__min__energy>  (43) 
-9.0299999999999994

>  <m_primary>  (43) 
energy

>  <rmsd>  (43) 
2.6143587476898835

>  <m_score__min__rmsd>  (43) 
2.6143587476898835

>  <meeko>  (43) 
{"free_energy": -8.09, "intermolecular_energy": -10.18, "internal_energy": -2.47, "cluster_size": 40, "cluster_id": 1, "rank_in_cluster": 26}

>  <energy>  (43) 
-8.68

>  <cluster_rmsd>  (43) 
1.02

>  <cluster>  (43) 
2

$$$$

     RDKit          3D

 52 55  0  0  0  0  0  0  0  0999 V2000
  142.1020   74.0710  221.2140 O   0  0  0  0  0  0  0  0  0  0  0  0
  140.8580   74.2830  221.3140 C   0  0  0  0  0  0  0  0  0  0  0  0
  140.0030   73.2170  220.9190 N   0  0  0  0  0  0  0  0  0  0  0  0
  140.6400   71.9780  220.4380 C   0  0  0  0  0  0  0  0  0  0  0  0
  140.0540   70.8420  221.1350 C   0  0  0  0  0  0  0  0  0  0  0  0
  140.0540   69.7160  220.5310 O   0  0  0  0  0  0  0  0  0  0  0  0
  139.4730   70.8580  222.4330 N   0  0  0  0  0  0  0  0  0  0  0  0
  140.2450   71.1850  223.6120 C   0  0  0  0  0  0  0  0  0  0  0  0
  139.2710   71.1080  224.7380 C   0  0  2  0  0  0  0  0  0  0  0  0
  139.9210   70.6530  226.0110 C   0  0  0  0  0  0  0  0  0  0  0  0
  140.4770   71.5420  226.9060 C   0  0  0  0  0  0  0  0  0  0  0  0
  141.0710   71.0780  228.0760 C   0  0  0  0  0  0  0  0  0  0  0  0
  141.1000   69.7150  228.3370 C   0  0  0  0  0  0  0  0  0  0  0  0
  140.5480   68.8060  227.4530 C   0  0  0  0  0  0  0  0  0  0  0  0
  139.9630   69.2920  226.2970 C   0  0  0  0  0  0  0  0  0  0  0  0
  138.2520   70.1120  224.2620 C   0  0  0  0  0  0  0  0  0  0  0  0
  138.1080   70.5610  222.8000 C   0  0  1  0  0  0  0  0  0  0  0  0
  137.1710   71.7200  222.7860 C   0  0  0  0  0  0  0  0  0  0  0  0
  137.7020   72.9140  222.3400 O   0  0  0  0  0  0  0  0  0  0  0  0
  140.3290   75.5410  221.8020 C   0  0  0  0  0  0  0  0  0  0  0  0
  138.9690   75.7390  221.8370 C   0  0  0  0  0  0  0  0  0  0  0  0
  138.3790   76.9020  222.2850 C   0  0  0  0  0  0  0  0  0  0  0  0
  139.2350   77.9070  222.7180 C   0  0  0  0  0  0  0  0  0  0  0  0
  138.7210   79.0890  223.1770 C   0  0  0  0  0  0  0  0  0  0  0  0
  139.5580   80.0990  223.6120 C   0  0  0  0  0  0  0  0  0  0  0  0
  138.9690   81.2340  224.0480 F   0  0  0  0  0  0  0  0  0  0  0  0
  140.9250   79.9200  223.5850 C   0  0  0  0  0  0  0  0  0  0  0  0
  141.4240   78.7200  223.1190 C   0  0  0  0  0  0  0  0  0  0  0  0
  140.5880   77.7130  222.6860 C   0  0  0  0  0  0  0  0  0  0  0  0
  141.1120   76.5570  222.2380 N   0  0  0  0  0  0  0  0  0  0  0  0
  138.9690   73.3160  220.9730 H   0  0  0  0  0  0  0  0  0  0  0  0
  140.4723   71.8732  219.3559 H   0  0  0  0  0  0  0  0  0  0  0  0
  141.7218   72.0162  220.6337 H   0  0  0  0  0  0  0  0  0  0  0  0
  141.0603   70.4605  223.7546 H   0  0  0  0  0  0  0  0  0  0  0  0
  140.7168   72.1759  223.5379 H   0  0  0  0  0  0  0  0  0  0  0  0
  138.8333   72.0883  224.9776 H   0  0  0  0  0  0  0  0  0  0  0  0
  140.4511   72.6212  226.6948 H   0  0  0  0  0  0  0  0  0  0  0  0
  141.5150   71.7874  228.7899 H   0  0  0  0  0  0  0  0  0  0  0  0
  141.5701   69.3517  229.2628 H   0  0  0  0  0  0  0  0  0  0  0  0
  140.5733   67.7265  227.6630 H   0  0  0  0  0  0  0  0  0  0  0  0
  139.5185   68.5822  225.5839 H   0  0  0  0  0  0  0  0  0  0  0  0
  138.6233   69.0793  224.3378 H   0  0  0  0  0  0  0  0  0  0  0  0
  137.3146   70.0953  224.8374 H   0  0  0  0  0  0  0  0  0  0  0  0
  137.6816   69.8426  222.0844 H   0  0  0  0  0  0  0  0  0  0  0  0
  136.3241   71.4620  222.1332 H   0  0  0  0  0  0  0  0  0  0  0  0
  136.8895   71.8906  223.8356 H   0  0  0  0  0  0  0  0  0  0  0  0
  138.1550   73.4380  223.0400 H   0  0  0  0  0  0  0  0  0  0  0  0
  138.3159   74.9253  221.4886 H   0  0  0  0  0  0  0  0  0  0  0  0
  137.2863   77.0277  222.2989 H   0  0  0  0  0  0  0  0  0  0  0  0
  137.6312   79.2368  223.2000 H   0  0  0  0  0  0  0  0  0  0  0  0
  141.6030   80.7158  223.9272 H   0  0  0  0  0  0  0  0  0  0  0  0
  142.5126   78.5640  223.0926 H   0  0  0  0  0  0  0  0  0  0  0  0
  1  2  2  0
  2  3  1  0
  3  4  1  0
  4  5  1  0
  5  6  2  0
  5  7  1  0
  7  8  1  0
  8  9  1  0
  9 10  1  0
 10 11  2  0
 11 12  1  0
 12 13  2  0
 13 14  1  0
 14 15  2  0
  9 16  1  0
 16 17  1  0
 17 18  1  0
 18 19  1  0
  2 20  1  0
 20 21  2  0
 21 22  1  0
 22 23  2  0
 23 24  1  0
 24 25  2  0
 25 26  1  0
 25 27  1  0
 27 28  2  0
 28 29  1  0
 29 30  2  0
 17  7  1  0
 30 20  1  0
 15 10  1  0
 29 23  1  0
  3 31  1  0
  4 32  1  0
  4 33  1  0
  8 34  1  0
  8 35  1  0
  9 36  1  1
 11 37  1  0
 12 38  1  0
 13 39  1  0
 14 40  1  0
 15 41  1  0
 16 42  1  0
 16 43  1  0
 17 44  1  6
 18 45  1  0
 18 46  1  0
 19 47  1  0
 21 48  1  0
 22 49  1  0
 24 50  1  0
 27 51  1  0
 28 52  1  0
M  END
>  <smiles>  (44) 
O=C(NCC(=O)N1C[C@H](c2ccccc2)C[C@H]1CO)c1ccc2cc(F)ccc2n1

>  <score_type>  (44) 
oracle

>  <origin>  (44) 
autodockgpu

>  <m_score__min__energy>  (44) 
-9.0299999999999994

>  <m_primary>  (44) 
energy

>  <rmsd>  (44) 
8.003493080376732

>  <m_score__min__rmsd>  (44) 
8.003493080376732

>  <meeko>  (44) 
{"free_energy": -7.71, "intermolecular_energy": -9.8, "internal_energy": -2.33, "cluster_size": 10, "cluster_id": 2, "rank_in_cluster": 9}

>  <energy>  (44) 
-8.67

>  <cluster_rmsd>  (44) 
1.05

>  <cluster>  (44) 
2

$$$$

     RDKit          3D

 52 55  0  0  0  0  0  0  0  0999 V2000
  137.6600   70.8860  221.3130 O   0  0  0  0  0  0  0  0  0  0  0  0
  138.0890   71.5000  222.3340 C   0  0  0  0  0  0  0  0  0  0  0  0
  138.0190   72.9190  222.2910 N   0  0  0  0  0  0  0  0  0  0  0  0
  137.4600   73.5350  221.0740 C   0  0  0  0  0  0  0  0  0  0  0  0
  137.9520   74.9010  220.9660 C   0  0  0  0  0  0  0  0  0  0  0  0
  137.1330   75.7910  220.5530 O   0  0  0  0  0  0  0  0  0  0  0  0
  139.2650   75.3520  221.2750 N   0  0  0  0  0  0  0  0  0  0  0  0
  139.5010   76.4510  222.1850 C   0  0  0  0  0  0  0  0  0  0  0  0
  140.9840   76.5840  222.2450 C   0  0  2  0  0  0  0  0  0  0  0  0
  141.4130   78.0060  222.4520 C   0  0  0  0  0  0  0  0  0  0  0  0
  141.7570   78.4910  223.6970 C   0  0  0  0  0  0  0  0  0  0  0  0
  142.1490   79.8190  223.8460 C   0  0  0  0  0  0  0  0  0  0  0  0
  142.1910   80.6510  222.7350 C   0  0  0  0  0  0  0  0  0  0  0  0
  141.8490   80.1850  221.4790 C   0  0  0  0  0  0  0  0  0  0  0  0
  141.4630   78.8620  221.3560 C   0  0  0  0  0  0  0  0  0  0  0  0
  141.4440   76.0680  220.9110 C   0  0  0  0  0  0  0  0  0  0  0  0
  140.5200   74.8490  220.7680 C   0  0  1  0  0  0  0  0  0  0  0  0
  141.1310   73.7390  221.5530 C   0  0  0  0  0  0  0  0  0  0  0  0
  140.4710   73.3920  222.7150 O   0  0  0  0  0  0  0  0  0  0  0  0
  138.6220   70.7980  223.4850 C   0  0  0  0  0  0  0  0  0  0  0  0
  138.3860   69.4510  223.6290 C   0  0  0  0  0  0  0  0  0  0  0  0
  138.8530   68.7050  224.6910 C   0  0  0  0  0  0  0  0  0  0  0  0
  139.5980   69.3820  225.6470 C   0  0  0  0  0  0  0  0  0  0  0  0
  140.0950   68.7060  226.7280 C   0  0  0  0  0  0  0  0  0  0  0  0
  140.8390   69.3650  227.6890 C   0  0  0  0  0  0  0  0  0  0  0  0
  141.2920   68.6230  228.7250 F   0  0  0  0  0  0  0  0  0  0  0  0
  141.0860   70.7150  227.5630 C   0  0  0  0  0  0  0  0  0  0  0  0
  140.5770   71.3790  226.4640 C   0  0  0  0  0  0  0  0  0  0  0  0
  139.8350   70.7210  225.5060 C   0  0  0  0  0  0  0  0  0  0  0  0
  139.3550   71.4030  224.4500 N   0  0  0  0  0  0  0  0  0  0  0  0
  138.3520   73.4930  223.0920 H   0  0  0  0  0  0  0  0  0  0  0  0
  137.7742   72.9589  220.1912 H   0  0  0  0  0  0  0  0  0  0  0  0
  136.3614   73.5387  221.1300 H   0  0  0  0  0  0  0  0  0  0  0  0
  139.0442   77.3757  221.8025 H   0  0  0  0  0  0  0  0  0  0  0  0
  139.0599   76.2711  223.1765 H   0  0  0  0  0  0  0  0  0  0  0  0
  141.4161   76.0312  223.0922 H   0  0  0  0  0  0  0  0  0  0  0  0
  141.7216   77.8274  224.5736 H   0  0  0  0  0  0  0  0  0  0  0  0
  142.4238   80.2067  224.8381 H   0  0  0  0  0  0  0  0  0  0  0  0
  142.5018   81.6992  222.8563 H   0  0  0  0  0  0  0  0  0  0  0  0
  141.8829   80.8478  220.6017 H   0  0  0  0  0  0  0  0  0  0  0  0
  141.1878   78.4758  220.3635 H   0  0  0  0  0  0  0  0  0  0  0  0
  141.2786   76.8027  220.1092 H   0  0  0  0  0  0  0  0  0  0  0  0
  142.5194   75.8465  220.8440 H   0  0  0  0  0  0  0  0  0  0  0  0
  140.3722   74.4363  219.7591 H   0  0  0  0  0  0  0  0  0  0  0  0
  141.1682   72.8493  220.9072 H   0  0  0  0  0  0  0  0  0  0  0  0
  142.1197   74.1041  221.8680 H   0  0  0  0  0  0  0  0  0  0  0  0
  140.3800   72.4210  222.8500 H   0  0  0  0  0  0  0  0  0  0  0  0
  137.7929   68.9410  222.8556 H   0  0  0  0  0  0  0  0  0  0  0  0
  138.6456   67.6281  224.7762 H   0  0  0  0  0  0  0  0  0  0  0  0
  139.9008   67.6284  226.8333 H   0  0  0  0  0  0  0  0  0  0  0  0
  141.6754   71.2518  228.3209 H   0  0  0  0  0  0  0  0  0  0  0  0
  140.7677   72.4564  226.3505 H   0  0  0  0  0  0  0  0  0  0  0  0
  1  2  2  0
  2  3  1  0
  3  4  1  0
  4  5  1  0
  5  6  2  0
  5  7  1  0
  7  8  1  0
  8  9  1  0
  9 10  1  0
 10 11  2  0
 11 12  1  0
 12 13  2  0
 13 14  1  0
 14 15  2  0
  9 16  1  0
 16 17  1  0
 17 18  1  0
 18 19  1  0
  2 20  1  0
 20 21  2  0
 21 22  1  0
 22 23  2  0
 23 24  1  0
 24 25  2  0
 25 26  1  0
 25 27  1  0
 27 28  2  0
 28 29  1  0
 29 30  2  0
 17  7  1  0
 30 20  1  0
 15 10  1  0
 29 23  1  0
  3 31  1  0
  4 32  1  0
  4 33  1  0
  8 34  1  0
  8 35  1  0
  9 36  1  1
 11 37  1  0
 12 38  1  0
 13 39  1  0
 14 40  1  0
 15 41  1  0
 16 42  1  0
 16 43  1  0
 17 44  1  6
 18 45  1  0
 18 46  1  0
 19 47  1  0
 21 48  1  0
 22 49  1  0
 24 50  1  0
 27 51  1  0
 28 52  1  0
M  END
>  <smiles>  (45) 
O=C(NCC(=O)N1C[C@H](c2ccccc2)C[C@H]1CO)c1ccc2cc(F)ccc2n1

>  <score_type>  (45) 
oracle

>  <origin>  (45) 
autodockgpu

>  <m_score__min__energy>  (45) 
-9.0299999999999994

>  <m_primary>  (45) 
energy

>  <rmsd>  (45) 
2.537700788183168

>  <m_score__min__rmsd>  (45) 
2.537700788183168

>  <meeko>  (45) 
{"free_energy": -8.24, "intermolecular_energy": -10.33, "internal_energy": -2.91, "cluster_size": 40, "cluster_id": 1, "rank_in_cluster": 19}

>  <energy>  (45) 
-8.64

>  <cluster_rmsd>  (45) 
0.29

>  <cluster>  (45) 
2

$$$$

     RDKit          3D

 52 55  0  0  0  0  0  0  0  0999 V2000
  137.6960   70.7680  221.2000 O   0  0  0  0  0  0  0  0  0  0  0  0
  138.0390   71.4240  222.2270 C   0  0  0  0  0  0  0  0  0  0  0  0
  137.9030   72.8370  222.1460 N   0  0  0  0  0  0  0  0  0  0  0  0
  137.3810   73.3990  220.8880 C   0  0  0  0  0  0  0  0  0  0  0  0
  137.7900   74.7920  220.7860 C   0  0  0  0  0  0  0  0  0  0  0  0
  136.9850   75.6020  220.2100 O   0  0  0  0  0  0  0  0  0  0  0  0
  139.0070   75.3520  221.2640 N   0  0  0  0  0  0  0  0  0  0  0  0
  139.0270   76.3690  222.2920 C   0  0  0  0  0  0  0  0  0  0  0  0
  140.4730   76.6600  222.5120 C   0  0  2  0  0  0  0  0  0  0  0  0
  140.7060   78.0910  222.8930 C   0  0  0  0  0  0  0  0  0  0  0  0
  141.9760   78.6140  223.0250 C   0  0  0  0  0  0  0  0  0  0  0  0
  142.1490   79.9480  223.3810 C   0  0  0  0  0  0  0  0  0  0  0  0
  141.0360   80.7490  223.6030 C   0  0  0  0  0  0  0  0  0  0  0  0
  139.7550   80.2450  223.4760 C   0  0  0  0  0  0  0  0  0  0  0  0
  139.6090   78.9150  223.1210 C   0  0  0  0  0  0  0  0  0  0  0  0
  141.1070   76.3400  221.1880 C   0  0  0  0  0  0  0  0  0  0  0  0
  140.3530   75.0470  220.8410 C   0  0  1  0  0  0  0  0  0  0  0  0
  141.0220   73.9360  221.5740 C   0  0  0  0  0  0  0  0  0  0  0  0
  140.3090   73.3970  222.6260 O   0  0  0  0  0  0  0  0  0  0  0  0
  138.5420   70.7740  223.4210 C   0  0  0  0  0  0  0  0  0  0  0  0
  138.1830   69.4740  223.6900 C   0  0  0  0  0  0  0  0  0  0  0  0
  138.6140   68.7790  224.8000 C   0  0  0  0  0  0  0  0  0  0  0  0
  139.4550   69.4580  225.6720 C   0  0  0  0  0  0  0  0  0  0  0  0
  139.9220   68.8310  226.7950 C   0  0  0  0  0  0  0  0  0  0  0  0
  140.7600   69.4930  227.6740 C   0  0  0  0  0  0  0  0  0  0  0  0
  141.1750   68.8010  228.7580 F   0  0  0  0  0  0  0  0  0  0  0  0
  141.1300   70.7960  227.4220 C   0  0  0  0  0  0  0  0  0  0  0  0
  140.6490   71.4110  226.2830 C   0  0  0  0  0  0  0  0  0  0  0  0
  139.8140   70.7500  225.4070 C   0  0  0  0  0  0  0  0  0  0  0  0
  139.3640   71.3840  224.3080 N   0  0  0  0  0  0  0  0  0  0  0  0
  138.1650   73.4440  222.9500 H   0  0  0  0  0  0  0  0  0  0  0  0
  137.7845   72.8328  220.0356 H   0  0  0  0  0  0  0  0  0  0  0  0
  136.2831   73.3322  220.8783 H   0  0  0  0  0  0  0  0  0  0  0  0
  138.4971   77.2718  221.9543 H   0  0  0  0  0  0  0  0  0  0  0  0
  138.5252   76.0381  223.2133 H   0  0  0  0  0  0  0  0  0  0  0  0
  140.8936   76.0741  223.3425 H   0  0  0  0  0  0  0  0  0  0  0  0
  142.8537   77.9749  222.8484 H   0  0  0  0  0  0  0  0  0  0  0  0
  143.1611   80.3658  223.4860 H   0  0  0  0  0  0  0  0  0  0  0  0
  141.1764   81.8030  223.8848 H   0  0  0  0  0  0  0  0  0  0  0  0
  138.8764   80.8830  223.6521 H   0  0  0  0  0  0  0  0  0  0  0  0
  138.5965   78.4980  223.0163 H   0  0  0  0  0  0  0  0  0  0  0  0
  140.9250   77.1311  220.4457 H   0  0  0  0  0  0  0  0  0  0  0  0
  142.2029   76.2478  221.2077 H   0  0  0  0  0  0  0  0  0  0  0  0
  140.3453   74.7273  219.7885 H   0  0  0  0  0  0  0  0  0  0  0  0
  141.2234   73.1292  220.8539 H   0  0  0  0  0  0  0  0  0  0  0  0
  141.9277   74.3736  222.0192 H   0  0  0  0  0  0  0  0  0  0  0  0
  140.2720   72.4130  222.6230 H   0  0  0  0  0  0  0  0  0  0  0  0
  137.5161   68.9611  222.9814 H   0  0  0  0  0  0  0  0  0  0  0  0
  138.3072   67.7391  224.9856 H   0  0  0  0  0  0  0  0  0  0  0  0
  139.6283   67.7911  227.0006 H   0  0  0  0  0  0  0  0  0  0  0  0
  141.7945   71.3350  228.1134 H   0  0  0  0  0  0  0  0  0  0  0  0
  140.9382   72.4507  226.0699 H   0  0  0  0  0  0  0  0  0  0  0  0
  1  2  2  0
  2  3  1  0
  3  4  1  0
  4  5  1  0
  5  6  2  0
  5  7  1  0
  7  8  1  0
  8  9  1  0
  9 10  1  0
 10 11  2  0
 11 12  1  0
 12 13  2  0
 13 14  1  0
 14 15  2  0
  9 16  1  0
 16 17  1  0
 17 18  1  0
 18 19  1  0
  2 20  1  0
 20 21  2  0
 21 22  1  0
 22 23  2  0
 23 24  1  0
 24 25  2  0
 25 26  1  0
 25 27  1  0
 27 28  2  0
 28 29  1  0
 29 30  2  0
 17  7  1  0
 30 20  1  0
 15 10  1  0
 29 23  1  0
  3 31  1  0
  4 32  1  0
  4 33  1  0
  8 34  1  0
  8 35  1  0
  9 36  1  1
 11 37  1  0
 12 38  1  0
 13 39  1  0
 14 40  1  0
 15 41  1  0
 16 42  1  0
 16 43  1  0
 17 44  1  6
 18 45  1  0
 18 46  1  0
 19 47  1  0
 21 48  1  0
 22 49  1  0
 24 50  1  0
 27 51  1  0
 28 52  1  0
M  END
>  <smiles>  (46) 
O=C(NCC(=O)N1C[C@H](c2ccccc2)C[C@H]1CO)c1ccc2cc(F)ccc2n1

>  <score_type>  (46) 
oracle

>  <origin>  (46) 
autodockgpu

>  <m_score__min__energy>  (46) 
-9.0299999999999994

>  <m_primary>  (46) 
energy

>  <rmsd>  (46) 
2.620624146153361

>  <m_score__min__rmsd>  (46) 
2.620624146153361

>  <meeko>  (46) 
{"free_energy": -8.01, "intermolecular_energy": -10.1, "internal_energy": -2.87, "cluster_size": 40, "cluster_id": 1, "rank_in_cluster": 28}

>  <energy>  (46) 
-8.29

>  <cluster_rmsd>  (46) 
0.98

>  <cluster>  (46) 
2

$$$$

     RDKit          3D

 52 55  0  0  0  0  0  0  0  0999 V2000
  139.5800   74.2410  222.3390 O   0  0  0  0  0  0  0  0  0  0  0  0
  140.3090   74.7740  221.4520 C   0  0  0  0  0  0  0  0  0  0  0  0
  140.6770   73.9450  220.3570 N   0  0  0  0  0  0  0  0  0  0  0  0
  140.1790   72.5580  220.3570 C   0  0  0  0  0  0  0  0  0  0  0  0
  140.7530   71.8490  221.4920 C   0  0  0  0  0  0  0  0  0  0  0  0
  142.0210   71.6930  221.5090 O   0  0  0  0  0  0  0  0  0  0  0  0
  140.0390   71.3040  222.5950 N   0  0  0  0  0  0  0  0  0  0  0  0
  140.4250   71.5730  223.9630 C   0  0  0  0  0  0  0  0  0  0  0  0
  139.4240   70.8430  224.7920 C   0  0  2  0  0  0  0  0  0  0  0  0
  140.0150   70.3460  226.0770 C   0  0  0  0  0  0  0  0  0  0  0  0
  140.5730   71.2020  227.0040 C   0  0  0  0  0  0  0  0  0  0  0  0
  141.1110   70.7000  228.1850 C   0  0  0  0  0  0  0  0  0  0  0  0
  141.0830   69.3320  228.4250 C   0  0  0  0  0  0  0  0  0  0  0  0
  140.5280   68.4570  227.5090 C   0  0  0  0  0  0  0  0  0  0  0  0
  140.0000   68.9810  226.3430 C   0  0  0  0  0  0  0  0  0  0  0  0
  138.9960   69.7020  223.9130 C   0  0  0  0  0  0  0  0  0  0  0  0
  138.8880   70.4330  222.5670 C   0  0  1  0  0  0  0  0  0  0  0  0
  137.5640   71.1160  222.5410 C   0  0  0  0  0  0  0  0  0  0  0  0
  137.5990   72.4940  222.6360 O   0  0  0  0  0  0  0  0  0  0  0  0
  140.7470   76.1530  221.5440 C   0  0  0  0  0  0  0  0  0  0  0  0
  141.4750   76.7040  220.5160 C   0  0  0  0  0  0  0  0  0  0  0  0
  141.9320   78.0050  220.5180 C   0  0  0  0  0  0  0  0  0  0  0  0
  141.6230   78.7720  221.6340 C   0  0  0  0  0  0  0  0  0  0  0  0
  142.0430   80.0710  221.7060 C   0  0  0  0  0  0  0  0  0  0  0  0
  141.7430   80.8480  222.8100 C   0  0  0  0  0  0  0  0  0  0  0  0
  142.1970   82.1220  222.8010 F   0  0  0  0  0  0  0  0  0  0  0  0
  141.0150   80.3140  223.8510 C   0  0  0  0  0  0  0  0  0  0  0  0
  140.6000   79.0000  223.7590 C   0  0  0  0  0  0  0  0  0  0  0  0
  140.8990   78.2260  222.6570 C   0  0  0  0  0  0  0  0  0  0  0  0
  140.4770   76.9490  222.6050 N   0  0  0  0  0  0  0  0  0  0  0  0
  141.2750   74.3120  219.5890 H   0  0  0  0  0  0  0  0  0  0  0  0
  139.0821   72.5598  220.4395 H   0  0  0  0  0  0  0  0  0  0  0  0
  140.4694   72.0585  219.4209 H   0  0  0  0  0  0  0  0  0  0  0  0
  141.4397   71.1969  224.1604 H   0  0  0  0  0  0  0  0  0  0  0  0
  140.4418   72.6501  224.1854 H   0  0  0  0  0  0  0  0  0  0  0  0
  138.5865   71.4878  225.0966 H   0  0  0  0  0  0  0  0  0  0  0  0
  140.5926   72.2844  226.8089 H   0  0  0  0  0  0  0  0  0  0  0  0
  141.5559   71.3824  228.9242 H   0  0  0  0  0  0  0  0  0  0  0  0
  141.5094   68.9381  229.3593 H   0  0  0  0  0  0  0  0  0  0  0  0
  140.5071   67.3743  227.7024 H   0  0  0  0  0  0  0  0  0  0  0  0
  139.5551   68.2980  225.6043 H   0  0  0  0  0  0  0  0  0  0  0  0
  139.7509   68.9024  223.8845 H   0  0  0  0  0  0  0  0  0  0  0  0
  138.0803   69.1850  224.2357 H   0  0  0  0  0  0  0  0  0  0  0  0
  138.9099   69.8230  221.6519 H   0  0  0  0  0  0  0  0  0  0  0  0
  137.0675   70.8549  221.5948 H   0  0  0  0  0  0  0  0  0  0  0  0
  137.0288   70.7671  223.4365 H   0  0  0  0  0  0  0  0  0  0  0  0
  138.3600   72.8420  223.1550 H   0  0  0  0  0  0  0  0  0  0  0  0
  141.7053   76.0729  219.6450 H   0  0  0  0  0  0  0  0  0  0  0  0
  142.5121   78.4148  219.6780 H   0  0  0  0  0  0  0  0  0  0  0  0
  142.6250   80.5022  220.8781 H   0  0  0  0  0  0  0  0  0  0  0  0
  140.7699   80.9206  224.7353 H   0  0  0  0  0  0  0  0  0  0  0  0
  140.0181   78.5609  224.5828 H   0  0  0  0  0  0  0  0  0  0  0  0
  1  2  2  0
  2  3  1  0
  3  4  1  0
  4  5  1  0
  5  6  2  0
  5  7  1  0
  7  8  1  0
  8  9  1  0
  9 10  1  0
 10 11  2  0
 11 12  1  0
 12 13  2  0
 13 14  1  0
 14 15  2  0
  9 16  1  0
 16 17  1  0
 17 18  1  0
 18 19  1  0
  2 20  1  0
 20 21  2  0
 21 22  1  0
 22 23  2  0
 23 24  1  0
 24 25  2  0
 25 26  1  0
 25 27  1  0
 27 28  2  0
 28 29  1  0
 29 30  2  0
 17  7  1  0
 30 20  1  0
 15 10  1  0
 29 23  1  0
  3 31  1  0
  4 32  1  0
  4 33  1  0
  8 34  1  0
  8 35  1  0
  9 36  1  1
 11 37  1  0
 12 38  1  0
 13 39  1  0
 14 40  1  0
 15 41  1  0
 16 42  1  0
 16 43  1  0
 17 44  1  6
 18 45  1  0
 18 46  1  0
 19 47  1  0
 21 48  1  0
 22 49  1  0
 24 50  1  0
 27 51  1  0
 28 52  1  0
M  END
>  <smiles>  (47) 
O=C(NCC(=O)N1C[C@H](c2ccccc2)C[C@H]1CO)c1ccc2cc(F)ccc2n1

>  <score_type>  (47) 
oracle

>  <origin>  (47) 
autodockgpu

>  <m_score__min__energy>  (47) 
-9.0299999999999994

>  <m_primary>  (47) 
energy

>  <rmsd>  (47) 
8.526614898128496

>  <m_score__min__rmsd>  (47) 
8.526614898128496

>  <meeko>  (47) 
{"free_energy": -8.64, "intermolecular_energy": -10.73, "internal_energy": -2.15, "cluster_size": 10, "cluster_id": 2, "rank_in_cluster": 5}

>  <energy>  (47) 
-8.21

>  <cluster_rmsd>  (47) 
0.94

>  <cluster>  (47) 
2

$$$$

     RDKit          3D

 52 55  0  0  0  0  0  0  0  0999 V2000
  140.9150   73.3510  222.4120 O   0  0  0  0  0  0  0  0  0  0  0  0
  139.9120   72.6420  222.7200 C   0  0  0  0  0  0  0  0  0  0  0  0
  138.7210   72.8820  221.9820 N   0  0  0  0  0  0  0  0  0  0  0  0
  138.7660   73.9210  220.9370 C   0  0  0  0  0  0  0  0  0  0  0  0
  138.9130   75.2230  221.5720 C   0  0  0  0  0  0  0  0  0  0  0  0
  138.0370   75.5580  222.4390 O   0  0  0  0  0  0  0  0  0  0  0  0
  139.9430   76.1720  221.3210 N   0  0  0  0  0  0  0  0  0  0  0  0
  140.4500   77.0420  222.3590 C   0  0  0  0  0  0  0  0  0  0  0  0
  141.5110   77.8500  221.6950 C   0  0  2  0  0  0  0  0  0  0  0  0
  141.6120   79.2290  222.2750 C   0  0  0  0  0  0  0  0  0  0  0  0
  140.8350   80.2730  221.8180 C   0  0  0  0  0  0  0  0  0  0  0  0
  140.9610   81.5390  222.3830 C   0  0  0  0  0  0  0  0  0  0  0  0
  141.8720   81.7440  223.4110 C   0  0  0  0  0  0  0  0  0  0  0  0
  142.6610   80.7110  223.8840 C   0  0  0  0  0  0  0  0  0  0  0  0
  142.5170   79.4620  223.3050 C   0  0  0  0  0  0  0  0  0  0  0  0
  141.0780   77.8970  220.2570 C   0  0  0  0  0  0  0  0  0  0  0  0
  140.6190   76.4420  220.0740 C   0  0  1  0  0  0  0  0  0  0  0  0
  141.8380   75.6260  219.8130 C   0  0  0  0  0  0  0  0  0  0  0  0
  142.2860   74.8620  220.8740 O   0  0  0  0  0  0  0  0  0  0  0  0
  139.9710   71.6410  223.7670 C   0  0  0  0  0  0  0  0  0  0  0  0
  139.5180   70.3670  223.5150 C   0  0  0  0  0  0  0  0  0  0  0  0
  139.5360   69.3540  224.4490 C   0  0  0  0  0  0  0  0  0  0  0  0
  140.0450   69.6710  225.7020 C   0  0  0  0  0  0  0  0  0  0  0  0
  140.0940   68.7150  226.6790 C   0  0  0  0  0  0  0  0  0  0  0  0
  140.5980   69.0140  227.9320 C   0  0  0  0  0  0  0  0  0  0  0  0
  140.6110   68.0130  228.8390 F   0  0  0  0  0  0  0  0  0  0  0  0
  141.0560   70.2850  228.2040 C   0  0  0  0  0  0  0  0  0  0  0  0
  140.9980   71.2350  227.2040 C   0  0  0  0  0  0  0  0  0  0  0  0
  140.4960   70.9360  225.9550 C   0  0  0  0  0  0  0  0  0  0  0  0
  140.4560   71.8900  225.0060 N   0  0  0  0  0  0  0  0  0  0  0  0
  137.8550   72.3380  222.1770 H   0  0  0  0  0  0  0  0  0  0  0  0
  139.6211   73.7369  220.2700 H   0  0  0  0  0  0  0  0  0  0  0  0
  137.8377   73.8968  220.3473 H   0  0  0  0  0  0  0  0  0  0  0  0
  139.6509   77.6930  222.7433 H   0  0  0  0  0  0  0  0  0  0  0  0
  140.8363   76.4781  223.2209 H   0  0  0  0  0  0  0  0  0  0  0  0
  142.5112   77.4120  221.8285 H   0  0  0  0  0  0  0  0  0  0  0  0
  140.1137   80.1047  221.0047 H   0  0  0  0  0  0  0  0  0  0  0  0
  140.3427   82.3721  222.0174 H   0  0  0  0  0  0  0  0  0  0  0  0
  141.9678   82.7451  223.8567 H   0  0  0  0  0  0  0  0  0  0  0  0
  143.3826   80.8774  224.6974 H   0  0  0  0  0  0  0  0  0  0  0  0
  143.1364   78.6295  223.6701 H   0  0  0  0  0  0  0  0  0  0  0  0
  140.2538   78.6086  220.1011 H   0  0  0  0  0  0  0  0  0  0  0  0
  141.8501   78.2336  219.5495 H   0  0  0  0  0  0  0  0  0  0  0  0
  139.9441   76.2212  219.2339 H   0  0  0  0  0  0  0  0  0  0  0  0
  141.6172   74.9465  218.9766 H   0  0  0  0  0  0  0  0  0  0  0  0
  142.6418   76.3466  219.6018 H   0  0  0  0  0  0  0  0  0  0  0  0
  141.9790   75.1790  221.7540 H   0  0  0  0  0  0  0  0  0  0  0  0
  139.1199   70.1448  222.5139 H   0  0  0  0  0  0  0  0  0  0  0  0
  139.1659   68.3451  224.2142 H   0  0  0  0  0  0  0  0  0  0  0  0
  139.7293   67.6992  226.4664 H   0  0  0  0  0  0  0  0  0  0  0  0
  141.4589   70.5370  229.1960 H   0  0  0  0  0  0  0  0  0  0  0  0
  141.3604   72.2533  227.4081 H   0  0  0  0  0  0  0  0  0  0  0  0
  1  2  2  0
  2  3  1  0
  3  4  1  0
  4  5  1  0
  5  6  2  0
  5  7  1  0
  7  8  1  0
  8  9  1  0
  9 10  1  0
 10 11  2  0
 11 12  1  0
 12 13  2  0
 13 14  1  0
 14 15  2  0
  9 16  1  0
 16 17  1  0
 17 18  1  0
 18 19  1  0
  2 20  1  0
 20 21  2  0
 21 22  1  0
 22 23  2  0
 23 24  1  0
 24 25  2  0
 25 26  1  0
 25 27  1  0
 27 28  2  0
 28 29  1  0
 29 30  2  0
 17  7  1  0
 30 20  1  0
 15 10  1  0
 29 23  1  0
  3 31  1  0
  4 32  1  0
  4 33  1  0
  8 34  1  0
  8 35  1  0
  9 36  1  6
 11 37  1  0
 12 38  1  0
 13 39  1  0
 14 40  1  0
 15 41  1  0
 16 42  1  0
 16 43  1  0
 17 44  1  6
 18 45  1  0
 18 46  1  0
 19 47  1  0
 21 48  1  0
 22 49  1  0
 24 50  1  0
 27 51  1  0
 28 52  1  0
M  END
>  <smiles>  (48) 
O=C(NCC(=O)N1C[C@H](c2ccccc2)C[C@H]1CO)c1ccc2cc(F)ccc2n1

>  <score_type>  (48) 
oracle

>  <origin>  (48) 
autodockgpu

>  <m_score__min__energy>  (48) 
-9.0299999999999994

>  <m_primary>  (48) 
energy

>  <rmsd>  (48) 
2.567210640992377

>  <m_score__min__rmsd>  (48) 
2.567210640992377

>  <meeko>  (48) 
{"free_energy": -8.56, "intermolecular_energy": -10.65, "internal_energy": -2.05, "cluster_size": 40, "cluster_id": 1, "rank_in_cluster": 10}

>  <energy>  (48) 
-8.13

>  <cluster_rmsd>  (48) 
1.0

>  <cluster>  (48) 
2

$$$$

     RDKit          3D

 52 55  0  0  0  0  0  0  0  0999 V2000
  137.5480   70.7050  221.2140 O   0  0  0  0  0  0  0  0  0  0  0  0
  137.9640   71.2890  222.2570 C   0  0  0  0  0  0  0  0  0  0  0  0
  137.8310   72.7040  222.2830 N   0  0  0  0  0  0  0  0  0  0  0  0
  137.2260   73.3510  221.1050 C   0  0  0  0  0  0  0  0  0  0  0  0
  137.5880   74.7610  221.1010 C   0  0  0  0  0  0  0  0  0  0  0  0
  136.6710   75.6050  220.8170 O   0  0  0  0  0  0  0  0  0  0  0  0
  138.8730   75.3020  221.3820 N   0  0  0  0  0  0  0  0  0  0  0  0
  139.0560   76.3880  222.3190 C   0  0  0  0  0  0  0  0  0  0  0  0
  140.5260   76.6340  222.3360 C   0  0  2  0  0  0  0  0  0  0  0  0
  140.8520   78.0780  222.5760 C   0  0  0  0  0  0  0  0  0  0  0  0
  142.0310   78.6440  222.1370 C   0  0  0  0  0  0  0  0  0  0  0  0
  142.2950   79.9880  222.3810 C   0  0  0  0  0  0  0  0  0  0  0  0
  141.3640   80.7570  223.0690 C   0  0  0  0  0  0  0  0  0  0  0  0
  140.1770   80.2090  223.5180 C   0  0  0  0  0  0  0  0  0  0  0  0
  139.9380   78.8700  223.2630 C   0  0  0  0  0  0  0  0  0  0  0  0
  140.9780   76.1950  220.9710 C   0  0  0  0  0  0  0  0  0  0  0  0
  140.1450   74.9130  220.8190 C   0  0  1  0  0  0  0  0  0  0  0  0
  140.8660   73.8310  221.5460 C   0  0  0  0  0  0  0  0  0  0  0  0
  140.2680   73.3900  222.7110 O   0  0  0  0  0  0  0  0  0  0  0  0
  138.5460   70.5580  223.3660 C   0  0  0  0  0  0  0  0  0  0  0  0
  138.3710   69.1970  223.4490 C   0  0  0  0  0  0  0  0  0  0  0  0
  138.8880   68.4230  224.4660 C   0  0  0  0  0  0  0  0  0  0  0  0
  139.6190   69.0860  225.4430 C   0  0  0  0  0  0  0  0  0  0  0  0
  140.1610   68.3830  226.4830 C   0  0  0  0  0  0  0  0  0  0  0  0
  140.8920   69.0270  227.4640 C   0  0  0  0  0  0  0  0  0  0  0  0
  141.3930   68.2590  228.4560 F   0  0  0  0  0  0  0  0  0  0  0  0
  141.0780   70.3920  227.3990 C   0  0  0  0  0  0  0  0  0  0  0  0
  140.5230   71.0830  226.3410 C   0  0  0  0  0  0  0  0  0  0  0  0
  139.7940   70.4400  225.3630 C   0  0  0  0  0  0  0  0  0  0  0  0
  139.2680   71.1480  224.3470 N   0  0  0  0  0  0  0  0  0  0  0  0
  138.1510   73.2540  223.1060 H   0  0  0  0  0  0  0  0  0  0  0  0
  137.5998   72.8716  220.1882 H   0  0  0  0  0  0  0  0  0  0  0  0
  136.1316   73.2482  221.1454 H   0  0  0  0  0  0  0  0  0  0  0  0
  138.5170   77.2856  221.9817 H   0  0  0  0  0  0  0  0  0  0  0  0
  138.6646   76.1445  223.3178 H   0  0  0  0  0  0  0  0  0  0  0  0
  141.0282   76.0914  223.1505 H   0  0  0  0  0  0  0  0  0  0  0  0
  142.7644   78.0310  221.5925 H   0  0  0  0  0  0  0  0  0  0  0  0
  143.2352   80.4394  222.0314 H   0  0  0  0  0  0  0  0  0  0  0  0
  141.5752   81.8196  223.2595 H   0  0  0  0  0  0  0  0  0  0  0  0
  139.4427   80.8204  224.0630 H   0  0  0  0  0  0  0  0  0  0  0  0
  138.9980   78.4190  223.6137 H   0  0  0  0  0  0  0  0  0  0  0  0
  140.7293   76.9382  220.1991 H   0  0  0  0  0  0  0  0  0  0  0  0
  142.0642   76.0596  220.8619 H   0  0  0  0  0  0  0  0  0  0  0  0
  139.9936   74.5203  219.8027 H   0  0  0  0  0  0  0  0  0  0  0  0
  140.9580   72.9707  220.8668 H   0  0  0  0  0  0  0  0  0  0  0  0
  141.8301   74.2649  221.8497 H   0  0  0  0  0  0  0  0  0  0  0  0
  140.1140   72.4170  222.7390 H   0  0  0  0  0  0  0  0  0  0  0  0
  137.7869   68.6986  222.6614 H   0  0  0  0  0  0  0  0  0  0  0  0
  138.7295   67.3351  224.5018 H   0  0  0  0  0  0  0  0  0  0  0  0
  140.0140   67.2943  226.5397 H   0  0  0  0  0  0  0  0  0  0  0  0
  141.6558   70.9182  228.1731 H   0  0  0  0  0  0  0  0  0  0  0  0
  140.6655   72.1718  226.2765 H   0  0  0  0  0  0  0  0  0  0  0  0
  1  2  2  0
  2  3  1  0
  3  4  1  0
  4  5  1  0
  5  6  2  0
  5  7  1  0
  7  8  1  0
  8  9  1  0
  9 10  1  0
 10 11  2  0
 11 12  1  0
 12 13  2  0
 13 14  1  0
 14 15  2  0
  9 16  1  0
 16 17  1  0
 17 18  1  0
 18 19  1  0
  2 20  1  0
 20 21  2  0
 21 22  1  0
 22 23  2  0
 23 24  1  0
 24 25  2  0
 25 26  1  0
 25 27  1  0
 27 28  2  0
 28 29  1  0
 29 30  2  0
 17  7  1  0
 30 20  1  0
 15 10  1  0
 29 23  1  0
  3 31  1  0
  4 32  1  0
  4 33  1  0
  8 34  1  0
  8 35  1  0
  9 36  1  1
 11 37  1  0
 12 38  1  0
 13 39  1  0
 14 40  1  0
 15 41  1  0
 16 42  1  0
 16 43  1  0
 17 44  1  6
 18 45  1  0
 18 46  1  0
 19 47  1  0
 21 48  1  0
 22 49  1  0
 24 50  1  0
 27 51  1  0
 28 52  1  0
M  END
>  <smiles>  (49) 
O=C(NCC(=O)N1C[C@H](c2ccccc2)C[C@H]1CO)c1ccc2cc(F)ccc2n1

>  <score_type>  (49) 
oracle

>  <origin>  (49) 
autodockgpu

>  <m_score__min__energy>  (49) 
-9.0299999999999994

>  <m_primary>  (49) 
energy

>  <rmsd>  (49) 
2.5887840956353236

>  <m_score__min__rmsd>  (49) 
2.5887840956353236

>  <meeko>  (49) 
{"free_energy": -7.98, "intermolecular_energy": -10.07, "internal_energy": -2.89, "cluster_size": 40, "cluster_id": 1, "rank_in_cluster": 29}

>  <energy>  (49) 
-7.71

>  <cluster_rmsd>  (49) 
1.37

>  <cluster>  (49) 
2

$$$$

     RDKit          3D

 52 55  0  0  0  0  0  0  0  0999 V2000
  140.3400   71.9910  221.2520 O   0  0  0  0  0  0  0  0  0  0  0  0
  139.6170   72.1830  222.2740 C   0  0  0  0  0  0  0  0  0  0  0  0
  138.6520   73.2210  222.1760 N   0  0  0  0  0  0  0  0  0  0  0  0
  138.5840   73.9690  220.9080 C   0  0  0  0  0  0  0  0  0  0  0  0
  138.6550   75.3950  221.1940 C   0  0  0  0  0  0  0  0  0  0  0  0
  137.5530   76.0180  221.3610 O   0  0  0  0  0  0  0  0  0  0  0  0
  139.8400   76.1740  221.3050 N   0  0  0  0  0  0  0  0  0  0  0  0
  140.0860   77.0310  222.4440 C   0  0  0  0  0  0  0  0  0  0  0  0
  141.4210   77.6390  222.1820 C   0  0  2  0  0  0  0  0  0  0  0  0
  141.5260   79.0260  222.7430 C   0  0  0  0  0  0  0  0  0  0  0  0
  140.4140   79.8150  222.9530 C   0  0  0  0  0  0  0  0  0  0  0  0
  140.5550   81.0980  223.4750 C   0  0  0  0  0  0  0  0  0  0  0  0
  141.8210   81.5780  223.7830 C   0  0  0  0  0  0  0  0  0  0  0  0
  142.9490   80.8030  223.5800 C   0  0  0  0  0  0  0  0  0  0  0  0
  142.7820   79.5320  223.0600 C   0  0  0  0  0  0  0  0  0  0  0  0
  141.5210   77.6510  220.6820 C   0  0  0  0  0  0  0  0  0  0  0  0
  140.9360   76.2650  220.3700 C   0  0  1  0  0  0  0  0  0  0  0  0
  142.0310   75.2720  220.5630 C   0  0  0  0  0  0  0  0  0  0  0  0
  141.7510   73.9840  220.1500 O   0  0  0  0  0  0  0  0  0  0  0  0
  139.7630   71.3890  223.4780 C   0  0  0  0  0  0  0  0  0  0  0  0
  139.3560   70.0750  223.4800 C   0  0  0  0  0  0  0  0  0  0  0  0
  139.4570   69.2480  224.5780 C   0  0  0  0  0  0  0  0  0  0  0  0
  140.0030   69.8030  225.7280 C   0  0  0  0  0  0  0  0  0  0  0  0
  140.1350   69.0410  226.8560 C   0  0  0  0  0  0  0  0  0  0  0  0
  140.6770   69.5780  228.0090 C   0  0  0  0  0  0  0  0  0  0  0  0
  140.7710   68.7580  229.0790 F   0  0  0  0  0  0  0  0  0  0  0  0
  141.0900   70.8930  228.0280 C   0  0  0  0  0  0  0  0  0  0  0  0
  140.9500   71.6450  226.8780 C   0  0  0  0  0  0  0  0  0  0  0  0
  140.4090   71.1090  225.7290 C   0  0  0  0  0  0  0  0  0  0  0  0
  140.2880   71.8740  224.6290 N   0  0  0  0  0  0  0  0  0  0  0  0
  138.0210   73.4390  222.9750 H   0  0  0  0  0  0  0  0  0  0  0  0
  139.4272   73.6797  220.2636 H   0  0  0  0  0  0  0  0  0  0  0  0
  137.6399   73.7402  220.3919 H   0  0  0  0  0  0  0  0  0  0  0  0
  139.3130   77.8102  222.5167 H   0  0  0  0  0  0  0  0  0  0  0  0
  140.0616   76.4764  223.3937 H   0  0  0  0  0  0  0  0  0  0  0  0
  142.2352   77.0764  222.6622 H   0  0  0  0  0  0  0  0  0  0  0  0
  139.4135   79.4295  222.7074 H   0  0  0  0  0  0  0  0  0  0  0  0
  139.6687   81.7277  223.6424 H   0  0  0  0  0  0  0  0  0  0  0  0
  141.9290   82.5920  224.1955 H   0  0  0  0  0  0  0  0  0  0  0  0
  143.9504   81.1866  223.8252 H   0  0  0  0  0  0  0  0  0  0  0  0
  143.6688   78.9031  222.8923 H   0  0  0  0  0  0  0  0  0  0  0  0
  140.9196   78.4582  220.2384 H   0  0  0  0  0  0  0  0  0  0  0  0
  142.5309   77.8301  220.2844 H   0  0  0  0  0  0  0  0  0  0  0  0
  140.5656   76.0850  219.3500 H   0  0  0  0  0  0  0  0  0  0  0  0
  142.9091   75.6237  220.0014 H   0  0  0  0  0  0  0  0  0  0  0  0
  142.1919   75.2103  221.6494 H   0  0  0  0  0  0  0  0  0  0  0  0
  141.1420   73.4940  220.7490 H   0  0  0  0  0  0  0  0  0  0  0  0
  138.9267   69.6619  222.5553 H   0  0  0  0  0  0  0  0  0  0  0  0
  139.1219   68.2008  224.5451 H   0  0  0  0  0  0  0  0  0  0  0  0
  139.8069   67.9911  226.8458 H   0  0  0  0  0  0  0  0  0  0  0  0
  141.5215   71.3337  228.9388 H   0  0  0  0  0  0  0  0  0  0  0  0
  141.2775   72.6951  226.8790 H   0  0  0  0  0  0  0  0  0  0  0  0
  1  2  2  0
  2  3  1  0
  3  4  1  0
  4  5  1  0
  5  6  2  0
  5  7  1  0
  7  8  1  0
  8  9  1  0
  9 10  1  0
 10 11  2  0
 11 12  1  0
 12 13  2  0
 13 14  1  0
 14 15  2  0
  9 16  1  0
 16 17  1  0
 17 18  1  0
 18 19  1  0
  2 20  1  0
 20 21  2  0
 21 22  1  0
 22 23  2  0
 23 24  1  0
 24 25  2  0
 25 26  1  0
 25 27  1  0
 27 28  2  0
 28 29  1  0
 29 30  2  0
 17  7  1  0
 30 20  1  0
 15 10  1  0
 29 23  1  0
  3 31  1  0
  4 32  1  0
  4 33  1  0
  8 34  1  0
  8 35  1  0
  9 36  1  1
 11 37  1  0
 12 38  1  0
 13 39  1  0
 14 40  1  0
 15 41  1  0
 16 42  1  0
 16 43  1  0
 17 44  1  6
 18 45  1  0
 18 46  1  0
 19 47  1  0
 21 48  1  0
 22 49  1  0
 24 50  1  0
 27 51  1  0
 28 52  1  0
M  END
>  <smiles>  (50) 
O=C(NCC(=O)N1C[C@H](c2ccccc2)C[C@H]1CO)c1ccc2cc(F)ccc2n1

>  <score_type>  (50) 
oracle

>  <origin>  (50) 
autodockgpu

>  <m_score__min__energy>  (50) 
-9.0299999999999994

>  <m_primary>  (50) 
energy

>  <rmsd>  (50) 
2.5826309655876276

>  <m_score__min__rmsd>  (50) 
2.5826309655876276

>  <meeko>  (50) 
{"free_energy": -8.29, "intermolecular_energy": -10.38, "internal_energy": -2.13, "cluster_size": 40, "cluster_id": 1, "rank_in_cluster": 16}

>  <energy>  (50) 
-7.58

>  <cluster_rmsd>  (50) 
1.26

>  <cluster>  (50) 
2

$$$$
