
     RDKit          3D

 54 57  0  0  0  0  0  0  0  0999 V2000
  140.0320   68.2840  228.4090 N   0  0  0  0  0  0  0  0  0  0  0  0
  140.1340   67.8530  226.7590 S   0  0  0  0  0  0  0  0  0  0  0  0
  141.3590   67.0200  226.4570 O   0  0  0  0  0  0  0  0  0  0  0  0
  138.9400   67.0150  226.4020 O   0  0  0  0  0  0  0  0  0  0  0  0
  140.1170   69.2650  225.7270 C   0  0  0  0  0  0  0  0  0  0  0  0
  140.7100   70.4580  226.0910 C   0  0  0  0  0  0  0  0  0  0  0  0
  140.6570   71.5320  225.2230 C   0  0  0  0  0  0  0  0  0  0  0  0
  140.0310   71.4710  223.9950 C   0  0  0  0  0  0  0  0  0  0  0  0
  139.9620   72.5860  223.0670 C   0  0  0  0  0  0  0  0  0  0  0  0
  140.5570   72.6170  221.8920 C   0  0  0  0  0  0  0  0  0  0  0  0
  141.0320   73.8690  221.3140 C   0  0  0  0  0  0  0  0  0  0  0  0
  140.6920   74.9990  221.9840 N   0  0  0  0  0  0  0  0  0  0  0  0
  141.0550   76.2120  221.5770 C   0  0  0  0  0  0  0  0  0  0  0  0
  140.6730   77.3150  222.3090 C   0  0  0  0  0  0  0  0  0  0  0  0
  141.0810   78.5480  221.8340 C   0  0  0  0  0  0  0  0  0  0  0  0
  140.6260   79.9920  222.7230 Cl  0  0  0  0  0  0  0  0  0  0  0  0
  141.8340   78.6970  220.6870 C   0  0  0  0  0  0  0  0  0  0  0  0
  142.1860   77.5470  219.9970 C   0  0  0  0  0  0  0  0  0  0  0  0
  141.8070   76.2990  220.4230 C   0  0  0  0  0  0  0  0  0  0  0  0
  142.1400   75.1350  219.7600 C   0  0  0  0  0  0  0  0  0  0  0  0
  142.8220   75.2640  218.7150 O   0  0  0  0  0  0  0  0  0  0  0  0
  141.7710   73.9120  220.1770 N   0  0  0  0  0  0  0  0  0  0  0  0
  142.1000   72.6790  219.5480 C   0  0  0  0  0  0  0  0  0  0  0  0
  143.3630   72.0110  219.9460 C   0  0  0  0  0  0  0  0  0  0  0  0
  144.1530   71.4840  218.7640 C   0  0  0  0  0  0  0  0  0  0  0  0
  145.1830   72.4140  218.2290 C   0  0  0  0  0  0  0  0  0  0  0  0
  145.9550   73.0700  219.2680 N   0  0  0  0  0  0  0  0  0  0  0  0
  145.0450   73.8440  220.1150 C   0  0  0  0  0  0  0  0  0  0  0  0
  144.2300   72.8340  220.8640 C   0  0  0  0  0  0  0  0  0  0  0  0
  139.4490   70.2530  223.6710 C   0  0  0  0  0  0  0  0  0  0  0  0
  139.4900   69.1850  224.5070 C   0  0  0  0  0  0  0  0  0  0  0  0
  140.9130   68.7750  228.7000 H   0  0  0  0  0  0  0  0  0  0  0  0
  139.9380   67.4460  229.0110 H   0  0  0  0  0  0  0  0  0  0  0  0
  141.2191   70.5523  227.0615 H   0  0  0  0  0  0  0  0  0  0  0  0
  141.1344   72.4761  225.5241 H   0  0  0  0  0  0  0  0  0  0  0  0
  139.3723   73.4652  223.3658 H   0  0  0  0  0  0  0  0  0  0  0  0
  140.6985   71.6790  221.3352 H   0  0  0  0  0  0  0  0  0  0  0  0
  140.0731   77.2195  223.2261 H   0  0  0  0  0  0  0  0  0  0  0  0
  142.1435   79.6915  220.3332 H   0  0  0  0  0  0  0  0  0  0  0  0
  142.7873   77.6379  219.0804 H   0  0  0  0  0  0  0  0  0  0  0  0
  141.2790   71.9767  219.7548 H   0  0  0  0  0  0  0  0  0  0  0  0
  142.2485   72.9407  218.4899 H   0  0  0  0  0  0  0  0  0  0  0  0
  143.0350   71.1413  220.5342 H   0  0  0  0  0  0  0  0  0  0  0  0
  144.6589   70.5589  219.0774 H   0  0  0  0  0  0  0  0  0  0  0  0
  143.4260   71.3322  217.9526 H   0  0  0  0  0  0  0  0  0  0  0  0
  145.8718   71.8425  217.5896 H   0  0  0  0  0  0  0  0  0  0  0  0
  144.6550   73.1995  217.6685 H   0  0  0  0  0  0  0  0  0  0  0  0
  146.5460   73.7820  218.7660 H   0  0  0  0  0  0  0  0  0  0  0  0
  145.6145   74.4727  220.8153 H   0  0  0  0  0  0  0  0  0  0  0  0
  144.4103   74.5169  219.5198 H   0  0  0  0  0  0  0  0  0  0  0  0
  144.9104   72.1613  221.4067 H   0  0  0  0  0  0  0  0  0  0  0  0
  143.5699   73.3776  221.5560 H   0  0  0  0  0  0  0  0  0  0  0  0
  138.9368   70.1501  222.7030 H   0  0  0  0  0  0  0  0  0  0  0  0
  139.0141   68.2409  224.2034 H   0  0  0  0  0  0  0  0  0  0  0  0
  1  2  1  0
  2  3  2  0
  2  4  2  0
  2  5  1  0
  5  6  2  0
  6  7  1  0
  7  8  2  0
  8  9  1  0
  9 10  2  0
 10 11  1  0
 11 12  2  0
 12 13  1  0
 13 14  2  0
 14 15  1  0
 15 16  1  0
 15 17  2  0
 17 18  1  0
 18 19  2  0
 19 20  1  0
 20 21  2  0
 20 22  1  0
 22 23  1  0
 23 24  1  0
 24 25  1  0
 25 26  1  0
 26 27  1  0
 27 28  1  0
 28 29  1  0
  8 30  1  0
 30 31  2  0
 31  5  1  0
 22 11  1  0
 29 24  1  0
 19 13  1  0
  1 32  1  0
  1 33  1  0
  6 34  1  0
  7 35  1  0
  9 36  1  0
 10 37  1  0
 14 38  1  0
 17 39  1  0
 18 40  1  0
 23 41  1  0
 23 42  1  0
 24 43  1  0
 25 44  1  0
 25 45  1  0
 26 46  1  0
 26 47  1  0
 27 48  1  0
 28 49  1  0
 28 50  1  0
 29 51  1  0
 29 52  1  0
 30 53  1  0
 31 54  1  0
M  END
>  <smiles>  (1) 
NS(=O)(=O)c1ccc(/C=C/c2nc3cc(Cl)ccc3c(=O)n2CC2CCNCC2)cc1

>  <score_type>  (1) 
oracle

>  <origin>  (1) 
autodockgpu

>  <m_score__min__energy>  (1) 
-10.359999999999999

>  <m_primary>  (1) 
energy

>  <rmsd>  (1) 
5.525573590762967

>  <m_score__min__rmsd>  (1) 
5.525573590762967

>  <meeko>  (1) 
{"free_energy": -9.57, "intermolecular_energy": -11.66, "internal_energy": -1.35, "cluster_size": 33, "cluster_id": 1, "rank_in_cluster": 21}

>  <energy>  (1) 
-10.36

>  <cluster_rmsd>  (1) 
0.0

>  <cluster>  (1) 
1

$$$$

     RDKit          3D

 54 57  0  0  0  0  0  0  0  0999 V2000
  146.2770   71.3470  219.7370 N   0  0  0  0  0  0  0  0  0  0  0  0
  145.8630   72.9990  219.5910 S   0  0  0  0  0  0  0  0  0  0  0  0
  146.8390   73.9010  220.3090 O   0  0  0  0  0  0  0  0  0  0  0  0
  145.9050   73.3810  218.1400 O   0  0  0  0  0  0  0  0  0  0  0  0
  144.2430   73.3060  220.1720 C   0  0  0  0  0  0  0  0  0  0  0  0
  143.7040   74.5770  220.2340 C   0  0  0  0  0  0  0  0  0  0  0  0
  142.4160   74.7440  220.7040 C   0  0  0  0  0  0  0  0  0  0  0  0
  141.6310   73.6900  221.1220 C   0  0  0  0  0  0  0  0  0  0  0  0
  140.2740   73.8410  221.6200 C   0  0  0  0  0  0  0  0  0  0  0  0
  139.3890   74.6840  221.1300 C   0  0  0  0  0  0  0  0  0  0  0  0
  139.2090   76.0140  221.7020 C   0  0  0  0  0  0  0  0  0  0  0  0
  140.3470   76.6810  222.0220 N   0  0  0  0  0  0  0  0  0  0  0  0
  140.3390   77.9010  222.5510 C   0  0  0  0  0  0  0  0  0  0  0  0
  141.5350   78.5180  222.8500 C   0  0  0  0  0  0  0  0  0  0  0  0
  141.4610   79.7850  223.3970 C   0  0  0  0  0  0  0  0  0  0  0  0
  142.9500   80.6230  223.8000 Cl  0  0  0  0  0  0  0  0  0  0  0  0
  140.2630   80.4270  223.6420 C   0  0  0  0  0  0  0  0  0  0  0  0
  139.0960   79.7520  223.3170 C   0  0  0  0  0  0  0  0  0  0  0  0
  139.1130   78.4920  222.7730 C   0  0  0  0  0  0  0  0  0  0  0  0
  137.9700   77.7930  222.4390 C   0  0  0  0  0  0  0  0  0  0  0  0
  136.8780   78.3700  222.6620 O   0  0  0  0  0  0  0  0  0  0  0  0
  137.9840   76.5600  221.9050 N   0  0  0  0  0  0  0  0  0  0  0  0
  136.8440   75.8010  221.5220 C   0  0  0  0  0  0  0  0  0  0  0  0
  136.1900   74.9600  222.5540 C   0  0  0  0  0  0  0  0  0  0  0  0
  136.1840   75.6030  223.9280 C   0  0  0  0  0  0  0  0  0  0  0  0
  134.9650   76.3920  224.2490 C   0  0  0  0  0  0  0  0  0  0  0  0
  133.7360   75.7300  223.8530 N   0  0  0  0  0  0  0  0  0  0  0  0
  133.7640   75.5130  222.4040 C   0  0  0  0  0  0  0  0  0  0  0  0
  134.8160   74.4740  222.1700 C   0  0  0  0  0  0  0  0  0  0  0  0
  142.2110   72.4310  221.0420 C   0  0  0  0  0  0  0  0  0  0  0  0
  143.4740   72.2440  220.5830 C   0  0  0  0  0  0  0  0  0  0  0  0
  145.4290   70.7960  220.0210 H   0  0  0  0  0  0  0  0  0  0  0  0
  146.9920   71.2020  220.4720 H   0  0  0  0  0  0  0  0  0  0  0  0
  144.2950   75.4472  219.9122 H   0  0  0  0  0  0  0  0  0  0  0  0
  141.9987   75.7609  220.7467 H   0  0  0  0  0  0  0  0  0  0  0  0
  139.9649   73.2074  222.4644 H   0  0  0  0  0  0  0  0  0  0  0  0
  138.7726   74.3791  220.2715 H   0  0  0  0  0  0  0  0  0  0  0  0
  142.5008   78.0260  222.6624 H   0  0  0  0  0  0  0  0  0  0  0  0
  140.2355   81.4362  224.0787 H   0  0  0  0  0  0  0  0  0  0  0  0
  138.1279   80.2409  223.5007 H   0  0  0  0  0  0  0  0  0  0  0  0
  136.0889   76.5093  221.1503 H   0  0  0  0  0  0  0  0  0  0  0  0
  137.2276   75.0818  220.7833 H   0  0  0  0  0  0  0  0  0  0  0  0
  136.8260   74.0645  222.6141 H   0  0  0  0  0  0  0  0  0  0  0  0
  136.2808   74.8046  224.6785 H   0  0  0  0  0  0  0  0  0  0  0  0
  137.0218   76.3157  223.9368 H   0  0  0  0  0  0  0  0  0  0  0  0
  134.9355   76.5638  225.3351 H   0  0  0  0  0  0  0  0  0  0  0  0
  135.0263   77.3336  223.6837 H   0  0  0  0  0  0  0  0  0  0  0  0
  132.9740   76.4390  224.0160 H   0  0  0  0  0  0  0  0  0  0  0  0
  132.7858   75.1546  222.0509 H   0  0  0  0  0  0  0  0  0  0  0  0
  133.9833   76.4427  221.8585 H   0  0  0  0  0  0  0  0  0  0  0  0
  134.5745   73.5838  222.7694 H   0  0  0  0  0  0  0  0  0  0  0  0
  134.8279   74.2409  221.0950 H   0  0  0  0  0  0  0  0  0  0  0  0
  141.6267   71.5555  221.3616 H   0  0  0  0  0  0  0  0  0  0  0  0
  143.8889   71.2262  220.5392 H   0  0  0  0  0  0  0  0  0  0  0  0
  1  2  1  0
  2  3  2  0
  2  4  2  0
  2  5  1  0
  5  6  2  0
  6  7  1  0
  7  8  2  0
  8  9  1  0
  9 10  2  0
 10 11  1  0
 11 12  2  0
 12 13  1  0
 13 14  2  0
 14 15  1  0
 15 16  1  0
 15 17  2  0
 17 18  1  0
 18 19  2  0
 19 20  1  0
 20 21  2  0
 20 22  1  0
 22 23  1  0
 23 24  1  0
 24 25  1  0
 25 26  1  0
 26 27  1  0
 27 28  1  0
 28 29  1  0
  8 30  1  0
 30 31  2  0
 31  5  1  0
 22 11  1  0
 29 24  1  0
 19 13  1  0
  1 32  1  0
  1 33  1  0
  6 34  1  0
  7 35  1  0
  9 36  1  0
 10 37  1  0
 14 38  1  0
 17 39  1  0
 18 40  1  0
 23 41  1  0
 23 42  1  0
 24 43  1  0
 25 44  1  0
 25 45  1  0
 26 46  1  0
 26 47  1  0
 27 48  1  0
 28 49  1  0
 28 50  1  0
 29 51  1  0
 29 52  1  0
 30 53  1  0
 31 54  1  0
M  END
>  <smiles>  (2) 
NS(=O)(=O)c1ccc(/C=C/c2nc3cc(Cl)ccc3c(=O)n2CC2CCNCC2)cc1

>  <score_type>  (2) 
oracle

>  <origin>  (2) 
autodockgpu

>  <m_score__min__energy>  (2) 
-10.359999999999999

>  <m_primary>  (2) 
energy

>  <rmsd>  (2) 
5.844624663160278

>  <m_score__min__rmsd>  (2) 
5.844624663160278

>  <meeko>  (2) 
{"free_energy": -7.86, "intermolecular_energy": -9.95, "internal_energy": -1.39, "cluster_size": 2, "cluster_id": 8, "rank_in_cluster": 2}

>  <energy>  (2) 
-10.32

>  <cluster_rmsd>  (2) 
0.25

>  <cluster>  (2) 
1

$$$$

     RDKit          3D

 54 57  0  0  0  0  0  0  0  0999 V2000
  139.2390   67.0140  226.5780 N   0  0  0  0  0  0  0  0  0  0  0  0
  140.3140   68.3380  226.6920 S   0  0  0  0  0  0  0  0  0  0  0  0
  140.2480   69.0170  228.0400 O   0  0  0  0  0  0  0  0  0  0  0  0
  141.7190   67.8360  226.5260 O   0  0  0  0  0  0  0  0  0  0  0  0
  140.0200   69.5120  225.4290 C   0  0  0  0  0  0  0  0  0  0  0  0
  139.0280   69.3510  224.4810 C   0  0  0  0  0  0  0  0  0  0  0  0
  138.8540   70.3200  223.5130 C   0  0  0  0  0  0  0  0  0  0  0  0
  139.6330   71.4570  223.4440 C   0  0  0  0  0  0  0  0  0  0  0  0
  139.4680   72.4890  222.4360 C   0  0  0  0  0  0  0  0  0  0  0  0
  140.2910   72.6840  221.4260 C   0  0  0  0  0  0  0  0  0  0  0  0
  140.8500   74.0030  221.1460 C   0  0  0  0  0  0  0  0  0  0  0  0
  140.4210   75.0120  221.9460 N   0  0  0  0  0  0  0  0  0  0  0  0
  140.8430   76.2650  221.8090 C   0  0  0  0  0  0  0  0  0  0  0  0
  140.3640   77.2380  222.6590 C   0  0  0  0  0  0  0  0  0  0  0  0
  140.8420   78.5210  222.4670 C   0  0  0  0  0  0  0  0  0  0  0  0
  140.2690   79.8060  223.5180 Cl  0  0  0  0  0  0  0  0  0  0  0  0
  141.7530   78.8420  221.4800 C   0  0  0  0  0  0  0  0  0  0  0  0
  142.1960   77.8160  220.6590 C   0  0  0  0  0  0  0  0  0  0  0  0
  141.7540   76.5260  220.8060 C   0  0  0  0  0  0  0  0  0  0  0  0
  142.1750   75.4830  220.0060 C   0  0  0  0  0  0  0  0  0  0  0  0
  143.0010   75.7680  219.1050 O   0  0  0  0  0  0  0  0  0  0  0  0
  141.7450   74.2170  220.1490 N   0  0  0  0  0  0  0  0  0  0  0  0
  142.1560   73.1010  219.3700 C   0  0  0  0  0  0  0  0  0  0  0  0
  143.3220   72.3150  219.8420 C   0  0  0  0  0  0  0  0  0  0  0  0
  144.1300   71.7130  218.7090 C   0  0  0  0  0  0  0  0  0  0  0  0
  145.2750   72.5390  218.2430 C   0  0  0  0  0  0  0  0  0  0  0  0
  146.0410   73.1190  219.3310 N   0  0  0  0  0  0  0  0  0  0  0  0
  145.1580   73.9780  220.1230 C   0  0  0  0  0  0  0  0  0  0  0  0
  144.2060   73.0520  220.8160 C   0  0  0  0  0  0  0  0  0  0  0  0
  140.6160   71.5780  224.4160 C   0  0  0  0  0  0  0  0  0  0  0  0
  140.8050   70.6380  225.3770 C   0  0  0  0  0  0  0  0  0  0  0  0
  139.5840   66.2280  227.1820 H   0  0  0  0  0  0  0  0  0  0  0  0
  139.1890   66.6530  225.6090 H   0  0  0  0  0  0  0  0  0  0  0  0
  138.3833   68.4598  224.4973 H   0  0  0  0  0  0  0  0  0  0  0  0
  138.0602   70.1797  222.7645 H   0  0  0  0  0  0  0  0  0  0  0  0
  138.5958   73.1537  222.5216 H   0  0  0  0  0  0  0  0  0  0  0  0
  140.5624   71.8356  220.7806 H   0  0  0  0  0  0  0  0  0  0  0  0
  139.6372   77.0054  223.4512 H   0  0  0  0  0  0  0  0  0  0  0  0
  142.1138   79.8730  221.3499 H   0  0  0  0  0  0  0  0  0  0  0  0
  142.9237   78.0436  219.8661 H   0  0  0  0  0  0  0  0  0  0  0  0
  141.3005   72.4123  219.3080 H   0  0  0  0  0  0  0  0  0  0  0  0
  142.4866   73.5380  218.4162 H   0  0  0  0  0  0  0  0  0  0  0  0
  142.8755   71.4817  220.4043 H   0  0  0  0  0  0  0  0  0  0  0  0
  144.5248   70.7443  219.0492 H   0  0  0  0  0  0  0  0  0  0  0  0
  143.4436   71.6302  217.8534 H   0  0  0  0  0  0  0  0  0  0  0  0
  145.9440   71.9034  217.6442 H   0  0  0  0  0  0  0  0  0  0  0  0
  144.8603   73.3710  217.6549 H   0  0  0  0  0  0  0  0  0  0  0  0
  146.7280   73.7710  218.8700 H   0  0  0  0  0  0  0  0  0  0  0  0
  145.7402   74.5511  220.8596 H   0  0  0  0  0  0  0  0  0  0  0  0
  144.6283   74.7071  219.4922 H   0  0  0  0  0  0  0  0  0  0  0  0
  144.7842   72.3177  221.3960 H   0  0  0  0  0  0  0  0  0  0  0  0
  143.5599   73.6569  221.4693 H   0  0  0  0  0  0  0  0  0  0  0  0
  141.2646   72.4664  224.4075 H   0  0  0  0  0  0  0  0  0  0  0  0
  141.5987   70.7802  226.1253 H   0  0  0  0  0  0  0  0  0  0  0  0
  1  2  1  0
  2  3  2  0
  2  4  2  0
  2  5  1  0
  5  6  2  0
  6  7  1  0
  7  8  2  0
  8  9  1  0
  9 10  2  0
 10 11  1  0
 11 12  2  0
 12 13  1  0
 13 14  2  0
 14 15  1  0
 15 16  1  0
 15 17  2  0
 17 18  1  0
 18 19  2  0
 19 20  1  0
 20 21  2  0
 20 22  1  0
 22 23  1  0
 23 24  1  0
 24 25  1  0
 25 26  1  0
 26 27  1  0
 27 28  1  0
 28 29  1  0
  8 30  1  0
 30 31  2  0
 31  5  1  0
 22 11  1  0
 29 24  1  0
 19 13  1  0
  1 32  1  0
  1 33  1  0
  6 34  1  0
  7 35  1  0
  9 36  1  0
 10 37  1  0
 14 38  1  0
 17 39  1  0
 18 40  1  0
 23 41  1  0
 23 42  1  0
 24 43  1  0
 25 44  1  0
 25 45  1  0
 26 46  1  0
 26 47  1  0
 27 48  1  0
 28 49  1  0
 28 50  1  0
 29 51  1  0
 29 52  1  0
 30 53  1  0
 31 54  1  0
M  END
>  <smiles>  (3) 
NS(=O)(=O)c1ccc(/C=C/c2nc3cc(Cl)ccc3c(=O)n2CC2CCNCC2)cc1

>  <score_type>  (3) 
oracle

>  <origin>  (3) 
autodockgpu

>  <m_score__min__energy>  (3) 
-10.359999999999999

>  <m_primary>  (3) 
energy

>  <rmsd>  (3) 
5.377957539867249

>  <m_score__min__rmsd>  (3) 
5.377957539867249

>  <meeko>  (3) 
{"free_energy": -9.8, "intermolecular_energy": -11.89, "internal_energy": -1.38, "cluster_size": 33, "cluster_id": 1, "rank_in_cluster": 13}

>  <energy>  (3) 
-10.21

>  <cluster_rmsd>  (3) 
0.56

>  <cluster>  (3) 
1

$$$$

     RDKit          3D

 54 57  0  0  0  0  0  0  0  0999 V2000
  139.3720   66.9750  226.8260 N   0  0  0  0  0  0  0  0  0  0  0  0
  140.0310   68.4910  227.2600 S   0  0  0  0  0  0  0  0  0  0  0  0
  139.3080   69.1190  228.4290 O   0  0  0  0  0  0  0  0  0  0  0  0
  141.4570   68.2940  227.6860 O   0  0  0  0  0  0  0  0  0  0  0  0
  140.0320   69.6000  225.9070 C   0  0  0  0  0  0  0  0  0  0  0  0
  140.7000   70.8090  225.9380 C   0  0  0  0  0  0  0  0  0  0  0  0
  140.6570   71.6340  224.8310 C   0  0  0  0  0  0  0  0  0  0  0  0
  139.9690   71.3060  223.6810 C   0  0  0  0  0  0  0  0  0  0  0  0
  139.9100   72.1570  222.5050 C   0  0  0  0  0  0  0  0  0  0  0  0
  140.9140   72.3550  221.6760 C   0  0  0  0  0  0  0  0  0  0  0  0
  141.2640   73.6940  221.2140 C   0  0  0  0  0  0  0  0  0  0  0  0
  140.8420   74.7210  221.9950 N   0  0  0  0  0  0  0  0  0  0  0  0
  141.0880   75.9940  221.7010 C   0  0  0  0  0  0  0  0  0  0  0  0
  140.6290   76.9850  222.5410 C   0  0  0  0  0  0  0  0  0  0  0  0
  140.9170   78.2880  222.1820 C   0  0  0  0  0  0  0  0  0  0  0  0
  140.3590   79.5950  223.2130 Cl  0  0  0  0  0  0  0  0  0  0  0  0
  141.6260   78.6120  221.0420 C   0  0  0  0  0  0  0  0  0  0  0  0
  142.0600   77.5680  220.2390 C   0  0  0  0  0  0  0  0  0  0  0  0
  141.8020   76.2570  220.5490 C   0  0  0  0  0  0  0  0  0  0  0  0
  142.2190   75.1950  219.7720 C   0  0  0  0  0  0  0  0  0  0  0  0
  142.8620   75.4830  218.7330 O   0  0  0  0  0  0  0  0  0  0  0  0
  141.9680   73.9100  220.0740 N   0  0  0  0  0  0  0  0  0  0  0  0
  142.3880   72.7770  219.3250 C   0  0  0  0  0  0  0  0  0  0  0  0
  143.6490   72.1060  219.7260 C   0  0  0  0  0  0  0  0  0  0  0  0
  144.5490   71.7800  218.5490 C   0  0  0  0  0  0  0  0  0  0  0  0
  145.5690   72.8140  218.2300 C   0  0  0  0  0  0  0  0  0  0  0  0
  146.2310   73.3450  219.4080 N   0  0  0  0  0  0  0  0  0  0  0  0
  145.2250   73.9580  220.2780 C   0  0  0  0  0  0  0  0  0  0  0  0
  144.4070   72.8230  220.8140 C   0  0  0  0  0  0  0  0  0  0  0  0
  139.3130   70.0830  223.6940 C   0  0  0  0  0  0  0  0  0  0  0  0
  139.3420   69.2570  224.7700 C   0  0  0  0  0  0  0  0  0  0  0  0
  138.6730   66.6760  227.5500 H   0  0  0  0  0  0  0  0  0  0  0  0
  140.1030   66.2440  226.7890 H   0  0  0  0  0  0  0  0  0  0  0  0
  141.2603   71.1114  226.8350 H   0  0  0  0  0  0  0  0  0  0  0  0
  141.1941   72.5932  224.8679 H   0  0  0  0  0  0  0  0  0  0  0  0
  138.9613   72.6715  222.2923 H   0  0  0  0  0  0  0  0  0  0  0  0
  141.5007   71.4933  221.3247 H   0  0  0  0  0  0  0  0  0  0  0  0
  140.0608   76.7504  223.4532 H   0  0  0  0  0  0  0  0  0  0  0  0
  141.8386   79.6592  220.7807 H   0  0  0  0  0  0  0  0  0  0  0  0
  142.6284   77.7982  219.3258 H   0  0  0  0  0  0  0  0  0  0  0  0
  141.5848   72.0279  219.3867 H   0  0  0  0  0  0  0  0  0  0  0  0
  142.5949   73.1731  218.3199 H   0  0  0  0  0  0  0  0  0  0  0  0
  143.3193   71.1508  220.1605 H   0  0  0  0  0  0  0  0  0  0  0  0
  145.0748   70.8399  218.7721 H   0  0  0  0  0  0  0  0  0  0  0  0
  143.8919   71.7160  217.6692 H   0  0  0  0  0  0  0  0  0  0  0  0
  146.3292   72.3649  217.5740 H   0  0  0  0  0  0  0  0  0  0  0  0
  145.0463   73.6505  217.7431 H   0  0  0  0  0  0  0  0  0  0  0  0
  146.8230   74.1430  219.0580 H   0  0  0  0  0  0  0  0  0  0  0  0
  145.7105   74.5031  221.1009 H   0  0  0  0  0  0  0  0  0  0  0  0
  144.6041   74.6837  219.7323 H   0  0  0  0  0  0  0  0  0  0  0  0
  145.0776   72.1062  221.3105 H   0  0  0  0  0  0  0  0  0  0  0  0
  143.6732   73.2387  221.5202 H   0  0  0  0  0  0  0  0  0  0  0  0
  138.7502   69.7727  222.8013 H   0  0  0  0  0  0  0  0  0  0  0  0
  138.8047   68.2980  224.7312 H   0  0  0  0  0  0  0  0  0  0  0  0
  1  2  1  0
  2  3  2  0
  2  4  2  0
  2  5  1  0
  5  6  2  0
  6  7  1  0
  7  8  2  0
  8  9  1  0
  9 10  2  0
 10 11  1  0
 11 12  2  0
 12 13  1  0
 13 14  2  0
 14 15  1  0
 15 16  1  0
 15 17  2  0
 17 18  1  0
 18 19  2  0
 19 20  1  0
 20 21  2  0
 20 22  1  0
 22 23  1  0
 23 24  1  0
 24 25  1  0
 25 26  1  0
 26 27  1  0
 27 28  1  0
 28 29  1  0
  8 30  1  0
 30 31  2  0
 31  5  1  0
 22 11  1  0
 29 24  1  0
 19 13  1  0
  1 32  1  0
  1 33  1  0
  6 34  1  0
  7 35  1  0
  9 36  1  0
 10 37  1  0
 14 38  1  0
 17 39  1  0
 18 40  1  0
 23 41  1  0
 23 42  1  0
 24 43  1  0
 25 44  1  0
 25 45  1  0
 26 46  1  0
 26 47  1  0
 27 48  1  0
 28 49  1  0
 28 50  1  0
 29 51  1  0
 29 52  1  0
 30 53  1  0
 31 54  1  0
M  END
>  <smiles>  (4) 
NS(=O)(=O)c1ccc(/C=C/c2nc3cc(Cl)ccc3c(=O)n2CC2CCNCC2)cc1

>  <score_type>  (4) 
oracle

>  <origin>  (4) 
autodockgpu

>  <m_score__min__energy>  (4) 
-10.359999999999999

>  <m_primary>  (4) 
energy

>  <rmsd>  (4) 
5.594697273532612

>  <m_score__min__rmsd>  (4) 
5.594697273532612

>  <meeko>  (4) 
{"free_energy": -10.36, "intermolecular_energy": -12.45, "internal_energy": -1.39, "cluster_size": 33, "cluster_id": 1, "rank_in_cluster": 1}

>  <energy>  (4) 
-10.21

>  <cluster_rmsd>  (4) 
0.3

>  <cluster>  (4) 
1

$$$$

     RDKit          3D

 54 57  0  0  0  0  0  0  0  0999 V2000
  141.0350   67.3930  227.2140 N   0  0  0  0  0  0  0  0  0  0  0  0
  140.4800   68.9820  227.5130 S   0  0  0  0  0  0  0  0  0  0  0  0
  139.1990   69.0010  228.3160 O   0  0  0  0  0  0  0  0  0  0  0  0
  141.5120   69.7100  228.3250 O   0  0  0  0  0  0  0  0  0  0  0  0
  140.2530   69.8720  226.0250 C   0  0  0  0  0  0  0  0  0  0  0  0
  139.2260   69.5940  225.1430 C   0  0  0  0  0  0  0  0  0  0  0  0
  139.1090   70.3400  223.9860 C   0  0  0  0  0  0  0  0  0  0  0  0
  139.9790   71.3610  223.6630 C   0  0  0  0  0  0  0  0  0  0  0  0
  139.8750   72.1580  222.4530 C   0  0  0  0  0  0  0  0  0  0  0  0
  140.8610   72.3550  221.6020 C   0  0  0  0  0  0  0  0  0  0  0  0
  141.2360   73.6970  221.1710 C   0  0  0  0  0  0  0  0  0  0  0  0
  140.8200   74.7140  221.9680 N   0  0  0  0  0  0  0  0  0  0  0  0
  141.0870   75.9900  221.7010 C   0  0  0  0  0  0  0  0  0  0  0  0
  140.6320   76.9700  222.5570 C   0  0  0  0  0  0  0  0  0  0  0  0
  140.9420   78.2760  222.2260 C   0  0  0  0  0  0  0  0  0  0  0  0
  140.3920   79.5700  223.2770 Cl  0  0  0  0  0  0  0  0  0  0  0  0
  141.6690   78.6120  221.1010 C   0  0  0  0  0  0  0  0  0  0  0  0
  142.0970   77.5780  220.2820 C   0  0  0  0  0  0  0  0  0  0  0  0
  141.8170   76.2640  220.5640 C   0  0  0  0  0  0  0  0  0  0  0  0
  142.2280   75.2130  219.7690 C   0  0  0  0  0  0  0  0  0  0  0  0
  142.8860   75.5110  218.7440 O   0  0  0  0  0  0  0  0  0  0  0  0
  141.9560   73.9250  220.0440 N   0  0  0  0  0  0  0  0  0  0  0  0
  142.3680   72.8010  219.2760 C   0  0  0  0  0  0  0  0  0  0  0  0
  143.6170   72.1080  219.6750 C   0  0  0  0  0  0  0  0  0  0  0  0
  144.5220   71.7930  218.4990 C   0  0  0  0  0  0  0  0  0  0  0  0
  145.5580   72.8210  218.2080 C   0  0  0  0  0  0  0  0  0  0  0  0
  146.2170   73.3210  219.4000 N   0  0  0  0  0  0  0  0  0  0  0  0
  145.2110   73.9290  220.2750 C   0  0  0  0  0  0  0  0  0  0  0  0
  144.3750   72.7950  220.7820 C   0  0  0  0  0  0  0  0  0  0  0  0
  140.9940   71.6050  224.5770 C   0  0  0  0  0  0  0  0  0  0  0  0
  141.1280   70.8850  225.7200 C   0  0  0  0  0  0  0  0  0  0  0  0
  141.1660   67.2560  226.1810 H   0  0  0  0  0  0  0  0  0  0  0  0
  140.3450   66.6890  227.5290 H   0  0  0  0  0  0  0  0  0  0  0  0
  138.5097   68.7878  225.3597 H   0  0  0  0  0  0  0  0  0  0  0  0
  138.2868   70.1100  223.2924 H   0  0  0  0  0  0  0  0  0  0  0  0
  138.9060   72.6295  222.2321 H   0  0  0  0  0  0  0  0  0  0  0  0
  141.4132   71.4891  221.2081 H   0  0  0  0  0  0  0  0  0  0  0  0
  140.0512   76.7251  223.4585 H   0  0  0  0  0  0  0  0  0  0  0  0
  141.9000   79.6609  220.8634 H   0  0  0  0  0  0  0  0  0  0  0  0
  142.6782   77.8179  219.3794 H   0  0  0  0  0  0  0  0  0  0  0  0
  141.5553   72.0608  219.3167 H   0  0  0  0  0  0  0  0  0  0  0  0
  142.5873   73.2130  218.2799 H   0  0  0  0  0  0  0  0  0  0  0  0
  143.2723   71.1495  220.0902 H   0  0  0  0  0  0  0  0  0  0  0  0
  145.0343   70.8423  218.7080 H   0  0  0  0  0  0  0  0  0  0  0  0
  143.8713   71.7537  217.6130 H   0  0  0  0  0  0  0  0  0  0  0  0
  146.3178   72.3751  217.5493 H   0  0  0  0  0  0  0  0  0  0  0  0
  145.0491   73.6731  217.7337 H   0  0  0  0  0  0  0  0  0  0  0  0
  146.8210   74.1180  219.0700 H   0  0  0  0  0  0  0  0  0  0  0  0
  145.6967   74.4515  221.1123 H   0  0  0  0  0  0  0  0  0  0  0  0
  144.6033   74.6728  219.7388 H   0  0  0  0  0  0  0  0  0  0  0  0
  145.0326   72.0606  221.2701 H   0  0  0  0  0  0  0  0  0  0  0  0
  143.6404   73.2067  221.4897 H   0  0  0  0  0  0  0  0  0  0  0  0
  141.7147   72.4094  224.3683 H   0  0  0  0  0  0  0  0  0  0  0  0
  141.9505   71.1168  226.4126 H   0  0  0  0  0  0  0  0  0  0  0  0
  1  2  1  0
  2  3  2  0
  2  4  2  0
  2  5  1  0
  5  6  2  0
  6  7  1  0
  7  8  2  0
  8  9  1  0
  9 10  2  0
 10 11  1  0
 11 12  2  0
 12 13  1  0
 13 14  2  0
 14 15  1  0
 15 16  1  0
 15 17  2  0
 17 18  1  0
 18 19  2  0
 19 20  1  0
 20 21  2  0
 20 22  1  0
 22 23  1  0
 23 24  1  0
 24 25  1  0
 25 26  1  0
 26 27  1  0
 27 28  1  0
 28 29  1  0
  8 30  1  0
 30 31  2  0
 31  5  1  0
 22 11  1  0
 29 24  1  0
 19 13  1  0
  1 32  1  0
  1 33  1  0
  6 34  1  0
  7 35  1  0
  9 36  1  0
 10 37  1  0
 14 38  1  0
 17 39  1  0
 18 40  1  0
 23 41  1  0
 23 42  1  0
 24 43  1  0
 25 44  1  0
 25 45  1  0
 26 46  1  0
 26 47  1  0
 27 48  1  0
 28 49  1  0
 28 50  1  0
 29 51  1  0
 29 52  1  0
 30 53  1  0
 31 54  1  0
M  END
>  <smiles>  (5) 
NS(=O)(=O)c1ccc(/C=C/c2nc3cc(Cl)ccc3c(=O)n2CC2CCNCC2)cc1

>  <score_type>  (5) 
oracle

>  <origin>  (5) 
autodockgpu

>  <m_score__min__energy>  (5) 
-10.359999999999999

>  <m_primary>  (5) 
energy

>  <rmsd>  (5) 
5.58970927718189

>  <m_score__min__rmsd>  (5) 
5.58970927718189

>  <meeko>  (5) 
{"free_energy": -9.75, "intermolecular_energy": -11.84, "internal_energy": -1.42, "cluster_size": 33, "cluster_id": 1, "rank_in_cluster": 16}

>  <energy>  (5) 
-10.16

>  <cluster_rmsd>  (5) 
1.02

>  <cluster>  (5) 
1

$$$$

     RDKit          3D

 54 57  0  0  0  0  0  0  0  0999 V2000
  139.1320   67.0150  226.5230 N   0  0  0  0  0  0  0  0  0  0  0  0
  140.0710   68.3830  226.9320 S   0  0  0  0  0  0  0  0  0  0  0  0
  139.6160   69.0270  228.2220 O   0  0  0  0  0  0  0  0  0  0  0  0
  141.4930   67.9490  227.1410 O   0  0  0  0  0  0  0  0  0  0  0  0
  140.0630   69.5720  225.6490 C   0  0  0  0  0  0  0  0  0  0  0  0
  140.7260   70.7790  225.7520 C   0  0  0  0  0  0  0  0  0  0  0  0
  140.6760   71.6700  224.6970 C   0  0  0  0  0  0  0  0  0  0  0  0
  139.9870   71.4090  223.5310 C   0  0  0  0  0  0  0  0  0  0  0  0
  139.9210   72.3300  222.4090 C   0  0  0  0  0  0  0  0  0  0  0  0
  140.9120   72.5610  221.5740 C   0  0  0  0  0  0  0  0  0  0  0  0
  141.2670   73.9190  221.1730 C   0  0  0  0  0  0  0  0  0  0  0  0
  140.8580   74.9090  222.0060 N   0  0  0  0  0  0  0  0  0  0  0  0
  141.1090   76.1940  221.7710 C   0  0  0  0  0  0  0  0  0  0  0  0
  140.6620   77.1450  222.6620 C   0  0  0  0  0  0  0  0  0  0  0  0
  140.9540   78.4630  222.3630 C   0  0  0  0  0  0  0  0  0  0  0  0
  140.4120   79.7220  223.4590 Cl  0  0  0  0  0  0  0  0  0  0  0  0
  141.6570   78.8370  221.2350 C   0  0  0  0  0  0  0  0  0  0  0  0
  142.0790   77.8300  220.3790 C   0  0  0  0  0  0  0  0  0  0  0  0
  141.8150   76.5070  220.6280 C   0  0  0  0  0  0  0  0  0  0  0  0
  142.2200   75.4820  219.7970 C   0  0  0  0  0  0  0  0  0  0  0  0
  142.8570   75.8150  218.7690 O   0  0  0  0  0  0  0  0  0  0  0  0
  141.9640   74.1850  220.0400 N   0  0  0  0  0  0  0  0  0  0  0  0
  142.3720   73.0860  219.2340 C   0  0  0  0  0  0  0  0  0  0  0  0
  143.5660   72.3150  219.6610 C   0  0  0  0  0  0  0  0  0  0  0  0
  144.4740   71.9410  218.5070 C   0  0  0  0  0  0  0  0  0  0  0  0
  145.5790   72.8990  218.2370 C   0  0  0  0  0  0  0  0  0  0  0  0
  146.2430   73.3590  219.4440 N   0  0  0  0  0  0  0  0  0  0  0  0
  145.2580   74.0330  220.2940 C   0  0  0  0  0  0  0  0  0  0  0  0
  144.3410   72.9560  220.7840 C   0  0  0  0  0  0  0  0  0  0  0  0
  139.3360   70.1850  223.4710 C   0  0  0  0  0  0  0  0  0  0  0  0
  139.3720   69.2950  224.4950 C   0  0  0  0  0  0  0  0  0  0  0  0
  138.1350   67.3060  226.3700 H   0  0  0  0  0  0  0  0  0  0  0  0
  139.1310   66.3170  227.2880 H   0  0  0  0  0  0  0  0  0  0  0  0
  141.2879   71.0285  226.6641 H   0  0  0  0  0  0  0  0  0  0  0  0
  141.2082   72.6281  224.7911 H   0  0  0  0  0  0  0  0  0  0  0  0
  138.9776   72.8717  222.2461 H   0  0  0  0  0  0  0  0  0  0  0  0
  141.4846   71.7131  221.1700 H   0  0  0  0  0  0  0  0  0  0  0  0
  140.1004   76.8693  223.5668 H   0  0  0  0  0  0  0  0  0  0  0  0
  141.8744   79.8942  221.0229 H   0  0  0  0  0  0  0  0  0  0  0  0
  142.6421   78.1005  219.4736 H   0  0  0  0  0  0  0  0  0  0  0  0
  141.5275   72.3826  219.1880 H   0  0  0  0  0  0  0  0  0  0  0  0
  142.6664   73.5412  218.2769 H   0  0  0  0  0  0  0  0  0  0  0  0
  143.1526   71.3806  220.0685 H   0  0  0  0  0  0  0  0  0  0  0  0
  144.9200   70.9602  218.7285 H   0  0  0  0  0  0  0  0  0  0  0  0
  143.8414   71.9418  217.6071 H   0  0  0  0  0  0  0  0  0  0  0  0
  146.3227   72.4036  217.5956 H   0  0  0  0  0  0  0  0  0  0  0  0
  145.1366   73.7806  217.7502 H   0  0  0  0  0  0  0  0  0  0  0  0
  146.9030   74.1140  219.1260 H   0  0  0  0  0  0  0  0  0  0  0  0
  145.7565   74.5270  221.1411 H   0  0  0  0  0  0  0  0  0  0  0  0
  144.7111   74.8119  219.7424 H   0  0  0  0  0  0  0  0  0  0  0  0
  144.9396   72.1829  221.2880 H   0  0  0  0  0  0  0  0  0  0  0  0
  143.6184   73.4154  221.4745 H   0  0  0  0  0  0  0  0  0  0  0  0
  138.7716   69.9273  222.5627 H   0  0  0  0  0  0  0  0  0  0  0  0
  138.8396   68.3372  224.3991 H   0  0  0  0  0  0  0  0  0  0  0  0
  1  2  1  0
  2  3  2  0
  2  4  2  0
  2  5  1  0
  5  6  2  0
  6  7  1  0
  7  8  2  0
  8  9  1  0
  9 10  2  0
 10 11  1  0
 11 12  2  0
 12 13  1  0
 13 14  2  0
 14 15  1  0
 15 16  1  0
 15 17  2  0
 17 18  1  0
 18 19  2  0
 19 20  1  0
 20 21  2  0
 20 22  1  0
 22 23  1  0
 23 24  1  0
 24 25  1  0
 25 26  1  0
 26 27  1  0
 27 28  1  0
 28 29  1  0
  8 30  1  0
 30 31  2  0
 31  5  1  0
 22 11  1  0
 29 24  1  0
 19 13  1  0
  1 32  1  0
  1 33  1  0
  6 34  1  0
  7 35  1  0
  9 36  1  0
 10 37  1  0
 14 38  1  0
 17 39  1  0
 18 40  1  0
 23 41  1  0
 23 42  1  0
 24 43  1  0
 25 44  1  0
 25 45  1  0
 26 46  1  0
 26 47  1  0
 27 48  1  0
 28 49  1  0
 28 50  1  0
 29 51  1  0
 29 52  1  0
 30 53  1  0
 31 54  1  0
M  END
>  <smiles>  (6) 
NS(=O)(=O)c1ccc(/C=C/c2nc3cc(Cl)ccc3c(=O)n2CC2CCNCC2)cc1

>  <score_type>  (6) 
oracle

>  <origin>  (6) 
autodockgpu

>  <m_score__min__energy>  (6) 
-10.359999999999999

>  <m_primary>  (6) 
energy

>  <rmsd>  (6) 
5.43288557560218

>  <m_score__min__rmsd>  (6) 
5.43288557560218

>  <meeko>  (6) 
{"free_energy": -10.07, "intermolecular_energy": -12.15, "internal_energy": -1.38, "cluster_size": 33, "cluster_id": 1, "rank_in_cluster": 8}

>  <energy>  (6) 
-10.12

>  <cluster_rmsd>  (6) 
1.22

>  <cluster>  (6) 
1

$$$$

     RDKit          3D

 54 57  0  0  0  0  0  0  0  0999 V2000
  139.6450   67.7760  227.7450 N   0  0  0  0  0  0  0  0  0  0  0  0
  140.0230   69.4410  227.8170 S   0  0  0  0  0  0  0  0  0  0  0  0
  139.0910   70.2020  228.7310 O   0  0  0  0  0  0  0  0  0  0  0  0
  141.4070   69.5990  228.3770 O   0  0  0  0  0  0  0  0  0  0  0  0
  140.0100   70.1700  226.2270 C   0  0  0  0  0  0  0  0  0  0  0  0
  140.7220   71.3160  225.9300 C   0  0  0  0  0  0  0  0  0  0  0  0
  140.6640   71.8350  224.6510 C   0  0  0  0  0  0  0  0  0  0  0  0
  139.9200   71.2580  223.6430 C   0  0  0  0  0  0  0  0  0  0  0  0
  139.8440   71.7850  222.2910 C   0  0  0  0  0  0  0  0  0  0  0  0
  140.8880   72.0180  221.5220 C   0  0  0  0  0  0  0  0  0  0  0  0
  141.2370   73.3710  221.1050 C   0  0  0  0  0  0  0  0  0  0  0  0
  140.8250   74.3700  221.9260 N   0  0  0  0  0  0  0  0  0  0  0  0
  141.0710   75.6530  221.6750 C   0  0  0  0  0  0  0  0  0  0  0  0
  140.6210   76.6140  222.5550 C   0  0  0  0  0  0  0  0  0  0  0  0
  140.9090   77.9290  222.2390 C   0  0  0  0  0  0  0  0  0  0  0  0
  140.3630   79.1990  223.3210 Cl  0  0  0  0  0  0  0  0  0  0  0  0
  141.6090   78.2920  221.1060 C   0  0  0  0  0  0  0  0  0  0  0  0
  142.0340   77.2760  220.2630 C   0  0  0  0  0  0  0  0  0  0  0  0
  141.7750   75.9550  220.5280 C   0  0  0  0  0  0  0  0  0  0  0  0
  142.1830   74.9210  219.7090 C   0  0  0  0  0  0  0  0  0  0  0  0
  142.8180   75.2450  218.6760 O   0  0  0  0  0  0  0  0  0  0  0  0
  141.9320   73.6260  219.9680 N   0  0  0  0  0  0  0  0  0  0  0  0
  142.3430   72.5200  219.1750 C   0  0  0  0  0  0  0  0  0  0  0  0
  143.6440   71.8810  219.4930 C   0  0  0  0  0  0  0  0  0  0  0  0
  144.5440   71.7330  218.2820 C   0  0  0  0  0  0  0  0  0  0  0  0
  145.5030   72.8500  218.0680 C   0  0  0  0  0  0  0  0  0  0  0  0
  146.1500   73.2880  219.2910 N   0  0  0  0  0  0  0  0  0  0  0  0
  145.1240   73.7480  220.2290 C   0  0  0  0  0  0  0  0  0  0  0  0
  144.3760   72.5190  220.6460 C   0  0  0  0  0  0  0  0  0  0  0  0
  139.2210   70.1080  223.9860 C   0  0  0  0  0  0  0  0  0  0  0  0
  139.2630   69.5810  225.2350 C   0  0  0  0  0  0  0  0  0  0  0  0
  139.5930   67.3850  228.7180 H   0  0  0  0  0  0  0  0  0  0  0  0
  140.3790   67.2450  227.2440 H   0  0  0  0  0  0  0  0  0  0  0  0
  141.3285   71.8099  226.7035 H   0  0  0  0  0  0  0  0  0  0  0  0
  141.2357   72.7476  224.4269 H   0  0  0  0  0  0  0  0  0  0  0  0
  138.8468   72.0044  221.8817 H   0  0  0  0  0  0  0  0  0  0  0  0
  141.5094   71.1742  221.1875 H   0  0  0  0  0  0  0  0  0  0  0  0
  140.0607   76.3479  223.4634 H   0  0  0  0  0  0  0  0  0  0  0  0
  141.8217   79.3474  220.8802 H   0  0  0  0  0  0  0  0  0  0  0  0
  142.5959   77.5373  219.3542 H   0  0  0  0  0  0  0  0  0  0  0  0
  141.5671   71.7456  219.2662 H   0  0  0  0  0  0  0  0  0  0  0  0
  142.4817   72.9400  218.1679 H   0  0  0  0  0  0  0  0  0  0  0  0
  143.3727   70.8681  219.8254 H   0  0  0  0  0  0  0  0  0  0  0  0
  145.1226   70.8048  218.3989 H   0  0  0  0  0  0  0  0  0  0  0  0
  143.8795   71.7277  217.4054 H   0  0  0  0  0  0  0  0  0  0  0  0
  146.2779   72.5156  217.3625 H   0  0  0  0  0  0  0  0  0  0  0  0
  144.9299   73.7035  217.6767 H   0  0  0  0  0  0  0  0  0  0  0  0
  146.6930   74.1490  219.0240 H   0  0  0  0  0  0  0  0  0  0  0  0
  145.5900   74.2281  221.1021 H   0  0  0  0  0  0  0  0  0  0  0  0
  144.4576   74.4924  219.7689 H   0  0  0  0  0  0  0  0  0  0  0  0
  145.0909   71.7916  221.0581 H   0  0  0  0  0  0  0  0  0  0  0  0
  143.6299   72.8158  221.3978 H   0  0  0  0  0  0  0  0  0  0  0  0
  138.6125   69.6074  223.2184 H   0  0  0  0  0  0  0  0  0  0  0  0
  138.6906   68.6684  225.4574 H   0  0  0  0  0  0  0  0  0  0  0  0
  1  2  1  0
  2  3  2  0
  2  4  2  0
  2  5  1  0
  5  6  2  0
  6  7  1  0
  7  8  2  0
  8  9  1  0
  9 10  2  0
 10 11  1  0
 11 12  2  0
 12 13  1  0
 13 14  2  0
 14 15  1  0
 15 16  1  0
 15 17  2  0
 17 18  1  0
 18 19  2  0
 19 20  1  0
 20 21  2  0
 20 22  1  0
 22 23  1  0
 23 24  1  0
 24 25  1  0
 25 26  1  0
 26 27  1  0
 27 28  1  0
 28 29  1  0
  8 30  1  0
 30 31  2  0
 31  5  1  0
 22 11  1  0
 29 24  1  0
 19 13  1  0
  1 32  1  0
  1 33  1  0
  6 34  1  0
  7 35  1  0
  9 36  1  0
 10 37  1  0
 14 38  1  0
 17 39  1  0
 18 40  1  0
 23 41  1  0
 23 42  1  0
 24 43  1  0
 25 44  1  0
 25 45  1  0
 26 46  1  0
 26 47  1  0
 27 48  1  0
 28 49  1  0
 28 50  1  0
 29 51  1  0
 29 52  1  0
 30 53  1  0
 31 54  1  0
M  END
>  <smiles>  (7) 
NS(=O)(=O)c1ccc(/C=C/c2nc3cc(Cl)ccc3c(=O)n2CC2CCNCC2)cc1

>  <score_type>  (7) 
oracle

>  <origin>  (7) 
autodockgpu

>  <m_score__min__energy>  (7) 
-10.359999999999999

>  <m_primary>  (7) 
energy

>  <rmsd>  (7) 
5.77617397846452

>  <m_score__min__rmsd>  (7) 
5.77617397846452

>  <meeko>  (7) 
{"free_energy": -9.78, "intermolecular_energy": -11.87, "internal_energy": -1.45, "cluster_size": 33, "cluster_id": 1, "rank_in_cluster": 14}

>  <energy>  (7) 
-10.09

>  <cluster_rmsd>  (7) 
1.3

>  <cluster>  (7) 
1

$$$$

     RDKit          3D

 54 57  0  0  0  0  0  0  0  0999 V2000
  146.2260   73.7120  217.8300 N   0  0  0  0  0  0  0  0  0  0  0  0
  145.8730   73.3270  219.4580 S   0  0  0  0  0  0  0  0  0  0  0  0
  145.9170   71.8390  219.7180 O   0  0  0  0  0  0  0  0  0  0  0  0
  146.9150   73.9530  220.3400 O   0  0  0  0  0  0  0  0  0  0  0  0
  144.3180   73.9620  219.9430 C   0  0  0  0  0  0  0  0  0  0  0  0
  143.3250   73.1660  220.4800 C   0  0  0  0  0  0  0  0  0  0  0  0
  142.1210   73.7380  220.8410 C   0  0  0  0  0  0  0  0  0  0  0  0
  141.8570   75.0840  220.6890 C   0  0  0  0  0  0  0  0  0  0  0  0
  140.5990   75.7070  221.0610 C   0  0  0  0  0  0  0  0  0  0  0  0
  140.2420   75.9870  222.2970 C   0  0  0  0  0  0  0  0  0  0  0  0
  139.4530   77.1740  222.6100 C   0  0  0  0  0  0  0  0  0  0  0  0
  138.1250   77.0910  222.3420 N   0  0  0  0  0  0  0  0  0  0  0  0
  137.2820   78.0930  222.5750 C   0  0  0  0  0  0  0  0  0  0  0  0
  135.9450   77.9370  222.2770 C   0  0  0  0  0  0  0  0  0  0  0  0
  135.1200   79.0130  222.5430 C   0  0  0  0  0  0  0  0  0  0  0  0
  133.4060   78.8760  222.1860 Cl  0  0  0  0  0  0  0  0  0  0  0  0
  135.5830   80.1990  223.0790 C   0  0  0  0  0  0  0  0  0  0  0  0
  136.9380   80.2900  223.3560 C   0  0  0  0  0  0  0  0  0  0  0  0
  137.8020   79.2530  223.1110 C   0  0  0  0  0  0  0  0  0  0  0  0
  139.1550   79.3120  223.3750 C   0  0  0  0  0  0  0  0  0  0  0  0
  139.5830   80.3870  223.8600 O   0  0  0  0  0  0  0  0  0  0  0  0
  140.0030   78.2960  223.1380 N   0  0  0  0  0  0  0  0  0  0  0  0
  141.3990   78.2910  223.4070 C   0  0  0  0  0  0  0  0  0  0  0  0
  142.2890   79.0380  222.4840 C   0  0  0  0  0  0  0  0  0  0  0  0
  141.5980   79.4470  221.1970 C   0  0  0  0  0  0  0  0  0  0  0  0
  140.9940   80.8060  221.2110 C   0  0  0  0  0  0  0  0  0  0  0  0
  141.8530   81.8070  221.8170 N   0  0  0  0  0  0  0  0  0  0  0  0
  142.1220   81.4190  223.2030 C   0  0  0  0  0  0  0  0  0  0  0  0
  142.9960   80.2050  223.1230 C   0  0  0  0  0  0  0  0  0  0  0  0
  142.8820   75.8460  220.1460 C   0  0  0  0  0  0  0  0  0  0  0  0
  144.0730   75.3050  219.7840 C   0  0  0  0  0  0  0  0  0  0  0  0
  147.1850   74.1350  217.7690 H   0  0  0  0  0  0  0  0  0  0  0  0
  145.5610   74.4120  217.4570 H   0  0  0  0  0  0  0  0  0  0  0  0
  143.4915   72.0876  220.6187 H   0  0  0  0  0  0  0  0  0  0  0  0
  141.3389   73.0931  221.2680 H   0  0  0  0  0  0  0  0  0  0  0  0
  139.8959   75.9626  220.2545 H   0  0  0  0  0  0  0  0  0  0  0  0
  140.5449   75.3119  223.1109 H   0  0  0  0  0  0  0  0  0  0  0  0
  135.5544   77.0022  221.8486 H   0  0  0  0  0  0  0  0  0  0  0  0
  134.9020   81.0395  223.2784 H   0  0  0  0  0  0  0  0  0  0  0  0
  137.3328   81.2225  223.7856 H   0  0  0  0  0  0  0  0  0  0  0  0
  141.5400   78.7152  224.4121 H   0  0  0  0  0  0  0  0  0  0  0  0
  141.6983   77.2394  223.2862 H   0  0  0  0  0  0  0  0  0  0  0  0
  143.0736   78.3139  222.2193 H   0  0  0  0  0  0  0  0  0  0  0  0
  142.3399   79.4119  220.3856 H   0  0  0  0  0  0  0  0  0  0  0  0
  140.7648   78.7423  221.0587 H   0  0  0  0  0  0  0  0  0  0  0  0
  140.7849   81.1064  220.1737 H   0  0  0  0  0  0  0  0  0  0  0  0
  140.0781   80.7505  221.8176 H   0  0  0  0  0  0  0  0  0  0  0  0
  141.2650   82.6780  221.8780 H   0  0  0  0  0  0  0  0  0  0  0  0
  142.6407   82.2305  223.7344 H   0  0  0  0  0  0  0  0  0  0  0  0
  141.1925   81.2139  223.7544 H   0  0  0  0  0  0  0  0  0  0  0  0
  143.8878   80.4488  222.5270 H   0  0  0  0  0  0  0  0  0  0  0  0
  143.2680   79.9155  224.1488 H   0  0  0  0  0  0  0  0  0  0  0  0
  142.7238   76.9253  220.0042 H   0  0  0  0  0  0  0  0  0  0  0  0
  144.8540   75.9512  219.3569 H   0  0  0  0  0  0  0  0  0  0  0  0
  1  2  1  0
  2  3  2  0
  2  4  2  0
  2  5  1  0
  5  6  2  0
  6  7  1  0
  7  8  2  0
  8  9  1  0
  9 10  2  0
 10 11  1  0
 11 12  2  0
 12 13  1  0
 13 14  2  0
 14 15  1  0
 15 16  1  0
 15 17  2  0
 17 18  1  0
 18 19  2  0
 19 20  1  0
 20 21  2  0
 20 22  1  0
 22 23  1  0
 23 24  1  0
 24 25  1  0
 25 26  1  0
 26 27  1  0
 27 28  1  0
 28 29  1  0
  8 30  1  0
 30 31  2  0
 31  5  1  0
 22 11  1  0
 29 24  1  0
 19 13  1  0
  1 32  1  0
  1 33  1  0
  6 34  1  0
  7 35  1  0
  9 36  1  0
 10 37  1  0
 14 38  1  0
 17 39  1  0
 18 40  1  0
 23 41  1  0
 23 42  1  0
 24 43  1  0
 25 44  1  0
 25 45  1  0
 26 46  1  0
 26 47  1  0
 27 48  1  0
 28 49  1  0
 28 50  1  0
 29 51  1  0
 29 52  1  0
 30 53  1  0
 31 54  1  0
M  END
>  <smiles>  (8) 
NS(=O)(=O)c1ccc(/C=C/c2nc3cc(Cl)ccc3c(=O)n2CC2CCNCC2)cc1

>  <score_type>  (8) 
oracle

>  <origin>  (8) 
autodockgpu

>  <m_score__min__energy>  (8) 
-10.359999999999999

>  <m_primary>  (8) 
energy

>  <rmsd>  (8) 
4.716331303046798

>  <m_score__min__rmsd>  (8) 
4.716331303046798

>  <meeko>  (8) 
{"free_energy": -7.95, "intermolecular_energy": -10.04, "internal_energy": -1.58, "cluster_size": 3, "cluster_id": 3, "rank_in_cluster": 2}

>  <energy>  (8) 
-10.07

>  <cluster_rmsd>  (8) 
0.38

>  <cluster>  (8) 
1

$$$$

     RDKit          3D

 54 57  0  0  0  0  0  0  0  0999 V2000
  141.3510   67.6490  227.1750 N   0  0  0  0  0  0  0  0  0  0  0  0
  139.7740   68.2190  226.8440 S   0  0  0  0  0  0  0  0  0  0  0  0
  138.8240   67.1010  226.4820 O   0  0  0  0  0  0  0  0  0  0  0  0
  139.2270   68.8720  228.0800 O   0  0  0  0  0  0  0  0  0  0  0  0
  139.7810   69.4170  225.5710 C   0  0  0  0  0  0  0  0  0  0  0  0
  138.9910   69.3080  224.4430 C   0  0  0  0  0  0  0  0  0  0  0  0
  139.0490   70.2950  223.4780 C   0  0  0  0  0  0  0  0  0  0  0  0
  139.8700   71.3980  223.5860 C   0  0  0  0  0  0  0  0  0  0  0  0
  139.9480   72.4480  222.5850 C   0  0  0  0  0  0  0  0  0  0  0  0
  140.9410   72.5940  221.7320 C   0  0  0  0  0  0  0  0  0  0  0  0
  141.3080   73.9060  221.2110 C   0  0  0  0  0  0  0  0  0  0  0  0
  140.9270   74.9710  221.9620 N   0  0  0  0  0  0  0  0  0  0  0  0
  141.1920   76.2270  221.6130 C   0  0  0  0  0  0  0  0  0  0  0  0
  140.7740   77.2580  222.4250 C   0  0  0  0  0  0  0  0  0  0  0  0
  141.0810   78.5400  222.0090 C   0  0  0  0  0  0  0  0  0  0  0  0
  140.5750   79.8970  223.0010 Cl  0  0  0  0  0  0  0  0  0  0  0  0
  141.7700   78.8050  220.8420 C   0  0  0  0  0  0  0  0  0  0  0  0
  142.1630   77.7220  220.0700 C   0  0  0  0  0  0  0  0  0  0  0  0
  141.8840   76.4290  220.4370 C   0  0  0  0  0  0  0  0  0  0  0  0
  142.2610   75.3300  219.6910 C   0  0  0  0  0  0  0  0  0  0  0  0
  142.8850   75.5640  218.6280 O   0  0  0  0  0  0  0  0  0  0  0  0
  141.9900   74.0630  220.0480 N   0  0  0  0  0  0  0  0  0  0  0  0
  142.3690   72.8930  219.3340 C   0  0  0  0  0  0  0  0  0  0  0  0
  143.6150   72.2010  219.7440 C   0  0  0  0  0  0  0  0  0  0  0  0
  144.5160   71.8600  218.5730 C   0  0  0  0  0  0  0  0  0  0  0  0
  145.5570   72.8750  218.2610 C   0  0  0  0  0  0  0  0  0  0  0  0
  146.2200   73.3950  219.4430 N   0  0  0  0  0  0  0  0  0  0  0  0
  145.2190   74.0240  220.3070 C   0  0  0  0  0  0  0  0  0  0  0  0
  144.3770   72.9040  220.8370 C   0  0  0  0  0  0  0  0  0  0  0  0
  140.6460   71.4680  224.7350 C   0  0  0  0  0  0  0  0  0  0  0  0
  140.6050   70.5100  225.6950 C   0  0  0  0  0  0  0  0  0  0  0  0
  141.2970   66.6820  227.5810 H   0  0  0  0  0  0  0  0  0  0  0  0
  141.8270   68.2450  227.8740 H   0  0  0  0  0  0  0  0  0  0  0  0
  138.3224   68.4440  224.3144 H   0  0  0  0  0  0  0  0  0  0  0  0
  138.4134   70.1970  222.5856 H   0  0  0  0  0  0  0  0  0  0  0  0
  139.1205   73.1711  222.5361 H   0  0  0  0  0  0  0  0  0  0  0  0
  141.5053   71.7079  221.4057 H   0  0  0  0  0  0  0  0  0  0  0  0
  140.2231   77.0705  223.3585 H   0  0  0  0  0  0  0  0  0  0  0  0
  141.9986   79.8366  220.5361 H   0  0  0  0  0  0  0  0  0  0  0  0
  142.7146   77.9045  219.1360 H   0  0  0  0  0  0  0  0  0  0  0  0
  141.5460   72.1696  219.4307 H   0  0  0  0  0  0  0  0  0  0  0  0
  142.5747   73.2481  218.3134 H   0  0  0  0  0  0  0  0  0  0  0  0
  143.2668   71.2517  220.1771 H   0  0  0  0  0  0  0  0  0  0  0  0
  145.0230   70.9102  218.7985 H   0  0  0  0  0  0  0  0  0  0  0  0
  143.8632   71.8093  217.6891 H   0  0  0  0  0  0  0  0  0  0  0  0
  146.3137   72.4115  217.6109 H   0  0  0  0  0  0  0  0  0  0  0  0
  145.0529   73.7204  217.7699 H   0  0  0  0  0  0  0  0  0  0  0  0
  146.8280   74.1810  219.0980 H   0  0  0  0  0  0  0  0  0  0  0  0
  145.7086   74.5597  221.1337 H   0  0  0  0  0  0  0  0  0  0  0  0
  144.6144   74.7604  219.7573 H   0  0  0  0  0  0  0  0  0  0  0  0
  145.0309   72.1754  221.3385 H   0  0  0  0  0  0  0  0  0  0  0  0
  143.6455   73.3327  221.5378 H   0  0  0  0  0  0  0  0  0  0  0  0
  141.3167   72.3291  224.8717 H   0  0  0  0  0  0  0  0  0  0  0  0
  141.2413   70.6097  226.5867 H   0  0  0  0  0  0  0  0  0  0  0  0
  1  2  1  0
  2  3  2  0
  2  4  2  0
  2  5  1  0
  5  6  2  0
  6  7  1  0
  7  8  2  0
  8  9  1  0
  9 10  2  0
 10 11  1  0
 11 12  2  0
 12 13  1  0
 13 14  2  0
 14 15  1  0
 15 16  1  0
 15 17  2  0
 17 18  1  0
 18 19  2  0
 19 20  1  0
 20 21  2  0
 20 22  1  0
 22 23  1  0
 23 24  1  0
 24 25  1  0
 25 26  1  0
 26 27  1  0
 27 28  1  0
 28 29  1  0
  8 30  1  0
 30 31  2  0
 31  5  1  0
 22 11  1  0
 29 24  1  0
 19 13  1  0
  1 32  1  0
  1 33  1  0
  6 34  1  0
  7 35  1  0
  9 36  1  0
 10 37  1  0
 14 38  1  0
 17 39  1  0
 18 40  1  0
 23 41  1  0
 23 42  1  0
 24 43  1  0
 25 44  1  0
 25 45  1  0
 26 46  1  0
 26 47  1  0
 27 48  1  0
 28 49  1  0
 28 50  1  0
 29 51  1  0
 29 52  1  0
 30 53  1  0
 31 54  1  0
M  END
>  <smiles>  (9) 
NS(=O)(=O)c1ccc(/C=C/c2nc3cc(Cl)ccc3c(=O)n2CC2CCNCC2)cc1

>  <score_type>  (9) 
oracle

>  <origin>  (9) 
autodockgpu

>  <m_score__min__energy>  (9) 
-10.359999999999999

>  <m_primary>  (9) 
energy

>  <rmsd>  (9) 
5.481239046659811

>  <m_score__min__rmsd>  (9) 
5.481239046659811

>  <meeko>  (9) 
{"free_energy": -9.94, "intermolecular_energy": -12.03, "internal_energy": -1.37, "cluster_size": 33, "cluster_id": 1, "rank_in_cluster": 9}

>  <energy>  (9) 
-9.94

>  <cluster_rmsd>  (9) 
0.86

>  <cluster>  (9) 
1

$$$$

     RDKit          3D

 54 57  0  0  0  0  0  0  0  0999 V2000
  141.8000   67.7440  226.6050 N   0  0  0  0  0  0  0  0  0  0  0  0
  140.1590   68.2180  226.5490 S   0  0  0  0  0  0  0  0  0  0  0  0
  139.2320   67.0530  226.2970 O   0  0  0  0  0  0  0  0  0  0  0  0
  139.7780   68.7970  227.8820 O   0  0  0  0  0  0  0  0  0  0  0  0
  139.8910   69.4540  225.3410 C   0  0  0  0  0  0  0  0  0  0  0  0
  139.0080   69.2870  224.2920 C   0  0  0  0  0  0  0  0  0  0  0  0
  138.8470   70.3080  223.3740 C   0  0  0  0  0  0  0  0  0  0  0  0
  139.5350   71.5000  223.4550 C   0  0  0  0  0  0  0  0  0  0  0  0
  139.3830   72.5870  222.5030 C   0  0  0  0  0  0  0  0  0  0  0  0
  140.1590   72.7750  221.4550 C   0  0  0  0  0  0  0  0  0  0  0  0
  140.7590   74.0760  221.1780 C   0  0  0  0  0  0  0  0  0  0  0  0
  140.3180   75.1070  221.9430 N   0  0  0  0  0  0  0  0  0  0  0  0
  140.7750   76.3490  221.8050 C   0  0  0  0  0  0  0  0  0  0  0  0
  140.2810   77.3470  222.6180 C   0  0  0  0  0  0  0  0  0  0  0  0
  140.7950   78.6150  222.4260 C   0  0  0  0  0  0  0  0  0  0  0  0
  140.2070   79.9290  223.4310 Cl  0  0  0  0  0  0  0  0  0  0  0  0
  141.7560   78.8990  221.4750 C   0  0  0  0  0  0  0  0  0  0  0  0
  142.2110   77.8510  220.6910 C   0  0  0  0  0  0  0  0  0  0  0  0
  141.7340   76.5720  220.8390 C   0  0  0  0  0  0  0  0  0  0  0  0
  142.1650   75.5070  220.0740 C   0  0  0  0  0  0  0  0  0  0  0  0
  143.0360   75.7590  219.2060 O   0  0  0  0  0  0  0  0  0  0  0  0
  141.7010   74.2540  220.2180 N   0  0  0  0  0  0  0  0  0  0  0  0
  142.1200   73.1160  219.4760 C   0  0  0  0  0  0  0  0  0  0  0  0
  143.3120   72.3740  219.9550 C   0  0  0  0  0  0  0  0  0  0  0  0
  144.0840   71.7050  218.8340 C   0  0  0  0  0  0  0  0  0  0  0  0
  145.2010   72.5080  218.2700 C   0  0  0  0  0  0  0  0  0  0  0  0
  146.0000   73.1670  219.2860 N   0  0  0  0  0  0  0  0  0  0  0  0
  145.1380   74.0690  220.0530 C   0  0  0  0  0  0  0  0  0  0  0  0
  144.2240   73.1830  220.8420 C   0  0  0  0  0  0  0  0  0  0  0  0
  140.4110   71.6250  224.5250 C   0  0  0  0  0  0  0  0  0  0  0  0
  140.5850   70.6360  225.4370 C   0  0  0  0  0  0  0  0  0  0  0  0
  142.1890   67.9340  227.5610 H   0  0  0  0  0  0  0  0  0  0  0  0
  142.3710   68.2850  225.9320 H   0  0  0  0  0  0  0  0  0  0  0  0
  138.4389   68.3514  224.1882 H   0  0  0  0  0  0  0  0  0  0  0  0
  138.1401   70.1632  222.5438 H   0  0  0  0  0  0  0  0  0  0  0  0
  138.5637   73.3021  222.6686 H   0  0  0  0  0  0  0  0  0  0  0  0
  140.3587   71.9339  220.7748 H   0  0  0  0  0  0  0  0  0  0  0  0
  139.5157   77.1438  223.3815 H   0  0  0  0  0  0  0  0  0  0  0  0
  142.1456   79.9194  221.3450 H   0  0  0  0  0  0  0  0  0  0  0  0
  142.9773   78.0496  219.9272 H   0  0  0  0  0  0  0  0  0  0  0  0
  141.2784   72.4079  219.4596 H   0  0  0  0  0  0  0  0  0  0  0  0
  142.4219   73.5205  218.4986 H   0  0  0  0  0  0  0  0  0  0  0  0
  142.8965   71.5768  220.5889 H   0  0  0  0  0  0  0  0  0  0  0  0
  144.5026   70.7648  219.2224 H   0  0  0  0  0  0  0  0  0  0  0  0
  143.3667   71.5593  218.0129 H   0  0  0  0  0  0  0  0  0  0  0  0
  145.8545   71.8395  217.6903 H   0  0  0  0  0  0  0  0  0  0  0  0
  144.7549   73.2944  217.6435 H   0  0  0  0  0  0  0  0  0  0  0  0
  146.6620   73.7920  218.7570 H   0  0  0  0  0  0  0  0  0  0  0  0
  145.7412   74.6951  220.7269 H   0  0  0  0  0  0  0  0  0  0  0  0
  144.5764   74.7497  219.3963 H   0  0  0  0  0  0  0  0  0  0  0  0
  144.8325   72.4946  221.4468 H   0  0  0  0  0  0  0  0  0  0  0  0
  143.5961   73.8247  221.4775 H   0  0  0  0  0  0  0  0  0  0  0  0
  140.9833   72.5577  224.6369 H   0  0  0  0  0  0  0  0  0  0  0  0
  141.2927   70.7826  226.2663 H   0  0  0  0  0  0  0  0  0  0  0  0
  1  2  1  0
  2  3  2  0
  2  4  2  0
  2  5  1  0
  5  6  2  0
  6  7  1  0
  7  8  2  0
  8  9  1  0
  9 10  2  0
 10 11  1  0
 11 12  2  0
 12 13  1  0
 13 14  2  0
 14 15  1  0
 15 16  1  0
 15 17  2  0
 17 18  1  0
 18 19  2  0
 19 20  1  0
 20 21  2  0
 20 22  1  0
 22 23  1  0
 23 24  1  0
 24 25  1  0
 25 26  1  0
 26 27  1  0
 27 28  1  0
 28 29  1  0
  8 30  1  0
 30 31  2  0
 31  5  1  0
 22 11  1  0
 29 24  1  0
 19 13  1  0
  1 32  1  0
  1 33  1  0
  6 34  1  0
  7 35  1  0
  9 36  1  0
 10 37  1  0
 14 38  1  0
 17 39  1  0
 18 40  1  0
 23 41  1  0
 23 42  1  0
 24 43  1  0
 25 44  1  0
 25 45  1  0
 26 46  1  0
 26 47  1  0
 27 48  1  0
 28 49  1  0
 28 50  1  0
 29 51  1  0
 29 52  1  0
 30 53  1  0
 31 54  1  0
M  END
>  <smiles>  (10) 
NS(=O)(=O)c1ccc(/C=C/c2nc3cc(Cl)ccc3c(=O)n2CC2CCNCC2)cc1

>  <score_type>  (10) 
oracle

>  <origin>  (10) 
autodockgpu

>  <m_score__min__energy>  (10) 
-10.359999999999999

>  <m_primary>  (10) 
energy

>  <rmsd>  (10) 
5.325767984926839

>  <m_score__min__rmsd>  (10) 
5.325767984926839

>  <meeko>  (10) 
{"free_energy": -9.32, "intermolecular_energy": -11.41, "internal_energy": -1.29, "cluster_size": 33, "cluster_id": 1, "rank_in_cluster": 26}

>  <energy>  (10) 
-9.9

>  <cluster_rmsd>  (10) 
0.39

>  <cluster>  (10) 
1

$$$$

     RDKit          3D

 54 57  0  0  0  0  0  0  0  0999 V2000
  144.1160   71.5350  220.8730 N   0  0  0  0  0  0  0  0  0  0  0  0
  145.2030   72.7290  220.3110 S   0  0  0  0  0  0  0  0  0  0  0  0
  146.1370   73.2120  221.3960 O   0  0  0  0  0  0  0  0  0  0  0  0
  146.0610   72.1330  219.2320 O   0  0  0  0  0  0  0  0  0  0  0  0
  144.3540   74.0920  219.6190 C   0  0  0  0  0  0  0  0  0  0  0  0
  144.2260   75.3000  220.2770 C   0  0  0  0  0  0  0  0  0  0  0  0
  143.5410   76.3330  219.6680 C   0  0  0  0  0  0  0  0  0  0  0  0
  142.9700   76.2160  218.4180 C   0  0  0  0  0  0  0  0  0  0  0  0
  142.2450   77.2880  217.7570 C   0  0  0  0  0  0  0  0  0  0  0  0
  141.0310   77.6800  218.0840 C   0  0  0  0  0  0  0  0  0  0  0  0
  140.6530   77.9010  219.4750 C   0  0  0  0  0  0  0  0  0  0  0  0
  141.3620   78.8490  220.1390 N   0  0  0  0  0  0  0  0  0  0  0  0
  141.1290   79.1590  221.4120 C   0  0  0  0  0  0  0  0  0  0  0  0
  141.8890   80.1330  222.0220 C   0  0  0  0  0  0  0  0  0  0  0  0
  141.5990   80.4100  223.3440 C   0  0  0  0  0  0  0  0  0  0  0  0
  142.5330   81.6420  224.1770 Cl  0  0  0  0  0  0  0  0  0  0  0  0
  140.6030   79.7600  224.0460 C   0  0  0  0  0  0  0  0  0  0  0  0
  139.8740   78.7910  223.3730 C   0  0  0  0  0  0  0  0  0  0  0  0
  140.1210   78.4760  222.0610 C   0  0  0  0  0  0  0  0  0  0  0  0
  139.4150   77.5160  221.3640 C   0  0  0  0  0  0  0  0  0  0  0  0
  138.5100   76.9190  221.9960 O   0  0  0  0  0  0  0  0  0  0  0  0
  139.6540   77.2070  220.0770 N   0  0  0  0  0  0  0  0  0  0  0  0
  138.9480   76.2460  219.3030 C   0  0  0  0  0  0  0  0  0  0  0  0
  139.2910   74.8150  219.4900 C   0  0  0  0  0  0  0  0  0  0  0  0
  140.6620   74.6080  220.1050 C   0  0  0  0  0  0  0  0  0  0  0  0
  140.6740   74.4800  221.5870 C   0  0  0  0  0  0  0  0  0  0  0  0
  139.6150   73.6280  222.0960 N   0  0  0  0  0  0  0  0  0  0  0  0
  138.3240   74.1970  221.7030 C   0  0  0  0  0  0  0  0  0  0  0  0
  138.2370   74.0210  220.2180 C   0  0  0  0  0  0  0  0  0  0  0  0
  143.1230   74.9860  217.7930 C   0  0  0  0  0  0  0  0  0  0  0  0
  143.7910   73.9570  218.3730 C   0  0  0  0  0  0  0  0  0  0  0  0
  143.1570   71.9500  220.9680 H   0  0  0  0  0  0  0  0  0  0  0  0
  144.3910   71.1880  221.8090 H   0  0  0  0  0  0  0  0  0  0  0  0
  144.6653   75.4377  221.2760 H   0  0  0  0  0  0  0  0  0  0  0  0
  143.4468   77.2897  220.2026 H   0  0  0  0  0  0  0  0  0  0  0  0
  142.7446   77.8079  216.9263 H   0  0  0  0  0  0  0  0  0  0  0  0
  140.2864   77.8442  217.2911 H   0  0  0  0  0  0  0  0  0  0  0  0
  142.6874   80.6639  221.4829 H   0  0  0  0  0  0  0  0  0  0  0  0
  140.3958   80.0017  225.0989 H   0  0  0  0  0  0  0  0  0  0  0  0
  139.0733   78.2588  223.9076 H   0  0  0  0  0  0  0  0  0  0  0  0
  137.8790   76.3595  219.5359 H   0  0  0  0  0  0  0  0  0  0  0  0
  139.2354   76.4645  218.2639 H   0  0  0  0  0  0  0  0  0  0  0  0
  139.3268   74.4108  218.4676 H   0  0  0  0  0  0  0  0  0  0  0  0
  141.0914   73.6889  219.6797 H   0  0  0  0  0  0  0  0  0  0  0  0
  141.2437   75.5116  219.8700 H   0  0  0  0  0  0  0  0  0  0  0  0
  141.6416   74.0559  221.8934 H   0  0  0  0  0  0  0  0  0  0  0  0
  140.5131   75.4854  222.0032 H   0  0  0  0  0  0  0  0  0  0  0  0
  139.6590   73.7260  223.1430 H   0  0  0  0  0  0  0  0  0  0  0  0
  137.5019   73.6623  222.2012 H   0  0  0  0  0  0  0  0  0  0  0  0
  138.2429   75.2555  221.9912 H   0  0  0  0  0  0  0  0  0  0  0  0
  138.3676   72.9553  219.9789 H   0  0  0  0  0  0  0  0  0  0  0  0
  137.2521   74.3858  219.8909 H   0  0  0  0  0  0  0  0  0  0  0  0
  142.6878   74.8404  216.7933 H   0  0  0  0  0  0  0  0  0  0  0  0
  143.8831   73.0005  217.8376 H   0  0  0  0  0  0  0  0  0  0  0  0
  1  2  1  0
  2  3  2  0
  2  4  2  0
  2  5  1  0
  5  6  2  0
  6  7  1  0
  7  8  2  0
  8  9  1  0
  9 10  2  0
 10 11  1  0
 11 12  2  0
 12 13  1  0
 13 14  2  0
 14 15  1  0
 15 16  1  0
 15 17  2  0
 17 18  1  0
 18 19  2  0
 19 20  1  0
 20 21  2  0
 20 22  1  0
 22 23  1  0
 23 24  1  0
 24 25  1  0
 25 26  1  0
 26 27  1  0
 27 28  1  0
 28 29  1  0
  8 30  1  0
 30 31  2  0
 31  5  1  0
 22 11  1  0
 29 24  1  0
 19 13  1  0
  1 32  1  0
  1 33  1  0
  6 34  1  0
  7 35  1  0
  9 36  1  0
 10 37  1  0
 14 38  1  0
 17 39  1  0
 18 40  1  0
 23 41  1  0
 23 42  1  0
 24 43  1  0
 25 44  1  0
 25 45  1  0
 26 46  1  0
 26 47  1  0
 27 48  1  0
 28 49  1  0
 28 50  1  0
 29 51  1  0
 29 52  1  0
 30 53  1  0
 31 54  1  0
M  END
>  <smiles>  (11) 
NS(=O)(=O)c1ccc(/C=C/c2nc3cc(Cl)ccc3c(=O)n2CC2CCNCC2)cc1

>  <score_type>  (11) 
oracle

>  <origin>  (11) 
autodockgpu

>  <m_score__min__energy>  (11) 
-10.359999999999999

>  <m_primary>  (11) 
energy

>  <rmsd>  (11) 
4.080910730689935

>  <m_score__min__rmsd>  (11) 
4.080910730689935

>  <meeko>  (11) 
{"free_energy": -7.39, "intermolecular_energy": -9.48, "internal_energy": -2.27, "cluster_size": 1, "cluster_id": 12, "rank_in_cluster": 1}

>  <energy>  (11) 
-9.86

>  <cluster_rmsd>  (11) 
1.32

>  <cluster>  (11) 
1

$$$$

     RDKit          3D

 54 57  0  0  0  0  0  0  0  0999 V2000
  146.3530   72.2360  220.4820 N   0  0  0  0  0  0  0  0  0  0  0  0
  145.3370   72.6800  219.1810 S   0  0  0  0  0  0  0  0  0  0  0  0
  146.0930   73.3750  218.0730 O   0  0  0  0  0  0  0  0  0  0  0  0
  144.7410   71.4360  218.5870 O   0  0  0  0  0  0  0  0  0  0  0  0
  144.0170   73.6940  219.7160 C   0  0  0  0  0  0  0  0  0  0  0  0
  143.8740   75.0050  219.3050 C   0  0  0  0  0  0  0  0  0  0  0  0
  142.8050   75.7470  219.7700 C   0  0  0  0  0  0  0  0  0  0  0  0
  141.8620   75.2370  220.6370 C   0  0  0  0  0  0  0  0  0  0  0  0
  140.7300   75.9970  221.1380 C   0  0  0  0  0  0  0  0  0  0  0  0
  140.6240   76.4520  222.3700 C   0  0  0  0  0  0  0  0  0  0  0  0
  139.7150   77.5450  222.7000 C   0  0  0  0  0  0  0  0  0  0  0  0
  138.4220   77.3760  222.3200 N   0  0  0  0  0  0  0  0  0  0  0  0
  137.4810   78.2870  222.5540 C   0  0  0  0  0  0  0  0  0  0  0  0
  136.1890   78.0470  222.1400 C   0  0  0  0  0  0  0  0  0  0  0  0
  135.2570   79.0310  222.4120 C   0  0  0  0  0  0  0  0  0  0  0  0
  133.5930   78.7840  221.9100 Cl  0  0  0  0  0  0  0  0  0  0  0  0
  135.5750   80.2050  223.0650 C   0  0  0  0  0  0  0  0  0  0  0  0
  136.8930   80.3840  223.4560 C   0  0  0  0  0  0  0  0  0  0  0  0
  137.8590   79.4400  223.2100 C   0  0  0  0  0  0  0  0  0  0  0  0
  139.1790   79.5880  223.5860 C   0  0  0  0  0  0  0  0  0  0  0  0
  139.4760   80.6540  224.1770 O   0  0  0  0  0  0  0  0  0  0  0  0
  140.1260   78.6640  223.3470 N   0  0  0  0  0  0  0  0  0  0  0  0
  141.4930   78.7510  223.7270 C   0  0  0  0  0  0  0  0  0  0  0  0
  142.4320   79.4250  222.7970 C   0  0  0  0  0  0  0  0  0  0  0  0
  141.9420   79.4350  221.3620 C   0  0  0  0  0  0  0  0  0  0  0  0
  141.1750   80.6460  220.9660 C   0  0  0  0  0  0  0  0  0  0  0  0
  141.7720   81.8800  221.4410 N   0  0  0  0  0  0  0  0  0  0  0  0
  141.8320   81.8420  222.9050 C   0  0  0  0  0  0  0  0  0  0  0  0
  142.8540   80.8020  223.2420 C   0  0  0  0  0  0  0  0  0  0  0  0
  142.0440   73.9160  221.0240 C   0  0  0  0  0  0  0  0  0  0  0  0
  143.0860   73.1690  220.5800 C   0  0  0  0  0  0  0  0  0  0  0  0
  146.6640   71.2410  220.3610 H   0  0  0  0  0  0  0  0  0  0  0  0
  145.8500   72.2900  221.3860 H   0  0  0  0  0  0  0  0  0  0  0  0
  144.6035   75.4537  218.6147 H   0  0  0  0  0  0  0  0  0  0  0  0
  142.7019   76.7894  219.4340 H   0  0  0  0  0  0  0  0  0  0  0  0
  139.9050   76.2070  220.4414 H   0  0  0  0  0  0  0  0  0  0  0  0
  141.2331   75.9988  223.1660 H   0  0  0  0  0  0  0  0  0  0  0  0
  135.9128   77.1185  221.6189 H   0  0  0  0  0  0  0  0  0  0  0  0
  134.8110   80.9700  223.2676 H   0  0  0  0  0  0  0  0  0  0  0  0
  137.1732   81.3102  223.9790 H   0  0  0  0  0  0  0  0  0  0  0  0
  141.5330   79.2938  224.6829 H   0  0  0  0  0  0  0  0  0  0  0  0
  141.8373   77.7067  223.7567 H   0  0  0  0  0  0  0  0  0  0  0  0
  143.3375   78.8012  222.8295 H   0  0  0  0  0  0  0  0  0  0  0  0
  142.8184   79.3557  220.7020 H   0  0  0  0  0  0  0  0  0  0  0  0
  141.2463   78.5879  221.2698 H   0  0  0  0  0  0  0  0  0  0  0  0
  141.1221   80.6830  219.8679 H   0  0  0  0  0  0  0  0  0  0  0  0
  140.1783   80.5668  221.4247 H   0  0  0  0  0  0  0  0  0  0  0  0
  141.0750   82.6340  221.2080 H   0  0  0  0  0  0  0  0  0  0  0  0
  142.1366   82.8217  223.3018 H   0  0  0  0  0  0  0  0  0  0  0  0
  140.8521   81.6057  223.3453 H   0  0  0  0  0  0  0  0  0  0  0  0
  143.8003   81.0607  222.7445 H   0  0  0  0  0  0  0  0  0  0  0  0
  142.9693   80.7833  224.3358 H   0  0  0  0  0  0  0  0  0  0  0  0
  141.3189   73.4597  221.7139 H   0  0  0  0  0  0  0  0  0  0  0  0
  143.1872   72.1268  220.9169 H   0  0  0  0  0  0  0  0  0  0  0  0
  1  2  1  0
  2  3  2  0
  2  4  2  0
  2  5  1  0
  5  6  2  0
  6  7  1  0
  7  8  2  0
  8  9  1  0
  9 10  2  0
 10 11  1  0
 11 12  2  0
 12 13  1  0
 13 14  2  0
 14 15  1  0
 15 16  1  0
 15 17  2  0
 17 18  1  0
 18 19  2  0
 19 20  1  0
 20 21  2  0
 20 22  1  0
 22 23  1  0
 23 24  1  0
 24 25  1  0
 25 26  1  0
 26 27  1  0
 27 28  1  0
 28 29  1  0
  8 30  1  0
 30 31  2  0
 31  5  1  0
 22 11  1  0
 29 24  1  0
 19 13  1  0
  1 32  1  0
  1 33  1  0
  6 34  1  0
  7 35  1  0
  9 36  1  0
 10 37  1  0
 14 38  1  0
 17 39  1  0
 18 40  1  0
 23 41  1  0
 23 42  1  0
 24 43  1  0
 25 44  1  0
 25 45  1  0
 26 46  1  0
 26 47  1  0
 27 48  1  0
 28 49  1  0
 28 50  1  0
 29 51  1  0
 29 52  1  0
 30 53  1  0
 31 54  1  0
M  END
>  <smiles>  (12) 
NS(=O)(=O)c1ccc(/C=C/c2nc3cc(Cl)ccc3c(=O)n2CC2CCNCC2)cc1

>  <score_type>  (12) 
oracle

>  <origin>  (12) 
autodockgpu

>  <m_score__min__energy>  (12) 
-10.359999999999999

>  <m_primary>  (12) 
energy

>  <rmsd>  (12) 
4.757834557435547

>  <m_score__min__rmsd>  (12) 
4.757834557435547

>  <meeko>  (12) 
{"free_energy": -7.66, "intermolecular_energy": -9.75, "internal_energy": -1.59, "cluster_size": 2, "cluster_id": 4, "rank_in_cluster": 2}

>  <energy>  (12) 
-9.81

>  <cluster_rmsd>  (12) 
0.46

>  <cluster>  (12) 
1

$$$$

     RDKit          3D

 54 57  0  0  0  0  0  0  0  0999 V2000
  139.6110   68.7900  228.3820 N   0  0  0  0  0  0  0  0  0  0  0  0
  140.0650   68.1800  226.8510 S   0  0  0  0  0  0  0  0  0  0  0  0
  141.4760   67.6400  226.8440 O   0  0  0  0  0  0  0  0  0  0  0  0
  139.1600   67.0360  226.4980 O   0  0  0  0  0  0  0  0  0  0  0  0
  139.8950   69.3930  225.6030 C   0  0  0  0  0  0  0  0  0  0  0  0
  138.8080   69.4350  224.7510 C   0  0  0  0  0  0  0  0  0  0  0  0
  138.7410   70.4230  223.7880 C   0  0  0  0  0  0  0  0  0  0  0  0
  139.7190   71.3840  223.6340 C   0  0  0  0  0  0  0  0  0  0  0  0
  139.6700   72.4320  222.6290 C   0  0  0  0  0  0  0  0  0  0  0  0
  140.5260   72.5540  221.6360 C   0  0  0  0  0  0  0  0  0  0  0  0
  141.0090   73.8620  221.2060 C   0  0  0  0  0  0  0  0  0  0  0  0
  140.6260   74.9170  221.9700 N   0  0  0  0  0  0  0  0  0  0  0  0
  140.9900   76.1680  221.7010 C   0  0  0  0  0  0  0  0  0  0  0  0
  140.5630   77.1890  222.5220 C   0  0  0  0  0  0  0  0  0  0  0  0
  140.9750   78.4660  222.1910 C   0  0  0  0  0  0  0  0  0  0  0  0
  140.4640   79.8100  223.1990 Cl  0  0  0  0  0  0  0  0  0  0  0  0
  141.7740   78.7360  221.0980 C   0  0  0  0  0  0  0  0  0  0  0  0
  142.1700   77.6630  220.3130 C   0  0  0  0  0  0  0  0  0  0  0  0
  141.7890   76.3760  220.5960 C   0  0  0  0  0  0  0  0  0  0  0  0
  142.1650   75.2870  219.8350 C   0  0  0  0  0  0  0  0  0  0  0  0
  142.8890   75.5260  218.8380 O   0  0  0  0  0  0  0  0  0  0  0  0
  141.7950   74.0250  220.1120 N   0  0  0  0  0  0  0  0  0  0  0  0
  142.1660   72.8640  219.3790 C   0  0  0  0  0  0  0  0  0  0  0  0
  143.4200   72.1710  219.7620 C   0  0  0  0  0  0  0  0  0  0  0  0
  144.2790   71.7960  218.5700 C   0  0  0  0  0  0  0  0  0  0  0  0
  145.3160   72.7960  218.2000 C   0  0  0  0  0  0  0  0  0  0  0  0
  146.0230   73.3370  219.3470 N   0  0  0  0  0  0  0  0  0  0  0  0
  145.0560   73.9940  220.2290 C   0  0  0  0  0  0  0  0  0  0  0  0
  144.2240   72.8930  220.8130 C   0  0  0  0  0  0  0  0  0  0  0  0
  140.7920   71.3040  224.5110 C   0  0  0  0  0  0  0  0  0  0  0  0
  140.8790   70.3420  225.4640 C   0  0  0  0  0  0  0  0  0  0  0  0
  138.7770   69.4190  228.2760 H   0  0  0  0  0  0  0  0  0  0  0  0
  140.3690   69.3580  228.8000 H   0  0  0  0  0  0  0  0  0  0  0  0
  138.0042   68.6892  224.8387 H   0  0  0  0  0  0  0  0  0  0  0  0
  137.8710   70.4445  223.1153 H   0  0  0  0  0  0  0  0  0  0  0  0
  138.8620   73.1748  222.7027 H   0  0  0  0  0  0  0  0  0  0  0  0
  140.8844   71.6511  221.1199 H   0  0  0  0  0  0  0  0  0  0  0  0
  139.9256   76.9971  223.3977 H   0  0  0  0  0  0  0  0  0  0  0  0
  142.0850   79.7636  220.8585 H   0  0  0  0  0  0  0  0  0  0  0  0
  142.8088   77.8499  219.4372 H   0  0  0  0  0  0  0  0  0  0  0  0
  141.3464   72.1373  219.4802 H   0  0  0  0  0  0  0  0  0  0  0  0
  142.3549   73.2310  218.3594 H   0  0  0  0  0  0  0  0  0  0  0  0
  143.0792   71.2343  220.2272 H   0  0  0  0  0  0  0  0  0  0  0  0
  144.7869   70.8479  218.8008 H   0  0  0  0  0  0  0  0  0  0  0  0
  143.5968   71.7295  217.7097 H   0  0  0  0  0  0  0  0  0  0  0  0
  146.0467   72.3124  217.5350 H   0  0  0  0  0  0  0  0  0  0  0  0
  144.8013   73.6343  217.7077 H   0  0  0  0  0  0  0  0  0  0  0  0
  146.6240   74.1100  218.9630 H   0  0  0  0  0  0  0  0  0  0  0  0
  145.5769   74.5448  221.0261 H   0  0  0  0  0  0  0  0  0  0  0  0
  144.4387   74.7223  219.6827 H   0  0  0  0  0  0  0  0  0  0  0  0
  144.8891   72.1708  221.3090 H   0  0  0  0  0  0  0  0  0  0  0  0
  143.5198   73.3435  221.5279 H   0  0  0  0  0  0  0  0  0  0  0  0
  141.5998   72.0462  224.4306 H   0  0  0  0  0  0  0  0  0  0  0  0
  141.7502   70.3215  226.1353 H   0  0  0  0  0  0  0  0  0  0  0  0
  1  2  1  0
  2  3  2  0
  2  4  2  0
  2  5  1  0
  5  6  2  0
  6  7  1  0
  7  8  2  0
  8  9  1  0
  9 10  2  0
 10 11  1  0
 11 12  2  0
 12 13  1  0
 13 14  2  0
 14 15  1  0
 15 16  1  0
 15 17  2  0
 17 18  1  0
 18 19  2  0
 19 20  1  0
 20 21  2  0
 20 22  1  0
 22 23  1  0
 23 24  1  0
 24 25  1  0
 25 26  1  0
 26 27  1  0
 27 28  1  0
 28 29  1  0
  8 30  1  0
 30 31  2  0
 31  5  1  0
 22 11  1  0
 29 24  1  0
 19 13  1  0
  1 32  1  0
  1 33  1  0
  6 34  1  0
  7 35  1  0
  9 36  1  0
 10 37  1  0
 14 38  1  0
 17 39  1  0
 18 40  1  0
 23 41  1  0
 23 42  1  0
 24 43  1  0
 25 44  1  0
 25 45  1  0
 26 46  1  0
 26 47  1  0
 27 48  1  0
 28 49  1  0
 28 50  1  0
 29 51  1  0
 29 52  1  0
 30 53  1  0
 31 54  1  0
M  END
>  <smiles>  (13) 
NS(=O)(=O)c1ccc(/C=C/c2nc3cc(Cl)ccc3c(=O)n2CC2CCNCC2)cc1

>  <score_type>  (13) 
oracle

>  <origin>  (13) 
autodockgpu

>  <m_score__min__energy>  (13) 
-10.359999999999999

>  <m_primary>  (13) 
energy

>  <rmsd>  (13) 
5.445899383349924

>  <m_score__min__rmsd>  (13) 
5.445899383349924

>  <meeko>  (13) 
{"free_energy": -9.46, "intermolecular_energy": -11.54, "internal_energy": -1.37, "cluster_size": 33, "cluster_id": 1, "rank_in_cluster": 25}

>  <energy>  (13) 
-9.8

>  <cluster_rmsd>  (13) 
0.59

>  <cluster>  (13) 
1

$$$$

     RDKit          3D

 54 57  0  0  0  0  0  0  0  0999 V2000
  140.7060   67.6750  227.5780 N   0  0  0  0  0  0  0  0  0  0  0  0
  140.3260   69.3410  227.6210 S   0  0  0  0  0  0  0  0  0  0  0  0
  138.9890   69.6090  228.2720 O   0  0  0  0  0  0  0  0  0  0  0  0
  141.3610   70.0520  228.4450 O   0  0  0  0  0  0  0  0  0  0  0  0
  140.3510   70.0450  226.0200 C   0  0  0  0  0  0  0  0  0  0  0  0
  141.0850   71.1750  225.7160 C   0  0  0  0  0  0  0  0  0  0  0  0
  141.0560   71.6740  224.4290 C   0  0  0  0  0  0  0  0  0  0  0  0
  140.3200   71.0920  223.4170 C   0  0  0  0  0  0  0  0  0  0  0  0
  140.2750   71.5990  222.0570 C   0  0  0  0  0  0  0  0  0  0  0  0
  139.6100   72.6720  221.6820 C   0  0  0  0  0  0  0  0  0  0  0  0
  140.3010   73.8970  221.2920 C   0  0  0  0  0  0  0  0  0  0  0  0
  140.0880   74.9770  222.0860 N   0  0  0  0  0  0  0  0  0  0  0  0
  140.6510   76.1600  221.8550 C   0  0  0  0  0  0  0  0  0  0  0  0
  140.3890   77.2120  222.7040 C   0  0  0  0  0  0  0  0  0  0  0  0
  141.0040   78.4150  222.4110 C   0  0  0  0  0  0  0  0  0  0  0  0
  140.7100   79.7950  223.4570 Cl  0  0  0  0  0  0  0  0  0  0  0  0
  141.8450   78.5830  221.3290 C   0  0  0  0  0  0  0  0  0  0  0  0
  142.0680   77.4840  220.5140 C   0  0  0  0  0  0  0  0  0  0  0  0
  141.4820   76.2670  220.7580 C   0  0  0  0  0  0  0  0  0  0  0  0
  141.6820   75.1540  219.9670 C   0  0  0  0  0  0  0  0  0  0  0  0
  142.4430   75.3010  218.9790 O   0  0  0  0  0  0  0  0  0  0  0  0
  141.1110   73.9610  220.2050 N   0  0  0  0  0  0  0  0  0  0  0  0
  141.2950   72.7770  219.4390 C   0  0  0  0  0  0  0  0  0  0  0  0
  142.5680   72.0330  219.6050 C   0  0  0  0  0  0  0  0  0  0  0  0
  143.4240   72.0350  218.3540 C   0  0  0  0  0  0  0  0  0  0  0  0
  144.4350   73.1230  218.2840 C   0  0  0  0  0  0  0  0  0  0  0  0
  145.1400   73.3290  219.5360 N   0  0  0  0  0  0  0  0  0  0  0  0
  144.1670   73.6830  220.5720 C   0  0  0  0  0  0  0  0  0  0  0  0
  143.3650   72.4420  220.8170 C   0  0  0  0  0  0  0  0  0  0  0  0
  139.5990   69.9590  223.7670 C   0  0  0  0  0  0  0  0  0  0  0  0
  139.6120   69.4510  225.0250 C   0  0  0  0  0  0  0  0  0  0  0  0
  139.8320   67.1200  227.4010 H   0  0  0  0  0  0  0  0  0  0  0  0
  141.0910   67.3540  228.4840 H   0  0  0  0  0  0  0  0  0  0  0  0
  141.6864   71.6722  226.4913 H   0  0  0  0  0  0  0  0  0  0  0  0
  141.6450   72.5744  224.2004 H   0  0  0  0  0  0  0  0  0  0  0  0
  140.8352   71.0487  221.2867 H   0  0  0  0  0  0  0  0  0  0  0  0
  138.5105   72.6445  221.6623 H   0  0  0  0  0  0  0  0  0  0  0  0
  139.7232   77.1007  223.5725 H   0  0  0  0  0  0  0  0  0  0  0  0
  142.3205   79.5529  221.1213 H   0  0  0  0  0  0  0  0  0  0  0  0
  142.7347   77.5905  219.6456 H   0  0  0  0  0  0  0  0  0  0  0  0
  140.4772   72.0887  219.6985 H   0  0  0  0  0  0  0  0  0  0  0  0
  141.3126   73.1239  218.3953 H   0  0  0  0  0  0  0  0  0  0  0  0
  142.2520   70.9946  219.7834 H   0  0  0  0  0  0  0  0  0  0  0  0
  143.9546   71.0728  218.3025 H   0  0  0  0  0  0  0  0  0  0  0  0
  142.7360   72.2012  217.5120 H   0  0  0  0  0  0  0  0  0  0  0  0
  145.1701   72.8678  217.5065 H   0  0  0  0  0  0  0  0  0  0  0  0
  143.8975   74.0548  218.0540 H   0  0  0  0  0  0  0  0  0  0  0  0
  145.7210   74.1940  219.3890 H   0  0  0  0  0  0  0  0  0  0  0  0
  144.6830   73.9940  221.4924 H   0  0  0  0  0  0  0  0  0  0  0  0
  143.5293   74.5230  220.2595 H   0  0  0  0  0  0  0  0  0  0  0  0
  144.0502   71.6238  221.0835 H   0  0  0  0  0  0  0  0  0  0  0  0
  142.6573   72.6518  221.6326 H   0  0  0  0  0  0  0  0  0  0  0  0
  138.9958   69.4551  222.9974 H   0  0  0  0  0  0  0  0  0  0  0  0
  139.0224   68.5505  225.2519 H   0  0  0  0  0  0  0  0  0  0  0  0
  1  2  1  0
  2  3  2  0
  2  4  2  0
  2  5  1  0
  5  6  2  0
  6  7  1  0
  7  8  2  0
  8  9  1  0
  9 10  2  0
 10 11  1  0
 11 12  2  0
 12 13  1  0
 13 14  2  0
 14 15  1  0
 15 16  1  0
 15 17  2  0
 17 18  1  0
 18 19  2  0
 19 20  1  0
 20 21  2  0
 20 22  1  0
 22 23  1  0
 23 24  1  0
 24 25  1  0
 25 26  1  0
 26 27  1  0
 27 28  1  0
 28 29  1  0
  8 30  1  0
 30 31  2  0
 31  5  1  0
 22 11  1  0
 29 24  1  0
 19 13  1  0
  1 32  1  0
  1 33  1  0
  6 34  1  0
  7 35  1  0
  9 36  1  0
 10 37  1  0
 14 38  1  0
 17 39  1  0
 18 40  1  0
 23 41  1  0
 23 42  1  0
 24 43  1  0
 25 44  1  0
 25 45  1  0
 26 46  1  0
 26 47  1  0
 27 48  1  0
 28 49  1  0
 28 50  1  0
 29 51  1  0
 29 52  1  0
 30 53  1  0
 31 54  1  0
M  END
>  <smiles>  (14) 
NS(=O)(=O)c1ccc(/C=C/c2nc3cc(Cl)ccc3c(=O)n2CC2CCNCC2)cc1

>  <score_type>  (14) 
oracle

>  <origin>  (14) 
autodockgpu

>  <m_score__min__energy>  (14) 
-10.359999999999999

>  <m_primary>  (14) 
energy

>  <rmsd>  (14) 
5.208642079395775

>  <m_score__min__rmsd>  (14) 
5.208642079395775

>  <meeko>  (14) 
{"free_energy": -8.66, "intermolecular_energy": -10.75, "internal_energy": -1.34, "cluster_size": 33, "cluster_id": 1, "rank_in_cluster": 32}

>  <energy>  (14) 
-9.78

>  <cluster_rmsd>  (14) 
0.63

>  <cluster>  (14) 
1

$$$$

     RDKit          3D

 54 57  0  0  0  0  0  0  0  0999 V2000
  140.7900   68.0740  228.0610 N   0  0  0  0  0  0  0  0  0  0  0  0
  140.2570   69.6860  227.8640 S   0  0  0  0  0  0  0  0  0  0  0  0
  138.8520   69.8930  228.3790 O   0  0  0  0  0  0  0  0  0  0  0  0
  141.1510   70.5910  228.6630 O   0  0  0  0  0  0  0  0  0  0  0  0
  140.3510   70.1910  226.1930 C   0  0  0  0  0  0  0  0  0  0  0  0
  139.8330   69.4360  225.1580 C   0  0  0  0  0  0  0  0  0  0  0  0
  139.9440   69.8990  223.8620 C   0  0  0  0  0  0  0  0  0  0  0  0
  140.5540   71.0950  223.5450 C   0  0  0  0  0  0  0  0  0  0  0  0
  140.6820   71.6030  222.1890 C   0  0  0  0  0  0  0  0  0  0  0  0
  139.9440   72.5680  221.6820 C   0  0  0  0  0  0  0  0  0  0  0  0
  140.5190   73.8660  221.3450 C   0  0  0  0  0  0  0  0  0  0  0  0
  140.0940   74.9160  222.0940 N   0  0  0  0  0  0  0  0  0  0  0  0
  140.5310   76.1580  221.9030 C   0  0  0  0  0  0  0  0  0  0  0  0
  140.0550   77.1740  222.7020 C   0  0  0  0  0  0  0  0  0  0  0  0
  140.5470   78.4420  222.4550 C   0  0  0  0  0  0  0  0  0  0  0  0
  139.9800   79.7790  223.4400 Cl  0  0  0  0  0  0  0  0  0  0  0  0
  141.4700   78.7070  221.4620 C   0  0  0  0  0  0  0  0  0  0  0  0
  141.9090   77.6390  220.6940 C   0  0  0  0  0  0  0  0  0  0  0  0
  141.4530   76.3620  220.8970 C   0  0  0  0  0  0  0  0  0  0  0  0
  141.8690   75.2780  220.1490 C   0  0  0  0  0  0  0  0  0  0  0  0
  142.7050   75.5130  219.2430 O   0  0  0  0  0  0  0  0  0  0  0  0
  141.4240   74.0250  220.3470 N   0  0  0  0  0  0  0  0  0  0  0  0
  141.8300   72.8690  219.6250 C   0  0  0  0  0  0  0  0  0  0  0  0
  143.0860   72.1960  220.0380 C   0  0  0  0  0  0  0  0  0  0  0  0
  143.8130   71.5360  218.8820 C   0  0  0  0  0  0  0  0  0  0  0  0
  144.8490   72.3760  218.2260 C   0  0  0  0  0  0  0  0  0  0  0  0
  145.6820   73.0970  219.1710 N   0  0  0  0  0  0  0  0  0  0  0  0
  144.8300   73.9770  219.9740 C   0  0  0  0  0  0  0  0  0  0  0  0
  144.0140   73.0690  220.8430 C   0  0  0  0  0  0  0  0  0  0  0  0
  141.0590   71.8210  224.6140 C   0  0  0  0  0  0  0  0  0  0  0  0
  140.9620   71.3850  225.8960 C   0  0  0  0  0  0  0  0  0  0  0  0
  141.6120   67.8960  227.4310 H   0  0  0  0  0  0  0  0  0  0  0  0
  140.0520   67.3990  227.7940 H   0  0  0  0  0  0  0  0  0  0  0  0
  139.3373   68.4760  225.3645 H   0  0  0  0  0  0  0  0  0  0  0  0
  139.5282   69.2880  223.0473 H   0  0  0  0  0  0  0  0  0  0  0  0
  141.4479   71.1501  221.5423 H   0  0  0  0  0  0  0  0  0  0  0  0
  138.8720   72.3922  221.5089 H   0  0  0  0  0  0  0  0  0  0  0  0
  139.3193   76.9856  223.4977 H   0  0  0  0  0  0  0  0  0  0  0  0
  141.8428   79.7270  221.2870 H   0  0  0  0  0  0  0  0  0  0  0  0
  142.6455   77.8220  219.8977 H   0  0  0  0  0  0  0  0  0  0  0  0
  141.0198   72.1297  219.7087 H   0  0  0  0  0  0  0  0  0  0  0  0
  142.0366   73.2376  218.6094 H   0  0  0  0  0  0  0  0  0  0  0  0
  142.7534   71.3960  220.7158 H   0  0  0  0  0  0  0  0  0  0  0  0
  144.3019   70.6267  219.2617 H   0  0  0  0  0  0  0  0  0  0  0  0
  143.0503   71.3360  218.1150 H   0  0  0  0  0  0  0  0  0  0  0  0
  145.4936   71.7247  217.6175 H   0  0  0  0  0  0  0  0  0  0  0  0
  144.3242   73.1249  217.6146 H   0  0  0  0  0  0  0  0  0  0  0  0
  146.2760   73.7390  218.5850 H   0  0  0  0  0  0  0  0  0  0  0  0
  145.4455   74.6478  220.5915 H   0  0  0  0  0  0  0  0  0  0  0  0
  144.1937   74.6136  219.3417 H   0  0  0  0  0  0  0  0  0  0  0  0
  144.6940   72.4256  221.4207 H   0  0  0  0  0  0  0  0  0  0  0  0
  143.3992   73.6965  221.5050 H   0  0  0  0  0  0  0  0  0  0  0  0
  141.5549   72.7827  224.4160 H   0  0  0  0  0  0  0  0  0  0  0  0
  141.3790   71.9971  226.7093 H   0  0  0  0  0  0  0  0  0  0  0  0
  1  2  1  0
  2  3  2  0
  2  4  2  0
  2  5  1  0
  5  6  2  0
  6  7  1  0
  7  8  2  0
  8  9  1  0
  9 10  2  0
 10 11  1  0
 11 12  2  0
 12 13  1  0
 13 14  2  0
 14 15  1  0
 15 16  1  0
 15 17  2  0
 17 18  1  0
 18 19  2  0
 19 20  1  0
 20 21  2  0
 20 22  1  0
 22 23  1  0
 23 24  1  0
 24 25  1  0
 25 26  1  0
 26 27  1  0
 27 28  1  0
 28 29  1  0
  8 30  1  0
 30 31  2  0
 31  5  1  0
 22 11  1  0
 29 24  1  0
 19 13  1  0
  1 32  1  0
  1 33  1  0
  6 34  1  0
  7 35  1  0
  9 36  1  0
 10 37  1  0
 14 38  1  0
 17 39  1  0
 18 40  1  0
 23 41  1  0
 23 42  1  0
 24 43  1  0
 25 44  1  0
 25 45  1  0
 26 46  1  0
 26 47  1  0
 27 48  1  0
 28 49  1  0
 28 50  1  0
 29 51  1  0
 29 52  1  0
 30 53  1  0
 31 54  1  0
M  END
>  <smiles>  (15) 
NS(=O)(=O)c1ccc(/C=C/c2nc3cc(Cl)ccc3c(=O)n2CC2CCNCC2)cc1

>  <score_type>  (15) 
oracle

>  <origin>  (15) 
autodockgpu

>  <m_score__min__energy>  (15) 
-10.359999999999999

>  <m_primary>  (15) 
energy

>  <rmsd>  (15) 
5.369651280633069

>  <m_score__min__rmsd>  (15) 
5.369651280633069

>  <meeko>  (15) 
{"free_energy": -8.82, "intermolecular_energy": -10.91, "internal_energy": -1.26, "cluster_size": 33, "cluster_id": 1, "rank_in_cluster": 29}

>  <energy>  (15) 
-9.75

>  <cluster_rmsd>  (15) 
0.79

>  <cluster>  (15) 
1

$$$$

     RDKit          3D

 54 57  0  0  0  0  0  0  0  0999 V2000
  139.1990   67.3080  226.4250 N   0  0  0  0  0  0  0  0  0  0  0  0
  139.8950   68.8050  226.8690 S   0  0  0  0  0  0  0  0  0  0  0  0
  139.2160   69.4210  228.0700 O   0  0  0  0  0  0  0  0  0  0  0  0
  141.3290   68.5770  227.2490 O   0  0  0  0  0  0  0  0  0  0  0  0
  139.8750   69.9390  225.5380 C   0  0  0  0  0  0  0  0  0  0  0  0
  140.7620   70.9950  225.4480 C   0  0  0  0  0  0  0  0  0  0  0  0
  140.6870   71.8520  224.3670 C   0  0  0  0  0  0  0  0  0  0  0  0
  139.7570   71.7030  223.3590 C   0  0  0  0  0  0  0  0  0  0  0  0
  139.6590   72.5900  222.2130 C   0  0  0  0  0  0  0  0  0  0  0  0
  138.5900   73.2940  221.9030 C   0  0  0  0  0  0  0  0  0  0  0  0
  138.5090   74.7220  222.1960 C   0  0  0  0  0  0  0  0  0  0  0  0
  139.6950   75.3790  222.2730 N   0  0  0  0  0  0  0  0  0  0  0  0
  139.7770   76.6810  222.5320 C   0  0  0  0  0  0  0  0  0  0  0  0
  141.0160   77.2820  222.5960 C   0  0  0  0  0  0  0  0  0  0  0  0
  141.0360   78.6370  222.8680 C   0  0  0  0  0  0  0  0  0  0  0  0
  142.5830   79.4600  222.9610 Cl  0  0  0  0  0  0  0  0  0  0  0  0
  139.8880   79.3780  223.0700 C   0  0  0  0  0  0  0  0  0  0  0  0
  138.6740   78.7130  222.9920 C   0  0  0  0  0  0  0  0  0  0  0  0
  138.5970   77.3690  222.7260 C   0  0  0  0  0  0  0  0  0  0  0  0
  137.4050   76.6780  222.6410 C   0  0  0  0  0  0  0  0  0  0  0  0
  136.3580   77.3450  222.8270 O   0  0  0  0  0  0  0  0  0  0  0  0
  137.3270   75.3620  222.3790 N   0  0  0  0  0  0  0  0  0  0  0  0
  136.1320   74.6020  222.2600 C   0  0  0  0  0  0  0  0  0  0  0  0
  135.5520   74.0180  223.4950 C   0  0  0  0  0  0  0  0  0  0  0  0
  135.7750   74.8830  224.7210 C   0  0  0  0  0  0  0  0  0  0  0  0
  134.6750   75.8330  225.0310 C   0  0  0  0  0  0  0  0  0  0  0  0
  133.3560   75.2410  224.9030 N   0  0  0  0  0  0  0  0  0  0  0  0
  133.1780   74.7790  223.5240 C   0  0  0  0  0  0  0  0  0  0  0  0
  134.1060   73.6150  223.3640 C   0  0  0  0  0  0  0  0  0  0  0  0
  138.8870   70.6290  223.4890 C   0  0  0  0  0  0  0  0  0  0  0  0
  138.9420   69.7750  224.5420 C   0  0  0  0  0  0  0  0  0  0  0  0
  139.3710   66.6020  227.1840 H   0  0  0  0  0  0  0  0  0  0  0  0
  139.6290   66.9350  225.5610 H   0  0  0  0  0  0  0  0  0  0  0  0
  141.5202   71.1516  226.2294 H   0  0  0  0  0  0  0  0  0  0  0  0
  141.3989   72.6885  224.3075 H   0  0  0  0  0  0  0  0  0  0  0  0
  140.5386   72.6800  221.5587 H   0  0  0  0  0  0  0  0  0  0  0  0
  137.7404   72.7957  221.4131 H   0  0  0  0  0  0  0  0  0  0  0  0
  141.9431   76.7113  222.4384 H   0  0  0  0  0  0  0  0  0  0  0  0
  139.9352   80.4558  223.2848 H   0  0  0  0  0  0  0  0  0  0  0  0
  137.7443   79.2799  223.1481 H   0  0  0  0  0  0  0  0  0  0  0  0
  135.3684   75.2599  221.8194 H   0  0  0  0  0  0  0  0  0  0  0  0
  136.4196   73.7309  221.6529 H   0  0  0  0  0  0  0  0  0  0  0  0
  136.1168   73.0858  223.6434 H   0  0  0  0  0  0  0  0  0  0  0  0
  135.9056   74.2184  225.5877 H   0  0  0  0  0  0  0  0  0  0  0  0
  136.6599   75.4993  224.5041 H   0  0  0  0  0  0  0  0  0  0  0  0
  134.8003   76.1878  226.0646 H   0  0  0  0  0  0  0  0  0  0  0  0
  134.7370   76.6545  224.3021 H   0  0  0  0  0  0  0  0  0  0  0  0
  132.6800   76.0400  225.0210 H   0  0  0  0  0  0  0  0  0  0  0  0
  132.1371   74.4656  223.3558 H   0  0  0  0  0  0  0  0  0  0  0  0
  133.3966   75.5755  222.7975 H   0  0  0  0  0  0  0  0  0  0  0  0
  133.8747   72.8685  224.1381 H   0  0  0  0  0  0  0  0  0  0  0  0
  133.9603   73.2031  222.3545 H   0  0  0  0  0  0  0  0  0  0  0  0
  138.1266   70.4646  222.7113 H   0  0  0  0  0  0  0  0  0  0  0  0
  138.2294   68.9390  224.5995 H   0  0  0  0  0  0  0  0  0  0  0  0
  1  2  1  0
  2  3  2  0
  2  4  2  0
  2  5  1  0
  5  6  2  0
  6  7  1  0
  7  8  2  0
  8  9  1  0
  9 10  2  0
 10 11  1  0
 11 12  2  0
 12 13  1  0
 13 14  2  0
 14 15  1  0
 15 16  1  0
 15 17  2  0
 17 18  1  0
 18 19  2  0
 19 20  1  0
 20 21  2  0
 20 22  1  0
 22 23  1  0
 23 24  1  0
 24 25  1  0
 25 26  1  0
 26 27  1  0
 27 28  1  0
 28 29  1  0
  8 30  1  0
 30 31  2  0
 31  5  1  0
 22 11  1  0
 29 24  1  0
 19 13  1  0
  1 32  1  0
  1 33  1  0
  6 34  1  0
  7 35  1  0
  9 36  1  0
 10 37  1  0
 14 38  1  0
 17 39  1  0
 18 40  1  0
 23 41  1  0
 23 42  1  0
 24 43  1  0
 25 44  1  0
 25 45  1  0
 26 46  1  0
 26 47  1  0
 27 48  1  0
 28 49  1  0
 28 50  1  0
 29 51  1  0
 29 52  1  0
 30 53  1  0
 31 54  1  0
M  END
>  <smiles>  (16) 
NS(=O)(=O)c1ccc(/C=C/c2nc3cc(Cl)ccc3c(=O)n2CC2CCNCC2)cc1

>  <score_type>  (16) 
oracle

>  <origin>  (16) 
autodockgpu

>  <m_score__min__energy>  (16) 
-10.359999999999999

>  <m_primary>  (16) 
energy

>  <rmsd>  (16) 
6.623912793434478

>  <m_score__min__rmsd>  (16) 
6.623912793434478

>  <meeko>  (16) 
{"free_energy": -8.11, "intermolecular_energy": -10.2, "internal_energy": -1.46, "cluster_size": 2, "cluster_id": 5, "rank_in_cluster": 1}

>  <energy>  (16) 
-9.75

>  <cluster_rmsd>  (16) 
0.55

>  <cluster>  (16) 
1

$$$$

     RDKit          3D

 54 57  0  0  0  0  0  0  0  0999 V2000
  139.2040   67.0260  226.4690 N   0  0  0  0  0  0  0  0  0  0  0  0
  139.9670   68.5110  226.8340 S   0  0  0  0  0  0  0  0  0  0  0  0
  139.2980   69.2340  227.9800 O   0  0  0  0  0  0  0  0  0  0  0  0
  141.3810   68.2380  227.2590 O   0  0  0  0  0  0  0  0  0  0  0  0
  140.0290   69.5600  225.4360 C   0  0  0  0  0  0  0  0  0  0  0  0
  139.4860   69.2040  224.2160 C   0  0  0  0  0  0  0  0  0  0  0  0
  139.5730   70.0840  223.1550 C   0  0  0  0  0  0  0  0  0  0  0  0
  140.1830   71.3170  223.2550 C   0  0  0  0  0  0  0  0  0  0  0  0
  140.2860   72.2590  222.1530 C   0  0  0  0  0  0  0  0  0  0  0  0
  139.2650   72.8980  221.6200 C   0  0  0  0  0  0  0  0  0  0  0  0
  138.9670   74.2820  221.9720 C   0  0  0  0  0  0  0  0  0  0  0  0
  140.0330   75.1180  222.0450 N   0  0  0  0  0  0  0  0  0  0  0  0
  139.9150   76.4070  222.3540 C   0  0  0  0  0  0  0  0  0  0  0  0
  141.0420   77.1970  222.4090 C   0  0  0  0  0  0  0  0  0  0  0  0
  140.8540   78.5270  222.7350 C   0  0  0  0  0  0  0  0  0  0  0  0
  142.2520   79.5850  222.8200 Cl  0  0  0  0  0  0  0  0  0  0  0  0
  139.6100   79.0650  222.9980 C   0  0  0  0  0  0  0  0  0  0  0  0
  138.5160   78.2160  222.9250 C   0  0  0  0  0  0  0  0  0  0  0  0
  138.6470   76.8880  222.6060 C   0  0  0  0  0  0  0  0  0  0  0  0
  137.5790   76.0170  222.5260 C   0  0  0  0  0  0  0  0  0  0  0  0
  136.4450   76.4990  222.7670 O   0  0  0  0  0  0  0  0  0  0  0  0
  137.7040   74.7160  222.2130 N   0  0  0  0  0  0  0  0  0  0  0  0
  136.6420   73.7780  222.0950 C   0  0  0  0  0  0  0  0  0  0  0  0
  136.0820   73.2010  223.3420 C   0  0  0  0  0  0  0  0  0  0  0  0
  134.5680   73.1120  223.3270 C   0  0  0  0  0  0  0  0  0  0  0  0
  134.0170   71.8150  222.8520 C   0  0  0  0  0  0  0  0  0  0  0  0
  134.7150   70.6650  223.3960 N   0  0  0  0  0  0  0  0  0  0  0  0
  136.1220   70.7330  222.9920 C   0  0  0  0  0  0  0  0  0  0  0  0
  136.7050   71.8890  223.7450 C   0  0  0  0  0  0  0  0  0  0  0  0
  140.7140   71.6340  224.4980 C   0  0  0  0  0  0  0  0  0  0  0  0
  140.6400   70.7850  225.5540 C   0  0  0  0  0  0  0  0  0  0  0  0
  139.5110   66.2950  227.1580 H   0  0  0  0  0  0  0  0  0  0  0  0
  139.4720   66.6880  225.5280 H   0  0  0  0  0  0  0  0  0  0  0  0
  138.9898   68.2302  224.0913 H   0  0  0  0  0  0  0  0  0  0  0  0
  139.1372   69.7889  222.1891 H   0  0  0  0  0  0  0  0  0  0  0  0
  141.2853   72.4515  221.7354 H   0  0  0  0  0  0  0  0  0  0  0  0
  138.6234   72.3770  220.8941 H   0  0  0  0  0  0  0  0  0  0  0  0
  142.0428   76.7893  222.2035 H   0  0  0  0  0  0  0  0  0  0  0  0
  139.4911   80.1277  223.2559 H   0  0  0  0  0  0  0  0  0  0  0  0
  137.5131   78.6193  223.1290 H   0  0  0  0  0  0  0  0  0  0  0  0
  135.8178   74.2812  221.5683 H   0  0  0  0  0  0  0  0  0  0  0  0
  137.0893   72.9202  221.5714 H   0  0  0  0  0  0  0  0  0  0  0  0
  136.3598   73.9245  224.1226 H   0  0  0  0  0  0  0  0  0  0  0  0
  134.2065   73.2808  224.3521 H   0  0  0  0  0  0  0  0  0  0  0  0
  134.2235   73.8720  222.6103 H   0  0  0  0  0  0  0  0  0  0  0  0
  132.9594   71.7547  223.1484 H   0  0  0  0  0  0  0  0  0  0  0  0
  134.1416   71.7869  221.7594 H   0  0  0  0  0  0  0  0  0  0  0  0
  134.3170   69.8330  222.8890 H   0  0  0  0  0  0  0  0  0  0  0  0
  136.6425   69.8010  223.2572 H   0  0  0  0  0  0  0  0  0  0  0  0
  136.2261   70.8630  221.9047 H   0  0  0  0  0  0  0  0  0  0  0  0
  136.5371   71.7324  224.8208 H   0  0  0  0  0  0  0  0  0  0  0  0
  137.7788   71.9382  223.5113 H   0  0  0  0  0  0  0  0  0  0  0  0
  141.2114   72.6060  224.6313 H   0  0  0  0  0  0  0  0  0  0  0  0
  141.0758   71.0821  226.5193 H   0  0  0  0  0  0  0  0  0  0  0  0
  1  2  1  0
  2  3  2  0
  2  4  2  0
  2  5  1  0
  5  6  2  0
  6  7  1  0
  7  8  2  0
  8  9  1  0
  9 10  2  0
 10 11  1  0
 11 12  2  0
 12 13  1  0
 13 14  2  0
 14 15  1  0
 15 16  1  0
 15 17  2  0
 17 18  1  0
 18 19  2  0
 19 20  1  0
 20 21  2  0
 20 22  1  0
 22 23  1  0
 23 24  1  0
 24 25  1  0
 25 26  1  0
 26 27  1  0
 27 28  1  0
 28 29  1  0
  8 30  1  0
 30 31  2  0
 31  5  1  0
 22 11  1  0
 29 24  1  0
 19 13  1  0
  1 32  1  0
  1 33  1  0
  6 34  1  0
  7 35  1  0
  9 36  1  0
 10 37  1  0
 14 38  1  0
 17 39  1  0
 18 40  1  0
 23 41  1  0
 23 42  1  0
 24 43  1  0
 25 44  1  0
 25 45  1  0
 26 46  1  0
 26 47  1  0
 27 48  1  0
 28 49  1  0
 28 50  1  0
 29 51  1  0
 29 52  1  0
 30 53  1  0
 31 54  1  0
M  END
>  <smiles>  (17) 
NS(=O)(=O)c1ccc(/C=C/c2nc3cc(Cl)ccc3c(=O)n2CC2CCNCC2)cc1

>  <score_type>  (17) 
oracle

>  <origin>  (17) 
autodockgpu

>  <m_score__min__energy>  (17) 
-10.359999999999999

>  <m_primary>  (17) 
energy

>  <rmsd>  (17) 
6.7936850347535565

>  <m_score__min__rmsd>  (17) 
6.7936850347535565

>  <meeko>  (17) 
{"free_energy": -7.99, "intermolecular_energy": -10.08, "internal_energy": -1.72, "cluster_size": 2, "cluster_id": 5, "rank_in_cluster": 2}

>  <energy>  (17) 
-9.74

>  <cluster_rmsd>  (17) 
1.25

>  <cluster>  (17) 
1

$$$$

     RDKit          3D

 54 57  0  0  0  0  0  0  0  0999 V2000
  139.9700   68.5060  228.2080 N   0  0  0  0  0  0  0  0  0  0  0  0
  140.0080   67.9050  226.6080 S   0  0  0  0  0  0  0  0  0  0  0  0
  141.2380   67.0690  226.3380 O   0  0  0  0  0  0  0  0  0  0  0  0
  138.8200   67.0110  226.3990 O   0  0  0  0  0  0  0  0  0  0  0  0
  139.9090   69.1990  225.4360 C   0  0  0  0  0  0  0  0  0  0  0  0
  139.2670   69.0530  224.2220 C   0  0  0  0  0  0  0  0  0  0  0  0
  139.2290   70.1200  223.3440 C   0  0  0  0  0  0  0  0  0  0  0  0
  139.8090   71.3400  223.6250 C   0  0  0  0  0  0  0  0  0  0  0  0
  139.7810   72.4750  222.7190 C   0  0  0  0  0  0  0  0  0  0  0  0
  140.5490   72.6010  221.6570 C   0  0  0  0  0  0  0  0  0  0  0  0
  141.0230   73.9070  221.2130 C   0  0  0  0  0  0  0  0  0  0  0  0
  140.6460   74.9660  221.9740 N   0  0  0  0  0  0  0  0  0  0  0  0
  141.0020   76.2160  221.6920 C   0  0  0  0  0  0  0  0  0  0  0  0
  140.5820   77.2410  222.5120 C   0  0  0  0  0  0  0  0  0  0  0  0
  140.9860   78.5170  222.1670 C   0  0  0  0  0  0  0  0  0  0  0  0
  140.4830   79.8660  223.1710 Cl  0  0  0  0  0  0  0  0  0  0  0  0
  141.7700   78.7820  221.0620 C   0  0  0  0  0  0  0  0  0  0  0  0
  142.1600   77.7060  220.2790 C   0  0  0  0  0  0  0  0  0  0  0  0
  141.7870   76.4190  220.5760 C   0  0  0  0  0  0  0  0  0  0  0  0
  142.1570   75.3260  219.8180 C   0  0  0  0  0  0  0  0  0  0  0  0
  142.8680   75.5610  218.8100 O   0  0  0  0  0  0  0  0  0  0  0  0
  141.7940   74.0650  220.1080 N   0  0  0  0  0  0  0  0  0  0  0  0
  142.1600   72.9010  219.3780 C   0  0  0  0  0  0  0  0  0  0  0  0
  143.3930   72.1830  219.7860 C   0  0  0  0  0  0  0  0  0  0  0  0
  144.2400   71.7420  218.6070 C   0  0  0  0  0  0  0  0  0  0  0  0
  145.3060   72.6970  218.2050 C   0  0  0  0  0  0  0  0  0  0  0  0
  146.0290   73.2540  219.3330 N   0  0  0  0  0  0  0  0  0  0  0  0
  145.0830   73.9700  220.1910 C   0  0  0  0  0  0  0  0  0  0  0  0
  144.2190   72.9160  220.8110 C   0  0  0  0  0  0  0  0  0  0  0  0
  140.4420   71.4420  224.8560 C   0  0  0  0  0  0  0  0  0  0  0  0
  140.4920   70.4070  225.7330 C   0  0  0  0  0  0  0  0  0  0  0  0
  140.6090   69.3350  228.2870 H   0  0  0  0  0  0  0  0  0  0  0  0
  140.3060   67.7980  228.8840 H   0  0  0  0  0  0  0  0  0  0  0  0
  138.7908   68.0976  223.9565 H   0  0  0  0  0  0  0  0  0  0  0  0
  138.7145   69.9910  222.3803 H   0  0  0  0  0  0  0  0  0  0  0  0
  139.0690   73.2852  222.9351 H   0  0  0  0  0  0  0  0  0  0  0  0
  140.8392   71.7025  221.0927 H   0  0  0  0  0  0  0  0  0  0  0  0
  139.9564   77.0529  223.3970 H   0  0  0  0  0  0  0  0  0  0  0  0
  142.0742   79.8091  220.8118 H   0  0  0  0  0  0  0  0  0  0  0  0
  142.7868   77.8894  219.3938 H   0  0  0  0  0  0  0  0  0  0  0  0
  141.3253   72.1890  219.4572 H   0  0  0  0  0  0  0  0  0  0  0  0
  142.3784   73.2690  218.3647 H   0  0  0  0  0  0  0  0  0  0  0  0
  143.0243   71.2737  220.2833 H   0  0  0  0  0  0  0  0  0  0  0  0
  144.7190   70.7872  218.8695 H   0  0  0  0  0  0  0  0  0  0  0  0
  143.5559   71.6671  217.7489 H   0  0  0  0  0  0  0  0  0  0  0  0
  146.0215   72.1698  217.5569 H   0  0  0  0  0  0  0  0  0  0  0  0
  144.8165   73.5336  217.6850 H   0  0  0  0  0  0  0  0  0  0  0  0
  146.6540   73.9960  218.9230 H   0  0  0  0  0  0  0  0  0  0  0  0
  145.6205   74.5317  220.9692 H   0  0  0  0  0  0  0  0  0  0  0  0
  144.4881   74.6978  219.6198 H   0  0  0  0  0  0  0  0  0  0  0  0
  144.8623   72.1914  221.3317 H   0  0  0  0  0  0  0  0  0  0  0  0
  143.5289   73.4121  221.5093 H   0  0  0  0  0  0  0  0  0  0  0  0
  140.9195   72.3942  225.1304 H   0  0  0  0  0  0  0  0  0  0  0  0
  141.0072   70.5376  226.6961 H   0  0  0  0  0  0  0  0  0  0  0  0
  1  2  1  0
  2  3  2  0
  2  4  2  0
  2  5  1  0
  5  6  2  0
  6  7  1  0
  7  8  2  0
  8  9  1  0
  9 10  2  0
 10 11  1  0
 11 12  2  0
 12 13  1  0
 13 14  2  0
 14 15  1  0
 15 16  1  0
 15 17  2  0
 17 18  1  0
 18 19  2  0
 19 20  1  0
 20 21  2  0
 20 22  1  0
 22 23  1  0
 23 24  1  0
 24 25  1  0
 25 26  1  0
 26 27  1  0
 27 28  1  0
 28 29  1  0
  8 30  1  0
 30 31  2  0
 31  5  1  0
 22 11  1  0
 29 24  1  0
 19 13  1  0
  1 32  1  0
  1 33  1  0
  6 34  1  0
  7 35  1  0
  9 36  1  0
 10 37  1  0
 14 38  1  0
 17 39  1  0
 18 40  1  0
 23 41  1  0
 23 42  1  0
 24 43  1  0
 25 44  1  0
 25 45  1  0
 26 46  1  0
 26 47  1  0
 27 48  1  0
 28 49  1  0
 28 50  1  0
 29 51  1  0
 29 52  1  0
 30 53  1  0
 31 54  1  0
M  END
>  <smiles>  (18) 
NS(=O)(=O)c1ccc(/C=C/c2nc3cc(Cl)ccc3c(=O)n2CC2CCNCC2)cc1

>  <score_type>  (18) 
oracle

>  <origin>  (18) 
autodockgpu

>  <m_score__min__energy>  (18) 
-10.359999999999999

>  <m_primary>  (18) 
energy

>  <rmsd>  (18) 
5.432177929796323

>  <m_score__min__rmsd>  (18) 
5.432177929796323

>  <meeko>  (18) 
{"free_energy": -9.57, "intermolecular_energy": -11.65, "internal_energy": -1.36, "cluster_size": 33, "cluster_id": 1, "rank_in_cluster": 22}

>  <energy>  (18) 
-9.7

>  <cluster_rmsd>  (18) 
0.95

>  <cluster>  (18) 
1

$$$$

     RDKit          3D

 54 57  0  0  0  0  0  0  0  0999 V2000
  141.4380   67.5770  226.8140 N   0  0  0  0  0  0  0  0  0  0  0  0
  139.8850   68.2810  226.6990 S   0  0  0  0  0  0  0  0  0  0  0  0
  138.8070   67.2560  226.4320 O   0  0  0  0  0  0  0  0  0  0  0  0
  139.5510   68.9310  228.0110 O   0  0  0  0  0  0  0  0  0  0  0  0
  139.8330   69.5210  225.4670 C   0  0  0  0  0  0  0  0  0  0  0  0
  140.5010   70.7240  225.5950 C   0  0  0  0  0  0  0  0  0  0  0  0
  140.4150   71.6570  224.5800 C   0  0  0  0  0  0  0  0  0  0  0  0
  139.6850   71.4430  223.4290 C   0  0  0  0  0  0  0  0  0  0  0  0
  139.5800   72.4090  222.3490 C   0  0  0  0  0  0  0  0  0  0  0  0
  140.5740   72.7520  221.5550 C   0  0  0  0  0  0  0  0  0  0  0  0
  140.9400   74.1500  221.3570 C   0  0  0  0  0  0  0  0  0  0  0  0
  140.2070   75.0590  222.0490 N   0  0  0  0  0  0  0  0  0  0  0  0
  140.4260   76.3680  221.9690 C   0  0  0  0  0  0  0  0  0  0  0  0
  139.6420   77.2330  222.7020 C   0  0  0  0  0  0  0  0  0  0  0  0
  139.9190   78.5810  222.5760 C   0  0  0  0  0  0  0  0  0  0  0  0
  138.9550   79.7330  223.4850 Cl  0  0  0  0  0  0  0  0  0  0  0  0
  140.9250   79.0670  221.7640 C   0  0  0  0  0  0  0  0  0  0  0  0
  141.6770   78.1440  221.0540 C   0  0  0  0  0  0  0  0  0  0  0  0
  141.4440   76.7950  221.1420 C   0  0  0  0  0  0  0  0  0  0  0  0
  142.1750   75.8510  220.4480 C   0  0  0  0  0  0  0  0  0  0  0  0
  143.0880   76.2860  219.7060 O   0  0  0  0  0  0  0  0  0  0  0  0
  141.9490   74.5290  220.5330 N   0  0  0  0  0  0  0  0  0  0  0  0
  142.6790   73.5100  219.8610 C   0  0  0  0  0  0  0  0  0  0  0  0
  144.0540   73.8270  219.4020 C   0  0  0  0  0  0  0  0  0  0  0  0
  144.9960   74.1640  220.5410 C   0  0  0  0  0  0  0  0  0  0  0  0
  145.7770   73.0160  221.0740 C   0  0  0  0  0  0  0  0  0  0  0  0
  146.3190   72.1620  220.0330 N   0  0  0  0  0  0  0  0  0  0  0  0
  145.2100   71.6250  219.2410 C   0  0  0  0  0  0  0  0  0  0  0  0
  144.6500   72.7900  218.4850 C   0  0  0  0  0  0  0  0  0  0  0  0
  139.0310   70.2220  223.3420 C   0  0  0  0  0  0  0  0  0  0  0  0
  139.1020   69.2910  224.3270 C   0  0  0  0  0  0  0  0  0  0  0  0
  141.7850   67.3340  225.8530 H   0  0  0  0  0  0  0  0  0  0  0  0
  141.4120   66.6960  227.3580 H   0  0  0  0  0  0  0  0  0  0  0  0
  141.0952   70.9364  226.4960 H   0  0  0  0  0  0  0  0  0  0  0  0
  140.9511   72.6107  224.6942 H   0  0  0  0  0  0  0  0  0  0  0  0
  138.6034   72.8870  222.1827 H   0  0  0  0  0  0  0  0  0  0  0  0
  141.1396   71.9677  221.0305 H   0  0  0  0  0  0  0  0  0  0  0  0
  138.8355   76.8682  223.3551 H   0  0  0  0  0  0  0  0  0  0  0  0
  141.1221   80.1462  221.6837 H   0  0  0  0  0  0  0  0  0  0  0  0
  142.4850   78.5042  220.4002 H   0  0  0  0  0  0  0  0  0  0  0  0
  142.7523   72.6532  220.5470 H   0  0  0  0  0  0  0  0  0  0  0  0
  142.1137   73.3319  218.9343 H   0  0  0  0  0  0  0  0  0  0  0  0
  143.9332   74.7372  218.7962 H   0  0  0  0  0  0  0  0  0  0  0  0
  145.7071   74.9227  220.1821 H   0  0  0  0  0  0  0  0  0  0  0  0
  144.3625   74.5146  221.3691 H   0  0  0  0  0  0  0  0  0  0  0  0
  146.6112   73.4088  221.6738 H   0  0  0  0  0  0  0  0  0  0  0  0
  145.0892   72.4031  221.6752 H   0  0  0  0  0  0  0  0  0  0  0  0
  146.7300   71.3350  220.5390 H   0  0  0  0  0  0  0  0  0  0  0  0
  145.5737   70.8551  218.5446 H   0  0  0  0  0  0  0  0  0  0  0  0
  144.4488   71.1508  219.8779 H   0  0  0  0  0  0  0  0  0  0  0  0
  145.4577   73.2552  217.9009 H   0  0  0  0  0  0  0  0  0  0  0  0
  143.8489   72.4158  217.8306 H   0  0  0  0  0  0  0  0  0  0  0  0
  138.4349   70.0013  222.4443 H   0  0  0  0  0  0  0  0  0  0  0  0
  138.5659   68.3376  224.2106 H   0  0  0  0  0  0  0  0  0  0  0  0
  1  2  1  0
  2  3  2  0
  2  4  2  0
  2  5  1  0
  5  6  2  0
  6  7  1  0
  7  8  2  0
  8  9  1  0
  9 10  2  0
 10 11  1  0
 11 12  2  0
 12 13  1  0
 13 14  2  0
 14 15  1  0
 15 16  1  0
 15 17  2  0
 17 18  1  0
 18 19  2  0
 19 20  1  0
 20 21  2  0
 20 22  1  0
 22 23  1  0
 23 24  1  0
 24 25  1  0
 25 26  1  0
 26 27  1  0
 27 28  1  0
 28 29  1  0
  8 30  1  0
 30 31  2  0
 31  5  1  0
 22 11  1  0
 29 24  1  0
 19 13  1  0
  1 32  1  0
  1 33  1  0
  6 34  1  0
  7 35  1  0
  9 36  1  0
 10 37  1  0
 14 38  1  0
 17 39  1  0
 18 40  1  0
 23 41  1  0
 23 42  1  0
 24 43  1  0
 25 44  1  0
 25 45  1  0
 26 46  1  0
 26 47  1  0
 27 48  1  0
 28 49  1  0
 28 50  1  0
 29 51  1  0
 29 52  1  0
 30 53  1  0
 31 54  1  0
M  END
>  <smiles>  (19) 
NS(=O)(=O)c1ccc(/C=C/c2nc3cc(Cl)ccc3c(=O)n2CC2CCNCC2)cc1

>  <score_type>  (19) 
oracle

>  <origin>  (19) 
autodockgpu

>  <m_score__min__energy>  (19) 
-10.359999999999999

>  <m_primary>  (19) 
energy

>  <rmsd>  (19) 
5.056924379237128

>  <m_score__min__rmsd>  (19) 
5.056924379237128

>  <meeko>  (19) 
{"free_energy": -10.12, "intermolecular_energy": -12.21, "internal_energy": -0.95, "cluster_size": 33, "cluster_id": 1, "rank_in_cluster": 6}

>  <energy>  (19) 
-9.7

>  <cluster_rmsd>  (19) 
0.82

>  <cluster>  (19) 
1

$$$$

     RDKit          3D

 54 57  0  0  0  0  0  0  0  0999 V2000
  141.3230   67.7930  226.9820 N   0  0  0  0  0  0  0  0  0  0  0  0
  139.8100   68.4680  226.5610 S   0  0  0  0  0  0  0  0  0  0  0  0
  138.8060   67.4160  226.1520 O   0  0  0  0  0  0  0  0  0  0  0  0
  139.2420   69.1690  227.7610 O   0  0  0  0  0  0  0  0  0  0  0  0
  139.9720   69.6530  225.2840 C   0  0  0  0  0  0  0  0  0  0  0  0
  140.6200   70.8590  225.4680 C   0  0  0  0  0  0  0  0  0  0  0  0
  140.7090   71.7470  224.4140 C   0  0  0  0  0  0  0  0  0  0  0  0
  140.1740   71.4850  223.1690 C   0  0  0  0  0  0  0  0  0  0  0  0
  140.2550   72.4020  222.0460 C   0  0  0  0  0  0  0  0  0  0  0  0
  141.3730   72.9370  221.5980 C   0  0  0  0  0  0  0  0  0  0  0  0
  141.4530   74.3530  221.2560 C   0  0  0  0  0  0  0  0  0  0  0  0
  140.7630   75.1990  222.0630 N   0  0  0  0  0  0  0  0  0  0  0  0
  140.7440   76.5150  221.8740 C   0  0  0  0  0  0  0  0  0  0  0  0
  140.0200   77.3130  222.7340 C   0  0  0  0  0  0  0  0  0  0  0  0
  140.0400   78.6720  222.4860 C   0  0  0  0  0  0  0  0  0  0  0  0
  139.1380   79.7410  223.5470 Cl  0  0  0  0  0  0  0  0  0  0  0  0
  140.7410   79.2330  221.4360 C   0  0  0  0  0  0  0  0  0  0  0  0
  141.4490   78.3750  220.6080 C   0  0  0  0  0  0  0  0  0  0  0  0
  141.4630   77.0180  220.8090 C   0  0  0  0  0  0  0  0  0  0  0  0
  142.1570   76.1370  220.0030 C   0  0  0  0  0  0  0  0  0  0  0  0
  142.7930   76.6390  219.0460 O   0  0  0  0  0  0  0  0  0  0  0  0
  142.1730   74.8070  220.1990 N   0  0  0  0  0  0  0  0  0  0  0  0
  142.8830   73.8550  219.4170 C   0  0  0  0  0  0  0  0  0  0  0  0
  144.3350   74.0740  219.2050 C   0  0  0  0  0  0  0  0  0  0  0  0
  145.0700   74.4530  220.4760 C   0  0  0  0  0  0  0  0  0  0  0  0
  145.6710   73.3150  221.2210 C   0  0  0  0  0  0  0  0  0  0  0  0
  146.3430   72.3600  220.3600 N   0  0  0  0  0  0  0  0  0  0  0  0
  145.3700   71.8150  219.4100 C   0  0  0  0  0  0  0  0  0  0  0  0
  145.0270   72.9430  218.4870 C   0  0  0  0  0  0  0  0  0  0  0  0
  139.5330   70.2620  223.0290 C   0  0  0  0  0  0  0  0  0  0  0  0
  139.4340   69.3750  224.0510 C   0  0  0  0  0  0  0  0  0  0  0  0
  141.8040   67.4410  226.1170 H   0  0  0  0  0  0  0  0  0  0  0  0
  141.2090   66.9830  227.6160 H   0  0  0  0  0  0  0  0  0  0  0  0
  141.0607   71.1096  226.4442 H   0  0  0  0  0  0  0  0  0  0  0  0
  141.2282   72.7035  224.5735 H   0  0  0  0  0  0  0  0  0  0  0  0
  139.3187   72.6685  221.5339 H   0  0  0  0  0  0  0  0  0  0  0  0
  142.2640   72.3029  221.4795 H   0  0  0  0  0  0  0  0  0  0  0  0
  139.4541   76.8885  223.5764 H   0  0  0  0  0  0  0  0  0  0  0  0
  140.7377   80.3194  221.2633 H   0  0  0  0  0  0  0  0  0  0  0  0
  142.0165   78.7952  219.7646 H   0  0  0  0  0  0  0  0  0  0  0  0
  142.7675   72.8771  219.9073 H   0  0  0  0  0  0  0  0  0  0  0  0
  142.4421   73.9397  218.4128 H   0  0  0  0  0  0  0  0  0  0  0  0
  144.3819   74.9408  218.5294 H   0  0  0  0  0  0  0  0  0  0  0  0
  145.8782   75.1492  220.2074 H   0  0  0  0  0  0  0  0  0  0  0  0
  144.3165   74.8934  221.1456 H   0  0  0  0  0  0  0  0  0  0  0  0
  146.4029   73.7143  221.9386 H   0  0  0  0  0  0  0  0  0  0  0  0
  144.8497   72.7820  221.7223 H   0  0  0  0  0  0  0  0  0  0  0  0
  146.6050   71.5570  220.9870 H   0  0  0  0  0  0  0  0  0  0  0  0
  145.8110   70.9794  218.8467 H   0  0  0  0  0  0  0  0  0  0  0  0
  144.4781   71.4248  219.9222 H   0  0  0  0  0  0  0  0  0  0  0  0
  145.9538   73.3249  218.0341 H   0  0  0  0  0  0  0  0  0  0  0  0
  144.3381   72.5564  217.7215 H   0  0  0  0  0  0  0  0  0  0  0  0
  139.0900   70.0029  222.0561 H   0  0  0  0  0  0  0  0  0  0  0  0
  138.9150   68.4186  223.8897 H   0  0  0  0  0  0  0  0  0  0  0  0
  1  2  1  0
  2  3  2  0
  2  4  2  0
  2  5  1  0
  5  6  2  0
  6  7  1  0
  7  8  2  0
  8  9  1  0
  9 10  2  0
 10 11  1  0
 11 12  2  0
 12 13  1  0
 13 14  2  0
 14 15  1  0
 15 16  1  0
 15 17  2  0
 17 18  1  0
 18 19  2  0
 19 20  1  0
 20 21  2  0
 20 22  1  0
 22 23  1  0
 23 24  1  0
 24 25  1  0
 25 26  1  0
 26 27  1  0
 27 28  1  0
 28 29  1  0
  8 30  1  0
 30 31  2  0
 31  5  1  0
 22 11  1  0
 29 24  1  0
 19 13  1  0
  1 32  1  0
  1 33  1  0
  6 34  1  0
  7 35  1  0
  9 36  1  0
 10 37  1  0
 14 38  1  0
 17 39  1  0
 18 40  1  0
 23 41  1  0
 23 42  1  0
 24 43  1  0
 25 44  1  0
 25 45  1  0
 26 46  1  0
 26 47  1  0
 27 48  1  0
 28 49  1  0
 28 50  1  0
 29 51  1  0
 29 52  1  0
 30 53  1  0
 31 54  1  0
M  END
>  <smiles>  (20) 
NS(=O)(=O)c1ccc(/C=C/c2nc3cc(Cl)ccc3c(=O)n2CC2CCNCC2)cc1

>  <score_type>  (20) 
oracle

>  <origin>  (20) 
autodockgpu

>  <m_score__min__energy>  (20) 
-10.359999999999999

>  <m_primary>  (20) 
energy

>  <rmsd>  (20) 
4.97604603555668

>  <m_score__min__rmsd>  (20) 
4.97604603555668

>  <meeko>  (20) 
{"free_energy": -9.74, "intermolecular_energy": -11.83, "internal_energy": -1.24, "cluster_size": 33, "cluster_id": 1, "rank_in_cluster": 17}

>  <energy>  (20) 
-9.64

>  <cluster_rmsd>  (20) 
0.74

>  <cluster>  (20) 
1

$$$$

     RDKit          3D

 54 57  0  0  0  0  0  0  0  0999 V2000
  141.4230   70.9490  228.7260 N   0  0  0  0  0  0  0  0  0  0  0  0
  140.3560   69.9290  227.8640 S   0  0  0  0  0  0  0  0  0  0  0  0
  140.8030   68.4860  227.8790 O   0  0  0  0  0  0  0  0  0  0  0  0
  139.0070   69.9730  228.5230 O   0  0  0  0  0  0  0  0  0  0  0  0
  140.1540   70.4650  226.2120 C   0  0  0  0  0  0  0  0  0  0  0  0
  140.8800   71.5120  225.6760 C   0  0  0  0  0  0  0  0  0  0  0  0
  140.6670   71.8790  224.3620 C   0  0  0  0  0  0  0  0  0  0  0  0
  139.7530   71.2440  223.5460 C   0  0  0  0  0  0  0  0  0  0  0  0
  139.5130   71.6130  222.1620 C   0  0  0  0  0  0  0  0  0  0  0  0
  140.4600   71.8680  221.2830 C   0  0  0  0  0  0  0  0  0  0  0  0
  140.9050   73.2330  221.0210 C   0  0  0  0  0  0  0  0  0  0  0  0
  140.3610   74.1960  221.8080 N   0  0  0  0  0  0  0  0  0  0  0  0
  140.6720   75.4830  221.6850 C   0  0  0  0  0  0  0  0  0  0  0  0
  140.0800   76.4060  222.5200 C   0  0  0  0  0  0  0  0  0  0  0  0
  140.4440   77.7270  222.3430 C   0  0  0  0  0  0  0  0  0  0  0  0
  139.7240   78.9510  223.3760 Cl  0  0  0  0  0  0  0  0  0  0  0  0
  141.3540   78.1330  221.3870 C   0  0  0  0  0  0  0  0  0  0  0  0
  141.9150   77.1540  220.5800 C   0  0  0  0  0  0  0  0  0  0  0  0
  141.5870   75.8280  220.7120 C   0  0  0  0  0  0  0  0  0  0  0  0
  142.1260   74.8300  219.9250 C   0  0  0  0  0  0  0  0  0  0  0  0
  142.9520   75.1920  219.0520 O   0  0  0  0  0  0  0  0  0  0  0  0
  141.8080   73.5310  220.0530 N   0  0  0  0  0  0  0  0  0  0  0  0
  142.3440   72.4590  219.2880 C   0  0  0  0  0  0  0  0  0  0  0  0
  143.6220   71.8530  219.7380 C   0  0  0  0  0  0  0  0  0  0  0  0
  144.5610   71.5310  218.5920 C   0  0  0  0  0  0  0  0  0  0  0  0
  145.5460   72.5960  218.2650 C   0  0  0  0  0  0  0  0  0  0  0  0
  146.1570   73.1890  219.4410 N   0  0  0  0  0  0  0  0  0  0  0  0
  145.1060   73.7840  220.2690 C   0  0  0  0  0  0  0  0  0  0  0  0
  144.3230   72.6320  220.8200 C   0  0  0  0  0  0  0  0  0  0  0  0
  139.0480   70.1980  224.1250 C   0  0  0  0  0  0  0  0  0  0  0  0
  139.2400   69.8200  225.4140 C   0  0  0  0  0  0  0  0  0  0  0  0
  141.8370   71.6580  228.0710 H   0  0  0  0  0  0  0  0  0  0  0  0
  142.2120   70.4120  229.1290 H   0  0  0  0  0  0  0  0  0  0  0  0
  141.6196   72.0472  226.2897 H   0  0  0  0  0  0  0  0  0  0  0  0
  141.2513   72.7138  223.9476 H   0  0  0  0  0  0  0  0  0  0  0  0
  138.4684   71.6844  221.8247 H   0  0  0  0  0  0  0  0  0  0  0  0
  140.9251   71.0352  220.7352 H   0  0  0  0  0  0  0  0  0  0  0  0
  139.3535   76.1057  223.2894 H   0  0  0  0  0  0  0  0  0  0  0  0
  141.6239   79.1929  221.2698 H   0  0  0  0  0  0  0  0  0  0  0  0
  142.6444   77.4493  219.8114 H   0  0  0  0  0  0  0  0  0  0  0  0
  141.5897   71.6585  219.2732 H   0  0  0  0  0  0  0  0  0  0  0  0
  142.5816   72.9091  218.3128 H   0  0  0  0  0  0  0  0  0  0  0  0
  143.3224   70.8980  220.1943 H   0  0  0  0  0  0  0  0  0  0  0  0
  145.1188   70.6199  218.8542 H   0  0  0  0  0  0  0  0  0  0  0  0
  143.9275   71.4155  217.7002 H   0  0  0  0  0  0  0  0  0  0  0  0
  146.3396   72.1589  217.6412 H   0  0  0  0  0  0  0  0  0  0  0  0
  145.0020   73.3953  217.7404 H   0  0  0  0  0  0  0  0  0  0  0  0
  146.7240   73.9990  219.0800 H   0  0  0  0  0  0  0  0  0  0  0  0
  145.5486   74.3726  221.0861 H   0  0  0  0  0  0  0  0  0  0  0  0
  144.4689   74.4668  219.6876 H   0  0  0  0  0  0  0  0  0  0  0  0
  145.0105   71.9587  221.3530 H   0  0  0  0  0  0  0  0  0  0  0  0
  143.5559   73.0370  221.4964 H   0  0  0  0  0  0  0  0  0  0  0  0
  138.3077   69.6565  223.5177 H   0  0  0  0  0  0  0  0  0  0  0  0
  138.6551   68.9846  225.8264 H   0  0  0  0  0  0  0  0  0  0  0  0
  1  2  1  0
  2  3  2  0
  2  4  2  0
  2  5  1  0
  5  6  2  0
  6  7  1  0
  7  8  2  0
  8  9  1  0
  9 10  2  0
 10 11  1  0
 11 12  2  0
 12 13  1  0
 13 14  2  0
 14 15  1  0
 15 16  1  0
 15 17  2  0
 17 18  1  0
 18 19  2  0
 19 20  1  0
 20 21  2  0
 20 22  1  0
 22 23  1  0
 23 24  1  0
 24 25  1  0
 25 26  1  0
 26 27  1  0
 27 28  1  0
 28 29  1  0
  8 30  1  0
 30 31  2  0
 31  5  1  0
 22 11  1  0
 29 24  1  0
 19 13  1  0
  1 32  1  0
  1 33  1  0
  6 34  1  0
  7 35  1  0
  9 36  1  0
 10 37  1  0
 14 38  1  0
 17 39  1  0
 18 40  1  0
 23 41  1  0
 23 42  1  0
 24 43  1  0
 25 44  1  0
 25 45  1  0
 26 46  1  0
 26 47  1  0
 27 48  1  0
 28 49  1  0
 28 50  1  0
 29 51  1  0
 29 52  1  0
 30 53  1  0
 31 54  1  0
M  END
>  <smiles>  (21) 
NS(=O)(=O)c1ccc(/C=C/c2nc3cc(Cl)ccc3c(=O)n2CC2CCNCC2)cc1

>  <score_type>  (21) 
oracle

>  <origin>  (21) 
autodockgpu

>  <m_score__min__energy>  (21) 
-10.359999999999999

>  <m_primary>  (21) 
energy

>  <rmsd>  (21) 
5.871149918675098

>  <m_score__min__rmsd>  (21) 
5.871149918675098

>  <meeko>  (21) 
{"free_energy": -8.61, "intermolecular_energy": -10.7, "internal_energy": -1.44, "cluster_size": 33, "cluster_id": 1, "rank_in_cluster": 33}

>  <energy>  (21) 
-9.57

>  <cluster_rmsd>  (21) 
1.04

>  <cluster>  (21) 
1

$$$$

     RDKit          3D

 54 57  0  0  0  0  0  0  0  0999 V2000
  146.3300   73.4420  219.0490 N   0  0  0  0  0  0  0  0  0  0  0  0
  145.2680   73.2810  220.3780 S   0  0  0  0  0  0  0  0  0  0  0  0
  144.8020   71.8570  220.5710 O   0  0  0  0  0  0  0  0  0  0  0  0
  145.9970   73.6730  221.6300 O   0  0  0  0  0  0  0  0  0  0  0  0
  143.8820   74.3360  220.2220 C   0  0  0  0  0  0  0  0  0  0  0  0
  142.5950   73.9170  220.5000 C   0  0  0  0  0  0  0  0  0  0  0  0
  141.5480   74.8070  220.3540 C   0  0  0  0  0  0  0  0  0  0  0  0
  141.7270   76.1100  219.9370 C   0  0  0  0  0  0  0  0  0  0  0  0
  140.6420   77.0630  219.7760 C   0  0  0  0  0  0  0  0  0  0  0  0
  140.2890   77.9510  220.6820 C   0  0  0  0  0  0  0  0  0  0  0  0
  139.1040   77.7600  221.5120 C   0  0  0  0  0  0  0  0  0  0  0  0
  138.6270   76.4910  221.5820 N   0  0  0  0  0  0  0  0  0  0  0  0
  137.5550   76.1660  222.3000 C   0  0  0  0  0  0  0  0  0  0  0  0
  137.1280   74.8570  222.3240 C   0  0  0  0  0  0  0  0  0  0  0  0
  136.0090   74.5820  223.0880 C   0  0  0  0  0  0  0  0  0  0  0  0
  135.4160   72.9310  223.1600 Cl  0  0  0  0  0  0  0  0  0  0  0  0
  135.3320   75.5510  223.8020 C   0  0  0  0  0  0  0  0  0  0  0  0
  135.8140   76.8500  223.7350 C   0  0  0  0  0  0  0  0  0  0  0  0
  136.9200   77.1770  222.9920 C   0  0  0  0  0  0  0  0  0  0  0  0
  137.4250   78.4590  222.9040 C   0  0  0  0  0  0  0  0  0  0  0  0
  136.8130   79.3450  223.5480 O   0  0  0  0  0  0  0  0  0  0  0  0
  138.5090   78.7820  222.1780 N   0  0  0  0  0  0  0  0  0  0  0  0
  139.0860   80.0770  222.0660 C   0  0  0  0  0  0  0  0  0  0  0  0
  140.1080   80.4720  223.0650 C   0  0  0  0  0  0  0  0  0  0  0  0
  140.6680   79.2930  223.8390 C   0  0  0  0  0  0  0  0  0  0  0  0
  141.9070   78.6980  223.2720 C   0  0  0  0  0  0  0  0  0  0  0  0
  142.8730   79.6910  222.8420 N   0  0  0  0  0  0  0  0  0  0  0  0
  142.2610   80.5280  221.8070 C   0  0  0  0  0  0  0  0  0  0  0  0
  141.2110   81.3350  222.5070 C   0  0  0  0  0  0  0  0  0  0  0  0
  143.0350   76.4870  219.6690 C   0  0  0  0  0  0  0  0  0  0  0  0
  144.0790   75.6300  219.8060 C   0  0  0  0  0  0  0  0  0  0  0  0
  147.1050   74.1050  219.2970 H   0  0  0  0  0  0  0  0  0  0  0  0
  145.8440   73.8400  218.2250 H   0  0  0  0  0  0  0  0  0  0  0  0
  142.4059   72.8861  220.8339 H   0  0  0  0  0  0  0  0  0  0  0  0
  140.5283   74.4619  220.5799 H   0  0  0  0  0  0  0  0  0  0  0  0
  140.0767   77.0412  218.8326 H   0  0  0  0  0  0  0  0  0  0  0  0
  140.9002   78.8557  220.8160 H   0  0  0  0  0  0  0  0  0  0  0  0
  137.6515   74.0689  221.7629 H   0  0  0  0  0  0  0  0  0  0  0  0
  134.4439   75.3021  224.4014 H   0  0  0  0  0  0  0  0  0  0  0  0
  135.2939   77.6416  224.2943 H   0  0  0  0  0  0  0  0  0  0  0  0
  139.5565   80.1409  221.0738 H   0  0  0  0  0  0  0  0  0  0  0  0
  138.2481   80.7675  222.2421 H   0  0  0  0  0  0  0  0  0  0  0  0
  139.5576   81.1020  223.7792 H   0  0  0  0  0  0  0  0  0  0  0  0
  140.8895   79.6311  224.8620 H   0  0  0  0  0  0  0  0  0  0  0  0
  139.9015   78.5052  223.7945 H   0  0  0  0  0  0  0  0  0  0  0  0
  142.3746   78.0654  224.0409 H   0  0  0  0  0  0  0  0  0  0  0  0
  141.6147   78.1199  222.3829 H   0  0  0  0  0  0  0  0  0  0  0  0
  143.6310   79.1480  222.3520 H   0  0  0  0  0  0  0  0  0  0  0  0
  143.0141   81.1892  221.3535 H   0  0  0  0  0  0  0  0  0  0  0  0
  141.8330   79.9218  220.9950 H   0  0  0  0  0  0  0  0  0  0  0  0
  141.6813   81.8875  223.3338 H   0  0  0  0  0  0  0  0  0  0  0  0
  140.7646   82.0199  221.7710 H   0  0  0  0  0  0  0  0  0  0  0  0
  143.2330   77.5158  219.3339 H   0  0  0  0  0  0  0  0  0  0  0  0
  145.0981   75.9773  219.5804 H   0  0  0  0  0  0  0  0  0  0  0  0
  1  2  1  0
  2  3  2  0
  2  4  2  0
  2  5  1  0
  5  6  2  0
  6  7  1  0
  7  8  2  0
  8  9  1  0
  9 10  2  0
 10 11  1  0
 11 12  2  0
 12 13  1  0
 13 14  2  0
 14 15  1  0
 15 16  1  0
 15 17  2  0
 17 18  1  0
 18 19  2  0
 19 20  1  0
 20 21  2  0
 20 22  1  0
 22 23  1  0
 23 24  1  0
 24 25  1  0
 25 26  1  0
 26 27  1  0
 27 28  1  0
 28 29  1  0
  8 30  1  0
 30 31  2  0
 31  5  1  0
 22 11  1  0
 29 24  1  0
 19 13  1  0
  1 32  1  0
  1 33  1  0
  6 34  1  0
  7 35  1  0
  9 36  1  0
 10 37  1  0
 14 38  1  0
 17 39  1  0
 18 40  1  0
 23 41  1  0
 23 42  1  0
 24 43  1  0
 25 44  1  0
 25 45  1  0
 26 46  1  0
 26 47  1  0
 27 48  1  0
 28 49  1  0
 28 50  1  0
 29 51  1  0
 29 52  1  0
 30 53  1  0
 31 54  1  0
M  END
>  <smiles>  (22) 
NS(=O)(=O)c1ccc(/C=C/c2nc3cc(Cl)ccc3c(=O)n2CC2CCNCC2)cc1

>  <score_type>  (22) 
oracle

>  <origin>  (22) 
autodockgpu

>  <m_score__min__energy>  (22) 
-10.359999999999999

>  <m_primary>  (22) 
energy

>  <rmsd>  (22) 
6.982289091481542

>  <m_score__min__rmsd>  (22) 
6.982289091481542

>  <meeko>  (22) 
{"free_energy": -8.28, "intermolecular_energy": -10.37, "internal_energy": -1.65, "cluster_size": 3, "cluster_id": 3, "rank_in_cluster": 1}

>  <energy>  (22) 
-9.57

>  <cluster_rmsd>  (22) 
1.05

>  <cluster>  (22) 
1

$$$$

     RDKit          3D

 54 57  0  0  0  0  0  0  0  0999 V2000
  141.4140   67.7900  227.1590 N   0  0  0  0  0  0  0  0  0  0  0  0
  139.8320   68.3070  226.7670 S   0  0  0  0  0  0  0  0  0  0  0  0
  138.9090   67.1500  226.4640 O   0  0  0  0  0  0  0  0  0  0  0  0
  139.2530   69.0280  227.9500 O   0  0  0  0  0  0  0  0  0  0  0  0
  139.8390   69.4210  225.4200 C   0  0  0  0  0  0  0  0  0  0  0  0
  139.0530   69.2360  224.2990 C   0  0  0  0  0  0  0  0  0  0  0  0
  139.1100   70.1580  223.2720 C   0  0  0  0  0  0  0  0  0  0  0  0
  139.9250   71.2710  223.3120 C   0  0  0  0  0  0  0  0  0  0  0  0
  140.0010   72.2540  222.2450 C   0  0  0  0  0  0  0  0  0  0  0  0
  141.1030   72.5640  221.5940 C   0  0  0  0  0  0  0  0  0  0  0  0
  141.3690   73.9300  221.1570 C   0  0  0  0  0  0  0  0  0  0  0  0
  140.9810   74.9120  222.0100 N   0  0  0  0  0  0  0  0  0  0  0  0
  141.1580   76.2040  221.7460 C   0  0  0  0  0  0  0  0  0  0  0  0
  140.7390   77.1460  222.6600 C   0  0  0  0  0  0  0  0  0  0  0  0
  140.9520   78.4710  222.3290 C   0  0  0  0  0  0  0  0  0  0  0  0
  140.4400   79.7190  223.4520 Cl  0  0  0  0  0  0  0  0  0  0  0  0
  141.5520   78.8610  221.1480 C   0  0  0  0  0  0  0  0  0  0  0  0
  141.9510   77.8640  220.2720 C   0  0  0  0  0  0  0  0  0  0  0  0
  141.7630   76.5330  220.5510 C   0  0  0  0  0  0  0  0  0  0  0  0
  142.1490   75.5170  219.7000 C   0  0  0  0  0  0  0  0  0  0  0  0
  142.6920   75.8640  218.6240 O   0  0  0  0  0  0  0  0  0  0  0  0
  141.9670   74.2130  219.9720 N   0  0  0  0  0  0  0  0  0  0  0  0
  142.3600   73.1230  219.1470 C   0  0  0  0  0  0  0  0  0  0  0  0
  143.5530   72.3390  219.5510 C   0  0  0  0  0  0  0  0  0  0  0  0
  144.4540   71.9840  218.3840 C   0  0  0  0  0  0  0  0  0  0  0  0
  145.5610   72.9430  218.1280 C   0  0  0  0  0  0  0  0  0  0  0  0
  146.2330   73.3760  219.3400 N   0  0  0  0  0  0  0  0  0  0  0  0
  145.2560   74.0370  220.2100 C   0  0  0  0  0  0  0  0  0  0  0  0
  144.3370   72.9530  220.6830 C   0  0  0  0  0  0  0  0  0  0  0  0
  140.6960   71.4180  224.4570 C   0  0  0  0  0  0  0  0  0  0  0  0
  140.6560   70.5240  225.4770 C   0  0  0  0  0  0  0  0  0  0  0  0
  141.8120   68.4120  227.9060 H   0  0  0  0  0  0  0  0  0  0  0  0
  142.0440   67.8580  226.3410 H   0  0  0  0  0  0  0  0  0  0  0  0
  138.3881   68.3628  224.2250 H   0  0  0  0  0  0  0  0  0  0  0  0
  138.4793   69.9984  222.3850 H   0  0  0  0  0  0  0  0  0  0  0  0
  139.0747   72.7750  221.9614 H   0  0  0  0  0  0  0  0  0  0  0  0
  141.8386   71.7760  221.3751 H   0  0  0  0  0  0  0  0  0  0  0  0
  140.2586   76.8578  223.6066 H   0  0  0  0  0  0  0  0  0  0  0  0
  141.7075   79.9239  220.9112 H   0  0  0  0  0  0  0  0  0  0  0  0
  142.4328   78.1476  219.3247 H   0  0  0  0  0  0  0  0  0  0  0  0
  141.5107   72.4255  219.0999 H   0  0  0  0  0  0  0  0  0  0  0  0
  142.6478   73.5898  218.1934 H   0  0  0  0  0  0  0  0  0  0  0  0
  143.1373   71.3983  219.9412 H   0  0  0  0  0  0  0  0  0  0  0  0
  144.8972   70.9972  218.5834 H   0  0  0  0  0  0  0  0  0  0  0  0
  143.8170   72.0048  217.4875 H   0  0  0  0  0  0  0  0  0  0  0  0
  146.2995   72.4579  217.4728 H   0  0  0  0  0  0  0  0  0  0  0  0
  145.1192   73.8360  217.6618 H   0  0  0  0  0  0  0  0  0  0  0  0
  146.8950   74.1350  219.0340 H   0  0  0  0  0  0  0  0  0  0  0  0
  145.7617   74.5111  221.0641 H   0  0  0  0  0  0  0  0  0  0  0  0
  144.7094   74.8299  219.6784 H   0  0  0  0  0  0  0  0  0  0  0  0
  144.9353   72.1671  221.1671 H   0  0  0  0  0  0  0  0  0  0  0  0
  143.6203   73.4004  221.3874 H   0  0  0  0  0  0  0  0  0  0  0  0
  141.3623   72.2892  224.5403 H   0  0  0  0  0  0  0  0  0  0  0  0
  141.2875   70.6849  226.3632 H   0  0  0  0  0  0  0  0  0  0  0  0
  1  2  1  0
  2  3  2  0
  2  4  2  0
  2  5  1  0
  5  6  2  0
  6  7  1  0
  7  8  2  0
  8  9  1  0
  9 10  2  0
 10 11  1  0
 11 12  2  0
 12 13  1  0
 13 14  2  0
 14 15  1  0
 15 16  1  0
 15 17  2  0
 17 18  1  0
 18 19  2  0
 19 20  1  0
 20 21  2  0
 20 22  1  0
 22 23  1  0
 23 24  1  0
 24 25  1  0
 25 26  1  0
 26 27  1  0
 27 28  1  0
 28 29  1  0
  8 30  1  0
 30 31  2  0
 31  5  1  0
 22 11  1  0
 29 24  1  0
 19 13  1  0
  1 32  1  0
  1 33  1  0
  6 34  1  0
  7 35  1  0
  9 36  1  0
 10 37  1  0
 14 38  1  0
 17 39  1  0
 18 40  1  0
 23 41  1  0
 23 42  1  0
 24 43  1  0
 25 44  1  0
 25 45  1  0
 26 46  1  0
 26 47  1  0
 27 48  1  0
 28 49  1  0
 28 50  1  0
 29 51  1  0
 29 52  1  0
 30 53  1  0
 31 54  1  0
M  END
>  <smiles>  (23) 
NS(=O)(=O)c1ccc(/C=C/c2nc3cc(Cl)ccc3c(=O)n2CC2CCNCC2)cc1

>  <score_type>  (23) 
oracle

>  <origin>  (23) 
autodockgpu

>  <m_score__min__energy>  (23) 
-10.359999999999999

>  <m_primary>  (23) 
energy

>  <rmsd>  (23) 
5.406557594870284

>  <m_score__min__rmsd>  (23) 
5.406557594870284

>  <meeko>  (23) 
{"free_energy": -9.47, "intermolecular_energy": -11.56, "internal_energy": -1.32, "cluster_size": 33, "cluster_id": 1, "rank_in_cluster": 24}

>  <energy>  (23) 
-9.55

>  <cluster_rmsd>  (23) 
1.01

>  <cluster>  (23) 
1

$$$$

     RDKit          3D

 54 57  0  0  0  0  0  0  0  0999 V2000
  141.5130   67.7580  226.7120 N   0  0  0  0  0  0  0  0  0  0  0  0
  139.9540   68.4250  226.5040 S   0  0  0  0  0  0  0  0  0  0  0  0
  138.9250   67.3800  226.1410 O   0  0  0  0  0  0  0  0  0  0  0  0
  139.5120   69.0370  227.8030 O   0  0  0  0  0  0  0  0  0  0  0  0
  139.9550   69.6910  225.2980 C   0  0  0  0  0  0  0  0  0  0  0  0
  140.7290   70.8300  225.4160 C   0  0  0  0  0  0  0  0  0  0  0  0
  140.6790   71.7880  224.4230 C   0  0  0  0  0  0  0  0  0  0  0  0
  139.8820   71.6630  223.3030 C   0  0  0  0  0  0  0  0  0  0  0  0
  139.8130   72.6570  222.2460 C   0  0  0  0  0  0  0  0  0  0  0  0
  140.8300   73.0130  221.4890 C   0  0  0  0  0  0  0  0  0  0  0  0
  141.1380   74.4180  221.2410 C   0  0  0  0  0  0  0  0  0  0  0  0
  140.4440   75.3170  221.9850 N   0  0  0  0  0  0  0  0  0  0  0  0
  140.6180   76.6310  221.8680 C   0  0  0  0  0  0  0  0  0  0  0  0
  139.8780   77.4840  222.6570 C   0  0  0  0  0  0  0  0  0  0  0  0
  140.1050   78.8380  222.4900 C   0  0  0  0  0  0  0  0  0  0  0  0
  139.1940   79.9770  223.4670 Cl  0  0  0  0  0  0  0  0  0  0  0  0
  141.0210   79.3380  221.5860 C   0  0  0  0  0  0  0  0  0  0  0  0
  141.7340   78.4260  220.8240 C   0  0  0  0  0  0  0  0  0  0  0  0
  141.5470   77.0720  220.9490 C   0  0  0  0  0  0  0  0  0  0  0  0
  142.2390   76.1370  220.2050 C   0  0  0  0  0  0  0  0  0  0  0  0
  143.0710   76.5860  219.3790 O   0  0  0  0  0  0  0  0  0  0  0  0
  142.0600   74.8110  220.3270 N   0  0  0  0  0  0  0  0  0  0  0  0
  142.7560   73.8030  219.6050 C   0  0  0  0  0  0  0  0  0  0  0  0
  144.1750   74.0530  219.2530 C   0  0  0  0  0  0  0  0  0  0  0  0
  145.0400   74.3600  220.4610 C   0  0  0  0  0  0  0  0  0  0  0  0
  145.7240   73.1850  221.0620 C   0  0  0  0  0  0  0  0  0  0  0  0
  146.3060   72.2950  220.0740 N   0  0  0  0  0  0  0  0  0  0  0  0
  145.2400   71.7990  219.2010 C   0  0  0  0  0  0  0  0  0  0  0  0
  144.7930   72.9790  218.3940 C   0  0  0  0  0  0  0  0  0  0  0  0
  139.1220   70.5040  223.2250 C   0  0  0  0  0  0  0  0  0  0  0  0
  139.1560   69.5500  224.1890 C   0  0  0  0  0  0  0  0  0  0  0  0
  142.2300   68.5260  226.6920 H   0  0  0  0  0  0  0  0  0  0  0  0
  141.7480   67.1040  225.9450 H   0  0  0  0  0  0  0  0  0  0  0  0
  141.3785   70.9719  226.2924 H   0  0  0  0  0  0  0  0  0  0  0  0
  141.3008   72.6892  224.5290 H   0  0  0  0  0  0  0  0  0  0  0  0
  138.8444   73.1461  222.0655 H   0  0  0  0  0  0  0  0  0  0  0  0
  141.4607   72.2351  221.0340 H   0  0  0  0  0  0  0  0  0  0  0  0
  139.1432   77.1070  223.3836 H   0  0  0  0  0  0  0  0  0  0  0  0
  141.1791   80.4209  221.4746 H   0  0  0  0  0  0  0  0  0  0  0  0
  142.4715   78.7982  220.0977 H   0  0  0  0  0  0  0  0  0  0  0  0
  142.7262   72.8861  220.2120 H   0  0  0  0  0  0  0  0  0  0  0  0
  142.2375   73.7512  218.6362 H   0  0  0  0  0  0  0  0  0  0  0  0
  144.1438   74.9607  218.6325 H   0  0  0  0  0  0  0  0  0  0  0  0
  145.8105   75.0824  220.1536 H   0  0  0  0  0  0  0  0  0  0  0  0
  144.3600   74.7471  221.2342 H   0  0  0  0  0  0  0  0  0  0  0  0
  146.5261   73.5472  221.7219 H   0  0  0  0  0  0  0  0  0  0  0  0
  144.9642   72.6105  221.6121 H   0  0  0  0  0  0  0  0  0  0  0  0
  146.6380   71.4570  220.6170 H   0  0  0  0  0  0  0  0  0  0  0  0
  145.6226   71.0063  218.5413 H   0  0  0  0  0  0  0  0  0  0  0  0
  144.4107   71.3660  219.7796 H   0  0  0  0  0  0  0  0  0  0  0  0
  145.6636   73.4009  217.8705 H   0  0  0  0  0  0  0  0  0  0  0  0
  144.0286   72.6327  217.6829 H   0  0  0  0  0  0  0  0  0  0  0  0
  138.4700   70.3540  222.3519 H   0  0  0  0  0  0  0  0  0  0  0  0
  138.5340   68.6492  224.0811 H   0  0  0  0  0  0  0  0  0  0  0  0
  1  2  1  0
  2  3  2  0
  2  4  2  0
  2  5  1  0
  5  6  2  0
  6  7  1  0
  7  8  2  0
  8  9  1  0
  9 10  2  0
 10 11  1  0
 11 12  2  0
 12 13  1  0
 13 14  2  0
 14 15  1  0
 15 16  1  0
 15 17  2  0
 17 18  1  0
 18 19  2  0
 19 20  1  0
 20 21  2  0
 20 22  1  0
 22 23  1  0
 23 24  1  0
 24 25  1  0
 25 26  1  0
 26 27  1  0
 27 28  1  0
 28 29  1  0
  8 30  1  0
 30 31  2  0
 31  5  1  0
 22 11  1  0
 29 24  1  0
 19 13  1  0
  1 32  1  0
  1 33  1  0
  6 34  1  0
  7 35  1  0
  9 36  1  0
 10 37  1  0
 14 38  1  0
 17 39  1  0
 18 40  1  0
 23 41  1  0
 23 42  1  0
 24 43  1  0
 25 44  1  0
 25 45  1  0
 26 46  1  0
 26 47  1  0
 27 48  1  0
 28 49  1  0
 28 50  1  0
 29 51  1  0
 29 52  1  0
 30 53  1  0
 31 54  1  0
M  END
>  <smiles>  (24) 
NS(=O)(=O)c1ccc(/C=C/c2nc3cc(Cl)ccc3c(=O)n2CC2CCNCC2)cc1

>  <score_type>  (24) 
oracle

>  <origin>  (24) 
autodockgpu

>  <m_score__min__energy>  (24) 
-10.359999999999999

>  <m_primary>  (24) 
energy

>  <rmsd>  (24) 
4.918793018292629

>  <m_score__min__rmsd>  (24) 
4.918793018292629

>  <meeko>  (24) 
{"free_energy": -9.86, "intermolecular_energy": -11.95, "internal_energy": -1.09, "cluster_size": 33, "cluster_id": 1, "rank_in_cluster": 11}

>  <energy>  (24) 
-9.47

>  <cluster_rmsd>  (24) 
0.97

>  <cluster>  (24) 
1

$$$$

     RDKit          3D

 54 57  0  0  0  0  0  0  0  0999 V2000
  145.9750   73.3850  218.9420 N   0  0  0  0  0  0  0  0  0  0  0  0
  144.7630   73.2640  220.1410 S   0  0  0  0  0  0  0  0  0  0  0  0
  143.9560   71.9930  220.0150 O   0  0  0  0  0  0  0  0  0  0  0  0
  145.4190   73.2320  221.4910 O   0  0  0  0  0  0  0  0  0  0  0  0
  143.6900   74.6450  220.1080 C   0  0  0  0  0  0  0  0  0  0  0  0
  142.4890   74.6680  220.7890 C   0  0  0  0  0  0  0  0  0  0  0  0
  141.6920   75.7950  220.7170 C   0  0  0  0  0  0  0  0  0  0  0  0
  142.0420   76.9120  219.9880 C   0  0  0  0  0  0  0  0  0  0  0  0
  141.2220   78.1080  219.8980 C   0  0  0  0  0  0  0  0  0  0  0  0
  139.9240   78.1070  219.6730 C   0  0  0  0  0  0  0  0  0  0  0  0
  138.9720   77.7490  220.7200 C   0  0  0  0  0  0  0  0  0  0  0  0
  138.5530   76.4580  220.7250 N   0  0  0  0  0  0  0  0  0  0  0  0
  137.6880   75.9880  221.6190 C   0  0  0  0  0  0  0  0  0  0  0  0
  137.3070   74.6650  221.5630 C   0  0  0  0  0  0  0  0  0  0  0  0
  136.4060   74.2360  222.5200 C   0  0  0  0  0  0  0  0  0  0  0  0
  135.8830   72.5610  222.5020 Cl  0  0  0  0  0  0  0  0  0  0  0  0
  135.8960   75.0700  223.4950 C   0  0  0  0  0  0  0  0  0  0  0  0
  136.3200   76.3900  223.4970 C   0  0  0  0  0  0  0  0  0  0  0  0
  137.2120   76.8670  222.5700 C   0  0  0  0  0  0  0  0  0  0  0  0
  137.6530   78.1750  222.5430 C   0  0  0  0  0  0  0  0  0  0  0  0
  137.1910   78.9390  223.4250 O   0  0  0  0  0  0  0  0  0  0  0  0
  138.5280   78.6450  221.6370 N   0  0  0  0  0  0  0  0  0  0  0  0
  139.0340   79.9720  221.5730 C   0  0  0  0  0  0  0  0  0  0  0  0
  139.9350   80.4270  222.6600 C   0  0  0  0  0  0  0  0  0  0  0  0
  140.5030   79.2840  223.4770 C   0  0  0  0  0  0  0  0  0  0  0  0
  141.8250   78.7780  223.0210 C   0  0  0  0  0  0  0  0  0  0  0  0
  142.7560   79.8390  222.6800 N   0  0  0  0  0  0  0  0  0  0  0  0
  142.1810   80.6400  221.5980 C   0  0  0  0  0  0  0  0  0  0  0  0
  141.0210   81.3680  222.2040 C   0  0  0  0  0  0  0  0  0  0  0  0
  143.2570   76.8450  219.3200 C   0  0  0  0  0  0  0  0  0  0  0  0
  144.0550   75.7490  219.3770 C   0  0  0  0  0  0  0  0  0  0  0  0
  146.7900   73.9300  219.3200 H   0  0  0  0  0  0  0  0  0  0  0  0
  145.6300   73.8940  218.1090 H   0  0  0  0  0  0  0  0  0  0  0  0
  142.1699   73.7986  221.3825 H   0  0  0  0  0  0  0  0  0  0  0  0
  140.7379   75.8011  221.2645 H   0  0  0  0  0  0  0  0  0  0  0  0
  141.7190   79.0809  220.0265 H   0  0  0  0  0  0  0  0  0  0  0  0
  139.5499   78.3816  218.6757 H   0  0  0  0  0  0  0  0  0  0  0  0
  137.7005   73.9834  220.7945 H   0  0  0  0  0  0  0  0  0  0  0  0
  135.1792   74.7005  224.2431 H   0  0  0  0  0  0  0  0  0  0  0  0
  135.9299   77.0749  224.2642 H   0  0  0  0  0  0  0  0  0  0  0  0
  139.5888   80.0653  220.6277 H   0  0  0  0  0  0  0  0  0  0  0  0
  138.1434   80.6105  221.6690 H   0  0  0  0  0  0  0  0  0  0  0  0
  139.2819   81.0119  223.3244 H   0  0  0  0  0  0  0  0  0  0  0  0
  140.6100   79.6283  224.5162 H   0  0  0  0  0  0  0  0  0  0  0  0
  139.7988   78.4467  223.3630 H   0  0  0  0  0  0  0  0  0  0  0  0
  142.2648   78.1725  223.8272 H   0  0  0  0  0  0  0  0  0  0  0  0
  141.6527   78.1880  222.1087 H   0  0  0  0  0  0  0  0  0  0  0  0
  143.5890   79.3530  222.2580 H   0  0  0  0  0  0  0  0  0  0  0  0
  142.9237   81.3546  221.2137 H   0  0  0  0  0  0  0  0  0  0  0  0
  141.8681   80.0122  220.7507 H   0  0  0  0  0  0  0  0  0  0  0  0
  141.3776   81.9442  223.0705 H   0  0  0  0  0  0  0  0  0  0  0  0
  140.5955   82.0274  221.4332 H   0  0  0  0  0  0  0  0  0  0  0  0
  143.5841   77.7099  218.7242 H   0  0  0  0  0  0  0  0  0  0  0  0
  145.0089   75.7446  218.8293 H   0  0  0  0  0  0  0  0  0  0  0  0
  1  2  1  0
  2  3  2  0
  2  4  2  0
  2  5  1  0
  5  6  2  0
  6  7  1  0
  7  8  2  0
  8  9  1  0
  9 10  2  0
 10 11  1  0
 11 12  2  0
 12 13  1  0
 13 14  2  0
 14 15  1  0
 15 16  1  0
 15 17  2  0
 17 18  1  0
 18 19  2  0
 19 20  1  0
 20 21  2  0
 20 22  1  0
 22 23  1  0
 23 24  1  0
 24 25  1  0
 25 26  1  0
 26 27  1  0
 27 28  1  0
 28 29  1  0
  8 30  1  0
 30 31  2  0
 31  5  1  0
 22 11  1  0
 29 24  1  0
 19 13  1  0
  1 32  1  0
  1 33  1  0
  6 34  1  0
  7 35  1  0
  9 36  1  0
 10 37  1  0
 14 38  1  0
 17 39  1  0
 18 40  1  0
 23 41  1  0
 23 42  1  0
 24 43  1  0
 25 44  1  0
 25 45  1  0
 26 46  1  0
 26 47  1  0
 27 48  1  0
 28 49  1  0
 28 50  1  0
 29 51  1  0
 29 52  1  0
 30 53  1  0
 31 54  1  0
M  END
>  <smiles>  (25) 
NS(=O)(=O)c1ccc(/C=C/c2nc3cc(Cl)ccc3c(=O)n2CC2CCNCC2)cc1

>  <score_type>  (25) 
oracle

>  <origin>  (25) 
autodockgpu

>  <m_score__min__energy>  (25) 
-10.359999999999999

>  <m_primary>  (25) 
energy

>  <rmsd>  (25) 
6.877601287250643

>  <m_score__min__rmsd>  (25) 
6.877601287250643

>  <meeko>  (25) 
{"free_energy": -7.44, "intermolecular_energy": -9.53, "internal_energy": -1.93, "cluster_size": 3, "cluster_id": 3, "rank_in_cluster": 3}

>  <energy>  (25) 
-9.46

>  <cluster_rmsd>  (25) 
1.06

>  <cluster>  (25) 
1

$$$$

     RDKit          3D

 54 57  0  0  0  0  0  0  0  0999 V2000
  139.2470   67.0490  226.3790 N   0  0  0  0  0  0  0  0  0  0  0  0
  139.9860   68.5400  226.7710 S   0  0  0  0  0  0  0  0  0  0  0  0
  139.4240   69.1440  228.0370 O   0  0  0  0  0  0  0  0  0  0  0  0
  141.4490   68.3060  227.0140 O   0  0  0  0  0  0  0  0  0  0  0  0
  139.8450   69.6890  225.4600 C   0  0  0  0  0  0  0  0  0  0  0  0
  138.7510   69.7240  224.6180 C   0  0  0  0  0  0  0  0  0  0  0  0
  138.7080   70.6600  223.6020 C   0  0  0  0  0  0  0  0  0  0  0  0
  139.7190   71.5730  223.3850 C   0  0  0  0  0  0  0  0  0  0  0  0
  139.6960   72.5660  222.3250 C   0  0  0  0  0  0  0  0  0  0  0  0
  140.7450   72.9210  221.6130 C   0  0  0  0  0  0  0  0  0  0  0  0
  141.0490   74.3240  221.3540 C   0  0  0  0  0  0  0  0  0  0  0  0
  140.3400   75.2280  222.0780 N   0  0  0  0  0  0  0  0  0  0  0  0
  140.5090   76.5410  221.9500 C   0  0  0  0  0  0  0  0  0  0  0  0
  139.7540   77.3990  222.7190 C   0  0  0  0  0  0  0  0  0  0  0  0
  139.9760   78.7520  222.5400 C   0  0  0  0  0  0  0  0  0  0  0  0
  139.0450   79.8970  223.4920 Cl  0  0  0  0  0  0  0  0  0  0  0  0
  140.9010   79.2480  221.6440 C   0  0  0  0  0  0  0  0  0  0  0  0
  141.6290   78.3310  220.9010 C   0  0  0  0  0  0  0  0  0  0  0  0
  141.4480   76.9770  221.0380 C   0  0  0  0  0  0  0  0  0  0  0  0
  142.1550   76.0390  220.3140 C   0  0  0  0  0  0  0  0  0  0  0  0
  142.9960   76.4830  219.4950 O   0  0  0  0  0  0  0  0  0  0  0  0
  141.9810   74.7130  220.4480 N   0  0  0  0  0  0  0  0  0  0  0  0
  142.6920   73.7000  219.7460 C   0  0  0  0  0  0  0  0  0  0  0  0
  144.0820   73.9950  219.3200 C   0  0  0  0  0  0  0  0  0  0  0  0
  145.0010   74.3230  220.4810 C   0  0  0  0  0  0  0  0  0  0  0  0
  145.7520   73.1660  221.0380 C   0  0  0  0  0  0  0  0  0  0  0  0
  146.3060   72.2990  220.0150 N   0  0  0  0  0  0  0  0  0  0  0  0
  145.2090   71.7740  219.1980 C   0  0  0  0  0  0  0  0  0  0  0  0
  144.6850   72.9440  218.4230 C   0  0  0  0  0  0  0  0  0  0  0  0
  140.7980   71.5030  224.2550 C   0  0  0  0  0  0  0  0  0  0  0  0
  140.8610   70.5910  225.2590 C   0  0  0  0  0  0  0  0  0  0  0  0
  138.2100   67.1870  226.2810 H   0  0  0  0  0  0  0  0  0  0  0  0
  139.3910   66.3500  227.1290 H   0  0  0  0  0  0  0  0  0  0  0  0
  137.9220   69.0140  224.7546 H   0  0  0  0  0  0  0  0  0  0  0  0
  137.8307   70.6776  222.9386 H   0  0  0  0  0  0  0  0  0  0  0  0
  138.7362   73.0549  222.1019 H   0  0  0  0  0  0  0  0  0  0  0  0
  141.4065   72.1428  221.2046 H   0  0  0  0  0  0  0  0  0  0  0  0
  139.0113   77.0263  223.4397 H   0  0  0  0  0  0  0  0  0  0  0  0
  141.0551   80.3305  221.5237 H   0  0  0  0  0  0  0  0  0  0  0  0
  142.3738   78.6995  220.1803 H   0  0  0  0  0  0  0  0  0  0  0  0
  142.7302   72.8150  220.3981 H   0  0  0  0  0  0  0  0  0  0  0  0
  142.1361   73.5749  218.8051 H   0  0  0  0  0  0  0  0  0  0  0  0
  143.9898   74.9042  218.7078 H   0  0  0  0  0  0  0  0  0  0  0  0
  145.7318   75.0696  220.1367 H   0  0  0  0  0  0  0  0  0  0  0  0
  144.3524   74.6861  221.2919 H   0  0  0  0  0  0  0  0  0  0  0  0
  146.5773   73.5495  221.6559 H   0  0  0  0  0  0  0  0  0  0  0  0
  145.0408   72.5664  221.6251 H   0  0  0  0  0  0  0  0  0  0  0  0
  146.6920   71.4680  220.5340 H   0  0  0  0  0  0  0  0  0  0  0  0
  145.5785   70.9955  218.5143 H   0  0  0  0  0  0  0  0  0  0  0  0
  144.4254   71.3137  219.8178 H   0  0  0  0  0  0  0  0  0  0  0  0
  145.5137   73.3941  217.8568 H   0  0  0  0  0  0  0  0  0  0  0  0
  143.8945   72.5783  217.7512 H   0  0  0  0  0  0  0  0  0  0  0  0
  141.6305   72.2104  224.1269 H   0  0  0  0  0  0  0  0  0  0  0  0
  141.7390   70.5744  225.9214 H   0  0  0  0  0  0  0  0  0  0  0  0
  1  2  1  0
  2  3  2  0
  2  4  2  0
  2  5  1  0
  5  6  2  0
  6  7  1  0
  7  8  2  0
  8  9  1  0
  9 10  2  0
 10 11  1  0
 11 12  2  0
 12 13  1  0
 13 14  2  0
 14 15  1  0
 15 16  1  0
 15 17  2  0
 17 18  1  0
 18 19  2  0
 19 20  1  0
 20 21  2  0
 20 22  1  0
 22 23  1  0
 23 24  1  0
 24 25  1  0
 25 26  1  0
 26 27  1  0
 27 28  1  0
 28 29  1  0
  8 30  1  0
 30 31  2  0
 31  5  1  0
 22 11  1  0
 29 24  1  0
 19 13  1  0
  1 32  1  0
  1 33  1  0
  6 34  1  0
  7 35  1  0
  9 36  1  0
 10 37  1  0
 14 38  1  0
 17 39  1  0
 18 40  1  0
 23 41  1  0
 23 42  1  0
 24 43  1  0
 25 44  1  0
 25 45  1  0
 26 46  1  0
 26 47  1  0
 27 48  1  0
 28 49  1  0
 28 50  1  0
 29 51  1  0
 29 52  1  0
 30 53  1  0
 31 54  1  0
M  END
>  <smiles>  (26) 
NS(=O)(=O)c1ccc(/C=C/c2nc3cc(Cl)ccc3c(=O)n2CC2CCNCC2)cc1

>  <score_type>  (26) 
oracle

>  <origin>  (26) 
autodockgpu

>  <m_score__min__energy>  (26) 
-10.359999999999999

>  <m_primary>  (26) 
energy

>  <rmsd>  (26) 
4.939514099498596

>  <m_score__min__rmsd>  (26) 
4.939514099498596

>  <meeko>  (26) 
{"free_energy": -10.16, "intermolecular_energy": -12.25, "internal_energy": -1.05, "cluster_size": 33, "cluster_id": 1, "rank_in_cluster": 5}

>  <energy>  (26) 
-9.32

>  <cluster_rmsd>  (26) 
1.11

>  <cluster>  (26) 
1

$$$$

     RDKit          3D

 54 57  0  0  0  0  0  0  0  0999 V2000
  146.1160   73.4020  218.5140 N   0  0  0  0  0  0  0  0  0  0  0  0
  145.6860   72.4200  219.8450 S   0  0  0  0  0  0  0  0  0  0  0  0
  146.2120   71.0090  219.7110 O   0  0  0  0  0  0  0  0  0  0  0  0
  146.2980   72.9960  221.0890 O   0  0  0  0  0  0  0  0  0  0  0  0
  143.9540   72.3800  220.0780 C   0  0  0  0  0  0  0  0  0  0  0  0
  143.1540   73.4910  219.8940 C   0  0  0  0  0  0  0  0  0  0  0  0
  141.7910   73.3850  220.0970 C   0  0  0  0  0  0  0  0  0  0  0  0
  141.1820   72.2080  220.4790 C   0  0  0  0  0  0  0  0  0  0  0  0
  139.7520   72.0720  220.6970 C   0  0  0  0  0  0  0  0  0  0  0  0
  139.1470   70.9400  220.9920 C   0  0  0  0  0  0  0  0  0  0  0  0
  139.3010   70.3150  222.3020 C   0  0  0  0  0  0  0  0  0  0  0  0
  139.8260   71.1010  223.2760 N   0  0  0  0  0  0  0  0  0  0  0  0
  140.0240   70.6670  224.5180 C   0  0  0  0  0  0  0  0  0  0  0  0
  140.5620   71.5220  225.4560 C   0  0  0  0  0  0  0  0  0  0  0  0
  140.7430   71.0140  226.7280 C   0  0  0  0  0  0  0  0  0  0  0  0
  141.4240   72.0540  227.9680 Cl  0  0  0  0  0  0  0  0  0  0  0  0
  140.4120   69.7180  227.0720 C   0  0  0  0  0  0  0  0  0  0  0  0
  139.8740   68.9100  226.0820 C   0  0  0  0  0  0  0  0  0  0  0  0
  139.6740   69.3640  224.8020 C   0  0  0  0  0  0  0  0  0  0  0  0
  139.1420   68.5850  223.7940 C   0  0  0  0  0  0  0  0  0  0  0  0
  138.8410   67.4060  224.0990 O   0  0  0  0  0  0  0  0  0  0  0  0
  138.9430   69.0280  222.5410 N   0  0  0  0  0  0  0  0  0  0  0  0
  138.3820   68.2820  221.4690 C   0  0  0  0  0  0  0  0  0  0  0  0
  136.9490   68.4940  221.1490 C   0  0  0  0  0  0  0  0  0  0  0  0
  136.1750   67.1970  221.0060 C   0  0  0  0  0  0  0  0  0  0  0  0
  135.5040   66.7230  222.2460 C   0  0  0  0  0  0  0  0  0  0  0  0
  134.8340   67.7850  222.9740 N   0  0  0  0  0  0  0  0  0  0  0  0
  135.8270   68.7930  223.3550 C   0  0  0  0  0  0  0  0  0  0  0  0
  136.2480   69.4520  222.0770 C   0  0  0  0  0  0  0  0  0  0  0  0
  142.0230   71.1170  220.6520 C   0  0  0  0  0  0  0  0  0  0  0  0
  143.3640   71.1990  220.4580 C   0  0  0  0  0  0  0  0  0  0  0  0
  146.9630   73.9730  218.7580 H   0  0  0  0  0  0  0  0  0  0  0  0
  145.3590   74.0680  218.2790 H   0  0  0  0  0  0  0  0  0  0  0  0
  143.5973   74.4504  219.5890 H   0  0  0  0  0  0  0  0  0  0  0  0
  141.1653   74.2773  219.9475 H   0  0  0  0  0  0  0  0  0  0  0  0
  139.1322   72.9765  220.6097 H   0  0  0  0  0  0  0  0  0  0  0  0
  138.5124   70.4554  220.2354 H   0  0  0  0  0  0  0  0  0  0  0  0
  140.8338   72.5577  225.2041 H   0  0  0  0  0  0  0  0  0  0  0  0
  140.5693   69.3409  228.0933 H   0  0  0  0  0  0  0  0  0  0  0  0
  139.5992   67.8741  226.3297 H   0  0  0  0  0  0  0  0  0  0  0  0
  138.9587   68.5247  220.5643 H   0  0  0  0  0  0  0  0  0  0  0  0
  138.4373   67.2355  221.8035 H   0  0  0  0  0  0  0  0  0  0  0  0
  136.9617   68.9788  220.1617 H   0  0  0  0  0  0  0  0  0  0  0  0
  135.4035   67.3436  220.2357 H   0  0  0  0  0  0  0  0  0  0  0  0
  136.9146   66.4261  220.7439 H   0  0  0  0  0  0  0  0  0  0  0  0
  134.7581   65.9626  221.9713 H   0  0  0  0  0  0  0  0  0  0  0  0
  136.2846   66.3159  222.9055 H   0  0  0  0  0  0  0  0  0  0  0  0
  134.5190   67.3460  223.8770 H   0  0  0  0  0  0  0  0  0  0  0  0
  135.3814   69.5310  224.0382 H   0  0  0  0  0  0  0  0  0  0  0  0
  136.6821   68.3419  223.8796 H   0  0  0  0  0  0  0  0  0  0  0  0
  135.3549   69.8468  221.5706 H   0  0  0  0  0  0  0  0  0  0  0  0
  136.9536   70.2577  222.3280 H   0  0  0  0  0  0  0  0  0  0  0  0
  141.5880   70.1537  220.9565 H   0  0  0  0  0  0  0  0  0  0  0  0
  143.9882   70.3056  220.6074 H   0  0  0  0  0  0  0  0  0  0  0  0
  1  2  1  0
  2  3  2  0
  2  4  2  0
  2  5  1  0
  5  6  2  0
  6  7  1  0
  7  8  2  0
  8  9  1  0
  9 10  2  0
 10 11  1  0
 11 12  2  0
 12 13  1  0
 13 14  2  0
 14 15  1  0
 15 16  1  0
 15 17  2  0
 17 18  1  0
 18 19  2  0
 19 20  1  0
 20 21  2  0
 20 22  1  0
 22 23  1  0
 23 24  1  0
 24 25  1  0
 25 26  1  0
 26 27  1  0
 27 28  1  0
 28 29  1  0
  8 30  1  0
 30 31  2  0
 31  5  1  0
 22 11  1  0
 29 24  1  0
 19 13  1  0
  1 32  1  0
  1 33  1  0
  6 34  1  0
  7 35  1  0
  9 36  1  0
 10 37  1  0
 14 38  1  0
 17 39  1  0
 18 40  1  0
 23 41  1  0
 23 42  1  0
 24 43  1  0
 25 44  1  0
 25 45  1  0
 26 46  1  0
 26 47  1  0
 27 48  1  0
 28 49  1  0
 28 50  1  0
 29 51  1  0
 29 52  1  0
 30 53  1  0
 31 54  1  0
M  END
>  <smiles>  (27) 
NS(=O)(=O)c1ccc(/C=C/c2nc3cc(Cl)ccc3c(=O)n2CC2CCNCC2)cc1

>  <score_type>  (27) 
oracle

>  <origin>  (27) 
autodockgpu

>  <m_score__min__energy>  (27) 
-10.359999999999999

>  <m_primary>  (27) 
energy

>  <rmsd>  (27) 
11.948904555877569

>  <m_score__min__rmsd>  (27) 
11.948904555877569

>  <meeko>  (27) 
{"free_energy": -8.07, "intermolecular_energy": -10.16, "internal_energy": -1.59, "cluster_size": 1, "cluster_id": 6, "rank_in_cluster": 1}

>  <energy>  (27) 
-9.14

>  <cluster_rmsd>  (27) 
0.97

>  <cluster>  (27) 
1

$$$$

     RDKit          3D

 54 57  0  0  0  0  0  0  0  0999 V2000
  139.7150   68.7160  228.4130 N   0  0  0  0  0  0  0  0  0  0  0  0
  140.0670   68.0780  226.8670 S   0  0  0  0  0  0  0  0  0  0  0  0
  141.4240   67.4160  226.8140 O   0  0  0  0  0  0  0  0  0  0  0  0
  139.0540   67.0200  226.5380 O   0  0  0  0  0  0  0  0  0  0  0  0
  139.9660   69.3090  225.6290 C   0  0  0  0  0  0  0  0  0  0  0  0
  139.1300   69.1950  224.5350 C   0  0  0  0  0  0  0  0  0  0  0  0
  139.1030   70.2080  223.5960 C   0  0  0  0  0  0  0  0  0  0  0  0
  139.8810   71.3430  223.6980 C   0  0  0  0  0  0  0  0  0  0  0  0
  139.8700   72.4210  222.7240 C   0  0  0  0  0  0  0  0  0  0  0  0
  140.7200   72.5320  221.7250 C   0  0  0  0  0  0  0  0  0  0  0  0
  141.1390   73.8380  221.2250 C   0  0  0  0  0  0  0  0  0  0  0  0
  140.7880   74.9050  221.9870 N   0  0  0  0  0  0  0  0  0  0  0  0
  141.1010   76.1550  221.6590 C   0  0  0  0  0  0  0  0  0  0  0  0
  140.7110   77.1890  222.4810 C   0  0  0  0  0  0  0  0  0  0  0  0
  141.0660   78.4660  222.0860 C   0  0  0  0  0  0  0  0  0  0  0  0
  140.5990   79.8260  223.0930 Cl  0  0  0  0  0  0  0  0  0  0  0  0
  141.7760   78.7220  220.9290 C   0  0  0  0  0  0  0  0  0  0  0  0
  142.1380   77.6360  220.1460 C   0  0  0  0  0  0  0  0  0  0  0  0
  141.8100   76.3490  220.4920 C   0  0  0  0  0  0  0  0  0  0  0  0
  142.1550   75.2480  219.7340 C   0  0  0  0  0  0  0  0  0  0  0  0
  142.7970   75.4740  218.6800 O   0  0  0  0  0  0  0  0  0  0  0  0
  141.8370   73.9860  220.0710 N   0  0  0  0  0  0  0  0  0  0  0  0
  142.1810   72.8140  219.3440 C   0  0  0  0  0  0  0  0  0  0  0  0
  143.4440   72.1210  219.6980 C   0  0  0  0  0  0  0  0  0  0  0  0
  144.3560   71.9040  218.5060 C   0  0  0  0  0  0  0  0  0  0  0  0
  145.3700   72.9690  218.2860 C   0  0  0  0  0  0  0  0  0  0  0  0
  146.0180   73.4020  219.5100 N   0  0  0  0  0  0  0  0  0  0  0  0
  144.9990   73.9310  220.4210 C   0  0  0  0  0  0  0  0  0  0  0  0
  144.1860   72.7480  220.8500 C   0  0  0  0  0  0  0  0  0  0  0  0
  140.7060   71.4150  224.8130 C   0  0  0  0  0  0  0  0  0  0  0  0
  140.7480   70.4320  225.7470 C   0  0  0  0  0  0  0  0  0  0  0  0
  140.4470   69.4220  228.6770 H   0  0  0  0  0  0  0  0  0  0  0  0
  139.7320   67.9770  229.1370 H   0  0  0  0  0  0  0  0  0  0  0  0
  138.4925   68.3069  224.4129 H   0  0  0  0  0  0  0  0  0  0  0  0
  138.4326   70.1053  222.7300 H   0  0  0  0  0  0  0  0  0  0  0  0
  139.0983   73.1979  222.8286 H   0  0  0  0  0  0  0  0  0  0  0  0
  141.1230   71.6217  221.2572 H   0  0  0  0  0  0  0  0  0  0  0  0
  140.1448   77.0080  223.4065 H   0  0  0  0  0  0  0  0  0  0  0  0
  142.0442   79.7488  220.6395 H   0  0  0  0  0  0  0  0  0  0  0  0
  142.7050   77.8114  219.2199 H   0  0  0  0  0  0  0  0  0  0  0  0
  141.3623   72.0921  219.4806 H   0  0  0  0  0  0  0  0  0  0  0  0
  142.3399   73.1661  218.3140 H   0  0  0  0  0  0  0  0  0  0  0  0
  143.1192   71.1295  220.0465 H   0  0  0  0  0  0  0  0  0  0  0  0
  144.8876   70.9522  218.6524 H   0  0  0  0  0  0  0  0  0  0  0  0
  143.7067   71.9108  217.6181 H   0  0  0  0  0  0  0  0  0  0  0  0
  146.1391   72.5834  217.6006 H   0  0  0  0  0  0  0  0  0  0  0  0
  144.8441   73.8402  217.8683 H   0  0  0  0  0  0  0  0  0  0  0  0
  146.6050   74.2310  219.2350 H   0  0  0  0  0  0  0  0  0  0  0  0
  145.4730   74.4069  221.2921 H   0  0  0  0  0  0  0  0  0  0  0  0
  144.3768   74.6964  219.9341 H   0  0  0  0  0  0  0  0  0  0  0  0
  144.8583   71.9965  221.2897 H   0  0  0  0  0  0  0  0  0  0  0  0
  143.4424   73.0961  221.5820 H   0  0  0  0  0  0  0  0  0  0  0  0
  141.3472   72.2993  224.9432 H   0  0  0  0  0  0  0  0  0  0  0  0
  141.4189   70.5359  226.6125 H   0  0  0  0  0  0  0  0  0  0  0  0
  1  2  1  0
  2  3  2  0
  2  4  2  0
  2  5  1  0
  5  6  2  0
  6  7  1  0
  7  8  2  0
  8  9  1  0
  9 10  2  0
 10 11  1  0
 11 12  2  0
 12 13  1  0
 13 14  2  0
 14 15  1  0
 15 16  1  0
 15 17  2  0
 17 18  1  0
 18 19  2  0
 19 20  1  0
 20 21  2  0
 20 22  1  0
 22 23  1  0
 23 24  1  0
 24 25  1  0
 25 26  1  0
 26 27  1  0
 27 28  1  0
 28 29  1  0
  8 30  1  0
 30 31  2  0
 31  5  1  0
 22 11  1  0
 29 24  1  0
 19 13  1  0
  1 32  1  0
  1 33  1  0
  6 34  1  0
  7 35  1  0
  9 36  1  0
 10 37  1  0
 14 38  1  0
 17 39  1  0
 18 40  1  0
 23 41  1  0
 23 42  1  0
 24 43  1  0
 25 44  1  0
 25 45  1  0
 26 46  1  0
 26 47  1  0
 27 48  1  0
 28 49  1  0
 28 50  1  0
 29 51  1  0
 29 52  1  0
 30 53  1  0
 31 54  1  0
M  END
>  <smiles>  (28) 
NS(=O)(=O)c1ccc(/C=C/c2nc3cc(Cl)ccc3c(=O)n2CC2CCNCC2)cc1

>  <score_type>  (28) 
oracle

>  <origin>  (28) 
autodockgpu

>  <m_score__min__energy>  (28) 
-10.359999999999999

>  <m_primary>  (28) 
energy

>  <rmsd>  (28) 
5.456238938237153

>  <m_score__min__rmsd>  (28) 
5.456238938237153

>  <meeko>  (28) 
{"free_energy": -9.55, "intermolecular_energy": -11.64, "internal_energy": -1.4, "cluster_size": 33, "cluster_id": 1, "rank_in_cluster": 23}

>  <energy>  (28) 
-8.91

>  <cluster_rmsd>  (28) 
0.77

>  <cluster>  (28) 
1

$$$$

     RDKit          3D

 54 57  0  0  0  0  0  0  0  0999 V2000
  141.3920   67.8700  226.9560 N   0  0  0  0  0  0  0  0  0  0  0  0
  139.7880   68.4050  226.7060 S   0  0  0  0  0  0  0  0  0  0  0  0
  138.8390   67.2640  226.4210 O   0  0  0  0  0  0  0  0  0  0  0  0
  139.3000   69.0730  227.9590 O   0  0  0  0  0  0  0  0  0  0  0  0
  139.6990   69.5790  225.4130 C   0  0  0  0  0  0  0  0  0  0  0  0
  138.6230   69.6540  224.5500 C   0  0  0  0  0  0  0  0  0  0  0  0
  138.6210   70.6080  223.5510 C   0  0  0  0  0  0  0  0  0  0  0  0
  139.6570   71.5010  223.3700 C   0  0  0  0  0  0  0  0  0  0  0  0
  139.6780   72.5130  222.3270 C   0  0  0  0  0  0  0  0  0  0  0  0
  140.6930   72.7280  221.5170 C   0  0  0  0  0  0  0  0  0  0  0  0
  141.0400   74.0740  221.0730 C   0  0  0  0  0  0  0  0  0  0  0  0
  140.8260   75.0680  221.9730 N   0  0  0  0  0  0  0  0  0  0  0  0
  141.0950   76.3440  221.7100 C   0  0  0  0  0  0  0  0  0  0  0  0
  140.8520   77.3000  222.6720 C   0  0  0  0  0  0  0  0  0  0  0  0
  141.1530   78.6070  222.3390 C   0  0  0  0  0  0  0  0  0  0  0  0
  140.8670   79.8710  223.5240 Cl  0  0  0  0  0  0  0  0  0  0  0  0
  141.6700   78.9680  221.1110 C   0  0  0  0  0  0  0  0  0  0  0  0
  141.8920   77.9570  220.1870 C   0  0  0  0  0  0  0  0  0  0  0  0
  141.6110   76.6440  220.4660 C   0  0  0  0  0  0  0  0  0  0  0  0
  141.8190   75.6150  219.5690 C   0  0  0  0  0  0  0  0  0  0  0  0
  142.2860   75.9360  218.4500 O   0  0  0  0  0  0  0  0  0  0  0  0
  141.5450   74.3270  219.8400 N   0  0  0  0  0  0  0  0  0  0  0  0
  141.7570   73.2250  218.9670 C   0  0  0  0  0  0  0  0  0  0  0  0
  143.1540   72.7920  218.7190 C   0  0  0  0  0  0  0  0  0  0  0  0
  144.1790   73.8290  219.1350 C   0  0  0  0  0  0  0  0  0  0  0  0
  144.7090   73.6730  220.5160 C   0  0  0  0  0  0  0  0  0  0  0  0
  145.0230   72.2970  220.8550 N   0  0  0  0  0  0  0  0  0  0  0  0
  143.8020   71.4950  220.7470 C   0  0  0  0  0  0  0  0  0  0  0  0
  143.4850   71.4350  219.2850 C   0  0  0  0  0  0  0  0  0  0  0  0
  140.7170   71.3910  224.2590 C   0  0  0  0  0  0  0  0  0  0  0  0
  140.7390   70.4610  225.2470 C   0  0  0  0  0  0  0  0  0  0  0  0
  141.3860   67.0190  227.5720 H   0  0  0  0  0  0  0  0  0  0  0  0
  141.9570   68.5900  227.4380 H   0  0  0  0  0  0  0  0  0  0  0  0
  137.7758   68.9606  224.6573 H   0  0  0  0  0  0  0  0  0  0  0  0
  137.7574   70.6578  222.8715 H   0  0  0  0  0  0  0  0  0  0  0  0
  138.7841   73.1426  222.2062 H   0  0  0  0  0  0  0  0  0  0  0  0
  141.2925   71.8746  221.1673 H   0  0  0  0  0  0  0  0  0  0  0  0
  140.4388   77.0359  223.6566 H   0  0  0  0  0  0  0  0  0  0  0  0
  141.8974   80.0178  220.8739 H   0  0  0  0  0  0  0  0  0  0  0  0
  142.3057   78.2164  219.2013 H   0  0  0  0  0  0  0  0  0  0  0  0
  141.2179   72.3644  219.3897 H   0  0  0  0  0  0  0  0  0  0  0  0
  141.4006   73.5775  217.9879 H   0  0  0  0  0  0  0  0  0  0  0  0
  143.2157   72.6911  217.6254 H   0  0  0  0  0  0  0  0  0  0  0  0
  145.0264   73.7702  218.4360 H   0  0  0  0  0  0  0  0  0  0  0  0
  143.6601   74.7987  219.1135 H   0  0  0  0  0  0  0  0  0  0  0  0
  145.6256   74.2740  220.6089 H   0  0  0  0  0  0  0  0  0  0  0  0
  143.9230   74.0094  221.2081 H   0  0  0  0  0  0  0  0  0  0  0  0
  145.2600   72.3120  221.8810 H   0  0  0  0  0  0  0  0  0  0  0  0
  143.9711   70.4834  221.1447 H   0  0  0  0  0  0  0  0  0  0  0  0
  142.9751   71.9345  221.3241 H   0  0  0  0  0  0  0  0  0  0  0  0
  144.3567   71.0307  218.7496 H   0  0  0  0  0  0  0  0  0  0  0  0
  142.6027   70.7907  219.1565 H   0  0  0  0  0  0  0  0  0  0  0  0
  141.5680   72.0809  224.1594 H   0  0  0  0  0  0  0  0  0  0  0  0
  141.6033   70.4126  225.9257 H   0  0  0  0  0  0  0  0  0  0  0  0
  1  2  1  0
  2  3  2  0
  2  4  2  0
  2  5  1  0
  5  6  2  0
  6  7  1  0
  7  8  2  0
  8  9  1  0
  9 10  2  0
 10 11  1  0
 11 12  2  0
 12 13  1  0
 13 14  2  0
 14 15  1  0
 15 16  1  0
 15 17  2  0
 17 18  1  0
 18 19  2  0
 19 20  1  0
 20 21  2  0
 20 22  1  0
 22 23  1  0
 23 24  1  0
 24 25  1  0
 25 26  1  0
 26 27  1  0
 27 28  1  0
 28 29  1  0
  8 30  1  0
 30 31  2  0
 31  5  1  0
 22 11  1  0
 29 24  1  0
 19 13  1  0
  1 32  1  0
  1 33  1  0
  6 34  1  0
  7 35  1  0
  9 36  1  0
 10 37  1  0
 14 38  1  0
 17 39  1  0
 18 40  1  0
 23 41  1  0
 23 42  1  0
 24 43  1  0
 25 44  1  0
 25 45  1  0
 26 46  1  0
 26 47  1  0
 27 48  1  0
 28 49  1  0
 28 50  1  0
 29 51  1  0
 29 52  1  0
 30 53  1  0
 31 54  1  0
M  END
>  <smiles>  (29) 
NS(=O)(=O)c1ccc(/C=C/c2nc3cc(Cl)ccc3c(=O)n2CC2CCNCC2)cc1

>  <score_type>  (29) 
oracle

>  <origin>  (29) 
autodockgpu

>  <m_score__min__energy>  (29) 
-10.359999999999999

>  <m_primary>  (29) 
energy

>  <rmsd>  (29) 
4.92326667156869

>  <m_score__min__rmsd>  (29) 
4.92326667156869

>  <meeko>  (29) 
{"free_energy": -8.82, "intermolecular_energy": -10.91, "internal_energy": -1.39, "cluster_size": 33, "cluster_id": 1, "rank_in_cluster": 30}

>  <energy>  (29) 
-8.82

>  <cluster_rmsd>  (29) 
0.98

>  <cluster>  (29) 
1

$$$$

     RDKit          3D

 54 57  0  0  0  0  0  0  0  0999 V2000
  141.0690   68.1070  227.9510 N   0  0  0  0  0  0  0  0  0  0  0  0
  140.4480   69.6990  227.9670 S   0  0  0  0  0  0  0  0  0  0  0  0
  139.1400   69.7970  228.7160 O   0  0  0  0  0  0  0  0  0  0  0  0
  141.4240   70.5920  228.6770 O   0  0  0  0  0  0  0  0  0  0  0  0
  140.2430   70.3220  226.3460 C   0  0  0  0  0  0  0  0  0  0  0  0
  140.9200   71.4360  225.8870 C   0  0  0  0  0  0  0  0  0  0  0  0
  140.7080   71.8710  224.5930 C   0  0  0  0  0  0  0  0  0  0  0  0
  139.8420   71.2400  223.7250 C   0  0  0  0  0  0  0  0  0  0  0  0
  139.6030   71.6790  222.3610 C   0  0  0  0  0  0  0  0  0  0  0  0
  140.5510   71.9470  221.4870 C   0  0  0  0  0  0  0  0  0  0  0  0
  140.9460   73.3200  221.1920 C   0  0  0  0  0  0  0  0  0  0  0  0
  140.3790   74.2800  221.9670 N   0  0  0  0  0  0  0  0  0  0  0  0
  140.6450   75.5750  221.8150 C   0  0  0  0  0  0  0  0  0  0  0  0
  140.0310   76.4930  222.6390 C   0  0  0  0  0  0  0  0  0  0  0  0
  140.3480   77.8230  222.4320 C   0  0  0  0  0  0  0  0  0  0  0  0
  139.5990   79.0410  223.4490 Cl  0  0  0  0  0  0  0  0  0  0  0  0
  141.2320   78.2390  221.4560 C   0  0  0  0  0  0  0  0  0  0  0  0
  141.8160   77.2640  220.6620 C   0  0  0  0  0  0  0  0  0  0  0  0
  141.5360   75.9310  220.8240 C   0  0  0  0  0  0  0  0  0  0  0  0
  142.0990   74.9360  220.0500 C   0  0  0  0  0  0  0  0  0  0  0  0
  142.9010   75.3080  219.1590 O   0  0  0  0  0  0  0  0  0  0  0  0
  141.8270   73.6290  220.2080 N   0  0  0  0  0  0  0  0  0  0  0  0
  142.3900   72.5610  219.4570 C   0  0  0  0  0  0  0  0  0  0  0  0
  143.6890   72.0020  219.9070 C   0  0  0  0  0  0  0  0  0  0  0  0
  144.5730   71.5560  218.7590 C   0  0  0  0  0  0  0  0  0  0  0  0
  145.5390   72.5780  218.2730 C   0  0  0  0  0  0  0  0  0  0  0  0
  146.2050   73.2900  219.3470 N   0  0  0  0  0  0  0  0  0  0  0  0
  145.1940   73.9740  220.1570 C   0  0  0  0  0  0  0  0  0  0  0  0
  144.4400   72.8910  220.8650 C   0  0  0  0  0  0  0  0  0  0  0  0
  139.1840   70.1260  224.2270 C   0  0  0  0  0  0  0  0  0  0  0  0
  139.3770   69.6810  225.4940 C   0  0  0  0  0  0  0  0  0  0  0  0
  141.6790   67.9760  227.1050 H   0  0  0  0  0  0  0  0  0  0  0  0
  140.3090   67.4070  227.8880 H   0  0  0  0  0  0  0  0  0  0  0  0
  141.6205   71.9708  226.5452 H   0  0  0  0  0  0  0  0  0  0  0  0
  141.2533   72.7587  224.2400 H   0  0  0  0  0  0  0  0  0  0  0  0
  138.5586   71.7956  222.0359 H   0  0  0  0  0  0  0  0  0  0  0  0
  141.0555   71.1183  220.9686 H   0  0  0  0  0  0  0  0  0  0  0  0
  139.3238   76.1832  223.4226 H   0  0  0  0  0  0  0  0  0  0  0  0
  141.4642   79.3048  221.3138 H   0  0  0  0  0  0  0  0  0  0  0  0
  142.5254   77.5686  219.8784 H   0  0  0  0  0  0  0  0  0  0  0  0
  141.6605   71.7377  219.4615 H   0  0  0  0  0  0  0  0  0  0  0  0
  142.6066   73.0016  218.4726 H   0  0  0  0  0  0  0  0  0  0  0  0
  143.4131   71.1019  220.4759 H   0  0  0  0  0  0  0  0  0  0  0  0
  145.1449   70.6769  219.0908 H   0  0  0  0  0  0  0  0  0  0  0  0
  143.8982   71.3466  217.9159 H   0  0  0  0  0  0  0  0  0  0  0  0
  146.3021   72.0749  217.6610 H   0  0  0  0  0  0  0  0  0  0  0  0
  144.9680   73.3188  217.6940 H   0  0  0  0  0  0  0  0  0  0  0  0
  146.7520   74.0560  218.8750 H   0  0  0  0  0  0  0  0  0  0  0  0
  145.6749   74.6447  220.8842 H   0  0  0  0  0  0  0  0  0  0  0  0
  144.5286   74.5930  219.5373 H   0  0  0  0  0  0  0  0  0  0  0  0
  145.1531   72.2764  221.4341 H   0  0  0  0  0  0  0  0  0  0  0  0
  143.7053   73.3692  221.5295 H   0  0  0  0  0  0  0  0  0  0  0  0
  138.4819   69.5853  223.5753 H   0  0  0  0  0  0  0  0  0  0  0  0
  138.8312   68.7926  225.8446 H   0  0  0  0  0  0  0  0  0  0  0  0
  1  2  1  0
  2  3  2  0
  2  4  2  0
  2  5  1  0
  5  6  2  0
  6  7  1  0
  7  8  2  0
  8  9  1  0
  9 10  2  0
 10 11  1  0
 11 12  2  0
 12 13  1  0
 13 14  2  0
 14 15  1  0
 15 16  1  0
 15 17  2  0
 17 18  1  0
 18 19  2  0
 19 20  1  0
 20 21  2  0
 20 22  1  0
 22 23  1  0
 23 24  1  0
 24 25  1  0
 25 26  1  0
 26 27  1  0
 27 28  1  0
 28 29  1  0
  8 30  1  0
 30 31  2  0
 31  5  1  0
 22 11  1  0
 29 24  1  0
 19 13  1  0
  1 32  1  0
  1 33  1  0
  6 34  1  0
  7 35  1  0
  9 36  1  0
 10 37  1  0
 14 38  1  0
 17 39  1  0
 18 40  1  0
 23 41  1  0
 23 42  1  0
 24 43  1  0
 25 44  1  0
 25 45  1  0
 26 46  1  0
 26 47  1  0
 27 48  1  0
 28 49  1  0
 28 50  1  0
 29 51  1  0
 29 52  1  0
 30 53  1  0
 31 54  1  0
M  END
>  <smiles>  (30) 
NS(=O)(=O)c1ccc(/C=C/c2nc3cc(Cl)ccc3c(=O)n2CC2CCNCC2)cc1

>  <score_type>  (30) 
oracle

>  <origin>  (30) 
autodockgpu

>  <m_score__min__energy>  (30) 
-10.359999999999999

>  <m_primary>  (30) 
energy

>  <rmsd>  (30) 
5.800673156714242

>  <m_score__min__rmsd>  (30) 
5.800673156714242

>  <meeko>  (30) 
{"free_energy": -9.7, "intermolecular_energy": -11.79, "internal_energy": -1.39, "cluster_size": 33, "cluster_id": 1, "rank_in_cluster": 18}

>  <energy>  (30) 
-8.82

>  <cluster_rmsd>  (30) 
1.3

>  <cluster>  (30) 
1

$$$$

     RDKit          3D

 54 57  0  0  0  0  0  0  0  0999 V2000
  136.0820   81.2930  230.5720 N   0  0  0  0  0  0  0  0  0  0  0  0
  134.7920   81.6090  229.4950 S   0  0  0  0  0  0  0  0  0  0  0  0
  133.7110   80.5560  229.5690 O   0  0  0  0  0  0  0  0  0  0  0  0
  134.1550   82.9150  229.8730 O   0  0  0  0  0  0  0  0  0  0  0  0
  135.3570   81.7540  227.8460 C   0  0  0  0  0  0  0  0  0  0  0  0
  134.5210   81.5910  226.7580 C   0  0  0  0  0  0  0  0  0  0  0  0
  135.0380   81.7210  225.4830 C   0  0  0  0  0  0  0  0  0  0  0  0
  136.3650   82.0080  225.2400 C   0  0  0  0  0  0  0  0  0  0  0  0
  136.9310   82.1490  223.9090 C   0  0  0  0  0  0  0  0  0  0  0  0
  136.6090   81.3960  222.8780 C   0  0  0  0  0  0  0  0  0  0  0  0
  136.8050   79.9500  222.9030 C   0  0  0  0  0  0  0  0  0  0  0  0
  135.7770   79.2210  223.4060 N   0  0  0  0  0  0  0  0  0  0  0  0
  135.8130   77.8940  223.4910 C   0  0  0  0  0  0  0  0  0  0  0  0
  134.7310   77.2190  224.0140 C   0  0  0  0  0  0  0  0  0  0  0  0
  134.8290   75.8410  224.0750 C   0  0  0  0  0  0  0  0  0  0  0  0
  133.4830   74.9240  224.7310 Cl  0  0  0  0  0  0  0  0  0  0  0  0
  135.9420   75.1490  223.6420 C   0  0  0  0  0  0  0  0  0  0  0  0
  136.9960   75.8880  223.1260 C   0  0  0  0  0  0  0  0  0  0  0  0
  136.9520   77.2570  223.0430 C   0  0  0  0  0  0  0  0  0  0  0  0
  137.9830   78.0210  222.5350 C   0  0  0  0  0  0  0  0  0  0  0  0
  138.9990   77.3980  222.1430 O   0  0  0  0  0  0  0  0  0  0  0  0
  137.9410   79.3620  222.4520 N   0  0  0  0  0  0  0  0  0  0  0  0
  138.9610   80.1990  221.9210 C   0  0  0  0  0  0  0  0  0  0  0  0
  140.0530   80.6270  222.8300 C   0  0  0  0  0  0  0  0  0  0  0  0
  140.4320   79.5640  223.8420 C   0  0  0  0  0  0  0  0  0  0  0  0
  141.5490   78.6720  223.4320 C   0  0  0  0  0  0  0  0  0  0  0  0
  142.6530   79.3860  222.8160 N   0  0  0  0  0  0  0  0  0  0  0  0
  142.1610   80.0740  221.6200 C   0  0  0  0  0  0  0  0  0  0  0  0
  141.2670   81.1670  222.1190 C   0  0  0  0  0  0  0  0  0  0  0  0
  137.1680   82.1640  226.3620 C   0  0  0  0  0  0  0  0  0  0  0  0
  136.6820   82.0410  227.6230 C   0  0  0  0  0  0  0  0  0  0  0  0
  135.7050   80.8720  231.4570 H   0  0  0  0  0  0  0  0  0  0  0  0
  136.5730   82.1650  230.8360 H   0  0  0  0  0  0  0  0  0  0  0  0
  133.4556   81.3603  226.9051 H   0  0  0  0  0  0  0  0  0  0  0  0
  134.3621   81.5900  224.6251 H   0  0  0  0  0  0  0  0  0  0  0  0
  137.6800   82.9392  223.7520 H   0  0  0  0  0  0  0  0  0  0  0  0
  136.1835   81.8665  221.9793 H   0  0  0  0  0  0  0  0  0  0  0  0
  133.8341   77.7501  224.3654 H   0  0  0  0  0  0  0  0  0  0  0  0
  135.9912   74.0518  223.7039 H   0  0  0  0  0  0  0  0  0  0  0  0
  137.8944   75.3608  222.7726 H   0  0  0  0  0  0  0  0  0  0  0  0
  139.4255   79.6578  221.0835 H   0  0  0  0  0  0  0  0  0  0  0  0
  138.4416   81.1319  221.6565 H   0  0  0  0  0  0  0  0  0  0  0  0
  139.6248   81.4726  223.3882 H   0  0  0  0  0  0  0  0  0  0  0  0
  140.7244   80.0697  224.7741 H   0  0  0  0  0  0  0  0  0  0  0  0
  139.5488   78.9177  223.9525 H   0  0  0  0  0  0  0  0  0  0  0  0
  141.9247   78.1493  224.3240 H   0  0  0  0  0  0  0  0  0  0  0  0
  141.1514   77.9733  222.6812 H   0  0  0  0  0  0  0  0  0  0  0  0
  143.3050   78.6390  222.4630 H   0  0  0  0  0  0  0  0  0  0  0  0
  143.0004   80.4964  221.0481 H   0  0  0  0  0  0  0  0  0  0  0  0
  141.6255   79.3869  220.9483 H   0  0  0  0  0  0  0  0  0  0  0  0
  141.8353   81.7987  222.8176 H   0  0  0  0  0  0  0  0  0  0  0  0
  140.9208   81.7447  221.2493 H   0  0  0  0  0  0  0  0  0  0  0  0
  138.2345   82.3952  226.2239 H   0  0  0  0  0  0  0  0  0  0  0  0
  137.3592   82.1731  228.4797 H   0  0  0  0  0  0  0  0  0  0  0  0
  1  2  1  0
  2  3  2  0
  2  4  2  0
  2  5  1  0
  5  6  2  0
  6  7  1  0
  7  8  2  0
  8  9  1  0
  9 10  2  0
 10 11  1  0
 11 12  2  0
 12 13  1  0
 13 14  2  0
 14 15  1  0
 15 16  1  0
 15 17  2  0
 17 18  1  0
 18 19  2  0
 19 20  1  0
 20 21  2  0
 20 22  1  0
 22 23  1  0
 23 24  1  0
 24 25  1  0
 25 26  1  0
 26 27  1  0
 27 28  1  0
 28 29  1  0
  8 30  1  0
 30 31  2  0
 31  5  1  0
 22 11  1  0
 29 24  1  0
 19 13  1  0
  1 32  1  0
  1 33  1  0
  6 34  1  0
  7 35  1  0
  9 36  1  0
 10 37  1  0
 14 38  1  0
 17 39  1  0
 18 40  1  0
 23 41  1  0
 23 42  1  0
 24 43  1  0
 25 44  1  0
 25 45  1  0
 26 46  1  0
 26 47  1  0
 27 48  1  0
 28 49  1  0
 28 50  1  0
 29 51  1  0
 29 52  1  0
 30 53  1  0
 31 54  1  0
M  END
>  <smiles>  (31) 
NS(=O)(=O)c1ccc(/C=C/c2nc3cc(Cl)ccc3c(=O)n2CC2CCNCC2)cc1

>  <score_type>  (31) 
oracle

>  <origin>  (31) 
autodockgpu

>  <m_score__min__energy>  (31) 
-10.359999999999999

>  <m_primary>  (31) 
energy

>  <rmsd>  (31) 
6.726952982737932

>  <m_score__min__rmsd>  (31) 
6.726952982737932

>  <meeko>  (31) 
{"free_energy": -7.82, "intermolecular_energy": -9.9, "internal_energy": -1.69, "cluster_size": 1, "cluster_id": 9, "rank_in_cluster": 1}

>  <energy>  (31) 
-8.8

>  <cluster_rmsd>  (31) 
0.88

>  <cluster>  (31) 
1

$$$$

     RDKit          3D

 54 57  0  0  0  0  0  0  0  0999 V2000
  139.3170   67.0150  226.8530 N   0  0  0  0  0  0  0  0  0  0  0  0
  139.9770   68.5430  227.2420 S   0  0  0  0  0  0  0  0  0  0  0  0
  139.3260   69.1570  228.4600 O   0  0  0  0  0  0  0  0  0  0  0  0
  141.4330   68.3720  227.5670 O   0  0  0  0  0  0  0  0  0  0  0  0
  139.8620   69.6510  225.8940 C   0  0  0  0  0  0  0  0  0  0  0  0
  138.8770   69.5510  224.9320 C   0  0  0  0  0  0  0  0  0  0  0  0
  138.8480   70.4630  223.8950 C   0  0  0  0  0  0  0  0  0  0  0  0
  139.7690   71.4830  223.7710 C   0  0  0  0  0  0  0  0  0  0  0  0
  139.7590   72.4530  222.6900 C   0  0  0  0  0  0  0  0  0  0  0  0
  140.6920   72.5500  221.7660 C   0  0  0  0  0  0  0  0  0  0  0  0
  141.1340   73.8470  221.2640 C   0  0  0  0  0  0  0  0  0  0  0  0
  140.7710   74.9240  222.0060 N   0  0  0  0  0  0  0  0  0  0  0  0
  141.1020   76.1690  221.6740 C   0  0  0  0  0  0  0  0  0  0  0  0
  140.6990   77.2140  222.4750 C   0  0  0  0  0  0  0  0  0  0  0  0
  141.0750   78.4840  222.0770 C   0  0  0  0  0  0  0  0  0  0  0  0
  140.5910   79.8580  223.0570 Cl  0  0  0  0  0  0  0  0  0  0  0  0
  141.8160   78.7230  220.9370 C   0  0  0  0  0  0  0  0  0  0  0  0
  142.1910   77.6270  220.1750 C   0  0  0  0  0  0  0  0  0  0  0  0
  141.8440   76.3460  220.5240 C   0  0  0  0  0  0  0  0  0  0  0  0
  142.2000   75.2340  219.7870 C   0  0  0  0  0  0  0  0  0  0  0  0
  142.8720   75.4450  218.7480 O   0  0  0  0  0  0  0  0  0  0  0  0
  141.8630   73.9790  220.1280 N   0  0  0  0  0  0  0  0  0  0  0  0
  142.2180   72.7960  219.4220 C   0  0  0  0  0  0  0  0  0  0  0  0
  143.4790   72.1130  219.7980 C   0  0  0  0  0  0  0  0  0  0  0  0
  144.3120   71.7010  218.5990 C   0  0  0  0  0  0  0  0  0  0  0  0
  145.3410   72.6890  218.1780 C   0  0  0  0  0  0  0  0  0  0  0  0
  146.0730   73.2620  219.2920 N   0  0  0  0  0  0  0  0  0  0  0  0
  145.1260   73.9460  220.1760 C   0  0  0  0  0  0  0  0  0  0  0  0
  144.3070   72.8640  220.8090 C   0  0  0  0  0  0  0  0  0  0  0  0
  140.7410   71.5460  224.7600 C   0  0  0  0  0  0  0  0  0  0  0  0
  140.7880   70.6610  225.7880 C   0  0  0  0  0  0  0  0  0  0  0  0
  138.6290   66.7310  227.5940 H   0  0  0  0  0  0  0  0  0  0  0  0
  140.0510   66.2850  226.8240 H   0  0  0  0  0  0  0  0  0  0  0  0
  138.1225   68.7527  224.9907 H   0  0  0  0  0  0  0  0  0  0  0  0
  138.0572   70.3723  223.1358 H   0  0  0  0  0  0  0  0  0  0  0  0
  138.9136   73.1550  222.6398 H   0  0  0  0  0  0  0  0  0  0  0  0
  141.1482   71.6335  221.3637 H   0  0  0  0  0  0  0  0  0  0  0  0
  140.1070   77.0468  223.3869 H   0  0  0  0  0  0  0  0  0  0  0  0
  142.0984   79.7450  220.6440 H   0  0  0  0  0  0  0  0  0  0  0  0
  142.7846   77.7892  219.2632 H   0  0  0  0  0  0  0  0  0  0  0  0
  141.4004   72.0736  219.5622 H   0  0  0  0  0  0  0  0  0  0  0  0
  142.3856   73.1328  218.3883 H   0  0  0  0  0  0  0  0  0  0  0  0
  143.1466   71.1915  220.2984 H   0  0  0  0  0  0  0  0  0  0  0  0
  144.8243   70.7596  218.8469 H   0  0  0  0  0  0  0  0  0  0  0  0
  143.6117   71.6088  217.7557 H   0  0  0  0  0  0  0  0  0  0  0  0
  146.0567   72.1858  217.5113 H   0  0  0  0  0  0  0  0  0  0  0  0
  144.8156   73.5133  217.6736 H   0  0  0  0  0  0  0  0  0  0  0  0
  146.6670   74.0230  218.8730 H   0  0  0  0  0  0  0  0  0  0  0  0
  145.6647   74.5188  220.9452 H   0  0  0  0  0  0  0  0  0  0  0  0
  144.4975   74.6594  219.6228 H   0  0  0  0  0  0  0  0  0  0  0  0
  144.9826   72.1554  221.3105 H   0  0  0  0  0  0  0  0  0  0  0  0
  143.6191   73.3360  221.5259 H   0  0  0  0  0  0  0  0  0  0  0  0
  141.4996   72.3409  224.7088 H   0  0  0  0  0  0  0  0  0  0  0  0
  141.5786   70.7535  226.5472 H   0  0  0  0  0  0  0  0  0  0  0  0
  1  2  1  0
  2  3  2  0
  2  4  2  0
  2  5  1  0
  5  6  2  0
  6  7  1  0
  7  8  2  0
  8  9  1  0
  9 10  2  0
 10 11  1  0
 11 12  2  0
 12 13  1  0
 13 14  2  0
 14 15  1  0
 15 16  1  0
 15 17  2  0
 17 18  1  0
 18 19  2  0
 19 20  1  0
 20 21  2  0
 20 22  1  0
 22 23  1  0
 23 24  1  0
 24 25  1  0
 25 26  1  0
 26 27  1  0
 27 28  1  0
 28 29  1  0
  8 30  1  0
 30 31  2  0
 31  5  1  0
 22 11  1  0
 29 24  1  0
 19 13  1  0
  1 32  1  0
  1 33  1  0
  6 34  1  0
  7 35  1  0
  9 36  1  0
 10 37  1  0
 14 38  1  0
 17 39  1  0
 18 40  1  0
 23 41  1  0
 23 42  1  0
 24 43  1  0
 25 44  1  0
 25 45  1  0
 26 46  1  0
 26 47  1  0
 27 48  1  0
 28 49  1  0
 28 50  1  0
 29 51  1  0
 29 52  1  0
 30 53  1  0
 31 54  1  0
M  END
>  <smiles>  (32) 
NS(=O)(=O)c1ccc(/C=C/c2nc3cc(Cl)ccc3c(=O)n2CC2CCNCC2)cc1

>  <score_type>  (32) 
oracle

>  <origin>  (32) 
autodockgpu

>  <m_score__min__energy>  (32) 
-10.359999999999999

>  <m_primary>  (32) 
energy

>  <rmsd>  (32) 
5.5004493079423415

>  <m_score__min__rmsd>  (32) 
5.5004493079423415

>  <meeko>  (32) 
{"free_energy": -10.32, "intermolecular_energy": -12.41, "internal_energy": -1.37, "cluster_size": 33, "cluster_id": 1, "rank_in_cluster": 2}

>  <energy>  (32) 
-8.66

>  <cluster_rmsd>  (32) 
0.95

>  <cluster>  (32) 
1

$$$$

     RDKit          3D

 54 57  0  0  0  0  0  0  0  0999 V2000
  146.3370   73.3890  218.5620 N   0  0  0  0  0  0  0  0  0  0  0  0
  145.5290   72.6930  219.8970 S   0  0  0  0  0  0  0  0  0  0  0  0
  145.2720   71.2160  219.7070 O   0  0  0  0  0  0  0  0  0  0  0  0
  146.3980   72.8290  221.1140 O   0  0  0  0  0  0  0  0  0  0  0  0
  144.0210   73.5130  220.2310 C   0  0  0  0  0  0  0  0  0  0  0  0
  143.7930   74.8260  219.8680 C   0  0  0  0  0  0  0  0  0  0  0  0
  142.5760   75.4090  220.1650 C   0  0  0  0  0  0  0  0  0  0  0  0
  141.5630   74.7340  220.8140 C   0  0  0  0  0  0  0  0  0  0  0  0
  140.2760   75.3250  221.1350 C   0  0  0  0  0  0  0  0  0  0  0  0
  140.1080   76.5560  221.5740 C   0  0  0  0  0  0  0  0  0  0  0  0
  140.7660   77.6880  220.9300 C   0  0  0  0  0  0  0  0  0  0  0  0
  140.7170   77.7090  219.5740 N   0  0  0  0  0  0  0  0  0  0  0  0
  141.2720   78.6790  218.8520 C   0  0  0  0  0  0  0  0  0  0  0  0
  141.1820   78.6350  217.4770 C   0  0  0  0  0  0  0  0  0  0  0  0
  141.7780   79.6710  216.7820 C   0  0  0  0  0  0  0  0  0  0  0  0
  141.6980   79.6720  215.0290 Cl  0  0  0  0  0  0  0  0  0  0  0  0
  142.4370   80.7110  217.4070 C   0  0  0  0  0  0  0  0  0  0  0  0
  142.4900   80.6960  218.7930 C   0  0  0  0  0  0  0  0  0  0  0  0
  141.9170   79.6910  219.5310 C   0  0  0  0  0  0  0  0  0  0  0  0
  141.9520   79.6470  220.9100 C   0  0  0  0  0  0  0  0  0  0  0  0
  142.5520   80.5880  221.4840 O   0  0  0  0  0  0  0  0  0  0  0  0
  141.3900   78.6650  221.6360 N   0  0  0  0  0  0  0  0  0  0  0  0
  141.3760   78.5750  223.0550 C   0  0  0  0  0  0  0  0  0  0  0  0
  140.3880   79.3990  223.7940 C   0  0  0  0  0  0  0  0  0  0  0  0
  140.6530   80.8880  223.6800 C   0  0  0  0  0  0  0  0  0  0  0  0
  139.9280   81.5740  222.5770 C   0  0  0  0  0  0  0  0  0  0  0  0
  138.5400   81.1640  222.4650 N   0  0  0  0  0  0  0  0  0  0  0  0
  138.4930   79.7230  222.2070 C   0  0  0  0  0  0  0  0  0  0  0  0
  138.9530   79.0700  223.4740 C   0  0  0  0  0  0  0  0  0  0  0  0
  141.8340   73.4170  221.1580 C   0  0  0  0  0  0  0  0  0  0  0  0
  143.0230   72.8250  220.8780 C   0  0  0  0  0  0  0  0  0  0  0  0
  147.1080   74.0150  218.9050 H   0  0  0  0  0  0  0  0  0  0  0  0
  145.6970   73.9770  218.0000 H   0  0  0  0  0  0  0  0  0  0  0  0
  144.5725   75.4018  219.3476 H   0  0  0  0  0  0  0  0  0  0  0  0
  142.4078   76.4557  219.8715 H   0  0  0  0  0  0  0  0  0  0  0  0
  139.3792   74.7019  221.0025 H   0  0  0  0  0  0  0  0  0  0  0  0
  139.4585   76.7339  222.4437 H   0  0  0  0  0  0  0  0  0  0  0  0
  140.6618   77.8162  216.9585 H   0  0  0  0  0  0  0  0  0  0  0  0
  142.9028   81.5215  216.8272 H   0  0  0  0  0  0  0  0  0  0  0  0
  143.0068   81.5141  219.3161 H   0  0  0  0  0  0  0  0  0  0  0  0
  141.1846   77.5233  223.3145 H   0  0  0  0  0  0  0  0  0  0  0  0
  142.3535   78.9723  223.3658 H   0  0  0  0  0  0  0  0  0  0  0  0
  140.5379   79.1201  224.8475 H   0  0  0  0  0  0  0  0  0  0  0  0
  140.3573   81.3606  224.6282 H   0  0  0  0  0  0  0  0  0  0  0  0
  141.7246   80.9927  223.4547 H   0  0  0  0  0  0  0  0  0  0  0  0
  139.9589   82.6584  222.7592 H   0  0  0  0  0  0  0  0  0  0  0  0
  140.4275   81.2995  221.6362 H   0  0  0  0  0  0  0  0  0  0  0  0
  138.1870   81.6190  221.5830 H   0  0  0  0  0  0  0  0  0  0  0  0
  137.4667   79.4099  221.9647 H   0  0  0  0  0  0  0  0  0  0  0  0
  139.1260   79.4424  221.3523 H   0  0  0  0  0  0  0  0  0  0  0  0
  138.3169   79.4157  224.3022 H   0  0  0  0  0  0  0  0  0  0  0  0
  138.8776   77.9808  223.3398 H   0  0  0  0  0  0  0  0  0  0  0  0
  141.0586   72.8329  221.6753 H   0  0  0  0  0  0  0  0  0  0  0  0
  143.1901   71.7787  221.1735 H   0  0  0  0  0  0  0  0  0  0  0  0
  1  2  1  0
  2  3  2  0
  2  4  2  0
  2  5  1  0
  5  6  2  0
  6  7  1  0
  7  8  2  0
  8  9  1  0
  9 10  2  0
 10 11  1  0
 11 12  2  0
 12 13  1  0
 13 14  2  0
 14 15  1  0
 15 16  1  0
 15 17  2  0
 17 18  1  0
 18 19  2  0
 19 20  1  0
 20 21  2  0
 20 22  1  0
 22 23  1  0
 23 24  1  0
 24 25  1  0
 25 26  1  0
 26 27  1  0
 27 28  1  0
 28 29  1  0
  8 30  1  0
 30 31  2  0
 31  5  1  0
 22 11  1  0
 29 24  1  0
 19 13  1  0
  1 32  1  0
  1 33  1  0
  6 34  1  0
  7 35  1  0
  9 36  1  0
 10 37  1  0
 14 38  1  0
 17 39  1  0
 18 40  1  0
 23 41  1  0
 23 42  1  0
 24 43  1  0
 25 44  1  0
 25 45  1  0
 26 46  1  0
 26 47  1  0
 27 48  1  0
 28 49  1  0
 28 50  1  0
 29 51  1  0
 29 52  1  0
 30 53  1  0
 31 54  1  0
M  END
>  <smiles>  (33) 
NS(=O)(=O)c1ccc(/C=C/c2nc3cc(Cl)ccc3c(=O)n2CC2CCNCC2)cc1

>  <score_type>  (33) 
oracle

>  <origin>  (33) 
autodockgpu

>  <m_score__min__energy>  (33) 
-10.359999999999999

>  <m_primary>  (33) 
energy

>  <rmsd>  (33) 
5.305899814557261

>  <m_score__min__rmsd>  (33) 
5.305899814557261

>  <meeko>  (33) 
{"free_energy": -7.66, "intermolecular_energy": -9.75, "internal_energy": -1.67, "cluster_size": 1, "cluster_id": 11, "rank_in_cluster": 1}

>  <energy>  (33) 
-8.61

>  <cluster_rmsd>  (33) 
1.7

>  <cluster>  (33) 
1

$$$$

     RDKit          3D

 54 57  0  0  0  0  0  0  0  0999 V2000
  146.1140   73.4040  218.4330 N   0  0  0  0  0  0  0  0  0  0  0  0
  145.4010   73.0370  219.9430 S   0  0  0  0  0  0  0  0  0  0  0  0
  145.0670   71.5690  220.0790 O   0  0  0  0  0  0  0  0  0  0  0  0
  146.3810   73.3620  221.0330 O   0  0  0  0  0  0  0  0  0  0  0  0
  143.9640   73.9930  220.2210 C   0  0  0  0  0  0  0  0  0  0  0  0
  143.8680   75.3180  219.8400 C   0  0  0  0  0  0  0  0  0  0  0  0
  142.7010   76.0120  220.0930 C   0  0  0  0  0  0  0  0  0  0  0  0
  141.6110   75.4390  220.7150 C   0  0  0  0  0  0  0  0  0  0  0  0
  140.3730   76.1480  220.9910 C   0  0  0  0  0  0  0  0  0  0  0  0
  139.8070   76.2270  222.1770 C   0  0  0  0  0  0  0  0  0  0  0  0
  139.1820   77.4620  222.6400 C   0  0  0  0  0  0  0  0  0  0  0  0
  137.8340   77.5350  222.4950 N   0  0  0  0  0  0  0  0  0  0  0  0
  137.1290   78.5980  222.8710 C   0  0  0  0  0  0  0  0  0  0  0  0
  135.7620   78.6010  222.6940 C   0  0  0  0  0  0  0  0  0  0  0  0
  135.0850   79.7340  223.1050 C   0  0  0  0  0  0  0  0  0  0  0  0
  133.3420   79.7990  222.9060 Cl  0  0  0  0  0  0  0  0  0  0  0  0
  135.7190   80.8230  223.6690 C   0  0  0  0  0  0  0  0  0  0  0  0
  137.0960   80.7550  223.8210 C   0  0  0  0  0  0  0  0  0  0  0  0
  137.8170   79.6560  223.4290 C   0  0  0  0  0  0  0  0  0  0  0  0
  139.1870   79.5570  223.5650 C   0  0  0  0  0  0  0  0  0  0  0  0
  139.7700   80.5450  224.0750 O   0  0  0  0  0  0  0  0  0  0  0  0
  139.8950   78.4800  223.1830 N   0  0  0  0  0  0  0  0  0  0  0  0
  141.3010   78.3130  223.3170 C   0  0  0  0  0  0  0  0  0  0  0  0
  142.1800   79.0200  222.3530 C   0  0  0  0  0  0  0  0  0  0  0  0
  141.4490   79.4730  221.1050 C   0  0  0  0  0  0  0  0  0  0  0  0
  140.9160   80.8610  221.1540 C   0  0  0  0  0  0  0  0  0  0  0  0
  141.8540   81.8120  221.7210 N   0  0  0  0  0  0  0  0  0  0  0  0
  142.1720   81.4020  223.0910 C   0  0  0  0  0  0  0  0  0  0  0  0
  142.9770   80.1460  222.9610 C   0  0  0  0  0  0  0  0  0  0  0  0
  141.7510   74.1070  221.0800 C   0  0  0  0  0  0  0  0  0  0  0  0
  142.8880   73.4070  220.8420 C   0  0  0  0  0  0  0  0  0  0  0  0
  147.0590   73.8360  218.5870 H   0  0  0  0  0  0  0  0  0  0  0  0
  145.5470   74.0920  217.9070 H   0  0  0  0  0  0  0  0  0  0  0  0
  144.7126   75.8149  219.3402 H   0  0  0  0  0  0  0  0  0  0  0  0
  142.6380   77.0663  219.7855 H   0  0  0  0  0  0  0  0  0  0  0  0
  139.8743   76.6536  220.1510 H   0  0  0  0  0  0  0  0  0  0  0  0
  139.8051   75.3438  222.8327 H   0  0  0  0  0  0  0  0  0  0  0  0
  135.2358   77.7442  222.2478 H   0  0  0  0  0  0  0  0  0  0  0  0
  135.1532   81.7115  223.9860 H   0  0  0  0  0  0  0  0  0  0  0  0
  137.6259   81.6083  224.2695 H   0  0  0  0  0  0  0  0  0  0  0  0
  141.5770   78.6569  224.3248 H   0  0  0  0  0  0  0  0  0  0  0  0
  141.4721   77.2455  223.1141 H   0  0  0  0  0  0  0  0  0  0  0  0
  142.9111   78.2577  222.0457 H   0  0  0  0  0  0  0  0  0  0  0  0
  142.1475   79.4060  220.2579 H   0  0  0  0  0  0  0  0  0  0  0  0
  140.5748   78.8128  221.0056 H   0  0  0  0  0  0  0  0  0  0  0  0
  140.6720   81.1785  220.1295 H   0  0  0  0  0  0  0  0  0  0  0  0
  140.0287   80.8485  221.8041 H   0  0  0  0  0  0  0  0  0  0  0  0
  141.3150   82.7120  221.8150 H   0  0  0  0  0  0  0  0  0  0  0  0
  142.7579   82.1823  223.5988 H   0  0  0  0  0  0  0  0  0  0  0  0
  141.2624   81.2415  223.6885 H   0  0  0  0  0  0  0  0  0  0  0  0
  143.8489   80.3485  222.3217 H   0  0  0  0  0  0  0  0  0  0  0  0
  143.2847   79.8357  223.9705 H   0  0  0  0  0  0  0  0  0  0  0  0
  140.9110   73.6020  221.5794 H   0  0  0  0  0  0  0  0  0  0  0  0
  142.9495   72.3531  221.1512 H   0  0  0  0  0  0  0  0  0  0  0  0
  1  2  1  0
  2  3  2  0
  2  4  2  0
  2  5  1  0
  5  6  2  0
  6  7  1  0
  7  8  2  0
  8  9  1  0
  9 10  2  0
 10 11  1  0
 11 12  2  0
 12 13  1  0
 13 14  2  0
 14 15  1  0
 15 16  1  0
 15 17  2  0
 17 18  1  0
 18 19  2  0
 19 20  1  0
 20 21  2  0
 20 22  1  0
 22 23  1  0
 23 24  1  0
 24 25  1  0
 25 26  1  0
 26 27  1  0
 27 28  1  0
 28 29  1  0
  8 30  1  0
 30 31  2  0
 31  5  1  0
 22 11  1  0
 29 24  1  0
 19 13  1  0
  1 32  1  0
  1 33  1  0
  6 34  1  0
  7 35  1  0
  9 36  1  0
 10 37  1  0
 14 38  1  0
 17 39  1  0
 18 40  1  0
 23 41  1  0
 23 42  1  0
 24 43  1  0
 25 44  1  0
 25 45  1  0
 26 46  1  0
 26 47  1  0
 27 48  1  0
 28 49  1  0
 28 50  1  0
 29 51  1  0
 29 52  1  0
 30 53  1  0
 31 54  1  0
M  END
>  <smiles>  (34) 
NS(=O)(=O)c1ccc(/C=C/c2nc3cc(Cl)ccc3c(=O)n2CC2CCNCC2)cc1

>  <score_type>  (34) 
oracle

>  <origin>  (34) 
autodockgpu

>  <m_score__min__energy>  (34) 
-10.359999999999999

>  <m_primary>  (34) 
energy

>  <rmsd>  (34) 
4.642738975750834

>  <m_score__min__rmsd>  (34) 
4.642738975750834

>  <meeko>  (34) 
{"free_energy": -8.25, "intermolecular_energy": -10.34, "internal_energy": -1.61, "cluster_size": 2, "cluster_id": 4, "rank_in_cluster": 1}

>  <energy>  (34) 
-8.28

>  <cluster_rmsd>  (34) 
0.0

>  <cluster>  (34) 
2

$$$$

     RDKit          3D

 54 57  0  0  0  0  0  0  0  0999 V2000
  139.8740   68.5670  228.1020 N   0  0  0  0  0  0  0  0  0  0  0  0
  140.2090   68.0610  226.5040 S   0  0  0  0  0  0  0  0  0  0  0  0
  141.5620   67.4000  226.3820 O   0  0  0  0  0  0  0  0  0  0  0  0
  139.1870   67.0390  226.0960 O   0  0  0  0  0  0  0  0  0  0  0  0
  140.1030   69.3930  225.3760 C   0  0  0  0  0  0  0  0  0  0  0  0
  140.8120   70.5670  225.5430 C   0  0  0  0  0  0  0  0  0  0  0  0
  140.6780   71.5770  224.6110 C   0  0  0  0  0  0  0  0  0  0  0  0
  139.8600   71.4700  223.5050 C   0  0  0  0  0  0  0  0  0  0  0  0
  139.7040   72.5180  222.5110 C   0  0  0  0  0  0  0  0  0  0  0  0
  140.6250   72.8570  221.6330 C   0  0  0  0  0  0  0  0  0  0  0  0
  140.9740   74.2540  221.3980 C   0  0  0  0  0  0  0  0  0  0  0  0
  140.2520   75.1700  222.0930 N   0  0  0  0  0  0  0  0  0  0  0  0
  140.4580   76.4800  221.9810 C   0  0  0  0  0  0  0  0  0  0  0  0
  139.6870   77.3520  222.7190 C   0  0  0  0  0  0  0  0  0  0  0  0
  139.9490   78.7000  222.5600 C   0  0  0  0  0  0  0  0  0  0  0  0
  139.0010   79.8610  223.4730 Cl  0  0  0  0  0  0  0  0  0  0  0  0
  140.9280   79.1780  221.7120 C   0  0  0  0  0  0  0  0  0  0  0  0
  141.6690   78.2480  220.9990 C   0  0  0  0  0  0  0  0  0  0  0  0
  141.4500   76.8980  221.1180 C   0  0  0  0  0  0  0  0  0  0  0  0
  142.1690   75.9470  220.4230 C   0  0  0  0  0  0  0  0  0  0  0  0
  143.0580   76.3750  219.6480 O   0  0  0  0  0  0  0  0  0  0  0  0
  141.9570   74.6250  220.5400 N   0  0  0  0  0  0  0  0  0  0  0  0
  142.6770   73.5990  219.8670 C   0  0  0  0  0  0  0  0  0  0  0  0
  144.0580   73.9010  219.4150 C   0  0  0  0  0  0  0  0  0  0  0  0
  145.0010   74.2160  220.5590 C   0  0  0  0  0  0  0  0  0  0  0  0
  145.7650   73.0540  221.0860 C   0  0  0  0  0  0  0  0  0  0  0  0
  146.2970   72.1990  220.0410 N   0  0  0  0  0  0  0  0  0  0  0  0
  145.1840   71.6830  219.2410 C   0  0  0  0  0  0  0  0  0  0  0  0
  144.6420   72.8620  218.4920 C   0  0  0  0  0  0  0  0  0  0  0  0
  139.1670   70.2740  223.3760 C   0  0  0  0  0  0  0  0  0  0  0  0
  139.2830   69.2690  224.2800 C   0  0  0  0  0  0  0  0  0  0  0  0
  139.8200   67.7290  228.7320 H   0  0  0  0  0  0  0  0  0  0  0  0
  138.9600   69.0500  228.1600 H   0  0  0  0  0  0  0  0  0  0  0  0
  141.4767   70.6959  226.4099 H   0  0  0  0  0  0  0  0  0  0  0  0
  141.2477   72.5066  224.7565 H   0  0  0  0  0  0  0  0  0  0  0  0
  138.7506   73.0662  222.4904 H   0  0  0  0  0  0  0  0  0  0  0  0
  141.1423   72.0701  221.0646 H   0  0  0  0  0  0  0  0  0  0  0  0
  138.9020   76.9931  223.4008 H   0  0  0  0  0  0  0  0  0  0  0  0
  141.1133   80.2571  221.6059 H   0  0  0  0  0  0  0  0  0  0  0  0
  142.4562   78.6026  220.3174 H   0  0  0  0  0  0  0  0  0  0  0  0
  142.7367   72.7388  220.5500 H   0  0  0  0  0  0  0  0  0  0  0  0
  142.1133   73.4310  218.9375 H   0  0  0  0  0  0  0  0  0  0  0  0
  143.9521   74.8178  218.8165 H   0  0  0  0  0  0  0  0  0  0  0  0
  145.7234   74.9676  220.2079 H   0  0  0  0  0  0  0  0  0  0  0  0
  144.3695   74.5684  221.3879 H   0  0  0  0  0  0  0  0  0  0  0  0
  146.6035   73.4315  221.6897 H   0  0  0  0  0  0  0  0  0  0  0  0
  145.0676   72.4470  221.6819 H   0  0  0  0  0  0  0  0  0  0  0  0
  146.6950   71.3630  220.5410 H   0  0  0  0  0  0  0  0  0  0  0  0
  145.5400   70.9138  218.5398 H   0  0  0  0  0  0  0  0  0  0  0  0
  144.4143   71.2138  219.8714 H   0  0  0  0  0  0  0  0  0  0  0  0
  145.4577   73.3200  217.9133 H   0  0  0  0  0  0  0  0  0  0  0  0
  143.8373   72.5037  217.8332 H   0  0  0  0  0  0  0  0  0  0  0  0
  138.5011   70.1365  222.5113 H   0  0  0  0  0  0  0  0  0  0  0  0
  138.7118   68.3404  224.1335 H   0  0  0  0  0  0  0  0  0  0  0  0
  1  2  1  0
  2  3  2  0
  2  4  2  0
  2  5  1  0
  5  6  2  0
  6  7  1  0
  7  8  2  0
  8  9  1  0
  9 10  2  0
 10 11  1  0
 11 12  2  0
 12 13  1  0
 13 14  2  0
 14 15  1  0
 15 16  1  0
 15 17  2  0
 17 18  1  0
 18 19  2  0
 19 20  1  0
 20 21  2  0
 20 22  1  0
 22 23  1  0
 23 24  1  0
 24 25  1  0
 25 26  1  0
 26 27  1  0
 27 28  1  0
 28 29  1  0
  8 30  1  0
 30 31  2  0
 31  5  1  0
 22 11  1  0
 29 24  1  0
 19 13  1  0
  1 32  1  0
  1 33  1  0
  6 34  1  0
  7 35  1  0
  9 36  1  0
 10 37  1  0
 14 38  1  0
 17 39  1  0
 18 40  1  0
 23 41  1  0
 23 42  1  0
 24 43  1  0
 25 44  1  0
 25 45  1  0
 26 46  1  0
 26 47  1  0
 27 48  1  0
 28 49  1  0
 28 50  1  0
 29 51  1  0
 29 52  1  0
 30 53  1  0
 31 54  1  0
M  END
>  <smiles>  (35) 
NS(=O)(=O)c1ccc(/C=C/c2nc3cc(Cl)ccc3c(=O)n2CC2CCNCC2)cc1

>  <score_type>  (35) 
oracle

>  <origin>  (35) 
autodockgpu

>  <m_score__min__energy>  (35) 
-10.359999999999999

>  <m_primary>  (35) 
energy

>  <rmsd>  (35) 
4.997760911453476

>  <m_score__min__rmsd>  (35) 
4.997760911453476

>  <meeko>  (35) 
{"free_energy": -10.09, "intermolecular_energy": -12.18, "internal_energy": -0.99, "cluster_size": 33, "cluster_id": 1, "rank_in_cluster": 7}

>  <energy>  (35) 
-8.12

>  <cluster_rmsd>  (35) 
0.48

>  <cluster>  (35) 
2

$$$$

     RDKit          3D

 54 57  0  0  0  0  0  0  0  0999 V2000
  141.0580   67.7390  227.6150 N   0  0  0  0  0  0  0  0  0  0  0  0
  140.4010   69.3070  227.7970 S   0  0  0  0  0  0  0  0  0  0  0  0
  139.0550   69.2890  228.4840 O   0  0  0  0  0  0  0  0  0  0  0  0
  141.3200   70.1190  228.6620 O   0  0  0  0  0  0  0  0  0  0  0  0
  140.2630   70.1250  226.2580 C   0  0  0  0  0  0  0  0  0  0  0  0
  141.2270   70.9980  225.7920 C   0  0  0  0  0  0  0  0  0  0  0  0
  141.0500   71.6090  224.5650 C   0  0  0  0  0  0  0  0  0  0  0  0
  139.9430   71.3870  223.7730 C   0  0  0  0  0  0  0  0  0  0  0  0
  139.7360   72.0170  222.4800 C   0  0  0  0  0  0  0  0  0  0  0  0
  140.6800   72.2030  221.5810 C   0  0  0  0  0  0  0  0  0  0  0  0
  141.1130   73.5430  221.1990 C   0  0  0  0  0  0  0  0  0  0  0  0
  140.7000   74.5520  222.0070 N   0  0  0  0  0  0  0  0  0  0  0  0
  141.0170   75.8250  221.7840 C   0  0  0  0  0  0  0  0  0  0  0  0
  140.5620   76.7970  222.6480 C   0  0  0  0  0  0  0  0  0  0  0  0
  140.9250   78.1000  222.3640 C   0  0  0  0  0  0  0  0  0  0  0  0
  140.3760   79.3850  223.4280 Cl  0  0  0  0  0  0  0  0  0  0  0  0
  141.7040   78.4410  221.2760 C   0  0  0  0  0  0  0  0  0  0  0  0
  142.1300   77.4150  220.4460 C   0  0  0  0  0  0  0  0  0  0  0  0
  141.7980   76.1040  220.6820 C   0  0  0  0  0  0  0  0  0  0  0  0
  142.2050   75.0600  219.8760 C   0  0  0  0  0  0  0  0  0  0  0  0
  142.9110   75.3630  218.8840 O   0  0  0  0  0  0  0  0  0  0  0  0
  141.8820   73.7760  220.1060 N   0  0  0  0  0  0  0  0  0  0  0  0
  142.2880   72.6590  219.3250 C   0  0  0  0  0  0  0  0  0  0  0  0
  143.5580   71.9820  219.6850 C   0  0  0  0  0  0  0  0  0  0  0  0
  144.4460   71.7100  218.4860 C   0  0  0  0  0  0  0  0  0  0  0  0
  145.4550   72.7630  218.1960 C   0  0  0  0  0  0  0  0  0  0  0  0
  146.1270   73.2530  219.3850 N   0  0  0  0  0  0  0  0  0  0  0  0
  145.1270   73.8230  220.2910 C   0  0  0  0  0  0  0  0  0  0  0  0
  144.3230   72.6630  220.7910 C   0  0  0  0  0  0  0  0  0  0  0  0
  139.0010   70.5030  224.2790 C   0  0  0  0  0  0  0  0  0  0  0  0
  139.1540   69.8920  225.4810 C   0  0  0  0  0  0  0  0  0  0  0  0
  141.5440   67.6680  226.6870 H   0  0  0  0  0  0  0  0  0  0  0  0
  140.3160   67.0170  227.6250 H   0  0  0  0  0  0  0  0  0  0  0  0
  142.1260   71.2046  226.3912 H   0  0  0  0  0  0  0  0  0  0  0  0
  141.8249   72.3017  224.2049 H   0  0  0  0  0  0  0  0  0  0  0  0
  138.7207   72.3623  222.2353 H   0  0  0  0  0  0  0  0  0  0  0  0
  141.1523   71.3295  221.1078 H   0  0  0  0  0  0  0  0  0  0  0  0
  139.9405   76.5482  223.5208 H   0  0  0  0  0  0  0  0  0  0  0  0
  141.9765   79.4876  221.0752 H   0  0  0  0  0  0  0  0  0  0  0  0
  142.7525   77.6589  219.5725 H   0  0  0  0  0  0  0  0  0  0  0  0
  141.4873   71.9074  219.3882 H   0  0  0  0  0  0  0  0  0  0  0  0
  142.4733   73.0764  218.3243 H   0  0  0  0  0  0  0  0  0  0  0  0
  143.2412   71.0077  220.0854 H   0  0  0  0  0  0  0  0  0  0  0  0
  144.9810   70.7658  218.6655 H   0  0  0  0  0  0  0  0  0  0  0  0
  143.7787   71.6765  217.6122 H   0  0  0  0  0  0  0  0  0  0  0  0
  146.2105   72.3451  217.5144 H   0  0  0  0  0  0  0  0  0  0  0  0
  144.9205   73.6138  217.7483 H   0  0  0  0  0  0  0  0  0  0  0  0
  146.7090   74.0680  219.0600 H   0  0  0  0  0  0  0  0  0  0  0  0
  145.6188   74.3382  221.1293 H   0  0  0  0  0  0  0  0  0  0  0  0
  144.4946   74.5650  219.7816 H   0  0  0  0  0  0  0  0  0  0  0  0
  145.0039   71.9327  221.2526 H   0  0  0  0  0  0  0  0  0  0  0  0
  143.5937   73.0465  221.5198 H   0  0  0  0  0  0  0  0  0  0  0  0
  138.0995   70.2902  223.6857 H   0  0  0  0  0  0  0  0  0  0  0  0
  138.3780   69.1993  225.8389 H   0  0  0  0  0  0  0  0  0  0  0  0
  1  2  1  0
  2  3  2  0
  2  4  2  0
  2  5  1  0
  5  6  2  0
  6  7  1  0
  7  8  2  0
  8  9  1  0
  9 10  2  0
 10 11  1  0
 11 12  2  0
 12 13  1  0
 13 14  2  0
 14 15  1  0
 15 16  1  0
 15 17  2  0
 17 18  1  0
 18 19  2  0
 19 20  1  0
 20 21  2  0
 20 22  1  0
 22 23  1  0
 23 24  1  0
 24 25  1  0
 25 26  1  0
 26 27  1  0
 27 28  1  0
 28 29  1  0
  8 30  1  0
 30 31  2  0
 31  5  1  0
 22 11  1  0
 29 24  1  0
 19 13  1  0
  1 32  1  0
  1 33  1  0
  6 34  1  0
  7 35  1  0
  9 36  1  0
 10 37  1  0
 14 38  1  0
 17 39  1  0
 18 40  1  0
 23 41  1  0
 23 42  1  0
 24 43  1  0
 25 44  1  0
 25 45  1  0
 26 46  1  0
 26 47  1  0
 27 48  1  0
 28 49  1  0
 28 50  1  0
 29 51  1  0
 29 52  1  0
 30 53  1  0
 31 54  1  0
M  END
>  <smiles>  (36) 
NS(=O)(=O)c1ccc(/C=C/c2nc3cc(Cl)ccc3c(=O)n2CC2CCNCC2)cc1

>  <score_type>  (36) 
oracle

>  <origin>  (36) 
autodockgpu

>  <m_score__min__energy>  (36) 
-10.359999999999999

>  <m_primary>  (36) 
energy

>  <rmsd>  (36) 
5.675310672390676

>  <m_score__min__rmsd>  (36) 
5.675310672390676

>  <meeko>  (36) 
{"free_energy": -9.64, "intermolecular_energy": -11.73, "internal_energy": -1.44, "cluster_size": 33, "cluster_id": 1, "rank_in_cluster": 20}

>  <energy>  (36) 
-8.28

>  <cluster_rmsd>  (36) 
0.0

>  <cluster>  (36) 
3

$$$$

     RDKit          3D

 54 57  0  0  0  0  0  0  0  0999 V2000
  133.3940   72.6020  227.2490 N   0  0  0  0  0  0  0  0  0  0  0  0
  132.9620   74.0830  226.5130 S   0  0  0  0  0  0  0  0  0  0  0  0
  131.6140   74.0160  225.8340 O   0  0  0  0  0  0  0  0  0  0  0  0
  132.8620   75.1400  227.5760 O   0  0  0  0  0  0  0  0  0  0  0  0
  134.1730   74.6040  225.3640 C   0  0  0  0  0  0  0  0  0  0  0  0
  134.4740   75.9360  225.1540 C   0  0  0  0  0  0  0  0  0  0  0  0
  135.4430   76.2720  224.2280 C   0  0  0  0  0  0  0  0  0  0  0  0
  136.1340   75.3310  223.4930 C   0  0  0  0  0  0  0  0  0  0  0  0
  137.1560   75.6610  222.5150 C   0  0  0  0  0  0  0  0  0  0  0  0
  138.1840   76.4500  222.7490 C   0  0  0  0  0  0  0  0  0  0  0  0
  139.4410   76.2950  222.0240 C   0  0  0  0  0  0  0  0  0  0  0  0
  139.9400   75.0340  221.9660 N   0  0  0  0  0  0  0  0  0  0  0  0
  141.0760   74.7400  221.3390 C   0  0  0  0  0  0  0  0  0  0  0  0
  141.5220   73.4360  221.3210 C   0  0  0  0  0  0  0  0  0  0  0  0
  142.7080   73.1950  220.6540 C   0  0  0  0  0  0  0  0  0  0  0  0
  143.3290   71.5530  220.5940 Cl  0  0  0  0  0  0  0  0  0  0  0  0
  143.4330   74.1900  220.0280 C   0  0  0  0  0  0  0  0  0  0  0  0
  142.9290   75.4810  220.0830 C   0  0  0  0  0  0  0  0  0  0  0  0
  141.7560   75.7760  220.7320 C   0  0  0  0  0  0  0  0  0  0  0  0
  141.2280   77.0490  220.8060 C   0  0  0  0  0  0  0  0  0  0  0  0
  141.8830   77.9590  220.2420 O   0  0  0  0  0  0  0  0  0  0  0  0
  140.0790   77.3400  221.4400 N   0  0  0  0  0  0  0  0  0  0  0  0
  139.4770   78.6250  221.5320 C   0  0  0  0  0  0  0  0  0  0  0  0
  140.0400   79.5900  222.5080 C   0  0  0  0  0  0  0  0  0  0  0  0
  140.9990   78.9470  223.4910 C   0  0  0  0  0  0  0  0  0  0  0  0
  142.4320   78.9920  223.0960 C   0  0  0  0  0  0  0  0  0  0  0  0
  142.8380   80.2800  222.5630 N   0  0  0  0  0  0  0  0  0  0  0  0
  142.0320   80.5730  221.3760 C   0  0  0  0  0  0  0  0  0  0  0  0
  140.6430   80.8190  221.8780 C   0  0  0  0  0  0  0  0  0  0  0  0
  135.7990   74.0060  223.7360 C   0  0  0  0  0  0  0  0  0  0  0  0
  134.8510   73.6530  224.6400 C   0  0  0  0  0  0  0  0  0  0  0  0
  133.0260   71.8040  226.6740 H   0  0  0  0  0  0  0  0  0  0  0  0
  132.9760   72.5150  228.1920 H   0  0  0  0  0  0  0  0  0  0  0  0
  133.9480   76.7205  225.7179 H   0  0  0  0  0  0  0  0  0  0  0  0
  135.6734   77.3359  224.0700 H   0  0  0  0  0  0  0  0  0  0  0  0
  137.0650   75.2219  221.5105 H   0  0  0  0  0  0  0  0  0  0  0  0
  138.0934   77.2423  223.5066 H   0  0  0  0  0  0  0  0  0  0  0  0
  140.9617   72.6273  221.8131 H   0  0  0  0  0  0  0  0  0  0  0  0
  144.3749   73.9669  219.5054 H   0  0  0  0  0  0  0  0  0  0  0  0
  143.4859   76.2926  219.5919 H   0  0  0  0  0  0  0  0  0  0  0  0
  139.5439   79.0895  220.5371 H   0  0  0  0  0  0  0  0  0  0  0  0
  138.4593   78.4258  221.8987 H   0  0  0  0  0  0  0  0  0  0  0  0
  139.1666   79.9364  223.0800 H   0  0  0  0  0  0  0  0  0  0  0  0
  140.8952   79.4643  224.4562 H   0  0  0  0  0  0  0  0  0  0  0  0
  140.7262   77.8822  223.5329 H   0  0  0  0  0  0  0  0  0  0  0  0
  143.0459   78.7708  223.9816 H   0  0  0  0  0  0  0  0  0  0  0  0
  142.5748   78.2483  222.2982 H   0  0  0  0  0  0  0  0  0  0  0  0
  143.8190   80.1370  222.2100 H   0  0  0  0  0  0  0  0  0  0  0  0
  142.4174   81.4658  220.8619 H   0  0  0  0  0  0  0  0  0  0  0  0
  142.0607   79.7452  220.6522 H   0  0  0  0  0  0  0  0  0  0  0  0
  140.6746   81.6227  222.6284 H   0  0  0  0  0  0  0  0  0  0  0  0
  140.0175   81.0993  221.0177 H   0  0  0  0  0  0  0  0  0  0  0  0
  136.3200   73.2152  223.1764 H   0  0  0  0  0  0  0  0  0  0  0  0
  134.6214   72.5886  224.7959 H   0  0  0  0  0  0  0  0  0  0  0  0
  1  2  1  0
  2  3  2  0
  2  4  2  0
  2  5  1  0
  5  6  2  0
  6  7  1  0
  7  8  2  0
  8  9  1  0
  9 10  2  0
 10 11  1  0
 11 12  2  0
 12 13  1  0
 13 14  2  0
 14 15  1  0
 15 16  1  0
 15 17  2  0
 17 18  1  0
 18 19  2  0
 19 20  1  0
 20 21  2  0
 20 22  1  0
 22 23  1  0
 23 24  1  0
 24 25  1  0
 25 26  1  0
 26 27  1  0
 27 28  1  0
 28 29  1  0
  8 30  1  0
 30 31  2  0
 31  5  1  0
 22 11  1  0
 29 24  1  0
 19 13  1  0
  1 32  1  0
  1 33  1  0
  6 34  1  0
  7 35  1  0
  9 36  1  0
 10 37  1  0
 14 38  1  0
 17 39  1  0
 18 40  1  0
 23 41  1  0
 23 42  1  0
 24 43  1  0
 25 44  1  0
 25 45  1  0
 26 46  1  0
 26 47  1  0
 27 48  1  0
 28 49  1  0
 28 50  1  0
 29 51  1  0
 29 52  1  0
 30 53  1  0
 31 54  1  0
M  END
>  <smiles>  (37) 
NS(=O)(=O)c1ccc(/C=C/c2nc3cc(Cl)ccc3c(=O)n2CC2CCNCC2)cc1

>  <score_type>  (37) 
oracle

>  <origin>  (37) 
autodockgpu

>  <m_score__min__energy>  (37) 
-10.359999999999999

>  <m_primary>  (37) 
energy

>  <rmsd>  (37) 
6.823032347478458

>  <m_score__min__rmsd>  (37) 
6.823032347478458

>  <meeko>  (37) 
{"free_energy": -8.28, "intermolecular_energy": -10.37, "internal_energy": -1.33, "cluster_size": 2, "cluster_id": 2, "rank_in_cluster": 1}

>  <energy>  (37) 
-7.95

>  <cluster_rmsd>  (37) 
2.0

>  <cluster>  (37) 
3

$$$$

     RDKit          3D

 54 57  0  0  0  0  0  0  0  0999 V2000
  139.0600   67.0340  226.5290 N   0  0  0  0  0  0  0  0  0  0  0  0
  139.8920   68.4510  226.9980 S   0  0  0  0  0  0  0  0  0  0  0  0
  139.2040   69.1720  228.1340 O   0  0  0  0  0  0  0  0  0  0  0  0
  141.2590   68.0710  227.4890 O   0  0  0  0  0  0  0  0  0  0  0  0
  140.1010   69.5460  225.6500 C   0  0  0  0  0  0  0  0  0  0  0  0
  140.7640   70.7520  225.7680 C   0  0  0  0  0  0  0  0  0  0  0  0
  140.8900   71.5660  224.6590 C   0  0  0  0  0  0  0  0  0  0  0  0
  140.3800   71.2290  223.4230 C   0  0  0  0  0  0  0  0  0  0  0  0
  140.5010   72.0680  222.2430 C   0  0  0  0  0  0  0  0  0  0  0  0
  139.7820   73.1490  222.0190 C   0  0  0  0  0  0  0  0  0  0  0  0
  140.3920   74.3750  221.5150 C   0  0  0  0  0  0  0  0  0  0  0  0
  140.2720   75.4680  222.3120 N   0  0  0  0  0  0  0  0  0  0  0  0
  140.7770   76.6540  221.9840 C   0  0  0  0  0  0  0  0  0  0  0  0
  140.6170   77.7190  222.8430 C   0  0  0  0  0  0  0  0  0  0  0  0
  141.1650   78.9250  222.4470 C   0  0  0  0  0  0  0  0  0  0  0  0
  140.9950   80.3200  223.4980 Cl  0  0  0  0  0  0  0  0  0  0  0  0
  141.8440   79.0840  221.2550 C   0  0  0  0  0  0  0  0  0  0  0  0
  141.9710   77.9720  220.4360 C   0  0  0  0  0  0  0  0  0  0  0  0
  141.4450   76.7520  220.7810 C   0  0  0  0  0  0  0  0  0  0  0  0
  141.5530   75.6260  219.9890 C   0  0  0  0  0  0  0  0  0  0  0  0
  142.1670   75.7650  218.9030 O   0  0  0  0  0  0  0  0  0  0  0  0
  141.0410   74.4300  220.3250 N   0  0  0  0  0  0  0  0  0  0  0  0
  141.1380   73.2340  219.5620 C   0  0  0  0  0  0  0  0  0  0  0  0
  142.3780   72.4290  219.6840 C   0  0  0  0  0  0  0  0  0  0  0  0
  143.1380   72.3090  218.3770 C   0  0  0  0  0  0  0  0  0  0  0  0
  144.1970   73.3320  218.1670 C   0  0  0  0  0  0  0  0  0  0  0  0
  145.0030   73.5710  219.3500 N   0  0  0  0  0  0  0  0  0  0  0  0
  144.1290   74.0410  220.4280 C   0  0  0  0  0  0  0  0  0  0  0  0
  143.2840   72.8640  220.8080 C   0  0  0  0  0  0  0  0  0  0  0  0
  139.7220   70.0090  223.3490 C   0  0  0  0  0  0  0  0  0  0  0  0
  139.5860   69.1940  224.4260 C   0  0  0  0  0  0  0  0  0  0  0  0
  139.3670   66.2310  227.1320 H   0  0  0  0  0  0  0  0  0  0  0  0
  139.2760   66.7780  225.5500 H   0  0  0  0  0  0  0  0  0  0  0  0
  141.1873   71.0611  226.7351 H   0  0  0  0  0  0  0  0  0  0  0  0
  141.4198   72.5240  224.7665 H   0  0  0  0  0  0  0  0  0  0  0  0
  141.2441   71.7809  221.4844 H   0  0  0  0  0  0  0  0  0  0  0  0
  138.7000   73.1269  222.2159 H   0  0  0  0  0  0  0  0  0  0  0  0
  140.0796   77.6150  223.7972 H   0  0  0  0  0  0  0  0  0  0  0  0
  142.2684   80.0567  220.9658 H   0  0  0  0  0  0  0  0  0  0  0  0
  142.5092   78.0706  219.4817 H   0  0  0  0  0  0  0  0  0  0  0  0
  140.2982   72.5881  219.8580 H   0  0  0  0  0  0  0  0  0  0  0  0
  141.1330   73.5742  218.5159 H   0  0  0  0  0  0  0  0  0  0  0  0
  142.0220   71.4227  219.9497 H   0  0  0  0  0  0  0  0  0  0  0  0
  143.6121   71.3168  218.3483 H   0  0  0  0  0  0  0  0  0  0  0  0
  142.3988   72.4645  217.5773 H   0  0  0  0  0  0  0  0  0  0  0  0
  144.8578   72.9900  217.3569 H   0  0  0  0  0  0  0  0  0  0  0  0
  143.6934   74.2777  217.9178 H   0  0  0  0  0  0  0  0  0  0  0  0
  145.6160   74.3920  219.1080 H   0  0  0  0  0  0  0  0  0  0  0  0
  144.7273   74.3770  221.2877 H   0  0  0  0  0  0  0  0  0  0  0  0
  143.5143   74.8955  220.1085 H   0  0  0  0  0  0  0  0  0  0  0  0
  143.9437   72.0257  221.0763 H   0  0  0  0  0  0  0  0  0  0  0  0
  142.6511   73.1617  221.6570 H   0  0  0  0  0  0  0  0  0  0  0  0
  139.2965   69.6921  222.3854 H   0  0  0  0  0  0  0  0  0  0  0  0
  139.0551   68.2368  224.3170 H   0  0  0  0  0  0  0  0  0  0  0  0
  1  2  1  0
  2  3  2  0
  2  4  2  0
  2  5  1  0
  5  6  2  0
  6  7  1  0
  7  8  2  0
  8  9  1  0
  9 10  2  0
 10 11  1  0
 11 12  2  0
 12 13  1  0
 13 14  2  0
 14 15  1  0
 15 16  1  0
 15 17  2  0
 17 18  1  0
 18 19  2  0
 19 20  1  0
 20 21  2  0
 20 22  1  0
 22 23  1  0
 23 24  1  0
 24 25  1  0
 25 26  1  0
 26 27  1  0
 27 28  1  0
 28 29  1  0
  8 30  1  0
 30 31  2  0
 31  5  1  0
 22 11  1  0
 29 24  1  0
 19 13  1  0
  1 32  1  0
  1 33  1  0
  6 34  1  0
  7 35  1  0
  9 36  1  0
 10 37  1  0
 14 38  1  0
 17 39  1  0
 18 40  1  0
 23 41  1  0
 23 42  1  0
 24 43  1  0
 25 44  1  0
 25 45  1  0
 26 46  1  0
 26 47  1  0
 27 48  1  0
 28 49  1  0
 28 50  1  0
 29 51  1  0
 29 52  1  0
 30 53  1  0
 31 54  1  0
M  END
>  <smiles>  (38) 
NS(=O)(=O)c1ccc(/C=C/c2nc3cc(Cl)ccc3c(=O)n2CC2CCNCC2)cc1

>  <score_type>  (38) 
oracle

>  <origin>  (38) 
autodockgpu

>  <m_score__min__energy>  (38) 
-10.359999999999999

>  <m_primary>  (38) 
energy

>  <rmsd>  (38) 
4.813844495407277

>  <m_score__min__rmsd>  (38) 
4.813844495407277

>  <meeko>  (38) 
{"free_energy": -8.8, "intermolecular_energy": -10.89, "internal_energy": -1.28, "cluster_size": 33, "cluster_id": 1, "rank_in_cluster": 31}

>  <energy>  (38) 
-7.44

>  <cluster_rmsd>  (38) 
0.66

>  <cluster>  (38) 
3

$$$$

     RDKit          3D

 54 57  0  0  0  0  0  0  0  0999 V2000
  139.0840   66.9960  226.5630 N   0  0  0  0  0  0  0  0  0  0  0  0
  140.2040   68.2660  226.7940 S   0  0  0  0  0  0  0  0  0  0  0  0
  140.0300   68.9500  228.1290 O   0  0  0  0  0  0  0  0  0  0  0  0
  141.5930   67.6960  226.7760 O   0  0  0  0  0  0  0  0  0  0  0  0
  140.1020   69.4500  225.5100 C   0  0  0  0  0  0  0  0  0  0  0  0
  139.5730   69.1560  224.2690 C   0  0  0  0  0  0  0  0  0  0  0  0
  139.5250   70.1420  223.3030 C   0  0  0  0  0  0  0  0  0  0  0  0
  139.9860   71.4240  223.5200 C   0  0  0  0  0  0  0  0  0  0  0  0
  139.9460   72.4770  222.5200 C   0  0  0  0  0  0  0  0  0  0  0  0
  140.8610   72.6590  221.5900 C   0  0  0  0  0  0  0  0  0  0  0  0
  141.2320   73.9960  221.1410 C   0  0  0  0  0  0  0  0  0  0  0  0
  140.8340   75.0210  221.9360 N   0  0  0  0  0  0  0  0  0  0  0  0
  141.1000   76.2940  221.6550 C   0  0  0  0  0  0  0  0  0  0  0  0
  140.6640   77.2820  222.5090 C   0  0  0  0  0  0  0  0  0  0  0  0
  140.9730   78.5840  222.1630 C   0  0  0  0  0  0  0  0  0  0  0  0
  140.4440   79.8890  223.2110 Cl  0  0  0  0  0  0  0  0  0  0  0  0
  141.6820   78.9080  221.0230 C   0  0  0  0  0  0  0  0  0  0  0  0
  142.0930   77.8660  220.2060 C   0  0  0  0  0  0  0  0  0  0  0  0
  141.8120   76.5560  220.5030 C   0  0  0  0  0  0  0  0  0  0  0  0
  142.2060   75.4960  219.7110 C   0  0  0  0  0  0  0  0  0  0  0  0
  142.8490   75.7840  218.6720 O   0  0  0  0  0  0  0  0  0  0  0  0
  141.9340   74.2120  220.0000 N   0  0  0  0  0  0  0  0  0  0  0  0
  142.3300   73.0800  219.2360 C   0  0  0  0  0  0  0  0  0  0  0  0
  143.5370   72.3350  219.6710 C   0  0  0  0  0  0  0  0  0  0  0  0
  144.4330   71.9320  218.5160 C   0  0  0  0  0  0  0  0  0  0  0  0
  145.5250   72.8910  218.2010 C   0  0  0  0  0  0  0  0  0  0  0  0
  146.2000   73.3960  219.3820 N   0  0  0  0  0  0  0  0  0  0  0  0
  145.2210   74.0880  220.2240 C   0  0  0  0  0  0  0  0  0  0  0  0
  144.3210   73.0180  220.7610 C   0  0  0  0  0  0  0  0  0  0  0  0
  140.5100   71.6750  224.7810 C   0  0  0  0  0  0  0  0  0  0  0  0
  140.5670   70.7210  225.7440 C   0  0  0  0  0  0  0  0  0  0  0  0
  138.1440   67.3960  226.3210 H   0  0  0  0  0  0  0  0  0  0  0  0
  138.9630   66.4400  227.4280 H   0  0  0  0  0  0  0  0  0  0  0  0
  139.1936   68.1466  224.0518 H   0  0  0  0  0  0  0  0  0  0  0  0
  139.1011   69.8945  222.3186 H   0  0  0  0  0  0  0  0  0  0  0  0
  139.0924   73.1705  222.5409 H   0  0  0  0  0  0  0  0  0  0  0  0
  141.3556   71.7842  221.1427 H   0  0  0  0  0  0  0  0  0  0  0  0
  140.0974   77.0467  223.4220 H   0  0  0  0  0  0  0  0  0  0  0  0
  141.9121   79.9541  220.7725 H   0  0  0  0  0  0  0  0  0  0  0  0
  142.6612   78.0961  219.2926 H   0  0  0  0  0  0  0  0  0  0  0  0
  141.4886   72.3714  219.2406 H   0  0  0  0  0  0  0  0  0  0  0  0
  142.6007   73.4925  218.2528 H   0  0  0  0  0  0  0  0  0  0  0  0
  143.1381   71.4110  220.1149 H   0  0  0  0  0  0  0  0  0  0  0  0
  144.8911   70.9627  218.7621 H   0  0  0  0  0  0  0  0  0  0  0  0
  143.7884   71.8981  217.6253 H   0  0  0  0  0  0  0  0  0  0  0  0
  146.2651   72.3820  217.5660 H   0  0  0  0  0  0  0  0  0  0  0  0
  145.0673   73.7523  217.6924 H   0  0  0  0  0  0  0  0  0  0  0  0
  146.8490   74.1470  219.0310 H   0  0  0  0  0  0  0  0  0  0  0  0
  145.7266   74.6132  221.0478 H   0  0  0  0  0  0  0  0  0  0  0  0
  144.6592   74.8442  219.6561 H   0  0  0  0  0  0  0  0  0  0  0  0
  144.9342   72.2669  221.2804 H   0  0  0  0  0  0  0  0  0  0  0  0
  143.6037   73.4924  221.4469 H   0  0  0  0  0  0  0  0  0  0  0  0
  140.8919   72.6815  225.0070 H   0  0  0  0  0  0  0  0  0  0  0  0
  140.9923   70.9693  226.7276 H   0  0  0  0  0  0  0  0  0  0  0  0
  1  2  1  0
  2  3  2  0
  2  4  2  0
  2  5  1  0
  5  6  2  0
  6  7  1  0
  7  8  2  0
  8  9  1  0
  9 10  2  0
 10 11  1  0
 11 12  2  0
 12 13  1  0
 13 14  2  0
 14 15  1  0
 15 16  1  0
 15 17  2  0
 17 18  1  0
 18 19  2  0
 19 20  1  0
 20 21  2  0
 20 22  1  0
 22 23  1  0
 23 24  1  0
 24 25  1  0
 25 26  1  0
 26 27  1  0
 27 28  1  0
 28 29  1  0
  8 30  1  0
 30 31  2  0
 31  5  1  0
 22 11  1  0
 29 24  1  0
 19 13  1  0
  1 32  1  0
  1 33  1  0
  6 34  1  0
  7 35  1  0
  9 36  1  0
 10 37  1  0
 14 38  1  0
 17 39  1  0
 18 40  1  0
 23 41  1  0
 23 42  1  0
 24 43  1  0
 25 44  1  0
 25 45  1  0
 26 46  1  0
 26 47  1  0
 27 48  1  0
 28 49  1  0
 28 50  1  0
 29 51  1  0
 29 52  1  0
 30 53  1  0
 31 54  1  0
M  END
>  <smiles>  (39) 
NS(=O)(=O)c1ccc(/C=C/c2nc3cc(Cl)ccc3c(=O)n2CC2CCNCC2)cc1

>  <score_type>  (39) 
oracle

>  <origin>  (39) 
autodockgpu

>  <m_score__min__energy>  (39) 
-10.359999999999999

>  <m_primary>  (39) 
energy

>  <rmsd>  (39) 
5.381025807993829

>  <m_score__min__rmsd>  (39) 
5.381025807993829

>  <meeko>  (39) 
{"free_energy": -9.81, "intermolecular_energy": -11.9, "internal_energy": -1.38, "cluster_size": 33, "cluster_id": 1, "rank_in_cluster": 12}

>  <energy>  (39) 
-8.25

>  <cluster_rmsd>  (39) 
0.0

>  <cluster>  (39) 
4

$$$$

     RDKit          3D

 54 57  0  0  0  0  0  0  0  0999 V2000
  140.5490   67.3980  227.2430 N   0  0  0  0  0  0  0  0  0  0  0  0
  140.2850   69.0500  227.5930 S   0  0  0  0  0  0  0  0  0  0  0  0
  139.0690   69.2650  228.4650 O   0  0  0  0  0  0  0  0  0  0  0  0
  141.4650   69.5770  228.3560 O   0  0  0  0  0  0  0  0  0  0  0  0
  140.1330   69.9980  226.1310 C   0  0  0  0  0  0  0  0  0  0  0  0
  140.8780   71.1400  225.9060 C   0  0  0  0  0  0  0  0  0  0  0  0
  140.7050   71.8380  224.7270 C   0  0  0  0  0  0  0  0  0  0  0  0
  139.8120   71.4470  223.7500 C   0  0  0  0  0  0  0  0  0  0  0  0
  139.6140   72.1640  222.5030 C   0  0  0  0  0  0  0  0  0  0  0  0
  140.5360   72.3180  221.5760 C   0  0  0  0  0  0  0  0  0  0  0  0
  141.0200   73.6420  221.1980 C   0  0  0  0  0  0  0  0  0  0  0  0
  140.6450   74.6640  222.0090 N   0  0  0  0  0  0  0  0  0  0  0  0
  141.0110   75.9240  221.7900 C   0  0  0  0  0  0  0  0  0  0  0  0
  140.5920   76.9110  222.6560 C   0  0  0  0  0  0  0  0  0  0  0  0
  141.0050   78.2000  222.3760 C   0  0  0  0  0  0  0  0  0  0  0  0
  140.5040   79.5010  223.4430 Cl  0  0  0  0  0  0  0  0  0  0  0  0
  141.7980   78.5140  221.2900 C   0  0  0  0  0  0  0  0  0  0  0  0
  142.1860   77.4740  220.4580 C   0  0  0  0  0  0  0  0  0  0  0  0
  141.8030   76.1770  220.6900 C   0  0  0  0  0  0  0  0  0  0  0  0
  142.1710   75.1200  219.8810 C   0  0  0  0  0  0  0  0  0  0  0  0
  142.8900   75.3990  218.8900 O   0  0  0  0  0  0  0  0  0  0  0  0
  141.7990   73.8490  220.1070 N   0  0  0  0  0  0  0  0  0  0  0  0
  142.1630   72.7190  219.3230 C   0  0  0  0  0  0  0  0  0  0  0  0
  143.3970   71.9840  219.6920 C   0  0  0  0  0  0  0  0  0  0  0  0
  144.2310   71.5830  218.4910 C   0  0  0  0  0  0  0  0  0  0  0  0
  145.2960   72.5490  218.1110 C   0  0  0  0  0  0  0  0  0  0  0  0
  146.0320   73.0640  219.2510 N   0  0  0  0  0  0  0  0  0  0  0  0
  145.0960   73.7520  220.1440 C   0  0  0  0  0  0  0  0  0  0  0  0
  144.2360   72.6780  220.7350 C   0  0  0  0  0  0  0  0  0  0  0  0
  139.0860   70.2940  224.0180 C   0  0  0  0  0  0  0  0  0  0  0  0
  139.2400   69.5930  225.1690 C   0  0  0  0  0  0  0  0  0  0  0  0
  139.6280   66.8930  227.2170 H   0  0  0  0  0  0  0  0  0  0  0  0
  141.1230   66.9460  227.9760 H   0  0  0  0  0  0  0  0  0  0  0  0
  141.6010   71.4892  226.6579 H   0  0  0  0  0  0  0  0  0  0  0  0
  141.3048   72.7447  224.5593 H   0  0  0  0  0  0  0  0  0  0  0  0
  138.6250   72.6094  222.3202 H   0  0  0  0  0  0  0  0  0  0  0  0
  140.9503   71.4302  221.0758 H   0  0  0  0  0  0  0  0  0  0  0  0
  139.9599   76.6840  223.5272 H   0  0  0  0  0  0  0  0  0  0  0  0
  142.1103   79.5500  221.0920 H   0  0  0  0  0  0  0  0  0  0  0  0
  142.8195   77.6957  219.5865 H   0  0  0  0  0  0  0  0  0  0  0  0
  141.3288   72.0037  219.3731 H   0  0  0  0  0  0  0  0  0  0  0  0
  142.3775   73.1333  218.3268 H   0  0  0  0  0  0  0  0  0  0  0  0
  143.0297   71.0585  220.1594 H   0  0  0  0  0  0  0  0  0  0  0  0
  144.7101   70.6187  218.7156 H   0  0  0  0  0  0  0  0  0  0  0  0
  143.5381   71.5400  217.6377 H   0  0  0  0  0  0  0  0  0  0  0  0
  146.0033   72.0429  217.4375 H   0  0  0  0  0  0  0  0  0  0  0  0
  144.8041   73.4045  217.6251 H   0  0  0  0  0  0  0  0  0  0  0  0
  146.6550   73.8190  218.8610 H   0  0  0  0  0  0  0  0  0  0  0  0
  145.6428   74.2847  220.9360 H   0  0  0  0  0  0  0  0  0  0  0  0
  144.4971   74.5011  219.6053 H   0  0  0  0  0  0  0  0  0  0  0  0
  144.8830   71.9337  221.2223 H   0  0  0  0  0  0  0  0  0  0  0  0
  143.5547   73.1498  221.4583 H   0  0  0  0  0  0  0  0  0  0  0  0
  138.3613   69.9370  223.2715 H   0  0  0  0  0  0  0  0  0  0  0  0
  138.6403   68.6859  225.3347 H   0  0  0  0  0  0  0  0  0  0  0  0
  1  2  1  0
  2  3  2  0
  2  4  2  0
  2  5  1  0
  5  6  2  0
  6  7  1  0
  7  8  2  0
  8  9  1  0
  9 10  2  0
 10 11  1  0
 11 12  2  0
 12 13  1  0
 13 14  2  0
 14 15  1  0
 15 16  1  0
 15 17  2  0
 17 18  1  0
 18 19  2  0
 19 20  1  0
 20 21  2  0
 20 22  1  0
 22 23  1  0
 23 24  1  0
 24 25  1  0
 25 26  1  0
 26 27  1  0
 27 28  1  0
 28 29  1  0
  8 30  1  0
 30 31  2  0
 31  5  1  0
 22 11  1  0
 29 24  1  0
 19 13  1  0
  1 32  1  0
  1 33  1  0
  6 34  1  0
  7 35  1  0
  9 36  1  0
 10 37  1  0
 14 38  1  0
 17 39  1  0
 18 40  1  0
 23 41  1  0
 23 42  1  0
 24 43  1  0
 25 44  1  0
 25 45  1  0
 26 46  1  0
 26 47  1  0
 27 48  1  0
 28 49  1  0
 28 50  1  0
 29 51  1  0
 29 52  1  0
 30 53  1  0
 31 54  1  0
M  END
>  <smiles>  (40) 
NS(=O)(=O)c1ccc(/C=C/c2nc3cc(Cl)ccc3c(=O)n2CC2CCNCC2)cc1

>  <score_type>  (40) 
oracle

>  <origin>  (40) 
autodockgpu

>  <m_score__min__energy>  (40) 
-10.359999999999999

>  <m_primary>  (40) 
energy

>  <rmsd>  (40) 
5.625703879261091

>  <m_score__min__rmsd>  (40) 
5.625703879261091

>  <meeko>  (40) 
{"free_energy": -10.21, "intermolecular_energy": -12.3, "internal_energy": -1.42, "cluster_size": 33, "cluster_id": 1, "rank_in_cluster": 3}

>  <energy>  (40) 
-7.66

>  <cluster_rmsd>  (40) 
1.2

>  <cluster>  (40) 
4

$$$$

     RDKit          3D

 54 57  0  0  0  0  0  0  0  0999 V2000
  139.3030   66.9790  226.8460 N   0  0  0  0  0  0  0  0  0  0  0  0
  140.3870   68.2920  226.9950 S   0  0  0  0  0  0  0  0  0  0  0  0
  140.2420   69.0100  228.3170 O   0  0  0  0  0  0  0  0  0  0  0  0
  141.7930   67.7680  226.9370 O   0  0  0  0  0  0  0  0  0  0  0  0
  140.1940   69.4330  225.6840 C   0  0  0  0  0  0  0  0  0  0  0  0
  139.4640   69.1430  224.5480 C   0  0  0  0  0  0  0  0  0  0  0  0
  139.3540   70.0950  223.5530 C   0  0  0  0  0  0  0  0  0  0  0  0
  139.9470   71.3370  223.6380 C   0  0  0  0  0  0  0  0  0  0  0  0
  139.8460   72.3540  222.6050 C   0  0  0  0  0  0  0  0  0  0  0  0
  140.7140   72.5130  221.6280 C   0  0  0  0  0  0  0  0  0  0  0  0
  141.1500   73.8400  221.2070 C   0  0  0  0  0  0  0  0  0  0  0  0
  140.7530   74.8720  221.9950 N   0  0  0  0  0  0  0  0  0  0  0  0
  141.0740   76.1370  221.7370 C   0  0  0  0  0  0  0  0  0  0  0  0
  140.6360   77.1330  222.5820 C   0  0  0  0  0  0  0  0  0  0  0  0
  141.0040   78.4260  222.2610 C   0  0  0  0  0  0  0  0  0  0  0  0
  140.4760   79.7400  223.2990 Cl  0  0  0  0  0  0  0  0  0  0  0  0
  141.7700   78.7350  221.1550 C   0  0  0  0  0  0  0  0  0  0  0  0
  142.1790   77.6860  220.3460 C   0  0  0  0  0  0  0  0  0  0  0  0
  141.8420   76.3840  220.6180 C   0  0  0  0  0  0  0  0  0  0  0  0
  142.2330   75.3180  219.8330 C   0  0  0  0  0  0  0  0  0  0  0  0
  142.9280   75.5920  218.8240 O   0  0  0  0  0  0  0  0  0  0  0  0
  141.9050   74.0420  220.0990 N   0  0  0  0  0  0  0  0  0  0  0  0
  142.2940   72.9030  219.3400 C   0  0  0  0  0  0  0  0  0  0  0  0
  143.5340   72.1920  219.7390 C   0  0  0  0  0  0  0  0  0  0  0  0
  144.4110   71.8230  218.5590 C   0  0  0  0  0  0  0  0  0  0  0  0
  145.4650   72.8170  218.2220 C   0  0  0  0  0  0  0  0  0  0  0  0
  146.1550   73.3350  219.3890 N   0  0  0  0  0  0  0  0  0  0  0  0
  145.1780   73.9920  220.2610 C   0  0  0  0  0  0  0  0  0  0  0  0
  144.3250   72.8920  220.8140 C   0  0  0  0  0  0  0  0  0  0  0  0
  140.6700   71.5860  224.7970 C   0  0  0  0  0  0  0  0  0  0  0  0
  140.7910   70.6670  225.7870 C   0  0  0  0  0  0  0  0  0  0  0  0
  138.7050   66.9180  227.7070 H   0  0  0  0  0  0  0  0  0  0  0  0
  139.8100   66.0810  226.7650 H   0  0  0  0  0  0  0  0  0  0  0  0
  138.9751   68.1639  224.4366 H   0  0  0  0  0  0  0  0  0  0  0  0
  138.7682   69.8518  222.6543 H   0  0  0  0  0  0  0  0  0  0  0  0
  138.9852   73.0379  222.6419 H   0  0  0  0  0  0  0  0  0  0  0  0
  141.1191   71.6264  221.1183 H   0  0  0  0  0  0  0  0  0  0  0  0
  140.0237   76.9103  223.4683 H   0  0  0  0  0  0  0  0  0  0  0  0
  142.0456   79.7746  220.9242 H   0  0  0  0  0  0  0  0  0  0  0  0
  142.7922   77.9041  219.4592 H   0  0  0  0  0  0  0  0  0  0  0  0
  141.4691   72.1772  219.3926 H   0  0  0  0  0  0  0  0  0  0  0  0
  142.5151   73.3016  218.3389 H   0  0  0  0  0  0  0  0  0  0  0  0
  143.1750   71.2536  220.1867 H   0  0  0  0  0  0  0  0  0  0  0  0
  144.9046   70.8667  218.7869 H   0  0  0  0  0  0  0  0  0  0  0  0
  143.7447   71.7742  217.6851 H   0  0  0  0  0  0  0  0  0  0  0  0
  146.2033   72.3347  217.5645 H   0  0  0  0  0  0  0  0  0  0  0  0
  144.9684   73.6670  217.7312 H   0  0  0  0  0  0  0  0  0  0  0  0
  146.7720   74.1080  219.0260 H   0  0  0  0  0  0  0  0  0  0  0  0
  145.6890   74.5273  221.0749 H   0  0  0  0  0  0  0  0  0  0  0  0
  144.5789   74.7343  219.7131 H   0  0  0  0  0  0  0  0  0  0  0  0
  144.9738   72.1567  221.3125 H   0  0  0  0  0  0  0  0  0  0  0  0
  143.6118   73.3400  221.5215 H   0  0  0  0  0  0  0  0  0  0  0  0
  141.1618   72.5627  224.9163 H   0  0  0  0  0  0  0  0  0  0  0  0
  141.3756   70.9127  226.6858 H   0  0  0  0  0  0  0  0  0  0  0  0
  1  2  1  0
  2  3  2  0
  2  4  2  0
  2  5  1  0
  5  6  2  0
  6  7  1  0
  7  8  2  0
  8  9  1  0
  9 10  2  0
 10 11  1  0
 11 12  2  0
 12 13  1  0
 13 14  2  0
 14 15  1  0
 15 16  1  0
 15 17  2  0
 17 18  1  0
 18 19  2  0
 19 20  1  0
 20 21  2  0
 20 22  1  0
 22 23  1  0
 23 24  1  0
 24 25  1  0
 25 26  1  0
 26 27  1  0
 27 28  1  0
 28 29  1  0
  8 30  1  0
 30 31  2  0
 31  5  1  0
 22 11  1  0
 29 24  1  0
 19 13  1  0
  1 32  1  0
  1 33  1  0
  6 34  1  0
  7 35  1  0
  9 36  1  0
 10 37  1  0
 14 38  1  0
 17 39  1  0
 18 40  1  0
 23 41  1  0
 23 42  1  0
 24 43  1  0
 25 44  1  0
 25 45  1  0
 26 46  1  0
 26 47  1  0
 27 48  1  0
 28 49  1  0
 28 50  1  0
 29 51  1  0
 29 52  1  0
 30 53  1  0
 31 54  1  0
M  END
>  <smiles>  (41) 
NS(=O)(=O)c1ccc(/C=C/c2nc3cc(Cl)ccc3c(=O)n2CC2CCNCC2)cc1

>  <score_type>  (41) 
oracle

>  <origin>  (41) 
autodockgpu

>  <m_score__min__energy>  (41) 
-10.359999999999999

>  <m_primary>  (41) 
energy

>  <rmsd>  (41) 
5.489572047564788

>  <m_score__min__rmsd>  (41) 
5.489572047564788

>  <meeko>  (41) 
{"free_energy": -10.21, "intermolecular_energy": -12.3, "internal_energy": -1.39, "cluster_size": 33, "cluster_id": 1, "rank_in_cluster": 4}

>  <energy>  (41) 
-8.11

>  <cluster_rmsd>  (41) 
0.0

>  <cluster>  (41) 
5

$$$$

     RDKit          3D

 54 57  0  0  0  0  0  0  0  0999 V2000
  132.8550   73.3840  227.5040 N   0  0  0  0  0  0  0  0  0  0  0  0
  132.6270   74.8160  226.5990 S   0  0  0  0  0  0  0  0  0  0  0  0
  131.3120   74.8230  225.8550 O   0  0  0  0  0  0  0  0  0  0  0  0
  132.6000   75.9850  227.5410 O   0  0  0  0  0  0  0  0  0  0  0  0
  133.9390   75.0760  225.4720 C   0  0  0  0  0  0  0  0  0  0  0  0
  134.7070   74.0410  224.9740 C   0  0  0  0  0  0  0  0  0  0  0  0
  135.7280   74.3220  224.0860 C   0  0  0  0  0  0  0  0  0  0  0  0
  136.0230   75.6030  223.6680 C   0  0  0  0  0  0  0  0  0  0  0  0
  137.0900   75.9230  222.7360 C   0  0  0  0  0  0  0  0  0  0  0  0
  138.2430   76.4610  223.0780 C   0  0  0  0  0  0  0  0  0  0  0  0
  139.4260   76.3200  222.2360 C   0  0  0  0  0  0  0  0  0  0  0  0
  139.9340   75.0660  222.1320 N   0  0  0  0  0  0  0  0  0  0  0  0
  141.0090   74.7850  221.3990 C   0  0  0  0  0  0  0  0  0  0  0  0
  141.4680   73.4880  221.3400 C   0  0  0  0  0  0  0  0  0  0  0  0
  142.5880   73.2600  220.5620 C   0  0  0  0  0  0  0  0  0  0  0  0
  143.2220   71.6270  220.4460 Cl  0  0  0  0  0  0  0  0  0  0  0  0
  143.2350   74.2630  219.8680 C   0  0  0  0  0  0  0  0  0  0  0  0
  142.7210   75.5470  219.9700 C   0  0  0  0  0  0  0  0  0  0  0  0
  141.6130   75.8280  220.7280 C   0  0  0  0  0  0  0  0  0  0  0  0
  141.0770   77.0940  220.8510 C   0  0  0  0  0  0  0  0  0  0  0  0
  141.6620   78.0110  220.2250 O   0  0  0  0  0  0  0  0  0  0  0  0
  139.9910   77.3720  221.5920 N   0  0  0  0  0  0  0  0  0  0  0  0
  139.3830   78.6490  221.7390 C   0  0  0  0  0  0  0  0  0  0  0  0
  140.0160   79.6180  222.6670 C   0  0  0  0  0  0  0  0  0  0  0  0
  141.0630   78.9850  223.5620 C   0  0  0  0  0  0  0  0  0  0  0  0
  142.4560   79.0490  223.0460 C   0  0  0  0  0  0  0  0  0  0  0  0
  142.7990   80.3440  222.4850 N   0  0  0  0  0  0  0  0  0  0  0  0
  141.8910   80.6300  221.3720 C   0  0  0  0  0  0  0  0  0  0  0  0
  140.5470   80.8570  221.9920 C   0  0  0  0  0  0  0  0  0  0  0  0
  135.2260   76.6120  224.1930 C   0  0  0  0  0  0  0  0  0  0  0  0
  134.2190   76.3590  225.0660 C   0  0  0  0  0  0  0  0  0  0  0  0
  132.4040   72.5780  227.0050 H   0  0  0  0  0  0  0  0  0  0  0  0
  132.4080   73.4540  228.4350 H   0  0  0  0  0  0  0  0  0  0  0  0
  134.5078   73.0037  225.2812 H   0  0  0  0  0  0  0  0  0  0  0  0
  136.3310   73.4888  223.6960 H   0  0  0  0  0  0  0  0  0  0  0  0
  136.9241   75.7009  221.6715 H   0  0  0  0  0  0  0  0  0  0  0  0
  138.3151   77.0282  224.0178 H   0  0  0  0  0  0  0  0  0  0  0  0
  140.9683   72.6736  221.8849 H   0  0  0  0  0  0  0  0  0  0  0  0
  144.1249   74.0516  219.2570 H   0  0  0  0  0  0  0  0  0  0  0  0
  143.2169   76.3648  219.4266 H   0  0  0  0  0  0  0  0  0  0  0  0
  139.3592   79.1167  220.7437 H   0  0  0  0  0  0  0  0  0  0  0  0
  138.4023   78.4366  222.1897 H   0  0  0  0  0  0  0  0  0  0  0  0
  139.1909   79.9513  223.3136 H   0  0  0  0  0  0  0  0  0  0  0  0
  141.0358   79.4987  224.5343 H   0  0  0  0  0  0  0  0  0  0  0  0
  140.8080   77.9168  223.6237 H   0  0  0  0  0  0  0  0  0  0  0  0
  143.1462   78.8331  223.8749 H   0  0  0  0  0  0  0  0  0  0  0  0
  142.5391   78.3093  222.2361 H   0  0  0  0  0  0  0  0  0  0  0  0
  143.7480   80.2150  222.0490 H   0  0  0  0  0  0  0  0  0  0  0  0
  142.2200   81.5290  220.8302 H   0  0  0  0  0  0  0  0  0  0  0  0
  141.8681   79.8048  220.6451 H   0  0  0  0  0  0  0  0  0  0  0  0
  140.6325   81.6591  222.7399 H   0  0  0  0  0  0  0  0  0  0  0  0
  139.8464   81.1317  221.1897 H   0  0  0  0  0  0  0  0  0  0  0  0
  135.4179   77.6520  223.8905 H   0  0  0  0  0  0  0  0  0  0  0  0
  133.6172   77.1935  225.4550 H   0  0  0  0  0  0  0  0  0  0  0  0
  1  2  1  0
  2  3  2  0
  2  4  2  0
  2  5  1  0
  5  6  2  0
  6  7  1  0
  7  8  2  0
  8  9  1  0
  9 10  2  0
 10 11  1  0
 11 12  2  0
 12 13  1  0
 13 14  2  0
 14 15  1  0
 15 16  1  0
 15 17  2  0
 17 18  1  0
 18 19  2  0
 19 20  1  0
 20 21  2  0
 20 22  1  0
 22 23  1  0
 23 24  1  0
 24 25  1  0
 25 26  1  0
 26 27  1  0
 27 28  1  0
 28 29  1  0
  8 30  1  0
 30 31  2  0
 31  5  1  0
 22 11  1  0
 29 24  1  0
 19 13  1  0
  1 32  1  0
  1 33  1  0
  6 34  1  0
  7 35  1  0
  9 36  1  0
 10 37  1  0
 14 38  1  0
 17 39  1  0
 18 40  1  0
 23 41  1  0
 23 42  1  0
 24 43  1  0
 25 44  1  0
 25 45  1  0
 26 46  1  0
 26 47  1  0
 27 48  1  0
 28 49  1  0
 28 50  1  0
 29 51  1  0
 29 52  1  0
 30 53  1  0
 31 54  1  0
M  END
>  <smiles>  (42) 
NS(=O)(=O)c1ccc(/C=C/c2nc3cc(Cl)ccc3c(=O)n2CC2CCNCC2)cc1

>  <score_type>  (42) 
oracle

>  <origin>  (42) 
autodockgpu

>  <m_score__min__energy>  (42) 
-10.359999999999999

>  <m_primary>  (42) 
energy

>  <rmsd>  (42) 
6.787101679005723

>  <m_score__min__rmsd>  (42) 
6.787101679005723

>  <meeko>  (42) 
{"free_energy": -8.12, "intermolecular_energy": -10.21, "internal_energy": -1.34, "cluster_size": 2, "cluster_id": 2, "rank_in_cluster": 2}

>  <energy>  (42) 
-7.99

>  <cluster_rmsd>  (42) 
1.71

>  <cluster>  (42) 
5

$$$$

     RDKit          3D

 54 57  0  0  0  0  0  0  0  0999 V2000
  146.2990   73.5160  218.1970 N   0  0  0  0  0  0  0  0  0  0  0  0
  145.9210   72.9680  219.7710 S   0  0  0  0  0  0  0  0  0  0  0  0
  146.3080   71.5240  219.9860 O   0  0  0  0  0  0  0  0  0  0  0  0
  146.7000   73.7790  220.7660 O   0  0  0  0  0  0  0  0  0  0  0  0
  144.2230   73.1800  220.1310 C   0  0  0  0  0  0  0  0  0  0  0  0
  143.6010   74.4130  220.0830 C   0  0  0  0  0  0  0  0  0  0  0  0
  142.2550   74.5040  220.3810 C   0  0  0  0  0  0  0  0  0  0  0  0
  141.4910   73.4100  220.7280 C   0  0  0  0  0  0  0  0  0  0  0  0
  140.0750   73.4810  221.0450 C   0  0  0  0  0  0  0  0  0  0  0  0
  139.5550   74.2610  221.9700 C   0  0  0  0  0  0  0  0  0  0  0  0
  139.5280   75.7110  221.8140 C   0  0  0  0  0  0  0  0  0  0  0  0
  140.5040   76.3960  222.4640 N   0  0  0  0  0  0  0  0  0  0  0  0
  140.6060   77.7210  222.4130 C   0  0  0  0  0  0  0  0  0  0  0  0
  141.6230   78.3490  223.0980 C   0  0  0  0  0  0  0  0  0  0  0  0
  141.6770   79.7270  223.0060 C   0  0  0  0  0  0  0  0  0  0  0  0
  142.9500   80.5850  223.8560 Cl  0  0  0  0  0  0  0  0  0  0  0  0
  140.7690   80.4650  222.2710 C   0  0  0  0  0  0  0  0  0  0  0  0
  139.7700   79.7720  221.6050 C   0  0  0  0  0  0  0  0  0  0  0  0
  139.6710   78.4050  221.6630 C   0  0  0  0  0  0  0  0  0  0  0  0
  138.6890   77.6850  221.0120 C   0  0  0  0  0  0  0  0  0  0  0  0
  137.8590   78.3500  220.3450 O   0  0  0  0  0  0  0  0  0  0  0  0
  138.5910   76.3460  221.0670 N   0  0  0  0  0  0  0  0  0  0  0  0
  137.6160   75.5510  220.4030 C   0  0  0  0  0  0  0  0  0  0  0  0
  136.2700   75.4430  221.0170 C   0  0  0  0  0  0  0  0  0  0  0  0
  135.8720   74.0130  221.3290 C   0  0  0  0  0  0  0  0  0  0  0  0
  136.1920   73.5560  222.7070 C   0  0  0  0  0  0  0  0  0  0  0  0
  135.8720   74.5400  223.7240 N   0  0  0  0  0  0  0  0  0  0  0  0
  136.6430   75.7570  223.4630 C   0  0  0  0  0  0  0  0  0  0  0  0
  136.0660   76.3420  222.2110 C   0  0  0  0  0  0  0  0  0  0  0  0
  142.1550   72.1910  220.7630 C   0  0  0  0  0  0  0  0  0  0  0  0
  143.4770   72.0790  220.4750 C   0  0  0  0  0  0  0  0  0  0  0  0
  147.1860   74.0780  218.2240 H   0  0  0  0  0  0  0  0  0  0  0  0
  145.5580   74.1360  217.8270 H   0  0  0  0  0  0  0  0  0  0  0  0
  144.1717   75.3129  219.8103 H   0  0  0  0  0  0  0  0  0  0  0  0
  141.7722   75.4915  220.3396 H   0  0  0  0  0  0  0  0  0  0  0  0
  139.3896   72.8387  220.4727 H   0  0  0  0  0  0  0  0  0  0  0  0
  139.1321   73.8094  222.8795 H   0  0  0  0  0  0  0  0  0  0  0  0
  142.3564   77.7813  223.6895 H   0  0  0  0  0  0  0  0  0  0  0  0
  140.8363   81.5616  222.2164 H   0  0  0  0  0  0  0  0  0  0  0  0
  139.0344   80.3353  221.0121 H   0  0  0  0  0  0  0  0  0  0  0  0
  137.4830   75.9708  219.3950 H   0  0  0  0  0  0  0  0  0  0  0  0
  138.0200   74.5287  220.4450 H   0  0  0  0  0  0  0  0  0  0  0  0
  135.5876   75.8098  220.2361 H   0  0  0  0  0  0  0  0  0  0  0  0
  134.7855   73.9222  221.1835 H   0  0  0  0  0  0  0  0  0  0  0  0
  136.4594   73.3765  220.6509 H   0  0  0  0  0  0  0  0  0  0  0  0
  135.6186   72.6403  222.9137 H   0  0  0  0  0  0  0  0  0  0  0  0
  137.2773   73.3823  222.7501 H   0  0  0  0  0  0  0  0  0  0  0  0
  136.2600   74.1480  224.6210 H   0  0  0  0  0  0  0  0  0  0  0  0
  136.5392   76.4636  224.2997 H   0  0  0  0  0  0  0  0  0  0  0  0
  137.7162   75.5419  223.3533 H   0  0  0  0  0  0  0  0  0  0  0  0
  134.9869   76.4979  222.3571 H   0  0  0  0  0  0  0  0  0  0  0  0
  136.5836   77.2919  222.0116 H   0  0  0  0  0  0  0  0  0  0  0  0
  141.5911   71.2860  221.0331 H   0  0  0  0  0  0  0  0  0  0  0  0
  143.9584   71.0909  220.5178 H   0  0  0  0  0  0  0  0  0  0  0  0
  1  2  1  0
  2  3  2  0
  2  4  2  0
  2  5  1  0
  5  6  2  0
  6  7  1  0
  7  8  2  0
  8  9  1  0
  9 10  2  0
 10 11  1  0
 11 12  2  0
 12 13  1  0
 13 14  2  0
 14 15  1  0
 15 16  1  0
 15 17  2  0
 17 18  1  0
 18 19  2  0
 19 20  1  0
 20 21  2  0
 20 22  1  0
 22 23  1  0
 23 24  1  0
 24 25  1  0
 25 26  1  0
 26 27  1  0
 27 28  1  0
 28 29  1  0
  8 30  1  0
 30 31  2  0
 31  5  1  0
 22 11  1  0
 29 24  1  0
 19 13  1  0
  1 32  1  0
  1 33  1  0
  6 34  1  0
  7 35  1  0
  9 36  1  0
 10 37  1  0
 14 38  1  0
 17 39  1  0
 18 40  1  0
 23 41  1  0
 23 42  1  0
 24 43  1  0
 25 44  1  0
 25 45  1  0
 26 46  1  0
 26 47  1  0
 27 48  1  0
 28 49  1  0
 28 50  1  0
 29 51  1  0
 29 52  1  0
 30 53  1  0
 31 54  1  0
M  END
>  <smiles>  (43) 
NS(=O)(=O)c1ccc(/C=C/c2nc3cc(Cl)ccc3c(=O)n2CC2CCNCC2)cc1

>  <score_type>  (43) 
oracle

>  <origin>  (43) 
autodockgpu

>  <m_score__min__energy>  (43) 
-10.359999999999999

>  <m_primary>  (43) 
energy

>  <rmsd>  (43) 
5.157433423831837

>  <m_score__min__rmsd>  (43) 
5.157433423831837

>  <meeko>  (43) 
{"free_energy": -7.96, "intermolecular_energy": -10.05, "internal_energy": -1.68, "cluster_size": 2, "cluster_id": 8, "rank_in_cluster": 1}

>  <energy>  (43) 
-8.07

>  <cluster_rmsd>  (43) 
0.0

>  <cluster>  (43) 
6

$$$$

     RDKit          3D

 54 57  0  0  0  0  0  0  0  0999 V2000
  139.1080   67.0230  226.6650 N   0  0  0  0  0  0  0  0  0  0  0  0
  139.9860   68.4550  226.9780 S   0  0  0  0  0  0  0  0  0  0  0  0
  139.4940   69.1720  228.2140 O   0  0  0  0  0  0  0  0  0  0  0  0
  141.4230   68.0970  227.2270 O   0  0  0  0  0  0  0  0  0  0  0  0
  139.9420   69.5450  225.6110 C   0  0  0  0  0  0  0  0  0  0  0  0
  139.1840   69.2930  224.4840 C   0  0  0  0  0  0  0  0  0  0  0  0
  139.1980   70.2000  223.4420 C   0  0  0  0  0  0  0  0  0  0  0  0
  139.9420   71.3610  223.4730 C   0  0  0  0  0  0  0  0  0  0  0  0
  139.9730   72.3290  222.3900 C   0  0  0  0  0  0  0  0  0  0  0  0
  141.0160   72.5530  221.6180 C   0  0  0  0  0  0  0  0  0  0  0  0
  141.3430   73.8960  221.1530 C   0  0  0  0  0  0  0  0  0  0  0  0
  140.9720   74.9140  221.9720 N   0  0  0  0  0  0  0  0  0  0  0  0
  141.2050   76.1910  221.6790 C   0  0  0  0  0  0  0  0  0  0  0  0
  140.8000   77.1710  222.5590 C   0  0  0  0  0  0  0  0  0  0  0  0
  141.0700   78.4780  222.2000 C   0  0  0  0  0  0  0  0  0  0  0  0
  140.5790   79.7730  223.2790 Cl  0  0  0  0  0  0  0  0  0  0  0  0
  141.7120   78.8150  221.0240 C   0  0  0  0  0  0  0  0  0  0  0  0
  142.0950   77.7810  220.1840 C   0  0  0  0  0  0  0  0  0  0  0  0
  141.8500   76.4660  220.4920 C   0  0  0  0  0  0  0  0  0  0  0  0
  142.2170   75.4140  219.6770 C   0  0  0  0  0  0  0  0  0  0  0  0
  142.7980   75.7130  218.6060 O   0  0  0  0  0  0  0  0  0  0  0  0
  141.9800   74.1250  219.9770 N   0  0  0  0  0  0  0  0  0  0  0  0
  142.3510   73.0010  219.1900 C   0  0  0  0  0  0  0  0  0  0  0  0
  143.5730   72.2540  219.5760 C   0  0  0  0  0  0  0  0  0  0  0  0
  144.4660   71.9270  218.3950 C   0  0  0  0  0  0  0  0  0  0  0  0
  145.5400   72.9190  218.1220 C   0  0  0  0  0  0  0  0  0  0  0  0
  146.2160   73.3730  219.3230 N   0  0  0  0  0  0  0  0  0  0  0  0
  145.2330   74.0030  220.2080 C   0  0  0  0  0  0  0  0  0  0  0  0
  144.3550   72.8920  220.6950 C   0  0  0  0  0  0  0  0  0  0  0  0
  140.6880   71.5740  224.6240 C   0  0  0  0  0  0  0  0  0  0  0  0
  140.6890   70.6970  225.6590 C   0  0  0  0  0  0  0  0  0  0  0  0
  139.6120   66.2030  227.0840 H   0  0  0  0  0  0  0  0  0  0  0  0
  139.0320   66.8440  225.6480 H   0  0  0  0  0  0  0  0  0  0  0  0
  138.5753   68.3792  224.4169 H   0  0  0  0  0  0  0  0  0  0  0  0
  138.5903   69.9873  222.5501 H   0  0  0  0  0  0  0  0  0  0  0  0
  139.0617   72.9156  222.2018 H   0  0  0  0  0  0  0  0  0  0  0  0
  141.6543   71.7091  221.3174 H   0  0  0  0  0  0  0  0  0  0  0  0
  140.2872   76.9252  223.5006 H   0  0  0  0  0  0  0  0  0  0  0  0
  141.9118   79.8650  220.7639 H   0  0  0  0  0  0  0  0  0  0  0  0
  142.6106   78.0214  219.2426 H   0  0  0  0  0  0  0  0  0  0  0  0
  141.5112   72.2910  219.2172 H   0  0  0  0  0  0  0  0  0  0  0  0
  142.5873   73.4231  218.2021 H   0  0  0  0  0  0  0  0  0  0  0  0
  143.1926   71.3013  219.9731 H   0  0  0  0  0  0  0  0  0  0  0  0
  144.9417   70.9539  218.5867 H   0  0  0  0  0  0  0  0  0  0  0  0
  143.8146   71.9293  217.5087 H   0  0  0  0  0  0  0  0  0  0  0  0
  146.2831   72.4558  217.4562 H   0  0  0  0  0  0  0  0  0  0  0  0
  145.0647   73.7978  217.6618 H   0  0  0  0  0  0  0  0  0  0  0  0
  146.8500   74.1520  219.0070 H   0  0  0  0  0  0  0  0  0  0  0  0
  145.7371   74.4925  221.0543 H   0  0  0  0  0  0  0  0  0  0  0  0
  144.6540   74.7783  219.6848 H   0  0  0  0  0  0  0  0  0  0  0  0
  144.9844   72.1249  221.1699 H   0  0  0  0  0  0  0  0  0  0  0  0
  143.6359   73.3179  221.4102 H   0  0  0  0  0  0  0  0  0  0  0  0
  141.2994   72.4853  224.6995 H   0  0  0  0  0  0  0  0  0  0  0  0
  141.2971   70.9115  226.5502 H   0  0  0  0  0  0  0  0  0  0  0  0
  1  2  1  0
  2  3  2  0
  2  4  2  0
  2  5  1  0
  5  6  2  0
  6  7  1  0
  7  8  2  0
  8  9  1  0
  9 10  2  0
 10 11  1  0
 11 12  2  0
 12 13  1  0
 13 14  2  0
 14 15  1  0
 15 16  1  0
 15 17  2  0
 17 18  1  0
 18 19  2  0
 19 20  1  0
 20 21  2  0
 20 22  1  0
 22 23  1  0
 23 24  1  0
 24 25  1  0
 25 26  1  0
 26 27  1  0
 27 28  1  0
 28 29  1  0
  8 30  1  0
 30 31  2  0
 31  5  1  0
 22 11  1  0
 29 24  1  0
 19 13  1  0
  1 32  1  0
  1 33  1  0
  6 34  1  0
  7 35  1  0
  9 36  1  0
 10 37  1  0
 14 38  1  0
 17 39  1  0
 18 40  1  0
 23 41  1  0
 23 42  1  0
 24 43  1  0
 25 44  1  0
 25 45  1  0
 26 46  1  0
 26 47  1  0
 27 48  1  0
 28 49  1  0
 28 50  1  0
 29 51  1  0
 29 52  1  0
 30 53  1  0
 31 54  1  0
M  END
>  <smiles>  (44) 
NS(=O)(=O)c1ccc(/C=C/c2nc3cc(Cl)ccc3c(=O)n2CC2CCNCC2)cc1

>  <score_type>  (44) 
oracle

>  <origin>  (44) 
autodockgpu

>  <m_score__min__energy>  (44) 
-10.359999999999999

>  <m_primary>  (44) 
energy

>  <rmsd>  (44) 
5.454670661054852

>  <m_score__min__rmsd>  (44) 
5.454670661054852

>  <meeko>  (44) 
{"free_energy": -9.9, "intermolecular_energy": -11.99, "internal_energy": -1.37, "cluster_size": 33, "cluster_id": 1, "rank_in_cluster": 10}

>  <energy>  (44) 
-7.97

>  <cluster_rmsd>  (44) 
0.0

>  <cluster>  (44) 
7

$$$$

     RDKit          3D

 54 57  0  0  0  0  0  0  0  0999 V2000
  146.7710   74.1120  220.1320 N   0  0  0  0  0  0  0  0  0  0  0  0
  145.7620   72.8840  219.5030 S   0  0  0  0  0  0  0  0  0  0  0  0
  145.7840   72.8400  217.9920 O   0  0  0  0  0  0  0  0  0  0  0  0
  146.2630   71.5530  219.9830 O   0  0  0  0  0  0  0  0  0  0  0  0
  144.1140   73.0620  220.0600 C   0  0  0  0  0  0  0  0  0  0  0  0
  143.6020   74.2700  220.4920 C   0  0  0  0  0  0  0  0  0  0  0  0
  142.2900   74.3350  220.9190 C   0  0  0  0  0  0  0  0  0  0  0  0
  141.4550   73.2370  220.9360 C   0  0  0  0  0  0  0  0  0  0  0  0
  140.0720   73.2810  221.3800 C   0  0  0  0  0  0  0  0  0  0  0  0
  139.5840   72.5650  222.3720 C   0  0  0  0  0  0  0  0  0  0  0  0
  139.4110   71.1220  222.2540 C   0  0  0  0  0  0  0  0  0  0  0  0
  139.3160   70.6370  220.9890 N   0  0  0  0  0  0  0  0  0  0  0  0
  139.1570   69.3430  220.7270 C   0  0  0  0  0  0  0  0  0  0  0  0
  139.0690   68.9230  219.4170 C   0  0  0  0  0  0  0  0  0  0  0  0
  138.9050   67.5660  219.2090 C   0  0  0  0  0  0  0  0  0  0  0  0
  138.7870   66.9690  217.5630 Cl  0  0  0  0  0  0  0  0  0  0  0  0
  138.8280   66.6540  220.2430 C   0  0  0  0  0  0  0  0  0  0  0  0
  138.9240   67.1410  221.5370 C   0  0  0  0  0  0  0  0  0  0  0  0
  139.0870   68.4780  221.8000 C   0  0  0  0  0  0  0  0  0  0  0  0
  139.1860   68.9960  223.0760 C   0  0  0  0  0  0  0  0  0  0  0  0
  139.1140   68.1720  224.0200 O   0  0  0  0  0  0  0  0  0  0  0  0
  139.3470   70.3050  223.3350 N   0  0  0  0  0  0  0  0  0  0  0  0
  139.4740   70.8920  224.6240 C   0  0  0  0  0  0  0  0  0  0  0  0
  140.7380   70.6700  225.3680 C   0  0  0  0  0  0  0  0  0  0  0  0
  141.1540   71.8660  226.2020 C   0  0  0  0  0  0  0  0  0  0  0  0
  140.6870   71.8450  227.6130 C   0  0  0  0  0  0  0  0  0  0  0  0
  140.8390   70.5470  228.2460 N   0  0  0  0  0  0  0  0  0  0  0  0
  140.0540   69.5630  227.4960 C   0  0  0  0  0  0  0  0  0  0  0  0
  140.7560   69.4010  226.1820 C   0  0  0  0  0  0  0  0  0  0  0  0
  142.0100   72.0440  220.4940 C   0  0  0  0  0  0  0  0  0  0  0  0
  143.2960   71.9580  220.0700 C   0  0  0  0  0  0  0  0  0  0  0  0
  146.1820   74.9220  220.4490 H   0  0  0  0  0  0  0  0  0  0  0  0
  147.4190   74.4730  219.4090 H   0  0  0  0  0  0  0  0  0  0  0  0
  144.2328   75.1712  220.4959 H   0  0  0  0  0  0  0  0  0  0  0  0
  141.8943   75.3031  221.2599 H   0  0  0  0  0  0  0  0  0  0  0  0
  139.3856   73.9588  220.8514 H   0  0  0  0  0  0  0  0  0  0  0  0
  139.3010   73.0663  223.3093 H   0  0  0  0  0  0  0  0  0  0  0  0
  139.1264   69.6326  218.5784 H   0  0  0  0  0  0  0  0  0  0  0  0
  138.6953   65.5798  220.0467 H   0  0  0  0  0  0  0  0  0  0  0  0
  138.8678   66.4347  222.3784 H   0  0  0  0  0  0  0  0  0  0  0  0
  139.3524   71.9785  224.5022 H   0  0  0  0  0  0  0  0  0  0  0  0
  138.7057   70.3911  225.2313 H   0  0  0  0  0  0  0  0  0  0  0  0
  141.4952   70.5405  224.5806 H   0  0  0  0  0  0  0  0  0  0  0  0
  142.2530   71.9116  226.2076 H   0  0  0  0  0  0  0  0  0  0  0  0
  140.6811   72.7431  225.7362 H   0  0  0  0  0  0  0  0  0  0  0  0
  141.2684   72.5832  228.1848 H   0  0  0  0  0  0  0  0  0  0  0  0
  139.6128   72.0816  227.6056 H   0  0  0  0  0  0  0  0  0  0  0  0
  140.3600   70.6360  229.1790 H   0  0  0  0  0  0  0  0  0  0  0  0
  140.0238   68.6048  228.0354 H   0  0  0  0  0  0  0  0  0  0  0  0
  139.0126   69.8910  227.3623 H   0  0  0  0  0  0  0  0  0  0  0  0
  141.8014   69.1161  226.3714 H   0  0  0  0  0  0  0  0  0  0  0  0
  140.2275   68.6244  225.6096 H   0  0  0  0  0  0  0  0  0  0  0  0
  141.3863   71.1379  220.4872 H   0  0  0  0  0  0  0  0  0  0  0  0
  143.6899   70.9892  219.7289 H   0  0  0  0  0  0  0  0  0  0  0  0
  1  2  1  0
  2  3  2  0
  2  4  2  0
  2  5  1  0
  5  6  2  0
  6  7  1  0
  7  8  2  0
  8  9  1  0
  9 10  2  0
 10 11  1  0
 11 12  2  0
 12 13  1  0
 13 14  2  0
 14 15  1  0
 15 16  1  0
 15 17  2  0
 17 18  1  0
 18 19  2  0
 19 20  1  0
 20 21  2  0
 20 22  1  0
 22 23  1  0
 23 24  1  0
 24 25  1  0
 25 26  1  0
 26 27  1  0
 27 28  1  0
 28 29  1  0
  8 30  1  0
 30 31  2  0
 31  5  1  0
 22 11  1  0
 29 24  1  0
 19 13  1  0
  1 32  1  0
  1 33  1  0
  6 34  1  0
  7 35  1  0
  9 36  1  0
 10 37  1  0
 14 38  1  0
 17 39  1  0
 18 40  1  0
 23 41  1  0
 23 42  1  0
 24 43  1  0
 25 44  1  0
 25 45  1  0
 26 46  1  0
 26 47  1  0
 27 48  1  0
 28 49  1  0
 28 50  1  0
 29 51  1  0
 29 52  1  0
 30 53  1  0
 31 54  1  0
M  END
>  <smiles>  (45) 
NS(=O)(=O)c1ccc(/C=C/c2nc3cc(Cl)ccc3c(=O)n2CC2CCNCC2)cc1

>  <score_type>  (45) 
oracle

>  <origin>  (45) 
autodockgpu

>  <m_score__min__energy>  (45) 
-10.359999999999999

>  <m_primary>  (45) 
energy

>  <rmsd>  (45) 
12.058134511810378

>  <m_score__min__rmsd>  (45) 
12.058134511810378

>  <meeko>  (45) 
{"free_energy": -7.69, "intermolecular_energy": -9.78, "internal_energy": -1.44, "cluster_size": 1, "cluster_id": 10, "rank_in_cluster": 1}

>  <energy>  (45) 
-7.96

>  <cluster_rmsd>  (45) 
0.0

>  <cluster>  (45) 
8

$$$$

     RDKit          3D

 54 57  0  0  0  0  0  0  0  0999 V2000
  145.7470   73.2240  221.2810 N   0  0  0  0  0  0  0  0  0  0  0  0
  144.9980   73.1420  219.7470 S   0  0  0  0  0  0  0  0  0  0  0  0
  146.0010   73.1680  218.6170 O   0  0  0  0  0  0  0  0  0  0  0  0
  144.2560   71.8420  219.6390 O   0  0  0  0  0  0  0  0  0  0  0  0
  143.8380   74.4330  219.5320 C   0  0  0  0  0  0  0  0  0  0  0  0
  143.7510   75.1670  218.3650 C   0  0  0  0  0  0  0  0  0  0  0  0
  142.8090   76.1730  218.2660 C   0  0  0  0  0  0  0  0  0  0  0  0
  141.9390   76.4840  219.2900 C   0  0  0  0  0  0  0  0  0  0  0  0
  140.9400   77.5360  219.2100 C   0  0  0  0  0  0  0  0  0  0  0  0
  140.7980   78.4990  220.0970 C   0  0  0  0  0  0  0  0  0  0  0  0
  141.0040   79.8990  219.7380 C   0  0  0  0  0  0  0  0  0  0  0  0
  141.8320   80.1260  218.6870 N   0  0  0  0  0  0  0  0  0  0  0  0
  142.1130   81.3490  218.2460 C   0  0  0  0  0  0  0  0  0  0  0  0
  142.9630   81.5040  217.1720 C   0  0  0  0  0  0  0  0  0  0  0  0
  143.2150   82.7990  216.7610 C   0  0  0  0  0  0  0  0  0  0  0  0
  144.2890   83.0620  215.3980 Cl  0  0  0  0  0  0  0  0  0  0  0  0
  142.6570   83.9030  217.3760 C   0  0  0  0  0  0  0  0  0  0  0  0
  141.8100   83.6780  218.4500 C   0  0  0  0  0  0  0  0  0  0  0  0
  141.5270   82.4130  218.9000 C   0  0  0  0  0  0  0  0  0  0  0  0
  140.6880   82.1560  219.9660 C   0  0  0  0  0  0  0  0  0  0  0  0
  140.1810   83.1540  220.5310 O   0  0  0  0  0  0  0  0  0  0  0  0
  140.4080   80.9170  220.4070 N   0  0  0  0  0  0  0  0  0  0  0  0
  139.5390   80.5900  221.4840 C   0  0  0  0  0  0  0  0  0  0  0  0
  140.1140   80.5370  222.8510 C   0  0  0  0  0  0  0  0  0  0  0  0
  140.1570   79.1330  223.4220 C   0  0  0  0  0  0  0  0  0  0  0  0
  141.4310   78.4000  223.1980 C   0  0  0  0  0  0  0  0  0  0  0  0
  142.6090   79.2160  223.4300 N   0  0  0  0  0  0  0  0  0  0  0  0
  142.5780   80.3590  222.5140 C   0  0  0  0  0  0  0  0  0  0  0  0
  141.4490   81.2240  222.9820 C   0  0  0  0  0  0  0  0  0  0  0  0
  142.0610   75.7210  220.4440 C   0  0  0  0  0  0  0  0  0  0  0  0
  142.9790   74.7290  220.5620 C   0  0  0  0  0  0  0  0  0  0  0  0
  145.9710   72.2530  221.6150 H   0  0  0  0  0  0  0  0  0  0  0  0
  145.1170   73.6480  221.9850 H   0  0  0  0  0  0  0  0  0  0  0  0
  144.4252   74.9527  217.5226 H   0  0  0  0  0  0  0  0  0  0  0  0
  142.7505   76.7500  217.3313 H   0  0  0  0  0  0  0  0  0  0  0  0
  140.2551   77.5275  218.3493 H   0  0  0  0  0  0  0  0  0  0  0  0
  140.5184   78.2432  221.1297 H   0  0  0  0  0  0  0  0  0  0  0  0
  143.4183   80.6394  216.6669 H   0  0  0  0  0  0  0  0  0  0  0  0
  142.8766   84.9226  217.0265 H   0  0  0  0  0  0  0  0  0  0  0  0
  141.3509   84.5396  218.9568 H   0  0  0  0  0  0  0  0  0  0  0  0
  138.7356   81.3413  221.4959 H   0  0  0  0  0  0  0  0  0  0  0  0
  139.2230   79.5566  221.2783 H   0  0  0  0  0  0  0  0  0  0  0  0
  139.4091   81.1184  223.4635 H   0  0  0  0  0  0  0  0  0  0  0  0
  139.9892   79.2011  224.5070 H   0  0  0  0  0  0  0  0  0  0  0  0
  139.3786   78.5632  222.8933 H   0  0  0  0  0  0  0  0  0  0  0  0
  141.4630   77.5380  223.8805 H   0  0  0  0  0  0  0  0  0  0  0  0
  141.4495   78.0921  222.1421 H   0  0  0  0  0  0  0  0  0  0  0  0
  143.4220   78.6260  223.1170 H   0  0  0  0  0  0  0  0  0  0  0  0
  143.5281   80.9116  222.5582 H   0  0  0  0  0  0  0  0  0  0  0  0
  142.4384   80.0391  221.4708 H   0  0  0  0  0  0  0  0  0  0  0  0
  141.6135   81.4801  224.0390 H   0  0  0  0  0  0  0  0  0  0  0  0
  141.4290   82.1245  222.3505 H   0  0  0  0  0  0  0  0  0  0  0  0
  141.3906   75.9280  221.2912 H   0  0  0  0  0  0  0  0  0  0  0  0
  143.0362   74.1527  221.4972 H   0  0  0  0  0  0  0  0  0  0  0  0
  1  2  1  0
  2  3  2  0
  2  4  2  0
  2  5  1  0
  5  6  2  0
  6  7  1  0
  7  8  2  0
  8  9  1  0
  9 10  2  0
 10 11  1  0
 11 12  2  0
 12 13  1  0
 13 14  2  0
 14 15  1  0
 15 16  1  0
 15 17  2  0
 17 18  1  0
 18 19  2  0
 19 20  1  0
 20 21  2  0
 20 22  1  0
 22 23  1  0
 23 24  1  0
 24 25  1  0
 25 26  1  0
 26 27  1  0
 27 28  1  0
 28 29  1  0
  8 30  1  0
 30 31  2  0
 31  5  1  0
 22 11  1  0
 29 24  1  0
 19 13  1  0
  1 32  1  0
  1 33  1  0
  6 34  1  0
  7 35  1  0
  9 36  1  0
 10 37  1  0
 14 38  1  0
 17 39  1  0
 18 40  1  0
 23 41  1  0
 23 42  1  0
 24 43  1  0
 25 44  1  0
 25 45  1  0
 26 46  1  0
 26 47  1  0
 27 48  1  0
 28 49  1  0
 28 50  1  0
 29 51  1  0
 29 52  1  0
 30 53  1  0
 31 54  1  0
M  END
>  <smiles>  (46) 
NS(=O)(=O)c1ccc(/C=C/c2nc3cc(Cl)ccc3c(=O)n2CC2CCNCC2)cc1

>  <score_type>  (46) 
oracle

>  <origin>  (46) 
autodockgpu

>  <m_score__min__energy>  (46) 
-10.359999999999999

>  <m_primary>  (46) 
energy

>  <rmsd>  (46) 
5.274700419366994

>  <m_score__min__rmsd>  (46) 
5.274700419366994

>  <meeko>  (46) 
{"free_energy": -7.97, "intermolecular_energy": -10.06, "internal_energy": -1.62, "cluster_size": 1, "cluster_id": 7, "rank_in_cluster": 1}

>  <energy>  (46) 
-7.86

>  <cluster_rmsd>  (46) 
1.72

>  <cluster>  (46) 
8

$$$$

     RDKit          3D

 54 57  0  0  0  0  0  0  0  0999 V2000
  139.2000   67.1790  226.4940 N   0  0  0  0  0  0  0  0  0  0  0  0
  140.0040   68.6210  226.9350 S   0  0  0  0  0  0  0  0  0  0  0  0
  139.3560   69.3010  228.1180 O   0  0  0  0  0  0  0  0  0  0  0  0
  141.4100   68.2850  227.3440 O   0  0  0  0  0  0  0  0  0  0  0  0
  140.0970   69.7380  225.5930 C   0  0  0  0  0  0  0  0  0  0  0  0
  140.6940   70.9800  225.7000 C   0  0  0  0  0  0  0  0  0  0  0  0
  140.7310   71.8100  224.5970 C   0  0  0  0  0  0  0  0  0  0  0  0
  140.1920   71.4570  223.3770 C   0  0  0  0  0  0  0  0  0  0  0  0
  140.2180   72.3120  222.2040 C   0  0  0  0  0  0  0  0  0  0  0  0
  141.3060   72.8620  221.7050 C   0  0  0  0  0  0  0  0  0  0  0  0
  141.3130   74.2430  221.2340 C   0  0  0  0  0  0  0  0  0  0  0  0
  140.7790   75.1600  222.0800 N   0  0  0  0  0  0  0  0  0  0  0  0
  140.7160   76.4560  221.7860 C   0  0  0  0  0  0  0  0  0  0  0  0
  140.1600   77.3310  222.6950 C   0  0  0  0  0  0  0  0  0  0  0  0
  140.1250   78.6640  222.3320 C   0  0  0  0  0  0  0  0  0  0  0  0
  139.4290   79.8280  223.4470 Cl  0  0  0  0  0  0  0  0  0  0  0  0
  140.6150   79.1260  221.1260 C   0  0  0  0  0  0  0  0  0  0  0  0
  141.1620   78.1950  220.2580 C   0  0  0  0  0  0  0  0  0  0  0  0
  141.2220   76.8590  220.5680 C   0  0  0  0  0  0  0  0  0  0  0  0
  141.7590   75.9070  219.7250 C   0  0  0  0  0  0  0  0  0  0  0  0
  142.2040   76.3190  218.6270 O   0  0  0  0  0  0  0  0  0  0  0  0
  141.8200   74.5980  220.0270 N   0  0  0  0  0  0  0  0  0  0  0  0
  142.3790   73.5760  219.2120 C   0  0  0  0  0  0  0  0  0  0  0  0
  143.8110   73.6870  218.8410 C   0  0  0  0  0  0  0  0  0  0  0  0
  144.6300   74.4540  219.8610 C   0  0  0  0  0  0  0  0  0  0  0  0
  145.2880   73.6170  220.9000 C   0  0  0  0  0  0  0  0  0  0  0  0
  145.9050   72.4200  220.3610 N   0  0  0  0  0  0  0  0  0  0  0  0
  144.8720   71.6070  219.7150 C   0  0  0  0  0  0  0  0  0  0  0  0
  144.4590   72.3710  218.4950 C   0  0  0  0  0  0  0  0  0  0  0  0
  139.6020   70.2010  223.3150 C   0  0  0  0  0  0  0  0  0  0  0  0
  139.5560   69.3690  224.3860 C   0  0  0  0  0  0  0  0  0  0  0  0
  139.3750   66.4420  227.2210 H   0  0  0  0  0  0  0  0  0  0  0  0
  139.5580   66.8090  225.5950 H   0  0  0  0  0  0  0  0  0  0  0  0
  141.1352   71.3040  226.6541 H   0  0  0  0  0  0  0  0  0  0  0  0
  141.2108   72.7949  224.6953 H   0  0  0  0  0  0  0  0  0  0  0  0
  139.2631   72.5145  221.6968 H   0  0  0  0  0  0  0  0  0  0  0  0
  142.2292   72.2673  221.6420 H   0  0  0  0  0  0  0  0  0  0  0  0
  139.7639   76.9852  223.6612 H   0  0  0  0  0  0  0  0  0  0  0  0
  140.5725   80.1936  220.8645 H   0  0  0  0  0  0  0  0  0  0  0  0
  141.5603   78.5366  219.2912 H   0  0  0  0  0  0  0  0  0  0  0  0
  142.2528   72.6240  219.7485 H   0  0  0  0  0  0  0  0  0  0  0  0
  141.8401   73.6605  218.2568 H   0  0  0  0  0  0  0  0  0  0  0  0
  143.8047   74.2786  217.9137 H   0  0  0  0  0  0  0  0  0  0  0  0
  145.4136   75.0072  219.3225 H   0  0  0  0  0  0  0  0  0  0  0  0
  143.9224   75.1052  220.3950 H   0  0  0  0  0  0  0  0  0  0  0  0
  146.0649   74.2190  221.3940 H   0  0  0  0  0  0  0  0  0  0  0  0
  144.5067   73.2943  221.6038 H   0  0  0  0  0  0  0  0  0  0  0  0
  146.2150   71.8650  221.2010 H   0  0  0  0  0  0  0  0  0  0  0  0
  145.2779   70.6243  219.4330 H   0  0  0  0  0  0  0  0  0  0  0  0
  144.0205   71.4237  220.3868 H   0  0  0  0  0  0  0  0  0  0  0  0
  145.3501   72.5655  217.8801 H   0  0  0  0  0  0  0  0  0  0  0  0
  143.7215   71.7640  217.9494 H   0  0  0  0  0  0  0  0  0  0  0  0
  139.1569   69.8695  222.3653 H   0  0  0  0  0  0  0  0  0  0  0  0
  139.0778   68.3835  224.2857 H   0  0  0  0  0  0  0  0  0  0  0  0
  1  2  1  0
  2  3  2  0
  2  4  2  0
  2  5  1  0
  5  6  2  0
  6  7  1  0
  7  8  2  0
  8  9  1  0
  9 10  2  0
 10 11  1  0
 11 12  2  0
 12 13  1  0
 13 14  2  0
 14 15  1  0
 15 16  1  0
 15 17  2  0
 17 18  1  0
 18 19  2  0
 19 20  1  0
 20 21  2  0
 20 22  1  0
 22 23  1  0
 23 24  1  0
 24 25  1  0
 25 26  1  0
 26 27  1  0
 27 28  1  0
 28 29  1  0
  8 30  1  0
 30 31  2  0
 31  5  1  0
 22 11  1  0
 29 24  1  0
 19 13  1  0
  1 32  1  0
  1 33  1  0
  6 34  1  0
  7 35  1  0
  9 36  1  0
 10 37  1  0
 14 38  1  0
 17 39  1  0
 18 40  1  0
 23 41  1  0
 23 42  1  0
 24 43  1  0
 25 44  1  0
 25 45  1  0
 26 46  1  0
 26 47  1  0
 27 48  1  0
 28 49  1  0
 28 50  1  0
 29 51  1  0
 29 52  1  0
 30 53  1  0
 31 54  1  0
M  END
>  <smiles>  (47) 
NS(=O)(=O)c1ccc(/C=C/c2nc3cc(Cl)ccc3c(=O)n2CC2CCNCC2)cc1

>  <score_type>  (47) 
oracle

>  <origin>  (47) 
autodockgpu

>  <m_score__min__energy>  (47) 
-10.359999999999999

>  <m_primary>  (47) 
energy

>  <rmsd>  (47) 
4.811244500741806

>  <m_score__min__rmsd>  (47) 
4.811244500741806

>  <meeko>  (47) 
{"free_energy": -9.14, "intermolecular_energy": -11.23, "internal_energy": -1.3, "cluster_size": 33, "cluster_id": 1, "rank_in_cluster": 27}

>  <energy>  (47) 
-7.82

>  <cluster_rmsd>  (47) 
0.0

>  <cluster>  (47) 
9

$$$$

     RDKit          3D

 54 57  0  0  0  0  0  0  0  0999 V2000
  141.0780   67.7470  227.6860 N   0  0  0  0  0  0  0  0  0  0  0  0
  140.4690   69.3300  227.8950 S   0  0  0  0  0  0  0  0  0  0  0  0
  139.1570   69.3460  228.6440 O   0  0  0  0  0  0  0  0  0  0  0  0
  141.4480   70.1200  228.7150 O   0  0  0  0  0  0  0  0  0  0  0  0
  140.2800   70.1510  226.3630 C   0  0  0  0  0  0  0  0  0  0  0  0
  141.2140   71.0460  225.8790 C   0  0  0  0  0  0  0  0  0  0  0  0
  140.9970   71.6570  224.6590 C   0  0  0  0  0  0  0  0  0  0  0  0
  139.8780   71.4140  223.8900 C   0  0  0  0  0  0  0  0  0  0  0  0
  139.6290   72.0440  222.6050 C   0  0  0  0  0  0  0  0  0  0  0  0
  140.5280   72.1760  221.6510 C   0  0  0  0  0  0  0  0  0  0  0  0
  141.0180   73.4890  221.2450 C   0  0  0  0  0  0  0  0  0  0  0  0
  140.6290   74.5330  222.0200 N   0  0  0  0  0  0  0  0  0  0  0  0
  140.9980   75.7870  221.7730 C   0  0  0  0  0  0  0  0  0  0  0  0
  140.5650   76.7970  222.6040 C   0  0  0  0  0  0  0  0  0  0  0  0
  140.9820   78.0780  222.2950 C   0  0  0  0  0  0  0  0  0  0  0  0
  140.4640   79.4080  223.3170 Cl  0  0  0  0  0  0  0  0  0  0  0  0
  141.7930   78.3620  221.2140 C   0  0  0  0  0  0  0  0  0  0  0  0
  142.1940   77.3000  220.4170 C   0  0  0  0  0  0  0  0  0  0  0  0
  141.8080   76.0090  220.6790 C   0  0  0  0  0  0  0  0  0  0  0  0
  142.1900   74.9310  219.9060 C   0  0  0  0  0  0  0  0  0  0  0  0
  142.9240   75.1820  218.9200 O   0  0  0  0  0  0  0  0  0  0  0  0
  141.8140   73.6650  220.1610 N   0  0  0  0  0  0  0  0  0  0  0  0
  142.1910   72.5150  219.4150 C   0  0  0  0  0  0  0  0  0  0  0  0
  143.4570   71.8330  219.7790 C   0  0  0  0  0  0  0  0  0  0  0  0
  144.2960   71.4570  218.5740 C   0  0  0  0  0  0  0  0  0  0  0  0
  145.3180   72.4620  218.1780 C   0  0  0  0  0  0  0  0  0  0  0  0
  146.0420   73.0160  219.3080 N   0  0  0  0  0  0  0  0  0  0  0  0
  145.0870   73.6720  220.2040 C   0  0  0  0  0  0  0  0  0  0  0  0
  144.2760   72.5680  220.8100 C   0  0  0  0  0  0  0  0  0  0  0  0
  138.9660   70.5080  224.4140 C   0  0  0  0  0  0  0  0  0  0  0  0
  139.1590   69.8970  225.6100 C   0  0  0  0  0  0  0  0  0  0  0  0
  141.6100   67.6920  226.7810 H   0  0  0  0  0  0  0  0  0  0  0  0
  140.3110   67.0540  227.6290 H   0  0  0  0  0  0  0  0  0  0  0  0
  142.1214   71.2701  226.4590 H   0  0  0  0  0  0  0  0  0  0  0  0
  141.7487   72.3676  224.2849 H   0  0  0  0  0  0  0  0  0  0  0  0
  138.6197   72.4382  222.4153 H   0  0  0  0  0  0  0  0  0  0  0  0
  140.9174   71.2774  221.1500 H   0  0  0  0  0  0  0  0  0  0  0  0
  139.9191   76.5938  223.4709 H   0  0  0  0  0  0  0  0  0  0  0  0
  142.1092   79.3922  220.9932 H   0  0  0  0  0  0  0  0  0  0  0  0
  142.8404   77.4982  219.5493 H   0  0  0  0  0  0  0  0  0  0  0  0
  141.3810   71.7780  219.5184 H   0  0  0  0  0  0  0  0  0  0  0  0
  142.3655   72.8930  218.3968 H   0  0  0  0  0  0  0  0  0  0  0  0
  143.1314   70.8971  220.2565 H   0  0  0  0  0  0  0  0  0  0  0  0
  144.8154   70.5143  218.8012 H   0  0  0  0  0  0  0  0  0  0  0  0
  143.5982   71.3799  217.7272 H   0  0  0  0  0  0  0  0  0  0  0  0
  146.0398   71.9794  217.5027 H   0  0  0  0  0  0  0  0  0  0  0  0
  144.7878   73.2930  217.6897 H   0  0  0  0  0  0  0  0  0  0  0  0
  146.6300   73.7920  218.9070 H   0  0  0  0  0  0  0  0  0  0  0  0
  145.6185   74.2321  220.9875 H   0  0  0  0  0  0  0  0  0  0  0  0
  144.4539   74.3925  219.6655 H   0  0  0  0  0  0  0  0  0  0  0  0
  144.9567   71.8541  221.2968 H   0  0  0  0  0  0  0  0  0  0  0  0
  143.5822   73.0170  221.5360 H   0  0  0  0  0  0  0  0  0  0  0  0
  138.0562   70.2777  223.8402 H   0  0  0  0  0  0  0  0  0  0  0  0
  138.4061   69.1870  225.9828 H   0  0  0  0  0  0  0  0  0  0  0  0
  1  2  1  0
  2  3  2  0
  2  4  2  0
  2  5  1  0
  5  6  2  0
  6  7  1  0
  7  8  2  0
  8  9  1  0
  9 10  2  0
 10 11  1  0
 11 12  2  0
 12 13  1  0
 13 14  2  0
 14 15  1  0
 15 16  1  0
 15 17  2  0
 17 18  1  0
 18 19  2  0
 19 20  1  0
 20 21  2  0
 20 22  1  0
 22 23  1  0
 23 24  1  0
 24 25  1  0
 25 26  1  0
 26 27  1  0
 27 28  1  0
 28 29  1  0
  8 30  1  0
 30 31  2  0
 31  5  1  0
 22 11  1  0
 29 24  1  0
 19 13  1  0
  1 32  1  0
  1 33  1  0
  6 34  1  0
  7 35  1  0
  9 36  1  0
 10 37  1  0
 14 38  1  0
 17 39  1  0
 18 40  1  0
 23 41  1  0
 23 42  1  0
 24 43  1  0
 25 44  1  0
 25 45  1  0
 26 46  1  0
 26 47  1  0
 27 48  1  0
 28 49  1  0
 28 50  1  0
 29 51  1  0
 29 52  1  0
 30 53  1  0
 31 54  1  0
M  END
>  <smiles>  (48) 
NS(=O)(=O)c1ccc(/C=C/c2nc3cc(Cl)ccc3c(=O)n2CC2CCNCC2)cc1

>  <score_type>  (48) 
oracle

>  <origin>  (48) 
autodockgpu

>  <m_score__min__energy>  (48) 
-10.359999999999999

>  <m_primary>  (48) 
energy

>  <rmsd>  (48) 
5.750635667138909

>  <m_score__min__rmsd>  (48) 
5.750635667138909

>  <meeko>  (48) 
{"free_energy": -9.75, "intermolecular_energy": -11.84, "internal_energy": -1.41, "cluster_size": 33, "cluster_id": 1, "rank_in_cluster": 15}

>  <energy>  (48) 
-7.69

>  <cluster_rmsd>  (48) 
0.0

>  <cluster>  (48) 
10

$$$$

     RDKit          3D

 54 57  0  0  0  0  0  0  0  0999 V2000
  141.3560   67.6580  227.4200 N   0  0  0  0  0  0  0  0  0  0  0  0
  139.7860   68.1870  227.0000 S   0  0  0  0  0  0  0  0  0  0  0  0
  138.8600   67.0380  226.6770 O   0  0  0  0  0  0  0  0  0  0  0  0
  139.1890   68.9090  228.1730 O   0  0  0  0  0  0  0  0  0  0  0  0
  139.8260   69.3050  225.6560 C   0  0  0  0  0  0  0  0  0  0  0  0
  139.1200   69.0870  224.4880 C   0  0  0  0  0  0  0  0  0  0  0  0
  139.1990   70.0150  223.4670 C   0  0  0  0  0  0  0  0  0  0  0  0
  139.9590   71.1630  223.5580 C   0  0  0  0  0  0  0  0  0  0  0  0
  140.0570   72.1520  222.4990 C   0  0  0  0  0  0  0  0  0  0  0  0
  141.1400   72.3740  221.7830 C   0  0  0  0  0  0  0  0  0  0  0  0
  141.4340   73.6960  221.2390 C   0  0  0  0  0  0  0  0  0  0  0  0
  141.0830   74.7500  222.0200 N   0  0  0  0  0  0  0  0  0  0  0  0
  141.2900   76.0130  221.6560 C   0  0  0  0  0  0  0  0  0  0  0  0
  140.9080   77.0320  222.5010 C   0  0  0  0  0  0  0  0  0  0  0  0
  141.1490   78.3220  222.0660 C   0  0  0  0  0  0  0  0  0  0  0  0
  140.6860   79.6650  223.0980 Cl  0  0  0  0  0  0  0  0  0  0  0  0
  141.7410   78.6060  220.8510 C   0  0  0  0  0  0  0  0  0  0  0  0
  142.1020   77.5340  220.0490 C   0  0  0  0  0  0  0  0  0  0  0  0
  141.8850   76.2340  220.4310 C   0  0  0  0  0  0  0  0  0  0  0  0
  142.2310   75.1460  219.6560 C   0  0  0  0  0  0  0  0  0  0  0  0
  142.7670   75.3960  218.5490 O   0  0  0  0  0  0  0  0  0  0  0  0
  142.0210   73.8720  220.0290 N   0  0  0  0  0  0  0  0  0  0  0  0
  142.3740   72.7130  219.2850 C   0  0  0  0  0  0  0  0  0  0  0  0
  143.6470   72.0300  219.6220 C   0  0  0  0  0  0  0  0  0  0  0  0
  144.5390   71.8080  218.4160 C   0  0  0  0  0  0  0  0  0  0  0  0
  145.5430   72.8770  218.1680 C   0  0  0  0  0  0  0  0  0  0  0  0
  146.2100   73.3250  219.3770 N   0  0  0  0  0  0  0  0  0  0  0  0
  145.2040   73.8550  220.3010 C   0  0  0  0  0  0  0  0  0  0  0  0
  144.4060   72.6720  220.7550 C   0  0  0  0  0  0  0  0  0  0  0  0
  140.6500   71.3410  224.7480 C   0  0  0  0  0  0  0  0  0  0  0  0
  140.5870   70.4430  225.7640 C   0  0  0  0  0  0  0  0  0  0  0  0
  142.0100   67.8230  226.6140 H   0  0  0  0  0  0  0  0  0  0  0  0
  141.3700   66.6420  227.6180 H   0  0  0  0  0  0  0  0  0  0  0  0
  138.5018   68.1845  224.3723 H   0  0  0  0  0  0  0  0  0  0  0  0
  138.6320   69.8306  222.5426 H   0  0  0  0  0  0  0  0  0  0  0  0
  139.1652   72.7575  222.2797 H   0  0  0  0  0  0  0  0  0  0  0  0
  141.8376   71.5455  221.5910 H   0  0  0  0  0  0  0  0  0  0  0  0
  140.4349   76.8293  223.4732 H   0  0  0  0  0  0  0  0  0  0  0  0
  141.9194   79.6434  220.5316 H   0  0  0  0  0  0  0  0  0  0  0  0
  142.5769   77.7317  219.0767 H   0  0  0  0  0  0  0  0  0  0  0  0
  141.5645   71.9801  219.4176 H   0  0  0  0  0  0  0  0  0  0  0  0
  142.5225   73.0800  218.2587 H   0  0  0  0  0  0  0  0  0  0  0  0
  143.3343   71.0396  219.9845 H   0  0  0  0  0  0  0  0  0  0  0  0
  145.0789   70.8607  218.5613 H   0  0  0  0  0  0  0  0  0  0  0  0
  143.8738   71.8035  217.5399 H   0  0  0  0  0  0  0  0  0  0  0  0
  146.3022   72.4894  217.4727 H   0  0  0  0  0  0  0  0  0  0  0  0
  145.0050   73.7413  217.7514 H   0  0  0  0  0  0  0  0  0  0  0  0
  146.7880   74.1540  219.0840 H   0  0  0  0  0  0  0  0  0  0  0  0
  145.6904   74.3416  221.1593 H   0  0  0  0  0  0  0  0  0  0  0  0
  144.5684   74.6117  219.8180 H   0  0  0  0  0  0  0  0  0  0  0  0
  145.0903   71.9284  221.1895 H   0  0  0  0  0  0  0  0  0  0  0  0
  143.6735   73.0227  221.4970 H   0  0  0  0  0  0  0  0  0  0  0  0
  141.2703   72.2409  224.8724 H   0  0  0  0  0  0  0  0  0  0  0  0
  141.1541   70.6297  226.6879 H   0  0  0  0  0  0  0  0  0  0  0  0
  1  2  1  0
  2  3  2  0
  2  4  2  0
  2  5  1  0
  5  6  2  0
  6  7  1  0
  7  8  2  0
  8  9  1  0
  9 10  2  0
 10 11  1  0
 11 12  2  0
 12 13  1  0
 13 14  2  0
 14 15  1  0
 15 16  1  0
 15 17  2  0
 17 18  1  0
 18 19  2  0
 19 20  1  0
 20 21  2  0
 20 22  1  0
 22 23  1  0
 23 24  1  0
 24 25  1  0
 25 26  1  0
 26 27  1  0
 27 28  1  0
 28 29  1  0
  8 30  1  0
 30 31  2  0
 31  5  1  0
 22 11  1  0
 29 24  1  0
 19 13  1  0
  1 32  1  0
  1 33  1  0
  6 34  1  0
  7 35  1  0
  9 36  1  0
 10 37  1  0
 14 38  1  0
 17 39  1  0
 18 40  1  0
 23 41  1  0
 23 42  1  0
 24 43  1  0
 25 44  1  0
 25 45  1  0
 26 46  1  0
 26 47  1  0
 27 48  1  0
 28 49  1  0
 28 50  1  0
 29 51  1  0
 29 52  1  0
 30 53  1  0
 31 54  1  0
M  END
>  <smiles>  (49) 
NS(=O)(=O)c1ccc(/C=C/c2nc3cc(Cl)ccc3c(=O)n2CC2CCNCC2)cc1

>  <score_type>  (49) 
oracle

>  <origin>  (49) 
autodockgpu

>  <m_score__min__energy>  (49) 
-10.359999999999999

>  <m_primary>  (49) 
energy

>  <rmsd>  (49) 
5.61608336867496

>  <m_score__min__rmsd>  (49) 
5.61608336867496

>  <meeko>  (49) 
{"free_energy": -9.7, "intermolecular_energy": -11.79, "internal_energy": -1.36, "cluster_size": 33, "cluster_id": 1, "rank_in_cluster": 19}

>  <energy>  (49) 
-7.66

>  <cluster_rmsd>  (49) 
0.0

>  <cluster>  (49) 
11

$$$$

     RDKit          3D

 54 57  0  0  0  0  0  0  0  0999 V2000
  139.1160   67.0160  226.6090 N   0  0  0  0  0  0  0  0  0  0  0  0
  139.8910   68.4920  226.9880 S   0  0  0  0  0  0  0  0  0  0  0  0
  139.1590   69.2660  228.0590 O   0  0  0  0  0  0  0  0  0  0  0  0
  141.2610   68.1950  227.5260 O   0  0  0  0  0  0  0  0  0  0  0  0
  140.0860   69.4950  225.5690 C   0  0  0  0  0  0  0  0  0  0  0  0
  139.5020   69.1880  224.3560 C   0  0  0  0  0  0  0  0  0  0  0  0
  139.7000   70.0280  223.2770 C   0  0  0  0  0  0  0  0  0  0  0  0
  140.4640   71.1740  223.3530 C   0  0  0  0  0  0  0  0  0  0  0  0
  140.6870   72.0720  222.2330 C   0  0  0  0  0  0  0  0  0  0  0  0
  139.9480   73.1290  221.9670 C   0  0  0  0  0  0  0  0  0  0  0  0
  140.5460   74.3770  221.5030 C   0  0  0  0  0  0  0  0  0  0  0  0
  140.3280   75.4650  222.2840 N   0  0  0  0  0  0  0  0  0  0  0  0
  140.8110   76.6690  221.9880 C   0  0  0  0  0  0  0  0  0  0  0  0
  140.5500   77.7290  222.8290 C   0  0  0  0  0  0  0  0  0  0  0  0
  141.0800   78.9540  222.4680 C   0  0  0  0  0  0  0  0  0  0  0  0
  140.7820   80.3440  223.4980 Cl  0  0  0  0  0  0  0  0  0  0  0  0
  141.8370   79.1360  221.3270 C   0  0  0  0  0  0  0  0  0  0  0  0
  142.0640   78.0280  220.5250 C   0  0  0  0  0  0  0  0  0  0  0  0
  141.5610   76.7900  220.8360 C   0  0  0  0  0  0  0  0  0  0  0  0
  141.7680   75.6680  220.0590 C   0  0  0  0  0  0  0  0  0  0  0  0
  142.4530   75.8270  219.0200 O   0  0  0  0  0  0  0  0  0  0  0  0
  141.2780   74.4540  220.3630 N   0  0  0  0  0  0  0  0  0  0  0  0
  141.4740   73.2610  219.6140 C   0  0  0  0  0  0  0  0  0  0  0  0
  142.6930   72.4610  219.8880 C   0  0  0  0  0  0  0  0  0  0  0  0
  143.3970   72.0010  218.6250 C   0  0  0  0  0  0  0  0  0  0  0  0
  144.4780   72.9020  218.1430 C   0  0  0  0  0  0  0  0  0  0  0  0
  145.3370   73.3850  219.2090 N   0  0  0  0  0  0  0  0  0  0  0  0
  144.5210   74.1330  220.1680 C   0  0  0  0  0  0  0  0  0  0  0  0
  143.6560   73.1160  220.8450 C   0  0  0  0  0  0  0  0  0  0  0  0
  141.0320   71.4440  224.5910 C   0  0  0  0  0  0  0  0  0  0  0  0
  140.8500   70.6330  225.6630 C   0  0  0  0  0  0  0  0  0  0  0  0
  138.0900   67.1850  226.4640 H   0  0  0  0  0  0  0  0  0  0  0  0
  139.2050   66.3350  227.3830 H   0  0  0  0  0  0  0  0  0  0  0  0
  138.8851   68.2835  224.2498 H   0  0  0  0  0  0  0  0  0  0  0  0
  139.2284   69.7721  222.3167 H   0  0  0  0  0  0  0  0  0  0  0  0
  141.5306   71.8542  221.5615 H   0  0  0  0  0  0  0  0  0  0  0  0
  138.8573   73.0702  222.0972 H   0  0  0  0  0  0  0  0  0  0  0  0
  139.9496   77.6066  223.7425 H   0  0  0  0  0  0  0  0  0  0  0  0
  142.2446   80.1234  221.0644 H   0  0  0  0  0  0  0  0  0  0  0  0
  142.6657   78.1451  219.6116 H   0  0  0  0  0  0  0  0  0  0  0  0
  140.6067   72.6108  219.8010 H   0  0  0  0  0  0  0  0  0  0  0  0
  141.5972   73.6043  218.5762 H   0  0  0  0  0  0  0  0  0  0  0  0
  142.3165   71.5630  220.3998 H   0  0  0  0  0  0  0  0  0  0  0  0
  143.8388   71.0130  218.8214 H   0  0  0  0  0  0  0  0  0  0  0  0
  142.6323   71.9887  217.8344 H   0  0  0  0  0  0  0  0  0  0  0  0
  145.0957   72.3508  217.4187 H   0  0  0  0  0  0  0  0  0  0  0  0
  143.9943   73.7798  217.6896 H   0  0  0  0  0  0  0  0  0  0  0  0
  145.9650   74.0990  218.7570 H   0  0  0  0  0  0  0  0  0  0  0  0
  145.1625   74.6411  220.9031 H   0  0  0  0  0  0  0  0  0  0  0  0
  143.9210   74.9097  219.6712 H   0  0  0  0  0  0  0  0  0  0  0  0
  144.2996   72.3407  221.2862 H   0  0  0  0  0  0  0  0  0  0  0  0
  143.0667   73.6332  221.6165 H   0  0  0  0  0  0  0  0  0  0  0  0
  141.6506   72.3463  224.7063 H   0  0  0  0  0  0  0  0  0  0  0  0
  141.3216   70.8906  226.6228 H   0  0  0  0  0  0  0  0  0  0  0  0
  1  2  1  0
  2  3  2  0
  2  4  2  0
  2  5  1  0
  5  6  2  0
  6  7  1  0
  7  8  2  0
  8  9  1  0
  9 10  2  0
 10 11  1  0
 11 12  2  0
 12 13  1  0
 13 14  2  0
 14 15  1  0
 15 16  1  0
 15 17  2  0
 17 18  1  0
 18 19  2  0
 19 20  1  0
 20 21  2  0
 20 22  1  0
 22 23  1  0
 23 24  1  0
 24 25  1  0
 25 26  1  0
 26 27  1  0
 27 28  1  0
 28 29  1  0
  8 30  1  0
 30 31  2  0
 31  5  1  0
 22 11  1  0
 29 24  1  0
 19 13  1  0
  1 32  1  0
  1 33  1  0
  6 34  1  0
  7 35  1  0
  9 36  1  0
 10 37  1  0
 14 38  1  0
 17 39  1  0
 18 40  1  0
 23 41  1  0
 23 42  1  0
 24 43  1  0
 25 44  1  0
 25 45  1  0
 26 46  1  0
 26 47  1  0
 27 48  1  0
 28 49  1  0
 28 50  1  0
 29 51  1  0
 29 52  1  0
 30 53  1  0
 31 54  1  0
M  END
>  <smiles>  (50) 
NS(=O)(=O)c1ccc(/C=C/c2nc3cc(Cl)ccc3c(=O)n2CC2CCNCC2)cc1

>  <score_type>  (50) 
oracle

>  <origin>  (50) 
autodockgpu

>  <m_score__min__energy>  (50) 
-10.359999999999999

>  <m_primary>  (50) 
energy

>  <rmsd>  (50) 
4.942296855119718

>  <m_score__min__rmsd>  (50) 
4.942296855119718

>  <meeko>  (50) 
{"free_energy": -8.91, "intermolecular_energy": -11.0, "internal_energy": -1.22, "cluster_size": 33, "cluster_id": 1, "rank_in_cluster": 28}

>  <energy>  (50) 
-7.39

>  <cluster_rmsd>  (50) 
0.0

>  <cluster>  (50) 
12

$$$$
