
     RDKit          3D

 51 54  0  0  0  0  0  0  0  0999 V2000
  140.3740   74.5200  222.2640 O   0  0  0  0  0  0  0  0  0  0  0  0
  140.2040   75.5530  221.5530 C   0  0  0  0  0  0  0  0  0  0  0  0
  140.0210   75.3440  220.1630 N   0  0  0  0  0  0  0  0  0  0  0  0
  140.0260   74.0430  219.5760 C   0  0  0  0  0  0  0  0  0  0  0  0
  141.2790   73.7300  218.8530 C   0  0  0  0  0  0  0  0  0  0  0  0
  141.1670   73.5800  217.5880 O   0  0  0  0  0  0  0  0  0  0  0  0
  142.4900   73.6110  219.5450 N   0  0  0  0  0  0  0  0  0  0  0  0
  142.6380   72.6000  220.6030 C   0  0  0  0  0  0  0  0  0  0  0  0
  144.0530   72.0650  220.5280 C   0  0  0  0  0  0  0  0  0  0  0  0
  145.0840   73.1400  220.6110 C   0  0  0  0  0  0  0  0  0  0  0  0
  144.4900   74.5290  220.4610 C   0  0  0  0  0  0  0  0  0  0  0  0
  143.5840   74.4740  219.2230 C   0  0  2  0  0  0  0  0  0  0  0  0
  143.1870   75.8430  218.8070 C   0  0  0  0  0  0  0  0  0  0  0  0
  143.3030   76.1890  217.4740 C   0  0  0  0  0  0  0  0  0  0  0  0
  142.9440   77.4500  217.0560 C   0  0  0  0  0  0  0  0  0  0  0  0
  142.4680   78.3470  218.0070 C   0  0  0  0  0  0  0  0  0  0  0  0
  142.0150   79.9570  217.4400 Cl  0  0  0  0  0  0  0  0  0  0  0  0
  142.3560   77.9910  219.3330 C   0  0  0  0  0  0  0  0  0  0  0  0
  142.7170   76.7150  219.7670 C   0  0  0  0  0  0  0  0  0  0  0  0
  140.1920   76.9030  222.1050 C   0  0  0  0  0  0  0  0  0  0  0  0
  139.0040   77.5150  222.4290 C   0  0  0  0  0  0  0  0  0  0  0  0
  139.0780   78.7940  222.9450 C   0  0  0  0  0  0  0  0  0  0  0  0
  140.2690   79.4580  223.1400 C   0  0  0  0  0  0  0  0  0  0  0  0
  140.3430   80.7400  223.6580 C   0  0  0  0  0  0  0  0  0  0  0  0
  141.5930   81.3020  223.8080 C   0  0  0  0  0  0  0  0  0  0  0  0
  142.7560   80.6360  223.4630 C   0  0  0  0  0  0  0  0  0  0  0  0
  142.6870   79.3500  222.9440 C   0  0  0  0  0  0  0  0  0  0  0  0
  141.4310   78.7990  222.7990 C   0  0  0  0  0  0  0  0  0  0  0  0
  141.3480   77.5550  222.2970 N   0  0  0  0  0  0  0  0  0  0  0  0
  139.8810   76.2070  219.5800 H   0  0  0  0  0  0  0  0  0  0  0  0
  139.8892   73.2993  220.3749 H   0  0  0  0  0  0  0  0  0  0  0  0
  139.2099   74.0158  218.8390 H   0  0  0  0  0  0  0  0  0  0  0  0
  142.4616   73.0581  221.5874 H   0  0  0  0  0  0  0  0  0  0  0  0
  141.9092   71.7874  220.4665 H   0  0  0  0  0  0  0  0  0  0  0  0
  144.2082   71.3644  221.3617 H   0  0  0  0  0  0  0  0  0  0  0  0
  144.1683   71.5709  219.5520 H   0  0  0  0  0  0  0  0  0  0  0  0
  145.5843   73.0741  221.5884 H   0  0  0  0  0  0  0  0  0  0  0  0
  145.7919   72.9884  219.7829 H   0  0  0  0  0  0  0  0  0  0  0  0
  143.9019   74.7909  221.3529 H   0  0  0  0  0  0  0  0  0  0  0  0
  145.2750   75.2916  220.3506 H   0  0  0  0  0  0  0  0  0  0  0  0
  144.1008   74.0598  218.3447 H   0  0  0  0  0  0  0  0  0  0  0  0
  143.6825   75.4561  216.7468 H   0  0  0  0  0  0  0  0  0  0  0  0
  143.0310   77.7408  215.9987 H   0  0  0  0  0  0  0  0  0  0  0  0
  141.9763   78.7235  220.0605 H   0  0  0  0  0  0  0  0  0  0  0  0
  142.6310   76.4189  220.8229 H   0  0  0  0  0  0  0  0  0  0  0  0
  138.0383   77.0088  222.2838 H   0  0  0  0  0  0  0  0  0  0  0  0
  138.1421   79.3063  223.2128 H   0  0  0  0  0  0  0  0  0  0  0  0
  139.4344   81.2919  223.9405 H   0  0  0  0  0  0  0  0  0  0  0  0
  141.6689   82.3199  224.2181 H   0  0  0  0  0  0  0  0  0  0  0  0
  143.7323   81.1240  223.5995 H   0  0  0  0  0  0  0  0  0  0  0  0
  143.5938   78.7953  222.6611 H   0  0  0  0  0  0  0  0  0  0  0  0
  1  2  2  0
  2  3  1  0
  3  4  1  0
  4  5  1  0
  5  6  2  0
  5  7  1  0
  7  8  1  0
  8  9  1  0
  9 10  1  0
 10 11  1  0
 11 12  1  0
 12 13  1  0
 13 14  2  0
 14 15  1  0
 15 16  2  0
 16 17  1  0
 16 18  1  0
 18 19  2  0
  2 20  1  0
 20 21  2  0
 21 22  1  0
 22 23  2  0
 23 24  1  0
 24 25  2  0
 25 26  1  0
 26 27  2  0
 27 28  1  0
 28 29  2  0
 12  7  1  0
 19 13  1  0
 29 20  1  0
 28 23  1  0
  3 30  1  0
  4 31  1  0
  4 32  1  0
  8 33  1  0
  8 34  1  0
  9 35  1  0
  9 36  1  0
 10 37  1  0
 10 38  1  0
 11 39  1  0
 11 40  1  0
 12 41  1  6
 14 42  1  0
 15 43  1  0
 18 44  1  0
 19 45  1  0
 21 46  1  0
 22 47  1  0
 24 48  1  0
 25 49  1  0
 26 50  1  0
 27 51  1  0
M  END
>  <smiles>  (1) 
O=C(NCC(=O)N1CCCCC1c1ccc(Cl)cc1)c1ccc2ccccc2n1

>  <score_type>  (1) 
oracle

>  <origin>  (1) 
autodockgpu

>  <m_score__min__energy>  (1) 
-8.7799999999999994

>  <m_primary>  (1) 
energy

>  <rmsd>  (1) 
7.427092059219584

>  <m_score__min__rmsd>  (1) 
7.427092059219584

>  <meeko>  (1) 
{"free_energy": -7.64, "intermolecular_energy": -9.13, "internal_energy": -2.48, "cluster_size": 5, "cluster_id": 5, "rank_in_cluster": 4}

>  <energy>  (1) 
-8.78

>  <cluster_rmsd>  (1) 
0.0

>  <cluster>  (1) 
1

$$$$

     RDKit          3D

 51 54  0  0  0  0  0  0  0  0999 V2000
  140.9230   71.6930  221.2080 O   0  0  0  0  0  0  0  0  0  0  0  0
  140.4200   72.1830  222.2600 C   0  0  0  0  0  0  0  0  0  0  0  0
  140.0510   73.5510  222.2110 N   0  0  0  0  0  0  0  0  0  0  0  0
  140.2310   74.3510  221.0430 C   0  0  0  0  0  0  0  0  0  0  0  0
  140.8750   75.6560  221.3190 C   0  0  0  0  0  0  0  0  0  0  0  0
  140.9420   75.9920  222.5500 O   0  0  0  0  0  0  0  0  0  0  0  0
  141.3660   76.4440  220.2700 N   0  0  0  0  0  0  0  0  0  0  0  0
  140.5580   77.5550  219.7430 C   0  0  0  0  0  0  0  0  0  0  0  0
  141.5060   78.6800  219.3870 C   0  0  0  0  0  0  0  0  0  0  0  0
  142.5820   78.2540  218.4460 C   0  0  0  0  0  0  0  0  0  0  0  0
  142.6550   76.7460  218.2890 C   0  0  0  0  0  0  0  0  0  0  0  0
  142.6520   76.1690  219.7110 C   0  0  2  0  0  0  0  0  0  0  0  0
  143.0200   74.7300  219.6900 C   0  0  0  0  0  0  0  0  0  0  0  0
  143.9470   74.2710  220.6050 C   0  0  0  0  0  0  0  0  0  0  0  0
  144.3090   72.9430  220.6120 C   0  0  0  0  0  0  0  0  0  0  0  0
  143.7180   72.0960  219.6810 C   0  0  0  0  0  0  0  0  0  0  0  0
  144.2030   70.3990  219.7140 Cl  0  0  0  0  0  0  0  0  0  0  0  0
  142.7940   72.5650  218.7720 C   0  0  0  0  0  0  0  0  0  0  0  0
  142.4200   73.9100  218.7580 C   0  0  0  0  0  0  0  0  0  0  0  0
  140.2170   71.4080  223.4780 C   0  0  0  0  0  0  0  0  0  0  0  0
  139.5460   70.2070  223.4390 C   0  0  0  0  0  0  0  0  0  0  0  0
  139.3940   69.5340  224.6350 C   0  0  0  0  0  0  0  0  0  0  0  0
  139.8780   70.0120  225.8330 C   0  0  0  0  0  0  0  0  0  0  0  0
  139.7270   69.3370  227.0320 C   0  0  0  0  0  0  0  0  0  0  0  0
  140.2550   69.9150  228.1670 C   0  0  0  0  0  0  0  0  0  0  0  0
  140.9210   71.1270  228.1450 C   0  0  0  0  0  0  0  0  0  0  0  0
  141.0760   71.8080  226.9450 C   0  0  0  0  0  0  0  0  0  0  0  0
  140.5430   71.2190  225.8170 C   0  0  0  0  0  0  0  0  0  0  0  0
  140.6860   71.8670  224.6480 N   0  0  0  0  0  0  0  0  0  0  0  0
  139.6350   73.9510  223.0880 H   0  0  0  0  0  0  0  0  0  0  0  0
  140.8602   73.7947  220.3326 H   0  0  0  0  0  0  0  0  0  0  0  0
  139.2312   74.5613  220.6355 H   0  0  0  0  0  0  0  0  0  0  0  0
  140.0099   77.2284  218.8470 H   0  0  0  0  0  0  0  0  0  0  0  0
  139.8248   77.8893  220.4918 H   0  0  0  0  0  0  0  0  0  0  0  0
  140.9290   79.4903  218.9173 H   0  0  0  0  0  0  0  0  0  0  0  0
  141.9915   79.0104  220.3171 H   0  0  0  0  0  0  0  0  0  0  0  0
  142.3863   78.7020  217.4606 H   0  0  0  0  0  0  0  0  0  0  0  0
  143.5423   78.5931  218.8616 H   0  0  0  0  0  0  0  0  0  0  0  0
  141.7845   76.3783  217.7260 H   0  0  0  0  0  0  0  0  0  0  0  0
  143.5554   76.4430  217.7345 H   0  0  0  0  0  0  0  0  0  0  0  0
  143.4123   76.6370  220.3536 H   0  0  0  0  0  0  0  0  0  0  0  0
  144.3963   74.9671  221.3286 H   0  0  0  0  0  0  0  0  0  0  0  0
  145.0458   72.5621  221.3345 H   0  0  0  0  0  0  0  0  0  0  0  0
  142.3450   71.8697  218.0474 H   0  0  0  0  0  0  0  0  0  0  0  0
  141.6829   74.2965  218.0388 H   0  0  0  0  0  0  0  0  0  0  0  0
  139.1485   69.8013  222.4970 H   0  0  0  0  0  0  0  0  0  0  0  0
  138.8617   68.5714  224.6311 H   0  0  0  0  0  0  0  0  0  0  0  0
  139.2029   68.3710  227.0778 H   0  0  0  0  0  0  0  0  0  0  0  0
  140.1421   69.3916  229.1279 H   0  0  0  0  0  0  0  0  0  0  0  0
  141.3268   71.5503  229.0757 H   0  0  0  0  0  0  0  0  0  0  0  0
  141.6002   72.7738  226.8959 H   0  0  0  0  0  0  0  0  0  0  0  0
  1  2  2  0
  2  3  1  0
  3  4  1  0
  4  5  1  0
  5  6  2  0
  5  7  1  0
  7  8  1  0
  8  9  1  0
  9 10  1  0
 10 11  1  0
 11 12  1  0
 12 13  1  0
 13 14  2  0
 14 15  1  0
 15 16  2  0
 16 17  1  0
 16 18  1  0
 18 19  2  0
  2 20  1  0
 20 21  2  0
 21 22  1  0
 22 23  2  0
 23 24  1  0
 24 25  2  0
 25 26  1  0
 26 27  2  0
 27 28  1  0
 28 29  2  0
 12  7  1  0
 19 13  1  0
 29 20  1  0
 28 23  1  0
  3 30  1  0
  4 31  1  0
  4 32  1  0
  8 33  1  0
  8 34  1  0
  9 35  1  0
  9 36  1  0
 10 37  1  0
 10 38  1  0
 11 39  1  0
 11 40  1  0
 12 41  1  1
 14 42  1  0
 15 43  1  0
 18 44  1  0
 19 45  1  0
 21 46  1  0
 22 47  1  0
 24 48  1  0
 25 49  1  0
 26 50  1  0
 27 51  1  0
M  END
>  <smiles>  (2) 
O=C(NCC(=O)N1CCCCC1c1ccc(Cl)cc1)c1ccc2ccccc2n1

>  <score_type>  (2) 
oracle

>  <origin>  (2) 
autodockgpu

>  <m_score__min__energy>  (2) 
-8.7799999999999994

>  <m_primary>  (2) 
energy

>  <rmsd>  (2) 
2.102864118796429

>  <m_score__min__rmsd>  (2) 
2.102864118796429

>  <meeko>  (2) 
{"free_energy": -8.24, "intermolecular_energy": -9.74, "internal_energy": -2.18, "cluster_size": 23, "cluster_id": 3, "rank_in_cluster": 9}

>  <energy>  (2) 
-8.77

>  <cluster_rmsd>  (2) 
0.31

>  <cluster>  (2) 
1

$$$$

     RDKit          3D

 51 54  0  0  0  0  0  0  0  0999 V2000
  140.2650   74.4440  222.3160 O   0  0  0  0  0  0  0  0  0  0  0  0
  140.2170   75.4850  221.5980 C   0  0  0  0  0  0  0  0  0  0  0  0
  140.1840   75.2880  220.1960 N   0  0  0  0  0  0  0  0  0  0  0  0
  140.2020   73.9890  219.6030 C   0  0  0  0  0  0  0  0  0  0  0  0
  141.4580   73.6920  218.8790 C   0  0  0  0  0  0  0  0  0  0  0  0
  141.3420   73.5030  217.6200 O   0  0  0  0  0  0  0  0  0  0  0  0
  142.6780   73.6280  219.5650 N   0  0  0  0  0  0  0  0  0  0  0  0
  142.8760   72.6250  220.6230 C   0  0  0  0  0  0  0  0  0  0  0  0
  144.3130   72.1540  220.5410 C   0  0  0  0  0  0  0  0  0  0  0  0
  145.2950   73.2740  220.6180 C   0  0  0  0  0  0  0  0  0  0  0  0
  144.6390   74.6350  220.4710 C   0  0  0  0  0  0  0  0  0  0  0  0
  143.7300   74.5380  219.2370 C   0  0  2  0  0  0  0  0  0  0  0  0
  143.2700   75.8880  218.8230 C   0  0  0  0  0  0  0  0  0  0  0  0
  143.3430   76.2300  217.4860 C   0  0  0  0  0  0  0  0  0  0  0  0
  142.9240   77.4730  217.0690 C   0  0  0  0  0  0  0  0  0  0  0  0
  142.4340   78.3560  218.0240 C   0  0  0  0  0  0  0  0  0  0  0  0
  141.9060   79.9430  217.4590 Cl  0  0  0  0  0  0  0  0  0  0  0  0
  142.3660   78.0050  219.3550 C   0  0  0  0  0  0  0  0  0  0  0  0
  142.7880   76.7470  219.7880 C   0  0  0  0  0  0  0  0  0  0  0  0
  140.1980   76.8330  222.1550 C   0  0  0  0  0  0  0  0  0  0  0  0
  139.0120   77.4120  222.5440 C   0  0  0  0  0  0  0  0  0  0  0  0
  139.0780   78.6910  223.0600 C   0  0  0  0  0  0  0  0  0  0  0  0
  140.2600   79.3870  223.1950 C   0  0  0  0  0  0  0  0  0  0  0  0
  140.3260   80.6690  223.7140 C   0  0  0  0  0  0  0  0  0  0  0  0
  141.5670   81.2640  223.8000 C   0  0  0  0  0  0  0  0  0  0  0  0
  142.7270   80.6310  223.3930 C   0  0  0  0  0  0  0  0  0  0  0  0
  142.6660   79.3450  222.8730 C   0  0  0  0  0  0  0  0  0  0  0  0
  141.4190   78.7610  222.7920 C   0  0  0  0  0  0  0  0  0  0  0  0
  141.3450   77.5160  222.2900 N   0  0  0  0  0  0  0  0  0  0  0  0
  140.1450   76.1570  219.6060 H   0  0  0  0  0  0  0  0  0  0  0  0
  140.0725   73.2405  220.3986 H   0  0  0  0  0  0  0  0  0  0  0  0
  139.3862   73.9567  218.8658 H   0  0  0  0  0  0  0  0  0  0  0  0
  142.6841   73.0754  221.6081 H   0  0  0  0  0  0  0  0  0  0  0  0
  142.1835   71.7806  220.4907 H   0  0  0  0  0  0  0  0  0  0  0  0
  144.5038   71.4617  221.3743 H   0  0  0  0  0  0  0  0  0  0  0  0
  144.4454   71.6648  219.5647 H   0  0  0  0  0  0  0  0  0  0  0  0
  145.8031   73.2310  221.5927 H   0  0  0  0  0  0  0  0  0  0  0  0
  146.0042   73.1538  219.7858 H   0  0  0  0  0  0  0  0  0  0  0  0
  144.0443   74.8709  221.3658 H   0  0  0  0  0  0  0  0  0  0  0  0
  145.3882   75.4322  220.3568 H   0  0  0  0  0  0  0  0  0  0  0  0
  144.2600   74.1463  218.3563 H   0  0  0  0  0  0  0  0  0  0  0  0
  143.7362   75.5085  216.7547 H   0  0  0  0  0  0  0  0  0  0  0  0
  142.9755   77.7599  216.0083 H   0  0  0  0  0  0  0  0  0  0  0  0
  141.9735   78.7266  220.0866 H   0  0  0  0  0  0  0  0  0  0  0  0
  142.7385   76.4550  220.8474 H   0  0  0  0  0  0  0  0  0  0  0  0
  138.0541   76.8798  222.4482 H   0  0  0  0  0  0  0  0  0  0  0  0
  138.1439   79.1771  223.3781 H   0  0  0  0  0  0  0  0  0  0  0  0
  139.4190   81.1951  224.0465 H   0  0  0  0  0  0  0  0  0  0  0  0
  141.6369   82.2829  224.2087 H   0  0  0  0  0  0  0  0  0  0  0  0
  143.6956   81.1449  223.4810 H   0  0  0  0  0  0  0  0  0  0  0  0
  143.5713   78.8158  222.5406 H   0  0  0  0  0  0  0  0  0  0  0  0
  1  2  2  0
  2  3  1  0
  3  4  1  0
  4  5  1  0
  5  6  2  0
  5  7  1  0
  7  8  1  0
  8  9  1  0
  9 10  1  0
 10 11  1  0
 11 12  1  0
 12 13  1  0
 13 14  2  0
 14 15  1  0
 15 16  2  0
 16 17  1  0
 16 18  1  0
 18 19  2  0
  2 20  1  0
 20 21  2  0
 21 22  1  0
 22 23  2  0
 23 24  1  0
 24 25  2  0
 25 26  1  0
 26 27  2  0
 27 28  1  0
 28 29  2  0
 12  7  1  0
 19 13  1  0
 29 20  1  0
 28 23  1  0
  3 30  1  0
  4 31  1  0
  4 32  1  0
  8 33  1  0
  8 34  1  0
  9 35  1  0
  9 36  1  0
 10 37  1  0
 10 38  1  0
 11 39  1  0
 11 40  1  0
 12 41  1  6
 14 42  1  0
 15 43  1  0
 18 44  1  0
 19 45  1  0
 21 46  1  0
 22 47  1  0
 24 48  1  0
 25 49  1  0
 26 50  1  0
 27 51  1  0
M  END
>  <smiles>  (3) 
O=C(NCC(=O)N1CCCCC1c1ccc(Cl)cc1)c1ccc2ccccc2n1

>  <score_type>  (3) 
oracle

>  <origin>  (3) 
autodockgpu

>  <m_score__min__energy>  (3) 
-8.7799999999999994

>  <m_primary>  (3) 
energy

>  <rmsd>  (3) 
7.424012909061715

>  <m_score__min__rmsd>  (3) 
7.424012909061715

>  <meeko>  (3) 
{"free_energy": -7.71, "intermolecular_energy": -9.2, "internal_energy": -2.47, "cluster_size": 5, "cluster_id": 5, "rank_in_cluster": 3}

>  <energy>  (3) 
-8.76

>  <cluster_rmsd>  (3) 
0.2

>  <cluster>  (3) 
1

$$$$

     RDKit          3D

 51 54  0  0  0  0  0  0  0  0999 V2000
  140.9140   71.4610  221.2830 O   0  0  0  0  0  0  0  0  0  0  0  0
  140.4630   72.0180  222.3270 C   0  0  0  0  0  0  0  0  0  0  0  0
  140.1630   73.3990  222.2310 N   0  0  0  0  0  0  0  0  0  0  0  0
  140.3540   74.1430  221.0270 C   0  0  0  0  0  0  0  0  0  0  0  0
  140.7660   75.5460  221.2630 C   0  0  0  0  0  0  0  0  0  0  0  0
  140.5880   75.9840  222.4510 O   0  0  0  0  0  0  0  0  0  0  0  0
  141.3100   76.3120  220.2250 N   0  0  0  0  0  0  0  0  0  0  0  0
  140.5270   77.4050  219.6280 C   0  0  0  0  0  0  0  0  0  0  0  0
  141.4880   78.5280  219.2980 C   0  0  0  0  0  0  0  0  0  0  0  0
  142.6180   78.0870  218.4290 C   0  0  0  0  0  0  0  0  0  0  0  0
  142.7070   76.5760  218.3130 C   0  0  0  0  0  0  0  0  0  0  0  0
  142.6280   76.0330  219.7460 C   0  0  2  0  0  0  0  0  0  0  0  0
  143.0030   74.5960  219.7790 C   0  0  0  0  0  0  0  0  0  0  0  0
  142.5200   73.7630  218.7880 C   0  0  0  0  0  0  0  0  0  0  0  0
  142.8500   72.4270  218.7900 C   0  0  0  0  0  0  0  0  0  0  0  0
  143.6730   71.9550  219.8060 C   0  0  0  0  0  0  0  0  0  0  0  0
  144.0780   70.2360  219.7820 Cl  0  0  0  0  0  0  0  0  0  0  0  0
  144.1490   72.7950  220.7900 C   0  0  0  0  0  0  0  0  0  0  0  0
  143.8210   74.1510  220.7970 C   0  0  0  0  0  0  0  0  0  0  0  0
  140.2520   71.3020  223.5790 C   0  0  0  0  0  0  0  0  0  0  0  0
  139.6090   70.0860  223.5900 C   0  0  0  0  0  0  0  0  0  0  0  0
  139.4470   69.4720  224.8170 C   0  0  0  0  0  0  0  0  0  0  0  0
  139.8950   70.0230  225.9970 C   0  0  0  0  0  0  0  0  0  0  0  0
  139.7340   69.4070  227.2270 C   0  0  0  0  0  0  0  0  0  0  0  0
  140.2250   70.0570  228.3400 C   0  0  0  0  0  0  0  0  0  0  0  0
  140.8640   71.2810  228.2670 C   0  0  0  0  0  0  0  0  0  0  0  0
  141.0290   71.9020  227.0370 C   0  0  0  0  0  0  0  0  0  0  0  0
  140.5330   71.2430  225.9310 C   0  0  0  0  0  0  0  0  0  0  0  0
  140.6860   71.8320  224.7320 N   0  0  0  0  0  0  0  0  0  0  0  0
  139.7900   73.8540  223.1010 H   0  0  0  0  0  0  0  0  0  0  0  0
  141.1329   73.6464  220.4298 H   0  0  0  0  0  0  0  0  0  0  0  0
  139.3860   74.1716  220.5053 H   0  0  0  0  0  0  0  0  0  0  0  0
  140.0309   77.0539  218.7111 H   0  0  0  0  0  0  0  0  0  0  0  0
  139.7519   77.7521  220.3271 H   0  0  0  0  0  0  0  0  0  0  0  0
  140.9339   79.3228  218.7772 H   0  0  0  0  0  0  0  0  0  0  0  0
  141.9189   78.8837  220.2456 H   0  0  0  0  0  0  0  0  0  0  0  0
  142.4758   78.5102  217.4237 H   0  0  0  0  0  0  0  0  0  0  0  0
  143.5518   78.4424  218.8891 H   0  0  0  0  0  0  0  0  0  0  0  0
  141.8708   76.1895  217.7118 H   0  0  0  0  0  0  0  0  0  0  0  0
  143.6383   76.2655  217.8167 H   0  0  0  0  0  0  0  0  0  0  0  0
  143.3487   76.5210  220.4186 H   0  0  0  0  0  0  0  0  0  0  0  0
  141.8715   74.1679  217.9972 H   0  0  0  0  0  0  0  0  0  0  0  0
  142.4727   71.7508  218.0087 H   0  0  0  0  0  0  0  0  0  0  0  0
  144.7970   72.3901  221.5813 H   0  0  0  0  0  0  0  0  0  0  0  0
  144.1960   74.8316  221.5756 H   0  0  0  0  0  0  0  0  0  0  0  0
  139.2401   69.6230  222.6629 H   0  0  0  0  0  0  0  0  0  0  0  0
  138.9367   68.4982  224.8531 H   0  0  0  0  0  0  0  0  0  0  0  0
  139.2315   68.4323  227.3133 H   0  0  0  0  0  0  0  0  0  0  0  0
  140.1034   69.5827  229.3250 H   0  0  0  0  0  0  0  0  0  0  0  0
  141.2408   71.7615  229.1820 H   0  0  0  0  0  0  0  0  0  0  0  0
  141.5326   72.8759  226.9478 H   0  0  0  0  0  0  0  0  0  0  0  0
  1  2  2  0
  2  3  1  0
  3  4  1  0
  4  5  1  0
  5  6  2  0
  5  7  1  0
  7  8  1  0
  8  9  1  0
  9 10  1  0
 10 11  1  0
 11 12  1  0
 12 13  1  0
 13 14  2  0
 14 15  1  0
 15 16  2  0
 16 17  1  0
 16 18  1  0
 18 19  2  0
  2 20  1  0
 20 21  2  0
 21 22  1  0
 22 23  2  0
 23 24  1  0
 24 25  2  0
 25 26  1  0
 26 27  2  0
 27 28  1  0
 28 29  2  0
 12  7  1  0
 19 13  1  0
 29 20  1  0
 28 23  1  0
  3 30  1  0
  4 31  1  0
  4 32  1  0
  8 33  1  0
  8 34  1  0
  9 35  1  0
  9 36  1  0
 10 37  1  0
 10 38  1  0
 11 39  1  0
 11 40  1  0
 12 41  1  1
 14 42  1  0
 15 43  1  0
 18 44  1  0
 19 45  1  0
 21 46  1  0
 22 47  1  0
 24 48  1  0
 25 49  1  0
 26 50  1  0
 27 51  1  0
M  END
>  <smiles>  (4) 
O=C(NCC(=O)N1CCCCC1c1ccc(Cl)cc1)c1ccc2ccccc2n1

>  <score_type>  (4) 
oracle

>  <origin>  (4) 
autodockgpu

>  <m_score__min__energy>  (4) 
-8.7799999999999994

>  <m_primary>  (4) 
energy

>  <rmsd>  (4) 
2.0846527841036715

>  <m_score__min__rmsd>  (4) 
2.0846527841036715

>  <meeko>  (4) 
{"free_energy": -8.2, "intermolecular_energy": -9.69, "internal_energy": -2.2, "cluster_size": 23, "cluster_id": 3, "rank_in_cluster": 16}

>  <energy>  (4) 
-8.73

>  <cluster_rmsd>  (4) 
0.22

>  <cluster>  (4) 
1

$$$$

     RDKit          3D

 51 54  0  0  0  0  0  0  0  0999 V2000
  141.1550   74.3730  221.3630 O   0  0  0  0  0  0  0  0  0  0  0  0
  140.1340   74.8110  221.9680 C   0  0  0  0  0  0  0  0  0  0  0  0
  139.1210   73.8670  222.2700 N   0  0  0  0  0  0  0  0  0  0  0  0
  139.2300   72.4880  221.9180 C   0  0  0  0  0  0  0  0  0  0  0  0
  138.1980   71.6370  222.5540 C   0  0  0  0  0  0  0  0  0  0  0  0
  137.3100   72.2560  223.2340 O   0  0  0  0  0  0  0  0  0  0  0  0
  138.2280   70.2460  222.3980 N   0  0  0  0  0  0  0  0  0  0  0  0
  137.1960   69.5730  221.5930 C   0  0  0  0  0  0  0  0  0  0  0  0
  137.8640   68.4290  220.8590 C   0  0  0  0  0  0  0  0  0  0  0  0
  138.5800   67.4940  221.7750 C   0  0  0  0  0  0  0  0  0  0  0  0
  138.7220   68.0490  223.1800 C   0  0  0  0  0  0  0  0  0  0  0  0
  139.2600   69.4780  223.0220 C   0  0  2  0  0  0  0  0  0  0  0  0
  139.7180   70.0100  224.3300 C   0  0  0  0  0  0  0  0  0  0  0  0
  139.1950   69.4620  225.4860 C   0  0  0  0  0  0  0  0  0  0  0  0
  139.5990   69.9320  226.7150 C   0  0  0  0  0  0  0  0  0  0  0  0
  140.5360   70.9590  226.7500 C   0  0  0  0  0  0  0  0  0  0  0  0
  141.0340   71.5410  228.3410 Cl  0  0  0  0  0  0  0  0  0  0  0  0
  141.0510   71.4980  225.5910 C   0  0  0  0  0  0  0  0  0  0  0  0
  140.6480   71.0290  224.3400 C   0  0  0  0  0  0  0  0  0  0  0  0
  139.9760   76.2100  222.3480 C   0  0  0  0  0  0  0  0  0  0  0  0
  138.7220   76.7650  222.4660 C   0  0  0  0  0  0  0  0  0  0  0  0
  138.6570   78.0960  222.8290 C   0  0  0  0  0  0  0  0  0  0  0  0
  139.7750   78.8650  223.0690 C   0  0  0  0  0  0  0  0  0  0  0  0
  139.7090   80.1990  223.4340 C   0  0  0  0  0  0  0  0  0  0  0  0
  140.8970   80.8660  223.6480 C   0  0  0  0  0  0  0  0  0  0  0  0
  142.1300   80.2540  223.5140 C   0  0  0  0  0  0  0  0  0  0  0  0
  142.2010   78.9160  223.1490 C   0  0  0  0  0  0  0  0  0  0  0  0
  141.0060   78.2600  222.9380 C   0  0  0  0  0  0  0  0  0  0  0  0
  141.0590   76.9640  222.5840 N   0  0  0  0  0  0  0  0  0  0  0  0
  138.2760   74.2380  222.7710 H   0  0  0  0  0  0  0  0  0  0  0  0
  139.1324   72.3978  220.8261 H   0  0  0  0  0  0  0  0  0  0  0  0
  140.2084   72.1366  222.2775 H   0  0  0  0  0  0  0  0  0  0  0  0
  136.4019   69.1858  222.2484 H   0  0  0  0  0  0  0  0  0  0  0  0
  136.7409   70.2767  220.8805 H   0  0  0  0  0  0  0  0  0  0  0  0
  137.0940   67.8647  220.3125 H   0  0  0  0  0  0  0  0  0  0  0  0
  138.6114   68.8634  220.1788 H   0  0  0  0  0  0  0  0  0  0  0  0
  138.0181   66.5496  221.8243 H   0  0  0  0  0  0  0  0  0  0  0  0
  139.5924   67.3428  221.3723 H   0  0  0  0  0  0  0  0  0  0  0  0
  137.7451   68.0628  223.6854 H   0  0  0  0  0  0  0  0  0  0  0  0
  139.3976   67.4308  223.7895 H   0  0  0  0  0  0  0  0  0  0  0  0
  140.1533   69.5194  222.3815 H   0  0  0  0  0  0  0  0  0  0  0  0
  138.4556   68.6499  225.4238 H   0  0  0  0  0  0  0  0  0  0  0  0
  139.1918   69.5068  227.6442 H   0  0  0  0  0  0  0  0  0  0  0  0
  141.7906   72.3099  225.6529 H   0  0  0  0  0  0  0  0  0  0  0  0
  141.0519   71.4509  223.4079 H   0  0  0  0  0  0  0  0  0  0  0  0
  137.8125   76.1750  222.2796 H   0  0  0  0  0  0  0  0  0  0  0  0
  137.6668   78.5640  222.9313 H   0  0  0  0  0  0  0  0  0  0  0  0
  138.7416   80.7096  223.5494 H   0  0  0  0  0  0  0  0  0  0  0  0
  140.8625   81.9269  223.9367 H   0  0  0  0  0  0  0  0  0  0  0  0
  143.0520   80.8256  223.6961 H   0  0  0  0  0  0  0  0  0  0  0  0
  143.1668   78.4023  223.0333 H   0  0  0  0  0  0  0  0  0  0  0  0
  1  2  2  0
  2  3  1  0
  3  4  1  0
  4  5  1  0
  5  6  2  0
  5  7  1  0
  7  8  1  0
  8  9  1  0
  9 10  1  0
 10 11  1  0
 11 12  1  0
 12 13  1  0
 13 14  2  0
 14 15  1  0
 15 16  2  0
 16 17  1  0
 16 18  1  0
 18 19  2  0
  2 20  1  0
 20 21  2  0
 21 22  1  0
 22 23  2  0
 23 24  1  0
 24 25  2  0
 25 26  1  0
 26 27  2  0
 27 28  1  0
 28 29  2  0
 12  7  1  0
 19 13  1  0
 29 20  1  0
 28 23  1  0
  3 30  1  0
  4 31  1  0
  4 32  1  0
  8 33  1  0
  8 34  1  0
  9 35  1  0
  9 36  1  0
 10 37  1  0
 10 38  1  0
 11 39  1  0
 11 40  1  0
 12 41  1  6
 14 42  1  0
 15 43  1  0
 18 44  1  0
 19 45  1  0
 21 46  1  0
 22 47  1  0
 24 48  1  0
 25 49  1  0
 26 50  1  0
 27 51  1  0
M  END
>  <smiles>  (5) 
O=C(NCC(=O)N1CCCCC1c1ccc(Cl)cc1)c1ccc2ccccc2n1

>  <score_type>  (5) 
oracle

>  <origin>  (5) 
autodockgpu

>  <m_score__min__energy>  (5) 
-8.7799999999999994

>  <m_primary>  (5) 
energy

>  <rmsd>  (5) 
8.17152683398572

>  <m_score__min__rmsd>  (5) 
8.17152683398572

>  <meeko>  (5) 
{"free_energy": -8.5, "intermolecular_energy": -9.99, "internal_energy": -1.86, "cluster_size": 4, "cluster_id": 2, "rank_in_cluster": 3}

>  <energy>  (5) 
-8.7

>  <cluster_rmsd>  (5) 
0.37

>  <cluster>  (5) 
1

$$$$

     RDKit          3D

 51 54  0  0  0  0  0  0  0  0999 V2000
  133.3020   70.0490  226.7130 O   0  0  0  0  0  0  0  0  0  0  0  0
  133.6760   71.1840  226.2960 C   0  0  0  0  0  0  0  0  0  0  0  0
  134.7280   71.1960  225.3460 N   0  0  0  0  0  0  0  0  0  0  0  0
  135.3460   70.0010  224.8720 C   0  0  0  0  0  0  0  0  0  0  0  0
  136.3790   70.2440  223.8380 C   0  0  0  0  0  0  0  0  0  0  0  0
  136.6040   71.4710  223.5570 O   0  0  0  0  0  0  0  0  0  0  0  0
  137.0430   69.1730  223.2290 N   0  0  0  0  0  0  0  0  0  0  0  0
  136.2720   68.1000  222.5810 C   0  0  0  0  0  0  0  0  0  0  0  0
  137.0400   67.6660  221.3500 C   0  0  0  0  0  0  0  0  0  0  0  0
  138.4430   67.2610  221.6560 C   0  0  0  0  0  0  0  0  0  0  0  0
  138.8660   67.6470  223.0620 C   0  0  0  0  0  0  0  0  0  0  0  0
  138.4720   69.1200  223.2380 C   0  0  2  0  0  0  0  0  0  0  0  0
  139.1020   69.6860  224.4570 C   0  0  0  0  0  0  0  0  0  0  0  0
  139.7790   70.8860  224.3560 C   0  0  0  0  0  0  0  0  0  0  0  0
  140.3740   71.4380  225.4670 C   0  0  0  0  0  0  0  0  0  0  0  0
  140.2700   70.7560  226.6740 C   0  0  0  0  0  0  0  0  0  0  0  0
  141.0440   71.4880  228.0830 Cl  0  0  0  0  0  0  0  0  0  0  0  0
  139.5930   69.5590  226.7640 C   0  0  0  0  0  0  0  0  0  0  0  0
  138.9850   68.9910  225.6430 C   0  0  0  0  0  0  0  0  0  0  0  0
  133.0770   72.4330  226.7510 C   0  0  0  0  0  0  0  0  0  0  0  0
  131.8960   72.4260  227.4550 C   0  0  0  0  0  0  0  0  0  0  0  0
  131.3930   73.6510  227.8490 C   0  0  0  0  0  0  0  0  0  0  0  0
  132.0180   74.8460  227.5680 C   0  0  0  0  0  0  0  0  0  0  0  0
  131.5150   76.0730  227.9630 C   0  0  0  0  0  0  0  0  0  0  0  0
  132.2310   77.2010  227.6230 C   0  0  0  0  0  0  0  0  0  0  0  0
  133.4160   77.1460  226.9120 C   0  0  0  0  0  0  0  0  0  0  0  0
  133.9250   75.9180  226.5130 C   0  0  0  0  0  0  0  0  0  0  0  0
  133.2000   74.7960  226.8600 C   0  0  0  0  0  0  0  0  0  0  0  0
  133.6810   73.6000  226.4810 N   0  0  0  0  0  0  0  0  0  0  0  0
  135.0330   72.1420  225.0050 H   0  0  0  0  0  0  0  0  0  0  0  0
  135.8187   69.4910  225.7243 H   0  0  0  0  0  0  0  0  0  0  0  0
  134.5582   69.3899  224.4072 H   0  0  0  0  0  0  0  0  0  0  0  0
  136.1575   67.2508  223.2708 H   0  0  0  0  0  0  0  0  0  0  0  0
  135.2686   68.4566  222.3054 H   0  0  0  0  0  0  0  0  0  0  0  0
  136.5190   66.8111  220.8942 H   0  0  0  0  0  0  0  0  0  0  0  0
  137.0856   68.5276  220.6676 H   0  0  0  0  0  0  0  0  0  0  0  0
  138.5262   66.1693  221.5498 H   0  0  0  0  0  0  0  0  0  0  0  0
  139.1040   67.7874  220.9517 H   0  0  0  0  0  0  0  0  0  0  0  0
  138.3451   67.0218  223.8022 H   0  0  0  0  0  0  0  0  0  0  0  0
  139.9460   67.5003  223.2104 H   0  0  0  0  0  0  0  0  0  0  0  0
  138.8441   69.7531  222.4190 H   0  0  0  0  0  0  0  0  0  0  0  0
  139.8425   71.4009  223.3860 H   0  0  0  0  0  0  0  0  0  0  0  0
  140.9169   72.3925  225.4020 H   0  0  0  0  0  0  0  0  0  0  0  0
  139.5308   69.0434  227.7337 H   0  0  0  0  0  0  0  0  0  0  0  0
  138.4401   68.0373  225.7024 H   0  0  0  0  0  0  0  0  0  0  0  0
  131.3749   71.4871  227.6938 H   0  0  0  0  0  0  0  0  0  0  0  0
  130.4492   73.6731  228.4136 H   0  0  0  0  0  0  0  0  0  0  0  0
  130.5749   76.1460  228.5295 H   0  0  0  0  0  0  0  0  0  0  0  0
  131.8443   78.1841  227.9295 H   0  0  0  0  0  0  0  0  0  0  0  0
  133.9536   78.0729  226.6634 H   0  0  0  0  0  0  0  0  0  0  0  0
  134.8643   75.8423  225.9456 H   0  0  0  0  0  0  0  0  0  0  0  0
  1  2  2  0
  2  3  1  0
  3  4  1  0
  4  5  1  0
  5  6  2  0
  5  7  1  0
  7  8  1  0
  8  9  1  0
  9 10  1  0
 10 11  1  0
 11 12  1  0
 12 13  1  0
 13 14  2  0
 14 15  1  0
 15 16  2  0
 16 17  1  0
 16 18  1  0
 18 19  2  0
  2 20  1  0
 20 21  2  0
 21 22  1  0
 22 23  2  0
 23 24  1  0
 24 25  2  0
 25 26  1  0
 26 27  2  0
 27 28  1  0
 28 29  2  0
 12  7  1  0
 19 13  1  0
 29 20  1  0
 28 23  1  0
  3 30  1  0
  4 31  1  0
  4 32  1  0
  8 33  1  0
  8 34  1  0
  9 35  1  0
  9 36  1  0
 10 37  1  0
 10 38  1  0
 11 39  1  0
 11 40  1  0
 12 41  1  6
 14 42  1  0
 15 43  1  0
 18 44  1  0
 19 45  1  0
 21 46  1  0
 22 47  1  0
 24 48  1  0
 25 49  1  0
 26 50  1  0
 27 51  1  0
M  END
>  <smiles>  (6) 
O=C(NCC(=O)N1CCCCC1c1ccc(Cl)cc1)c1ccc2ccccc2n1

>  <score_type>  (6) 
oracle

>  <origin>  (6) 
autodockgpu

>  <m_score__min__energy>  (6) 
-8.7799999999999994

>  <m_primary>  (6) 
energy

>  <rmsd>  (6) 
8.903313384008065

>  <m_score__min__rmsd>  (6) 
8.903313384008065

>  <meeko>  (6) 
{"free_energy": -8.25, "intermolecular_energy": -9.75, "internal_energy": -2.25, "cluster_size": 5, "cluster_id": 4, "rank_in_cluster": 2}

>  <energy>  (6) 
-8.67

>  <cluster_rmsd>  (6) 
0.18

>  <cluster>  (6) 
1

$$$$

     RDKit          3D

 51 54  0  0  0  0  0  0  0  0999 V2000
  141.0010   71.7170  221.3670 O   0  0  0  0  0  0  0  0  0  0  0  0
  140.4420   72.1830  222.4020 C   0  0  0  0  0  0  0  0  0  0  0  0
  140.0290   73.5370  222.3450 N   0  0  0  0  0  0  0  0  0  0  0  0
  140.2250   74.3510  221.1890 C   0  0  0  0  0  0  0  0  0  0  0  0
  140.6580   75.7300  221.5070 C   0  0  0  0  0  0  0  0  0  0  0  0
  140.3880   76.1380  222.6890 O   0  0  0  0  0  0  0  0  0  0  0  0
  141.3180   76.5090  220.5490 N   0  0  0  0  0  0  0  0  0  0  0  0
  142.5680   76.0260  219.9410 C   0  0  0  0  0  0  0  0  0  0  0  0
  142.5660   76.4570  218.4890 C   0  0  0  0  0  0  0  0  0  0  0  0
  142.3750   77.9270  218.3220 C   0  0  0  0  0  0  0  0  0  0  0  0
  141.9430   78.6080  219.6080 C   0  0  0  0  0  0  0  0  0  0  0  0
  140.7780   77.7740  220.1610 C   0  0  2  0  0  0  0  0  0  0  0  0
  140.0840   78.5080  221.2500 C   0  0  0  0  0  0  0  0  0  0  0  0
  140.8460   79.1880  222.1800 C   0  0  0  0  0  0  0  0  0  0  0  0
  140.2340   79.8780  223.2010 C   0  0  0  0  0  0  0  0  0  0  0  0
  138.8450   79.8660  223.2610 C   0  0  0  0  0  0  0  0  0  0  0  0
  138.0880   80.7600  224.5830 Cl  0  0  0  0  0  0  0  0  0  0  0  0
  138.0940   79.1840  222.3280 C   0  0  0  0  0  0  0  0  0  0  0  0
  138.7050   78.4820  221.2890 C   0  0  0  0  0  0  0  0  0  0  0  0
  140.2200   71.3930  223.6080 C   0  0  0  0  0  0  0  0  0  0  0  0
  139.5760   70.1800  223.5400 C   0  0  0  0  0  0  0  0  0  0  0  0
  139.4040   69.4940  224.7260 C   0  0  0  0  0  0  0  0  0  0  0  0
  139.8430   69.9720  225.9410 C   0  0  0  0  0  0  0  0  0  0  0  0
  139.6710   69.2840  227.1300 C   0  0  0  0  0  0  0  0  0  0  0  0
  140.1540   69.8640  228.2840 C   0  0  0  0  0  0  0  0  0  0  0  0
  140.7950   71.0900  228.2900 C   0  0  0  0  0  0  0  0  0  0  0  0
  140.9700   71.7840  227.1010 C   0  0  0  0  0  0  0  0  0  0  0  0
  140.4830   71.1930  225.9530 C   0  0  0  0  0  0  0  0  0  0  0  0
  140.6450   71.8530  224.7940 N   0  0  0  0  0  0  0  0  0  0  0  0
  139.5660   73.9170  223.2080 H   0  0  0  0  0  0  0  0  0  0  0  0
  140.9938   73.8810  220.5580 H   0  0  0  0  0  0  0  0  0  0  0  0
  139.2546   74.4257  220.6764 H   0  0  0  0  0  0  0  0  0  0  0  0
  143.4323   76.4643  220.4614 H   0  0  0  0  0  0  0  0  0  0  0  0
  142.6384   74.9311  220.0194 H   0  0  0  0  0  0  0  0  0  0  0  0
  143.5282   76.1742  218.0372 H   0  0  0  0  0  0  0  0  0  0  0  0
  141.7202   75.9553  217.9960 H   0  0  0  0  0  0  0  0  0  0  0  0
  143.3254   78.3706  217.9902 H   0  0  0  0  0  0  0  0  0  0  0  0
  141.5769   78.0777  217.5802 H   0  0  0  0  0  0  0  0  0  0  0  0
  142.7745   78.6269  220.3279 H   0  0  0  0  0  0  0  0  0  0  0  0
  141.6414   79.6506  219.4289 H   0  0  0  0  0  0  0  0  0  0  0  0
  139.9961   77.5964  219.4079 H   0  0  0  0  0  0  0  0  0  0  0  0
  141.9433   79.1779  222.1042 H   0  0  0  0  0  0  0  0  0  0  0  0
  140.8273   80.4241  223.9492 H   0  0  0  0  0  0  0  0  0  0  0  0
  136.9967   79.1934  222.4039 H   0  0  0  0  0  0  0  0  0  0  0  0
  138.1166   77.9347  220.5379 H   0  0  0  0  0  0  0  0  0  0  0  0
  139.2141   69.7743  222.5837 H   0  0  0  0  0  0  0  0  0  0  0  0
  138.8926   68.5205  224.6993 H   0  0  0  0  0  0  0  0  0  0  0  0
  139.1658   68.3071  227.1534 H   0  0  0  0  0  0  0  0  0  0  0  0
  140.0246   69.3309  229.2374 H   0  0  0  0  0  0  0  0  0  0  0  0
  141.1652   71.5138  229.2352 H   0  0  0  0  0  0  0  0  0  0  0  0
  141.4743   72.7613  227.0748 H   0  0  0  0  0  0  0  0  0  0  0  0
  1  2  2  0
  2  3  1  0
  3  4  1  0
  4  5  1  0
  5  6  2  0
  5  7  1  0
  7  8  1  0
  8  9  1  0
  9 10  1  0
 10 11  1  0
 11 12  1  0
 12 13  1  0
 13 14  2  0
 14 15  1  0
 15 16  2  0
 16 17  1  0
 16 18  1  0
 18 19  2  0
  2 20  1  0
 20 21  2  0
 21 22  1  0
 22 23  2  0
 23 24  1  0
 24 25  2  0
 25 26  1  0
 26 27  2  0
 27 28  1  0
 28 29  2  0
 12  7  1  0
 19 13  1  0
 29 20  1  0
 28 23  1  0
  3 30  1  0
  4 31  1  0
  4 32  1  0
  8 33  1  0
  8 34  1  0
  9 35  1  0
  9 36  1  0
 10 37  1  0
 10 38  1  0
 11 39  1  0
 11 40  1  0
 12 41  1  6
 14 42  1  0
 15 43  1  0
 18 44  1  0
 19 45  1  0
 21 46  1  0
 22 47  1  0
 24 48  1  0
 25 49  1  0
 26 50  1  0
 27 51  1  0
M  END
>  <smiles>  (7) 
O=C(NCC(=O)N1CCCCC1c1ccc(Cl)cc1)c1ccc2ccccc2n1

>  <score_type>  (7) 
oracle

>  <origin>  (7) 
autodockgpu

>  <m_score__min__energy>  (7) 
-8.7799999999999994

>  <m_primary>  (7) 
energy

>  <rmsd>  (7) 
2.1877532842367238

>  <m_score__min__rmsd>  (7) 
2.1877532842367238

>  <meeko>  (7) 
{"free_energy": -8.67, "intermolecular_energy": -10.16, "internal_energy": -1.72, "cluster_size": 11, "cluster_id": 1, "rank_in_cluster": 6}

>  <energy>  (7) 
-8.66

>  <cluster_rmsd>  (7) 
1.0

>  <cluster>  (7) 
1

$$$$

     RDKit          3D

 51 54  0  0  0  0  0  0  0  0999 V2000
  139.9950   74.4770  222.2450 O   0  0  0  0  0  0  0  0  0  0  0  0
  140.1850   75.5090  221.5380 C   0  0  0  0  0  0  0  0  0  0  0  0
  140.3650   75.3010  220.1470 N   0  0  0  0  0  0  0  0  0  0  0  0
  140.3370   74.0020  219.5570 C   0  0  0  0  0  0  0  0  0  0  0  0
  141.6010   73.6380  218.8760 C   0  0  0  0  0  0  0  0  0  0  0  0
  141.4960   73.3240  217.6410 O   0  0  0  0  0  0  0  0  0  0  0  0
  142.8140   73.6490  219.5750 N   0  0  0  0  0  0  0  0  0  0  0  0
  143.0350   72.7070  220.6820 C   0  0  0  0  0  0  0  0  0  0  0  0
  144.4880   72.2800  220.6360 C   0  0  0  0  0  0  0  0  0  0  0  0
  145.4310   73.4350  220.6670 C   0  0  0  0  0  0  0  0  0  0  0  0
  144.7320   74.7640  220.4470 C   0  0  0  0  0  0  0  0  0  0  0  0
  143.8390   74.5770  219.2120 C   0  0  2  0  0  0  0  0  0  0  0  0
  143.3400   75.8890  218.7270 C   0  0  0  0  0  0  0  0  0  0  0  0
  143.3350   76.1340  217.3680 C   0  0  0  0  0  0  0  0  0  0  0  0
  142.8780   77.3400  216.8860 C   0  0  0  0  0  0  0  0  0  0  0  0
  142.4280   78.2850  217.8020 C   0  0  0  0  0  0  0  0  0  0  0  0
  141.8490   79.8220  217.1540 Cl  0  0  0  0  0  0  0  0  0  0  0  0
  142.4380   78.0300  219.1560 C   0  0  0  0  0  0  0  0  0  0  0  0
  142.8990   76.8100  219.6540 C   0  0  0  0  0  0  0  0  0  0  0  0
  140.2230   76.8570  222.0930 C   0  0  0  0  0  0  0  0  0  0  0  0
  139.0690   77.4670  222.5250 C   0  0  0  0  0  0  0  0  0  0  0  0
  139.1880   78.7450  223.0370 C   0  0  0  0  0  0  0  0  0  0  0  0
  140.3920   79.4080  223.1280 C   0  0  0  0  0  0  0  0  0  0  0  0
  140.5130   80.6870  223.6420 C   0  0  0  0  0  0  0  0  0  0  0  0
  141.7720   81.2490  223.6820 C   0  0  0  0  0  0  0  0  0  0  0  0
  142.8990   80.5840  223.2320 C   0  0  0  0  0  0  0  0  0  0  0  0
  142.7830   79.3000  222.7160 C   0  0  0  0  0  0  0  0  0  0  0  0
  141.5190   78.7500  222.6820 C   0  0  0  0  0  0  0  0  0  0  0  0
  141.3920   77.5080  222.1840 N   0  0  0  0  0  0  0  0  0  0  0  0
  140.5220   76.1620  219.5660 H   0  0  0  0  0  0  0  0  0  0  0  0
  140.1423   73.2636  220.3487 H   0  0  0  0  0  0  0  0  0  0  0  0
  139.5465   74.0097  218.7921 H   0  0  0  0  0  0  0  0  0  0  0  0
  142.8186   73.1987  221.6419 H   0  0  0  0  0  0  0  0  0  0  0  0
  142.3723   71.8344  220.5852 H   0  0  0  0  0  0  0  0  0  0  0  0
  144.6927   71.6358  221.5038 H   0  0  0  0  0  0  0  0  0  0  0  0
  144.6470   71.7480  219.6864 H   0  0  0  0  0  0  0  0  0  0  0  0
  145.9294   73.4569  221.6474 H   0  0  0  0  0  0  0  0  0  0  0  0
  146.1529   73.2983  219.8484 H   0  0  0  0  0  0  0  0  0  0  0  0
  144.1209   75.0236  221.3240 H   0  0  0  0  0  0  0  0  0  0  0  0
  145.4560   75.5789  220.2994 H   0  0  0  0  0  0  0  0  0  0  0  0
  144.3905   74.1605  218.3562 H   0  0  0  0  0  0  0  0  0  0  0  0
  143.6966   75.3648  216.6698 H   0  0  0  0  0  0  0  0  0  0  0  0
  142.8690   77.5503  215.8063 H   0  0  0  0  0  0  0  0  0  0  0  0
  142.0774   78.7991  219.8549 H   0  0  0  0  0  0  0  0  0  0  0  0
  142.9100   76.5940  220.7325 H   0  0  0  0  0  0  0  0  0  0  0  0
  138.0945   76.9603  222.4657 H   0  0  0  0  0  0  0  0  0  0  0  0
  138.2795   79.2564  223.3880 H   0  0  0  0  0  0  0  0  0  0  0  0
  139.6335   81.2378  224.0069 H   0  0  0  0  0  0  0  0  0  0  0  0
  141.8846   82.2654  224.0874 H   0  0  0  0  0  0  0  0  0  0  0  0
  143.8840   81.0711  223.2829 H   0  0  0  0  0  0  0  0  0  0  0  0
  143.6604   78.7463  222.3506 H   0  0  0  0  0  0  0  0  0  0  0  0
  1  2  2  0
  2  3  1  0
  3  4  1  0
  4  5  1  0
  5  6  2  0
  5  7  1  0
  7  8  1  0
  8  9  1  0
  9 10  1  0
 10 11  1  0
 11 12  1  0
 12 13  1  0
 13 14  2  0
 14 15  1  0
 15 16  2  0
 16 17  1  0
 16 18  1  0
 18 19  2  0
  2 20  1  0
 20 21  2  0
 21 22  1  0
 22 23  2  0
 23 24  1  0
 24 25  2  0
 25 26  1  0
 26 27  2  0
 27 28  1  0
 28 29  2  0
 12  7  1  0
 19 13  1  0
 29 20  1  0
 28 23  1  0
  3 30  1  0
  4 31  1  0
  4 32  1  0
  8 33  1  0
  8 34  1  0
  9 35  1  0
  9 36  1  0
 10 37  1  0
 10 38  1  0
 11 39  1  0
 11 40  1  0
 12 41  1  6
 14 42  1  0
 15 43  1  0
 18 44  1  0
 19 45  1  0
 21 46  1  0
 22 47  1  0
 24 48  1  0
 25 49  1  0
 26 50  1  0
 27 51  1  0
M  END
>  <smiles>  (8) 
O=C(NCC(=O)N1CCCCC1c1ccc(Cl)cc1)c1ccc2ccccc2n1

>  <score_type>  (8) 
oracle

>  <origin>  (8) 
autodockgpu

>  <m_score__min__energy>  (8) 
-8.7799999999999994

>  <m_primary>  (8) 
energy

>  <rmsd>  (8) 
7.477664131058212

>  <m_score__min__rmsd>  (8) 
7.477664131058212

>  <meeko>  (8) 
{"free_energy": -7.61, "intermolecular_energy": -9.1, "internal_energy": -2.48, "cluster_size": 5, "cluster_id": 5, "rank_in_cluster": 5}

>  <energy>  (8) 
-8.57

>  <cluster_rmsd>  (8) 
0.93

>  <cluster>  (8) 
1

$$$$

     RDKit          3D

 51 54  0  0  0  0  0  0  0  0999 V2000
  141.1850   71.8350  221.2280 O   0  0  0  0  0  0  0  0  0  0  0  0
  140.5220   72.2990  222.2010 C   0  0  0  0  0  0  0  0  0  0  0  0
  140.0580   73.6320  222.0730 N   0  0  0  0  0  0  0  0  0  0  0  0
  140.3160   74.4260  220.9150 C   0  0  0  0  0  0  0  0  0  0  0  0
  140.9640   75.7210  221.2240 C   0  0  0  0  0  0  0  0  0  0  0  0
  141.0960   75.9940  222.4660 O   0  0  0  0  0  0  0  0  0  0  0  0
  141.3930   76.5670  220.1930 N   0  0  0  0  0  0  0  0  0  0  0  0
  140.4870   77.5970  219.6610 C   0  0  0  0  0  0  0  0  0  0  0  0
  141.3240   78.8160  219.3350 C   0  0  0  0  0  0  0  0  0  0  0  0
  142.4550   78.5120  218.4110 C   0  0  0  0  0  0  0  0  0  0  0  0
  142.6820   77.0200  218.2410 C   0  0  0  0  0  0  0  0  0  0  0  0
  142.7110   76.4290  219.6570 C   0  0  2  0  0  0  0  0  0  0  0  0
  143.2220   75.0350  219.6290 C   0  0  0  0  0  0  0  0  0  0  0  0
  142.6460   74.1370  218.7510 C   0  0  0  0  0  0  0  0  0  0  0  0
  143.0970   72.8380  218.6990 C   0  0  0  0  0  0  0  0  0  0  0  0
  144.1350   72.4690  219.5480 C   0  0  0  0  0  0  0  0  0  0  0  0
  144.6910   70.7950  219.4590 Cl  0  0  0  0  0  0  0  0  0  0  0  0
  144.7020   73.3720  220.4200 C   0  0  0  0  0  0  0  0  0  0  0  0
  144.2520   74.6920  220.4790 C   0  0  0  0  0  0  0  0  0  0  0  0
  140.2330   71.5290  223.4050 C   0  0  0  0  0  0  0  0  0  0  0  0
  139.4830   70.3780  223.3350 C   0  0  0  0  0  0  0  0  0  0  0  0
  139.2530   69.7060  224.5190 C   0  0  0  0  0  0  0  0  0  0  0  0
  139.7360   70.1390  225.7350 C   0  0  0  0  0  0  0  0  0  0  0  0
  139.5060   69.4660  226.9220 C   0  0  0  0  0  0  0  0  0  0  0  0
  140.0410   69.9970  228.0770 C   0  0  0  0  0  0  0  0  0  0  0  0
  140.7890   71.1610  228.0850 C   0  0  0  0  0  0  0  0  0  0  0  0
  141.0230   71.8400  226.8970 C   0  0  0  0  0  0  0  0  0  0  0  0
  140.4820   71.2990  225.7490 C   0  0  0  0  0  0  0  0  0  0  0  0
  140.7000   71.9450  224.5910 N   0  0  0  0  0  0  0  0  0  0  0  0
  139.5080   74.0110  222.8840 H   0  0  0  0  0  0  0  0  0  0  0  0
  140.9750   73.8578  220.2421 H   0  0  0  0  0  0  0  0  0  0  0  0
  139.3440   74.6510  220.4516 H   0  0  0  0  0  0  0  0  0  0  0  0
  139.9915   77.2275  218.7511 H   0  0  0  0  0  0  0  0  0  0  0  0
  139.7097   77.8470  220.3981 H   0  0  0  0  0  0  0  0  0  0  0  0
  140.6773   79.5699  218.8624 H   0  0  0  0  0  0  0  0  0  0  0  0
  141.7566   79.1818  220.2779 H   0  0  0  0  0  0  0  0  0  0  0  0
  142.2335   78.9496  217.4264 H   0  0  0  0  0  0  0  0  0  0  0  0
  143.3685   78.9415  218.8481 H   0  0  0  0  0  0  0  0  0  0  0  0
  141.8632   76.5734  217.6578 H   0  0  0  0  0  0  0  0  0  0  0  0
  143.6183   76.8152  217.7012 H   0  0  0  0  0  0  0  0  0  0  0  0
  143.4084   76.9632  220.3191 H   0  0  0  0  0  0  0  0  0  0  0  0
  141.8261   74.4608  218.0930 H   0  0  0  0  0  0  0  0  0  0  0  0
  142.6490   72.1115  218.0051 H   0  0  0  0  0  0  0  0  0  0  0  0
  145.5210   73.0483  221.0792 H   0  0  0  0  0  0  0  0  0  0  0  0
  144.6974   75.4229  221.1699 H   0  0  0  0  0  0  0  0  0  0  0  0
  139.0843   70.0094  222.3784 H   0  0  0  0  0  0  0  0  0  0  0  0
  138.6566   68.7822  224.4904 H   0  0  0  0  0  0  0  0  0  0  0  0
  138.9158   68.5380  226.9437 H   0  0  0  0  0  0  0  0  0  0  0  0
  139.8662   69.4746  229.0291 H   0  0  0  0  0  0  0  0  0  0  0  0
  141.1973   71.5475  229.0305 H   0  0  0  0  0  0  0  0  0  0  0  0
  141.6133   72.7678  226.8721 H   0  0  0  0  0  0  0  0  0  0  0  0
  1  2  2  0
  2  3  1  0
  3  4  1  0
  4  5  1  0
  5  6  2  0
  5  7  1  0
  7  8  1  0
  8  9  1  0
  9 10  1  0
 10 11  1  0
 11 12  1  0
 12 13  1  0
 13 14  2  0
 14 15  1  0
 15 16  2  0
 16 17  1  0
 16 18  1  0
 18 19  2  0
  2 20  1  0
 20 21  2  0
 21 22  1  0
 22 23  2  0
 23 24  1  0
 24 25  2  0
 25 26  1  0
 26 27  2  0
 27 28  1  0
 28 29  2  0
 12  7  1  0
 19 13  1  0
 29 20  1  0
 28 23  1  0
  3 30  1  0
  4 31  1  0
  4 32  1  0
  8 33  1  0
  8 34  1  0
  9 35  1  0
  9 36  1  0
 10 37  1  0
 10 38  1  0
 11 39  1  0
 11 40  1  0
 12 41  1  1
 14 42  1  0
 15 43  1  0
 18 44  1  0
 19 45  1  0
 21 46  1  0
 22 47  1  0
 24 48  1  0
 25 49  1  0
 26 50  1  0
 27 51  1  0
M  END
>  <smiles>  (9) 
O=C(NCC(=O)N1CCCCC1c1ccc(Cl)cc1)c1ccc2ccccc2n1

>  <score_type>  (9) 
oracle

>  <origin>  (9) 
autodockgpu

>  <m_score__min__energy>  (9) 
-8.7799999999999994

>  <m_primary>  (9) 
energy

>  <rmsd>  (9) 
2.1488732040578227

>  <m_score__min__rmsd>  (9) 
2.1488732040578227

>  <meeko>  (9) 
{"free_energy": -8.34, "intermolecular_energy": -9.83, "internal_energy": -2.02, "cluster_size": 23, "cluster_id": 3, "rank_in_cluster": 2}

>  <energy>  (9) 
-8.54

>  <cluster_rmsd>  (9) 
0.81

>  <cluster>  (9) 
1

$$$$

     RDKit          3D

 51 54  0  0  0  0  0  0  0  0999 V2000
  141.0620   74.3950  221.3030 O   0  0  0  0  0  0  0  0  0  0  0  0
  140.0610   74.8360  221.9380 C   0  0  0  0  0  0  0  0  0  0  0  0
  139.0460   73.8980  222.2540 N   0  0  0  0  0  0  0  0  0  0  0  0
  139.1320   72.5230  221.8840 C   0  0  0  0  0  0  0  0  0  0  0  0
  138.1600   71.6610  222.5950 C   0  0  0  0  0  0  0  0  0  0  0  0
  137.3120   72.2720  223.3310 O   0  0  0  0  0  0  0  0  0  0  0  0
  138.2000   70.2690  222.4460 N   0  0  0  0  0  0  0  0  0  0  0  0
  137.1630   69.5830  221.6600 C   0  0  0  0  0  0  0  0  0  0  0  0
  137.8300   68.4400  220.9230 C   0  0  0  0  0  0  0  0  0  0  0  0
  138.5680   67.5170  221.8330 C   0  0  0  0  0  0  0  0  0  0  0  0
  138.7250   68.0820  223.2340 C   0  0  0  0  0  0  0  0  0  0  0  0
  139.2480   69.5150  223.0590 C   0  0  2  0  0  0  0  0  0  0  0  0
  139.7200   70.0590  224.3580 C   0  0  0  0  0  0  0  0  0  0  0  0
  139.2070   69.5240  225.5240 C   0  0  0  0  0  0  0  0  0  0  0  0
  139.6240   70.0050  226.7450 C   0  0  0  0  0  0  0  0  0  0  0  0
  140.5640   71.0300  226.7600 C   0  0  0  0  0  0  0  0  0  0  0  0
  141.0790   71.6260  228.3410 Cl  0  0  0  0  0  0  0  0  0  0  0  0
  141.0680   71.5560  225.5910 C   0  0  0  0  0  0  0  0  0  0  0  0
  140.6520   71.0750  224.3490 C   0  0  0  0  0  0  0  0  0  0  0  0
  139.9260   76.2320  222.3390 C   0  0  0  0  0  0  0  0  0  0  0  0
  138.6840   76.8120  222.4450 C   0  0  0  0  0  0  0  0  0  0  0  0
  138.6410   78.1380  222.8280 C   0  0  0  0  0  0  0  0  0  0  0  0
  139.7710   78.8790  223.1010 C   0  0  0  0  0  0  0  0  0  0  0  0
  139.7280   80.2070  223.4870 C   0  0  0  0  0  0  0  0  0  0  0  0
  140.9260   80.8440  223.7340 C   0  0  0  0  0  0  0  0  0  0  0  0
  142.1480   80.2070  223.6110 C   0  0  0  0  0  0  0  0  0  0  0  0
  142.1960   78.8740  223.2250 C   0  0  0  0  0  0  0  0  0  0  0  0
  140.9910   78.2480  222.9810 C   0  0  0  0  0  0  0  0  0  0  0  0
  141.0220   76.9580  222.6070 N   0  0  0  0  0  0  0  0  0  0  0  0
  138.2180   74.2720  222.7810 H   0  0  0  0  0  0  0  0  0  0  0  0
  138.9459   72.4404  220.8030 H   0  0  0  0  0  0  0  0  0  0  0  0
  140.1381   72.1745  222.1603 H   0  0  0  0  0  0  0  0  0  0  0  0
  136.3816   69.1931  222.3288 H   0  0  0  0  0  0  0  0  0  0  0  0
  136.6921   70.2788  220.9500 H   0  0  0  0  0  0  0  0  0  0  0  0
  137.0567   67.8657  220.3918 H   0  0  0  0  0  0  0  0  0  0  0  0
  138.5633   68.8768  220.2291 H   0  0  0  0  0  0  0  0  0  0  0  0
  138.0159   66.5676  221.8956 H   0  0  0  0  0  0  0  0  0  0  0  0
  139.5758   67.3728  221.4164 H   0  0  0  0  0  0  0  0  0  0  0  0
  137.7553   68.0902  223.7532 H   0  0  0  0  0  0  0  0  0  0  0  0
  139.4143   67.4735  223.8378 H   0  0  0  0  0  0  0  0  0  0  0  0
  140.1314   69.5611  222.4052 H   0  0  0  0  0  0  0  0  0  0  0  0
  138.4650   68.7133  225.4769 H   0  0  0  0  0  0  0  0  0  0  0  0
  139.2248   69.5902  227.6823 H   0  0  0  0  0  0  0  0  0  0  0  0
  141.8094   72.3673  225.6372 H   0  0  0  0  0  0  0  0  0  0  0  0
  141.0482   71.4862  223.4088 H   0  0  0  0  0  0  0  0  0  0  0  0
  137.7653   76.2449  222.2341 H   0  0  0  0  0  0  0  0  0  0  0  0
  137.6593   78.6258  222.9195 H   0  0  0  0  0  0  0  0  0  0  0  0
  138.7700   80.7371  223.5933 H   0  0  0  0  0  0  0  0  0  0  0  0
  140.9093   81.9002  224.0409 H   0  0  0  0  0  0  0  0  0  0  0  0
  143.0790   80.7550  223.8184 H   0  0  0  0  0  0  0  0  0  0  0  0
  143.1523   78.3409  223.1185 H   0  0  0  0  0  0  0  0  0  0  0  0
  1  2  2  0
  2  3  1  0
  3  4  1  0
  4  5  1  0
  5  6  2  0
  5  7  1  0
  7  8  1  0
  8  9  1  0
  9 10  1  0
 10 11  1  0
 11 12  1  0
 12 13  1  0
 13 14  2  0
 14 15  1  0
 15 16  2  0
 16 17  1  0
 16 18  1  0
 18 19  2  0
  2 20  1  0
 20 21  2  0
 21 22  1  0
 22 23  2  0
 23 24  1  0
 24 25  2  0
 25 26  1  0
 26 27  2  0
 27 28  1  0
 28 29  2  0
 12  7  1  0
 19 13  1  0
 29 20  1  0
 28 23  1  0
  3 30  1  0
  4 31  1  0
  4 32  1  0
  8 33  1  0
  8 34  1  0
  9 35  1  0
  9 36  1  0
 10 37  1  0
 10 38  1  0
 11 39  1  0
 11 40  1  0
 12 41  1  6
 14 42  1  0
 15 43  1  0
 18 44  1  0
 19 45  1  0
 21 46  1  0
 22 47  1  0
 24 48  1  0
 25 49  1  0
 26 50  1  0
 27 51  1  0
M  END
>  <smiles>  (10) 
O=C(NCC(=O)N1CCCCC1c1ccc(Cl)cc1)c1ccc2ccccc2n1

>  <score_type>  (10) 
oracle

>  <origin>  (10) 
autodockgpu

>  <m_score__min__energy>  (10) 
-8.7799999999999994

>  <m_primary>  (10) 
energy

>  <rmsd>  (10) 
8.165687069583681

>  <m_score__min__rmsd>  (10) 
8.165687069583681

>  <meeko>  (10) 
{"free_energy": -8.46, "intermolecular_energy": -9.95, "internal_energy": -1.88, "cluster_size": 4, "cluster_id": 2, "rank_in_cluster": 4}

>  <energy>  (10) 
-8.4

>  <cluster_rmsd>  (10) 
1.12

>  <cluster>  (10) 
1

$$$$

     RDKit          3D

 51 54  0  0  0  0  0  0  0  0999 V2000
  139.4320   71.8410  221.0460 O   0  0  0  0  0  0  0  0  0  0  0  0
  140.0740   72.1590  222.0890 C   0  0  0  0  0  0  0  0  0  0  0  0
  140.8550   73.3380  222.0190 N   0  0  0  0  0  0  0  0  0  0  0  0
  140.9290   74.1410  220.8410 C   0  0  0  0  0  0  0  0  0  0  0  0
  141.3490   75.5360  221.1050 C   0  0  0  0  0  0  0  0  0  0  0  0
  141.4050   75.8740  222.3360 O   0  0  0  0  0  0  0  0  0  0  0  0
  141.6560   76.4000  220.0470 N   0  0  0  0  0  0  0  0  0  0  0  0
  140.6290   77.3110  219.5180 C   0  0  0  0  0  0  0  0  0  0  0  0
  141.3170   78.6070  219.1450 C   0  0  0  0  0  0  0  0  0  0  0  0
  142.4530   78.4090  218.1990 C   0  0  0  0  0  0  0  0  0  0  0  0
  142.8410   76.9480  218.0530 C   0  0  0  0  0  0  0  0  0  0  0  0
  142.9680   76.3960  219.4790 C   0  0  2  0  0  0  0  0  0  0  0  0
  143.6300   75.0670  219.4660 C   0  0  0  0  0  0  0  0  0  0  0  0
  143.3240   74.1860  218.4460 C   0  0  0  0  0  0  0  0  0  0  0  0
  143.9200   72.9470  218.4040 C   0  0  0  0  0  0  0  0  0  0  0  0
  144.8260   72.6190  219.4070 C   0  0  0  0  0  0  0  0  0  0  0  0
  145.5740   71.0220  219.3260 Cl  0  0  0  0  0  0  0  0  0  0  0  0
  145.1240   73.5060  220.4190 C   0  0  0  0  0  0  0  0  0  0  0  0
  144.5250   74.7650  220.4700 C   0  0  0  0  0  0  0  0  0  0  0  0
  140.0320   71.3720  223.3170 C   0  0  0  0  0  0  0  0  0  0  0  0
  139.4900   70.1090  223.3190 C   0  0  0  0  0  0  0  0  0  0  0  0
  139.4870   69.4290  224.5220 C   0  0  0  0  0  0  0  0  0  0  0  0
  139.9960   69.9610  225.6860 C   0  0  0  0  0  0  0  0  0  0  0  0
  139.9950   69.2800  226.8910 C   0  0  0  0  0  0  0  0  0  0  0  0
  140.5330   69.9160  227.9900 C   0  0  0  0  0  0  0  0  0  0  0  0
  141.0660   71.1910  227.9260 C   0  0  0  0  0  0  0  0  0  0  0  0
  141.0700   71.8780  226.7200 C   0  0  0  0  0  0  0  0  0  0  0  0
  140.5290   71.2310  225.6290 C   0  0  0  0  0  0  0  0  0  0  0  0
  140.5260   71.8840  224.4530 N   0  0  0  0  0  0  0  0  0  0  0  0
  141.3860   73.5960  222.8890 H   0  0  0  0  0  0  0  0  0  0  0  0
  141.6541   73.6831  220.1520 H   0  0  0  0  0  0  0  0  0  0  0  0
  139.9167   74.1825  220.4125 H   0  0  0  0  0  0  0  0  0  0  0  0
  140.1560   76.8678  218.6293 H   0  0  0  0  0  0  0  0  0  0  0  0
  139.8468   77.4908  220.2702 H   0  0  0  0  0  0  0  0  0  0  0  0
  140.5794   79.2730  218.6734 H   0  0  0  0  0  0  0  0  0  0  0  0
  141.7280   79.0406  220.0686 H   0  0  0  0  0  0  0  0  0  0  0  0
  142.1615   78.7968  217.2118 H   0  0  0  0  0  0  0  0  0  0  0  0
  143.3228   78.9467  218.6044 H   0  0  0  0  0  0  0  0  0  0  0  0
  142.0640   76.4003  217.4996 H   0  0  0  0  0  0  0  0  0  0  0  0
  143.7817   76.8363  217.4940 H   0  0  0  0  0  0  0  0  0  0  0  0
  143.6170   77.0191  220.1119 H   0  0  0  0  0  0  0  0  0  0  0  0
  142.6033   74.4759  217.6672 H   0  0  0  0  0  0  0  0  0  0  0  0
  143.6864   72.2348  217.5989 H   0  0  0  0  0  0  0  0  0  0  0  0
  145.8448   73.2170  221.1980 H   0  0  0  0  0  0  0  0  0  0  0  0
  144.7556   75.4816  221.2721 H   0  0  0  0  0  0  0  0  0  0  0  0
  139.0771   69.6595  222.4039 H   0  0  0  0  0  0  0  0  0  0  0  0
  139.0584   68.4164  224.5513 H   0  0  0  0  0  0  0  0  0  0  0  0
  139.5787   68.2648  226.9695 H   0  0  0  0  0  0  0  0  0  0  0  0
  140.5386   69.3888  228.9554 H   0  0  0  0  0  0  0  0  0  0  0  0
  141.4856   71.6592  228.8286 H   0  0  0  0  0  0  0  0  0  0  0  0
  141.4861   72.8930  226.6382 H   0  0  0  0  0  0  0  0  0  0  0  0
  1  2  2  0
  2  3  1  0
  3  4  1  0
  4  5  1  0
  5  6  2  0
  5  7  1  0
  7  8  1  0
  8  9  1  0
  9 10  1  0
 10 11  1  0
 11 12  1  0
 12 13  1  0
 13 14  2  0
 14 15  1  0
 15 16  2  0
 16 17  1  0
 16 18  1  0
 18 19  2  0
  2 20  1  0
 20 21  2  0
 21 22  1  0
 22 23  2  0
 23 24  1  0
 24 25  2  0
 25 26  1  0
 26 27  2  0
 27 28  1  0
 28 29  2  0
 12  7  1  0
 19 13  1  0
 29 20  1  0
 28 23  1  0
  3 30  1  0
  4 31  1  0
  4 32  1  0
  8 33  1  0
  8 34  1  0
  9 35  1  0
  9 36  1  0
 10 37  1  0
 10 38  1  0
 11 39  1  0
 11 40  1  0
 12 41  1  1
 14 42  1  0
 15 43  1  0
 18 44  1  0
 19 45  1  0
 21 46  1  0
 22 47  1  0
 24 48  1  0
 25 49  1  0
 26 50  1  0
 27 51  1  0
M  END
>  <smiles>  (11) 
O=C(NCC(=O)N1CCCCC1c1ccc(Cl)cc1)c1ccc2ccccc2n1

>  <score_type>  (11) 
oracle

>  <origin>  (11) 
autodockgpu

>  <m_score__min__energy>  (11) 
-8.7799999999999994

>  <m_primary>  (11) 
energy

>  <rmsd>  (11) 
2.1671843488360936

>  <m_score__min__rmsd>  (11) 
2.1671843488360936

>  <meeko>  (11) 
{"free_energy": -7.91, "intermolecular_energy": -9.4, "internal_energy": -2.21, "cluster_size": 23, "cluster_id": 3, "rank_in_cluster": 21}

>  <energy>  (11) 
-8.28

>  <cluster_rmsd>  (11) 
1.07

>  <cluster>  (11) 
1

$$$$

     RDKit          3D

 51 54  0  0  0  0  0  0  0  0999 V2000
  133.2420   70.1020  226.7160 O   0  0  0  0  0  0  0  0  0  0  0  0
  133.6250   71.2330  226.2960 C   0  0  0  0  0  0  0  0  0  0  0  0
  134.6810   71.2350  225.3520 N   0  0  0  0  0  0  0  0  0  0  0  0
  135.2950   70.0340  224.8860 C   0  0  0  0  0  0  0  0  0  0  0  0
  136.3750   70.2700  223.9000 C   0  0  0  0  0  0  0  0  0  0  0  0
  136.6500   71.4960  223.6620 O   0  0  0  0  0  0  0  0  0  0  0  0
  137.0280   69.1940  223.2870 N   0  0  0  0  0  0  0  0  0  0  0  0
  136.2460   68.1290  222.6400 C   0  0  0  0  0  0  0  0  0  0  0  0
  137.0060   67.6900  221.4060 C   0  0  0  0  0  0  0  0  0  0  0  0
  138.4070   67.2730  221.7070 C   0  0  0  0  0  0  0  0  0  0  0  0
  138.8370   67.6520  223.1130 C   0  0  0  0  0  0  0  0  0  0  0  0
  138.4560   69.1280  223.2920 C   0  0  2  0  0  0  0  0  0  0  0  0
  139.0950   69.6870  224.5100 C   0  0  0  0  0  0  0  0  0  0  0  0
  139.7940   70.8740  224.4060 C   0  0  0  0  0  0  0  0  0  0  0  0
  140.3970   71.4180  225.5170 C   0  0  0  0  0  0  0  0  0  0  0  0
  140.2790   70.7420  226.7260 C   0  0  0  0  0  0  0  0  0  0  0  0
  141.0640   71.4650  228.1330 Cl  0  0  0  0  0  0  0  0  0  0  0  0
  139.5790   69.5590  226.8190 C   0  0  0  0  0  0  0  0  0  0  0  0
  138.9640   68.9990  225.6980 C   0  0  0  0  0  0  0  0  0  0  0  0
  133.0310   72.4870  226.7420 C   0  0  0  0  0  0  0  0  0  0  0  0
  131.8470   72.4900  227.4430 C   0  0  0  0  0  0  0  0  0  0  0  0
  131.3490   73.7200  227.8290 C   0  0  0  0  0  0  0  0  0  0  0  0
  131.9820   74.9100  227.5430 C   0  0  0  0  0  0  0  0  0  0  0  0
  131.4840   76.1420  227.9310 C   0  0  0  0  0  0  0  0  0  0  0  0
  132.2070   77.2650  227.5870 C   0  0  0  0  0  0  0  0  0  0  0  0
  133.3940   77.1990  226.8800 C   0  0  0  0  0  0  0  0  0  0  0  0
  133.8990   75.9660  226.4900 C   0  0  0  0  0  0  0  0  0  0  0  0
  133.1660   74.8510  226.8400 C   0  0  0  0  0  0  0  0  0  0  0  0
  133.6420   73.6490  226.4680 N   0  0  0  0  0  0  0  0  0  0  0  0
  134.9940   72.1770  225.0090 H   0  0  0  0  0  0  0  0  0  0  0  0
  135.7213   69.5025  225.7496 H   0  0  0  0  0  0  0  0  0  0  0  0
  134.5155   69.4460  224.3794 H   0  0  0  0  0  0  0  0  0  0  0  0
  136.1263   67.2799  223.3289 H   0  0  0  0  0  0  0  0  0  0  0  0
  135.2449   68.4949  222.3680 H   0  0  0  0  0  0  0  0  0  0  0  0
  136.4764   66.8399  220.9511 H   0  0  0  0  0  0  0  0  0  0  0  0
  137.0564   68.5518  220.7243 H   0  0  0  0  0  0  0  0  0  0  0  0
  138.4812   66.1810  221.5977 H   0  0  0  0  0  0  0  0  0  0  0  0
  139.0702   67.7960  221.0022 H   0  0  0  0  0  0  0  0  0  0  0  0
  138.3125   67.0300  223.8532 H   0  0  0  0  0  0  0  0  0  0  0  0
  139.9159   67.4952  223.2590 H   0  0  0  0  0  0  0  0  0  0  0  0
  138.8308   69.7588  222.4725 H   0  0  0  0  0  0  0  0  0  0  0  0
  139.8687   71.3846  223.4346 H   0  0  0  0  0  0  0  0  0  0  0  0
  140.9573   72.3623  225.4502 H   0  0  0  0  0  0  0  0  0  0  0  0
  139.5037   69.0485  227.7905 H   0  0  0  0  0  0  0  0  0  0  0  0
  138.4024   68.0552  225.7592 H   0  0  0  0  0  0  0  0  0  0  0  0
  131.3204   71.5552  227.6853 H   0  0  0  0  0  0  0  0  0  0  0  0
  130.4036   73.7504  228.3905 H   0  0  0  0  0  0  0  0  0  0  0  0
  130.5430   76.2226  228.4949 H   0  0  0  0  0  0  0  0  0  0  0  0
  131.8246   78.2519  227.8867 H   0  0  0  0  0  0  0  0  0  0  0  0
  133.9368   78.1217  226.6272 H   0  0  0  0  0  0  0  0  0  0  0  0
  134.8406   75.8820  225.9276 H   0  0  0  0  0  0  0  0  0  0  0  0
  1  2  2  0
  2  3  1  0
  3  4  1  0
  4  5  1  0
  5  6  2  0
  5  7  1  0
  7  8  1  0
  8  9  1  0
  9 10  1  0
 10 11  1  0
 11 12  1  0
 12 13  1  0
 13 14  2  0
 14 15  1  0
 15 16  2  0
 16 17  1  0
 16 18  1  0
 18 19  2  0
  2 20  1  0
 20 21  2  0
 21 22  1  0
 22 23  2  0
 23 24  1  0
 24 25  2  0
 25 26  1  0
 26 27  2  0
 27 28  1  0
 28 29  2  0
 12  7  1  0
 19 13  1  0
 29 20  1  0
 28 23  1  0
  3 30  1  0
  4 31  1  0
  4 32  1  0
  8 33  1  0
  8 34  1  0
  9 35  1  0
  9 36  1  0
 10 37  1  0
 10 38  1  0
 11 39  1  0
 11 40  1  0
 12 41  1  6
 14 42  1  0
 15 43  1  0
 18 44  1  0
 19 45  1  0
 21 46  1  0
 22 47  1  0
 24 48  1  0
 25 49  1  0
 26 50  1  0
 27 51  1  0
M  END
>  <smiles>  (12) 
O=C(NCC(=O)N1CCCCC1c1ccc(Cl)cc1)c1ccc2ccccc2n1

>  <score_type>  (12) 
oracle

>  <origin>  (12) 
autodockgpu

>  <m_score__min__energy>  (12) 
-8.7799999999999994

>  <m_primary>  (12) 
energy

>  <rmsd>  (12) 
8.938610102004006

>  <m_score__min__rmsd>  (12) 
8.938610102004006

>  <meeko>  (12) 
{"free_energy": -8.26, "intermolecular_energy": -9.75, "internal_energy": -2.25, "cluster_size": 5, "cluster_id": 4, "rank_in_cluster": 1}

>  <energy>  (12) 
-8.51

>  <cluster_rmsd>  (12) 
0.0

>  <cluster>  (12) 
2

$$$$

     RDKit          3D

 51 54  0  0  0  0  0  0  0  0999 V2000
  140.9040   71.9650  221.1190 O   0  0  0  0  0  0  0  0  0  0  0  0
  140.3930   72.3950  222.1950 C   0  0  0  0  0  0  0  0  0  0  0  0
  139.9810   73.7500  222.2040 N   0  0  0  0  0  0  0  0  0  0  0  0
  140.1260   74.6030  221.0690 C   0  0  0  0  0  0  0  0  0  0  0  0
  140.9830   75.7830  221.3260 C   0  0  0  0  0  0  0  0  0  0  0  0
  141.2700   76.0040  222.5520 O   0  0  0  0  0  0  0  0  0  0  0  0
  141.4300   76.5840  220.2680 N   0  0  0  0  0  0  0  0  0  0  0  0
  140.5750   77.6620  219.7470 C   0  0  0  0  0  0  0  0  0  0  0  0
  141.4760   78.8200  219.3730 C   0  0  0  0  0  0  0  0  0  0  0  0
  142.5540   78.4290  218.4190 C   0  0  0  0  0  0  0  0  0  0  0  0
  142.6800   76.9240  218.2670 C   0  0  0  0  0  0  0  0  0  0  0  0
  142.7180   76.3530  219.6920 C   0  0  2  0  0  0  0  0  0  0  0  0
  143.1380   74.9290  219.6710 C   0  0  0  0  0  0  0  0  0  0  0  0
  144.1690   74.5310  220.5000 C   0  0  0  0  0  0  0  0  0  0  0  0
  144.5820   73.2180  220.5050 C   0  0  0  0  0  0  0  0  0  0  0  0
  143.9340   72.3230  219.6610 C   0  0  0  0  0  0  0  0  0  0  0  0
  144.4870   70.6460  219.6900 Cl  0  0  0  0  0  0  0  0  0  0  0  0
  142.9060   72.7310  218.8390 C   0  0  0  0  0  0  0  0  0  0  0  0
  142.4800   74.0590  218.8260 C   0  0  0  0  0  0  0  0  0  0  0  0
  140.2250   71.5640  223.3810 C   0  0  0  0  0  0  0  0  0  0  0  0
  139.5950   70.3440  223.2960 C   0  0  0  0  0  0  0  0  0  0  0  0
  139.4740   69.6180  224.4650 C   0  0  0  0  0  0  0  0  0  0  0  0
  139.9500   70.0630  225.6790 C   0  0  0  0  0  0  0  0  0  0  0  0
  139.8290   69.3350  226.8500 C   0  0  0  0  0  0  0  0  0  0  0  0
  140.3450   69.8840  228.0050 C   0  0  0  0  0  0  0  0  0  0  0  0
  140.9700   71.1180  228.0280 C   0  0  0  0  0  0  0  0  0  0  0  0
  141.0940   71.8520  226.8560 C   0  0  0  0  0  0  0  0  0  0  0  0
  140.5740   71.2920  225.7080 C   0  0  0  0  0  0  0  0  0  0  0  0
  140.6860   71.9910  224.5660 N   0  0  0  0  0  0  0  0  0  0  0  0
  139.5590   74.1000  223.1000 H   0  0  0  0  0  0  0  0  0  0  0  0
  140.5717   74.0202  220.2494 H   0  0  0  0  0  0  0  0  0  0  0  0
  139.1238   74.9786  220.8148 H   0  0  0  0  0  0  0  0  0  0  0  0
  140.0274   77.3110  218.8599 H   0  0  0  0  0  0  0  0  0  0  0  0
  139.8403   77.9729  220.5044 H   0  0  0  0  0  0  0  0  0  0  0  0
  140.8631   79.6061  218.9078 H   0  0  0  0  0  0  0  0  0  0  0  0
  141.9615   79.1730  220.2948 H   0  0  0  0  0  0  0  0  0  0  0  0
  142.3287   78.8651  217.4346 H   0  0  0  0  0  0  0  0  0  0  0  0
  143.5069   78.8047  218.8202 H   0  0  0  0  0  0  0  0  0  0  0  0
  141.8157   76.5222  217.7178 H   0  0  0  0  0  0  0  0  0  0  0  0
  143.5831   76.6518  217.7011 H   0  0  0  0  0  0  0  0  0  0  0  0
  143.4695   76.8507  220.3225 H   0  0  0  0  0  0  0  0  0  0  0  0
  144.6603   75.2641  221.1567 H   0  0  0  0  0  0  0  0  0  0  0  0
  145.4020   72.8859  221.1587 H   0  0  0  0  0  0  0  0  0  0  0  0
  142.4138   71.9980  218.1830 H   0  0  0  0  0  0  0  0  0  0  0  0
  141.6602   74.3960  218.1745 H   0  0  0  0  0  0  0  0  0  0  0  0
  139.2052   69.9637  222.3403 H   0  0  0  0  0  0  0  0  0  0  0  0
  138.9743   68.6389  224.4248 H   0  0  0  0  0  0  0  0  0  0  0  0
  139.3374   68.3510  226.8590 H   0  0  0  0  0  0  0  0  0  0  0  0
  140.2562   69.3188  228.9445 H   0  0  0  0  0  0  0  0  0  0  0  0
  141.3679   71.5168  228.9728 H   0  0  0  0  0  0  0  0  0  0  0  0
  141.5851   72.8362  226.8437 H   0  0  0  0  0  0  0  0  0  0  0  0
  1  2  2  0
  2  3  1  0
  3  4  1  0
  4  5  1  0
  5  6  2  0
  5  7  1  0
  7  8  1  0
  8  9  1  0
  9 10  1  0
 10 11  1  0
 11 12  1  0
 12 13  1  0
 13 14  2  0
 14 15  1  0
 15 16  2  0
 16 17  1  0
 16 18  1  0
 18 19  2  0
  2 20  1  0
 20 21  2  0
 21 22  1  0
 22 23  2  0
 23 24  1  0
 24 25  2  0
 25 26  1  0
 26 27  2  0
 27 28  1  0
 28 29  2  0
 12  7  1  0
 19 13  1  0
 29 20  1  0
 28 23  1  0
  3 30  1  0
  4 31  1  0
  4 32  1  0
  8 33  1  0
  8 34  1  0
  9 35  1  0
  9 36  1  0
 10 37  1  0
 10 38  1  0
 11 39  1  0
 11 40  1  0
 12 41  1  1
 14 42  1  0
 15 43  1  0
 18 44  1  0
 19 45  1  0
 21 46  1  0
 22 47  1  0
 24 48  1  0
 25 49  1  0
 26 50  1  0
 27 51  1  0
M  END
>  <smiles>  (13) 
O=C(NCC(=O)N1CCCCC1c1ccc(Cl)cc1)c1ccc2ccccc2n1

>  <score_type>  (13) 
oracle

>  <origin>  (13) 
autodockgpu

>  <m_score__min__energy>  (13) 
-8.7799999999999994

>  <m_primary>  (13) 
energy

>  <rmsd>  (13) 
2.1408222119785405

>  <m_score__min__rmsd>  (13) 
2.1408222119785405

>  <meeko>  (13) 
{"free_energy": -8.22, "intermolecular_energy": -9.71, "internal_energy": -2.13, "cluster_size": 23, "cluster_id": 3, "rank_in_cluster": 12}

>  <energy>  (13) 
-8.5

>  <cluster_rmsd>  (13) 
0.06

>  <cluster>  (13) 
2

$$$$

     RDKit          3D

 51 54  0  0  0  0  0  0  0  0999 V2000
  140.9110   71.6140  221.2740 O   0  0  0  0  0  0  0  0  0  0  0  0
  140.4160   72.1340  222.3160 C   0  0  0  0  0  0  0  0  0  0  0  0
  140.0460   73.4990  222.2300 N   0  0  0  0  0  0  0  0  0  0  0  0
  140.2160   74.2660  221.0380 C   0  0  0  0  0  0  0  0  0  0  0  0
  140.7990   75.6060  221.2800 C   0  0  0  0  0  0  0  0  0  0  0  0
  140.7920   76.0030  222.4950 O   0  0  0  0  0  0  0  0  0  0  0  0
  141.3150   76.3600  220.2180 N   0  0  0  0  0  0  0  0  0  0  0  0
  140.5160   77.4470  219.6320 C   0  0  0  0  0  0  0  0  0  0  0  0
  141.4690   78.5650  219.2630 C   0  0  0  0  0  0  0  0  0  0  0  0
  142.5720   78.1130  218.3660 C   0  0  0  0  0  0  0  0  0  0  0  0
  142.6560   76.6010  218.2630 C   0  0  0  0  0  0  0  0  0  0  0  0
  142.6170   76.0730  219.7040 C   0  0  2  0  0  0  0  0  0  0  0  0
  142.9910   74.6360  219.7420 C   0  0  0  0  0  0  0  0  0  0  0  0
  142.4520   73.7870  218.7940 C   0  0  0  0  0  0  0  0  0  0  0  0
  142.7790   72.4500  218.8020 C   0  0  0  0  0  0  0  0  0  0  0  0
  143.6570   71.9940  219.7790 C   0  0  0  0  0  0  0  0  0  0  0  0
  144.0570   70.2740  219.7620 Cl  0  0  0  0  0  0  0  0  0  0  0  0
  144.1890   72.8500  220.7190 C   0  0  0  0  0  0  0  0  0  0  0  0
  143.8640   74.2070  220.7200 C   0  0  0  0  0  0  0  0  0  0  0  0
  140.2230   71.3940  223.5580 C   0  0  0  0  0  0  0  0  0  0  0  0
  139.5770   70.1790  223.5540 C   0  0  0  0  0  0  0  0  0  0  0  0
  139.4330   69.5420  224.7710 C   0  0  0  0  0  0  0  0  0  0  0  0
  139.9030   70.0670  225.9550 C   0  0  0  0  0  0  0  0  0  0  0  0
  139.7600   69.4280  227.1740 C   0  0  0  0  0  0  0  0  0  0  0  0
  140.2710   70.0530  228.2920 C   0  0  0  0  0  0  0  0  0  0  0  0
  140.9130   71.2770  228.2330 C   0  0  0  0  0  0  0  0  0  0  0  0
  141.0590   71.9220  227.0130 C   0  0  0  0  0  0  0  0  0  0  0  0
  140.5430   71.2870  225.9020 C   0  0  0  0  0  0  0  0  0  0  0  0
  140.6770   71.9000  224.7130 N   0  0  0  0  0  0  0  0  0  0  0  0
  139.6360   73.9240  223.1000 H   0  0  0  0  0  0  0  0  0  0  0  0
  140.8822   73.7131  220.3594 H   0  0  0  0  0  0  0  0  0  0  0  0
  139.2166   74.4196  220.6049 H   0  0  0  0  0  0  0  0  0  0  0  0
  139.9938   77.0868  218.7334 H   0  0  0  0  0  0  0  0  0  0  0  0
  139.7609   77.8024  220.3486 H   0  0  0  0  0  0  0  0  0  0  0  0
  140.9013   79.3558  218.7507 H   0  0  0  0  0  0  0  0  0  0  0  0
  141.9279   78.9293  220.1940 H   0  0  0  0  0  0  0  0  0  0  0  0
  142.4007   78.5259  217.3609 H   0  0  0  0  0  0  0  0  0  0  0  0
  143.5193   78.4715  218.7950 H   0  0  0  0  0  0  0  0  0  0  0  0
  141.8027   76.2095  217.6898 H   0  0  0  0  0  0  0  0  0  0  0  0
  143.5724   76.2840  217.7436 H   0  0  0  0  0  0  0  0  0  0  0  0
  143.3576   76.5667  220.3504 H   0  0  0  0  0  0  0  0  0  0  0  0
  141.7616   74.1798  218.0330 H   0  0  0  0  0  0  0  0  0  0  0  0
  142.3571   71.7608  218.0556 H   0  0  0  0  0  0  0  0  0  0  0  0
  144.8800   72.4577  221.4797 H   0  0  0  0  0  0  0  0  0  0  0  0
  144.2833   74.9004  221.4639 H   0  0  0  0  0  0  0  0  0  0  0  0
  139.1927   69.7352  222.6237 H   0  0  0  0  0  0  0  0  0  0  0  0
  138.9189   68.5698  224.7962 H   0  0  0  0  0  0  0  0  0  0  0  0
  139.2553   68.4535  227.2488 H   0  0  0  0  0  0  0  0  0  0  0  0
  140.1639   69.5590  229.2690 H   0  0  0  0  0  0  0  0  0  0  0  0
  141.3068   71.7379  229.1509 H   0  0  0  0  0  0  0  0  0  0  0  0
  141.5637   72.8963  226.9351 H   0  0  0  0  0  0  0  0  0  0  0  0
  1  2  2  0
  2  3  1  0
  3  4  1  0
  4  5  1  0
  5  6  2  0
  5  7  1  0
  7  8  1  0
  8  9  1  0
  9 10  1  0
 10 11  1  0
 11 12  1  0
 12 13  1  0
 13 14  2  0
 14 15  1  0
 15 16  2  0
 16 17  1  0
 16 18  1  0
 18 19  2  0
  2 20  1  0
 20 21  2  0
 21 22  1  0
 22 23  2  0
 23 24  1  0
 24 25  2  0
 25 26  1  0
 26 27  2  0
 27 28  1  0
 28 29  2  0
 12  7  1  0
 19 13  1  0
 29 20  1  0
 28 23  1  0
  3 30  1  0
  4 31  1  0
  4 32  1  0
  8 33  1  0
  8 34  1  0
  9 35  1  0
  9 36  1  0
 10 37  1  0
 10 38  1  0
 11 39  1  0
 11 40  1  0
 12 41  1  1
 14 42  1  0
 15 43  1  0
 18 44  1  0
 19 45  1  0
 21 46  1  0
 22 47  1  0
 24 48  1  0
 25 49  1  0
 26 50  1  0
 27 51  1  0
M  END
>  <smiles>  (14) 
O=C(NCC(=O)N1CCCCC1c1ccc(Cl)cc1)c1ccc2ccccc2n1

>  <score_type>  (14) 
oracle

>  <origin>  (14) 
autodockgpu

>  <m_score__min__energy>  (14) 
-8.7799999999999994

>  <m_primary>  (14) 
energy

>  <rmsd>  (14) 
2.071920159721227

>  <m_score__min__rmsd>  (14) 
2.071920159721227

>  <meeko>  (14) 
{"free_energy": -8.26, "intermolecular_energy": -9.75, "internal_energy": -2.23, "cluster_size": 23, "cluster_id": 3, "rank_in_cluster": 7}

>  <energy>  (14) 
-8.5

>  <cluster_rmsd>  (14) 
0.09

>  <cluster>  (14) 
2

$$$$

     RDKit          3D

 51 54  0  0  0  0  0  0  0  0999 V2000
  140.3050   74.4030  222.3270 O   0  0  0  0  0  0  0  0  0  0  0  0
  140.2010   75.4290  221.5950 C   0  0  0  0  0  0  0  0  0  0  0  0
  140.1400   75.2070  220.1960 N   0  0  0  0  0  0  0  0  0  0  0  0
  140.1920   73.9010  219.6240 C   0  0  0  0  0  0  0  0  0  0  0  0
  141.4430   73.6360  218.8780 C   0  0  0  0  0  0  0  0  0  0  0  0
  141.3170   73.5000  217.6130 O   0  0  0  0  0  0  0  0  0  0  0  0
  142.6680   73.5460  219.5510 N   0  0  0  0  0  0  0  0  0  0  0  0
  142.8660   72.5210  220.5870 C   0  0  0  0  0  0  0  0  0  0  0  0
  144.2970   72.0360  220.4820 C   0  0  0  0  0  0  0  0  0  0  0  0
  145.2910   73.1440  220.5720 C   0  0  0  0  0  0  0  0  0  0  0  0
  144.6480   74.5140  220.4580 C   0  0  0  0  0  0  0  0  0  0  0  0
  143.7270   74.4520  219.2310 C   0  0  2  0  0  0  0  0  0  0  0  0
  143.2780   75.8140  218.8480 C   0  0  0  0  0  0  0  0  0  0  0  0
  142.7780   76.6470  219.8310 C   0  0  0  0  0  0  0  0  0  0  0  0
  142.3540   77.9160  219.5080 C   0  0  0  0  0  0  0  0  0  0  0  0
  142.4460   78.3220  218.1820 C   0  0  0  0  0  0  0  0  0  0  0  0
  141.8930   79.9550  217.8000 Cl  0  0  0  0  0  0  0  0  0  0  0  0
  142.9450   77.4830  217.2090 C   0  0  0  0  0  0  0  0  0  0  0  0
  143.3790   76.1950  217.5260 C   0  0  0  0  0  0  0  0  0  0  0  0
  140.1440   76.7840  222.1300 C   0  0  0  0  0  0  0  0  0  0  0  0
  138.9340   77.3740  222.4130 C   0  0  0  0  0  0  0  0  0  0  0  0
  138.9660   78.6600  222.9170 C   0  0  0  0  0  0  0  0  0  0  0  0
  140.1360   79.3520  223.1390 C   0  0  0  0  0  0  0  0  0  0  0  0
  140.1680   80.6390  223.6450 C   0  0  0  0  0  0  0  0  0  0  0  0
  141.4020   81.2290  223.8250 C   0  0  0  0  0  0  0  0  0  0  0  0
  142.5870   80.5850  223.5220 C   0  0  0  0  0  0  0  0  0  0  0  0
  142.5610   79.2930  223.0150 C   0  0  0  0  0  0  0  0  0  0  0  0
  141.3210   78.7140  222.8400 C   0  0  0  0  0  0  0  0  0  0  0  0
  141.2800   77.4630  222.3490 N   0  0  0  0  0  0  0  0  0  0  0  0
  140.0530   76.0650  219.5950 H   0  0  0  0  0  0  0  0  0  0  0  0
  140.1056   73.1618  220.4340 H   0  0  0  0  0  0  0  0  0  0  0  0
  139.3630   73.8279  218.9047 H   0  0  0  0  0  0  0  0  0  0  0  0
  142.6887   72.9543  221.5824 H   0  0  0  0  0  0  0  0  0  0  0  0
  142.1634   71.6867  220.4450 H   0  0  0  0  0  0  0  0  0  0  0  0
  144.4880   71.3252  221.2995 H   0  0  0  0  0  0  0  0  0  0  0  0
  144.4152   71.5645  219.4952 H   0  0  0  0  0  0  0  0  0  0  0  0
  145.8074   73.0765  221.5409 H   0  0  0  0  0  0  0  0  0  0  0  0
  145.9914   73.0331  219.7311 H   0  0  0  0  0  0  0  0  0  0  0  0
  144.0638   74.7379  221.3628 H   0  0  0  0  0  0  0  0  0  0  0  0
  145.4048   75.3053  220.3526 H   0  0  0  0  0  0  0  0  0  0  0  0
  144.2448   74.0731  218.3375 H   0  0  0  0  0  0  0  0  0  0  0  0
  142.7189   76.2957  220.8717 H   0  0  0  0  0  0  0  0  0  0  0  0
  141.9531   78.5907  220.2787 H   0  0  0  0  0  0  0  0  0  0  0  0
  143.0020   77.8335  216.1679 H   0  0  0  0  0  0  0  0  0  0  0  0
  143.7818   75.5169  216.7593 H   0  0  0  0  0  0  0  0  0  0  0  0
  137.9838   76.8457  222.2456 H   0  0  0  0  0  0  0  0  0  0  0  0
  138.0120   79.1546  223.1521 H   0  0  0  0  0  0  0  0  0  0  0  0
  139.2403   81.1743  223.8956 H   0  0  0  0  0  0  0  0  0  0  0  0
  141.4446   82.2526  224.2255 H   0  0  0  0  0  0  0  0  0  0  0  0
  143.5483   81.0951  223.6823 H   0  0  0  0  0  0  0  0  0  0  0  0
  143.4872   78.7552  222.7641 H   0  0  0  0  0  0  0  0  0  0  0  0
  1  2  2  0
  2  3  1  0
  3  4  1  0
  4  5  1  0
  5  6  2  0
  5  7  1  0
  7  8  1  0
  8  9  1  0
  9 10  1  0
 10 11  1  0
 11 12  1  0
 12 13  1  0
 13 14  2  0
 14 15  1  0
 15 16  2  0
 16 17  1  0
 16 18  1  0
 18 19  2  0
  2 20  1  0
 20 21  2  0
 21 22  1  0
 22 23  2  0
 23 24  1  0
 24 25  2  0
 25 26  1  0
 26 27  2  0
 27 28  1  0
 28 29  2  0
 12  7  1  0
 19 13  1  0
 29 20  1  0
 28 23  1  0
  3 30  1  0
  4 31  1  0
  4 32  1  0
  8 33  1  0
  8 34  1  0
  9 35  1  0
  9 36  1  0
 10 37  1  0
 10 38  1  0
 11 39  1  0
 11 40  1  0
 12 41  1  6
 14 42  1  0
 15 43  1  0
 18 44  1  0
 19 45  1  0
 21 46  1  0
 22 47  1  0
 24 48  1  0
 25 49  1  0
 26 50  1  0
 27 51  1  0
M  END
>  <smiles>  (15) 
O=C(NCC(=O)N1CCCCC1c1ccc(Cl)cc1)c1ccc2ccccc2n1

>  <score_type>  (15) 
oracle

>  <origin>  (15) 
autodockgpu

>  <m_score__min__energy>  (15) 
-8.7799999999999994

>  <m_primary>  (15) 
energy

>  <rmsd>  (15) 
7.397751727177117

>  <m_score__min__rmsd>  (15) 
7.397751727177117

>  <meeko>  (15) 
{"free_energy": -7.72, "intermolecular_energy": -9.21, "internal_energy": -2.49, "cluster_size": 5, "cluster_id": 5, "rank_in_cluster": 2}

>  <energy>  (15) 
-8.46

>  <cluster_rmsd>  (15) 
0.12

>  <cluster>  (15) 
2

$$$$

     RDKit          3D

 51 54  0  0  0  0  0  0  0  0999 V2000
  140.8230   71.9770  221.0370 O   0  0  0  0  0  0  0  0  0  0  0  0
  140.3440   72.4060  222.1270 C   0  0  0  0  0  0  0  0  0  0  0  0
  139.9490   73.7660  222.1550 N   0  0  0  0  0  0  0  0  0  0  0  0
  140.0750   74.6250  221.0220 C   0  0  0  0  0  0  0  0  0  0  0  0
  141.0280   75.7380  221.2330 C   0  0  0  0  0  0  0  0  0  0  0  0
  141.3980   75.9310  222.4410 O   0  0  0  0  0  0  0  0  0  0  0  0
  141.4720   76.5100  220.1520 N   0  0  0  0  0  0  0  0  0  0  0  0
  140.6040   77.5540  219.5860 C   0  0  0  0  0  0  0  0  0  0  0  0
  141.4890   78.7140  219.1810 C   0  0  0  0  0  0  0  0  0  0  0  0
  142.5830   78.3110  218.2520 C   0  0  0  0  0  0  0  0  0  0  0  0
  142.7370   76.8040  218.1530 C   0  0  0  0  0  0  0  0  0  0  0  0
  142.7700   76.2830  219.5970 C   0  0  2  0  0  0  0  0  0  0  0  0
  143.2150   74.8670  219.6300 C   0  0  0  0  0  0  0  0  0  0  0  0
  142.5720   73.9530  218.8180 C   0  0  0  0  0  0  0  0  0  0  0  0
  142.9610   72.6320  218.8240 C   0  0  0  0  0  0  0  0  0  0  0  0
  144.0060   72.2590  219.6620 C   0  0  0  0  0  0  0  0  0  0  0  0
  144.4810   70.5590  219.6480 Cl  0  0  0  0  0  0  0  0  0  0  0  0
  144.6400   73.1800  220.4680 C   0  0  0  0  0  0  0  0  0  0  0  0
  144.2540   74.5210  220.4680 C   0  0  0  0  0  0  0  0  0  0  0  0
  140.1950   71.5690  223.3120 C   0  0  0  0  0  0  0  0  0  0  0  0
  139.5910   70.3360  223.2260 C   0  0  0  0  0  0  0  0  0  0  0  0
  139.4870   69.6060  224.3930 C   0  0  0  0  0  0  0  0  0  0  0  0
  139.9560   70.0580  225.6080 C   0  0  0  0  0  0  0  0  0  0  0  0
  139.8530   69.3260  226.7770 C   0  0  0  0  0  0  0  0  0  0  0  0
  140.3590   69.8840  227.9320 C   0  0  0  0  0  0  0  0  0  0  0  0
  140.9570   71.1310  227.9570 C   0  0  0  0  0  0  0  0  0  0  0  0
  141.0630   71.8690  226.7870 C   0  0  0  0  0  0  0  0  0  0  0  0
  140.5530   71.3000  225.6380 C   0  0  0  0  0  0  0  0  0  0  0  0
  140.6490   72.0040  224.4970 N   0  0  0  0  0  0  0  0  0  0  0  0
  139.5530   74.1150  223.0630 H   0  0  0  0  0  0  0  0  0  0  0  0
  140.4216   74.0262  220.1669 H   0  0  0  0  0  0  0  0  0  0  0  0
  139.0866   75.0727  220.8416 H   0  0  0  0  0  0  0  0  0  0  0  0
  140.0716   77.1632  218.7063 H   0  0  0  0  0  0  0  0  0  0  0  0
  139.8562   77.8777  220.3249 H   0  0  0  0  0  0  0  0  0  0  0  0
  140.8674   79.4729  218.6833 H   0  0  0  0  0  0  0  0  0  0  0  0
  141.9591   79.1059  220.0950 H   0  0  0  0  0  0  0  0  0  0  0  0
  142.3602   78.7092  217.2511 H   0  0  0  0  0  0  0  0  0  0  0  0
  143.5249   78.7175  218.6490 H   0  0  0  0  0  0  0  0  0  0  0  0
  141.8858   76.3682  217.6094 H   0  0  0  0  0  0  0  0  0  0  0  0
  143.6506   76.5287  217.6057 H   0  0  0  0  0  0  0  0  0  0  0  0
  143.5062   76.8158  220.2168 H   0  0  0  0  0  0  0  0  0  0  0  0
  141.7487   74.2806  218.1662 H   0  0  0  0  0  0  0  0  0  0  0  0
  142.4588   71.8921  218.1834 H   0  0  0  0  0  0  0  0  0  0  0  0
  145.4626   72.8530  221.1210 H   0  0  0  0  0  0  0  0  0  0  0  0
  144.7539   75.2654  221.1051 H   0  0  0  0  0  0  0  0  0  0  0  0
  139.2081   69.9491  222.2701 H   0  0  0  0  0  0  0  0  0  0  0  0
  139.0073   68.6170  224.3515 H   0  0  0  0  0  0  0  0  0  0  0  0
  139.3830   68.3315  226.7851 H   0  0  0  0  0  0  0  0  0  0  0  0
  140.2841   69.3150  228.8705 H   0  0  0  0  0  0  0  0  0  0  0  0
  141.3475   71.5365  228.9020 H   0  0  0  0  0  0  0  0  0  0  0  0
  141.5328   72.8636  226.7758 H   0  0  0  0  0  0  0  0  0  0  0  0
  1  2  2  0
  2  3  1  0
  3  4  1  0
  4  5  1  0
  5  6  2  0
  5  7  1  0
  7  8  1  0
  8  9  1  0
  9 10  1  0
 10 11  1  0
 11 12  1  0
 12 13  1  0
 13 14  2  0
 14 15  1  0
 15 16  2  0
 16 17  1  0
 16 18  1  0
 18 19  2  0
  2 20  1  0
 20 21  2  0
 21 22  1  0
 22 23  2  0
 23 24  1  0
 24 25  2  0
 25 26  1  0
 26 27  2  0
 27 28  1  0
 28 29  2  0
 12  7  1  0
 19 13  1  0
 29 20  1  0
 28 23  1  0
  3 30  1  0
  4 31  1  0
  4 32  1  0
  8 33  1  0
  8 34  1  0
  9 35  1  0
  9 36  1  0
 10 37  1  0
 10 38  1  0
 11 39  1  0
 11 40  1  0
 12 41  1  1
 14 42  1  0
 15 43  1  0
 18 44  1  0
 19 45  1  0
 21 46  1  0
 22 47  1  0
 24 48  1  0
 25 49  1  0
 26 50  1  0
 27 51  1  0
M  END
>  <smiles>  (16) 
O=C(NCC(=O)N1CCCCC1c1ccc(Cl)cc1)c1ccc2ccccc2n1

>  <score_type>  (16) 
oracle

>  <origin>  (16) 
autodockgpu

>  <m_score__min__energy>  (16) 
-8.7799999999999994

>  <m_primary>  (16) 
energy

>  <rmsd>  (16) 
2.099607771522802

>  <m_score__min__rmsd>  (16) 
2.099607771522802

>  <meeko>  (16) 
{"free_energy": -8.17, "intermolecular_energy": -9.66, "internal_energy": -2.13, "cluster_size": 23, "cluster_id": 3, "rank_in_cluster": 17}

>  <energy>  (16) 
-8.42

>  <cluster_rmsd>  (16) 
0.0

>  <cluster>  (16) 
3

$$$$

     RDKit          3D

 51 54  0  0  0  0  0  0  0  0999 V2000
  140.1480   74.4300  222.3280 O   0  0  0  0  0  0  0  0  0  0  0  0
  140.1540   75.4740  221.6130 C   0  0  0  0  0  0  0  0  0  0  0  0
  140.1800   75.2820  220.2090 N   0  0  0  0  0  0  0  0  0  0  0  0
  140.2000   73.9850  219.6130 C   0  0  0  0  0  0  0  0  0  0  0  0
  141.4570   73.6920  218.8860 C   0  0  0  0  0  0  0  0  0  0  0  0
  141.3380   73.5010  217.6280 O   0  0  0  0  0  0  0  0  0  0  0  0
  142.6780   73.6350  219.5690 N   0  0  0  0  0  0  0  0  0  0  0  0
  142.8810   72.6390  220.6330 C   0  0  0  0  0  0  0  0  0  0  0  0
  144.3190   72.1700  220.5500 C   0  0  0  0  0  0  0  0  0  0  0  0
  145.2980   73.2930  220.6190 C   0  0  0  0  0  0  0  0  0  0  0  0
  144.6380   74.6510  220.4650 C   0  0  0  0  0  0  0  0  0  0  0  0
  143.7270   74.5460  219.2340 C   0  0  2  0  0  0  0  0  0  0  0  0
  143.2640   75.8920  218.8130 C   0  0  0  0  0  0  0  0  0  0  0  0
  142.7360   76.7390  219.7690 C   0  0  0  0  0  0  0  0  0  0  0  0
  142.2980   77.9940  219.4110 C   0  0  0  0  0  0  0  0  0  0  0  0
  142.4040   78.3710  218.0770 C   0  0  0  0  0  0  0  0  0  0  0  0
  141.8330   79.9860  217.6500 Cl  0  0  0  0  0  0  0  0  0  0  0  0
  142.9310   77.5180  217.1320 C   0  0  0  0  0  0  0  0  0  0  0  0
  143.3790   76.2440  217.4840 C   0  0  0  0  0  0  0  0  0  0  0  0
  140.1350   76.8200  222.1730 C   0  0  0  0  0  0  0  0  0  0  0  0
  138.9500   77.3970  222.5660 C   0  0  0  0  0  0  0  0  0  0  0  0
  139.0160   78.6750  223.0860 C   0  0  0  0  0  0  0  0  0  0  0  0
  140.1980   79.3710  223.2210 C   0  0  0  0  0  0  0  0  0  0  0  0
  140.2640   80.6510  223.7430 C   0  0  0  0  0  0  0  0  0  0  0  0
  141.5050   81.2460  223.8290 C   0  0  0  0  0  0  0  0  0  0  0  0
  142.6650   80.6150  223.4170 C   0  0  0  0  0  0  0  0  0  0  0  0
  142.6040   79.3310  222.8930 C   0  0  0  0  0  0  0  0  0  0  0  0
  141.3570   78.7460  222.8130 C   0  0  0  0  0  0  0  0  0  0  0  0
  141.2810   77.5030  222.3070 N   0  0  0  0  0  0  0  0  0  0  0  0
  140.1850   76.1530  219.6220 H   0  0  0  0  0  0  0  0  0  0  0  0
  140.0730   73.2343  220.4069 H   0  0  0  0  0  0  0  0  0  0  0  0
  139.3834   73.9529  218.8767 H   0  0  0  0  0  0  0  0  0  0  0  0
  142.6910   73.0953  221.6157 H   0  0  0  0  0  0  0  0  0  0  0  0
  142.1898   71.7925  220.5080 H   0  0  0  0  0  0  0  0  0  0  0  0
  144.5133   71.4825  221.3864 H   0  0  0  0  0  0  0  0  0  0  0  0
  144.4504   71.6754  219.5763 H   0  0  0  0  0  0  0  0  0  0  0  0
  145.8076   73.2571  221.5932 H   0  0  0  0  0  0  0  0  0  0  0  0
  146.0065   73.1698  219.7866 H   0  0  0  0  0  0  0  0  0  0  0  0
  144.0444   74.8903  221.3596 H   0  0  0  0  0  0  0  0  0  0  0  0
  145.3854   75.4490  220.3442 H   0  0  0  0  0  0  0  0  0  0  0  0
  144.2559   74.1511  218.3540 H   0  0  0  0  0  0  0  0  0  0  0  0
  142.6657   76.4102  220.8163 H   0  0  0  0  0  0  0  0  0  0  0  0
  141.8756   78.6799  220.1601 H   0  0  0  0  0  0  0  0  0  0  0  0
  142.9997   77.8461  216.0843 H   0  0  0  0  0  0  0  0  0  0  0  0
  143.8028   75.5547  216.7388 H   0  0  0  0  0  0  0  0  0  0  0  0
  137.9923   76.8644  222.4705 H   0  0  0  0  0  0  0  0  0  0  0  0
  138.0822   79.1596  223.4072 H   0  0  0  0  0  0  0  0  0  0  0  0
  139.3572   81.1760  224.0780 H   0  0  0  0  0  0  0  0  0  0  0  0
  141.5753   82.2632  224.2418 H   0  0  0  0  0  0  0  0  0  0  0  0
  143.6334   81.1294  223.5044 H   0  0  0  0  0  0  0  0  0  0  0  0
  143.5090   78.8038  222.5568 H   0  0  0  0  0  0  0  0  0  0  0  0
  1  2  2  0
  2  3  1  0
  3  4  1  0
  4  5  1  0
  5  6  2  0
  5  7  1  0
  7  8  1  0
  8  9  1  0
  9 10  1  0
 10 11  1  0
 11 12  1  0
 12 13  1  0
 13 14  2  0
 14 15  1  0
 15 16  2  0
 16 17  1  0
 16 18  1  0
 18 19  2  0
  2 20  1  0
 20 21  2  0
 21 22  1  0
 22 23  2  0
 23 24  1  0
 24 25  2  0
 25 26  1  0
 26 27  2  0
 27 28  1  0
 28 29  2  0
 12  7  1  0
 19 13  1  0
 29 20  1  0
 28 23  1  0
  3 30  1  0
  4 31  1  0
  4 32  1  0
  8 33  1  0
  8 34  1  0
  9 35  1  0
  9 36  1  0
 10 37  1  0
 10 38  1  0
 11 39  1  0
 11 40  1  0
 12 41  1  6
 14 42  1  0
 15 43  1  0
 18 44  1  0
 19 45  1  0
 21 46  1  0
 22 47  1  0
 24 48  1  0
 25 49  1  0
 26 50  1  0
 27 51  1  0
M  END
>  <smiles>  (17) 
O=C(NCC(=O)N1CCCCC1c1ccc(Cl)cc1)c1ccc2ccccc2n1

>  <score_type>  (17) 
oracle

>  <origin>  (17) 
autodockgpu

>  <m_score__min__energy>  (17) 
-8.7799999999999994

>  <m_primary>  (17) 
energy

>  <rmsd>  (17) 
7.4071370010371655

>  <m_score__min__rmsd>  (17) 
7.4071370010371655

>  <meeko>  (17) 
{"free_energy": -7.74, "intermolecular_energy": -9.24, "internal_energy": -2.47, "cluster_size": 5, "cluster_id": 5, "rank_in_cluster": 1}

>  <energy>  (17) 
-8.34

>  <cluster_rmsd>  (17) 
0.34

>  <cluster>  (17) 
3

$$$$

     RDKit          3D

 51 54  0  0  0  0  0  0  0  0999 V2000
  140.7840   71.6820  221.1690 O   0  0  0  0  0  0  0  0  0  0  0  0
  140.3310   72.1840  222.2380 C   0  0  0  0  0  0  0  0  0  0  0  0
  139.9820   73.5570  222.1970 N   0  0  0  0  0  0  0  0  0  0  0  0
  140.1280   74.3500  221.0190 C   0  0  0  0  0  0  0  0  0  0  0  0
  140.8390   75.6270  221.2550 C   0  0  0  0  0  0  0  0  0  0  0  0
  140.9450   75.9850  222.4780 O   0  0  0  0  0  0  0  0  0  0  0  0
  141.3490   76.3670  220.1820 N   0  0  0  0  0  0  0  0  0  0  0  0
  140.5550   77.4590  219.5970 C   0  0  0  0  0  0  0  0  0  0  0  0
  141.5140   78.5630  219.2060 C   0  0  0  0  0  0  0  0  0  0  0  0
  142.6010   78.0930  218.3000 C   0  0  0  0  0  0  0  0  0  0  0  0
  142.6670   76.5790  218.2080 C   0  0  0  0  0  0  0  0  0  0  0  0
  142.6420   76.0620  219.6530 C   0  0  2  0  0  0  0  0  0  0  0  0
  143.0020   74.6220  219.6970 C   0  0  0  0  0  0  0  0  0  0  0  0
  142.4050   73.7630  218.7940 C   0  0  0  0  0  0  0  0  0  0  0  0
  142.7170   72.4230  218.8090 C   0  0  0  0  0  0  0  0  0  0  0  0
  143.6390   71.9730  219.7480 C   0  0  0  0  0  0  0  0  0  0  0  0
  144.0180   70.2490  219.7420 Cl  0  0  0  0  0  0  0  0  0  0  0  0
  144.2270   72.8390  220.6440 C   0  0  0  0  0  0  0  0  0  0  0  0
  143.9180   74.2000  220.6380 C   0  0  0  0  0  0  0  0  0  0  0  0
  140.1640   71.4160  223.4670 C   0  0  0  0  0  0  0  0  0  0  0  0
  139.5260   70.1990  223.4490 C   0  0  0  0  0  0  0  0  0  0  0  0
  139.4070   69.5340  224.6540 C   0  0  0  0  0  0  0  0  0  0  0  0
  139.8940   70.0380  225.8410 C   0  0  0  0  0  0  0  0  0  0  0  0
  139.7770   69.3720  227.0480 C   0  0  0  0  0  0  0  0  0  0  0  0
  140.3040   69.9760  228.1700 C   0  0  0  0  0  0  0  0  0  0  0  0
  140.9370   71.2050  228.1260 C   0  0  0  0  0  0  0  0  0  0  0  0
  141.0590   71.8770  226.9170 C   0  0  0  0  0  0  0  0  0  0  0  0
  140.5270   71.2620  225.8030 C   0  0  0  0  0  0  0  0  0  0  0  0
  140.6360   71.9010  224.6250 N   0  0  0  0  0  0  0  0  0  0  0  0
  139.6070   73.9670  223.0890 H   0  0  0  0  0  0  0  0  0  0  0  0
  140.6925   73.7688  220.2750 H   0  0  0  0  0  0  0  0  0  0  0  0
  139.1160   74.6014  220.6689 H   0  0  0  0  0  0  0  0  0  0  0  0
  140.0170   77.0973  218.7084 H   0  0  0  0  0  0  0  0  0  0  0  0
  139.8142   77.8290  220.3211 H   0  0  0  0  0  0  0  0  0  0  0  0
  140.9478   79.3548  218.6936 H   0  0  0  0  0  0  0  0  0  0  0  0
  141.9883   78.9304  220.1280 H   0  0  0  0  0  0  0  0  0  0  0  0
  142.4224   78.5001  217.2939 H   0  0  0  0  0  0  0  0  0  0  0  0
  143.5572   78.4447  218.7146 H   0  0  0  0  0  0  0  0  0  0  0  0
  141.8017   76.1926  217.6495 H   0  0  0  0  0  0  0  0  0  0  0  0
  143.5729   76.2482  217.6790 H   0  0  0  0  0  0  0  0  0  0  0  0
  143.3962   76.5522  220.2861 H   0  0  0  0  0  0  0  0  0  0  0  0
  141.6802   74.1506  218.0630 H   0  0  0  0  0  0  0  0  0  0  0  0
  142.2497   71.7263  218.0974 H   0  0  0  0  0  0  0  0  0  0  0  0
  144.9514   72.4516  221.3756 H   0  0  0  0  0  0  0  0  0  0  0  0
  144.3816   74.9008  221.3479 H   0  0  0  0  0  0  0  0  0  0  0  0
  139.1277   69.7732  222.5163 H   0  0  0  0  0  0  0  0  0  0  0  0
  138.9005   68.5577  224.6669 H   0  0  0  0  0  0  0  0  0  0  0  0
  139.2799   68.3927  227.1106 H   0  0  0  0  0  0  0  0  0  0  0  0
  140.2176   69.4603  229.1378 H   0  0  0  0  0  0  0  0  0  0  0  0
  141.3429   71.6492  229.0469 H   0  0  0  0  0  0  0  0  0  0  0  0
  141.5573   72.8554  226.8507 H   0  0  0  0  0  0  0  0  0  0  0  0
  1  2  2  0
  2  3  1  0
  3  4  1  0
  4  5  1  0
  5  6  2  0
  5  7  1  0
  7  8  1  0
  8  9  1  0
  9 10  1  0
 10 11  1  0
 11 12  1  0
 12 13  1  0
 13 14  2  0
 14 15  1  0
 15 16  2  0
 16 17  1  0
 16 18  1  0
 18 19  2  0
  2 20  1  0
 20 21  2  0
 21 22  1  0
 22 23  2  0
 23 24  1  0
 24 25  2  0
 25 26  1  0
 26 27  2  0
 27 28  1  0
 28 29  2  0
 12  7  1  0
 19 13  1  0
 29 20  1  0
 28 23  1  0
  3 30  1  0
  4 31  1  0
  4 32  1  0
  8 33  1  0
  8 34  1  0
  9 35  1  0
  9 36  1  0
 10 37  1  0
 10 38  1  0
 11 39  1  0
 11 40  1  0
 12 41  1  1
 14 42  1  0
 15 43  1  0
 18 44  1  0
 19 45  1  0
 21 46  1  0
 22 47  1  0
 24 48  1  0
 25 49  1  0
 26 50  1  0
 27 51  1  0
M  END
>  <smiles>  (18) 
O=C(NCC(=O)N1CCCCC1c1ccc(Cl)cc1)c1ccc2ccccc2n1

>  <score_type>  (18) 
oracle

>  <origin>  (18) 
autodockgpu

>  <m_score__min__energy>  (18) 
-8.7799999999999994

>  <m_primary>  (18) 
energy

>  <rmsd>  (18) 
2.0492707673846895

>  <m_score__min__rmsd>  (18) 
2.0492707673846895

>  <meeko>  (18) 
{"free_energy": -8.22, "intermolecular_energy": -9.71, "internal_energy": -2.24, "cluster_size": 23, "cluster_id": 3, "rank_in_cluster": 11}

>  <energy>  (18) 
-8.3

>  <cluster_rmsd>  (18) 
0.45

>  <cluster>  (18) 
3

$$$$

     RDKit          3D

 51 54  0  0  0  0  0  0  0  0999 V2000
  139.8770   70.9830  221.3230 O   0  0  0  0  0  0  0  0  0  0  0  0
  139.8800   71.5030  222.4760 C   0  0  0  0  0  0  0  0  0  0  0  0
  139.9150   72.9180  222.5340 N   0  0  0  0  0  0  0  0  0  0  0  0
  139.9480   73.7330  221.3630 C   0  0  0  0  0  0  0  0  0  0  0  0
  140.5340   75.0730  221.5950 C   0  0  0  0  0  0  0  0  0  0  0  0
  140.1770   75.6550  222.6760 O   0  0  0  0  0  0  0  0  0  0  0  0
  141.4200   75.6330  220.6660 N   0  0  0  0  0  0  0  0  0  0  0  0
  142.5710   74.8550  220.1840 C   0  0  0  0  0  0  0  0  0  0  0  0
  142.7720   75.1950  218.7220 C   0  0  0  0  0  0  0  0  0  0  0  0
  142.9270   76.6590  218.4840 C   0  0  0  0  0  0  0  0  0  0  0  0
  142.5640   77.4890  219.7030 C   0  0  0  0  0  0  0  0  0  0  0  0
  141.2050   76.9630  220.1870 C   0  0  2  0  0  0  0  0  0  0  0  0
  140.6150   77.8900  221.1860 C   0  0  0  0  0  0  0  0  0  0  0  0
  139.2670   78.1810  221.1020 C   0  0  0  0  0  0  0  0  0  0  0  0
  138.6880   79.0360  222.0120 C   0  0  0  0  0  0  0  0  0  0  0  0
  139.4950   79.5860  223.0010 C   0  0  0  0  0  0  0  0  0  0  0  0
  138.7250   80.6800  224.1540 Cl  0  0  0  0  0  0  0  0  0  0  0  0
  140.8390   79.2890  223.0760 C   0  0  0  0  0  0  0  0  0  0  0  0
  141.4350   78.4230  222.1580 C   0  0  0  0  0  0  0  0  0  0  0  0
  139.8480   70.7150  223.7030 C   0  0  0  0  0  0  0  0  0  0  0  0
  139.3470   69.4340  223.6970 C   0  0  0  0  0  0  0  0  0  0  0  0
  139.3510   68.7540  224.9000 C   0  0  0  0  0  0  0  0  0  0  0  0
  139.8270   69.3000  226.0710 C   0  0  0  0  0  0  0  0  0  0  0  0
  139.8330   68.6180  227.2750 C   0  0  0  0  0  0  0  0  0  0  0  0
  140.3360   69.2710  228.3810 C   0  0  0  0  0  0  0  0  0  0  0  0
  140.8280   70.5620  228.3250 C   0  0  0  0  0  0  0  0  0  0  0  0
  140.8260   71.2500  227.1200 C   0  0  0  0  0  0  0  0  0  0  0  0
  140.3200   70.5870  226.0210 C   0  0  0  0  0  0  0  0  0  0  0  0
  140.3110   71.2410  224.8460 N   0  0  0  0  0  0  0  0  0  0  0  0
  139.9170   73.3430  223.4960 H   0  0  0  0  0  0  0  0  0  0  0  0
  140.5468   73.2185  220.5970 H   0  0  0  0  0  0  0  0  0  0  0  0
  138.9063   73.8851  221.0440 H   0  0  0  0  0  0  0  0  0  0  0  0
  143.4707   75.1209  220.7583 H   0  0  0  0  0  0  0  0  0  0  0  0
  142.3892   73.7774  220.3091 H   0  0  0  0  0  0  0  0  0  0  0  0
  143.6773   74.6831  218.3636 H   0  0  0  0  0  0  0  0  0  0  0  0
  141.8739   74.8650  218.1792 H   0  0  0  0  0  0  0  0  0  0  0  0
  143.9743   76.8639  218.2171 H   0  0  0  0  0  0  0  0  0  0  0  0
  142.2398   76.9398  217.6722 H   0  0  0  0  0  0  0  0  0  0  0  0
  143.3233   77.3650  220.4892 H   0  0  0  0  0  0  0  0  0  0  0  0
  142.5166   78.5607  219.4599 H   0  0  0  0  0  0  0  0  0  0  0  0
  140.4602   76.9202  219.3787 H   0  0  0  0  0  0  0  0  0  0  0  0
  138.6558   77.7289  220.3070 H   0  0  0  0  0  0  0  0  0  0  0  0
  137.6162   79.2774  221.9580 H   0  0  0  0  0  0  0  0  0  0  0  0
  141.4505   79.7410  223.8708 H   0  0  0  0  0  0  0  0  0  0  0  0
  142.5062   78.1777  222.2075 H   0  0  0  0  0  0  0  0  0  0  0  0
  138.9607   68.9719  222.7765 H   0  0  0  0  0  0  0  0  0  0  0  0
  138.9552   67.7279  224.9232 H   0  0  0  0  0  0  0  0  0  0  0  0
  139.4495   67.5896  227.3477 H   0  0  0  0  0  0  0  0  0  0  0  0
  140.3461   68.7436  229.3462 H   0  0  0  0  0  0  0  0  0  0  0  0
  141.2201   71.0425  229.2335 H   0  0  0  0  0  0  0  0  0  0  0  0
  141.2106   72.2778  227.0444 H   0  0  0  0  0  0  0  0  0  0  0  0
  1  2  2  0
  2  3  1  0
  3  4  1  0
  4  5  1  0
  5  6  2  0
  5  7  1  0
  7  8  1  0
  8  9  1  0
  9 10  1  0
 10 11  1  0
 11 12  1  0
 12 13  1  0
 13 14  2  0
 14 15  1  0
 15 16  2  0
 16 17  1  0
 16 18  1  0
 18 19  2  0
  2 20  1  0
 20 21  2  0
 21 22  1  0
 22 23  2  0
 23 24  1  0
 24 25  2  0
 25 26  1  0
 26 27  2  0
 27 28  1  0
 28 29  2  0
 12  7  1  0
 19 13  1  0
 29 20  1  0
 28 23  1  0
  3 30  1  0
  4 31  1  0
  4 32  1  0
  8 33  1  0
  8 34  1  0
  9 35  1  0
  9 36  1  0
 10 37  1  0
 10 38  1  0
 11 39  1  0
 11 40  1  0
 12 41  1  6
 14 42  1  0
 15 43  1  0
 18 44  1  0
 19 45  1  0
 21 46  1  0
 22 47  1  0
 24 48  1  0
 25 49  1  0
 26 50  1  0
 27 51  1  0
M  END
>  <smiles>  (19) 
O=C(NCC(=O)N1CCCCC1c1ccc(Cl)cc1)c1ccc2ccccc2n1

>  <score_type>  (19) 
oracle

>  <origin>  (19) 
autodockgpu

>  <m_score__min__energy>  (19) 
-8.7799999999999994

>  <m_primary>  (19) 
energy

>  <rmsd>  (19) 
1.9936574762098678

>  <m_score__min__rmsd>  (19) 
1.9936574762098678

>  <meeko>  (19) 
{"free_energy": -8.54, "intermolecular_energy": -10.04, "internal_energy": -1.76, "cluster_size": 11, "cluster_id": 1, "rank_in_cluster": 9}

>  <energy>  (19) 
-8.28

>  <cluster_rmsd>  (19) 
0.66

>  <cluster>  (19) 
3

$$$$

     RDKit          3D

 51 54  0  0  0  0  0  0  0  0999 V2000
  140.9170   71.7120  221.1750 O   0  0  0  0  0  0  0  0  0  0  0  0
  140.4350   72.2050  222.2360 C   0  0  0  0  0  0  0  0  0  0  0  0
  140.0820   73.5760  222.1960 N   0  0  0  0  0  0  0  0  0  0  0  0
  140.2530   74.3780  221.0280 C   0  0  0  0  0  0  0  0  0  0  0  0
  140.8430   75.7070  221.3090 C   0  0  0  0  0  0  0  0  0  0  0  0
  140.8600   76.0580  222.5390 O   0  0  0  0  0  0  0  0  0  0  0  0
  141.3390   76.5020  220.2680 N   0  0  0  0  0  0  0  0  0  0  0  0
  140.5320   77.6130  219.7410 C   0  0  0  0  0  0  0  0  0  0  0  0
  141.4800   78.7430  219.3970 C   0  0  0  0  0  0  0  0  0  0  0  0
  142.5640   78.3240  218.4610 C   0  0  0  0  0  0  0  0  0  0  0  0
  142.6410   76.8160  218.2970 C   0  0  0  0  0  0  0  0  0  0  0  0
  142.6300   76.2320  219.7160 C   0  0  2  0  0  0  0  0  0  0  0  0
  143.0010   74.7940  219.6900 C   0  0  0  0  0  0  0  0  0  0  0  0
  143.9090   74.3280  220.6210 C   0  0  0  0  0  0  0  0  0  0  0  0
  144.2740   73.0010  220.6240 C   0  0  0  0  0  0  0  0  0  0  0  0
  143.7040   72.1620  219.6730 C   0  0  0  0  0  0  0  0  0  0  0  0
  144.1920   70.4650  219.7020 Cl  0  0  0  0  0  0  0  0  0  0  0  0
  142.7980   72.6370  218.7490 C   0  0  0  0  0  0  0  0  0  0  0  0
  142.4220   73.9810  218.7380 C   0  0  0  0  0  0  0  0  0  0  0  0
  140.2410   71.4280  223.4550 C   0  0  0  0  0  0  0  0  0  0  0  0
  139.6010   70.2110  223.4130 C   0  0  0  0  0  0  0  0  0  0  0  0
  139.4560   69.5380  224.6110 C   0  0  0  0  0  0  0  0  0  0  0  0
  139.9170   70.0310  225.8110 C   0  0  0  0  0  0  0  0  0  0  0  0
  139.7720   69.3560  227.0110 C   0  0  0  0  0  0  0  0  0  0  0  0
  140.2760   69.9510  228.1490 C   0  0  0  0  0  0  0  0  0  0  0  0
  140.9110   71.1790  228.1280 C   0  0  0  0  0  0  0  0  0  0  0  0
  141.0600   71.8600  226.9280 C   0  0  0  0  0  0  0  0  0  0  0  0
  140.5520   71.2550  225.7970 C   0  0  0  0  0  0  0  0  0  0  0  0
  140.6880   71.9030  224.6270 N   0  0  0  0  0  0  0  0  0  0  0  0
  139.6820   73.9780  223.0810 H   0  0  0  0  0  0  0  0  0  0  0  0
  140.9149   73.8428  220.3312 H   0  0  0  0  0  0  0  0  0  0  0  0
  139.2533   74.5496  220.6024 H   0  0  0  0  0  0  0  0  0  0  0  0
  139.9911   77.2893  218.8395 H   0  0  0  0  0  0  0  0  0  0  0  0
  139.7927   77.9416  220.4863 H   0  0  0  0  0  0  0  0  0  0  0  0
  140.9042   79.5541  218.9273 H   0  0  0  0  0  0  0  0  0  0  0  0
  141.9581   79.0703  220.3320 H   0  0  0  0  0  0  0  0  0  0  0  0
  142.3743   78.7766  217.4765 H   0  0  0  0  0  0  0  0  0  0  0  0
  143.5208   78.6631  218.8848 H   0  0  0  0  0  0  0  0  0  0  0  0
  141.7748   76.4494  217.7266 H   0  0  0  0  0  0  0  0  0  0  0  0
  143.5455   76.5175  217.7468 H   0  0  0  0  0  0  0  0  0  0  0  0
  143.3851   76.6981  220.3661 H   0  0  0  0  0  0  0  0  0  0  0  0
  144.3407   75.0183  221.3607 H   0  0  0  0  0  0  0  0  0  0  0  0
  144.9965   72.6150  221.3582 H   0  0  0  0  0  0  0  0  0  0  0  0
  142.3652   71.9469  218.0098 H   0  0  0  0  0  0  0  0  0  0  0  0
  141.6998   74.3725  218.0065 H   0  0  0  0  0  0  0  0  0  0  0  0
  139.2220   69.7928  222.4688 H   0  0  0  0  0  0  0  0  0  0  0  0
  138.9482   68.5622  224.6057 H   0  0  0  0  0  0  0  0  0  0  0  0
  139.2714   68.3775  227.0556 H   0  0  0  0  0  0  0  0  0  0  0  0
  140.1685   69.4280  229.1107 H   0  0  0  0  0  0  0  0  0  0  0  0
  141.2974   71.6155  229.0608 H   0  0  0  0  0  0  0  0  0  0  0  0
  141.5607   72.8383  226.8808 H   0  0  0  0  0  0  0  0  0  0  0  0
  1  2  2  0
  2  3  1  0
  3  4  1  0
  4  5  1  0
  5  6  2  0
  5  7  1  0
  7  8  1  0
  8  9  1  0
  9 10  1  0
 10 11  1  0
 11 12  1  0
 12 13  1  0
 13 14  2  0
 14 15  1  0
 15 16  2  0
 16 17  1  0
 16 18  1  0
 18 19  2  0
  2 20  1  0
 20 21  2  0
 21 22  1  0
 22 23  2  0
 23 24  1  0
 24 25  2  0
 25 26  1  0
 26 27  2  0
 27 28  1  0
 28 29  2  0
 12  7  1  0
 19 13  1  0
 29 20  1  0
 28 23  1  0
  3 30  1  0
  4 31  1  0
  4 32  1  0
  8 33  1  0
  8 34  1  0
  9 35  1  0
  9 36  1  0
 10 37  1  0
 10 38  1  0
 11 39  1  0
 11 40  1  0
 12 41  1  1
 14 42  1  0
 15 43  1  0
 18 44  1  0
 19 45  1  0
 21 46  1  0
 22 47  1  0
 24 48  1  0
 25 49  1  0
 26 50  1  0
 27 51  1  0
M  END
>  <smiles>  (20) 
O=C(NCC(=O)N1CCCCC1c1ccc(Cl)cc1)c1ccc2ccccc2n1

>  <score_type>  (20) 
oracle

>  <origin>  (20) 
autodockgpu

>  <m_score__min__energy>  (20) 
-8.7799999999999994

>  <m_primary>  (20) 
energy

>  <rmsd>  (20) 
2.1178513244304806

>  <m_score__min__rmsd>  (20) 
2.1178513244304806

>  <meeko>  (20) 
{"free_energy": -8.21, "intermolecular_energy": -9.7, "internal_energy": -2.21, "cluster_size": 23, "cluster_id": 3, "rank_in_cluster": 15}

>  <energy>  (20) 
-8.28

>  <cluster_rmsd>  (20) 
0.44

>  <cluster>  (20) 
3

$$$$

     RDKit          3D

 51 54  0  0  0  0  0  0  0  0999 V2000
  141.4570   72.3570  221.8860 O   0  0  0  0  0  0  0  0  0  0  0  0
  140.4160   72.3720  222.6060 C   0  0  0  0  0  0  0  0  0  0  0  0
  139.4280   73.3300  222.2720 N   0  0  0  0  0  0  0  0  0  0  0  0
  139.5790   74.2410  221.1840 C   0  0  0  0  0  0  0  0  0  0  0  0
  140.1670   75.5400  221.5820 C   0  0  0  0  0  0  0  0  0  0  0  0
  139.8250   75.9740  222.7350 O   0  0  0  0  0  0  0  0  0  0  0  0
  141.0380   76.2210  220.7220 N   0  0  0  0  0  0  0  0  0  0  0  0
  142.2520   75.5560  220.2260 C   0  0  0  0  0  0  0  0  0  0  0  0
  142.4700   76.0100  218.7970 C   0  0  0  0  0  0  0  0  0  0  0  0
  142.5310   77.4940  218.6640 C   0  0  0  0  0  0  0  0  0  0  0  0
  142.0790   78.2110  219.9240 C   0  0  0  0  0  0  0  0  0  0  0  0
  140.7460   77.5640  220.3270 C   0  0  2  0  0  0  0  0  0  0  0  0
  140.0660   78.3780  221.3660 C   0  0  0  0  0  0  0  0  0  0  0  0
  140.8130   78.8560  222.4260 C   0  0  0  0  0  0  0  0  0  0  0  0
  140.2130   79.6140  223.4060 C   0  0  0  0  0  0  0  0  0  0  0  0
  138.8530   79.8770  223.2920 C   0  0  0  0  0  0  0  0  0  0  0  0
  138.1120   80.8520  224.5640 Cl  0  0  0  0  0  0  0  0  0  0  0  0
  138.1170   79.3950  222.2310 C   0  0  0  0  0  0  0  0  0  0  0  0
  138.7160   78.6260  221.2320 C   0  0  0  0  0  0  0  0  0  0  0  0
  140.2150   71.4640  223.7290 C   0  0  0  0  0  0  0  0  0  0  0  0
  139.5500   70.2730  223.5550 C   0  0  0  0  0  0  0  0  0  0  0  0
  139.3990   69.4690  224.6680 C   0  0  0  0  0  0  0  0  0  0  0  0
  139.8800   69.8110  225.9130 C   0  0  0  0  0  0  0  0  0  0  0  0
  139.7300   69.0060  227.0280 C   0  0  0  0  0  0  0  0  0  0  0  0
  140.2550   69.4550  228.2210 C   0  0  0  0  0  0  0  0  0  0  0  0
  140.9160   70.6650  228.3360 C   0  0  0  0  0  0  0  0  0  0  0  0
  141.0700   71.4770  227.2200 C   0  0  0  0  0  0  0  0  0  0  0  0
  140.5410   71.0160  226.0330 C   0  0  0  0  0  0  0  0  0  0  0  0
  140.6810   71.7910  224.9430 N   0  0  0  0  0  0  0  0  0  0  0  0
  138.5670   73.3380  222.8750 H   0  0  0  0  0  0  0  0  0  0  0  0
  140.2331   73.7785  220.4302 H   0  0  0  0  0  0  0  0  0  0  0  0
  138.5725   74.4470  220.7910 H   0  0  0  0  0  0  0  0  0  0  0  0
  143.1153   75.8398  220.8458 H   0  0  0  0  0  0  0  0  0  0  0  0
  142.1404   74.4626  220.2718 H   0  0  0  0  0  0  0  0  0  0  0  0
  143.4178   75.5856  218.4343 H   0  0  0  0  0  0  0  0  0  0  0  0
  141.6121   75.6598  218.2042 H   0  0  0  0  0  0  0  0  0  0  0  0
  143.5687   77.7860  218.4452 H   0  0  0  0  0  0  0  0  0  0  0  0
  141.8486   77.7846  217.8516 H   0  0  0  0  0  0  0  0  0  0  0  0
  142.8230   78.0827  220.7240 H   0  0  0  0  0  0  0  0  0  0  0  0
  141.9657   79.2917  219.7528 H   0  0  0  0  0  0  0  0  0  0  0  0
  140.0287   77.5285  219.4938 H   0  0  0  0  0  0  0  0  0  0  0  0
  141.8879   78.6306  222.4866 H   0  0  0  0  0  0  0  0  0  0  0  0
  140.7940   80.0010  224.2561 H   0  0  0  0  0  0  0  0  0  0  0  0
  137.0419   79.6196  222.1707 H   0  0  0  0  0  0  0  0  0  0  0  0
  138.1396   78.2369  220.3797 H   0  0  0  0  0  0  0  0  0  0  0  0
  139.1557   69.9737  222.5727 H   0  0  0  0  0  0  0  0  0  0  0  0
  138.8701   68.5111  224.5551 H   0  0  0  0  0  0  0  0  0  0  0  0
  139.2089   68.0393  226.9648 H   0  0  0  0  0  0  0  0  0  0  0  0
  140.1440   68.8264  229.1169 H   0  0  0  0  0  0  0  0  0  0  0  0
  141.3185   70.9830  229.3090 H   0  0  0  0  0  0  0  0  0  0  0  0
  141.5905   72.4442  227.2802 H   0  0  0  0  0  0  0  0  0  0  0  0
  1  2  2  0
  2  3  1  0
  3  4  1  0
  4  5  1  0
  5  6  2  0
  5  7  1  0
  7  8  1  0
  8  9  1  0
  9 10  1  0
 10 11  1  0
 11 12  1  0
 12 13  1  0
 13 14  2  0
 14 15  1  0
 15 16  2  0
 16 17  1  0
 16 18  1  0
 18 19  2  0
  2 20  1  0
 20 21  2  0
 21 22  1  0
 22 23  2  0
 23 24  1  0
 24 25  2  0
 25 26  1  0
 26 27  2  0
 27 28  1  0
 28 29  2  0
 12  7  1  0
 19 13  1  0
 29 20  1  0
 28 23  1  0
  3 30  1  0
  4 31  1  0
  4 32  1  0
  8 33  1  0
  8 34  1  0
  9 35  1  0
  9 36  1  0
 10 37  1  0
 10 38  1  0
 11 39  1  0
 11 40  1  0
 12 41  1  6
 14 42  1  0
 15 43  1  0
 18 44  1  0
 19 45  1  0
 21 46  1  0
 22 47  1  0
 24 48  1  0
 25 49  1  0
 26 50  1  0
 27 51  1  0
M  END
>  <smiles>  (21) 
O=C(NCC(=O)N1CCCCC1c1ccc(Cl)cc1)c1ccc2ccccc2n1

>  <score_type>  (21) 
oracle

>  <origin>  (21) 
autodockgpu

>  <m_score__min__energy>  (21) 
-8.7799999999999994

>  <m_primary>  (21) 
energy

>  <rmsd>  (21) 
2.0719845173834504

>  <m_score__min__rmsd>  (21) 
2.0719845173834504

>  <meeko>  (21) 
{"free_energy": -8.77, "intermolecular_energy": -10.26, "internal_energy": -1.43, "cluster_size": 11, "cluster_id": 1, "rank_in_cluster": 2}

>  <energy>  (21) 
-8.27

>  <cluster_rmsd>  (21) 
0.63

>  <cluster>  (21) 
3

$$$$

     RDKit          3D

 51 54  0  0  0  0  0  0  0  0999 V2000
  141.1800   71.8100  221.6970 O   0  0  0  0  0  0  0  0  0  0  0  0
  140.2690   71.9500  222.5630 C   0  0  0  0  0  0  0  0  0  0  0  0
  139.3550   73.0140  222.3560 N   0  0  0  0  0  0  0  0  0  0  0  0
  139.4420   73.8920  221.2350 C   0  0  0  0  0  0  0  0  0  0  0  0
  140.3080   75.0690  221.4770 C   0  0  0  0  0  0  0  0  0  0  0  0
  139.9800   75.8040  222.4700 O   0  0  0  0  0  0  0  0  0  0  0  0
  141.4060   75.3280  220.6480 N   0  0  0  0  0  0  0  0  0  0  0  0
  142.4330   74.2940  220.4420 C   0  0  0  0  0  0  0  0  0  0  0  0
  142.8950   74.3910  219.0030 C   0  0  0  0  0  0  0  0  0  0  0  0
  143.3730   75.7560  218.6390 C   0  0  0  0  0  0  0  0  0  0  0  0
  143.0210   76.7950  219.6890 C   0  0  0  0  0  0  0  0  0  0  0  0
  141.5310   76.5970  220.0020 C   0  0  2  0  0  0  0  0  0  0  0  0
  141.0080   77.7420  220.7890 C   0  0  0  0  0  0  0  0  0  0  0  0
  139.7340   78.2040  220.5190 C   0  0  0  0  0  0  0  0  0  0  0  0
  139.2200   79.2640  221.2300 C   0  0  0  0  0  0  0  0  0  0  0  0
  140.0150   79.8420  222.2140 C   0  0  0  0  0  0  0  0  0  0  0  0
  139.3270   81.2000  223.1090 Cl  0  0  0  0  0  0  0  0  0  0  0  0
  141.2840   79.3740  222.4750 C   0  0  0  0  0  0  0  0  0  0  0  0
  141.8150   78.3000  221.7600 C   0  0  0  0  0  0  0  0  0  0  0  0
  140.1370   71.0800  223.7250 C   0  0  0  0  0  0  0  0  0  0  0  0
  139.5370   69.8480  223.6110 C   0  0  0  0  0  0  0  0  0  0  0  0
  139.4510   69.0830  224.7590 C   0  0  0  0  0  0  0  0  0  0  0  0
  139.9330   69.5030  225.9800 C   0  0  0  0  0  0  0  0  0  0  0  0
  139.8470   68.7370  227.1290 C   0  0  0  0  0  0  0  0  0  0  0  0
  140.3660   69.2650  228.2930 C   0  0  0  0  0  0  0  0  0  0  0  0
  140.9590   70.5130  228.3460 C   0  0  0  0  0  0  0  0  0  0  0  0
  141.0480   71.2850  227.1960 C   0  0  0  0  0  0  0  0  0  0  0  0
  140.5260   70.7460  226.0380 C   0  0  0  0  0  0  0  0  0  0  0  0
  140.6050   71.4830  224.9160 N   0  0  0  0  0  0  0  0  0  0  0  0
  138.6010   73.1240  223.0790 H   0  0  0  0  0  0  0  0  0  0  0  0
  139.8486   73.3292  220.3818 H   0  0  0  0  0  0  0  0  0  0  0  0
  138.4277   74.2694  221.0380 H   0  0  0  0  0  0  0  0  0  0  0  0
  143.2810   74.4665  221.1211 H   0  0  0  0  0  0  0  0  0  0  0  0
  142.0236   73.2946  220.6508 H   0  0  0  0  0  0  0  0  0  0  0  0
  143.7185   73.6780  218.8497 H   0  0  0  0  0  0  0  0  0  0  0  0
  142.0310   74.1614  218.3621 H   0  0  0  0  0  0  0  0  0  0  0  0
  144.4666   75.7276  218.5236 H   0  0  0  0  0  0  0  0  0  0  0  0
  142.8747   76.0457  217.7021 H   0  0  0  0  0  0  0  0  0  0  0  0
  143.6251   76.6415  220.5954 H   0  0  0  0  0  0  0  0  0  0  0  0
  143.2238   77.8145  219.3290 H   0  0  0  0  0  0  0  0  0  0  0  0
  140.9113   76.5824  219.0933 H   0  0  0  0  0  0  0  0  0  0  0  0
  139.1301   77.7239  219.7349 H   0  0  0  0  0  0  0  0  0  0  0  0
  138.2081   79.6438  221.0257 H   0  0  0  0  0  0  0  0  0  0  0  0
  141.8879   79.8543  223.2590 H   0  0  0  0  0  0  0  0  0  0  0  0
  142.8265   77.9169  221.9601 H   0  0  0  0  0  0  0  0  0  0  0  0
  139.1431   69.4874  222.6493 H   0  0  0  0  0  0  0  0  0  0  0  0
  138.9758   68.0930  224.6951 H   0  0  0  0  0  0  0  0  0  0  0  0
  139.3806   67.7409  227.1148 H   0  0  0  0  0  0  0  0  0  0  0  0
  140.3057   68.6694  229.2158 H   0  0  0  0  0  0  0  0  0  0  0  0
  141.3593   70.8931  229.2974 H   0  0  0  0  0  0  0  0  0  0  0  0
  141.5136   72.2815  227.2072 H   0  0  0  0  0  0  0  0  0  0  0  0
  1  2  2  0
  2  3  1  0
  3  4  1  0
  4  5  1  0
  5  6  2  0
  5  7  1  0
  7  8  1  0
  8  9  1  0
  9 10  1  0
 10 11  1  0
 11 12  1  0
 12 13  1  0
 13 14  2  0
 14 15  1  0
 15 16  2  0
 16 17  1  0
 16 18  1  0
 18 19  2  0
  2 20  1  0
 20 21  2  0
 21 22  1  0
 22 23  2  0
 23 24  1  0
 24 25  2  0
 25 26  1  0
 26 27  2  0
 27 28  1  0
 28 29  2  0
 12  7  1  0
 19 13  1  0
 29 20  1  0
 28 23  1  0
  3 30  1  0
  4 31  1  0
  4 32  1  0
  8 33  1  0
  8 34  1  0
  9 35  1  0
  9 36  1  0
 10 37  1  0
 10 38  1  0
 11 39  1  0
 11 40  1  0
 12 41  1  6
 14 42  1  0
 15 43  1  0
 18 44  1  0
 19 45  1  0
 21 46  1  0
 22 47  1  0
 24 48  1  0
 25 49  1  0
 26 50  1  0
 27 51  1  0
M  END
>  <smiles>  (22) 
O=C(NCC(=O)N1CCCCC1c1ccc(Cl)cc1)c1ccc2ccccc2n1

>  <score_type>  (22) 
oracle

>  <origin>  (22) 
autodockgpu

>  <m_score__min__energy>  (22) 
-8.7799999999999994

>  <m_primary>  (22) 
energy

>  <rmsd>  (22) 
2.088402112490764

>  <m_score__min__rmsd>  (22) 
2.088402112490764

>  <meeko>  (22) 
{"free_energy": -8.57, "intermolecular_energy": -10.07, "internal_energy": -1.45, "cluster_size": 11, "cluster_id": 1, "rank_in_cluster": 8}

>  <energy>  (22) 
-8.26

>  <cluster_rmsd>  (22) 
0.64

>  <cluster>  (22) 
3

$$$$

     RDKit          3D

 51 54  0  0  0  0  0  0  0  0999 V2000
  133.4810   70.0590  226.8040 O   0  0  0  0  0  0  0  0  0  0  0  0
  133.7870   71.1900  226.3240 C   0  0  0  0  0  0  0  0  0  0  0  0
  134.8100   71.2080  225.3440 N   0  0  0  0  0  0  0  0  0  0  0  0
  135.4740   70.0230  224.9070 C   0  0  0  0  0  0  0  0  0  0  0  0
  136.3570   70.2410  223.7380 C   0  0  0  0  0  0  0  0  0  0  0  0
  136.4630   71.4520  223.3410 O   0  0  0  0  0  0  0  0  0  0  0  0
  137.0150   69.1640  223.1320 N   0  0  0  0  0  0  0  0  0  0  0  0
  136.2380   68.0880  222.4970 C   0  0  0  0  0  0  0  0  0  0  0  0
  136.9960   67.6440  221.2640 C   0  0  0  0  0  0  0  0  0  0  0  0
  138.4010   67.2400  221.5620 C   0  0  0  0  0  0  0  0  0  0  0  0
  138.8350   67.6350  222.9620 C   0  0  0  0  0  0  0  0  0  0  0  0
  138.4440   69.1100  223.1300 C   0  0  2  0  0  0  0  0  0  0  0  0
  139.0840   69.6840  224.3410 C   0  0  0  0  0  0  0  0  0  0  0  0
  139.7400   70.8950  224.2310 C   0  0  0  0  0  0  0  0  0  0  0  0
  140.3430   71.4540  225.3340 C   0  0  0  0  0  0  0  0  0  0  0  0
  140.2690   70.7680  226.5420 C   0  0  0  0  0  0  0  0  0  0  0  0
  141.0530   71.5110  227.9390 Cl  0  0  0  0  0  0  0  0  0  0  0  0
  139.6120   69.5610  226.6400 C   0  0  0  0  0  0  0  0  0  0  0  0
  138.9970   68.9860  225.5270 C   0  0  0  0  0  0  0  0  0  0  0  0
  133.1390   72.4280  226.7380 C   0  0  0  0  0  0  0  0  0  0  0  0
  131.9310   72.4000  227.3950 C   0  0  0  0  0  0  0  0  0  0  0  0
  131.3820   73.6160  227.7530 C   0  0  0  0  0  0  0  0  0  0  0  0
  131.9870   74.8230  227.4800 C   0  0  0  0  0  0  0  0  0  0  0  0
  131.4380   76.0410  227.8390 C   0  0  0  0  0  0  0  0  0  0  0  0
  132.1380   77.1840  227.5120 C   0  0  0  0  0  0  0  0  0  0  0  0
  133.3510   77.1500  226.8490 C   0  0  0  0  0  0  0  0  0  0  0  0
  133.9070   75.9300  226.4880 C   0  0  0  0  0  0  0  0  0  0  0  0
  133.1970   74.7950  226.8200 C   0  0  0  0  0  0  0  0  0  0  0  0
  133.7230   73.6070  226.4760 N   0  0  0  0  0  0  0  0  0  0  0  0
  135.0580   72.1500  224.9510 H   0  0  0  0  0  0  0  0  0  0  0  0
  136.0838   69.6384  225.7378 H   0  0  0  0  0  0  0  0  0  0  0  0
  134.6958   69.3097  224.5978 H   0  0  0  0  0  0  0  0  0  0  0  0
  136.1270   67.2439  223.1935 H   0  0  0  0  0  0  0  0  0  0  0  0
  135.2333   68.4446  222.2259 H   0  0  0  0  0  0  0  0  0  0  0  0
  136.4708   66.7862  220.8188 H   0  0  0  0  0  0  0  0  0  0  0  0
  137.0372   68.5004  220.5749 H   0  0  0  0  0  0  0  0  0  0  0  0
  138.4826   66.1476  221.4624 H   0  0  0  0  0  0  0  0  0  0  0  0
  139.0570   67.7612  220.8492 H   0  0  0  0  0  0  0  0  0  0  0  0
  138.3188   67.0158  223.7104 H   0  0  0  0  0  0  0  0  0  0  0  0
  139.9158   67.4876  223.1037 H   0  0  0  0  0  0  0  0  0  0  0  0
  138.8104   69.7368  222.3036 H   0  0  0  0  0  0  0  0  0  0  0  0
  139.7802   71.4124  223.2611 H   0  0  0  0  0  0  0  0  0  0  0  0
  140.8694   72.4173  225.2627 H   0  0  0  0  0  0  0  0  0  0  0  0
  139.5716   69.0430  227.6096 H   0  0  0  0  0  0  0  0  0  0  0  0
  138.4688   68.0233  225.5926 H   0  0  0  0  0  0  0  0  0  0  0  0
  131.4244   71.4511  227.6252 H   0  0  0  0  0  0  0  0  0  0  0  0
  130.4168   73.6206  228.2806 H   0  0  0  0  0  0  0  0  0  0  0  0
  130.4750   76.0963  228.3678 H   0  0  0  0  0  0  0  0  0  0  0  0
  131.7146   78.1606  227.7895 H   0  0  0  0  0  0  0  0  0  0  0  0
  133.8742   78.0872  226.6082 H   0  0  0  0  0  0  0  0  0  0  0  0
  134.8706   75.8712  225.9608 H   0  0  0  0  0  0  0  0  0  0  0  0
  1  2  2  0
  2  3  1  0
  3  4  1  0
  4  5  1  0
  5  6  2  0
  5  7  1  0
  7  8  1  0
  8  9  1  0
  9 10  1  0
 10 11  1  0
 11 12  1  0
 12 13  1  0
 13 14  2  0
 14 15  1  0
 15 16  2  0
 16 17  1  0
 16 18  1  0
 18 19  2  0
  2 20  1  0
 20 21  2  0
 21 22  1  0
 22 23  2  0
 23 24  1  0
 24 25  2  0
 25 26  1  0
 26 27  2  0
 27 28  1  0
 28 29  2  0
 12  7  1  0
 19 13  1  0
 29 20  1  0
 28 23  1  0
  3 30  1  0
  4 31  1  0
  4 32  1  0
  8 33  1  0
  8 34  1  0
  9 35  1  0
  9 36  1  0
 10 37  1  0
 10 38  1  0
 11 39  1  0
 11 40  1  0
 12 41  1  6
 14 42  1  0
 15 43  1  0
 18 44  1  0
 19 45  1  0
 21 46  1  0
 22 47  1  0
 24 48  1  0
 25 49  1  0
 26 50  1  0
 27 51  1  0
M  END
>  <smiles>  (23) 
O=C(NCC(=O)N1CCCCC1c1ccc(Cl)cc1)c1ccc2ccccc2n1

>  <score_type>  (23) 
oracle

>  <origin>  (23) 
autodockgpu

>  <m_score__min__energy>  (23) 
-8.7799999999999994

>  <m_primary>  (23) 
energy

>  <rmsd>  (23) 
8.888061182774514

>  <m_score__min__rmsd>  (23) 
8.888061182774514

>  <meeko>  (23) 
{"free_energy": -8.25, "intermolecular_energy": -9.75, "internal_energy": -2.23, "cluster_size": 5, "cluster_id": 4, "rank_in_cluster": 3}

>  <energy>  (23) 
-8.25

>  <cluster_rmsd>  (23) 
0.31

>  <cluster>  (23) 
3

$$$$

     RDKit          3D

 51 54  0  0  0  0  0  0  0  0999 V2000
  141.1970   74.4100  221.3240 O   0  0  0  0  0  0  0  0  0  0  0  0
  140.1940   74.8280  221.9730 C   0  0  0  0  0  0  0  0  0  0  0  0
  139.2270   73.8610  222.3400 N   0  0  0  0  0  0  0  0  0  0  0  0
  139.3570   72.4800  222.0030 C   0  0  0  0  0  0  0  0  0  0  0  0
  138.2780   71.6340  222.5630 C   0  0  0  0  0  0  0  0  0  0  0  0
  137.3460   72.2580  223.1770 O   0  0  0  0  0  0  0  0  0  0  0  0
  138.3120   70.2420  222.4100 N   0  0  0  0  0  0  0  0  0  0  0  0
  137.3070   69.5690  221.5730 C   0  0  0  0  0  0  0  0  0  0  0  0
  137.9980   68.4230  220.8630 C   0  0  0  0  0  0  0  0  0  0  0  0
  138.6840   67.4890  221.8030 C   0  0  0  0  0  0  0  0  0  0  0  0
  138.7800   68.0470  223.2110 C   0  0  0  0  0  0  0  0  0  0  0  0
  139.3230   69.4760  223.0680 C   0  0  2  0  0  0  0  0  0  0  0  0
  139.7390   70.0090  224.3900 C   0  0  0  0  0  0  0  0  0  0  0  0
  140.6750   71.0250  224.4290 C   0  0  0  0  0  0  0  0  0  0  0  0
  141.0810   71.5420  225.6390 C   0  0  0  0  0  0  0  0  0  0  0  0
  140.5240   71.0140  226.7980 C   0  0  0  0  0  0  0  0  0  0  0  0
  141.0650   71.6980  228.3340 Cl  0  0  0  0  0  0  0  0  0  0  0  0
  139.5910   70.0020  226.7480 C   0  0  0  0  0  0  0  0  0  0  0  0
  139.1720   69.4710  225.5270 C   0  0  0  0  0  0  0  0  0  0  0  0
  140.0150   76.2280  222.3400 C   0  0  0  0  0  0  0  0  0  0  0  0
  138.7560   76.7790  222.3990 C   0  0  0  0  0  0  0  0  0  0  0  0
  138.6690   78.1110  222.7530 C   0  0  0  0  0  0  0  0  0  0  0  0
  139.7720   78.8850  223.0410 C   0  0  0  0  0  0  0  0  0  0  0  0
  139.6860   80.2200  223.3970 C   0  0  0  0  0  0  0  0  0  0  0  0
  140.8610   80.8910  223.6630 C   0  0  0  0  0  0  0  0  0  0  0  0
  142.1010   80.2830  223.5870 C   0  0  0  0  0  0  0  0  0  0  0  0
  142.1930   78.9440  223.2310 C   0  0  0  0  0  0  0  0  0  0  0  0
  141.0110   78.2840  222.9680 C   0  0  0  0  0  0  0  0  0  0  0  0
  141.0840   76.9870  222.6220 N   0  0  0  0  0  0  0  0  0  0  0  0
  138.3970   74.2160  222.8780 H   0  0  0  0  0  0  0  0  0  0  0  0
  139.3411   72.3855  220.9072 H   0  0  0  0  0  0  0  0  0  0  0  0
  140.3044   72.1276  222.4369 H   0  0  0  0  0  0  0  0  0  0  0  0
  136.4914   69.1835  222.2025 H   0  0  0  0  0  0  0  0  0  0  0  0
  136.8762   70.2720  220.8449 H   0  0  0  0  0  0  0  0  0  0  0  0
  137.2457   67.8581  220.2930 H   0  0  0  0  0  0  0  0  0  0  0  0
  138.7672   68.8560  220.2067 H   0  0  0  0  0  0  0  0  0  0  0  0
  138.1208   66.5447  221.8355 H   0  0  0  0  0  0  0  0  0  0  0  0
  139.7089   67.3365  221.4336 H   0  0  0  0  0  0  0  0  0  0  0  0
  137.7870   68.0617  223.6841 H   0  0  0  0  0  0  0  0  0  0  0  0
  139.4353   67.4301  223.8434 H   0  0  0  0  0  0  0  0  0  0  0  0
  140.2364   69.5177  222.4564 H   0  0  0  0  0  0  0  0  0  0  0  0
  141.0959   71.4209  223.4930 H   0  0  0  0  0  0  0  0  0  0  0  0
  141.8254   72.3504  225.6871 H   0  0  0  0  0  0  0  0  0  0  0  0
  139.1699   69.6064  227.6840 H   0  0  0  0  0  0  0  0  0  0  0  0
  138.4267   68.6637  225.4739 H   0  0  0  0  0  0  0  0  0  0  0  0
  137.8580   76.1848  222.1741 H   0  0  0  0  0  0  0  0  0  0  0  0
  137.6734   78.5755  222.8076 H   0  0  0  0  0  0  0  0  0  0  0  0
  138.7130   80.7285  223.4654 H   0  0  0  0  0  0  0  0  0  0  0  0
  140.8100   81.9525  223.9470 H   0  0  0  0  0  0  0  0  0  0  0  0
  143.0119   80.8587  223.8080 H   0  0  0  0  0  0  0  0  0  0  0  0
  143.1646   78.4329  223.1619 H   0  0  0  0  0  0  0  0  0  0  0  0
  1  2  2  0
  2  3  1  0
  3  4  1  0
  4  5  1  0
  5  6  2  0
  5  7  1  0
  7  8  1  0
  8  9  1  0
  9 10  1  0
 10 11  1  0
 11 12  1  0
 12 13  1  0
 13 14  2  0
 14 15  1  0
 15 16  2  0
 16 17  1  0
 16 18  1  0
 18 19  2  0
  2 20  1  0
 20 21  2  0
 21 22  1  0
 22 23  2  0
 23 24  1  0
 24 25  2  0
 25 26  1  0
 26 27  2  0
 27 28  1  0
 28 29  2  0
 12  7  1  0
 19 13  1  0
 29 20  1  0
 28 23  1  0
  3 30  1  0
  4 31  1  0
  4 32  1  0
  8 33  1  0
  8 34  1  0
  9 35  1  0
  9 36  1  0
 10 37  1  0
 10 38  1  0
 11 39  1  0
 11 40  1  0
 12 41  1  6
 14 42  1  0
 15 43  1  0
 18 44  1  0
 19 45  1  0
 21 46  1  0
 22 47  1  0
 24 48  1  0
 25 49  1  0
 26 50  1  0
 27 51  1  0
M  END
>  <smiles>  (24) 
O=C(NCC(=O)N1CCCCC1c1ccc(Cl)cc1)c1ccc2ccccc2n1

>  <score_type>  (24) 
oracle

>  <origin>  (24) 
autodockgpu

>  <m_score__min__energy>  (24) 
-8.7799999999999994

>  <m_primary>  (24) 
energy

>  <rmsd>  (24) 
8.17653930981435

>  <m_score__min__rmsd>  (24) 
8.17653930981435

>  <meeko>  (24) 
{"free_energy": -8.51, "intermolecular_energy": -10.0, "internal_energy": -1.86, "cluster_size": 4, "cluster_id": 2, "rank_in_cluster": 1}

>  <energy>  (24) 
-8.24

>  <cluster_rmsd>  (24) 
0.55

>  <cluster>  (24) 
3

$$$$

     RDKit          3D

 51 54  0  0  0  0  0  0  0  0999 V2000
  140.7430   71.7600  221.0680 O   0  0  0  0  0  0  0  0  0  0  0  0
  140.3190   72.2270  222.1650 C   0  0  0  0  0  0  0  0  0  0  0  0
  139.9850   73.6040  222.1820 N   0  0  0  0  0  0  0  0  0  0  0  0
  140.1130   74.4380  221.0310 C   0  0  0  0  0  0  0  0  0  0  0  0
  140.8430   75.6980  221.2980 C   0  0  0  0  0  0  0  0  0  0  0  0
  140.9750   76.0140  222.5300 O   0  0  0  0  0  0  0  0  0  0  0  0
  141.3430   76.4690  220.2410 N   0  0  0  0  0  0  0  0  0  0  0  0
  140.5460   77.5820  219.7000 C   0  0  0  0  0  0  0  0  0  0  0  0
  141.5060   78.6940  219.3320 C   0  0  0  0  0  0  0  0  0  0  0  0
  142.5790   78.2460  218.3970 C   0  0  0  0  0  0  0  0  0  0  0  0
  142.6370   76.7360  218.2580 C   0  0  0  0  0  0  0  0  0  0  0  0
  142.6270   76.1750  219.6870 C   0  0  2  0  0  0  0  0  0  0  0  0
  142.9800   74.7320  219.6820 C   0  0  0  0  0  0  0  0  0  0  0  0
  143.9280   74.2800  220.5810 C   0  0  0  0  0  0  0  0  0  0  0  0
  144.2770   72.9490  220.6020 C   0  0  0  0  0  0  0  0  0  0  0  0
  143.6530   72.0920  219.7030 C   0  0  0  0  0  0  0  0  0  0  0  0
  144.1230   70.3900  219.7550 Cl  0  0  0  0  0  0  0  0  0  0  0  0
  142.7090   72.5530  218.8110 C   0  0  0  0  0  0  0  0  0  0  0  0
  142.3480   73.9010  218.7810 C   0  0  0  0  0  0  0  0  0  0  0  0
  140.1720   71.4160  223.3680 C   0  0  0  0  0  0  0  0  0  0  0  0
  139.5540   70.1880  223.3120 C   0  0  0  0  0  0  0  0  0  0  0  0
  139.4530   69.4830  224.4950 C   0  0  0  0  0  0  0  0  0  0  0  0
  139.9370   69.9540  225.6960 C   0  0  0  0  0  0  0  0  0  0  0  0
  139.8370   69.2470  226.8810 C   0  0  0  0  0  0  0  0  0  0  0  0
  140.3600   69.8230  228.0200 C   0  0  0  0  0  0  0  0  0  0  0  0
  140.9720   71.0630  228.0140 C   0  0  0  0  0  0  0  0  0  0  0  0
  141.0760   71.7770  226.8280 C   0  0  0  0  0  0  0  0  0  0  0  0
  140.5490   71.1900  225.6960 C   0  0  0  0  0  0  0  0  0  0  0  0
  140.6410   71.8690  224.5390 N   0  0  0  0  0  0  0  0  0  0  0  0
  139.6350   73.9840  223.0970 H   0  0  0  0  0  0  0  0  0  0  0  0
  140.6544   73.8791  220.2535 H   0  0  0  0  0  0  0  0  0  0  0  0
  139.0963   74.7121  220.7131 H   0  0  0  0  0  0  0  0  0  0  0  0
  139.9957   77.2504  218.8071 H   0  0  0  0  0  0  0  0  0  0  0  0
  139.8152   77.9321  220.4439 H   0  0  0  0  0  0  0  0  0  0  0  0
  140.9377   79.5045  218.8522 H   0  0  0  0  0  0  0  0  0  0  0  0
  141.9937   79.0306  220.2588 H   0  0  0  0  0  0  0  0  0  0  0  0
  142.3888   78.6842  217.4062 H   0  0  0  0  0  0  0  0  0  0  0  0
  143.5423   78.5804  218.8096 H   0  0  0  0  0  0  0  0  0  0  0  0
  141.7633   76.3705  217.6985 H   0  0  0  0  0  0  0  0  0  0  0  0
  143.5350   76.4177  217.7081 H   0  0  0  0  0  0  0  0  0  0  0  0
  143.3913   76.6424  220.3253 H   0  0  0  0  0  0  0  0  0  0  0  0
  144.4034   74.9843  221.2796 H   0  0  0  0  0  0  0  0  0  0  0  0
  145.0294   72.5735  221.3111 H   0  0  0  0  0  0  0  0  0  0  0  0
  142.2333   71.8486  218.1128 H   0  0  0  0  0  0  0  0  0  0  0  0
  141.5965   74.2817  218.0736 H   0  0  0  0  0  0  0  0  0  0  0  0
  139.1583   69.7861  222.3676 H   0  0  0  0  0  0  0  0  0  0  0  0
  138.9628   68.4984  224.4778 H   0  0  0  0  0  0  0  0  0  0  0  0
  139.3563   68.2581  226.9138 H   0  0  0  0  0  0  0  0  0  0  0  0
  140.2874   69.2743  228.9706 H   0  0  0  0  0  0  0  0  0  0  0  0
  141.3756   71.4828  228.9472 H   0  0  0  0  0  0  0  0  0  0  0  0
  141.5567   72.7658  226.7923 H   0  0  0  0  0  0  0  0  0  0  0  0
  1  2  2  0
  2  3  1  0
  3  4  1  0
  4  5  1  0
  5  6  2  0
  5  7  1  0
  7  8  1  0
  8  9  1  0
  9 10  1  0
 10 11  1  0
 11 12  1  0
 12 13  1  0
 13 14  2  0
 14 15  1  0
 15 16  2  0
 16 17  1  0
 16 18  1  0
 18 19  2  0
  2 20  1  0
 20 21  2  0
 21 22  1  0
 22 23  2  0
 23 24  1  0
 24 25  2  0
 25 26  1  0
 26 27  2  0
 27 28  1  0
 28 29  2  0
 12  7  1  0
 19 13  1  0
 29 20  1  0
 28 23  1  0
  3 30  1  0
  4 31  1  0
  4 32  1  0
  8 33  1  0
  8 34  1  0
  9 35  1  0
  9 36  1  0
 10 37  1  0
 10 38  1  0
 11 39  1  0
 11 40  1  0
 12 41  1  1
 14 42  1  0
 15 43  1  0
 18 44  1  0
 19 45  1  0
 21 46  1  0
 22 47  1  0
 24 48  1  0
 25 49  1  0
 26 50  1  0
 27 51  1  0
M  END
>  <smiles>  (25) 
O=C(NCC(=O)N1CCCCC1c1ccc(Cl)cc1)c1ccc2ccccc2n1

>  <score_type>  (25) 
oracle

>  <origin>  (25) 
autodockgpu

>  <m_score__min__energy>  (25) 
-8.7799999999999994

>  <m_primary>  (25) 
energy

>  <rmsd>  (25) 
2.065790324330541

>  <m_score__min__rmsd>  (25) 
2.065790324330541

>  <meeko>  (25) 
{"free_energy": -8.16, "intermolecular_energy": -9.65, "internal_energy": -2.24, "cluster_size": 23, "cluster_id": 3, "rank_in_cluster": 18}

>  <energy>  (25) 
-8.24

>  <cluster_rmsd>  (25) 
0.59

>  <cluster>  (25) 
3

$$$$

     RDKit          3D

 51 54  0  0  0  0  0  0  0  0999 V2000
  139.1450   72.0380  221.1270 O   0  0  0  0  0  0  0  0  0  0  0  0
  139.8990   72.2740  222.1160 C   0  0  0  0  0  0  0  0  0  0  0  0
  140.7450   73.4050  222.0140 N   0  0  0  0  0  0  0  0  0  0  0  0
  140.7620   74.2480  220.8620 C   0  0  0  0  0  0  0  0  0  0  0  0
  141.2820   75.6070  221.1360 C   0  0  0  0  0  0  0  0  0  0  0  0
  141.4500   75.8990  222.3700 O   0  0  0  0  0  0  0  0  0  0  0  0
  141.5590   76.4900  220.0850 N   0  0  0  0  0  0  0  0  0  0  0  0
  140.5180   77.4100  219.6020 C   0  0  0  0  0  0  0  0  0  0  0  0
  141.1960   78.7130  219.2330 C   0  0  0  0  0  0  0  0  0  0  0  0
  142.3030   78.5310  218.2500 C   0  0  0  0  0  0  0  0  0  0  0  0
  142.6850   77.0730  218.0670 C   0  0  0  0  0  0  0  0  0  0  0  0
  142.8540   76.4960  219.4800 C   0  0  2  0  0  0  0  0  0  0  0  0
  143.5140   75.1670  219.4230 C   0  0  0  0  0  0  0  0  0  0  0  0
  144.4550   74.8540  220.3850 C   0  0  0  0  0  0  0  0  0  0  0  0
  145.0850   73.6310  220.3610 C   0  0  0  0  0  0  0  0  0  0  0  0
  144.7450   72.7370  219.3520 C   0  0  0  0  0  0  0  0  0  0  0  0
  145.5710   71.1760  219.3480 Cl  0  0  0  0  0  0  0  0  0  0  0  0
  143.8050   73.0590  218.3970 C   0  0  0  0  0  0  0  0  0  0  0  0
  143.1610   74.2970  218.4130 C   0  0  0  0  0  0  0  0  0  0  0  0
  139.9190   71.4430  223.3140 C   0  0  0  0  0  0  0  0  0  0  0  0
  139.4530   70.1490  223.2760 C   0  0  0  0  0  0  0  0  0  0  0  0
  139.5050   69.4280  224.4530 C   0  0  0  0  0  0  0  0  0  0  0  0
  139.9950   69.9470  225.6310 C   0  0  0  0  0  0  0  0  0  0  0  0
  140.0490   69.2240  226.8100 C   0  0  0  0  0  0  0  0  0  0  0  0
  140.5620   69.8520  227.9260 C   0  0  0  0  0  0  0  0  0  0  0  0
  141.0170   71.1580  227.9040 C   0  0  0  0  0  0  0  0  0  0  0  0
  140.9660   71.8870  226.7240 C   0  0  0  0  0  0  0  0  0  0  0  0
  140.4510   71.2480  225.6150 C   0  0  0  0  0  0  0  0  0  0  0  0
  140.3950   71.9420  224.4640 N   0  0  0  0  0  0  0  0  0  0  0  0
  141.3680   73.5940  222.8380 H   0  0  0  0  0  0  0  0  0  0  0  0
  141.3974   73.7793  220.0962 H   0  0  0  0  0  0  0  0  0  0  0  0
  139.7206   74.3602  220.5261 H   0  0  0  0  0  0  0  0  0  0  0  0
  140.0198   76.9829  218.7192 H   0  0  0  0  0  0  0  0  0  0  0  0
  139.7574   77.5761  220.3792 H   0  0  0  0  0  0  0  0  0  0  0  0
  140.4455   79.3881  218.7960 H   0  0  0  0  0  0  0  0  0  0  0  0
  141.6344   79.1297  220.1518 H   0  0  0  0  0  0  0  0  0  0  0  0
  141.9824   78.9361  217.2789 H   0  0  0  0  0  0  0  0  0  0  0  0
  143.1851   79.0611  218.6384 H   0  0  0  0  0  0  0  0  0  0  0  0
  141.8913   76.5353  217.5276 H   0  0  0  0  0  0  0  0  0  0  0  0
  143.6085   76.9706  217.4782 H   0  0  0  0  0  0  0  0  0  0  0  0
  143.5215   77.1073  220.1051 H   0  0  0  0  0  0  0  0  0  0  0  0
  144.7008   75.5833  221.1709 H   0  0  0  0  0  0  0  0  0  0  0  0
  145.8371   73.3678  221.1193 H   0  0  0  0  0  0  0  0  0  0  0  0
  143.5588   72.3299  217.6110 H   0  0  0  0  0  0  0  0  0  0  0  0
  142.4086   74.5657  217.6569 H   0  0  0  0  0  0  0  0  0  0  0  0
  139.0566   69.7082  222.3494 H   0  0  0  0  0  0  0  0  0  0  0  0
  139.1380   68.3910  224.4494 H   0  0  0  0  0  0  0  0  0  0  0  0
  139.6948   68.1836  226.8556 H   0  0  0  0  0  0  0  0  0  0  0  0
  140.6112   69.2916  228.8713 H   0  0  0  0  0  0  0  0  0  0  0  0
  141.4182   71.6177  228.8193 H   0  0  0  0  0  0  0  0  0  0  0  0
  141.3202   72.9273  226.6752 H   0  0  0  0  0  0  0  0  0  0  0  0
  1  2  2  0
  2  3  1  0
  3  4  1  0
  4  5  1  0
  5  6  2  0
  5  7  1  0
  7  8  1  0
  8  9  1  0
  9 10  1  0
 10 11  1  0
 11 12  1  0
 12 13  1  0
 13 14  2  0
 14 15  1  0
 15 16  2  0
 16 17  1  0
 16 18  1  0
 18 19  2  0
  2 20  1  0
 20 21  2  0
 21 22  1  0
 22 23  2  0
 23 24  1  0
 24 25  2  0
 25 26  1  0
 26 27  2  0
 27 28  1  0
 28 29  2  0
 12  7  1  0
 19 13  1  0
 29 20  1  0
 28 23  1  0
  3 30  1  0
  4 31  1  0
  4 32  1  0
  8 33  1  0
  8 34  1  0
  9 35  1  0
  9 36  1  0
 10 37  1  0
 10 38  1  0
 11 39  1  0
 11 40  1  0
 12 41  1  1
 14 42  1  0
 15 43  1  0
 18 44  1  0
 19 45  1  0
 21 46  1  0
 22 47  1  0
 24 48  1  0
 25 49  1  0
 26 50  1  0
 27 51  1  0
M  END
>  <smiles>  (26) 
O=C(NCC(=O)N1CCCCC1c1ccc(Cl)cc1)c1ccc2ccccc2n1

>  <score_type>  (26) 
oracle

>  <origin>  (26) 
autodockgpu

>  <m_score__min__energy>  (26) 
-8.7799999999999994

>  <m_primary>  (26) 
energy

>  <rmsd>  (26) 
2.1360808385632466

>  <m_score__min__rmsd>  (26) 
2.1360808385632466

>  <meeko>  (26) 
{"free_energy": -7.74, "intermolecular_energy": -9.24, "internal_energy": -2.17, "cluster_size": 23, "cluster_id": 3, "rank_in_cluster": 22}

>  <energy>  (26) 
-8.22

>  <cluster_rmsd>  (26) 
0.62

>  <cluster>  (26) 
3

$$$$

     RDKit          3D

 51 54  0  0  0  0  0  0  0  0999 V2000
  140.7730   71.5670  221.1630 O   0  0  0  0  0  0  0  0  0  0  0  0
  140.4140   72.1210  222.2430 C   0  0  0  0  0  0  0  0  0  0  0  0
  140.1860   73.5180  222.1940 N   0  0  0  0  0  0  0  0  0  0  0  0
  140.3480   74.2810  220.9980 C   0  0  0  0  0  0  0  0  0  0  0  0
  140.9910   75.5950  221.2230 C   0  0  0  0  0  0  0  0  0  0  0  0
  141.0080   76.0060  222.4330 O   0  0  0  0  0  0  0  0  0  0  0  0
  141.5340   76.3140  220.1510 N   0  0  0  0  0  0  0  0  0  0  0  0
  140.7740   77.4180  219.5440 C   0  0  0  0  0  0  0  0  0  0  0  0
  141.7640   78.4980  219.1600 C   0  0  0  0  0  0  0  0  0  0  0  0
  142.8550   77.9950  218.2750 C   0  0  0  0  0  0  0  0  0  0  0  0
  142.8890   76.4790  218.1970 C   0  0  0  0  0  0  0  0  0  0  0  0
  142.8280   75.9760  219.6460 C   0  0  2  0  0  0  0  0  0  0  0  0
  143.1550   74.5290  219.7090 C   0  0  0  0  0  0  0  0  0  0  0  0
  142.5750   73.6790  218.7860 C   0  0  0  0  0  0  0  0  0  0  0  0
  142.8580   72.3330  218.8160 C   0  0  0  0  0  0  0  0  0  0  0  0
  143.7320   71.8670  219.7920 C   0  0  0  0  0  0  0  0  0  0  0  0
  144.0740   70.1340  219.8060 Cl  0  0  0  0  0  0  0  0  0  0  0  0
  144.3040   72.7230  220.7080 C   0  0  0  0  0  0  0  0  0  0  0  0
  144.0250   74.0900  220.6850 C   0  0  0  0  0  0  0  0  0  0  0  0
  140.2350   71.3860  223.4900 C   0  0  0  0  0  0  0  0  0  0  0  0
  139.6050   70.1630  223.4970 C   0  0  0  0  0  0  0  0  0  0  0  0
  139.4750   69.5320  224.7180 C   0  0  0  0  0  0  0  0  0  0  0  0
  139.9410   70.0720  225.8970 C   0  0  0  0  0  0  0  0  0  0  0  0
  139.8120   69.4390  227.1210 C   0  0  0  0  0  0  0  0  0  0  0  0
  140.3190   70.0780  228.2330 C   0  0  0  0  0  0  0  0  0  0  0  0
  140.9440   71.3100  228.1630 C   0  0  0  0  0  0  0  0  0  0  0  0
  141.0780   71.9490  226.9380 C   0  0  0  0  0  0  0  0  0  0  0  0
  140.5660   71.2990  225.8340 C   0  0  0  0  0  0  0  0  0  0  0  0
  140.6880   71.9060  224.6400 N   0  0  0  0  0  0  0  0  0  0  0  0
  139.8880   73.9710  223.0950 H   0  0  0  0  0  0  0  0  0  0  0  0
  140.9694   73.7039  220.2974 H   0  0  0  0  0  0  0  0  0  0  0  0
  139.3421   74.4754  220.5975 H   0  0  0  0  0  0  0  0  0  0  0  0
  140.2429   77.0606  218.6495 H   0  0  0  0  0  0  0  0  0  0  0  0
  140.0296   77.8102  220.2525 H   0  0  0  0  0  0  0  0  0  0  0  0
  141.2241   79.2979  218.6322 H   0  0  0  0  0  0  0  0  0  0  0  0
  142.2313   78.8631  220.0865 H   0  0  0  0  0  0  0  0  0  0  0  0
  142.7013   78.3968  217.2626 H   0  0  0  0  0  0  0  0  0  0  0  0
  143.8121   78.3290  218.7021 H   0  0  0  0  0  0  0  0  0  0  0  0
  142.0250   76.1067  217.6271 H   0  0  0  0  0  0  0  0  0  0  0  0
  143.7961   76.1234  217.6863 H   0  0  0  0  0  0  0  0  0  0  0  0
  143.5823   76.4558  220.2870 H   0  0  0  0  0  0  0  0  0  0  0  0
  141.8867   74.0791  218.0270 H   0  0  0  0  0  0  0  0  0  0  0  0
  142.4052   71.6441  218.0877 H   0  0  0  0  0  0  0  0  0  0  0  0
  144.9906   72.3228  221.4685 H   0  0  0  0  0  0  0  0  0  0  0  0
  144.4767   74.7834  221.4097 H   0  0  0  0  0  0  0  0  0  0  0  0
  139.2221   69.7084  222.5714 H   0  0  0  0  0  0  0  0  0  0  0  0
  138.9761   68.5522  224.7513 H   0  0  0  0  0  0  0  0  0  0  0  0
  139.3211   68.4582  227.2042 H   0  0  0  0  0  0  0  0  0  0  0  0
  140.2226   69.5890  229.2136 H   0  0  0  0  0  0  0  0  0  0  0  0
  141.3342   71.7825  229.0765 H   0  0  0  0  0  0  0  0  0  0  0  0
  141.5700   72.9290  226.8514 H   0  0  0  0  0  0  0  0  0  0  0  0
  1  2  2  0
  2  3  1  0
  3  4  1  0
  4  5  1  0
  5  6  2  0
  5  7  1  0
  7  8  1  0
  8  9  1  0
  9 10  1  0
 10 11  1  0
 11 12  1  0
 12 13  1  0
 13 14  2  0
 14 15  1  0
 15 16  2  0
 16 17  1  0
 16 18  1  0
 18 19  2  0
  2 20  1  0
 20 21  2  0
 21 22  1  0
 22 23  2  0
 23 24  1  0
 24 25  2  0
 25 26  1  0
 26 27  2  0
 27 28  1  0
 28 29  2  0
 12  7  1  0
 19 13  1  0
 29 20  1  0
 28 23  1  0
  3 30  1  0
  4 31  1  0
  4 32  1  0
  8 33  1  0
  8 34  1  0
  9 35  1  0
  9 36  1  0
 10 37  1  0
 10 38  1  0
 11 39  1  0
 11 40  1  0
 12 41  1  1
 14 42  1  0
 15 43  1  0
 18 44  1  0
 19 45  1  0
 21 46  1  0
 22 47  1  0
 24 48  1  0
 25 49  1  0
 26 50  1  0
 27 51  1  0
M  END
>  <smiles>  (27) 
O=C(NCC(=O)N1CCCCC1c1ccc(Cl)cc1)c1ccc2ccccc2n1

>  <score_type>  (27) 
oracle

>  <origin>  (27) 
autodockgpu

>  <m_score__min__energy>  (27) 
-8.7799999999999994

>  <m_primary>  (27) 
energy

>  <rmsd>  (27) 
2.137020279311711

>  <m_score__min__rmsd>  (27) 
2.137020279311711

>  <meeko>  (27) 
{"free_energy": -8.12, "intermolecular_energy": -9.61, "internal_energy": -2.32, "cluster_size": 23, "cluster_id": 3, "rank_in_cluster": 19}

>  <energy>  (27) 
-8.22

>  <cluster_rmsd>  (27) 
0.41

>  <cluster>  (27) 
3

$$$$

     RDKit          3D

 51 54  0  0  0  0  0  0  0  0999 V2000
  139.5870   71.7780  221.0190 O   0  0  0  0  0  0  0  0  0  0  0  0
  140.1720   72.1280  222.0850 C   0  0  0  0  0  0  0  0  0  0  0  0
  140.9380   73.3190  222.0260 N   0  0  0  0  0  0  0  0  0  0  0  0
  141.0570   74.0970  220.8360 C   0  0  0  0  0  0  0  0  0  0  0  0
  141.4200   75.5100  221.0910 C   0  0  0  0  0  0  0  0  0  0  0  0
  141.4150   75.8710  222.3170 O   0  0  0  0  0  0  0  0  0  0  0  0
  141.7410   76.3660  220.0300 N   0  0  0  0  0  0  0  0  0  0  0  0
  140.7280   77.2880  219.4950 C   0  0  0  0  0  0  0  0  0  0  0  0
  141.4340   78.5740  219.1190 C   0  0  0  0  0  0  0  0  0  0  0  0
  142.5690   78.3570  218.1760 C   0  0  0  0  0  0  0  0  0  0  0  0
  142.9370   76.8910  218.0370 C   0  0  0  0  0  0  0  0  0  0  0  0
  143.0540   76.3430  219.4660 C   0  0  2  0  0  0  0  0  0  0  0  0
  143.6990   75.0050  219.4590 C   0  0  0  0  0  0  0  0  0  0  0  0
  143.3900   74.1270  218.4370 C   0  0  0  0  0  0  0  0  0  0  0  0
  143.9710   72.8800  218.4010 C   0  0  0  0  0  0  0  0  0  0  0  0
  144.8630   72.5410  219.4130 C   0  0  0  0  0  0  0  0  0  0  0  0
  145.5910   70.9340  219.3400 Cl  0  0  0  0  0  0  0  0  0  0  0  0
  145.1630   73.4240  220.4270 C   0  0  0  0  0  0  0  0  0  0  0  0
  144.5800   74.6920  220.4720 C   0  0  0  0  0  0  0  0  0  0  0  0
  140.0840   71.3680  223.3250 C   0  0  0  0  0  0  0  0  0  0  0  0
  139.4920   70.1260  223.3430 C   0  0  0  0  0  0  0  0  0  0  0  0
  139.4460   69.4700  224.5580 C   0  0  0  0  0  0  0  0  0  0  0  0
  139.9600   70.0030  225.7200 C   0  0  0  0  0  0  0  0  0  0  0  0
  139.9150   69.3460  226.9370 C   0  0  0  0  0  0  0  0  0  0  0  0
  140.4630   69.9810  228.0320 C   0  0  0  0  0  0  0  0  0  0  0  0
  141.0460   71.2330  227.9520 C   0  0  0  0  0  0  0  0  0  0  0  0
  141.0940   71.8960  226.7340 C   0  0  0  0  0  0  0  0  0  0  0  0
  140.5430   71.2510  225.6470 C   0  0  0  0  0  0  0  0  0  0  0  0
  140.5820   71.8810  224.4600 N   0  0  0  0  0  0  0  0  0  0  0  0
  141.4220   73.6030  222.9150 H   0  0  0  0  0  0  0  0  0  0  0  0
  141.8341   73.6465  220.2011 H   0  0  0  0  0  0  0  0  0  0  0  0
  140.0709   74.0979  220.3486 H   0  0  0  0  0  0  0  0  0  0  0  0
  140.2517   76.8478  218.6066 H   0  0  0  0  0  0  0  0  0  0  0  0
  139.9462   77.4808  220.2444 H   0  0  0  0  0  0  0  0  0  0  0  0
  140.7063   79.2482  218.6436 H   0  0  0  0  0  0  0  0  0  0  0  0
  141.8487   79.0057  220.0419 H   0  0  0  0  0  0  0  0  0  0  0  0
  142.2847   78.7447  217.1866 H   0  0  0  0  0  0  0  0  0  0  0  0
  143.4453   78.8847  218.5806 H   0  0  0  0  0  0  0  0  0  0  0  0
  142.1535   76.3517  217.4845 H   0  0  0  0  0  0  0  0  0  0  0  0
  143.8772   76.7642  217.4802 H   0  0  0  0  0  0  0  0  0  0  0  0
  143.7094   76.9598  220.0985 H   0  0  0  0  0  0  0  0  0  0  0  0
  142.6794   74.4252  217.6521 H   0  0  0  0  0  0  0  0  0  0  0  0
  143.7363   72.1705  217.5938 H   0  0  0  0  0  0  0  0  0  0  0  0
  145.8724   73.1257  221.2130 H   0  0  0  0  0  0  0  0  0  0  0  0
  144.8123   75.4059  221.2760 H   0  0  0  0  0  0  0  0  0  0  0  0
  139.0740   69.6755  222.4307 H   0  0  0  0  0  0  0  0  0  0  0  0
  138.9771   68.4758  224.5997 H   0  0  0  0  0  0  0  0  0  0  0  0
  139.4572   68.3500  227.0282 H   0  0  0  0  0  0  0  0  0  0  0  0
  140.4354   69.4721  229.0068 H   0  0  0  0  0  0  0  0  0  0  0  0
  141.4706   71.7019  228.8519 H   0  0  0  0  0  0  0  0  0  0  0  0
  141.5513   72.8920  226.6398 H   0  0  0  0  0  0  0  0  0  0  0  0
  1  2  2  0
  2  3  1  0
  3  4  1  0
  4  5  1  0
  5  6  2  0
  5  7  1  0
  7  8  1  0
  8  9  1  0
  9 10  1  0
 10 11  1  0
 11 12  1  0
 12 13  1  0
 13 14  2  0
 14 15  1  0
 15 16  2  0
 16 17  1  0
 16 18  1  0
 18 19  2  0
  2 20  1  0
 20 21  2  0
 21 22  1  0
 22 23  2  0
 23 24  1  0
 24 25  2  0
 25 26  1  0
 26 27  2  0
 27 28  1  0
 28 29  2  0
 12  7  1  0
 19 13  1  0
 29 20  1  0
 28 23  1  0
  3 30  1  0
  4 31  1  0
  4 32  1  0
  8 33  1  0
  8 34  1  0
  9 35  1  0
  9 36  1  0
 10 37  1  0
 10 38  1  0
 11 39  1  0
 11 40  1  0
 12 41  1  1
 14 42  1  0
 15 43  1  0
 18 44  1  0
 19 45  1  0
 21 46  1  0
 22 47  1  0
 24 48  1  0
 25 49  1  0
 26 50  1  0
 27 51  1  0
M  END
>  <smiles>  (28) 
O=C(NCC(=O)N1CCCCC1c1ccc(Cl)cc1)c1ccc2ccccc2n1

>  <score_type>  (28) 
oracle

>  <origin>  (28) 
autodockgpu

>  <m_score__min__energy>  (28) 
-8.7799999999999994

>  <m_primary>  (28) 
energy

>  <rmsd>  (28) 
2.217175639205962

>  <m_score__min__rmsd>  (28) 
2.217175639205962

>  <meeko>  (28) 
{"free_energy": -7.94, "intermolecular_energy": -9.43, "internal_energy": -2.18, "cluster_size": 23, "cluster_id": 3, "rank_in_cluster": 20}

>  <energy>  (28) 
-8.22

>  <cluster_rmsd>  (28) 
0.63

>  <cluster>  (28) 
3

$$$$

     RDKit          3D

 51 54  0  0  0  0  0  0  0  0999 V2000
  134.7540   68.3090  224.9710 O   0  0  0  0  0  0  0  0  0  0  0  0
  135.0670   69.5170  224.7630 C   0  0  0  0  0  0  0  0  0  0  0  0
  136.0980   69.7520  223.8190 N   0  0  0  0  0  0  0  0  0  0  0  0
  136.7610   68.6940  223.1290 C   0  0  0  0  0  0  0  0  0  0  0  0
  138.2280   68.8790  223.0400 C   0  0  0  0  0  0  0  0  0  0  0  0
  138.9320   67.8290  223.2330 O   0  0  0  0  0  0  0  0  0  0  0  0
  138.7720   70.1390  222.7630 N   0  0  0  0  0  0  0  0  0  0  0  0
  138.9700   70.5650  221.3680 C   0  0  0  0  0  0  0  0  0  0  0  0
  138.6700   72.0480  221.2970 C   0  0  0  0  0  0  0  0  0  0  0  0
  139.4770   72.8480  222.2630 C   0  0  0  0  0  0  0  0  0  0  0  0
  140.1920   71.9810  223.2840 C   0  0  0  0  0  0  0  0  0  0  0  0
  139.1350   71.0120  223.8340 C   0  0  2  0  0  0  0  0  0  0  0  0
  139.6440   70.3220  225.0460 C   0  0  0  0  0  0  0  0  0  0  0  0
  138.7460   69.6370  225.8430 C   0  0  0  0  0  0  0  0  0  0  0  0
  139.1860   68.9860  226.9730 C   0  0  0  0  0  0  0  0  0  0  0  0
  140.5410   69.0410  227.2780 C   0  0  0  0  0  0  0  0  0  0  0  0
  141.0740   68.1970  228.7350 Cl  0  0  0  0  0  0  0  0  0  0  0  0
  141.4270   69.7280  226.4770 C   0  0  0  0  0  0  0  0  0  0  0  0
  140.9920   70.3900  225.3280 C   0  0  0  0  0  0  0  0  0  0  0  0
  134.4200   70.6330  225.4430 C   0  0  0  0  0  0  0  0  0  0  0  0
  133.4760   70.4050  226.4170 C   0  0  0  0  0  0  0  0  0  0  0  0
  132.9090   71.5150  227.0130 C   0  0  0  0  0  0  0  0  0  0  0  0
  133.2490   72.8060  226.6740 C   0  0  0  0  0  0  0  0  0  0  0  0
  132.6820   73.9180  227.2720 C   0  0  0  0  0  0  0  0  0  0  0  0
  133.1030   75.1610  226.8490 C   0  0  0  0  0  0  0  0  0  0  0  0
  134.0590   75.3280  225.8630 C   0  0  0  0  0  0  0  0  0  0  0  0
  134.6320   74.2160  225.2600 C   0  0  0  0  0  0  0  0  0  0  0  0
  134.2020   72.9790  225.6930 C   0  0  0  0  0  0  0  0  0  0  0  0
  134.7470   71.8920  225.1180 N   0  0  0  0  0  0  0  0  0  0  0  0
  136.3530   70.7580  223.6520 H   0  0  0  0  0  0  0  0  0  0  0  0
  136.5598   67.7516  223.6595 H   0  0  0  0  0  0  0  0  0  0  0  0
  136.3718   68.6828  222.1002 H   0  0  0  0  0  0  0  0  0  0  0  0
  140.0098   70.3773  221.0621 H   0  0  0  0  0  0  0  0  0  0  0  0
  138.3067   70.0032  220.6939 H   0  0  0  0  0  0  0  0  0  0  0  0
  138.8882   72.4023  220.2787 H   0  0  0  0  0  0  0  0  0  0  0  0
  137.6102   72.1843  221.5583 H   0  0  0  0  0  0  0  0  0  0  0  0
  140.2278   73.4244  221.7026 H   0  0  0  0  0  0  0  0  0  0  0  0
  138.7860   73.5063  222.8100 H   0  0  0  0  0  0  0  0  0  0  0  0
  141.0096   71.4224  222.8049 H   0  0  0  0  0  0  0  0  0  0  0  0
  140.6368   72.5883  224.0861 H   0  0  0  0  0  0  0  0  0  0  0  0
  138.2273   71.5318  224.1745 H   0  0  0  0  0  0  0  0  0  0  0  0
  137.6797   69.6122  225.5741 H   0  0  0  0  0  0  0  0  0  0  0  0
  138.4840   68.4368  227.6176 H   0  0  0  0  0  0  0  0  0  0  0  0
  142.4930   69.7551  226.7472 H   0  0  0  0  0  0  0  0  0  0  0  0
  141.6902   70.9391  224.6792 H   0  0  0  0  0  0  0  0  0  0  0  0
  133.1855   69.3848  226.7083 H   0  0  0  0  0  0  0  0  0  0  0  0
  132.1507   71.3606  227.7947 H   0  0  0  0  0  0  0  0  0  0  0  0
  131.9205   73.8136  228.0589 H   0  0  0  0  0  0  0  0  0  0  0  0
  132.6614   76.0549  227.3137 H   0  0  0  0  0  0  0  0  0  0  0  0
  134.3646   76.3395  225.5573 H   0  0  0  0  0  0  0  0  0  0  0  0
  135.3939   74.3170  224.4731 H   0  0  0  0  0  0  0  0  0  0  0  0
  1  2  2  0
  2  3  1  0
  3  4  1  0
  4  5  1  0
  5  6  2  0
  5  7  1  0
  7  8  1  0
  8  9  1  0
  9 10  1  0
 10 11  1  0
 11 12  1  0
 12 13  1  0
 13 14  2  0
 14 15  1  0
 15 16  2  0
 16 17  1  0
 16 18  1  0
 18 19  2  0
  2 20  1  0
 20 21  2  0
 21 22  1  0
 22 23  2  0
 23 24  1  0
 24 25  2  0
 25 26  1  0
 26 27  2  0
 27 28  1  0
 28 29  2  0
 12  7  1  0
 19 13  1  0
 29 20  1  0
 28 23  1  0
  3 30  1  0
  4 31  1  0
  4 32  1  0
  8 33  1  0
  8 34  1  0
  9 35  1  0
  9 36  1  0
 10 37  1  0
 10 38  1  0
 11 39  1  0
 11 40  1  0
 12 41  1  1
 14 42  1  0
 15 43  1  0
 18 44  1  0
 19 45  1  0
 21 46  1  0
 22 47  1  0
 24 48  1  0
 25 49  1  0
 26 50  1  0
 27 51  1  0
M  END
>  <smiles>  (29) 
O=C(NCC(=O)N1CCCCC1c1ccc(Cl)cc1)c1ccc2ccccc2n1

>  <score_type>  (29) 
oracle

>  <origin>  (29) 
autodockgpu

>  <m_score__min__energy>  (29) 
-8.7799999999999994

>  <m_primary>  (29) 
energy

>  <rmsd>  (29) 
6.8598982003251985

>  <m_score__min__rmsd>  (29) 
6.8598982003251985

>  <meeko>  (29) 
{"free_energy": -7.62, "intermolecular_energy": -9.11, "internal_energy": -2.04, "cluster_size": 1, "cluster_id": 6, "rank_in_cluster": 1}

>  <energy>  (29) 
-8.21

>  <cluster_rmsd>  (29) 
0.6

>  <cluster>  (29) 
3

$$$$

     RDKit          3D

 51 54  0  0  0  0  0  0  0  0999 V2000
  141.2010   71.8770  221.4990 O   0  0  0  0  0  0  0  0  0  0  0  0
  140.4550   72.2310  222.4570 C   0  0  0  0  0  0  0  0  0  0  0  0
  139.8110   73.4870  222.3290 N   0  0  0  0  0  0  0  0  0  0  0  0
  139.9830   74.3240  221.1850 C   0  0  0  0  0  0  0  0  0  0  0  0
  140.4200   75.6980  221.5230 C   0  0  0  0  0  0  0  0  0  0  0  0
  140.0460   76.1340  222.6650 O   0  0  0  0  0  0  0  0  0  0  0  0
  141.1910   76.4420  220.6220 N   0  0  0  0  0  0  0  0  0  0  0  0
  142.4320   75.8740  220.0720 C   0  0  0  0  0  0  0  0  0  0  0  0
  142.5460   76.3340  218.6330 C   0  0  0  0  0  0  0  0  0  0  0  0
  142.4800   77.8170  218.4930 C   0  0  0  0  0  0  0  0  0  0  0  0
  142.0290   78.5030  219.7700 C   0  0  0  0  0  0  0  0  0  0  0  0
  140.7740   77.7530  220.2360 C   0  0  2  0  0  0  0  0  0  0  0  0
  140.0780   78.5170  221.3030 C   0  0  0  0  0  0  0  0  0  0  0  0
  140.8340   79.0810  222.3130 C   0  0  0  0  0  0  0  0  0  0  0  0
  140.2190   79.7950  223.3170 C   0  0  0  0  0  0  0  0  0  0  0  0
  138.8360   79.9260  223.2770 C   0  0  0  0  0  0  0  0  0  0  0  0
  138.0770   80.8470  224.5790 Cl  0  0  0  0  0  0  0  0  0  0  0  0
  138.0920   79.3590  222.2650 C   0  0  0  0  0  0  0  0  0  0  0  0
  138.7050   78.6330  221.2430 C   0  0  0  0  0  0  0  0  0  0  0  0
  140.2470   71.4130  223.6460 C   0  0  0  0  0  0  0  0  0  0  0  0
  139.6070   70.1990  223.5560 C   0  0  0  0  0  0  0  0  0  0  0  0
  139.4490   69.4860  224.7280 C   0  0  0  0  0  0  0  0  0  0  0  0
  139.8990   69.9370  225.9500 C   0  0  0  0  0  0  0  0  0  0  0  0
  139.7410   69.2210  227.1240 C   0  0  0  0  0  0  0  0  0  0  0  0
  140.2340   69.7760  228.2860 C   0  0  0  0  0  0  0  0  0  0  0  0
  140.8710   71.0040  228.3140 C   0  0  0  0  0  0  0  0  0  0  0  0
  141.0320   71.7250  227.1400 C   0  0  0  0  0  0  0  0  0  0  0  0
  140.5350   71.1590  225.9840 C   0  0  0  0  0  0  0  0  0  0  0  0
  140.6830   71.8470  224.8380 N   0  0  0  0  0  0  0  0  0  0  0  0
  139.1930   73.7750  223.1280 H   0  0  0  0  0  0  0  0  0  0  0  0
  140.7402   73.8683  220.5300 H   0  0  0  0  0  0  0  0  0  0  0  0
  139.0030   74.4065  220.6922 H   0  0  0  0  0  0  0  0  0  0  0  0
  143.2969   76.2315  220.6500 H   0  0  0  0  0  0  0  0  0  0  0  0
  142.4124   74.7755  220.1268 H   0  0  0  0  0  0  0  0  0  0  0  0
  143.5073   75.9853  218.2277 H   0  0  0  0  0  0  0  0  0  0  0  0
  141.6931   75.9112  218.0818 H   0  0  0  0  0  0  0  0  0  0  0  0
  143.4795   78.1908  218.2260 H   0  0  0  0  0  0  0  0  0  0  0  0
  141.7401   78.0459  217.7119 H   0  0  0  0  0  0  0  0  0  0  0  0
  142.8168   78.4412  220.5352 H   0  0  0  0  0  0  0  0  0  0  0  0
  141.8200   79.5696  219.6008 H   0  0  0  0  0  0  0  0  0  0  0  0
  140.0253   77.6531  219.4363 H   0  0  0  0  0  0  0  0  0  0  0  0
  141.9273   78.9595  222.3149 H   0  0  0  0  0  0  0  0  0  0  0  0
  140.8063   80.2493  224.1286 H   0  0  0  0  0  0  0  0  0  0  0  0
  136.9987   79.4805  222.2628 H   0  0  0  0  0  0  0  0  0  0  0  0
  138.1220   78.1759  220.4298 H   0  0  0  0  0  0  0  0  0  0  0  0
  139.2378   69.8135  222.5942 H   0  0  0  0  0  0  0  0  0  0  0  0
  138.9399   68.5119  224.6841 H   0  0  0  0  0  0  0  0  0  0  0  0
  139.2391   68.2422  227.1298 H   0  0  0  0  0  0  0  0  0  0  0  0
  140.1162   69.2205  229.2281 H   0  0  0  0  0  0  0  0  0  0  0  0
  141.2488   71.4075  229.2650 H   0  0  0  0  0  0  0  0  0  0  0  0
  141.5334   72.7040  227.1310 H   0  0  0  0  0  0  0  0  0  0  0  0
  1  2  2  0
  2  3  1  0
  3  4  1  0
  4  5  1  0
  5  6  2  0
  5  7  1  0
  7  8  1  0
  8  9  1  0
  9 10  1  0
 10 11  1  0
 11 12  1  0
 12 13  1  0
 13 14  2  0
 14 15  1  0
 15 16  2  0
 16 17  1  0
 16 18  1  0
 18 19  2  0
  2 20  1  0
 20 21  2  0
 21 22  1  0
 22 23  2  0
 23 24  1  0
 24 25  2  0
 25 26  1  0
 26 27  2  0
 27 28  1  0
 28 29  2  0
 12  7  1  0
 19 13  1  0
 29 20  1  0
 28 23  1  0
  3 30  1  0
  4 31  1  0
  4 32  1  0
  8 33  1  0
  8 34  1  0
  9 35  1  0
  9 36  1  0
 10 37  1  0
 10 38  1  0
 11 39  1  0
 11 40  1  0
 12 41  1  6
 14 42  1  0
 15 43  1  0
 18 44  1  0
 19 45  1  0
 21 46  1  0
 22 47  1  0
 24 48  1  0
 25 49  1  0
 26 50  1  0
 27 51  1  0
M  END
>  <smiles>  (30) 
O=C(NCC(=O)N1CCCCC1c1ccc(Cl)cc1)c1ccc2ccccc2n1

>  <score_type>  (30) 
oracle

>  <origin>  (30) 
autodockgpu

>  <m_score__min__energy>  (30) 
-8.7799999999999994

>  <m_primary>  (30) 
energy

>  <rmsd>  (30) 
2.151684184812117

>  <m_score__min__rmsd>  (30) 
2.151684184812117

>  <meeko>  (30) 
{"free_energy": -8.78, "intermolecular_energy": -10.27, "internal_energy": -1.54, "cluster_size": 11, "cluster_id": 1, "rank_in_cluster": 1}

>  <energy>  (30) 
-8.21

>  <cluster_rmsd>  (30) 
0.54

>  <cluster>  (30) 
3

$$$$

     RDKit          3D

 51 54  0  0  0  0  0  0  0  0999 V2000
  141.1450   74.4020  221.3280 O   0  0  0  0  0  0  0  0  0  0  0  0
  140.1350   74.8310  221.9570 C   0  0  0  0  0  0  0  0  0  0  0  0
  139.1440   73.8760  222.2940 N   0  0  0  0  0  0  0  0  0  0  0  0
  139.2620   72.4950  221.9500 C   0  0  0  0  0  0  0  0  0  0  0  0
  138.2150   71.6460  222.5630 C   0  0  0  0  0  0  0  0  0  0  0  0
  137.3050   72.2680  223.2110 O   0  0  0  0  0  0  0  0  0  0  0  0
  138.2550   70.2530  222.4220 N   0  0  0  0  0  0  0  0  0  0  0  0
  137.2270   69.5640  221.6260 C   0  0  0  0  0  0  0  0  0  0  0  0
  137.9020   68.4180  220.9030 C   0  0  0  0  0  0  0  0  0  0  0  0
  138.6270   67.4980  221.8270 C   0  0  0  0  0  0  0  0  0  0  0  0
  138.7670   68.0690  223.2260 C   0  0  0  0  0  0  0  0  0  0  0  0
  139.2940   69.5010  223.0520 C   0  0  2  0  0  0  0  0  0  0  0  0
  139.7500   70.0500  224.3540 C   0  0  0  0  0  0  0  0  0  0  0  0
  139.2240   69.5190  225.5160 C   0  0  0  0  0  0  0  0  0  0  0  0
  139.6260   70.0060  226.7390 C   0  0  0  0  0  0  0  0  0  0  0  0
  140.5640   71.0310  226.7620 C   0  0  0  0  0  0  0  0  0  0  0  0
  141.0600   71.6340  228.3460 Cl  0  0  0  0  0  0  0  0  0  0  0  0
  141.0830   71.5530  225.5970 C   0  0  0  0  0  0  0  0  0  0  0  0
  140.6820   71.0660  224.3520 C   0  0  0  0  0  0  0  0  0  0  0  0
  139.9680   76.2310  222.3310 C   0  0  0  0  0  0  0  0  0  0  0  0
  138.7140   76.7930  222.3920 C   0  0  0  0  0  0  0  0  0  0  0  0
  138.6410   78.1240  222.7530 C   0  0  0  0  0  0  0  0  0  0  0  0
  139.7510   78.8860  223.0450 C   0  0  0  0  0  0  0  0  0  0  0  0
  139.6770   80.2200  223.4080 C   0  0  0  0  0  0  0  0  0  0  0  0
  140.8580   80.8790  223.6770 C   0  0  0  0  0  0  0  0  0  0  0  0
  142.0920   80.2600  223.5990 C   0  0  0  0  0  0  0  0  0  0  0  0
  142.1720   78.9220  223.2370 C   0  0  0  0  0  0  0  0  0  0  0  0
  140.9840   78.2740  222.9700 C   0  0  0  0  0  0  0  0  0  0  0  0
  141.0450   76.9780  222.6170 N   0  0  0  0  0  0  0  0  0  0  0  0
  138.3080   74.2390  222.8170 H   0  0  0  0  0  0  0  0  0  0  0  0
  139.1917   72.4006  220.8563 H   0  0  0  0  0  0  0  0  0  0  0  0
  140.2312   72.1454  222.3354 H   0  0  0  0  0  0  0  0  0  0  0  0
  136.4370   69.1777  222.2868 H   0  0  0  0  0  0  0  0  0  0  0  0
  136.7654   70.2569  220.9071 H   0  0  0  0  0  0  0  0  0  0  0  0
  137.1352   67.8422  220.3640 H   0  0  0  0  0  0  0  0  0  0  0  0
  138.6447   68.8510  220.2169 H   0  0  0  0  0  0  0  0  0  0  0  0
  138.0726   66.5498  221.8871 H   0  0  0  0  0  0  0  0  0  0  0  0
  139.6398   67.3503  221.4240 H   0  0  0  0  0  0  0  0  0  0  0  0
  137.7908   68.0806  223.7328 H   0  0  0  0  0  0  0  0  0  0  0  0
  139.4483   67.4625  223.8408 H   0  0  0  0  0  0  0  0  0  0  0  0
  140.1861   69.5436  222.4099 H   0  0  0  0  0  0  0  0  0  0  0  0
  138.4839   68.7069  225.4637 H   0  0  0  0  0  0  0  0  0  0  0  0
  139.2158   69.5948  227.6732 H   0  0  0  0  0  0  0  0  0  0  0  0
  141.8235   72.3647  225.6490 H   0  0  0  0  0  0  0  0  0  0  0  0
  141.0897   71.4729  223.4149 H   0  0  0  0  0  0  0  0  0  0  0  0
  137.8104   76.2088  222.1636 H   0  0  0  0  0  0  0  0  0  0  0  0
  137.6500   78.5980  222.8101 H   0  0  0  0  0  0  0  0  0  0  0  0
  138.7086   80.7368  223.4794 H   0  0  0  0  0  0  0  0  0  0  0  0
  140.8168   81.9398  223.9652 H   0  0  0  0  0  0  0  0  0  0  0  0
  143.0080   80.8262  223.8232 H   0  0  0  0  0  0  0  0  0  0  0  0
  143.1389   78.4023  223.1663 H   0  0  0  0  0  0  0  0  0  0  0  0
  1  2  2  0
  2  3  1  0
  3  4  1  0
  4  5  1  0
  5  6  2  0
  5  7  1  0
  7  8  1  0
  8  9  1  0
  9 10  1  0
 10 11  1  0
 11 12  1  0
 12 13  1  0
 13 14  2  0
 14 15  1  0
 15 16  2  0
 16 17  1  0
 16 18  1  0
 18 19  2  0
  2 20  1  0
 20 21  2  0
 21 22  1  0
 22 23  2  0
 23 24  1  0
 24 25  2  0
 25 26  1  0
 26 27  2  0
 27 28  1  0
 28 29  2  0
 12  7  1  0
 19 13  1  0
 29 20  1  0
 28 23  1  0
  3 30  1  0
  4 31  1  0
  4 32  1  0
  8 33  1  0
  8 34  1  0
  9 35  1  0
  9 36  1  0
 10 37  1  0
 10 38  1  0
 11 39  1  0
 11 40  1  0
 12 41  1  6
 14 42  1  0
 15 43  1  0
 18 44  1  0
 19 45  1  0
 21 46  1  0
 22 47  1  0
 24 48  1  0
 25 49  1  0
 26 50  1  0
 27 51  1  0
M  END
>  <smiles>  (31) 
O=C(NCC(=O)N1CCCCC1c1ccc(Cl)cc1)c1ccc2ccccc2n1

>  <score_type>  (31) 
oracle

>  <origin>  (31) 
autodockgpu

>  <m_score__min__energy>  (31) 
-8.7799999999999994

>  <m_primary>  (31) 
energy

>  <rmsd>  (31) 
8.176172676497643

>  <m_score__min__rmsd>  (31) 
8.176172676497643

>  <meeko>  (31) 
{"free_energy": -8.5, "intermolecular_energy": -10.0, "internal_energy": -1.85, "cluster_size": 4, "cluster_id": 2, "rank_in_cluster": 2}

>  <energy>  (31) 
-8.2

>  <cluster_rmsd>  (31) 
0.69

>  <cluster>  (31) 
3

$$$$

     RDKit          3D

 51 54  0  0  0  0  0  0  0  0999 V2000
  141.0600   71.5670  221.4080 O   0  0  0  0  0  0  0  0  0  0  0  0
  140.4770   72.0460  222.4230 C   0  0  0  0  0  0  0  0  0  0  0  0
  140.0560   73.3960  222.3360 N   0  0  0  0  0  0  0  0  0  0  0  0
  140.2710   74.1920  221.1700 C   0  0  0  0  0  0  0  0  0  0  0  0
  140.6540   75.5890  221.4750 C   0  0  0  0  0  0  0  0  0  0  0  0
  140.2960   76.0250  222.6230 O   0  0  0  0  0  0  0  0  0  0  0  0
  141.3610   76.3540  220.5400 N   0  0  0  0  0  0  0  0  0  0  0  0
  142.5920   75.8230  219.9340 C   0  0  0  0  0  0  0  0  0  0  0  0
  142.6270   76.2840  218.4920 C   0  0  0  0  0  0  0  0  0  0  0  0
  142.5110   77.7640  218.3540 C   0  0  0  0  0  0  0  0  0  0  0  0
  142.0980   78.4390  219.6500 C   0  0  0  0  0  0  0  0  0  0  0  0
  140.8880   77.6520  220.1740 C   0  0  2  0  0  0  0  0  0  0  0  0
  140.2190   78.3960  221.2710 C   0  0  0  0  0  0  0  0  0  0  0  0
  138.8400   78.4840  221.2660 C   0  0  0  0  0  0  0  0  0  0  0  0
  138.1890   79.1660  222.2690 C   0  0  0  0  0  0  0  0  0  0  0  0
  138.9560   79.7530  223.2690 C   0  0  0  0  0  0  0  0  0  0  0  0
  138.0930   80.6210  224.5410 Cl  0  0  0  0  0  0  0  0  0  0  0  0
  140.3310   79.6590  223.2640 C   0  0  0  0  0  0  0  0  0  0  0  0
  141.0010   78.9690  222.2530 C   0  0  0  0  0  0  0  0  0  0  0  0
  140.2350   71.2750  223.6370 C   0  0  0  0  0  0  0  0  0  0  0  0
  139.5630   70.0760  223.5810 C   0  0  0  0  0  0  0  0  0  0  0  0
  139.3740   69.4070  224.7750 C   0  0  0  0  0  0  0  0  0  0  0  0
  139.8230   69.8870  225.9850 C   0  0  0  0  0  0  0  0  0  0  0  0
  139.6340   69.2160  227.1810 C   0  0  0  0  0  0  0  0  0  0  0  0
  140.1300   69.7970  228.3300 C   0  0  0  0  0  0  0  0  0  0  0  0
  140.7990   71.0080  228.3230 C   0  0  0  0  0  0  0  0  0  0  0  0
  140.9920   71.6840  227.1270 C   0  0  0  0  0  0  0  0  0  0  0  0
  140.4920   71.0930  225.9850 C   0  0  0  0  0  0  0  0  0  0  0  0
  140.6700   71.7370  224.8190 N   0  0  0  0  0  0  0  0  0  0  0  0
  139.5730   73.7870  223.1830 H   0  0  0  0  0  0  0  0  0  0  0  0
  141.0747   73.7316  220.5767 H   0  0  0  0  0  0  0  0  0  0  0  0
  139.3183   74.2286  220.6213 H   0  0  0  0  0  0  0  0  0  0  0  0
  143.4711   76.2071  220.4722 H   0  0  0  0  0  0  0  0  0  0  0  0
  142.6076   74.7245  219.9893 H   0  0  0  0  0  0  0  0  0  0  0  0
  143.5789   75.9630  218.0437 H   0  0  0  0  0  0  0  0  0  0  0  0
  141.7625   75.8356  217.9806 H   0  0  0  0  0  0  0  0  0  0  0  0
  143.4860   78.1665  218.0419 H   0  0  0  0  0  0  0  0  0  0  0  0
  141.7302   77.9695  217.6069 H   0  0  0  0  0  0  0  0  0  0  0  0
  142.9214   78.4027  220.3785 H   0  0  0  0  0  0  0  0  0  0  0  0
  141.8491   79.4984  219.4895 H   0  0  0  0  0  0  0  0  0  0  0  0
  140.1066   77.5288  219.4097 H   0  0  0  0  0  0  0  0  0  0  0  0
  138.2619   78.0087  220.4598 H   0  0  0  0  0  0  0  0  0  0  0  0
  137.0918   79.2444  222.2790 H   0  0  0  0  0  0  0  0  0  0  0  0
  140.9092   80.1353  224.0695 H   0  0  0  0  0  0  0  0  0  0  0  0
  142.0978   78.8860  222.2395 H   0  0  0  0  0  0  0  0  0  0  0  0
  139.1929   69.6683  222.6287 H   0  0  0  0  0  0  0  0  0  0  0  0
  138.8397   68.4456  224.7582 H   0  0  0  0  0  0  0  0  0  0  0  0
  139.1059   68.2516  227.2142 H   0  0  0  0  0  0  0  0  0  0  0  0
  139.9880   69.2771  229.2889 H   0  0  0  0  0  0  0  0  0  0  0  0
  141.1772   71.4341  229.2640 H   0  0  0  0  0  0  0  0  0  0  0  0
  141.5202   72.6482  227.0908 H   0  0  0  0  0  0  0  0  0  0  0  0
  1  2  2  0
  2  3  1  0
  3  4  1  0
  4  5  1  0
  5  6  2  0
  5  7  1  0
  7  8  1  0
  8  9  1  0
  9 10  1  0
 10 11  1  0
 11 12  1  0
 12 13  1  0
 13 14  2  0
 14 15  1  0
 15 16  2  0
 16 17  1  0
 16 18  1  0
 18 19  2  0
  2 20  1  0
 20 21  2  0
 21 22  1  0
 22 23  2  0
 23 24  1  0
 24 25  2  0
 25 26  1  0
 26 27  2  0
 27 28  1  0
 28 29  2  0
 12  7  1  0
 19 13  1  0
 29 20  1  0
 28 23  1  0
  3 30  1  0
  4 31  1  0
  4 32  1  0
  8 33  1  0
  8 34  1  0
  9 35  1  0
  9 36  1  0
 10 37  1  0
 10 38  1  0
 11 39  1  0
 11 40  1  0
 12 41  1  6
 14 42  1  0
 15 43  1  0
 18 44  1  0
 19 45  1  0
 21 46  1  0
 22 47  1  0
 24 48  1  0
 25 49  1  0
 26 50  1  0
 27 51  1  0
M  END
>  <smiles>  (32) 
O=C(NCC(=O)N1CCCCC1c1ccc(Cl)cc1)c1ccc2ccccc2n1

>  <score_type>  (32) 
oracle

>  <origin>  (32) 
autodockgpu

>  <m_score__min__energy>  (32) 
-8.7799999999999994

>  <m_primary>  (32) 
energy

>  <rmsd>  (32) 
2.16130547422322

>  <m_score__min__rmsd>  (32) 
2.16130547422322

>  <meeko>  (32) 
{"free_energy": -8.76, "intermolecular_energy": -10.25, "internal_energy": -1.66, "cluster_size": 11, "cluster_id": 1, "rank_in_cluster": 3}

>  <energy>  (32) 
-8.17

>  <cluster_rmsd>  (32) 
0.42

>  <cluster>  (32) 
3

$$$$

     RDKit          3D

 51 54  0  0  0  0  0  0  0  0999 V2000
  140.8470   71.8300  221.1230 O   0  0  0  0  0  0  0  0  0  0  0  0
  140.3650   72.2880  222.1990 C   0  0  0  0  0  0  0  0  0  0  0  0
  139.9940   73.6560  222.1970 N   0  0  0  0  0  0  0  0  0  0  0  0
  140.1500   74.4900  221.0500 C   0  0  0  0  0  0  0  0  0  0  0  0
  140.8890   75.7430  221.3310 C   0  0  0  0  0  0  0  0  0  0  0  0
  141.0610   76.0200  222.5670 O   0  0  0  0  0  0  0  0  0  0  0  0
  141.3520   76.5470  220.2820 N   0  0  0  0  0  0  0  0  0  0  0  0
  140.5070   77.6300  219.7560 C   0  0  0  0  0  0  0  0  0  0  0  0
  141.4170   78.7870  219.4000 C   0  0  0  0  0  0  0  0  0  0  0  0
  142.5060   78.3980  218.4580 C   0  0  0  0  0  0  0  0  0  0  0  0
  142.6290   76.8930  218.3000 C   0  0  0  0  0  0  0  0  0  0  0  0
  142.6470   76.3150  219.7220 C   0  0  2  0  0  0  0  0  0  0  0  0
  143.0620   74.8900  219.7000 C   0  0  0  0  0  0  0  0  0  0  0  0
  144.0840   74.4850  220.5370 C   0  0  0  0  0  0  0  0  0  0  0  0
  144.4920   73.1710  220.5410 C   0  0  0  0  0  0  0  0  0  0  0  0
  143.8500   72.2810  219.6870 C   0  0  0  0  0  0  0  0  0  0  0  0
  144.3970   70.6020  219.7140 Cl  0  0  0  0  0  0  0  0  0  0  0  0
  142.8320   72.6950  218.8550 C   0  0  0  0  0  0  0  0  0  0  0  0
  142.4100   74.0260  218.8450 C   0  0  0  0  0  0  0  0  0  0  0  0
  140.1870   71.4760  223.3970 C   0  0  0  0  0  0  0  0  0  0  0  0
  139.5330   70.2680  223.3320 C   0  0  0  0  0  0  0  0  0  0  0  0
  139.4040   69.5600  224.5110 C   0  0  0  0  0  0  0  0  0  0  0  0
  139.8950   70.0120  225.7170 C   0  0  0  0  0  0  0  0  0  0  0  0
  139.7670   69.3020  226.8980 C   0  0  0  0  0  0  0  0  0  0  0  0
  140.3000   69.8570  228.0430 C   0  0  0  0  0  0  0  0  0  0  0  0
  140.9480   71.0790  228.0460 C   0  0  0  0  0  0  0  0  0  0  0  0
  141.0800   71.7950  226.8640 C   0  0  0  0  0  0  0  0  0  0  0  0
  140.5430   71.2290  225.7260 C   0  0  0  0  0  0  0  0  0  0  0  0
  140.6620   71.9100  224.5740 N   0  0  0  0  0  0  0  0  0  0  0  0
  139.5950   74.0290  223.0940 H   0  0  0  0  0  0  0  0  0  0  0  0
  140.6985   73.9264  220.2809 H   0  0  0  0  0  0  0  0  0  0  0  0
  139.1416   74.7752  220.7157 H   0  0  0  0  0  0  0  0  0  0  0  0
  139.9698   77.2855  218.8600 H   0  0  0  0  0  0  0  0  0  0  0  0
  139.7632   77.9391  220.5052 H   0  0  0  0  0  0  0  0  0  0  0  0
  140.8129   79.5778  218.9313 H   0  0  0  0  0  0  0  0  0  0  0  0
  141.8918   79.1328  220.3300 H   0  0  0  0  0  0  0  0  0  0  0  0
  142.2948   78.8399  217.4730 H   0  0  0  0  0  0  0  0  0  0  0  0
  143.4548   78.7689  218.8730 H   0  0  0  0  0  0  0  0  0  0  0  0
  141.7705   76.4968  217.7379 H   0  0  0  0  0  0  0  0  0  0  0  0
  143.5383   76.6205  217.7442 H   0  0  0  0  0  0  0  0  0  0  0  0
  143.3923   76.8072  220.3641 H   0  0  0  0  0  0  0  0  0  0  0  0
  144.5720   75.2138  221.2008 H   0  0  0  0  0  0  0  0  0  0  0  0
  145.3041   72.8337  221.2019 H   0  0  0  0  0  0  0  0  0  0  0  0
  142.3453   71.9667  218.1896 H   0  0  0  0  0  0  0  0  0  0  0  0
  141.5974   74.3687  218.1875 H   0  0  0  0  0  0  0  0  0  0  0  0
  139.1306   69.8828  222.3835 H   0  0  0  0  0  0  0  0  0  0  0  0
  138.8853   68.5903  224.4863 H   0  0  0  0  0  0  0  0  0  0  0  0
  139.2572   68.3276  226.9229 H   0  0  0  0  0  0  0  0  0  0  0  0
  140.2060   69.3062  228.9905 H   0  0  0  0  0  0  0  0  0  0  0  0
  141.3581   71.4828  228.9834 H   0  0  0  0  0  0  0  0  0  0  0  0
  141.5896   72.7694  226.8359 H   0  0  0  0  0  0  0  0  0  0  0  0
  1  2  2  0
  2  3  1  0
  3  4  1  0
  4  5  1  0
  5  6  2  0
  5  7  1  0
  7  8  1  0
  8  9  1  0
  9 10  1  0
 10 11  1  0
 11 12  1  0
 12 13  1  0
 13 14  2  0
 14 15  1  0
 15 16  2  0
 16 17  1  0
 16 18  1  0
 18 19  2  0
  2 20  1  0
 20 21  2  0
 21 22  1  0
 22 23  2  0
 23 24  1  0
 24 25  2  0
 25 26  1  0
 26 27  2  0
 27 28  1  0
 28 29  2  0
 12  7  1  0
 19 13  1  0
 29 20  1  0
 28 23  1  0
  3 30  1  0
  4 31  1  0
  4 32  1  0
  8 33  1  0
  8 34  1  0
  9 35  1  0
  9 36  1  0
 10 37  1  0
 10 38  1  0
 11 39  1  0
 11 40  1  0
 12 41  1  1
 14 42  1  0
 15 43  1  0
 18 44  1  0
 19 45  1  0
 21 46  1  0
 22 47  1  0
 24 48  1  0
 25 49  1  0
 26 50  1  0
 27 51  1  0
M  END
>  <smiles>  (33) 
O=C(NCC(=O)N1CCCCC1c1ccc(Cl)cc1)c1ccc2ccccc2n1

>  <score_type>  (33) 
oracle

>  <origin>  (33) 
autodockgpu

>  <m_score__min__energy>  (33) 
-8.7799999999999994

>  <m_primary>  (33) 
energy

>  <rmsd>  (33) 
2.1014575490793903

>  <m_score__min__rmsd>  (33) 
2.1014575490793903

>  <meeko>  (33) 
{"free_energy": -8.28, "intermolecular_energy": -9.78, "internal_energy": -2.15, "cluster_size": 23, "cluster_id": 3, "rank_in_cluster": 5}

>  <energy>  (33) 
-8.16

>  <cluster_rmsd>  (33) 
0.55

>  <cluster>  (33) 
3

$$$$

     RDKit          3D

 51 54  0  0  0  0  0  0  0  0999 V2000
  133.3640   70.1440  226.8230 O   0  0  0  0  0  0  0  0  0  0  0  0
  133.6960   71.2700  226.3490 C   0  0  0  0  0  0  0  0  0  0  0  0
  134.7050   71.2660  225.3540 N   0  0  0  0  0  0  0  0  0  0  0  0
  135.3280   70.0660  224.8980 C   0  0  0  0  0  0  0  0  0  0  0  0
  136.3850   70.3000  223.8880 C   0  0  0  0  0  0  0  0  0  0  0  0
  136.6370   71.5240  223.6210 O   0  0  0  0  0  0  0  0  0  0  0  0
  137.0450   69.2220  223.2840 N   0  0  0  0  0  0  0  0  0  0  0  0
  136.2680   68.1260  222.6830 C   0  0  0  0  0  0  0  0  0  0  0  0
  137.0050   67.6720  221.4410 C   0  0  0  0  0  0  0  0  0  0  0  0
  138.4210   67.2910  221.7150 C   0  0  0  0  0  0  0  0  0  0  0  0
  138.8800   67.7130  223.0980 C   0  0  0  0  0  0  0  0  0  0  0  0
  138.4730   69.1860  223.2510 C   0  0  2  0  0  0  0  0  0  0  0  0
  139.1320   69.7870  224.4390 C   0  0  0  0  0  0  0  0  0  0  0  0
  139.0380   69.1300  225.6510 C   0  0  0  0  0  0  0  0  0  0  0  0
  139.6380   69.6600  226.7700 C   0  0  0  0  0  0  0  0  0  0  0  0
  140.3290   70.8590  226.6390 C   0  0  0  0  0  0  0  0  0  0  0  0
  141.0870   71.5150  228.0930 Cl  0  0  0  0  0  0  0  0  0  0  0  0
  140.4160   71.5070  225.4250 C   0  0  0  0  0  0  0  0  0  0  0  0
  139.8120   70.9770  224.2840 C   0  0  0  0  0  0  0  0  0  0  0  0
  133.0910   72.5230  226.7820 C   0  0  0  0  0  0  0  0  0  0  0  0
  131.9120   72.5220  227.4910 C   0  0  0  0  0  0  0  0  0  0  0  0
  131.4030   73.7510  227.8640 C   0  0  0  0  0  0  0  0  0  0  0  0
  132.0200   74.9440  227.5580 C   0  0  0  0  0  0  0  0  0  0  0  0
  131.5110   76.1750  227.9320 C   0  0  0  0  0  0  0  0  0  0  0  0
  132.2180   77.3020  227.5680 C   0  0  0  0  0  0  0  0  0  0  0  0
  133.4010   77.2400  226.8540 C   0  0  0  0  0  0  0  0  0  0  0  0
  133.9170   76.0080  226.4760 C   0  0  0  0  0  0  0  0  0  0  0  0
  133.2000   74.8890  226.8460 C   0  0  0  0  0  0  0  0  0  0  0  0
  133.6860   73.6880  226.4880 N   0  0  0  0  0  0  0  0  0  0  0  0
  134.9760   72.2040  224.9650 H   0  0  0  0  0  0  0  0  0  0  0  0
  135.7784   69.5565  225.7626 H   0  0  0  0  0  0  0  0  0  0  0  0
  134.5480   69.4574  224.4171 H   0  0  0  0  0  0  0  0  0  0  0  0
  136.1829   67.2918  223.3950 H   0  0  0  0  0  0  0  0  0  0  0  0
  135.2531   68.4655  222.4284 H   0  0  0  0  0  0  0  0  0  0  0  0
  136.4817   66.8004  221.0208 H   0  0  0  0  0  0  0  0  0  0  0  0
  137.0201   68.5176  220.7376 H   0  0  0  0  0  0  0  0  0  0  0  0
  138.5148   66.1983  221.6306 H   0  0  0  0  0  0  0  0  0  0  0  0
  139.0544   67.8098  220.9803 H   0  0  0  0  0  0  0  0  0  0  0  0
  138.3884   67.0992  223.8672 H   0  0  0  0  0  0  0  0  0  0  0  0
  139.9654   67.5814  223.2187 H   0  0  0  0  0  0  0  0  0  0  0  0
  138.8125   69.8040  222.4067 H   0  0  0  0  0  0  0  0  0  0  0  0
  138.4832   68.1828  225.7212 H   0  0  0  0  0  0  0  0  0  0  0  0
  139.5727   69.1488  227.7418 H   0  0  0  0  0  0  0  0  0  0  0  0
  140.9693   72.4551  225.3549 H   0  0  0  0  0  0  0  0  0  0  0  0
  139.8751   71.4831  223.3094 H   0  0  0  0  0  0  0  0  0  0  0  0
  131.3976   71.5846  227.7493 H   0  0  0  0  0  0  0  0  0  0  0  0
  130.4612   73.7782  228.4317 H   0  0  0  0  0  0  0  0  0  0  0  0
  130.5729   76.2524  228.5012 H   0  0  0  0  0  0  0  0  0  0  0  0
  131.8258   78.2883  227.8567 H   0  0  0  0  0  0  0  0  0  0  0  0
  133.9320   78.1654  226.5862 H   0  0  0  0  0  0  0  0  0  0  0  0
  134.8551   75.9276  225.9072 H   0  0  0  0  0  0  0  0  0  0  0  0
  1  2  2  0
  2  3  1  0
  3  4  1  0
  4  5  1  0
  5  6  2  0
  5  7  1  0
  7  8  1  0
  8  9  1  0
  9 10  1  0
 10 11  1  0
 11 12  1  0
 12 13  1  0
 13 14  2  0
 14 15  1  0
 15 16  2  0
 16 17  1  0
 16 18  1  0
 18 19  2  0
  2 20  1  0
 20 21  2  0
 21 22  1  0
 22 23  2  0
 23 24  1  0
 24 25  2  0
 25 26  1  0
 26 27  2  0
 27 28  1  0
 28 29  2  0
 12  7  1  0
 19 13  1  0
 29 20  1  0
 28 23  1  0
  3 30  1  0
  4 31  1  0
  4 32  1  0
  8 33  1  0
  8 34  1  0
  9 35  1  0
  9 36  1  0
 10 37  1  0
 10 38  1  0
 11 39  1  0
 11 40  1  0
 12 41  1  6
 14 42  1  0
 15 43  1  0
 18 44  1  0
 19 45  1  0
 21 46  1  0
 22 47  1  0
 24 48  1  0
 25 49  1  0
 26 50  1  0
 27 51  1  0
M  END
>  <smiles>  (34) 
O=C(NCC(=O)N1CCCCC1c1ccc(Cl)cc1)c1ccc2ccccc2n1

>  <score_type>  (34) 
oracle

>  <origin>  (34) 
autodockgpu

>  <m_score__min__energy>  (34) 
-8.7799999999999994

>  <m_primary>  (34) 
energy

>  <rmsd>  (34) 
8.924310854340415

>  <m_score__min__rmsd>  (34) 
8.924310854340415

>  <meeko>  (34) 
{"free_energy": -8.24, "intermolecular_energy": -9.73, "internal_energy": -2.23, "cluster_size": 5, "cluster_id": 4, "rank_in_cluster": 4}

>  <energy>  (34) 
-8.12

>  <cluster_rmsd>  (34) 
0.7

>  <cluster>  (34) 
3

$$$$

     RDKit          3D

 51 54  0  0  0  0  0  0  0  0999 V2000
  141.3750   72.2900  221.3750 O   0  0  0  0  0  0  0  0  0  0  0  0
  140.4550   72.4860  222.2210 C   0  0  0  0  0  0  0  0  0  0  0  0
  139.6460   73.6320  222.0240 N   0  0  0  0  0  0  0  0  0  0  0  0
  139.8430   74.5320  220.9340 C   0  0  0  0  0  0  0  0  0  0  0  0
  140.9000   75.5380  221.1870 C   0  0  0  0  0  0  0  0  0  0  0  0
  141.4390   75.4980  222.3450 O   0  0  0  0  0  0  0  0  0  0  0  0
  141.2580   76.4600  220.1950 N   0  0  0  0  0  0  0  0  0  0  0  0
  140.2600   77.4100  219.6780 C   0  0  0  0  0  0  0  0  0  0  0  0
  140.9730   78.7200  219.4120 C   0  0  0  0  0  0  0  0  0  0  0  0
  142.1460   78.5660  218.5030 C   0  0  0  0  0  0  0  0  0  0  0  0
  142.5290   77.1130  218.2880 C   0  0  0  0  0  0  0  0  0  0  0  0
  142.5920   76.4770  219.6830 C   0  0  2  0  0  0  0  0  0  0  0  0
  143.2450   75.1450  219.6190 C   0  0  0  0  0  0  0  0  0  0  0  0
  142.7520   74.2090  218.7290 C   0  0  0  0  0  0  0  0  0  0  0  0
  143.3350   72.9650  218.6440 C   0  0  0  0  0  0  0  0  0  0  0  0
  144.4170   72.6890  219.4720 C   0  0  0  0  0  0  0  0  0  0  0  0
  145.1430   71.0840  219.3400 Cl  0  0  0  0  0  0  0  0  0  0  0  0
  144.9010   73.6300  220.3560 C   0  0  0  0  0  0  0  0  0  0  0  0
  144.3180   74.8940  220.4490 C   0  0  0  0  0  0  0  0  0  0  0  0
  140.2140   71.5970  223.3520 C   0  0  0  0  0  0  0  0  0  0  0  0
  139.5000   70.4340  223.1860 C   0  0  0  0  0  0  0  0  0  0  0  0
  139.3130   69.6470  224.3060 C   0  0  0  0  0  0  0  0  0  0  0  0
  139.8060   69.9800  225.5490 C   0  0  0  0  0  0  0  0  0  0  0  0
  139.6210   69.1910  226.6710 C   0  0  0  0  0  0  0  0  0  0  0  0
  140.1620   69.6290  227.8620 C   0  0  0  0  0  0  0  0  0  0  0  0
  140.8730   70.8110  227.9670 C   0  0  0  0  0  0  0  0  0  0  0  0
  141.0630   71.6050  226.8440 C   0  0  0  0  0  0  0  0  0  0  0  0
  140.5160   71.1560  225.6600 C   0  0  0  0  0  0  0  0  0  0  0  0
  140.6910   71.9150  224.5640 N   0  0  0  0  0  0  0  0  0  0  0  0
  138.8840   73.7890  222.7310 H   0  0  0  0  0  0  0  0  0  0  0  0
  140.1232   73.9475  220.0452 H   0  0  0  0  0  0  0  0  0  0  0  0
  138.9001   75.0800  220.7903 H   0  0  0  0  0  0  0  0  0  0  0  0
  139.8224   77.0245  218.7453 H   0  0  0  0  0  0  0  0  0  0  0  0
  139.4472   77.5521  220.4055 H   0  0  0  0  0  0  0  0  0  0  0  0
  140.2609   79.4204  218.9512 H   0  0  0  0  0  0  0  0  0  0  0  0
  141.3481   79.0944  220.3759 H   0  0  0  0  0  0  0  0  0  0  0  0
  141.8984   79.0132  217.5290 H   0  0  0  0  0  0  0  0  0  0  0  0
  143.0022   79.0707  218.9744 H   0  0  0  0  0  0  0  0  0  0  0  0
  141.7720   76.6062  217.6715 H   0  0  0  0  0  0  0  0  0  0  0  0
  143.4917   77.0253  217.7632 H   0  0  0  0  0  0  0  0  0  0  0  0
  143.2179   77.0558  220.3781 H   0  0  0  0  0  0  0  0  0  0  0  0
  141.8933   74.4585  218.0884 H   0  0  0  0  0  0  0  0  0  0  0  0
  142.9551   72.2099  217.9401 H   0  0  0  0  0  0  0  0  0  0  0  0
  145.7592   73.3804  220.9972 H   0  0  0  0  0  0  0  0  0  0  0  0
  144.6954   75.6533  221.1498 H   0  0  0  0  0  0  0  0  0  0  0  0
  139.0956   70.1430  222.2053 H   0  0  0  0  0  0  0  0  0  0  0  0
  138.7443   68.7113  224.2007 H   0  0  0  0  0  0  0  0  0  0  0  0
  139.0611   68.2459  226.6149 H   0  0  0  0  0  0  0  0  0  0  0  0
  140.0226   69.0143  228.7635 H   0  0  0  0  0  0  0  0  0  0  0  0
  141.2868   71.1211  228.9379 H   0  0  0  0  0  0  0  0  0  0  0  0
  141.6244   72.5495  226.8961 H   0  0  0  0  0  0  0  0  0  0  0  0
  1  2  2  0
  2  3  1  0
  3  4  1  0
  4  5  1  0
  5  6  2  0
  5  7  1  0
  7  8  1  0
  8  9  1  0
  9 10  1  0
 10 11  1  0
 11 12  1  0
 12 13  1  0
 13 14  2  0
 14 15  1  0
 15 16  2  0
 16 17  1  0
 16 18  1  0
 18 19  2  0
  2 20  1  0
 20 21  2  0
 21 22  1  0
 22 23  2  0
 23 24  1  0
 24 25  2  0
 25 26  1  0
 26 27  2  0
 27 28  1  0
 28 29  2  0
 12  7  1  0
 19 13  1  0
 29 20  1  0
 28 23  1  0
  3 30  1  0
  4 31  1  0
  4 32  1  0
  8 33  1  0
  8 34  1  0
  9 35  1  0
  9 36  1  0
 10 37  1  0
 10 38  1  0
 11 39  1  0
 11 40  1  0
 12 41  1  1
 14 42  1  0
 15 43  1  0
 18 44  1  0
 19 45  1  0
 21 46  1  0
 22 47  1  0
 24 48  1  0
 25 49  1  0
 26 50  1  0
 27 51  1  0
M  END
>  <smiles>  (35) 
O=C(NCC(=O)N1CCCCC1c1ccc(Cl)cc1)c1ccc2ccccc2n1

>  <score_type>  (35) 
oracle

>  <origin>  (35) 
autodockgpu

>  <m_score__min__energy>  (35) 
-8.7799999999999994

>  <m_primary>  (35) 
energy

>  <rmsd>  (35) 
2.012753667511281

>  <m_score__min__rmsd>  (35) 
2.012753667511281

>  <meeko>  (35) 
{"free_energy": -8.42, "intermolecular_energy": -9.91, "internal_energy": -1.86, "cluster_size": 23, "cluster_id": 3, "rank_in_cluster": 1}

>  <energy>  (35) 
-7.94

>  <cluster_rmsd>  (35) 
0.79

>  <cluster>  (35) 
3

$$$$

     RDKit          3D

 51 54  0  0  0  0  0  0  0  0999 V2000
  139.2550   70.7970  221.4390 O   0  0  0  0  0  0  0  0  0  0  0  0
  139.5260   71.3020  222.5670 C   0  0  0  0  0  0  0  0  0  0  0  0
  139.7250   72.7050  222.6030 N   0  0  0  0  0  0  0  0  0  0  0  0
  139.6280   73.5230  221.4380 C   0  0  0  0  0  0  0  0  0  0  0  0
  140.1360   74.8990  221.6420 C   0  0  0  0  0  0  0  0  0  0  0  0
  139.5720   75.5640  222.5770 O   0  0  0  0  0  0  0  0  0  0  0  0
  141.1670   75.4040  220.8410 N   0  0  0  0  0  0  0  0  0  0  0  0
  142.2950   74.5390  220.4610 C   0  0  0  0  0  0  0  0  0  0  0  0
  142.6910   74.9020  219.0450 C   0  0  0  0  0  0  0  0  0  0  0  0
  142.9990   76.3530  218.8840 C   0  0  0  0  0  0  0  0  0  0  0  0
  142.5710   77.1760  220.0860 C   0  0  0  0  0  0  0  0  0  0  0  0
  141.1250   76.7610  220.3940 C   0  0  2  0  0  0  0  0  0  0  0  0
  140.5060   77.7080  221.3550 C   0  0  0  0  0  0  0  0  0  0  0  0
  139.2050   78.1180  221.1350 C   0  0  0  0  0  0  0  0  0  0  0  0
  138.6010   78.9950  222.0070 C   0  0  0  0  0  0  0  0  0  0  0  0
  139.3350   79.4440  223.0990 C   0  0  0  0  0  0  0  0  0  0  0  0
  138.5340   80.5690  224.2000 Cl  0  0  0  0  0  0  0  0  0  0  0  0
  140.6330   79.0290  223.3090 C   0  0  0  0  0  0  0  0  0  0  0  0
  141.2530   78.1400  222.4310 C   0  0  0  0  0  0  0  0  0  0  0  0
  139.6370   70.5090  223.7860 C   0  0  0  0  0  0  0  0  0  0  0  0
  139.1890   69.2090  223.8170 C   0  0  0  0  0  0  0  0  0  0  0  0
  139.3280   68.5260  225.0100 C   0  0  0  0  0  0  0  0  0  0  0  0
  139.8860   69.0880  226.1370 C   0  0  0  0  0  0  0  0  0  0  0  0
  140.0260   68.4040  227.3320 C   0  0  0  0  0  0  0  0  0  0  0  0
  140.6000   69.0720  228.3930 C   0  0  0  0  0  0  0  0  0  0  0  0
  141.0330   70.3830  228.3010 C   0  0  0  0  0  0  0  0  0  0  0  0
  140.8950   71.0740  227.1050 C   0  0  0  0  0  0  0  0  0  0  0  0
  140.3190   70.3940  226.0520 C   0  0  0  0  0  0  0  0  0  0  0  0
  140.1790   71.0510  224.8870 N   0  0  0  0  0  0  0  0  0  0  0  0
  139.9500   73.1170  223.5430 H   0  0  0  0  0  0  0  0  0  0  0  0
  140.2100   73.0523  220.6319 H   0  0  0  0  0  0  0  0  0  0  0  0
  138.5603   73.6048  221.1865 H   0  0  0  0  0  0  0  0  0  0  0  0
  143.1423   74.7060  221.1423 H   0  0  0  0  0  0  0  0  0  0  0  0
  142.0080   73.4789  220.5231 H   0  0  0  0  0  0  0  0  0  0  0  0
  143.5834   74.3208  218.7698 H   0  0  0  0  0  0  0  0  0  0  0  0
  141.8359   74.6709  218.3927 H   0  0  0  0  0  0  0  0  0  0  0  0
  144.0839   76.4698  218.7449 H   0  0  0  0  0  0  0  0  0  0  0  0
  142.4372   76.7188  218.0118 H   0  0  0  0  0  0  0  0  0  0  0  0
  143.2213   76.9611  220.9468 H   0  0  0  0  0  0  0  0  0  0  0  0
  142.6444   78.2543  219.8811 H   0  0  0  0  0  0  0  0  0  0  0  0
  140.4774   76.8091  219.5062 H   0  0  0  0  0  0  0  0  0  0  0  0
  138.6512   77.7430  220.2617 H   0  0  0  0  0  0  0  0  0  0  0  0
  137.5664   79.3313  221.8444 H   0  0  0  0  0  0  0  0  0  0  0  0
  141.1876   79.4044  224.1816 H   0  0  0  0  0  0  0  0  0  0  0  0
  142.2872   77.8001  222.5890 H   0  0  0  0  0  0  0  0  0  0  0  0
  138.7402   68.7344  222.9319 H   0  0  0  0  0  0  0  0  0  0  0  0
  138.9767   67.4849  225.0622 H   0  0  0  0  0  0  0  0  0  0  0  0
  139.6903   67.3613  227.4321 H   0  0  0  0  0  0  0  0  0  0  0  0
  140.7183   68.5421  229.3497 H   0  0  0  0  0  0  0  0  0  0  0  0
  141.4856   70.8766  229.1737 H   0  0  0  0  0  0  0  0  0  0  0  0
  141.2298   72.1167  227.0016 H   0  0  0  0  0  0  0  0  0  0  0  0
  1  2  2  0
  2  3  1  0
  3  4  1  0
  4  5  1  0
  5  6  2  0
  5  7  1  0
  7  8  1  0
  8  9  1  0
  9 10  1  0
 10 11  1  0
 11 12  1  0
 12 13  1  0
 13 14  2  0
 14 15  1  0
 15 16  2  0
 16 17  1  0
 16 18  1  0
 18 19  2  0
  2 20  1  0
 20 21  2  0
 21 22  1  0
 22 23  2  0
 23 24  1  0
 24 25  2  0
 25 26  1  0
 26 27  2  0
 27 28  1  0
 28 29  2  0
 12  7  1  0
 19 13  1  0
 29 20  1  0
 28 23  1  0
  3 30  1  0
  4 31  1  0
  4 32  1  0
  8 33  1  0
  8 34  1  0
  9 35  1  0
  9 36  1  0
 10 37  1  0
 10 38  1  0
 11 39  1  0
 11 40  1  0
 12 41  1  6
 14 42  1  0
 15 43  1  0
 18 44  1  0
 19 45  1  0
 21 46  1  0
 22 47  1  0
 24 48  1  0
 25 49  1  0
 26 50  1  0
 27 51  1  0
M  END
>  <smiles>  (36) 
O=C(NCC(=O)N1CCCCC1c1ccc(Cl)cc1)c1ccc2ccccc2n1

>  <score_type>  (36) 
oracle

>  <origin>  (36) 
autodockgpu

>  <m_score__min__energy>  (36) 
-8.7799999999999994

>  <m_primary>  (36) 
energy

>  <rmsd>  (36) 
1.9888519632059796

>  <m_score__min__rmsd>  (36) 
1.9888519632059796

>  <meeko>  (36) 
{"free_energy": -8.66, "intermolecular_energy": -10.16, "internal_energy": -1.57, "cluster_size": 11, "cluster_id": 1, "rank_in_cluster": 7}

>  <energy>  (36) 
-7.91

>  <cluster_rmsd>  (36) 
0.77

>  <cluster>  (36) 
3

$$$$

     RDKit          3D

 51 54  0  0  0  0  0  0  0  0999 V2000
  140.8370   71.6730  221.1690 O   0  0  0  0  0  0  0  0  0  0  0  0
  140.3820   72.1790  222.2360 C   0  0  0  0  0  0  0  0  0  0  0  0
  140.0380   73.5530  222.1910 N   0  0  0  0  0  0  0  0  0  0  0  0
  140.1910   74.3430  221.0120 C   0  0  0  0  0  0  0  0  0  0  0  0
  140.8510   75.6450  221.2600 C   0  0  0  0  0  0  0  0  0  0  0  0
  140.9070   76.0150  222.4820 O   0  0  0  0  0  0  0  0  0  0  0  0
  141.3660   76.3960  220.1960 N   0  0  0  0  0  0  0  0  0  0  0  0
  140.5720   77.4890  219.6130 C   0  0  0  0  0  0  0  0  0  0  0  0
  141.5300   78.6000  219.2400 C   0  0  0  0  0  0  0  0  0  0  0  0
  142.6270   78.1410  218.3380 C   0  0  0  0  0  0  0  0  0  0  0  0
  142.7000   76.6280  218.2350 C   0  0  0  0  0  0  0  0  0  0  0  0
  142.6650   76.1010  219.6770 C   0  0  2  0  0  0  0  0  0  0  0  0
  143.0300   74.6620  219.7130 C   0  0  0  0  0  0  0  0  0  0  0  0
  142.4650   73.8120  218.7820 C   0  0  0  0  0  0  0  0  0  0  0  0
  142.7830   72.4730  218.7880 C   0  0  0  0  0  0  0  0  0  0  0  0
  143.6790   72.0150  219.7480 C   0  0  0  0  0  0  0  0  0  0  0  0
  144.0670   70.2930  219.7310 Cl  0  0  0  0  0  0  0  0  0  0  0  0
  144.2360   72.8720  220.6730 C   0  0  0  0  0  0  0  0  0  0  0  0
  143.9210   74.2310  220.6740 C   0  0  0  0  0  0  0  0  0  0  0  0
  140.2080   71.4140  223.4650 C   0  0  0  0  0  0  0  0  0  0  0  0
  139.5830   70.1890  223.4440 C   0  0  0  0  0  0  0  0  0  0  0  0
  139.4560   69.5280  224.6500 C   0  0  0  0  0  0  0  0  0  0  0  0
  139.9230   70.0410  225.8410 C   0  0  0  0  0  0  0  0  0  0  0  0
  139.7970   69.3780  227.0490 C   0  0  0  0  0  0  0  0  0  0  0  0
  140.3040   69.9930  228.1750 C   0  0  0  0  0  0  0  0  0  0  0  0
  140.9250   71.2280  228.1350 C   0  0  0  0  0  0  0  0  0  0  0  0
  141.0540   71.8970  226.9250 C   0  0  0  0  0  0  0  0  0  0  0  0
  140.5430   71.2720  225.8060 C   0  0  0  0  0  0  0  0  0  0  0  0
  140.6600   71.9070  224.6270 N   0  0  0  0  0  0  0  0  0  0  0  0
  139.6610   73.9650  223.0810 H   0  0  0  0  0  0  0  0  0  0  0  0
  140.7965   73.7770  220.2888 H   0  0  0  0  0  0  0  0  0  0  0  0
  139.1817   74.5572  220.6305 H   0  0  0  0  0  0  0  0  0  0  0  0
  140.0436   77.1323  218.7166 H   0  0  0  0  0  0  0  0  0  0  0  0
  139.8227   77.8497  220.3331 H   0  0  0  0  0  0  0  0  0  0  0  0
  140.9652   79.3943  218.7300 H   0  0  0  0  0  0  0  0  0  0  0  0
  141.9952   78.9612  220.1690 H   0  0  0  0  0  0  0  0  0  0  0  0
  142.4544   78.5551  217.3336 H   0  0  0  0  0  0  0  0  0  0  0  0
  143.5785   78.4935  218.7626 H   0  0  0  0  0  0  0  0  0  0  0  0
  141.8410   76.2421  217.6665 H   0  0  0  0  0  0  0  0  0  0  0  0
  143.6113   76.3043  217.7108 H   0  0  0  0  0  0  0  0  0  0  0  0
  143.4113   76.5901  220.3203 H   0  0  0  0  0  0  0  0  0  0  0  0
  141.7601   74.2059  218.0350 H   0  0  0  0  0  0  0  0  0  0  0  0
  142.3406   71.7839  218.0536 H   0  0  0  0  0  0  0  0  0  0  0  0
  144.9394   72.4784  221.4216 H   0  0  0  0  0  0  0  0  0  0  0  0
  144.3615   74.9249  221.4051 H   0  0  0  0  0  0  0  0  0  0  0  0
  139.2012   69.7550  222.5081 H   0  0  0  0  0  0  0  0  0  0  0  0
  138.9591   68.5467  224.6605 H   0  0  0  0  0  0  0  0  0  0  0  0
  139.3091   68.3940  227.1094 H   0  0  0  0  0  0  0  0  0  0  0  0
  140.2105   69.4803  229.1437 H   0  0  0  0  0  0  0  0  0  0  0  0
  141.3157   71.6791  229.0590 H   0  0  0  0  0  0  0  0  0  0  0  0
  141.5416   72.8810  226.8614 H   0  0  0  0  0  0  0  0  0  0  0  0
  1  2  2  0
  2  3  1  0
  3  4  1  0
  4  5  1  0
  5  6  2  0
  5  7  1  0
  7  8  1  0
  8  9  1  0
  9 10  1  0
 10 11  1  0
 11 12  1  0
 12 13  1  0
 13 14  2  0
 14 15  1  0
 15 16  2  0
 16 17  1  0
 16 18  1  0
 18 19  2  0
  2 20  1  0
 20 21  2  0
 21 22  1  0
 22 23  2  0
 23 24  1  0
 24 25  2  0
 25 26  1  0
 26 27  2  0
 27 28  1  0
 28 29  2  0
 12  7  1  0
 19 13  1  0
 29 20  1  0
 28 23  1  0
  3 30  1  0
  4 31  1  0
  4 32  1  0
  8 33  1  0
  8 34  1  0
  9 35  1  0
  9 36  1  0
 10 37  1  0
 10 38  1  0
 11 39  1  0
 11 40  1  0
 12 41  1  1
 14 42  1  0
 15 43  1  0
 18 44  1  0
 19 45  1  0
 21 46  1  0
 22 47  1  0
 24 48  1  0
 25 49  1  0
 26 50  1  0
 27 51  1  0
M  END
>  <smiles>  (37) 
O=C(NCC(=O)N1CCCCC1c1ccc(Cl)cc1)c1ccc2ccccc2n1

>  <score_type>  (37) 
oracle

>  <origin>  (37) 
autodockgpu

>  <m_score__min__energy>  (37) 
-8.7799999999999994

>  <m_primary>  (37) 
energy

>  <rmsd>  (37) 
2.0759482159331193

>  <m_score__min__rmsd>  (37) 
2.0759482159331193

>  <meeko>  (37) 
{"free_energy": -8.21, "intermolecular_energy": -9.7, "internal_energy": -2.26, "cluster_size": 23, "cluster_id": 3, "rank_in_cluster": 14}

>  <energy>  (37) 
-7.74

>  <cluster_rmsd>  (37) 
0.75

>  <cluster>  (37) 
3

$$$$

     RDKit          3D

 51 54  0  0  0  0  0  0  0  0999 V2000
  138.7230   70.3580  221.4670 O   0  0  0  0  0  0  0  0  0  0  0  0
  138.7580   71.0600  222.5190 C   0  0  0  0  0  0  0  0  0  0  0  0
  138.3210   72.4030  222.4000 N   0  0  0  0  0  0  0  0  0  0  0  0
  137.8610   72.9530  221.1670 C   0  0  0  0  0  0  0  0  0  0  0  0
  138.8690   73.8010  220.4890 C   0  0  0  0  0  0  0  0  0  0  0  0
  139.2930   73.3670  219.3640 O   0  0  0  0  0  0  0  0  0  0  0  0
  139.3070   74.9940  221.0770 N   0  0  0  0  0  0  0  0  0  0  0  0
  138.4910   76.2120  220.9660 C   0  0  0  0  0  0  0  0  0  0  0  0
  138.6200   76.9690  222.2720 C   0  0  0  0  0  0  0  0  0  0  0  0
  140.0370   77.2570  222.6360 C   0  0  0  0  0  0  0  0  0  0  0  0
  141.0260   76.4870  221.7800 C   0  0  0  0  0  0  0  0  0  0  0  0
  140.5490   75.0280  221.7840 C   0  0  2  0  0  0  0  0  0  0  0  0
  141.5990   74.1360  221.2300 C   0  0  0  0  0  0  0  0  0  0  0  0
  142.5850   74.6890  220.4350 C   0  0  0  0  0  0  0  0  0  0  0  0
  143.5730   73.8890  219.9070 C   0  0  0  0  0  0  0  0  0  0  0  0
  143.5420   72.5300  220.1960 C   0  0  0  0  0  0  0  0  0  0  0  0
  144.8220   71.5300  219.5030 Cl  0  0  0  0  0  0  0  0  0  0  0  0
  142.5540   71.9890  220.9890 C   0  0  0  0  0  0  0  0  0  0  0  0
  141.5480   72.7910  221.5310 C   0  0  0  0  0  0  0  0  0  0  0  0
  139.2200   70.5440  223.8020 C   0  0  0  0  0  0  0  0  0  0  0  0
  139.1310   69.2020  224.0890 C   0  0  0  0  0  0  0  0  0  0  0  0
  139.5890   68.7930  225.3260 C   0  0  0  0  0  0  0  0  0  0  0  0
  140.1180   69.6610  226.2560 C   0  0  0  0  0  0  0  0  0  0  0  0
  140.5780   69.2510  227.4950 C   0  0  0  0  0  0  0  0  0  0  0  0
  141.0860   70.2130  228.3430 C   0  0  0  0  0  0  0  0  0  0  0  0
  141.1510   71.5510  227.9980 C   0  0  0  0  0  0  0  0  0  0  0  0
  140.6910   71.9670  226.7560 C   0  0  0  0  0  0  0  0  0  0  0  0
  140.1850   70.9960  225.9180 C   0  0  0  0  0  0  0  0  0  0  0  0
  139.7360   71.3840  224.7120 N   0  0  0  0  0  0  0  0  0  0  0  0
  138.3540   72.9800  223.2780 H   0  0  0  0  0  0  0  0  0  0  0  0
  137.5925   72.1250  220.4944 H   0  0  0  0  0  0  0  0  0  0  0  0
  136.9991   73.5958  221.3994 H   0  0  0  0  0  0  0  0  0  0  0  0
  138.8552   76.8333  220.1345 H   0  0  0  0  0  0  0  0  0  0  0  0
  137.4393   75.9564  220.7693 H   0  0  0  0  0  0  0  0  0  0  0  0
  138.0800   77.9229  222.1800 H   0  0  0  0  0  0  0  0  0  0  0  0
  138.1968   76.3351  223.0652 H   0  0  0  0  0  0  0  0  0  0  0  0
  140.2224   78.3336  222.5069 H   0  0  0  0  0  0  0  0  0  0  0  0
  140.1839   76.9431  223.6800 H   0  0  0  0  0  0  0  0  0  0  0  0
  141.0322   76.8835  220.7540 H   0  0  0  0  0  0  0  0  0  0  0  0
  142.0500   76.5755  222.1719 H   0  0  0  0  0  0  0  0  0  0  0  0
  140.3748   74.6470  222.8011 H   0  0  0  0  0  0  0  0  0  0  0  0
  142.5803   75.7686  220.2241 H   0  0  0  0  0  0  0  0  0  0  0  0
  144.3656   74.3139  219.2735 H   0  0  0  0  0  0  0  0  0  0  0  0
  142.5578   70.9091  221.1983 H   0  0  0  0  0  0  0  0  0  0  0  0
  140.7543   72.3712  222.1664 H   0  0  0  0  0  0  0  0  0  0  0  0
  138.7136   68.4862  223.3655 H   0  0  0  0  0  0  0  0  0  0  0  0
  139.5287   67.7246  225.5806 H   0  0  0  0  0  0  0  0  0  0  0  0
  140.5398   68.1930  227.7937 H   0  0  0  0  0  0  0  0  0  0  0  0
  141.4539   69.9040  229.3325 H   0  0  0  0  0  0  0  0  0  0  0  0
  141.5661   72.2835  228.7059 H   0  0  0  0  0  0  0  0  0  0  0  0
  140.7285   73.0240  226.4539 H   0  0  0  0  0  0  0  0  0  0  0  0
  1  2  2  0
  2  3  1  0
  3  4  1  0
  4  5  1  0
  5  6  2  0
  5  7  1  0
  7  8  1  0
  8  9  1  0
  9 10  1  0
 10 11  1  0
 11 12  1  0
 12 13  1  0
 13 14  2  0
 14 15  1  0
 15 16  2  0
 16 17  1  0
 16 18  1  0
 18 19  2  0
  2 20  1  0
 20 21  2  0
 21 22  1  0
 22 23  2  0
 23 24  1  0
 24 25  2  0
 25 26  1  0
 26 27  2  0
 27 28  1  0
 28 29  2  0
 12  7  1  0
 19 13  1  0
 29 20  1  0
 28 23  1  0
  3 30  1  0
  4 31  1  0
  4 32  1  0
  8 33  1  0
  8 34  1  0
  9 35  1  0
  9 36  1  0
 10 37  1  0
 10 38  1  0
 11 39  1  0
 11 40  1  0
 12 41  1  1
 14 42  1  0
 15 43  1  0
 18 44  1  0
 19 45  1  0
 21 46  1  0
 22 47  1  0
 24 48  1  0
 25 49  1  0
 26 50  1  0
 27 51  1  0
M  END
>  <smiles>  (38) 
O=C(NCC(=O)N1CCCCC1c1ccc(Cl)cc1)c1ccc2ccccc2n1

>  <score_type>  (38) 
oracle

>  <origin>  (38) 
autodockgpu

>  <m_score__min__energy>  (38) 
-8.7799999999999994

>  <m_primary>  (38) 
energy

>  <rmsd>  (38) 
2.4985261924309556

>  <m_score__min__rmsd>  (38) 
2.4985261924309556

>  <meeko>  (38) 
{"free_energy": -7.66, "intermolecular_energy": -9.15, "internal_energy": -2.13, "cluster_size": 23, "cluster_id": 3, "rank_in_cluster": 23}

>  <energy>  (38) 
-7.66

>  <cluster_rmsd>  (38) 
1.75

>  <cluster>  (38) 
3

$$$$

     RDKit          3D

 51 54  0  0  0  0  0  0  0  0999 V2000
  141.4180   72.3540  221.3610 O   0  0  0  0  0  0  0  0  0  0  0  0
  140.5020   72.5710  222.2050 C   0  0  0  0  0  0  0  0  0  0  0  0
  139.7070   73.7250  221.9970 N   0  0  0  0  0  0  0  0  0  0  0  0
  139.9140   74.6110  220.8970 C   0  0  0  0  0  0  0  0  0  0  0  0
  140.9850   75.6060  221.1380 C   0  0  0  0  0  0  0  0  0  0  0  0
  141.4400   75.6530  222.3310 O   0  0  0  0  0  0  0  0  0  0  0  0
  141.4420   76.4250  220.0980 N   0  0  0  0  0  0  0  0  0  0  0  0
  140.5660   77.4680  219.5430 C   0  0  0  0  0  0  0  0  0  0  0  0
  141.4350   78.6620  219.2060 C   0  0  0  0  0  0  0  0  0  0  0  0
  142.5660   78.3160  218.2970 C   0  0  0  0  0  0  0  0  0  0  0  0
  142.7590   76.8180  218.1510 C   0  0  0  0  0  0  0  0  0  0  0  0
  142.7610   76.2470  219.5760 C   0  0  2  0  0  0  0  0  0  0  0  0
  143.2380   74.8410  219.5730 C   0  0  0  0  0  0  0  0  0  0  0  0
  142.6040   73.9290  218.7510 C   0  0  0  0  0  0  0  0  0  0  0  0
  143.0220   72.6180  218.7240 C   0  0  0  0  0  0  0  0  0  0  0  0
  144.0870   72.2520  219.5390 C   0  0  0  0  0  0  0  0  0  0  0  0
  144.6000   70.5630  219.4840 Cl  0  0  0  0  0  0  0  0  0  0  0  0
  144.7120   73.1700  220.3560 C   0  0  0  0  0  0  0  0  0  0  0  0
  144.2960   74.5010  220.3900 C   0  0  0  0  0  0  0  0  0  0  0  0
  140.2500   71.6980  223.3460 C   0  0  0  0  0  0  0  0  0  0  0  0
  139.5270   70.5380  223.1920 C   0  0  0  0  0  0  0  0  0  0  0  0
  139.3320   69.7660  224.3200 C   0  0  0  0  0  0  0  0  0  0  0  0
  139.8240   70.1090  225.5610 C   0  0  0  0  0  0  0  0  0  0  0  0
  139.6290   69.3350  226.6910 C   0  0  0  0  0  0  0  0  0  0  0  0
  140.1700   69.7830  227.8780 C   0  0  0  0  0  0  0  0  0  0  0  0
  140.8900   70.9600  227.9720 C   0  0  0  0  0  0  0  0  0  0  0  0
  141.0890   71.7400  226.8400 C   0  0  0  0  0  0  0  0  0  0  0  0
  140.5430   71.2820  225.6600 C   0  0  0  0  0  0  0  0  0  0  0  0
  140.7270   72.0260  224.5560 N   0  0  0  0  0  0  0  0  0  0  0  0
  138.9480   73.8990  222.7030 H   0  0  0  0  0  0  0  0  0  0  0  0
  140.1850   74.0136  220.0140 H   0  0  0  0  0  0  0  0  0  0  0  0
  138.9782   75.1698  220.7488 H   0  0  0  0  0  0  0  0  0  0  0  0
  140.0694   77.0968  218.6344 H   0  0  0  0  0  0  0  0  0  0  0  0
  139.7889   77.7477  220.2696 H   0  0  0  0  0  0  0  0  0  0  0  0
  140.8108   79.4238  218.7160 H   0  0  0  0  0  0  0  0  0  0  0  0
  141.8679   79.0325  220.1469 H   0  0  0  0  0  0  0  0  0  0  0  0
  142.3636   78.7437  217.3040 H   0  0  0  0  0  0  0  0  0  0  0  0
  143.4857   78.7295  218.7366 H   0  0  0  0  0  0  0  0  0  0  0  0
  141.9353   76.3823  217.5665 H   0  0  0  0  0  0  0  0  0  0  0  0
  143.6952   76.5834  217.6233 H   0  0  0  0  0  0  0  0  0  0  0  0
  143.4654   76.7736  220.2366 H   0  0  0  0  0  0  0  0  0  0  0  0
  141.7644   74.2511  218.1176 H   0  0  0  0  0  0  0  0  0  0  0  0
  142.5270   71.8802  218.0754 H   0  0  0  0  0  0  0  0  0  0  0  0
  145.5510   72.8481  220.9904 H   0  0  0  0  0  0  0  0  0  0  0  0
  144.7875   75.2429  221.0365 H   0  0  0  0  0  0  0  0  0  0  0  0
  139.1222   70.2388  222.2139 H   0  0  0  0  0  0  0  0  0  0  0  0
  138.7569   68.8333  224.2237 H   0  0  0  0  0  0  0  0  0  0  0  0
  139.0615   68.3938  226.6443 H   0  0  0  0  0  0  0  0  0  0  0  0
  140.0229   69.1800  228.7862 H   0  0  0  0  0  0  0  0  0  0  0  0
  141.3039   71.2776  228.9404 H   0  0  0  0  0  0  0  0  0  0  0  0
  141.6569   72.6811  226.8832 H   0  0  0  0  0  0  0  0  0  0  0  0
  1  2  2  0
  2  3  1  0
  3  4  1  0
  4  5  1  0
  5  6  2  0
  5  7  1  0
  7  8  1  0
  8  9  1  0
  9 10  1  0
 10 11  1  0
 11 12  1  0
 12 13  1  0
 13 14  2  0
 14 15  1  0
 15 16  2  0
 16 17  1  0
 16 18  1  0
 18 19  2  0
  2 20  1  0
 20 21  2  0
 21 22  1  0
 22 23  2  0
 23 24  1  0
 24 25  2  0
 25 26  1  0
 26 27  2  0
 27 28  1  0
 28 29  2  0
 12  7  1  0
 19 13  1  0
 29 20  1  0
 28 23  1  0
  3 30  1  0
  4 31  1  0
  4 32  1  0
  8 33  1  0
  8 34  1  0
  9 35  1  0
  9 36  1  0
 10 37  1  0
 10 38  1  0
 11 39  1  0
 11 40  1  0
 12 41  1  1
 14 42  1  0
 15 43  1  0
 18 44  1  0
 19 45  1  0
 21 46  1  0
 22 47  1  0
 24 48  1  0
 25 49  1  0
 26 50  1  0
 27 51  1  0
M  END
>  <smiles>  (39) 
O=C(NCC(=O)N1CCCCC1c1ccc(Cl)cc1)c1ccc2ccccc2n1

>  <score_type>  (39) 
oracle

>  <origin>  (39) 
autodockgpu

>  <m_score__min__energy>  (39) 
-8.7799999999999994

>  <m_primary>  (39) 
energy

>  <rmsd>  (39) 
2.1025528446434008

>  <m_score__min__rmsd>  (39) 
2.1025528446434008

>  <meeko>  (39) 
{"free_energy": -8.25, "intermolecular_energy": -9.75, "internal_energy": -1.96, "cluster_size": 23, "cluster_id": 3, "rank_in_cluster": 8}

>  <energy>  (39) 
-8.26

>  <cluster_rmsd>  (39) 
0.0

>  <cluster>  (39) 
4

$$$$

     RDKit          3D

 51 54  0  0  0  0  0  0  0  0999 V2000
  140.9380   71.5730  221.2780 O   0  0  0  0  0  0  0  0  0  0  0  0
  140.4510   72.1080  222.3160 C   0  0  0  0  0  0  0  0  0  0  0  0
  140.1130   73.4810  222.2220 N   0  0  0  0  0  0  0  0  0  0  0  0
  140.3050   74.2390  221.0280 C   0  0  0  0  0  0  0  0  0  0  0  0
  140.8210   75.6050  221.2750 C   0  0  0  0  0  0  0  0  0  0  0  0
  140.7610   76.0100  222.4860 O   0  0  0  0  0  0  0  0  0  0  0  0
  141.3330   76.3740  220.2220 N   0  0  0  0  0  0  0  0  0  0  0  0
  140.5310   77.4670  219.6510 C   0  0  0  0  0  0  0  0  0  0  0  0
  141.4800   78.5920  219.2950 C   0  0  0  0  0  0  0  0  0  0  0  0
  142.5830   78.1540  218.3910 C   0  0  0  0  0  0  0  0  0  0  0  0
  142.6710   76.6440  218.2690 C   0  0  0  0  0  0  0  0  0  0  0  0
  142.6350   76.0970  219.7030 C   0  0  2  0  0  0  0  0  0  0  0  0
  143.0140   74.6610  219.7220 C   0  0  0  0  0  0  0  0  0  0  0  0
  142.4740   73.8220  218.7660 C   0  0  0  0  0  0  0  0  0  0  0  0
  142.8050   72.4860  218.7560 C   0  0  0  0  0  0  0  0  0  0  0  0
  143.6870   72.0210  219.7250 C   0  0  0  0  0  0  0  0  0  0  0  0
  144.0920   70.3020  219.6860 Cl  0  0  0  0  0  0  0  0  0  0  0  0
  144.2200   72.8660  220.6730 C   0  0  0  0  0  0  0  0  0  0  0  0
  143.8910   74.2220  220.6920 C   0  0  0  0  0  0  0  0  0  0  0  0
  140.2360   71.3790  223.5600 C   0  0  0  0  0  0  0  0  0  0  0  0
  139.5670   70.1770  223.5580 C   0  0  0  0  0  0  0  0  0  0  0  0
  139.4030   69.5480  224.7770 C   0  0  0  0  0  0  0  0  0  0  0  0
  139.8740   70.0710  225.9620 C   0  0  0  0  0  0  0  0  0  0  0  0
  139.7110   69.4410  227.1830 C   0  0  0  0  0  0  0  0  0  0  0  0
  140.2270   70.0620  228.3010 C   0  0  0  0  0  0  0  0  0  0  0  0
  140.8920   71.2740  228.2410 C   0  0  0  0  0  0  0  0  0  0  0  0
  141.0590   71.9090  227.0180 C   0  0  0  0  0  0  0  0  0  0  0  0
  140.5380   71.2780  225.9070 C   0  0  0  0  0  0  0  0  0  0  0  0
  140.6920   71.8820  224.7160 N   0  0  0  0  0  0  0  0  0  0  0  0
  139.7100   73.9200  223.0880 H   0  0  0  0  0  0  0  0  0  0  0  0
  141.0231   73.7055  220.3880 H   0  0  0  0  0  0  0  0  0  0  0  0
  139.3204   74.3455  220.5492 H   0  0  0  0  0  0  0  0  0  0  0  0
  140.0084   77.1171  218.7485 H   0  0  0  0  0  0  0  0  0  0  0  0
  139.7766   77.8115  220.3736 H   0  0  0  0  0  0  0  0  0  0  0  0
  140.9095   79.3875  218.7933 H   0  0  0  0  0  0  0  0  0  0  0  0
  141.9390   78.9462  220.2298 H   0  0  0  0  0  0  0  0  0  0  0  0
  142.4093   78.5789  217.3914 H   0  0  0  0  0  0  0  0  0  0  0  0
  143.5299   78.5096  218.8234 H   0  0  0  0  0  0  0  0  0  0  0  0
  141.8182   76.2575  217.6917 H   0  0  0  0  0  0  0  0  0  0  0  0
  143.5879   76.3364  217.7450 H   0  0  0  0  0  0  0  0  0  0  0  0
  143.3747   76.5841  220.3554 H   0  0  0  0  0  0  0  0  0  0  0  0
  141.7793   74.2220  218.0127 H   0  0  0  0  0  0  0  0  0  0  0  0
  142.3833   71.8049  218.0021 H   0  0  0  0  0  0  0  0  0  0  0  0
  144.9151   72.4662  221.4260 H   0  0  0  0  0  0  0  0  0  0  0  0
  144.3104   74.9071  221.4435 H   0  0  0  0  0  0  0  0  0  0  0  0
  139.1799   69.7364  222.6274 H   0  0  0  0  0  0  0  0  0  0  0  0
  138.8719   68.5851  224.8031 H   0  0  0  0  0  0  0  0  0  0  0  0
  139.1872   68.4768  227.2594 H   0  0  0  0  0  0  0  0  0  0  0  0
  140.1051   69.5744  229.2795 H   0  0  0  0  0  0  0  0  0  0  0  0
  141.2870   71.7328  229.1594 H   0  0  0  0  0  0  0  0  0  0  0  0
  141.5835   72.8726  226.9381 H   0  0  0  0  0  0  0  0  0  0  0  0
  1  2  2  0
  2  3  1  0
  3  4  1  0
  4  5  1  0
  5  6  2  0
  5  7  1  0
  7  8  1  0
  8  9  1  0
  9 10  1  0
 10 11  1  0
 11 12  1  0
 12 13  1  0
 13 14  2  0
 14 15  1  0
 15 16  2  0
 16 17  1  0
 16 18  1  0
 18 19  2  0
  2 20  1  0
 20 21  2  0
 21 22  1  0
 22 23  2  0
 23 24  1  0
 24 25  2  0
 25 26  1  0
 26 27  2  0
 27 28  1  0
 28 29  2  0
 12  7  1  0
 19 13  1  0
 29 20  1  0
 28 23  1  0
  3 30  1  0
  4 31  1  0
  4 32  1  0
  8 33  1  0
  8 34  1  0
  9 35  1  0
  9 36  1  0
 10 37  1  0
 10 38  1  0
 11 39  1  0
 11 40  1  0
 12 41  1  1
 14 42  1  0
 15 43  1  0
 18 44  1  0
 19 45  1  0
 21 46  1  0
 22 47  1  0
 24 48  1  0
 25 49  1  0
 26 50  1  0
 27 51  1  0
M  END
>  <smiles>  (40) 
O=C(NCC(=O)N1CCCCC1c1ccc(Cl)cc1)c1ccc2ccccc2n1

>  <score_type>  (40) 
oracle

>  <origin>  (40) 
autodockgpu

>  <m_score__min__energy>  (40) 
-8.7799999999999994

>  <m_primary>  (40) 
energy

>  <rmsd>  (40) 
2.0966116903608136

>  <m_score__min__rmsd>  (40) 
2.0966116903608136

>  <meeko>  (40) 
{"free_energy": -8.27, "intermolecular_energy": -9.76, "internal_energy": -2.2, "cluster_size": 23, "cluster_id": 3, "rank_in_cluster": 6}

>  <energy>  (40) 
-8.25

>  <cluster_rmsd>  (40) 
0.07

>  <cluster>  (40) 
4

$$$$

     RDKit          3D

 51 54  0  0  0  0  0  0  0  0999 V2000
  141.0520   71.7080  221.3950 O   0  0  0  0  0  0  0  0  0  0  0  0
  140.4810   72.1910  222.4150 C   0  0  0  0  0  0  0  0  0  0  0  0
  140.0500   73.5380  222.3230 N   0  0  0  0  0  0  0  0  0  0  0  0
  140.2410   74.3260  221.1480 C   0  0  0  0  0  0  0  0  0  0  0  0
  140.8720   75.6380  221.4170 C   0  0  0  0  0  0  0  0  0  0  0  0
  140.7720   76.0660  222.6180 O   0  0  0  0  0  0  0  0  0  0  0  0
  141.5260   76.3370  220.3950 N   0  0  0  0  0  0  0  0  0  0  0  0
  142.7290   75.7680  219.7680 C   0  0  0  0  0  0  0  0  0  0  0  0
  142.6890   76.1250  218.2960 C   0  0  0  0  0  0  0  0  0  0  0  0
  142.5540   77.5910  218.0590 C   0  0  0  0  0  0  0  0  0  0  0  0
  142.2020   78.3550  219.3230 C   0  0  0  0  0  0  0  0  0  0  0  0
  141.0250   77.6030  219.9620 C   0  0  2  0  0  0  0  0  0  0  0  0
  140.4060   78.4210  221.0350 C   0  0  0  0  0  0  0  0  0  0  0  0
  139.0280   78.4460  221.1360 C   0  0  0  0  0  0  0  0  0  0  0  0
  138.4230   79.1950  222.1210 C   0  0  0  0  0  0  0  0  0  0  0  0
  139.2350   79.9110  222.9940 C   0  0  0  0  0  0  0  0  0  0  0  0
  138.4290   80.8610  224.2450 Cl  0  0  0  0  0  0  0  0  0  0  0  0
  140.6080   79.8790  222.8830 C   0  0  0  0  0  0  0  0  0  0  0  0
  141.2310   79.1230  221.8890 C   0  0  0  0  0  0  0  0  0  0  0  0
  140.2630   71.4290  223.6390 C   0  0  0  0  0  0  0  0  0  0  0  0
  139.6070   70.2200  223.6010 C   0  0  0  0  0  0  0  0  0  0  0  0
  139.4390   69.5600  224.8030 C   0  0  0  0  0  0  0  0  0  0  0  0
  139.8940   70.0580  226.0040 C   0  0  0  0  0  0  0  0  0  0  0  0
  139.7270   69.3960  227.2080 C   0  0  0  0  0  0  0  0  0  0  0  0
  140.2260   69.9940  228.3450 C   0  0  0  0  0  0  0  0  0  0  0  0
  140.8790   71.2140  228.3210 C   0  0  0  0  0  0  0  0  0  0  0  0
  141.0500   71.8810  227.1160 C   0  0  0  0  0  0  0  0  0  0  0  0
  140.5460   71.2720  225.9860 C   0  0  0  0  0  0  0  0  0  0  0  0
  140.7030   71.9080  224.8110 N   0  0  0  0  0  0  0  0  0  0  0  0
  139.5760   73.9330  223.1740 H   0  0  0  0  0  0  0  0  0  0  0  0
  140.8837   73.7658  220.4529 H   0  0  0  0  0  0  0  0  0  0  0  0
  139.2454   74.5248  220.7245 H   0  0  0  0  0  0  0  0  0  0  0  0
  143.6311   76.1925  220.2328 H   0  0  0  0  0  0  0  0  0  0  0  0
  142.7551   74.6764  219.9009 H   0  0  0  0  0  0  0  0  0  0  0  0
  143.6202   75.7774  217.8249 H   0  0  0  0  0  0  0  0  0  0  0  0
  141.8041   75.6370  217.8614 H   0  0  0  0  0  0  0  0  0  0  0  0
  143.5085   77.9746  217.6694 H   0  0  0  0  0  0  0  0  0  0  0  0
  141.7346   77.7390  217.3402 H   0  0  0  0  0  0  0  0  0  0  0  0
  143.0612   78.3733  220.0097 H   0  0  0  0  0  0  0  0  0  0  0  0
  141.9381   79.3995  219.1007 H   0  0  0  0  0  0  0  0  0  0  0  0
  140.2069   77.4224  219.2492 H   0  0  0  0  0  0  0  0  0  0  0  0
  138.4142   77.8677  220.4297 H   0  0  0  0  0  0  0  0  0  0  0  0
  137.3274   79.2260  222.2146 H   0  0  0  0  0  0  0  0  0  0  0  0
  141.2222   80.4580  223.5883 H   0  0  0  0  0  0  0  0  0  0  0  0
  142.3261   79.0886  221.7914 H   0  0  0  0  0  0  0  0  0  0  0  0
  139.2333   69.7981  222.6563 H   0  0  0  0  0  0  0  0  0  0  0  0
  138.9175   68.5915  224.8009 H   0  0  0  0  0  0  0  0  0  0  0  0
  139.2130   68.4247  227.2558 H   0  0  0  0  0  0  0  0  0  0  0  0
  140.1002   69.4812  229.3100 H   0  0  0  0  0  0  0  0  0  0  0  0
  141.2613   71.6536  229.2541 H   0  0  0  0  0  0  0  0  0  0  0  0
  141.5645   72.8519  227.0646 H   0  0  0  0  0  0  0  0  0  0  0  0
  1  2  2  0
  2  3  1  0
  3  4  1  0
  4  5  1  0
  5  6  2  0
  5  7  1  0
  7  8  1  0
  8  9  1  0
  9 10  1  0
 10 11  1  0
 11 12  1  0
 12 13  1  0
 13 14  2  0
 14 15  1  0
 15 16  2  0
 16 17  1  0
 16 18  1  0
 18 19  2  0
  2 20  1  0
 20 21  2  0
 21 22  1  0
 22 23  2  0
 23 24  1  0
 24 25  2  0
 25 26  1  0
 26 27  2  0
 27 28  1  0
 28 29  2  0
 12  7  1  0
 19 13  1  0
 29 20  1  0
 28 23  1  0
  3 30  1  0
  4 31  1  0
  4 32  1  0
  8 33  1  0
  8 34  1  0
  9 35  1  0
  9 36  1  0
 10 37  1  0
 10 38  1  0
 11 39  1  0
 11 40  1  0
 12 41  1  6
 14 42  1  0
 15 43  1  0
 18 44  1  0
 19 45  1  0
 21 46  1  0
 22 47  1  0
 24 48  1  0
 25 49  1  0
 26 50  1  0
 27 51  1  0
M  END
>  <smiles>  (41) 
O=C(NCC(=O)N1CCCCC1c1ccc(Cl)cc1)c1ccc2ccccc2n1

>  <score_type>  (41) 
oracle

>  <origin>  (41) 
autodockgpu

>  <m_score__min__energy>  (41) 
-8.7799999999999994

>  <m_primary>  (41) 
energy

>  <rmsd>  (41) 
2.171566821382789

>  <m_score__min__rmsd>  (41) 
2.171566821382789

>  <meeko>  (41) 
{"free_energy": -8.7, "intermolecular_energy": -10.19, "internal_energy": -1.67, "cluster_size": 11, "cluster_id": 1, "rank_in_cluster": 5}

>  <energy>  (41) 
-8.25

>  <cluster_rmsd>  (41) 
0.17

>  <cluster>  (41) 
4

$$$$

     RDKit          3D

 51 54  0  0  0  0  0  0  0  0999 V2000
  140.5370   76.5940  218.1650 O   0  0  0  0  0  0  0  0  0  0  0  0
  141.6390   76.6040  218.7870 C   0  0  0  0  0  0  0  0  0  0  0  0
  142.0730   77.8560  219.2900 N   0  0  0  0  0  0  0  0  0  0  0  0
  141.3190   79.0550  219.1150 C   0  0  0  0  0  0  0  0  0  0  0  0
  140.5200   79.4260  220.3050 C   0  0  0  0  0  0  0  0  0  0  0  0
  139.2610   79.5400  220.1150 O   0  0  0  0  0  0  0  0  0  0  0  0
  141.1400   79.6310  221.5440 N   0  0  0  0  0  0  0  0  0  0  0  0
  142.2600   80.5790  221.6590 C   0  0  0  0  0  0  0  0  0  0  0  0
  142.1350   81.2720  222.9990 C   0  0  0  0  0  0  0  0  0  0  0  0
  142.0720   80.3150  224.1420 C   0  0  0  0  0  0  0  0  0  0  0  0
  141.8560   78.8820  223.6900 C   0  0  0  0  0  0  0  0  0  0  0  0
  140.6860   78.9200  222.6970 C   0  0  2  0  0  0  0  0  0  0  0  0
  140.1950   77.5460  222.4200 C   0  0  0  0  0  0  0  0  0  0  0  0
  141.1190   76.5550  222.1510 C   0  0  0  0  0  0  0  0  0  0  0  0
  140.6960   75.2710  221.8910 C   0  0  0  0  0  0  0  0  0  0  0  0
  139.3300   75.0130  221.9070 C   0  0  0  0  0  0  0  0  0  0  0  0
  138.8190   73.3570  221.5690 Cl  0  0  0  0  0  0  0  0  0  0  0  0
  138.4170   76.0100  222.1760 C   0  0  0  0  0  0  0  0  0  0  0  0
  138.8350   77.3140  222.4420 C   0  0  0  0  0  0  0  0  0  0  0  0
  142.4460   75.4070  218.9910 C   0  0  0  0  0  0  0  0  0  0  0  0
  142.0780   74.2100  218.4210 C   0  0  0  0  0  0  0  0  0  0  0  0
  142.8940   73.1220  218.6630 C   0  0  0  0  0  0  0  0  0  0  0  0
  144.0330   73.1940  219.4350 C   0  0  0  0  0  0  0  0  0  0  0  0
  144.8510   72.1050  219.6770 C   0  0  0  0  0  0  0  0  0  0  0  0
  145.9650   72.3000  220.4660 C   0  0  0  0  0  0  0  0  0  0  0  0
  146.2850   73.5300  221.0130 C   0  0  0  0  0  0  0  0  0  0  0  0
  145.4680   74.6260  220.7730 C   0  0  0  0  0  0  0  0  0  0  0  0
  144.3570   74.4180  219.9820 C   0  0  0  0  0  0  0  0  0  0  0  0
  143.5560   75.4700  219.7410 N   0  0  0  0  0  0  0  0  0  0  0  0
  142.9890   77.8560  219.8050 H   0  0  0  0  0  0  0  0  0  0  0  0
  142.0164   79.8763  218.8934 H   0  0  0  0  0  0  0  0  0  0  0  0
  140.6117   78.8766  218.2917 H   0  0  0  0  0  0  0  0  0  0  0  0
  143.2165   80.0386  221.6036 H   0  0  0  0  0  0  0  0  0  0  0  0
  142.2318   81.3125  220.8398 H   0  0  0  0  0  0  0  0  0  0  0  0
  143.0068   81.9282  223.1378 H   0  0  0  0  0  0  0  0  0  0  0  0
  141.1932   81.8403  222.9910 H   0  0  0  0  0  0  0  0  0  0  0  0
  143.0182   80.3698  224.7004 H   0  0  0  0  0  0  0  0  0  0  0  0
  141.2146   80.6001  224.7694 H   0  0  0  0  0  0  0  0  0  0  0  0
  142.7613   78.4962  223.1985 H   0  0  0  0  0  0  0  0  0  0  0  0
  141.6386   78.2207  224.5417 H   0  0  0  0  0  0  0  0  0  0  0  0
  139.8104   79.4484  223.1021 H   0  0  0  0  0  0  0  0  0  0  0  0
  142.1932   76.7919  222.1445 H   0  0  0  0  0  0  0  0  0  0  0  0
  141.4194   74.4706  221.6764 H   0  0  0  0  0  0  0  0  0  0  0  0
  137.3427   75.7738  222.1810 H   0  0  0  0  0  0  0  0  0  0  0  0
  138.1159   78.1177  222.6586 H   0  0  0  0  0  0  0  0  0  0  0  0
  141.1741   74.1233  217.8002 H   0  0  0  0  0  0  0  0  0  0  0  0
  142.6219   72.1532  218.2188 H   0  0  0  0  0  0  0  0  0  0  0  0
  144.6204   71.1161  219.2540 H   0  0  0  0  0  0  0  0  0  0  0  0
  146.6253   71.4439  220.6685 H   0  0  0  0  0  0  0  0  0  0  0  0
  147.1847   73.6389  221.6365 H   0  0  0  0  0  0  0  0  0  0  0  0
  145.6961   75.6161  221.1946 H   0  0  0  0  0  0  0  0  0  0  0  0
  1  2  2  0
  2  3  1  0
  3  4  1  0
  4  5  1  0
  5  6  2  0
  5  7  1  0
  7  8  1  0
  8  9  1  0
  9 10  1  0
 10 11  1  0
 11 12  1  0
 12 13  1  0
 13 14  2  0
 14 15  1  0
 15 16  2  0
 16 17  1  0
 16 18  1  0
 18 19  2  0
  2 20  1  0
 20 21  2  0
 21 22  1  0
 22 23  2  0
 23 24  1  0
 24 25  2  0
 25 26  1  0
 26 27  2  0
 27 28  1  0
 28 29  2  0
 12  7  1  0
 19 13  1  0
 29 20  1  0
 28 23  1  0
  3 30  1  0
  4 31  1  0
  4 32  1  0
  8 33  1  0
  8 34  1  0
  9 35  1  0
  9 36  1  0
 10 37  1  0
 10 38  1  0
 11 39  1  0
 11 40  1  0
 12 41  1  1
 14 42  1  0
 15 43  1  0
 18 44  1  0
 19 45  1  0
 21 46  1  0
 22 47  1  0
 24 48  1  0
 25 49  1  0
 26 50  1  0
 27 51  1  0
M  END
>  <smiles>  (42) 
O=C(NCC(=O)N1CCCCC1c1ccc(Cl)cc1)c1ccc2ccccc2n1

>  <score_type>  (42) 
oracle

>  <origin>  (42) 
autodockgpu

>  <m_score__min__energy>  (42) 
-8.7799999999999994

>  <m_primary>  (42) 
energy

>  <rmsd>  (42) 
7.3744840001445615

>  <m_score__min__rmsd>  (42) 
7.3744840001445615

>  <meeko>  (42) 
{"free_energy": -7.0, "intermolecular_energy": -8.49, "internal_energy": -2.85, "cluster_size": 1, "cluster_id": 7, "rank_in_cluster": 1}

>  <energy>  (42) 
-8.24

>  <cluster_rmsd>  (42) 
0.09

>  <cluster>  (42) 
4

$$$$

     RDKit          3D

 51 54  0  0  0  0  0  0  0  0999 V2000
  140.9910   71.5670  221.3720 O   0  0  0  0  0  0  0  0  0  0  0  0
  140.4370   72.0390  222.4070 C   0  0  0  0  0  0  0  0  0  0  0  0
  140.0320   73.3960  222.3460 N   0  0  0  0  0  0  0  0  0  0  0  0
  140.2310   74.2040  221.1860 C   0  0  0  0  0  0  0  0  0  0  0  0
  140.6660   75.5850  221.5000 C   0  0  0  0  0  0  0  0  0  0  0  0
  140.3460   76.0170  222.6600 O   0  0  0  0  0  0  0  0  0  0  0  0
  141.3790   76.3380  220.5600 N   0  0  0  0  0  0  0  0  0  0  0  0
  142.6040   75.7920  219.9540 C   0  0  0  0  0  0  0  0  0  0  0  0
  142.6400   76.2450  218.5100 C   0  0  0  0  0  0  0  0  0  0  0  0
  142.5370   77.7260  218.3650 C   0  0  0  0  0  0  0  0  0  0  0  0
  142.1340   78.4110  219.6580 C   0  0  0  0  0  0  0  0  0  0  0  0
  140.9170   77.6390  220.1880 C   0  0  2  0  0  0  0  0  0  0  0  0
  140.2570   78.3950  221.2820 C   0  0  0  0  0  0  0  0  0  0  0  0
  138.8780   78.4680  221.2970 C   0  0  0  0  0  0  0  0  0  0  0  0
  138.2350   79.1600  222.2980 C   0  0  0  0  0  0  0  0  0  0  0  0
  139.0110   79.7720  223.2760 C   0  0  0  0  0  0  0  0  0  0  0  0
  138.1580   80.6540  224.5470 Cl  0  0  0  0  0  0  0  0  0  0  0  0
  140.3870   79.6930  223.2510 C   0  0  0  0  0  0  0  0  0  0  0  0
  141.0480   78.9930  222.2410 C   0  0  0  0  0  0  0  0  0  0  0  0
  140.2120   71.2550  223.6150 C   0  0  0  0  0  0  0  0  0  0  0  0
  139.5720   70.0390  223.5510 C   0  0  0  0  0  0  0  0  0  0  0  0
  139.3970   69.3590  224.7400 C   0  0  0  0  0  0  0  0  0  0  0  0
  139.8290   69.8440  225.9550 C   0  0  0  0  0  0  0  0  0  0  0  0
  139.6540   69.1620  227.1460 C   0  0  0  0  0  0  0  0  0  0  0  0
  140.1300   69.7500  228.2990 C   0  0  0  0  0  0  0  0  0  0  0  0
  140.7670   70.9770  228.3020 C   0  0  0  0  0  0  0  0  0  0  0  0
  140.9460   71.6660  227.1100 C   0  0  0  0  0  0  0  0  0  0  0  0
  140.4650   71.0670  225.9630 C   0  0  0  0  0  0  0  0  0  0  0  0
  140.6300   71.7220  224.8010 N   0  0  0  0  0  0  0  0  0  0  0  0
  139.5730   73.7820  223.2090 H   0  0  0  0  0  0  0  0  0  0  0  0
  141.0001   73.7301  220.5584 H   0  0  0  0  0  0  0  0  0  0  0  0
  139.2620   74.2774  220.6706 H   0  0  0  0  0  0  0  0  0  0  0  0
  143.4879   76.1705  220.4882 H   0  0  0  0  0  0  0  0  0  0  0  0
  142.6094   74.6937  220.0151 H   0  0  0  0  0  0  0  0  0  0  0  0
  143.5879   75.9132  218.0613 H   0  0  0  0  0  0  0  0  0  0  0  0
  141.7705   75.8017  218.0025 H   0  0  0  0  0  0  0  0  0  0  0  0
  143.5147   78.1181  218.0482 H   0  0  0  0  0  0  0  0  0  0  0  0
  141.7559   77.9348  217.6192 H   0  0  0  0  0  0  0  0  0  0  0  0
  142.9585   78.3696  220.3850 H   0  0  0  0  0  0  0  0  0  0  0  0
  141.8959   79.4722  219.4931 H   0  0  0  0  0  0  0  0  0  0  0  0
  140.1327   77.5197  219.4260 H   0  0  0  0  0  0  0  0  0  0  0  0
  138.2929   77.9726  220.5082 H   0  0  0  0  0  0  0  0  0  0  0  0
  137.1373   79.2270  222.3236 H   0  0  0  0  0  0  0  0  0  0  0  0
  140.9726   80.1892  224.0390 H   0  0  0  0  0  0  0  0  0  0  0  0
  142.1453   78.9216  222.2110 H   0  0  0  0  0  0  0  0  0  0  0  0
  139.2156   69.6268  222.5954 H   0  0  0  0  0  0  0  0  0  0  0  0
  138.8886   68.3838  224.7159 H   0  0  0  0  0  0  0  0  0  0  0  0
  139.1520   68.1836  227.1723 H   0  0  0  0  0  0  0  0  0  0  0  0
  139.9975   69.2216  229.2546 H   0  0  0  0  0  0  0  0  0  0  0  0
  141.1313   71.4065  229.2469 H   0  0  0  0  0  0  0  0  0  0  0  0
  141.4481   72.6443  227.0809 H   0  0  0  0  0  0  0  0  0  0  0  0
  1  2  2  0
  2  3  1  0
  3  4  1  0
  4  5  1  0
  5  6  2  0
  5  7  1  0
  7  8  1  0
  8  9  1  0
  9 10  1  0
 10 11  1  0
 11 12  1  0
 12 13  1  0
 13 14  2  0
 14 15  1  0
 15 16  2  0
 16 17  1  0
 16 18  1  0
 18 19  2  0
  2 20  1  0
 20 21  2  0
 21 22  1  0
 22 23  2  0
 23 24  1  0
 24 25  2  0
 25 26  1  0
 26 27  2  0
 27 28  1  0
 28 29  2  0
 12  7  1  0
 19 13  1  0
 29 20  1  0
 28 23  1  0
  3 30  1  0
  4 31  1  0
  4 32  1  0
  8 33  1  0
  8 34  1  0
  9 35  1  0
  9 36  1  0
 10 37  1  0
 10 38  1  0
 11 39  1  0
 11 40  1  0
 12 41  1  6
 14 42  1  0
 15 43  1  0
 18 44  1  0
 19 45  1  0
 21 46  1  0
 22 47  1  0
 24 48  1  0
 25 49  1  0
 26 50  1  0
 27 51  1  0
M  END
>  <smiles>  (43) 
O=C(NCC(=O)N1CCCCC1c1ccc(Cl)cc1)c1ccc2ccccc2n1

>  <score_type>  (43) 
oracle

>  <origin>  (43) 
autodockgpu

>  <m_score__min__energy>  (43) 
-8.7799999999999994

>  <m_primary>  (43) 
energy

>  <rmsd>  (43) 
2.1470266595581666

>  <m_score__min__rmsd>  (43) 
2.1470266595581666

>  <meeko>  (43) 
{"free_energy": -8.73, "intermolecular_energy": -10.22, "internal_energy": -1.68, "cluster_size": 11, "cluster_id": 1, "rank_in_cluster": 4}

>  <energy>  (43) 
-7.98

>  <cluster_rmsd>  (43) 
0.61

>  <cluster>  (43) 
4

$$$$

     RDKit          3D

 51 54  0  0  0  0  0  0  0  0999 V2000
  133.8060   69.7580  226.8280 O   0  0  0  0  0  0  0  0  0  0  0  0
  134.0310   70.8970  226.3250 C   0  0  0  0  0  0  0  0  0  0  0  0
  135.0630   70.9700  225.3560 N   0  0  0  0  0  0  0  0  0  0  0  0
  135.8200   69.8290  224.9550 C   0  0  0  0  0  0  0  0  0  0  0  0
  136.5500   70.0260  223.6810 C   0  0  0  0  0  0  0  0  0  0  0  0
  136.6200   71.2320  223.2630 O   0  0  0  0  0  0  0  0  0  0  0  0
  137.1140   68.9360  223.0070 N   0  0  0  0  0  0  0  0  0  0  0  0
  136.2540   68.0190  222.2410 C   0  0  0  0  0  0  0  0  0  0  0  0
  137.0230   67.5970  221.0070 C   0  0  0  0  0  0  0  0  0  0  0  0
  138.3540   67.0050  221.3280 C   0  0  0  0  0  0  0  0  0  0  0  0
  138.7530   67.2220  222.7760 C   0  0  0  0  0  0  0  0  0  0  0  0
  138.5240   68.7120  223.0630 C   0  0  2  0  0  0  0  0  0  0  0  0
  139.1590   69.0980  224.3490 C   0  0  0  0  0  0  0  0  0  0  0  0
  139.2030   68.1680  225.3700 C   0  0  0  0  0  0  0  0  0  0  0  0
  139.7850   68.4940  226.5740 C   0  0  0  0  0  0  0  0  0  0  0  0
  140.3170   69.7700  226.7220 C   0  0  0  0  0  0  0  0  0  0  0  0
  141.0550   70.1580  228.2790 Cl  0  0  0  0  0  0  0  0  0  0  0  0
  140.2660   70.6900  225.6970 C   0  0  0  0  0  0  0  0  0  0  0  0
  139.6800   70.3690  224.4730 C   0  0  0  0  0  0  0  0  0  0  0  0
  133.2870   72.0930  226.7020 C   0  0  0  0  0  0  0  0  0  0  0  0
  132.0440   71.9880  227.2830 C   0  0  0  0  0  0  0  0  0  0  0  0
  131.4030   73.1670  227.6090 C   0  0  0  0  0  0  0  0  0  0  0  0
  131.9520   74.4100  227.3790 C   0  0  0  0  0  0  0  0  0  0  0  0
  131.3100   75.5910  227.7070 C   0  0  0  0  0  0  0  0  0  0  0  0
  131.9600   76.7750  227.4280 C   0  0  0  0  0  0  0  0  0  0  0  0
  133.2120   76.8180  226.8410 C   0  0  0  0  0  0  0  0  0  0  0  0
  133.8600   75.6350  226.5110 C   0  0  0  0  0  0  0  0  0  0  0  0
  133.2000   74.4580  226.7950 C   0  0  0  0  0  0  0  0  0  0  0  0
  133.8150   73.3050  226.4800 N   0  0  0  0  0  0  0  0  0  0  0  0
  135.2450   71.9190  224.9430 H   0  0  0  0  0  0  0  0  0  0  0  0
  136.5513   69.6007  225.7443 H   0  0  0  0  0  0  0  0  0  0  0  0
  135.1079   69.0055  224.7975 H   0  0  0  0  0  0  0  0  0  0  0  0
  136.0090   67.1368  222.8506 H   0  0  0  0  0  0  0  0  0  0  0  0
  135.3130   68.5146  221.9601 H   0  0  0  0  0  0  0  0  0  0  0  0
  136.4285   66.8494  220.4613 H   0  0  0  0  0  0  0  0  0  0  0  0
  137.1995   68.4992  220.4029 H   0  0  0  0  0  0  0  0  0  0  0  0
  138.3157   65.9235  221.1310 H   0  0  0  0  0  0  0  0  0  0  0  0
  139.1031   67.5051  220.6965 H   0  0  0  0  0  0  0  0  0  0  0  0
  138.1296   66.6053  223.4401 H   0  0  0  0  0  0  0  0  0  0  0  0
  139.8007   66.9359  222.9509 H   0  0  0  0  0  0  0  0  0  0  0  0
  139.0036   69.3603  222.3149 H   0  0  0  0  0  0  0  0  0  0  0  0
  138.7728   67.1667  225.2205 H   0  0  0  0  0  0  0  0  0  0  0  0
  139.8280   67.7650  227.3966 H   0  0  0  0  0  0  0  0  0  0  0  0
  140.6939   71.6923  225.8467 H   0  0  0  0  0  0  0  0  0  0  0  0
  139.6354   71.0940  223.6469 H   0  0  0  0  0  0  0  0  0  0  0  0
  131.5819   71.0092  227.4789 H   0  0  0  0  0  0  0  0  0  0  0  0
  130.4077   73.1114  228.0740 H   0  0  0  0  0  0  0  0  0  0  0  0
  130.3144   75.5858  228.1747 H   0  0  0  0  0  0  0  0  0  0  0  0
  131.4632   77.7229  227.6823 H   0  0  0  0  0  0  0  0  0  0  0  0
  133.6926   77.7861  226.6364 H   0  0  0  0  0  0  0  0  0  0  0  0
  134.8558   75.6367  226.0437 H   0  0  0  0  0  0  0  0  0  0  0  0
  1  2  2  0
  2  3  1  0
  3  4  1  0
  4  5  1  0
  5  6  2  0
  5  7  1  0
  7  8  1  0
  8  9  1  0
  9 10  1  0
 10 11  1  0
 11 12  1  0
 12 13  1  0
 13 14  2  0
 14 15  1  0
 15 16  2  0
 16 17  1  0
 16 18  1  0
 18 19  2  0
  2 20  1  0
 20 21  2  0
 21 22  1  0
 22 23  2  0
 23 24  1  0
 24 25  2  0
 25 26  1  0
 26 27  2  0
 27 28  1  0
 28 29  2  0
 12  7  1  0
 19 13  1  0
 29 20  1  0
 28 23  1  0
  3 30  1  0
  4 31  1  0
  4 32  1  0
  8 33  1  0
  8 34  1  0
  9 35  1  0
  9 36  1  0
 10 37  1  0
 10 38  1  0
 11 39  1  0
 11 40  1  0
 12 41  1  6
 14 42  1  0
 15 43  1  0
 18 44  1  0
 19 45  1  0
 21 46  1  0
 22 47  1  0
 24 48  1  0
 25 49  1  0
 26 50  1  0
 27 51  1  0
M  END
>  <smiles>  (44) 
O=C(NCC(=O)N1CCCCC1c1ccc(Cl)cc1)c1ccc2ccccc2n1

>  <score_type>  (44) 
oracle

>  <origin>  (44) 
autodockgpu

>  <m_score__min__energy>  (44) 
-8.7799999999999994

>  <m_primary>  (44) 
energy

>  <rmsd>  (44) 
8.845177853897871

>  <m_score__min__rmsd>  (44) 
8.845177853897871

>  <meeko>  (44) 
{"free_energy": -7.98, "intermolecular_energy": -9.47, "internal_energy": -2.15, "cluster_size": 5, "cluster_id": 4, "rank_in_cluster": 5}

>  <energy>  (44) 
-7.74

>  <cluster_rmsd>  (44) 
0.0

>  <cluster>  (44) 
5

$$$$

     RDKit          3D

 51 54  0  0  0  0  0  0  0  0999 V2000
  140.8980   71.8280  221.1570 O   0  0  0  0  0  0  0  0  0  0  0  0
  140.3890   72.2850  222.2220 C   0  0  0  0  0  0  0  0  0  0  0  0
  139.9950   73.6460  222.2040 N   0  0  0  0  0  0  0  0  0  0  0  0
  140.1550   74.4760  221.0540 C   0  0  0  0  0  0  0  0  0  0  0  0
  140.8880   75.7320  221.3340 C   0  0  0  0  0  0  0  0  0  0  0  0
  141.0580   76.0110  222.5700 O   0  0  0  0  0  0  0  0  0  0  0  0
  141.3480   76.5370  220.2850 N   0  0  0  0  0  0  0  0  0  0  0  0
  140.5020   77.6230  219.7640 C   0  0  0  0  0  0  0  0  0  0  0  0
  141.4120   78.7790  219.4050 C   0  0  0  0  0  0  0  0  0  0  0  0
  142.4960   78.3890  218.4580 C   0  0  0  0  0  0  0  0  0  0  0  0
  142.6160   76.8840  218.2970 C   0  0  0  0  0  0  0  0  0  0  0  0
  142.6390   76.3050  219.7190 C   0  0  2  0  0  0  0  0  0  0  0  0
  143.0530   74.8790  219.6920 C   0  0  0  0  0  0  0  0  0  0  0  0
  144.0710   74.4690  220.5320 C   0  0  0  0  0  0  0  0  0  0  0  0
  144.4770   73.1540  220.5320 C   0  0  0  0  0  0  0  0  0  0  0  0
  143.8370   72.2690  219.6720 C   0  0  0  0  0  0  0  0  0  0  0  0
  144.3810   70.5890  219.6950 Cl  0  0  0  0  0  0  0  0  0  0  0  0
  142.8230   72.6880  218.8390 C   0  0  0  0  0  0  0  0  0  0  0  0
  142.4030   74.0190  218.8310 C   0  0  0  0  0  0  0  0  0  0  0  0
  140.2050   71.4790  223.4230 C   0  0  0  0  0  0  0  0  0  0  0  0
  139.5540   70.2680  223.3590 C   0  0  0  0  0  0  0  0  0  0  0  0
  139.4190   69.5660  224.5410 C   0  0  0  0  0  0  0  0  0  0  0  0
  139.9010   70.0240  225.7470 C   0  0  0  0  0  0  0  0  0  0  0  0
  139.7670   69.3190  226.9310 C   0  0  0  0  0  0  0  0  0  0  0  0
  140.2920   69.8810  228.0760 C   0  0  0  0  0  0  0  0  0  0  0  0
  140.9370   71.1040  228.0790 C   0  0  0  0  0  0  0  0  0  0  0  0
  141.0750   71.8150  226.8940 C   0  0  0  0  0  0  0  0  0  0  0  0
  140.5460   71.2430  225.7560 C   0  0  0  0  0  0  0  0  0  0  0  0
  140.6720   71.9190  224.6010 N   0  0  0  0  0  0  0  0  0  0  0  0
  139.5740   74.0180  223.0920 H   0  0  0  0  0  0  0  0  0  0  0  0
  140.7098   73.9110  220.2904 H   0  0  0  0  0  0  0  0  0  0  0  0
  139.1476   74.7565  220.7126 H   0  0  0  0  0  0  0  0  0  0  0  0
  139.9599   77.2805  218.8702 H   0  0  0  0  0  0  0  0  0  0  0  0
  139.7625   77.9325  220.5173 H   0  0  0  0  0  0  0  0  0  0  0  0
  140.8070   79.5711  218.9396 H   0  0  0  0  0  0  0  0  0  0  0  0
  141.8914   79.1236  220.3332 H   0  0  0  0  0  0  0  0  0  0  0  0
  142.2814   78.8327  217.4746 H   0  0  0  0  0  0  0  0  0  0  0  0
  143.4472   78.7573  218.8699 H   0  0  0  0  0  0  0  0  0  0  0  0
  141.7545   76.4898  217.7380 H   0  0  0  0  0  0  0  0  0  0  0  0
  143.5222   76.6104  217.7366 H   0  0  0  0  0  0  0  0  0  0  0  0
  143.3865   76.7964  220.3591 H   0  0  0  0  0  0  0  0  0  0  0  0
  144.5571   75.1943  221.2011 H   0  0  0  0  0  0  0  0  0  0  0  0
  145.2860   72.8125  221.1945 H   0  0  0  0  0  0  0  0  0  0  0  0
  142.3369   71.9626  218.1700 H   0  0  0  0  0  0  0  0  0  0  0  0
  141.5939   74.3651  218.1710 H   0  0  0  0  0  0  0  0  0  0  0  0
  139.1592   69.8769  222.4097 H   0  0  0  0  0  0  0  0  0  0  0  0
  138.9021   68.5953  224.5179 H   0  0  0  0  0  0  0  0  0  0  0  0
  139.2590   68.3437  226.9577 H   0  0  0  0  0  0  0  0  0  0  0  0
  140.1936   69.3340  229.0253 H   0  0  0  0  0  0  0  0  0  0  0  0
  141.3398   71.5127  229.0175 H   0  0  0  0  0  0  0  0  0  0  0  0
  141.5832   72.7901  226.8644 H   0  0  0  0  0  0  0  0  0  0  0  0
  1  2  2  0
  2  3  1  0
  3  4  1  0
  4  5  1  0
  5  6  2  0
  5  7  1  0
  7  8  1  0
  8  9  1  0
  9 10  1  0
 10 11  1  0
 11 12  1  0
 12 13  1  0
 13 14  2  0
 14 15  1  0
 15 16  2  0
 16 17  1  0
 16 18  1  0
 18 19  2  0
  2 20  1  0
 20 21  2  0
 21 22  1  0
 22 23  2  0
 23 24  1  0
 24 25  2  0
 25 26  1  0
 26 27  2  0
 27 28  1  0
 28 29  2  0
 12  7  1  0
 19 13  1  0
 29 20  1  0
 28 23  1  0
  3 30  1  0
  4 31  1  0
  4 32  1  0
  8 33  1  0
  8 34  1  0
  9 35  1  0
  9 36  1  0
 10 37  1  0
 10 38  1  0
 11 39  1  0
 11 40  1  0
 12 41  1  1
 14 42  1  0
 15 43  1  0
 18 44  1  0
 19 45  1  0
 21 46  1  0
 22 47  1  0
 24 48  1  0
 25 49  1  0
 26 50  1  0
 27 51  1  0
M  END
>  <smiles>  (45) 
O=C(NCC(=O)N1CCCCC1c1ccc(Cl)cc1)c1ccc2ccccc2n1

>  <score_type>  (45) 
oracle

>  <origin>  (45) 
autodockgpu

>  <m_score__min__energy>  (45) 
-8.7799999999999994

>  <m_primary>  (45) 
energy

>  <rmsd>  (45) 
2.104059701547408

>  <m_score__min__rmsd>  (45) 
2.104059701547408

>  <meeko>  (45) 
{"free_energy": -8.3, "intermolecular_energy": -9.79, "internal_energy": -2.14, "cluster_size": 23, "cluster_id": 3, "rank_in_cluster": 3}

>  <energy>  (45) 
-7.72

>  <cluster_rmsd>  (45) 
0.12

>  <cluster>  (45) 
5

$$$$

     RDKit          3D

 51 54  0  0  0  0  0  0  0  0999 V2000
  140.8890   71.6700  221.1890 O   0  0  0  0  0  0  0  0  0  0  0  0
  140.4030   72.1670  222.2460 C   0  0  0  0  0  0  0  0  0  0  0  0
  140.0280   73.5320  222.1920 N   0  0  0  0  0  0  0  0  0  0  0  0
  140.1830   74.3230  221.0140 C   0  0  0  0  0  0  0  0  0  0  0  0
  140.8370   75.6280  221.2640 C   0  0  0  0  0  0  0  0  0  0  0  0
  140.8950   75.9940  222.4870 O   0  0  0  0  0  0  0  0  0  0  0  0
  141.3460   76.3840  220.2010 N   0  0  0  0  0  0  0  0  0  0  0  0
  140.5420   77.4690  219.6170 C   0  0  0  0  0  0  0  0  0  0  0  0
  141.4890   78.5910  219.2460 C   0  0  0  0  0  0  0  0  0  0  0  0
  142.5920   78.1430  218.3460 C   0  0  0  0  0  0  0  0  0  0  0  0
  142.6810   76.6320  218.2420 C   0  0  0  0  0  0  0  0  0  0  0  0
  142.6490   76.1030  219.6830 C   0  0  2  0  0  0  0  0  0  0  0  0
  143.0290   74.6680  219.7200 C   0  0  0  0  0  0  0  0  0  0  0  0
  142.4780   73.8140  218.7830 C   0  0  0  0  0  0  0  0  0  0  0  0
  142.8100   72.4780  218.7900 C   0  0  0  0  0  0  0  0  0  0  0  0
  143.7050   72.0280  219.7540 C   0  0  0  0  0  0  0  0  0  0  0  0
  144.1110   70.3090  219.7370 Cl  0  0  0  0  0  0  0  0  0  0  0  0
  144.2480   72.8890  220.6830 C   0  0  0  0  0  0  0  0  0  0  0  0
  143.9180   74.2450  220.6850 C   0  0  0  0  0  0  0  0  0  0  0  0
  140.2260   71.4010  223.4750 C   0  0  0  0  0  0  0  0  0  0  0  0
  139.5960   70.1790  223.4520 C   0  0  0  0  0  0  0  0  0  0  0  0
  139.4660   69.5170  224.6570 C   0  0  0  0  0  0  0  0  0  0  0  0
  139.9360   70.0260  225.8480 C   0  0  0  0  0  0  0  0  0  0  0  0
  139.8070   69.3630  227.0560 C   0  0  0  0  0  0  0  0  0  0  0  0
  140.3170   69.9730  228.1830 C   0  0  0  0  0  0  0  0  0  0  0  0
  140.9430   71.2060  228.1440 C   0  0  0  0  0  0  0  0  0  0  0  0
  141.0750   71.8760  226.9350 C   0  0  0  0  0  0  0  0  0  0  0  0
  140.5610   71.2550  225.8150 C   0  0  0  0  0  0  0  0  0  0  0  0
  140.6810   71.8910  224.6370 N   0  0  0  0  0  0  0  0  0  0  0  0
  139.6260   73.9380  223.0740 H   0  0  0  0  0  0  0  0  0  0  0  0
  140.7936   73.7593  220.2933 H   0  0  0  0  0  0  0  0  0  0  0  0
  139.1743   74.5336  220.6291 H   0  0  0  0  0  0  0  0  0  0  0  0
  140.0191   77.1072  218.7195 H   0  0  0  0  0  0  0  0  0  0  0  0
  139.7879   77.8215  220.3361 H   0  0  0  0  0  0  0  0  0  0  0  0
  140.9168   79.3794  218.7351 H   0  0  0  0  0  0  0  0  0  0  0  0
  141.9485   78.9577  220.1758 H   0  0  0  0  0  0  0  0  0  0  0  0
  142.4171   78.5558  217.3415 H   0  0  0  0  0  0  0  0  0  0  0  0
  143.5390   78.5045  218.7732 H   0  0  0  0  0  0  0  0  0  0  0  0
  141.8271   76.2377  217.6716 H   0  0  0  0  0  0  0  0  0  0  0  0
  143.5967   76.3186  217.7193 H   0  0  0  0  0  0  0  0  0  0  0  0
  143.3898   76.5997  220.3269 H   0  0  0  0  0  0  0  0  0  0  0  0
  141.7743   74.2019  218.0318 H   0  0  0  0  0  0  0  0  0  0  0  0
  142.3787   71.7851  218.0526 H   0  0  0  0  0  0  0  0  0  0  0  0
  144.9521   72.5016  221.4342 H   0  0  0  0  0  0  0  0  0  0  0  0
  144.3462   74.9420  221.4204 H   0  0  0  0  0  0  0  0  0  0  0  0
  139.2126   69.7479  222.5154 H   0  0  0  0  0  0  0  0  0  0  0  0
  138.9641   68.5382  224.6664 H   0  0  0  0  0  0  0  0  0  0  0  0
  139.3138   68.3815  227.1154 H   0  0  0  0  0  0  0  0  0  0  0  0
  140.2223   69.4589  229.1508 H   0  0  0  0  0  0  0  0  0  0  0  0
  141.3353   71.6546  229.0686 H   0  0  0  0  0  0  0  0  0  0  0  0
  141.5672   72.8578  226.8728 H   0  0  0  0  0  0  0  0  0  0  0  0
  1  2  2  0
  2  3  1  0
  3  4  1  0
  4  5  1  0
  5  6  2  0
  5  7  1  0
  7  8  1  0
  8  9  1  0
  9 10  1  0
 10 11  1  0
 11 12  1  0
 12 13  1  0
 13 14  2  0
 14 15  1  0
 15 16  2  0
 16 17  1  0
 16 18  1  0
 18 19  2  0
  2 20  1  0
 20 21  2  0
 21 22  1  0
 22 23  2  0
 23 24  1  0
 24 25  2  0
 25 26  1  0
 26 27  2  0
 27 28  1  0
 28 29  2  0
 12  7  1  0
 19 13  1  0
 29 20  1  0
 28 23  1  0
  3 30  1  0
  4 31  1  0
  4 32  1  0
  8 33  1  0
  8 34  1  0
  9 35  1  0
  9 36  1  0
 10 37  1  0
 10 38  1  0
 11 39  1  0
 11 40  1  0
 12 41  1  1
 14 42  1  0
 15 43  1  0
 18 44  1  0
 19 45  1  0
 21 46  1  0
 22 47  1  0
 24 48  1  0
 25 49  1  0
 26 50  1  0
 27 51  1  0
M  END
>  <smiles>  (46) 
O=C(NCC(=O)N1CCCCC1c1ccc(Cl)cc1)c1ccc2ccccc2n1

>  <score_type>  (46) 
oracle

>  <origin>  (46) 
autodockgpu

>  <m_score__min__energy>  (46) 
-8.7799999999999994

>  <m_primary>  (46) 
energy

>  <rmsd>  (46) 
2.0646670893292414

>  <m_score__min__rmsd>  (46) 
2.0646670893292414

>  <meeko>  (46) 
{"free_energy": -8.24, "intermolecular_energy": -9.73, "internal_energy": -2.23, "cluster_size": 23, "cluster_id": 3, "rank_in_cluster": 10}

>  <energy>  (46) 
-7.71

>  <cluster_rmsd>  (46) 
0.07

>  <cluster>  (46) 
5

$$$$

     RDKit          3D

 51 54  0  0  0  0  0  0  0  0999 V2000
  140.8350   71.6150  221.2230 O   0  0  0  0  0  0  0  0  0  0  0  0
  140.3840   72.1400  222.2830 C   0  0  0  0  0  0  0  0  0  0  0  0
  140.0490   73.5150  222.2170 N   0  0  0  0  0  0  0  0  0  0  0  0
  140.2030   74.2860  221.0250 C   0  0  0  0  0  0  0  0  0  0  0  0
  140.7910   75.6240  221.2640 C   0  0  0  0  0  0  0  0  0  0  0  0
  140.7920   76.0210  222.4790 O   0  0  0  0  0  0  0  0  0  0  0  0
  141.3030   76.3770  220.2000 N   0  0  0  0  0  0  0  0  0  0  0  0
  140.5040   77.4650  219.6160 C   0  0  0  0  0  0  0  0  0  0  0  0
  141.4570   78.5820  219.2430 C   0  0  0  0  0  0  0  0  0  0  0  0
  142.5550   78.1280  218.3420 C   0  0  0  0  0  0  0  0  0  0  0  0
  142.6360   76.6150  218.2390 C   0  0  0  0  0  0  0  0  0  0  0  0
  142.6030   76.0880  219.6800 C   0  0  2  0  0  0  0  0  0  0  0  0
  142.9750   74.6510  219.7170 C   0  0  0  0  0  0  0  0  0  0  0  0
  142.4240   73.8000  218.7780 C   0  0  0  0  0  0  0  0  0  0  0  0
  142.7490   72.4630  218.7850 C   0  0  0  0  0  0  0  0  0  0  0  0
  143.6370   72.0070  219.7530 C   0  0  0  0  0  0  0  0  0  0  0  0
  144.0340   70.2860  219.7360 Cl  0  0  0  0  0  0  0  0  0  0  0  0
  144.1810   72.8640  220.6850 C   0  0  0  0  0  0  0  0  0  0  0  0
  143.8590   74.2220  220.6860 C   0  0  0  0  0  0  0  0  0  0  0  0
  140.2090   71.3960  223.5240 C   0  0  0  0  0  0  0  0  0  0  0  0
  139.5720   70.1770  223.5240 C   0  0  0  0  0  0  0  0  0  0  0  0
  139.4440   69.5360  224.7410 C   0  0  0  0  0  0  0  0  0  0  0  0
  139.9210   70.0620  225.9220 C   0  0  0  0  0  0  0  0  0  0  0  0
  139.7940   69.4190  227.1410 C   0  0  0  0  0  0  0  0  0  0  0  0
  140.3110   70.0460  228.2550 C   0  0  0  0  0  0  0  0  0  0  0  0
  140.9430   71.2750  228.1930 C   0  0  0  0  0  0  0  0  0  0  0  0
  141.0740   71.9240  226.9730 C   0  0  0  0  0  0  0  0  0  0  0  0
  140.5520   71.2870  225.8660 C   0  0  0  0  0  0  0  0  0  0  0  0
  140.6700   71.9030  224.6770 N   0  0  0  0  0  0  0  0  0  0  0  0
  139.6760   73.9440  223.1010 H   0  0  0  0  0  0  0  0  0  0  0  0
  140.8588   73.7347  220.3350 H   0  0  0  0  0  0  0  0  0  0  0  0
  139.1979   74.4422  220.6062 H   0  0  0  0  0  0  0  0  0  0  0  0
  139.9783   77.1050  218.7193 H   0  0  0  0  0  0  0  0  0  0  0  0
  139.7522   77.8219  220.3353 H   0  0  0  0  0  0  0  0  0  0  0  0
  140.8884   79.3735  218.7329 H   0  0  0  0  0  0  0  0  0  0  0  0
  141.9201   78.9463  220.1719 H   0  0  0  0  0  0  0  0  0  0  0  0
  142.3803   78.5409  217.3375 H   0  0  0  0  0  0  0  0  0  0  0  0
  143.5047   78.4850  218.7670 H   0  0  0  0  0  0  0  0  0  0  0  0
  141.7793   76.2247  217.6700 H   0  0  0  0  0  0  0  0  0  0  0  0
  143.5493   76.2962  217.7153 H   0  0  0  0  0  0  0  0  0  0  0  0
  143.3472   76.5811  220.3226 H   0  0  0  0  0  0  0  0  0  0  0  0
  141.7250   74.1917  218.0244 H   0  0  0  0  0  0  0  0  0  0  0  0
  142.3178   71.7732  218.0445 H   0  0  0  0  0  0  0  0  0  0  0  0
  144.8793   72.4720  221.4392 H   0  0  0  0  0  0  0  0  0  0  0  0
  144.2887   74.9163  221.4230 H   0  0  0  0  0  0  0  0  0  0  0  0
  139.1820   69.7324  222.5965 H   0  0  0  0  0  0  0  0  0  0  0  0
  138.9375   68.5599  224.7686 H   0  0  0  0  0  0  0  0  0  0  0  0
  139.2973   68.4406  227.2186 H   0  0  0  0  0  0  0  0  0  0  0  0
  140.2172   69.5491  229.2319 H   0  0  0  0  0  0  0  0  0  0  0  0
  141.3409   71.7370  229.1086 H   0  0  0  0  0  0  0  0  0  0  0  0
  141.5714   72.9018  226.8924 H   0  0  0  0  0  0  0  0  0  0  0  0
  1  2  2  0
  2  3  1  0
  3  4  1  0
  4  5  1  0
  5  6  2  0
  5  7  1  0
  7  8  1  0
  8  9  1  0
  9 10  1  0
 10 11  1  0
 11 12  1  0
 12 13  1  0
 13 14  2  0
 14 15  1  0
 15 16  2  0
 16 17  1  0
 16 18  1  0
 18 19  2  0
  2 20  1  0
 20 21  2  0
 21 22  1  0
 22 23  2  0
 23 24  1  0
 24 25  2  0
 25 26  1  0
 26 27  2  0
 27 28  1  0
 28 29  2  0
 12  7  1  0
 19 13  1  0
 29 20  1  0
 28 23  1  0
  3 30  1  0
  4 31  1  0
  4 32  1  0
  8 33  1  0
  8 34  1  0
  9 35  1  0
  9 36  1  0
 10 37  1  0
 10 38  1  0
 11 39  1  0
 11 40  1  0
 12 41  1  1
 14 42  1  0
 15 43  1  0
 18 44  1  0
 19 45  1  0
 21 46  1  0
 22 47  1  0
 24 48  1  0
 25 49  1  0
 26 50  1  0
 27 51  1  0
M  END
>  <smiles>  (47) 
O=C(NCC(=O)N1CCCCC1c1ccc(Cl)cc1)c1ccc2ccccc2n1

>  <score_type>  (47) 
oracle

>  <origin>  (47) 
autodockgpu

>  <m_score__min__energy>  (47) 
-8.7799999999999994

>  <m_primary>  (47) 
energy

>  <rmsd>  (47) 
2.0629864161897955

>  <m_score__min__rmsd>  (47) 
2.0629864161897955

>  <meeko>  (47) 
{"free_energy": -8.22, "intermolecular_energy": -9.71, "internal_energy": -2.25, "cluster_size": 23, "cluster_id": 3, "rank_in_cluster": 13}

>  <energy>  (47) 
-7.64

>  <cluster_rmsd>  (47) 
0.18

>  <cluster>  (47) 
5

$$$$

     RDKit          3D

 51 54  0  0  0  0  0  0  0  0999 V2000
  139.2960   71.0780  221.3950 O   0  0  0  0  0  0  0  0  0  0  0  0
  139.5420   71.5720  222.5340 C   0  0  0  0  0  0  0  0  0  0  0  0
  139.6770   72.9810  222.5990 N   0  0  0  0  0  0  0  0  0  0  0  0
  139.5460   73.8170  221.4500 C   0  0  0  0  0  0  0  0  0  0  0  0
  140.3130   75.0800  221.5530 C   0  0  0  0  0  0  0  0  0  0  0  0
  139.9080   75.9040  222.4420 O   0  0  0  0  0  0  0  0  0  0  0  0
  141.4060   75.3200  220.7100 N   0  0  0  0  0  0  0  0  0  0  0  0
  142.4340   74.2850  220.5250 C   0  0  0  0  0  0  0  0  0  0  0  0
  142.8880   74.3450  219.0810 C   0  0  0  0  0  0  0  0  0  0  0  0
  143.3580   75.7020  218.6780 C   0  0  0  0  0  0  0  0  0  0  0  0
  143.0090   76.7670  219.7030 C   0  0  0  0  0  0  0  0  0  0  0  0
  141.5220   76.5720  220.0310 C   0  0  2  0  0  0  0  0  0  0  0  0
  141.0000   77.7370  220.7900 C   0  0  0  0  0  0  0  0  0  0  0  0
  139.7320   78.2020  220.4980 C   0  0  0  0  0  0  0  0  0  0  0  0
  139.2180   79.2790  221.1840 C   0  0  0  0  0  0  0  0  0  0  0  0
  140.0070   79.8700  222.1640 C   0  0  0  0  0  0  0  0  0  0  0  0
  139.3210   81.2510  223.0260 Cl  0  0  0  0  0  0  0  0  0  0  0  0
  141.2710   79.3980  222.4470 C   0  0  0  0  0  0  0  0  0  0  0  0
  141.8010   78.3070  221.7570 C   0  0  0  0  0  0  0  0  0  0  0  0
  139.6850   70.7600  223.7370 C   0  0  0  0  0  0  0  0  0  0  0  0
  139.3090   69.4370  223.7360 C   0  0  0  0  0  0  0  0  0  0  0  0
  139.4750   68.7370  224.9150 C   0  0  0  0  0  0  0  0  0  0  0  0
  139.9920   69.3040  226.0600 C   0  0  0  0  0  0  0  0  0  0  0  0
  140.1600   68.6020  227.2410 C   0  0  0  0  0  0  0  0  0  0  0  0
  140.6880   69.2780  228.3210 C   0  0  0  0  0  0  0  0  0  0  0  0
  141.0500   70.6110  228.2610 C   0  0  0  0  0  0  0  0  0  0  0  0
  140.8840   71.3200  227.0790 C   0  0  0  0  0  0  0  0  0  0  0  0
  140.3550   70.6330  226.0060 C   0  0  0  0  0  0  0  0  0  0  0  0
  140.1880   71.3060  224.8540 N   0  0  0  0  0  0  0  0  0  0  0  0
  139.8820   73.3830  223.5480 H   0  0  0  0  0  0  0  0  0  0  0  0
  139.9051   73.2613  220.5713 H   0  0  0  0  0  0  0  0  0  0  0  0
  138.4833   74.0877  221.3638 H   0  0  0  0  0  0  0  0  0  0  0  0
  143.2853   74.4777  221.1944 H   0  0  0  0  0  0  0  0  0  0  0  0
  142.0285   73.2903  220.7620 H   0  0  0  0  0  0  0  0  0  0  0  0
  143.7138   73.6317  218.9424 H   0  0  0  0  0  0  0  0  0  0  0  0
  142.0217   74.0943  218.4511 H   0  0  0  0  0  0  0  0  0  0  0  0
  144.4508   75.6748  218.5557 H   0  0  0  0  0  0  0  0  0  0  0  0
  142.8520   75.9651  217.7374 H   0  0  0  0  0  0  0  0  0  0  0  0
  143.6196   76.6394  220.6090 H   0  0  0  0  0  0  0  0  0  0  0  0
  143.2056   77.7774  219.3152 H   0  0  0  0  0  0  0  0  0  0  0  0
  140.8954   76.5307  219.1278 H   0  0  0  0  0  0  0  0  0  0  0  0
  139.1329   77.7112  219.7168 H   0  0  0  0  0  0  0  0  0  0  0  0
  138.2106   79.6614  220.9628 H   0  0  0  0  0  0  0  0  0  0  0  0
  141.8705   79.8885  223.2281 H   0  0  0  0  0  0  0  0  0  0  0  0
  142.8079   77.9208  221.9737 H   0  0  0  0  0  0  0  0  0  0  0  0
  138.8947   68.9579  222.8366 H   0  0  0  0  0  0  0  0  0  0  0  0
  139.1808   67.6774  224.9414 H   0  0  0  0  0  0  0  0  0  0  0  0
  139.8817   67.5404  227.3157 H   0  0  0  0  0  0  0  0  0  0  0  0
  140.8266   68.7351  229.2676 H   0  0  0  0  0  0  0  0  0  0  0  0
  141.4687   71.1088  229.1481 H   0  0  0  0  0  0  0  0  0  0  0  0
  141.1617   72.3815  227.0015 H   0  0  0  0  0  0  0  0  0  0  0  0
  1  2  2  0
  2  3  1  0
  3  4  1  0
  4  5  1  0
  5  6  2  0
  5  7  1  0
  7  8  1  0
  8  9  1  0
  9 10  1  0
 10 11  1  0
 11 12  1  0
 12 13  1  0
 13 14  2  0
 14 15  1  0
 15 16  2  0
 16 17  1  0
 16 18  1  0
 18 19  2  0
  2 20  1  0
 20 21  2  0
 21 22  1  0
 22 23  2  0
 23 24  1  0
 24 25  2  0
 25 26  1  0
 26 27  2  0
 27 28  1  0
 28 29  2  0
 12  7  1  0
 19 13  1  0
 29 20  1  0
 28 23  1  0
  3 30  1  0
  4 31  1  0
  4 32  1  0
  8 33  1  0
  8 34  1  0
  9 35  1  0
  9 36  1  0
 10 37  1  0
 10 38  1  0
 11 39  1  0
 11 40  1  0
 12 41  1  6
 14 42  1  0
 15 43  1  0
 18 44  1  0
 19 45  1  0
 21 46  1  0
 22 47  1  0
 24 48  1  0
 25 49  1  0
 26 50  1  0
 27 51  1  0
M  END
>  <smiles>  (48) 
O=C(NCC(=O)N1CCCCC1c1ccc(Cl)cc1)c1ccc2ccccc2n1

>  <score_type>  (48) 
oracle

>  <origin>  (48) 
autodockgpu

>  <m_score__min__energy>  (48) 
-8.7799999999999994

>  <m_primary>  (48) 
energy

>  <rmsd>  (48) 
2.0559830055338892

>  <m_score__min__rmsd>  (48) 
2.0559830055338892

>  <meeko>  (48) 
{"free_energy": -8.28, "intermolecular_energy": -9.77, "internal_energy": -1.64, "cluster_size": 11, "cluster_id": 1, "rank_in_cluster": 11}

>  <energy>  (48) 
-7.61

>  <cluster_rmsd>  (48) 
0.23

>  <cluster>  (48) 
5

$$$$

     RDKit          3D

 51 54  0  0  0  0  0  0  0  0999 V2000
  141.0000   71.6200  221.3350 O   0  0  0  0  0  0  0  0  0  0  0  0
  140.4580   72.1340  222.3570 C   0  0  0  0  0  0  0  0  0  0  0  0
  140.0590   73.4890  222.2490 N   0  0  0  0  0  0  0  0  0  0  0  0
  140.2490   74.2520  221.0580 C   0  0  0  0  0  0  0  0  0  0  0  0
  140.8610   75.5780  221.3020 C   0  0  0  0  0  0  0  0  0  0  0  0
  140.8670   75.9720  222.5180 O   0  0  0  0  0  0  0  0  0  0  0  0
  141.3890   76.3250  220.2410 N   0  0  0  0  0  0  0  0  0  0  0  0
  140.6020   77.4160  219.6450 C   0  0  0  0  0  0  0  0  0  0  0  0
  141.5640   78.5260  219.2780 C   0  0  0  0  0  0  0  0  0  0  0  0
  142.6710   78.0630  218.3910 C   0  0  0  0  0  0  0  0  0  0  0  0
  142.7450   76.5500  218.2940 C   0  0  0  0  0  0  0  0  0  0  0  0
  142.6930   76.0270  219.7370 C   0  0  2  0  0  0  0  0  0  0  0  0
  143.0570   74.5890  219.7820 C   0  0  0  0  0  0  0  0  0  0  0  0
  142.5180   73.7390  218.8350 C   0  0  0  0  0  0  0  0  0  0  0  0
  142.8360   72.4000  218.8500 C   0  0  0  0  0  0  0  0  0  0  0  0
  143.7050   71.9420  219.8340 C   0  0  0  0  0  0  0  0  0  0  0  0
  144.0930   70.2190  219.8270 Cl  0  0  0  0  0  0  0  0  0  0  0  0
  144.2370   72.7980  220.7740 C   0  0  0  0  0  0  0  0  0  0  0  0
  143.9210   74.1570  220.7680 C   0  0  0  0  0  0  0  0  0  0  0  0
  140.2430   71.3970  223.5960 C   0  0  0  0  0  0  0  0  0  0  0  0
  139.5680   70.1990  223.5880 C   0  0  0  0  0  0  0  0  0  0  0  0
  139.4040   69.5630  224.8040 C   0  0  0  0  0  0  0  0  0  0  0  0
  139.8810   70.0750  225.9900 C   0  0  0  0  0  0  0  0  0  0  0  0
  139.7180   69.4370  227.2080 C   0  0  0  0  0  0  0  0  0  0  0  0
  140.2410   70.0480  228.3280 C   0  0  0  0  0  0  0  0  0  0  0  0
  140.9120   71.2560  228.2740 C   0  0  0  0  0  0  0  0  0  0  0  0
  141.0790   71.8990  227.0550 C   0  0  0  0  0  0  0  0  0  0  0  0
  140.5520   71.2780  225.9420 C   0  0  0  0  0  0  0  0  0  0  0  0
  140.7060   71.8900  224.7540 N   0  0  0  0  0  0  0  0  0  0  0  0
  139.6100   73.9090  223.1020 H   0  0  0  0  0  0  0  0  0  0  0  0
  140.9043   73.6845  220.3809 H   0  0  0  0  0  0  0  0  0  0  0  0
  139.2544   74.4280  220.6223 H   0  0  0  0  0  0  0  0  0  0  0  0
  140.0834   77.0559  218.7442 H   0  0  0  0  0  0  0  0  0  0  0  0
  139.8452   77.7796  220.3557 H   0  0  0  0  0  0  0  0  0  0  0  0
  141.0049   79.3178  218.7579 H   0  0  0  0  0  0  0  0  0  0  0  0
  142.0183   78.8919  220.2106 H   0  0  0  0  0  0  0  0  0  0  0  0
  142.5105   78.4735  217.3832 H   0  0  0  0  0  0  0  0  0  0  0  0
  143.6175   78.4164  218.8261 H   0  0  0  0  0  0  0  0  0  0  0  0
  141.8927   76.1625  217.7167 H   0  0  0  0  0  0  0  0  0  0  0  0
  143.6625   76.2248  217.7818 H   0  0  0  0  0  0  0  0  0  0  0  0
  143.4324   76.5175  220.3872 H   0  0  0  0  0  0  0  0  0  0  0  0
  141.8343   74.1329  218.0686 H   0  0  0  0  0  0  0  0  0  0  0  0
  142.4141   71.7108  218.1037 H   0  0  0  0  0  0  0  0  0  0  0  0
  144.9208   72.4040  221.5403 H   0  0  0  0  0  0  0  0  0  0  0  0
  144.3398   74.8501  221.5125 H   0  0  0  0  0  0  0  0  0  0  0  0
  139.1762   69.7663  222.6557 H   0  0  0  0  0  0  0  0  0  0  0  0
  138.8674   68.6030  224.8255 H   0  0  0  0  0  0  0  0  0  0  0  0
  139.1891   68.4752  227.2797 H   0  0  0  0  0  0  0  0  0  0  0  0
  140.1196   69.5547  229.3037 H   0  0  0  0  0  0  0  0  0  0  0  0
  141.3123   71.7061  229.1944 H   0  0  0  0  0  0  0  0  0  0  0  0
  141.6079   72.8606  226.9802 H   0  0  0  0  0  0  0  0  0  0  0  0
  1  2  2  0
  2  3  1  0
  3  4  1  0
  4  5  1  0
  5  6  2  0
  5  7  1  0
  7  8  1  0
  8  9  1  0
  9 10  1  0
 10 11  1  0
 11 12  1  0
 12 13  1  0
 13 14  2  0
 14 15  1  0
 15 16  2  0
 16 17  1  0
 16 18  1  0
 18 19  2  0
  2 20  1  0
 20 21  2  0
 21 22  1  0
 22 23  2  0
 23 24  1  0
 24 25  2  0
 25 26  1  0
 26 27  2  0
 27 28  1  0
 28 29  2  0
 12  7  1  0
 19 13  1  0
 29 20  1  0
 28 23  1  0
  3 30  1  0
  4 31  1  0
  4 32  1  0
  8 33  1  0
  8 34  1  0
  9 35  1  0
  9 36  1  0
 10 37  1  0
 10 38  1  0
 11 39  1  0
 11 40  1  0
 12 41  1  1
 14 42  1  0
 15 43  1  0
 18 44  1  0
 19 45  1  0
 21 46  1  0
 22 47  1  0
 24 48  1  0
 25 49  1  0
 26 50  1  0
 27 51  1  0
M  END
>  <smiles>  (49) 
O=C(NCC(=O)N1CCCCC1c1ccc(Cl)cc1)c1ccc2ccccc2n1

>  <score_type>  (49) 
oracle

>  <origin>  (49) 
autodockgpu

>  <m_score__min__energy>  (49) 
-8.7799999999999994

>  <m_primary>  (49) 
energy

>  <rmsd>  (49) 
2.101307144132759

>  <m_score__min__rmsd>  (49) 
2.101307144132759

>  <meeko>  (49) 
{"free_energy": -8.28, "intermolecular_energy": -9.78, "internal_energy": -2.19, "cluster_size": 23, "cluster_id": 3, "rank_in_cluster": 4}

>  <energy>  (49) 
-7.62

>  <cluster_rmsd>  (49) 
0.0

>  <cluster>  (49) 
6

$$$$

     RDKit          3D

 51 54  0  0  0  0  0  0  0  0999 V2000
  141.4000   72.3330  221.8210 O   0  0  0  0  0  0  0  0  0  0  0  0
  140.3940   72.4350  222.5810 C   0  0  0  0  0  0  0  0  0  0  0  0
  139.4720   73.4680  222.2790 N   0  0  0  0  0  0  0  0  0  0  0  0
  139.6510   74.3580  221.1780 C   0  0  0  0  0  0  0  0  0  0  0  0
  140.7670   75.3120  221.3700 C   0  0  0  0  0  0  0  0  0  0  0  0
  140.7440   75.9800  222.4600 O   0  0  0  0  0  0  0  0  0  0  0  0
  141.7640   75.4480  220.3960 N   0  0  0  0  0  0  0  0  0  0  0  0
  142.7670   74.3860  220.2160 C   0  0  0  0  0  0  0  0  0  0  0  0
  143.0640   74.2850  218.7350 C   0  0  0  0  0  0  0  0  0  0  0  0
  143.4900   75.5860  218.1410 C   0  0  0  0  0  0  0  0  0  0  0  0
  143.2530   76.7580  219.0750 C   0  0  0  0  0  0  0  0  0  0  0  0
  141.8090   76.6180  219.5770 C   0  0  2  0  0  0  0  0  0  0  0  0
  141.3710   77.8630  220.2570 C   0  0  0  0  0  0  0  0  0  0  0  0
  142.1740   78.3930  221.2490 C   0  0  0  0  0  0  0  0  0  0  0  0
  141.7970   79.5460  221.8980 C   0  0  0  0  0  0  0  0  0  0  0  0
  140.6010   80.1480  221.5260 C   0  0  0  0  0  0  0  0  0  0  0  0
  140.1440   81.6260  222.3780 Cl  0  0  0  0  0  0  0  0  0  0  0  0
  139.8070   79.6110  220.5360 C   0  0  0  0  0  0  0  0  0  0  0  0
  140.1800   78.4430  219.8710 C   0  0  0  0  0  0  0  0  0  0  0  0
  140.1660   71.5510  223.7190 C   0  0  0  0  0  0  0  0  0  0  0  0
  139.4410   70.3920  223.5690 C   0  0  0  0  0  0  0  0  0  0  0  0
  139.2690   69.6100  224.6940 C   0  0  0  0  0  0  0  0  0  0  0  0
  139.7850   69.9440  225.9270 C   0  0  0  0  0  0  0  0  0  0  0  0
  139.6130   69.1590  227.0550 C   0  0  0  0  0  0  0  0  0  0  0  0
  140.1770   69.5980  228.2350 C   0  0  0  0  0  0  0  0  0  0  0  0
  140.8970   70.7750  228.3240 C   0  0  0  0  0  0  0  0  0  0  0  0
  141.0730   71.5650  227.1960 C   0  0  0  0  0  0  0  0  0  0  0  0
  140.5040   71.1160  226.0230 C   0  0  0  0  0  0  0  0  0  0  0  0
  140.6660   71.8700  224.9220 N   0  0  0  0  0  0  0  0  0  0  0  0
  138.6390   73.5460  222.9150 H   0  0  0  0  0  0  0  0  0  0  0  0
  139.8533   73.7613  220.2763 H   0  0  0  0  0  0  0  0  0  0  0  0
  138.7289   74.9505  221.0854 H   0  0  0  0  0  0  0  0  0  0  0  0
  143.6850   74.6395  220.7665 H   0  0  0  0  0  0  0  0  0  0  0  0
  142.3889   73.4275  220.6010 H   0  0  0  0  0  0  0  0  0  0  0  0
  143.8695   73.5506  218.5873 H   0  0  0  0  0  0  0  0  0  0  0  0
  142.1354   73.9788  218.2310 H   0  0  0  0  0  0  0  0  0  0  0  0
  144.5637   75.5324  217.9081 H   0  0  0  0  0  0  0  0  0  0  0  0
  142.8870   75.7531  217.2363 H   0  0  0  0  0  0  0  0  0  0  0  0
  143.9561   76.7208  219.9201 H   0  0  0  0  0  0  0  0  0  0  0  0
  143.4084   77.7184  218.5617 H   0  0  0  0  0  0  0  0  0  0  0  0
  141.0911   76.4883  218.7537 H   0  0  0  0  0  0  0  0  0  0  0  0
  143.1154   77.8926  221.5199 H   0  0  0  0  0  0  0  0  0  0  0  0
  142.4253   79.9796  222.6900 H   0  0  0  0  0  0  0  0  0  0  0  0
  138.8650   80.1109  220.2661 H   0  0  0  0  0  0  0  0  0  0  0  0
  139.5555   78.0058  219.0780 H   0  0  0  0  0  0  0  0  0  0  0  0
  139.0172   70.1010  222.5965 H   0  0  0  0  0  0  0  0  0  0  0  0
  138.6934   68.6772  224.6015 H   0  0  0  0  0  0  0  0  0  0  0  0
  139.0459   68.2174  227.0115 H   0  0  0  0  0  0  0  0  0  0  0  0
  140.0488   68.9874  229.1410 H   0  0  0  0  0  0  0  0  0  0  0  0
  141.3296   71.0849  229.2867 H   0  0  0  0  0  0  0  0  0  0  0  0
  141.6406   72.5064  227.2362 H   0  0  0  0  0  0  0  0  0  0  0  0
  1  2  2  0
  2  3  1  0
  3  4  1  0
  4  5  1  0
  5  6  2  0
  5  7  1  0
  7  8  1  0
  8  9  1  0
  9 10  1  0
 10 11  1  0
 11 12  1  0
 12 13  1  0
 13 14  2  0
 14 15  1  0
 15 16  2  0
 16 17  1  0
 16 18  1  0
 18 19  2  0
  2 20  1  0
 20 21  2  0
 21 22  1  0
 22 23  2  0
 23 24  1  0
 24 25  2  0
 25 26  1  0
 26 27  2  0
 27 28  1  0
 28 29  2  0
 12  7  1  0
 19 13  1  0
 29 20  1  0
 28 23  1  0
  3 30  1  0
  4 31  1  0
  4 32  1  0
  8 33  1  0
  8 34  1  0
  9 35  1  0
  9 36  1  0
 10 37  1  0
 10 38  1  0
 11 39  1  0
 11 40  1  0
 12 41  1  6
 14 42  1  0
 15 43  1  0
 18 44  1  0
 19 45  1  0
 21 46  1  0
 22 47  1  0
 24 48  1  0
 25 49  1  0
 26 50  1  0
 27 51  1  0
M  END
>  <smiles>  (50) 
O=C(NCC(=O)N1CCCCC1c1ccc(Cl)cc1)c1ccc2ccccc2n1

>  <score_type>  (50) 
oracle

>  <origin>  (50) 
autodockgpu

>  <m_score__min__energy>  (50) 
-8.7799999999999994

>  <m_primary>  (50) 
energy

>  <rmsd>  (50) 
2.2298643574731245

>  <m_score__min__rmsd>  (50) 
2.2298643574731245

>  <meeko>  (50) 
{"free_energy": -8.4, "intermolecular_energy": -9.89, "internal_energy": -1.5, "cluster_size": 11, "cluster_id": 1, "rank_in_cluster": 10}

>  <energy>  (50) 
-7.0

>  <cluster_rmsd>  (50) 
0.0

>  <cluster>  (50) 
7

$$$$

     RDKit          3D

 51 54  0  0  0  0  0  0  0  0999 V2000
  138.3590   70.8220  221.8930 O   0  0  0  0  0  0  0  0  0  0  0  0
  139.0360   71.2800  222.8720 C   0  0  0  0  0  0  0  0  0  0  0  0
  139.5010   72.6170  222.8150 N   0  0  0  0  0  0  0  0  0  0  0  0
  139.2170   73.4510  221.6740 C   0  0  0  0  0  0  0  0  0  0  0  0
  139.9510   74.7310  221.7920 C   0  0  0  0  0  0  0  0  0  0  0  0
  141.2000   74.7400  221.9960 O   0  0  0  0  0  0  0  0  0  0  0  0
  139.3250   76.0040  221.6880 N   0  0  0  0  0  0  0  0  0  0  0  0
  138.0560   76.1680  222.3660 C   0  0  0  0  0  0  0  0  0  0  0  0
  137.6150   77.6000  222.2310 C   0  0  0  0  0  0  0  0  0  0  0  0
  137.6290   78.1100  220.8240 C   0  0  0  0  0  0  0  0  0  0  0  0
  138.8090   77.6300  220.0540 C   0  0  0  0  0  0  0  0  0  0  0  0
  139.8990   77.1100  220.9450 C   0  0  1  0  0  0  0  0  0  0  0  0
  140.5570   78.1190  221.7790 C   0  0  0  0  0  0  0  0  0  0  0  0
  140.7020   79.3940  221.2670 C   0  0  0  0  0  0  0  0  0  0  0  0
  141.3100   80.3910  222.0290 C   0  0  0  0  0  0  0  0  0  0  0  0
  141.7810   80.1550  223.2930 C   0  0  0  0  0  0  0  0  0  0  0  0
  142.5340   81.4300  224.2090 Cl  0  0  0  0  0  0  0  0  0  0  0  0
  141.6420   78.8930  223.8090 C   0  0  0  0  0  0  0  0  0  0  0  0
  141.0390   77.9070  223.0530 C   0  0  0  0  0  0  0  0  0  0  0  0
  139.3190   70.4250  224.0230 C   0  0  0  0  0  0  0  0  0  0  0  0
  138.9790   69.1020  224.0030 C   0  0  0  0  0  0  0  0  0  0  0  0
  139.2310   68.2710  225.0690 C   0  0  0  0  0  0  0  0  0  0  0  0
  139.8460   68.8200  226.1810 C   0  0  0  0  0  0  0  0  0  0  0  0
  140.1010   67.9940  227.2520 C   0  0  0  0  0  0  0  0  0  0  0  0
  140.7150   68.5530  228.3550 C   0  0  0  0  0  0  0  0  0  0  0  0
  141.0430   69.8890  228.3410 C   0  0  0  0  0  0  0  0  0  0  0  0
  140.7890   70.7190  227.2700 C   0  0  0  0  0  0  0  0  0  0  0  0
  140.1750   70.1640  226.1660 C   0  0  0  0  0  0  0  0  0  0  0  0
  139.9160   70.9320  225.1180 N   0  0  0  0  0  0  0  0  0  0  0  0
  140.0570   72.9470  223.6500 H   0  0  0  0  0  0  0  0  0  0  0  0
  139.5317   72.9331  220.7560 H   0  0  0  0  0  0  0  0  0  0  0  0
  138.1368   73.6547  221.6335 H   0  0  0  0  0  0  0  0  0  0  0  0
  137.3052   75.5056  221.9104 H   0  0  0  0  0  0  0  0  0  0  0  0
  138.1647   75.9094  223.4296 H   0  0  0  0  0  0  0  0  0  0  0  0
  136.5894   77.6844  222.6196 H   0  0  0  0  0  0  0  0  0  0  0  0
  138.3337   78.2097  222.7982 H   0  0  0  0  0  0  0  0  0  0  0  0
  136.7145   77.7693  220.3164 H   0  0  0  0  0  0  0  0  0  0  0  0
  137.6831   79.2078  220.8676 H   0  0  0  0  0  0  0  0  0  0  0  0
  138.4869   76.8218  219.3809 H   0  0  0  0  0  0  0  0  0  0  0  0
  139.2136   78.4846  219.4919 H   0  0  0  0  0  0  0  0  0  0  0  0
  140.7452   76.7669  220.3317 H   0  0  0  0  0  0  0  0  0  0  0  0
  140.3367   79.6233  220.2551 H   0  0  0  0  0  0  0  0  0  0  0  0
  141.4146   81.3990  221.6012 H   0  0  0  0  0  0  0  0  0  0  0  0
  142.0091   78.6664  224.8209 H   0  0  0  0  0  0  0  0  0  0  0  0
  140.9383   76.9022  223.4893 H   0  0  0  0  0  0  0  0  0  0  0  0
  138.4896   68.6897  223.1083 H   0  0  0  0  0  0  0  0  0  0  0  0
  138.9536   67.2070  225.0392 H   0  0  0  0  0  0  0  0  0  0  0  0
  139.8261   66.9291  227.2300 H   0  0  0  0  0  0  0  0  0  0  0  0
  140.9399   67.9356  229.2372 H   0  0  0  0  0  0  0  0  0  0  0  0
  141.5323   70.3163  229.2287 H   0  0  0  0  0  0  0  0  0  0  0  0
  141.0654   71.7834  227.2946 H   0  0  0  0  0  0  0  0  0  0  0  0
  1  2  2  0
  2  3  1  0
  3  4  1  0
  4  5  1  0
  5  6  2  0
  5  7  1  0
  7  8  1  0
  8  9  1  0
  9 10  1  0
 10 11  1  0
 11 12  1  0
 12 13  1  0
 13 14  2  0
 14 15  1  0
 15 16  2  0
 16 17  1  0
 16 18  1  0
 18 19  2  0
  2 20  1  0
 20 21  2  0
 21 22  1  0
 22 23  2  0
 23 24  1  0
 24 25  2  0
 25 26  1  0
 26 27  2  0
 27 28  1  0
 28 29  2  0
 12  7  1  0
 19 13  1  0
 29 20  1  0
 28 23  1  0
  3 30  1  0
  4 31  1  0
  4 32  1  0
  8 33  1  0
  8 34  1  0
  9 35  1  0
  9 36  1  0
 10 37  1  0
 10 38  1  0
 11 39  1  0
 11 40  1  0
 12 41  1  6
 14 42  1  0
 15 43  1  0
 18 44  1  0
 19 45  1  0
 21 46  1  0
 22 47  1  0
 24 48  1  0
 25 49  1  0
 26 50  1  0
 27 51  1  0
M  END
>  <smiles>  (51) 
O=C(NCC(=O)N1CCCCC1c1ccc(Cl)cc1)c1ccc2ccccc2n1

>  <score_type>  (51) 
oracle

>  <origin>  (51) 
autodockgpu

>  <m_score__min__energy>  (51) 
-9.2200000000000006

>  <m_primary>  (51) 
energy

>  <rmsd>  (51) 
2.501339188114686

>  <m_score__min__rmsd>  (51) 
2.501339188114686

>  <meeko>  (51) 
{"free_energy": -8.9, "intermolecular_energy": -10.39, "internal_energy": -1.75, "cluster_size": 24, "cluster_id": 2, "rank_in_cluster": 11}

>  <energy>  (51) 
-9.22

>  <cluster_rmsd>  (51) 
0.0

>  <cluster>  (51) 
1

$$$$

     RDKit          3D

 51 54  0  0  0  0  0  0  0  0999 V2000
  140.4420   71.6630  221.4250 O   0  0  0  0  0  0  0  0  0  0  0  0
  139.6810   71.9490  222.4070 C   0  0  0  0  0  0  0  0  0  0  0  0
  138.6960   72.9550  222.2380 N   0  0  0  0  0  0  0  0  0  0  0  0
  138.5530   73.6450  220.9800 C   0  0  0  0  0  0  0  0  0  0  0  0
  138.4350   75.1020  221.2180 C   0  0  0  0  0  0  0  0  0  0  0  0
  137.2980   75.6380  221.3710 O   0  0  0  0  0  0  0  0  0  0  0  0
  139.5540   75.9760  221.2870 N   0  0  0  0  0  0  0  0  0  0  0  0
  139.7780   76.6560  222.5450 C   0  0  0  0  0  0  0  0  0  0  0  0
  141.0600   77.4400  222.4520 C   0  0  0  0  0  0  0  0  0  0  0  0
  141.1430   78.3290  221.2520 C   0  0  0  0  0  0  0  0  0  0  0  0
  140.5820   77.6910  220.0290 C   0  0  0  0  0  0  0  0  0  0  0  0
  140.4520   76.2020  220.1700 C   0  0  1  0  0  0  0  0  0  0  0  0
  141.7190   75.4710  220.2570 C   0  0  0  0  0  0  0  0  0  0  0  0
  142.8640   76.0960  219.8030 C   0  0  0  0  0  0  0  0  0  0  0  0
  144.0950   75.4450  219.8780 C   0  0  0  0  0  0  0  0  0  0  0  0
  144.2200   74.1820  220.3940 C   0  0  0  0  0  0  0  0  0  0  0  0
  145.7760   73.4060  220.4680 Cl  0  0  0  0  0  0  0  0  0  0  0  0
  143.0880   73.5550  220.8460 C   0  0  0  0  0  0  0  0  0  0  0  0
  141.8700   74.2020  220.7720 C   0  0  0  0  0  0  0  0  0  0  0  0
  139.8360   71.2430  223.6770 C   0  0  0  0  0  0  0  0  0  0  0  0
  139.4610   69.9350  223.7920 C   0  0  0  0  0  0  0  0  0  0  0  0
  139.5940   69.2420  224.9720 C   0  0  0  0  0  0  0  0  0  0  0  0
  140.1240   69.9170  226.0580 C   0  0  0  0  0  0  0  0  0  0  0  0
  140.2600   69.2310  227.2430 C   0  0  0  0  0  0  0  0  0  0  0  0
  140.7900   69.9140  228.3190 C   0  0  0  0  0  0  0  0  0  0  0  0
  141.1570   71.2310  228.1670 C   0  0  0  0  0  0  0  0  0  0  0  0
  141.0220   71.9230  226.9820 C   0  0  0  0  0  0  0  0  0  0  0  0
  140.4930   71.2420  225.9050 C   0  0  0  0  0  0  0  0  0  0  0  0
  140.3490   71.8750  224.7490 N   0  0  0  0  0  0  0  0  0  0  0  0
  138.0930   73.1540  223.0810 H   0  0  0  0  0  0  0  0  0  0  0  0
  139.4349   73.4476  220.3528 H   0  0  0  0  0  0  0  0  0  0  0  0
  137.6474   73.2857  220.4694 H   0  0  0  0  0  0  0  0  0  0  0  0
  138.9408   77.3395  222.7498 H   0  0  0  0  0  0  0  0  0  0  0  0
  139.8484   75.9204  223.3598 H   0  0  0  0  0  0  0  0  0  0  0  0
  141.1494   78.0652  223.3526 H   0  0  0  0  0  0  0  0  0  0  0  0
  141.8756   76.7074  222.3627 H   0  0  0  0  0  0  0  0  0  0  0  0
  140.5812   79.2522  221.4575 H   0  0  0  0  0  0  0  0  0  0  0  0
  142.2066   78.5361  221.0627 H   0  0  0  0  0  0  0  0  0  0  0  0
  139.5863   78.1158  219.8337 H   0  0  0  0  0  0  0  0  0  0  0  0
  141.2747   77.8905  219.1982 H   0  0  0  0  0  0  0  0  0  0  0  0
  140.0340   75.7779  219.2451 H   0  0  0  0  0  0  0  0  0  0  0  0
  142.8047   77.1101  219.3811 H   0  0  0  0  0  0  0  0  0  0  0  0
  144.9941   75.9619  219.5113 H   0  0  0  0  0  0  0  0  0  0  0  0
  143.1494   72.5402  221.2661 H   0  0  0  0  0  0  0  0  0  0  0  0
  140.9764   73.6783  221.1425 H   0  0  0  0  0  0  0  0  0  0  0  0
  139.0403   69.4209  222.9152 H   0  0  0  0  0  0  0  0  0  0  0  0
  139.2898   68.1878  225.0503 H   0  0  0  0  0  0  0  0  0  0  0  0
  139.9574   68.1770  227.3296 H   0  0  0  0  0  0  0  0  0  0  0  0
  140.9176   69.4102  229.2885 H   0  0  0  0  0  0  0  0  0  0  0  0
  141.5795   71.7588  229.0347 H   0  0  0  0  0  0  0  0  0  0  0  0
  141.3244   72.9773  226.8985 H   0  0  0  0  0  0  0  0  0  0  0  0
  1  2  2  0
  2  3  1  0
  3  4  1  0
  4  5  1  0
  5  6  2  0
  5  7  1  0
  7  8  1  0
  8  9  1  0
  9 10  1  0
 10 11  1  0
 11 12  1  0
 12 13  1  0
 13 14  2  0
 14 15  1  0
 15 16  2  0
 16 17  1  0
 16 18  1  0
 18 19  2  0
  2 20  1  0
 20 21  2  0
 21 22  1  0
 22 23  2  0
 23 24  1  0
 24 25  2  0
 25 26  1  0
 26 27  2  0
 27 28  1  0
 28 29  2  0
 12  7  1  0
 19 13  1  0
 29 20  1  0
 28 23  1  0
  3 30  1  0
  4 31  1  0
  4 32  1  0
  8 33  1  0
  8 34  1  0
  9 35  1  0
  9 36  1  0
 10 37  1  0
 10 38  1  0
 11 39  1  0
 11 40  1  0
 12 41  1  6
 14 42  1  0
 15 43  1  0
 18 44  1  0
 19 45  1  0
 21 46  1  0
 22 47  1  0
 24 48  1  0
 25 49  1  0
 26 50  1  0
 27 51  1  0
M  END
>  <smiles>  (52) 
O=C(NCC(=O)N1CCCCC1c1ccc(Cl)cc1)c1ccc2ccccc2n1

>  <score_type>  (52) 
oracle

>  <origin>  (52) 
autodockgpu

>  <m_score__min__energy>  (52) 
-9.2200000000000006

>  <m_primary>  (52) 
energy

>  <rmsd>  (52) 
2.5187968871437905

>  <m_score__min__rmsd>  (52) 
2.5187968871437905

>  <meeko>  (52) 
{"free_energy": -8.79, "intermolecular_energy": -10.28, "internal_energy": -1.77, "cluster_size": 10, "cluster_id": 3, "rank_in_cluster": 4}

>  <energy>  (52) 
-9.18

>  <cluster_rmsd>  (52) 
0.2

>  <cluster>  (52) 
1

$$$$

     RDKit          3D

 51 54  0  0  0  0  0  0  0  0999 V2000
  141.2100   71.8580  221.6230 O   0  0  0  0  0  0  0  0  0  0  0  0
  140.3780   72.2120  222.5220 C   0  0  0  0  0  0  0  0  0  0  0  0
  139.6050   73.3810  222.3150 N   0  0  0  0  0  0  0  0  0  0  0  0
  139.7520   74.1610  221.1110 C   0  0  0  0  0  0  0  0  0  0  0  0
  139.1230   75.4890  221.2930 C   0  0  0  0  0  0  0  0  0  0  0  0
  138.1860   75.6480  222.1290 O   0  0  0  0  0  0  0  0  0  0  0  0
  139.5140   76.6450  220.5630 N   0  0  0  0  0  0  0  0  0  0  0  0
  138.4570   77.4280  219.9580 C   0  0  0  0  0  0  0  0  0  0  0  0
  139.0600   78.6570  219.3320 C   0  0  0  0  0  0  0  0  0  0  0  0
  140.2100   78.3720  218.4200 C   0  0  0  0  0  0  0  0  0  0  0  0
  141.1030   77.3020  218.9440 C   0  0  0  0  0  0  0  0  0  0  0  0
  140.8980   77.0530  220.4090 C   0  0  1  0  0  0  0  0  0  0  0  0
  141.3050   78.1510  221.2910 C   0  0  0  0  0  0  0  0  0  0  0  0
  141.1300   77.9920  222.6510 C   0  0  0  0  0  0  0  0  0  0  0  0
  141.5150   79.0040  223.5310 C   0  0  0  0  0  0  0  0  0  0  0  0
  142.0730   80.1770  223.0920 C   0  0  0  0  0  0  0  0  0  0  0  0
  142.5380   81.4130  224.2250 Cl  0  0  0  0  0  0  0  0  0  0  0  0
  142.2490   80.3410  221.7430 C   0  0  0  0  0  0  0  0  0  0  0  0
  141.8680   79.3380  220.8740 C   0  0  0  0  0  0  0  0  0  0  0  0
  140.2390   71.4140  223.7390 C   0  0  0  0  0  0  0  0  0  0  0  0
  139.6510   70.1830  223.6950 C   0  0  0  0  0  0  0  0  0  0  0  0
  139.5050   69.4070  224.8220 C   0  0  0  0  0  0  0  0  0  0  0  0
  139.9770   69.9170  226.0190 C   0  0  0  0  0  0  0  0  0  0  0  0
  139.8340   69.1470  227.1510 C   0  0  0  0  0  0  0  0  0  0  0  0
  140.3080   69.6660  228.3390 C   0  0  0  0  0  0  0  0  0  0  0  0
  140.8950   70.9100  228.3450 C   0  0  0  0  0  0  0  0  0  0  0  0
  141.0400   71.6840  227.2140 C   0  0  0  0  0  0  0  0  0  0  0  0
  140.5670   71.1680  226.0250 C   0  0  0  0  0  0  0  0  0  0  0  0
  140.6890   71.8850  224.9170 N   0  0  0  0  0  0  0  0  0  0  0  0
  138.9320   73.6320  223.0890 H   0  0  0  0  0  0  0  0  0  0  0  0
  140.8214   74.2910  220.8885 H   0  0  0  0  0  0  0  0  0  0  0  0
  139.2606   73.6379  220.2774 H   0  0  0  0  0  0  0  0  0  0  0  0
  137.9503   76.8306  219.1857 H   0  0  0  0  0  0  0  0  0  0  0  0
  137.7238   77.7206  220.7241 H   0  0  0  0  0  0  0  0  0  0  0  0
  138.2778   79.1696  218.7529 H   0  0  0  0  0  0  0  0  0  0  0  0
  139.4508   79.2744  220.1543 H   0  0  0  0  0  0  0  0  0  0  0  0
  139.8153   78.0550  217.4434 H   0  0  0  0  0  0  0  0  0  0  0  0
  140.8059   79.2928  218.3364 H   0  0  0  0  0  0  0  0  0  0  0  0
  140.8983   76.3708  218.3953 H   0  0  0  0  0  0  0  0  0  0  0  0
  142.1424   77.6331  218.8022 H   0  0  0  0  0  0  0  0  0  0  0  0
  141.5765   76.2559  220.7471 H   0  0  0  0  0  0  0  0  0  0  0  0
  140.6858   77.0648  223.0421 H   0  0  0  0  0  0  0  0  0  0  0  0
  141.3662   78.8562  224.6108 H   0  0  0  0  0  0  0  0  0  0  0  0
  142.6926   81.2692  221.3535 H   0  0  0  0  0  0  0  0  0  0  0  0
  142.0213   79.4939  219.7959 H   0  0  0  0  0  0  0  0  0  0  0  0
  139.2834   69.8004  222.7314 H   0  0  0  0  0  0  0  0  0  0  0  0
  139.0298   68.4161  224.7733 H   0  0  0  0  0  0  0  0  0  0  0  0
  139.3598   68.1553  227.1104 H   0  0  0  0  0  0  0  0  0  0  0  0
  140.2172   69.0903  229.2719 H   0  0  0  0  0  0  0  0  0  0  0  0
  141.2675   71.3071  229.3008 H   0  0  0  0  0  0  0  0  0  0  0  0
  141.5147   72.6753  227.2575 H   0  0  0  0  0  0  0  0  0  0  0  0
  1  2  2  0
  2  3  1  0
  3  4  1  0
  4  5  1  0
  5  6  2  0
  5  7  1  0
  7  8  1  0
  8  9  1  0
  9 10  1  0
 10 11  1  0
 11 12  1  0
 12 13  1  0
 13 14  2  0
 14 15  1  0
 15 16  2  0
 16 17  1  0
 16 18  1  0
 18 19  2  0
  2 20  1  0
 20 21  2  0
 21 22  1  0
 22 23  2  0
 23 24  1  0
 24 25  2  0
 25 26  1  0
 26 27  2  0
 27 28  1  0
 28 29  2  0
 12  7  1  0
 19 13  1  0
 29 20  1  0
 28 23  1  0
  3 30  1  0
  4 31  1  0
  4 32  1  0
  8 33  1  0
  8 34  1  0
  9 35  1  0
  9 36  1  0
 10 37  1  0
 10 38  1  0
 11 39  1  0
 11 40  1  0
 12 41  1  1
 14 42  1  0
 15 43  1  0
 18 44  1  0
 19 45  1  0
 21 46  1  0
 22 47  1  0
 24 48  1  0
 25 49  1  0
 26 50  1  0
 27 51  1  0
M  END
>  <smiles>  (53) 
O=C(NCC(=O)N1CCCCC1c1ccc(Cl)cc1)c1ccc2ccccc2n1

>  <score_type>  (53) 
oracle

>  <origin>  (53) 
autodockgpu

>  <m_score__min__energy>  (53) 
-9.2200000000000006

>  <m_primary>  (53) 
energy

>  <rmsd>  (53) 
1.8803778983579094

>  <m_score__min__rmsd>  (53) 
1.8803778983579094

>  <meeko>  (53) 
{"free_energy": -8.95, "intermolecular_energy": -10.44, "internal_energy": -1.7, "cluster_size": 24, "cluster_id": 2, "rank_in_cluster": 7}

>  <energy>  (53) 
-8.77

>  <cluster_rmsd>  (53) 
0.89

>  <cluster>  (53) 
1

$$$$

     RDKit          3D

 51 54  0  0  0  0  0  0  0  0999 V2000
  140.2620   75.5600  220.4240 O   0  0  0  0  0  0  0  0  0  0  0  0
  139.7440   75.8710  221.5470 C   0  0  0  0  0  0  0  0  0  0  0  0
  138.9410   74.9150  222.2170 N   0  0  0  0  0  0  0  0  0  0  0  0
  138.7110   73.6120  221.6460 C   0  0  0  0  0  0  0  0  0  0  0  0
  139.5650   72.6090  222.3220 C   0  0  0  0  0  0  0  0  0  0  0  0
  140.7230   72.9190  222.7280 O   0  0  0  0  0  0  0  0  0  0  0  0
  139.1580   71.2660  222.5560 N   0  0  0  0  0  0  0  0  0  0  0  0
  139.6350   70.2640  221.6270 C   0  0  0  0  0  0  0  0  0  0  0  0
  139.1920   68.9080  222.1050 C   0  0  0  0  0  0  0  0  0  0  0  0
  137.7290   68.8180  222.4050 C   0  0  0  0  0  0  0  0  0  0  0  0
  137.2080   70.0390  223.0770 C   0  0  0  0  0  0  0  0  0  0  0  0
  138.3040   70.8800  223.6640 C   0  0  1  0  0  0  0  0  0  0  0  0
  139.0160   70.2770  224.7930 C   0  0  0  0  0  0  0  0  0  0  0  0
  138.4950   69.1270  225.3520 C   0  0  0  0  0  0  0  0  0  0  0  0
  139.1450   68.5080  226.4200 C   0  0  0  0  0  0  0  0  0  0  0  0
  140.3070   69.0060  226.9510 C   0  0  0  0  0  0  0  0  0  0  0  0
  141.0850   68.2020  228.2840 Cl  0  0  0  0  0  0  0  0  0  0  0  0
  140.8300   70.1470  226.4020 C   0  0  0  0  0  0  0  0  0  0  0  0
  140.1840   70.7570  225.3440 C   0  0  0  0  0  0  0  0  0  0  0  0
  139.9840   77.1960  222.1160 C   0  0  0  0  0  0  0  0  0  0  0  0
  138.9380   77.9750  222.5200 C   0  0  0  0  0  0  0  0  0  0  0  0
  139.1290   79.2260  223.0590 C   0  0  0  0  0  0  0  0  0  0  0  0
  140.4310   79.6810  223.1820 C   0  0  0  0  0  0  0  0  0  0  0  0
  140.6300   80.9320  223.7190 C   0  0  0  0  0  0  0  0  0  0  0  0
  141.9330   81.3750  223.8360 C   0  0  0  0  0  0  0  0  0  0  0  0
  142.9620   80.5630  223.4180 C   0  0  0  0  0  0  0  0  0  0  0  0
  142.7660   79.3100  222.8790 C   0  0  0  0  0  0  0  0  0  0  0  0
  141.4650   78.8640  222.7610 C   0  0  0  0  0  0  0  0  0  0  0  0
  141.2390   77.6640  222.2460 N   0  0  0  0  0  0  0  0  0  0  0  0
  138.5350   75.2230  223.1430 H   0  0  0  0  0  0  0  0  0  0  0  0
  137.6536   73.3380  221.7760 H   0  0  0  0  0  0  0  0  0  0  0  0
  138.9591   73.6366  220.5746 H   0  0  0  0  0  0  0  0  0  0  0  0
  139.2178   70.4581  220.6279 H   0  0  0  0  0  0  0  0  0  0  0  0
  140.7330   70.2996  221.5708 H   0  0  0  0  0  0  0  0  0  0  0  0
  139.4313   68.1707  221.3246 H   0  0  0  0  0  0  0  0  0  0  0  0
  139.7235   68.7131  223.0482 H   0  0  0  0  0  0  0  0  0  0  0  0
  137.1835   68.6754  221.4605 H   0  0  0  0  0  0  0  0  0  0  0  0
  137.5803   67.9706  223.0904 H   0  0  0  0  0  0  0  0  0  0  0  0
  136.6574   70.6409  222.3390 H   0  0  0  0  0  0  0  0  0  0  0  0
  136.5548   69.7159  223.9010 H   0  0  0  0  0  0  0  0  0  0  0  0
  137.8706   71.7683  224.1468 H   0  0  0  0  0  0  0  0  0  0  0  0
  137.5640   68.6973  224.9538 H   0  0  0  0  0  0  0  0  0  0  0  0
  138.7121   67.5924  226.8493 H   0  0  0  0  0  0  0  0  0  0  0  0
  141.7607   70.5758  226.8020 H   0  0  0  0  0  0  0  0  0  0  0  0
  140.6242   71.6717  224.9203 H   0  0  0  0  0  0  0  0  0  0  0  0
  137.9129   77.5911  222.4113 H   0  0  0  0  0  0  0  0  0  0  0  0
  138.2774   79.8433  223.3810 H   0  0  0  0  0  0  0  0  0  0  0  0
  139.7837   81.5556  224.0428 H   0  0  0  0  0  0  0  0  0  0  0  0
  142.1460   82.3677  224.2594 H   0  0  0  0  0  0  0  0  0  0  0  0
  143.9931   80.9326  223.5192 H   0  0  0  0  0  0  0  0  0  0  0  0
  143.6141   78.6888  222.5551 H   0  0  0  0  0  0  0  0  0  0  0  0
  1  2  2  0
  2  3  1  0
  3  4  1  0
  4  5  1  0
  5  6  2  0
  5  7  1  0
  7  8  1  0
  8  9  1  0
  9 10  1  0
 10 11  1  0
 11 12  1  0
 12 13  1  0
 13 14  2  0
 14 15  1  0
 15 16  2  0
 16 17  1  0
 16 18  1  0
 18 19  2  0
  2 20  1  0
 20 21  2  0
 21 22  1  0
 22 23  2  0
 23 24  1  0
 24 25  2  0
 25 26  1  0
 26 27  2  0
 27 28  1  0
 28 29  2  0
 12  7  1  0
 19 13  1  0
 29 20  1  0
 28 23  1  0
  3 30  1  0
  4 31  1  0
  4 32  1  0
  8 33  1  0
  8 34  1  0
  9 35  1  0
  9 36  1  0
 10 37  1  0
 10 38  1  0
 11 39  1  0
 11 40  1  0
 12 41  1  1
 14 42  1  0
 15 43  1  0
 18 44  1  0
 19 45  1  0
 21 46  1  0
 22 47  1  0
 24 48  1  0
 25 49  1  0
 26 50  1  0
 27 51  1  0
M  END
>  <smiles>  (54) 
O=C(NCC(=O)N1CCCCC1c1ccc(Cl)cc1)c1ccc2ccccc2n1

>  <score_type>  (54) 
oracle

>  <origin>  (54) 
autodockgpu

>  <m_score__min__energy>  (54) 
-9.2200000000000006

>  <m_primary>  (54) 
energy

>  <rmsd>  (54) 
8.269671381092087

>  <m_score__min__rmsd>  (54) 
8.269671381092087

>  <meeko>  (54) 
{"free_energy": -9.18, "intermolecular_energy": -10.67, "internal_energy": -1.25, "cluster_size": 16, "cluster_id": 1, "rank_in_cluster": 2}

>  <energy>  (54) 
-8.76

>  <cluster_rmsd>  (54) 
0.89

>  <cluster>  (54) 
1

$$$$

     RDKit          3D

 51 54  0  0  0  0  0  0  0  0999 V2000
  137.4750   76.1770  222.2420 O   0  0  0  0  0  0  0  0  0  0  0  0
  138.7410   76.2990  222.3460 C   0  0  0  0  0  0  0  0  0  0  0  0
  139.5580   75.1660  222.1050 N   0  0  0  0  0  0  0  0  0  0  0  0
  138.9750   73.8970  221.7480 C   0  0  0  0  0  0  0  0  0  0  0  0
  139.8030   72.7940  222.2890 C   0  0  0  0  0  0  0  0  0  0  0  0
  141.0100   72.9950  222.6120 O   0  0  0  0  0  0  0  0  0  0  0  0
  139.3160   71.4720  222.4790 N   0  0  0  0  0  0  0  0  0  0  0  0
  139.7910   70.4600  221.5590 C   0  0  0  0  0  0  0  0  0  0  0  0
  139.2540   69.1220  221.9900 C   0  0  0  0  0  0  0  0  0  0  0  0
  137.7740   69.1030  222.2100 C   0  0  0  0  0  0  0  0  0  0  0  0
  137.2800   70.3400  222.8740 C   0  0  0  0  0  0  0  0  0  0  0  0
  138.3840   71.1150  223.5320 C   0  0  1  0  0  0  0  0  0  0  0  0
  139.0020   70.4590  224.6880 C   0  0  0  0  0  0  0  0  0  0  0  0
  140.0780   71.0800  225.2900 C   0  0  0  0  0  0  0  0  0  0  0  0
  140.6910   70.5010  226.4020 C   0  0  0  0  0  0  0  0  0  0  0  0
  140.2600   69.3140  226.9340 C   0  0  0  0  0  0  0  0  0  0  0  0
  141.0540   68.6270  228.3210 Cl  0  0  0  0  0  0  0  0  0  0  0  0
  139.1930   68.6910  226.3410 C   0  0  0  0  0  0  0  0  0  0  0  0
  138.5880   69.2670  225.2410 C   0  0  0  0  0  0  0  0  0  0  0  0
  139.3200   77.5910  222.7080 C   0  0  0  0  0  0  0  0  0  0  0  0
  138.5130   78.6420  223.0370 C   0  0  0  0  0  0  0  0  0  0  0  0
  139.0260   79.8710  223.3830 C   0  0  0  0  0  0  0  0  0  0  0  0
  140.4030   80.0150  223.3880 C   0  0  0  0  0  0  0  0  0  0  0  0
  140.9240   81.2410  223.7320 C   0  0  0  0  0  0  0  0  0  0  0  0
  142.2980   81.3720  223.7340 C   0  0  0  0  0  0  0  0  0  0  0  0
  143.0790   80.2910  223.3970 C   0  0  0  0  0  0  0  0  0  0  0  0
  142.5620   79.0610  223.0510 C   0  0  0  0  0  0  0  0  0  0  0  0
  141.1890   78.9270  223.0490 C   0  0  0  0  0  0  0  0  0  0  0  0
  140.6550   77.7590  222.7210 N   0  0  0  0  0  0  0  0  0  0  0  0
  140.5980   75.3190  222.2040 H   0  0  0  0  0  0  0  0  0  0  0  0
  137.9600   73.8308  222.1667 H   0  0  0  0  0  0  0  0  0  0  0  0
  138.9302   73.8135  220.6521 H   0  0  0  0  0  0  0  0  0  0  0  0
  139.4386   70.6898  220.5426 H   0  0  0  0  0  0  0  0  0  0  0  0
  140.8908   70.4396  221.5613 H   0  0  0  0  0  0  0  0  0  0  0  0
  139.4975   68.3843  221.2113 H   0  0  0  0  0  0  0  0  0  0  0  0
  139.7228   68.8871  222.9570 H   0  0  0  0  0  0  0  0  0  0  0  0
  137.2739   69.0021  221.2355 H   0  0  0  0  0  0  0  0  0  0  0  0
  137.5456   68.2547  222.8719 H   0  0  0  0  0  0  0  0  0  0  0  0
  136.8010   70.9797  222.1181 H   0  0  0  0  0  0  0  0  0  0  0  0
  136.5680   70.0395  223.6567 H   0  0  0  0  0  0  0  0  0  0  0  0
  137.9708   72.0183  224.0046 H   0  0  0  0  0  0  0  0  0  0  0  0
  140.4534   72.0343  224.8919 H   0  0  0  0  0  0  0  0  0  0  0  0
  141.5467   71.0134  226.8658 H   0  0  0  0  0  0  0  0  0  0  0  0
  138.8199   67.7360  226.7395 H   0  0  0  0  0  0  0  0  0  0  0  0
  137.7328   68.7480  224.7836 H   0  0  0  0  0  0  0  0  0  0  0  0
  137.4220   78.5023  223.0251 H   0  0  0  0  0  0  0  0  0  0  0  0
  138.3651   80.7099  223.6465 H   0  0  0  0  0  0  0  0  0  0  0  0
  140.2700   82.0853  223.9956 H   0  0  0  0  0  0  0  0  0  0  0  0
  142.7640   82.3316  224.0025 H   0  0  0  0  0  0  0  0  0  0  0  0
  144.1720   80.4144  223.4040 H   0  0  0  0  0  0  0  0  0  0  0  0
  143.2187   78.2190  222.7867 H   0  0  0  0  0  0  0  0  0  0  0  0
  1  2  2  0
  2  3  1  0
  3  4  1  0
  4  5  1  0
  5  6  2  0
  5  7  1  0
  7  8  1  0
  8  9  1  0
  9 10  1  0
 10 11  1  0
 11 12  1  0
 12 13  1  0
 13 14  2  0
 14 15  1  0
 15 16  2  0
 16 17  1  0
 16 18  1  0
 18 19  2  0
  2 20  1  0
 20 21  2  0
 21 22  1  0
 22 23  2  0
 23 24  1  0
 24 25  2  0
 25 26  1  0
 26 27  2  0
 27 28  1  0
 28 29  2  0
 12  7  1  0
 19 13  1  0
 29 20  1  0
 28 23  1  0
  3 30  1  0
  4 31  1  0
  4 32  1  0
  8 33  1  0
  8 34  1  0
  9 35  1  0
  9 36  1  0
 10 37  1  0
 10 38  1  0
 11 39  1  0
 11 40  1  0
 12 41  1  1
 14 42  1  0
 15 43  1  0
 18 44  1  0
 19 45  1  0
 21 46  1  0
 22 47  1  0
 24 48  1  0
 25 49  1  0
 26 50  1  0
 27 51  1  0
M  END
>  <smiles>  (55) 
O=C(NCC(=O)N1CCCCC1c1ccc(Cl)cc1)c1ccc2ccccc2n1

>  <score_type>  (55) 
oracle

>  <origin>  (55) 
autodockgpu

>  <m_score__min__energy>  (55) 
-9.2200000000000006

>  <m_primary>  (55) 
energy

>  <rmsd>  (55) 
8.328312818499036

>  <m_score__min__rmsd>  (55) 
8.328312818499036

>  <meeko>  (55) 
{"free_energy": -8.67, "intermolecular_energy": -10.16, "internal_energy": -1.93, "cluster_size": 16, "cluster_id": 1, "rank_in_cluster": 10}

>  <energy>  (55) 
-8.72

>  <cluster_rmsd>  (55) 
0.9

>  <cluster>  (55) 
1

$$$$

     RDKit          3D

 51 54  0  0  0  0  0  0  0  0999 V2000
  139.9140   71.1480  221.3670 O   0  0  0  0  0  0  0  0  0  0  0  0
  139.7390   71.7260  222.4910 C   0  0  0  0  0  0  0  0  0  0  0  0
  139.4520   73.1130  222.5080 N   0  0  0  0  0  0  0  0  0  0  0  0
  139.3580   73.8640  221.2810 C   0  0  0  0  0  0  0  0  0  0  0  0
  139.2340   75.3080  221.5840 C   0  0  0  0  0  0  0  0  0  0  0  0
  138.5870   75.6990  222.5990 O   0  0  0  0  0  0  0  0  0  0  0  0
  139.8150   76.3280  220.7800 N   0  0  0  0  0  0  0  0  0  0  0  0
  138.9410   77.0050  219.8460 C   0  0  0  0  0  0  0  0  0  0  0  0
  139.7090   78.1120  219.1770 C   0  0  0  0  0  0  0  0  0  0  0  0
  141.0140   77.6770  218.5890 C   0  0  0  0  0  0  0  0  0  0  0  0
  141.7340   76.7040  219.4550 C   0  0  0  0  0  0  0  0  0  0  0  0
  141.2150   76.6990  220.8640 C   0  0  1  0  0  0  0  0  0  0  0  0
  141.4690   77.9250  221.6260 C   0  0  0  0  0  0  0  0  0  0  0  0
  141.2470   77.9020  222.9880 C   0  0  0  0  0  0  0  0  0  0  0  0
  141.4880   79.0410  223.7580 C   0  0  0  0  0  0  0  0  0  0  0  0
  141.9480   80.2080  223.2060 C   0  0  0  0  0  0  0  0  0  0  0  0
  142.2350   81.6040  224.2030 Cl  0  0  0  0  0  0  0  0  0  0  0  0
  142.1710   80.2380  221.8540 C   0  0  0  0  0  0  0  0  0  0  0  0
  141.9320   79.1090  221.0940 C   0  0  0  0  0  0  0  0  0  0  0  0
  139.8390   70.9540  223.7280 C   0  0  0  0  0  0  0  0  0  0  0  0
  139.4470   69.6470  223.7620 C   0  0  0  0  0  0  0  0  0  0  0  0
  139.5280   68.8930  224.9100 C   0  0  0  0  0  0  0  0  0  0  0  0
  140.0230   69.5060  226.0480 C   0  0  0  0  0  0  0  0  0  0  0  0
  140.1060   68.7590  227.2000 C   0  0  0  0  0  0  0  0  0  0  0  0
  140.6010   69.3810  228.3290 C   0  0  0  0  0  0  0  0  0  0  0  0
  140.9860   70.7000  228.2580 C   0  0  0  0  0  0  0  0  0  0  0  0
  140.9040   71.4520  227.1060 C   0  0  0  0  0  0  0  0  0  0  0  0
  140.4090   70.8330  225.9770 C   0  0  0  0  0  0  0  0  0  0  0  0
  140.3160   71.5250  224.8500 N   0  0  0  0  0  0  0  0  0  0  0  0
  139.3170   73.5440  223.4630 H   0  0  0  0  0  0  0  0  0  0  0  0
  140.2626   73.6938  220.6787 H   0  0  0  0  0  0  0  0  0  0  0  0
  138.4712   73.5335  220.7204 H   0  0  0  0  0  0  0  0  0  0  0  0
  138.5860   76.2911  219.0881 H   0  0  0  0  0  0  0  0  0  0  0  0
  138.0746   77.4218  220.3804 H   0  0  0  0  0  0  0  0  0  0  0  0
  139.0868   78.5262  218.3700 H   0  0  0  0  0  0  0  0  0  0  0  0
  139.9416   78.8538  219.9552 H   0  0  0  0  0  0  0  0  0  0  0  0
  140.8218   77.2061  217.6137 H   0  0  0  0  0  0  0  0  0  0  0  0
  141.6494   78.5694  218.4895 H   0  0  0  0  0  0  0  0  0  0  0  0
  141.6134   75.6964  219.0305 H   0  0  0  0  0  0  0  0  0  0  0  0
  142.7920   77.0032  219.4882 H   0  0  0  0  0  0  0  0  0  0  0  0
  141.7753   75.9654  221.4623 H   0  0  0  0  0  0  0  0  0  0  0  0
  140.8790   76.9833  223.4682 H   0  0  0  0  0  0  0  0  0  0  0  0
  141.3030   79.0007  224.8416 H   0  0  0  0  0  0  0  0  0  0  0  0
  142.5390   81.1576  221.3756 H   0  0  0  0  0  0  0  0  0  0  0  0
  142.1205   79.1577  220.0114 H   0  0  0  0  0  0  0  0  0  0  0  0
  139.0550   69.1830  222.8449 H   0  0  0  0  0  0  0  0  0  0  0  0
  139.2105   67.8399  224.9230 H   0  0  0  0  0  0  0  0  0  0  0  0
  139.7899   67.7056  227.2210 H   0  0  0  0  0  0  0  0  0  0  0  0
  140.6867   68.8275  229.2757 H   0  0  0  0  0  0  0  0  0  0  0  0
  141.3792   71.1787  229.1670 H   0  0  0  0  0  0  0  0  0  0  0  0
  141.2211   72.5052  227.0875 H   0  0  0  0  0  0  0  0  0  0  0  0
  1  2  2  0
  2  3  1  0
  3  4  1  0
  4  5  1  0
  5  6  2  0
  5  7  1  0
  7  8  1  0
  8  9  1  0
  9 10  1  0
 10 11  1  0
 11 12  1  0
 12 13  1  0
 13 14  2  0
 14 15  1  0
 15 16  2  0
 16 17  1  0
 16 18  1  0
 18 19  2  0
  2 20  1  0
 20 21  2  0
 21 22  1  0
 22 23  2  0
 23 24  1  0
 24 25  2  0
 25 26  1  0
 26 27  2  0
 27 28  1  0
 28 29  2  0
 12  7  1  0
 19 13  1  0
 29 20  1  0
 28 23  1  0
  3 30  1  0
  4 31  1  0
  4 32  1  0
  8 33  1  0
  8 34  1  0
  9 35  1  0
  9 36  1  0
 10 37  1  0
 10 38  1  0
 11 39  1  0
 11 40  1  0
 12 41  1  1
 14 42  1  0
 15 43  1  0
 18 44  1  0
 19 45  1  0
 21 46  1  0
 22 47  1  0
 24 48  1  0
 25 49  1  0
 26 50  1  0
 27 51  1  0
M  END
>  <smiles>  (56) 
O=C(NCC(=O)N1CCCCC1c1ccc(Cl)cc1)c1ccc2ccccc2n1

>  <score_type>  (56) 
oracle

>  <origin>  (56) 
autodockgpu

>  <m_score__min__energy>  (56) 
-9.2200000000000006

>  <m_primary>  (56) 
energy

>  <rmsd>  (56) 
1.5651341256020366

>  <m_score__min__rmsd>  (56) 
1.5651341256020366

>  <meeko>  (56) 
{"free_energy": -8.95, "intermolecular_energy": -10.44, "internal_energy": -1.65, "cluster_size": 24, "cluster_id": 2, "rank_in_cluster": 8}

>  <energy>  (56) 
-8.71

>  <cluster_rmsd>  (56) 
0.87

>  <cluster>  (56) 
1

$$$$

     RDKit          3D

 51 54  0  0  0  0  0  0  0  0999 V2000
  141.3480   72.0840  222.3390 O   0  0  0  0  0  0  0  0  0  0  0  0
  140.3260   72.0470  223.1030 C   0  0  0  0  0  0  0  0  0  0  0  0
  139.1500   72.7280  222.7030 N   0  0  0  0  0  0  0  0  0  0  0  0
  139.1010   73.4520  221.4570 C   0  0  0  0  0  0  0  0  0  0  0  0
  139.8280   74.7350  221.5930 C   0  0  0  0  0  0  0  0  0  0  0  0
  141.0930   74.7550  221.6450 O   0  0  0  0  0  0  0  0  0  0  0  0
  139.1780   75.9970  221.6710 N   0  0  0  0  0  0  0  0  0  0  0  0
  138.0020   76.0780  222.5110 C   0  0  0  0  0  0  0  0  0  0  0  0
  137.5300   77.5060  222.5490 C   0  0  0  0  0  0  0  0  0  0  0  0
  137.3620   78.1270  221.1990 C   0  0  0  0  0  0  0  0  0  0  0  0
  138.4440   77.7380  220.2530 C   0  0  0  0  0  0  0  0  0  0  0  0
  139.6420   77.1720  220.9580 C   0  0  1  0  0  0  0  0  0  0  0  0
  140.3870   78.1250  221.7840 C   0  0  0  0  0  0  0  0  0  0  0  0
  140.4590   79.4380  221.3610 C   0  0  0  0  0  0  0  0  0  0  0  0
  141.1440   80.3840  222.1220 C   0  0  0  0  0  0  0  0  0  0  0  0
  141.7650   80.0600  223.3000 C   0  0  0  0  0  0  0  0  0  0  0  0
  142.6100   81.2730  224.2170 Cl  0  0  0  0  0  0  0  0  0  0  0  0
  141.6980   78.7600  223.7270 C   0  0  0  0  0  0  0  0  0  0  0  0
  141.0180   77.8240  222.9720 C   0  0  0  0  0  0  0  0  0  0  0  0
  140.3880   71.3110  224.3630 C   0  0  0  0  0  0  0  0  0  0  0  0
  140.9340   71.8860  225.4750 C   0  0  0  0  0  0  0  0  0  0  0  0
  141.0070   71.2200  226.6760 C   0  0  0  0  0  0  0  0  0  0  0  0
  140.5050   69.9310  226.7290 C   0  0  0  0  0  0  0  0  0  0  0  0
  140.5750   69.2590  227.9270 C   0  0  0  0  0  0  0  0  0  0  0  0
  140.0720   67.9740  227.9680 C   0  0  0  0  0  0  0  0  0  0  0  0
  139.5290   67.4260  226.8290 C   0  0  0  0  0  0  0  0  0  0  0  0
  139.4570   68.0970  225.6260 C   0  0  0  0  0  0  0  0  0  0  0  0
  139.9590   69.3810  225.5830 C   0  0  0  0  0  0  0  0  0  0  0  0
  139.9080   70.0560  224.4430 N   0  0  0  0  0  0  0  0  0  0  0  0
  138.3340   72.6680  223.3710 H   0  0  0  0  0  0  0  0  0  0  0  0
  139.5698   72.8488  220.6656 H   0  0  0  0  0  0  0  0  0  0  0  0
  138.0519   73.6551  221.1961 H   0  0  0  0  0  0  0  0  0  0  0  0
  137.2085   75.4373  222.0988 H   0  0  0  0  0  0  0  0  0  0  0  0
  138.2456   75.7380  223.5284 H   0  0  0  0  0  0  0  0  0  0  0  0
  136.5599   77.5360  223.0667 H   0  0  0  0  0  0  0  0  0  0  0  0
  138.3067   78.0842  223.0710 H   0  0  0  0  0  0  0  0  0  0  0  0
  136.3962   77.8065  220.7812 H   0  0  0  0  0  0  0  0  0  0  0  0
  137.4059   79.2188  221.3259 H   0  0  0  0  0  0  0  0  0  0  0  0
  138.0514   76.9802  219.5591 H   0  0  0  0  0  0  0  0  0  0  0  0
  138.7654   78.6443  219.7189 H   0  0  0  0  0  0  0  0  0  0  0  0
  140.4100   76.8976  220.2199 H   0  0  0  0  0  0  0  0  0  0  0  0
  139.9741   79.7382  220.4204 H   0  0  0  0  0  0  0  0  0  0  0  0
  141.1875   81.4238  221.7656 H   0  0  0  0  0  0  0  0  0  0  0  0
  142.1840   78.4625  224.6679 H   0  0  0  0  0  0  0  0  0  0  0  0
  140.9781   76.7871  223.3370 H   0  0  0  0  0  0  0  0  0  0  0  0
  141.3267   72.9113  225.4081 H   0  0  0  0  0  0  0  0  0  0  0  0
  141.4491   71.6953  227.5641 H   0  0  0  0  0  0  0  0  0  0  0  0
  141.0154   69.7280  228.8193 H   0  0  0  0  0  0  0  0  0  0  0  0
  140.1051   67.3941  228.9021 H   0  0  0  0  0  0  0  0  0  0  0  0
  139.1323   66.4013  226.8802 H   0  0  0  0  0  0  0  0  0  0  0  0
  139.0161   67.6261  224.7350 H   0  0  0  0  0  0  0  0  0  0  0  0
  1  2  2  0
  2  3  1  0
  3  4  1  0
  4  5  1  0
  5  6  2  0
  5  7  1  0
  7  8  1  0
  8  9  1  0
  9 10  1  0
 10 11  1  0
 11 12  1  0
 12 13  1  0
 13 14  2  0
 14 15  1  0
 15 16  2  0
 16 17  1  0
 16 18  1  0
 18 19  2  0
  2 20  1  0
 20 21  2  0
 21 22  1  0
 22 23  2  0
 23 24  1  0
 24 25  2  0
 25 26  1  0
 26 27  2  0
 27 28  1  0
 28 29  2  0
 12  7  1  0
 19 13  1  0
 29 20  1  0
 28 23  1  0
  3 30  1  0
  4 31  1  0
  4 32  1  0
  8 33  1  0
  8 34  1  0
  9 35  1  0
  9 36  1  0
 10 37  1  0
 10 38  1  0
 11 39  1  0
 11 40  1  0
 12 41  1  6
 14 42  1  0
 15 43  1  0
 18 44  1  0
 19 45  1  0
 21 46  1  0
 22 47  1  0
 24 48  1  0
 25 49  1  0
 26 50  1  0
 27 51  1  0
M  END
>  <smiles>  (57) 
O=C(NCC(=O)N1CCCCC1c1ccc(Cl)cc1)c1ccc2ccccc2n1

>  <score_type>  (57) 
oracle

>  <origin>  (57) 
autodockgpu

>  <m_score__min__energy>  (57) 
-9.2200000000000006

>  <m_primary>  (57) 
energy

>  <rmsd>  (57) 
3.517463635404856

>  <m_score__min__rmsd>  (57) 
3.517463635404856

>  <meeko>  (57) 
{"free_energy": -9.15, "intermolecular_energy": -10.64, "internal_energy": -1.42, "cluster_size": 24, "cluster_id": 2, "rank_in_cluster": 1}

>  <energy>  (57) 
-8.7

>  <cluster_rmsd>  (57) 
0.87

>  <cluster>  (57) 
1

$$$$

     RDKit          3D

 51 54  0  0  0  0  0  0  0  0999 V2000
  137.3830   76.2250  222.3550 O   0  0  0  0  0  0  0  0  0  0  0  0
  138.6520   76.3280  222.4240 C   0  0  0  0  0  0  0  0  0  0  0  0
  139.4440   75.1760  222.1920 N   0  0  0  0  0  0  0  0  0  0  0  0
  138.8320   73.9080  221.8840 C   0  0  0  0  0  0  0  0  0  0  0  0
  139.7650   72.8060  222.2120 C   0  0  0  0  0  0  0  0  0  0  0  0
  141.0060   73.0270  222.3280 O   0  0  0  0  0  0  0  0  0  0  0  0
  139.3470   71.4620  222.4150 N   0  0  0  0  0  0  0  0  0  0  0  0
  139.9090   70.4600  221.5340 C   0  0  0  0  0  0  0  0  0  0  0  0
  139.4340   69.1030  221.9760 C   0  0  0  0  0  0  0  0  0  0  0  0
  137.9510   69.0040  222.1490 C   0  0  0  0  0  0  0  0  0  0  0  0
  137.3670   70.2240  222.7700 C   0  0  0  0  0  0  0  0  0  0  0  0
  138.4030   71.0740  223.4460 C   0  0  1  0  0  0  0  0  0  0  0  0
  139.0180   70.4780  224.6340 C   0  0  0  0  0  0  0  0  0  0  0  0
  140.1080   71.1160  225.1930 C   0  0  0  0  0  0  0  0  0  0  0  0
  140.7190   70.5940  226.3330 C   0  0  0  0  0  0  0  0  0  0  0  0
  140.2730   69.4470  226.9370 C   0  0  0  0  0  0  0  0  0  0  0  0
  141.0650   68.8300  228.3580 Cl  0  0  0  0  0  0  0  0  0  0  0  0
  139.1920   68.8070  226.3880 C   0  0  0  0  0  0  0  0  0  0  0  0
  138.5890   69.3270  225.2590 C   0  0  0  0  0  0  0  0  0  0  0  0
  139.2610   77.6180  222.7380 C   0  0  0  0  0  0  0  0  0  0  0  0
  138.4800   78.7030  223.0170 C   0  0  0  0  0  0  0  0  0  0  0  0
  139.0220   79.9310  223.3170 C   0  0  0  0  0  0  0  0  0  0  0  0
  140.4010   80.0410  223.3270 C   0  0  0  0  0  0  0  0  0  0  0  0
  140.9510   81.2660  223.6250 C   0  0  0  0  0  0  0  0  0  0  0  0
  142.3280   81.3630  223.6320 C   0  0  0  0  0  0  0  0  0  0  0  0
  143.0840   80.2500  223.3460 C   0  0  0  0  0  0  0  0  0  0  0  0
  142.5370   79.0200  223.0460 C   0  0  0  0  0  0  0  0  0  0  0  0
  141.1610   78.9210  223.0390 C   0  0  0  0  0  0  0  0  0  0  0  0
  140.6010   77.7530  222.7550 N   0  0  0  0  0  0  0  0  0  0  0  0
  140.4890   75.3140  222.2610 H   0  0  0  0  0  0  0  0  0  0  0  0
  137.9110   73.7943  222.4747 H   0  0  0  0  0  0  0  0  0  0  0  0
  138.5920   73.8725  220.8111 H   0  0  0  0  0  0  0  0  0  0  0  0
  139.5792   70.6488  220.5017 H   0  0  0  0  0  0  0  0  0  0  0  0
  141.0075   70.5021  221.5735 H   0  0  0  0  0  0  0  0  0  0  0  0
  139.7443   68.3652  221.2214 H   0  0  0  0  0  0  0  0  0  0  0  0
  139.8828   68.9143  222.9624 H   0  0  0  0  0  0  0  0  0  0  0  0
  137.4898   68.8555  221.1615 H   0  0  0  0  0  0  0  0  0  0  0  0
  137.7487   68.1572  222.8213 H   0  0  0  0  0  0  0  0  0  0  0  0
  136.8780   70.8202  221.9855 H   0  0  0  0  0  0  0  0  0  0  0  0
  136.6480   69.8988  223.5363 H   0  0  0  0  0  0  0  0  0  0  0  0
  137.9247   71.9615  223.8859 H   0  0  0  0  0  0  0  0  0  0  0  0
  140.4957   72.0392  224.7375 H   0  0  0  0  0  0  0  0  0  0  0  0
  141.5858   71.1191  226.7608 H   0  0  0  0  0  0  0  0  0  0  0  0
  138.8064   67.8834  226.8445 H   0  0  0  0  0  0  0  0  0  0  0  0
  137.7229   68.7956  224.8377 H   0  0  0  0  0  0  0  0  0  0  0  0
  137.3858   78.5916  223.0013 H   0  0  0  0  0  0  0  0  0  0  0  0
  138.3808   80.7962  223.5413 H   0  0  0  0  0  0  0  0  0  0  0  0
  140.3169   82.1364  223.8495 H   0  0  0  0  0  0  0  0  0  0  0  0
  142.8160   82.3211  223.8641 H   0  0  0  0  0  0  0  0  0  0  0  0
  144.1798   80.3458  223.3571 H   0  0  0  0  0  0  0  0  0  0  0  0
  143.1733   78.1514  222.8210 H   0  0  0  0  0  0  0  0  0  0  0  0
  1  2  2  0
  2  3  1  0
  3  4  1  0
  4  5  1  0
  5  6  2  0
  5  7  1  0
  7  8  1  0
  8  9  1  0
  9 10  1  0
 10 11  1  0
 11 12  1  0
 12 13  1  0
 13 14  2  0
 14 15  1  0
 15 16  2  0
 16 17  1  0
 16 18  1  0
 18 19  2  0
  2 20  1  0
 20 21  2  0
 21 22  1  0
 22 23  2  0
 23 24  1  0
 24 25  2  0
 25 26  1  0
 26 27  2  0
 27 28  1  0
 28 29  2  0
 12  7  1  0
 19 13  1  0
 29 20  1  0
 28 23  1  0
  3 30  1  0
  4 31  1  0
  4 32  1  0
  8 33  1  0
  8 34  1  0
  9 35  1  0
  9 36  1  0
 10 37  1  0
 10 38  1  0
 11 39  1  0
 11 40  1  0
 12 41  1  1
 14 42  1  0
 15 43  1  0
 18 44  1  0
 19 45  1  0
 21 46  1  0
 22 47  1  0
 24 48  1  0
 25 49  1  0
 26 50  1  0
 27 51  1  0
M  END
>  <smiles>  (58) 
O=C(NCC(=O)N1CCCCC1c1ccc(Cl)cc1)c1ccc2ccccc2n1

>  <score_type>  (58) 
oracle

>  <origin>  (58) 
autodockgpu

>  <m_score__min__energy>  (58) 
-9.2200000000000006

>  <m_primary>  (58) 
energy

>  <rmsd>  (58) 
8.342419966008618

>  <m_score__min__rmsd>  (58) 
8.342419966008618

>  <meeko>  (58) 
{"free_energy": -8.6, "intermolecular_energy": -10.09, "internal_energy": -2.01, "cluster_size": 16, "cluster_id": 1, "rank_in_cluster": 16}

>  <energy>  (58) 
-8.7

>  <cluster_rmsd>  (58) 
0.86

>  <cluster>  (58) 
1

$$$$

     RDKit          3D

 51 54  0  0  0  0  0  0  0  0999 V2000
  138.2580   70.8030  221.8540 O   0  0  0  0  0  0  0  0  0  0  0  0
  138.9190   71.2880  222.8310 C   0  0  0  0  0  0  0  0  0  0  0  0
  139.3410   72.6400  222.7660 N   0  0  0  0  0  0  0  0  0  0  0  0
  139.0310   73.4570  221.6200 C   0  0  0  0  0  0  0  0  0  0  0  0
  139.9350   74.6290  221.5790 C   0  0  0  0  0  0  0  0  0  0  0  0
  141.1350   74.5300  221.9700 O   0  0  0  0  0  0  0  0  0  0  0  0
  139.5320   75.9100  221.1130 N   0  0  0  0  0  0  0  0  0  0  0  0
  138.1590   76.2960  221.3580 C   0  0  0  0  0  0  0  0  0  0  0  0
  137.9620   77.7130  220.8930 C   0  0  0  0  0  0  0  0  0  0  0  0
  138.4280   77.9650  219.4940 C   0  0  0  0  0  0  0  0  0  0  0  0
  139.7020   77.2610  219.1820 C   0  0  0  0  0  0  0  0  0  0  0  0
  140.4270   76.8170  220.4190 C   0  0  1  0  0  0  0  0  0  0  0  0
  140.9560   77.8990  221.2530 C   0  0  0  0  0  0  0  0  0  0  0  0
  140.9900   77.7100  222.6200 C   0  0  0  0  0  0  0  0  0  0  0  0
  141.4980   78.7070  223.4540 C   0  0  0  0  0  0  0  0  0  0  0  0
  141.9750   79.8930  222.9630 C   0  0  0  0  0  0  0  0  0  0  0  0
  142.5990   81.1100  224.0390 Cl  0  0  0  0  0  0  0  0  0  0  0  0
  141.9450   80.0890  221.6060 C   0  0  0  0  0  0  0  0  0  0  0  0
  141.4420   79.1000  220.7830 C   0  0  0  0  0  0  0  0  0  0  0  0
  139.2280   70.4500  223.9880 C   0  0  0  0  0  0  0  0  0  0  0  0
  138.9040   69.1230  223.9870 C   0  0  0  0  0  0  0  0  0  0  0  0
  139.1810   68.3080  225.0590 C   0  0  0  0  0  0  0  0  0  0  0  0
  139.8050   68.8760  226.1560 C   0  0  0  0  0  0  0  0  0  0  0  0
  140.0840   68.0660  227.2330 C   0  0  0  0  0  0  0  0  0  0  0  0
  140.7070   68.6440  228.3210 C   0  0  0  0  0  0  0  0  0  0  0  0
  141.0190   69.9840  228.2860 C   0  0  0  0  0  0  0  0  0  0  0  0
  140.7400   70.7990  227.2100 C   0  0  0  0  0  0  0  0  0  0  0  0
  140.1180   70.2230  226.1210 C   0  0  0  0  0  0  0  0  0  0  0  0
  139.8340   70.9770  225.0680 N   0  0  0  0  0  0  0  0  0  0  0  0
  139.8860   72.9920  223.6000 H   0  0  0  0  0  0  0  0  0  0  0  0
  139.1608   72.8637  220.7029 H   0  0  0  0  0  0  0  0  0  0  0  0
  137.9898   73.8043  221.6931 H   0  0  0  0  0  0  0  0  0  0  0  0
  137.4830   75.6280  220.8041 H   0  0  0  0  0  0  0  0  0  0  0  0
  137.9365   76.2216  222.4327 H   0  0  0  0  0  0  0  0  0  0  0  0
  136.8890   77.9490  220.9479 H   0  0  0  0  0  0  0  0  0  0  0  0
  138.5704   78.3511  221.5507 H   0  0  0  0  0  0  0  0  0  0  0  0
  137.6525   77.6170  218.7958 H   0  0  0  0  0  0  0  0  0  0  0  0
  138.6092   79.0451  219.3915 H   0  0  0  0  0  0  0  0  0  0  0  0
  139.4760   76.3766  218.5682 H   0  0  0  0  0  0  0  0  0  0  0  0
  140.3534   77.9671  218.6462 H   0  0  0  0  0  0  0  0  0  0  0  0
  141.3572   76.3016  220.1376 H   0  0  0  0  0  0  0  0  0  0  0  0
  140.6156   76.7708  223.0532 H   0  0  0  0  0  0  0  0  0  0  0  0
  141.5158   78.5347  224.5403 H   0  0  0  0  0  0  0  0  0  0  0  0
  142.3196   81.0291  221.1750 H   0  0  0  0  0  0  0  0  0  0  0  0
  141.4287   79.2801  219.6979 H   0  0  0  0  0  0  0  0  0  0  0  0
  138.4076   68.6945  223.1038 H   0  0  0  0  0  0  0  0  0  0  0  0
  138.9156   67.2406  225.0453 H   0  0  0  0  0  0  0  0  0  0  0  0
  139.8205   66.9980  227.2272 H   0  0  0  0  0  0  0  0  0  0  0  0
  140.9516   68.0396  229.2070 H   0  0  0  0  0  0  0  0  0  0  0  0
  141.5164   70.4272  229.1613 H   0  0  0  0  0  0  0  0  0  0  0  0
  141.0029   71.8671  227.2190 H   0  0  0  0  0  0  0  0  0  0  0  0
  1  2  2  0
  2  3  1  0
  3  4  1  0
  4  5  1  0
  5  6  2  0
  5  7  1  0
  7  8  1  0
  8  9  1  0
  9 10  1  0
 10 11  1  0
 11 12  1  0
 12 13  1  0
 13 14  2  0
 14 15  1  0
 15 16  2  0
 16 17  1  0
 16 18  1  0
 18 19  2  0
  2 20  1  0
 20 21  2  0
 21 22  1  0
 22 23  2  0
 23 24  1  0
 24 25  2  0
 25 26  1  0
 26 27  2  0
 27 28  1  0
 28 29  2  0
 12  7  1  0
 19 13  1  0
 29 20  1  0
 28 23  1  0
  3 30  1  0
  4 31  1  0
  4 32  1  0
  8 33  1  0
  8 34  1  0
  9 35  1  0
  9 36  1  0
 10 37  1  0
 10 38  1  0
 11 39  1  0
 11 40  1  0
 12 41  1  6
 14 42  1  0
 15 43  1  0
 18 44  1  0
 19 45  1  0
 21 46  1  0
 22 47  1  0
 24 48  1  0
 25 49  1  0
 26 50  1  0
 27 51  1  0
M  END
>  <smiles>  (59) 
O=C(NCC(=O)N1CCCCC1c1ccc(Cl)cc1)c1ccc2ccccc2n1

>  <score_type>  (59) 
oracle

>  <origin>  (59) 
autodockgpu

>  <m_score__min__energy>  (59) 
-9.2200000000000006

>  <m_primary>  (59) 
energy

>  <rmsd>  (59) 
1.9556465623695123

>  <m_score__min__rmsd>  (59) 
1.9556465623695123

>  <meeko>  (59) 
{"free_energy": -8.86, "intermolecular_energy": -10.35, "internal_energy": -1.83, "cluster_size": 24, "cluster_id": 2, "rank_in_cluster": 15}

>  <energy>  (59) 
-8.68

>  <cluster_rmsd>  (59) 
0.85

>  <cluster>  (59) 
1

$$$$

     RDKit          3D

 51 54  0  0  0  0  0  0  0  0999 V2000
  138.5000   70.6300  221.7630 O   0  0  0  0  0  0  0  0  0  0  0  0
  138.9930   71.2580  222.7590 C   0  0  0  0  0  0  0  0  0  0  0  0
  139.1870   72.6580  222.6560 N   0  0  0  0  0  0  0  0  0  0  0  0
  138.8350   73.3660  221.4510 C   0  0  0  0  0  0  0  0  0  0  0  0
  138.6800   74.8090  221.7430 C   0  0  0  0  0  0  0  0  0  0  0  0
  137.6410   75.2400  222.3230 O   0  0  0  0  0  0  0  0  0  0  0  0
  139.6580   75.7850  221.4040 N   0  0  0  0  0  0  0  0  0  0  0  0
  139.9200   76.8190  222.3820 C   0  0  0  0  0  0  0  0  0  0  0  0
  141.0510   77.6790  221.8880 C   0  0  0  0  0  0  0  0  0  0  0  0
  140.8650   78.1880  220.4940 C   0  0  0  0  0  0  0  0  0  0  0  0
  140.2710   77.1660  219.5880 C   0  0  0  0  0  0  0  0  0  0  0  0
  140.3800   75.7770  220.1450 C   0  0  1  0  0  0  0  0  0  0  0  0
  141.7430   75.2460  220.2350 C   0  0  0  0  0  0  0  0  0  0  0  0
  141.9170   73.9820  220.7620 C   0  0  0  0  0  0  0  0  0  0  0  0
  143.1940   73.4290  220.8540 C   0  0  0  0  0  0  0  0  0  0  0  0
  144.3110   74.1040  220.4350 C   0  0  0  0  0  0  0  0  0  0  0  0
  145.8860   73.3770  220.5690 Cl  0  0  0  0  0  0  0  0  0  0  0  0
  144.1470   75.3600  219.9100 C   0  0  0  0  0  0  0  0  0  0  0  0
  142.8800   75.9050  219.8190 C   0  0  0  0  0  0  0  0  0  0  0  0
  139.3470   70.5290  223.9750 C   0  0  0  0  0  0  0  0  0  0  0  0
  139.1110   69.1870  224.0710 C   0  0  0  0  0  0  0  0  0  0  0  0
  139.4320   68.4720  225.2010 C   0  0  0  0  0  0  0  0  0  0  0  0
  140.0080   69.1590  226.2550 C   0  0  0  0  0  0  0  0  0  0  0  0
  140.3320   68.4500  227.3890 C   0  0  0  0  0  0  0  0  0  0  0  0
  140.9060   69.1460  228.4340 C   0  0  0  0  0  0  0  0  0  0  0  0
  141.1300   70.4980  228.3020 C   0  0  0  0  0  0  0  0  0  0  0  0
  140.8070   71.2110  227.1670 C   0  0  0  0  0  0  0  0  0  0  0  0
  140.2330   70.5180  226.1220 C   0  0  0  0  0  0  0  0  0  0  0  0
  139.9090   71.1720  225.0150 N   0  0  0  0  0  0  0  0  0  0  0  0
  139.5980   73.1290  223.5070 H   0  0  0  0  0  0  0  0  0  0  0  0
  139.6286   73.2284  220.7018 H   0  0  0  0  0  0  0  0  0  0  0  0
  137.8850   72.9705  221.0623 H   0  0  0  0  0  0  0  0  0  0  0  0
  139.0193   77.4355  222.5184 H   0  0  0  0  0  0  0  0  0  0  0  0
  140.1914   76.3620  223.3451 H   0  0  0  0  0  0  0  0  0  0  0  0
  141.1480   78.5432  222.5616 H   0  0  0  0  0  0  0  0  0  0  0  0
  141.9507   77.0462  221.8780 H   0  0  0  0  0  0  0  0  0  0  0  0
  140.1988   79.0628  220.5239 H   0  0  0  0  0  0  0  0  0  0  0  0
  141.8577   78.4488  220.0983 H   0  0  0  0  0  0  0  0  0  0  0  0
  139.2077   77.4035  219.4361 H   0  0  0  0  0  0  0  0  0  0  0  0
  140.8287   77.1926  218.6402 H   0  0  0  0  0  0  0  0  0  0  0  0
  139.9271   75.0611  219.4433 H   0  0  0  0  0  0  0  0  0  0  0  0
  141.0452   73.4089  221.1106 H   0  0  0  0  0  0  0  0  0  0  0  0
  143.3084   72.4196  221.2760 H   0  0  0  0  0  0  0  0  0  0  0  0
  145.0203   75.9316  219.5626 H   0  0  0  0  0  0  0  0  0  0  0  0
  142.7739   76.9139  219.3938 H   0  0  0  0  0  0  0  0  0  0  0  0
  138.6510   68.6632  223.2201 H   0  0  0  0  0  0  0  0  0  0  0  0
  139.2376   67.3912  225.2648 H   0  0  0  0  0  0  0  0  0  0  0  0
  140.1408   67.3691  227.4602 H   0  0  0  0  0  0  0  0  0  0  0  0
  141.1817   68.6255  229.3630 H   0  0  0  0  0  0  0  0  0  0  0  0
  141.5896   71.0362  229.1441 H   0  0  0  0  0  0  0  0  0  0  0  0
  140.9999   72.2917  227.0976 H   0  0  0  0  0  0  0  0  0  0  0  0
  1  2  2  0
  2  3  1  0
  3  4  1  0
  4  5  1  0
  5  6  2  0
  5  7  1  0
  7  8  1  0
  8  9  1  0
  9 10  1  0
 10 11  1  0
 11 12  1  0
 12 13  1  0
 13 14  2  0
 14 15  1  0
 15 16  2  0
 16 17  1  0
 16 18  1  0
 18 19  2  0
  2 20  1  0
 20 21  2  0
 21 22  1  0
 22 23  2  0
 23 24  1  0
 24 25  2  0
 25 26  1  0
 26 27  2  0
 27 28  1  0
 28 29  2  0
 12  7  1  0
 19 13  1  0
 29 20  1  0
 28 23  1  0
  3 30  1  0
  4 31  1  0
  4 32  1  0
  8 33  1  0
  8 34  1  0
  9 35  1  0
  9 36  1  0
 10 37  1  0
 10 38  1  0
 11 39  1  0
 11 40  1  0
 12 41  1  6
 14 42  1  0
 15 43  1  0
 18 44  1  0
 19 45  1  0
 21 46  1  0
 22 47  1  0
 24 48  1  0
 25 49  1  0
 26 50  1  0
 27 51  1  0
M  END
>  <smiles>  (60) 
O=C(NCC(=O)N1CCCCC1c1ccc(Cl)cc1)c1ccc2ccccc2n1

>  <score_type>  (60) 
oracle

>  <origin>  (60) 
autodockgpu

>  <m_score__min__energy>  (60) 
-9.2200000000000006

>  <m_primary>  (60) 
energy

>  <rmsd>  (60) 
2.376866913755467

>  <m_score__min__rmsd>  (60) 
2.376866913755467

>  <meeko>  (60) 
{"free_energy": -8.54, "intermolecular_energy": -10.03, "internal_energy": -1.69, "cluster_size": 10, "cluster_id": 3, "rank_in_cluster": 10}

>  <energy>  (60) 
-8.67

>  <cluster_rmsd>  (60) 
0.87

>  <cluster>  (60) 
1

$$$$

     RDKit          3D

 51 54  0  0  0  0  0  0  0  0999 V2000
  139.5260   71.0420  221.1960 O   0  0  0  0  0  0  0  0  0  0  0  0
  139.4730   71.5610  222.3600 C   0  0  0  0  0  0  0  0  0  0  0  0
  139.3190   72.9650  222.4750 N   0  0  0  0  0  0  0  0  0  0  0  0
  139.2240   73.7970  221.3010 C   0  0  0  0  0  0  0  0  0  0  0  0
  139.1770   75.2230  221.6980 C   0  0  0  0  0  0  0  0  0  0  0  0
  138.5900   75.5750  222.7630 O   0  0  0  0  0  0  0  0  0  0  0  0
  139.7690   76.2660  220.9350 N   0  0  0  0  0  0  0  0  0  0  0  0
  138.9060   76.9790  220.0170 C   0  0  0  0  0  0  0  0  0  0  0  0
  139.6840   78.1050  219.3930 C   0  0  0  0  0  0  0  0  0  0  0  0
  140.9920   77.6850  218.8020 C   0  0  0  0  0  0  0  0  0  0  0  0
  141.7010   76.6790  219.6400 C   0  0  0  0  0  0  0  0  0  0  0  0
  141.1690   76.6290  221.0430 C   0  0  1  0  0  0  0  0  0  0  0  0
  141.4230   77.8260  221.8490 C   0  0  0  0  0  0  0  0  0  0  0  0
  142.1930   78.8310  221.2980 C   0  0  0  0  0  0  0  0  0  0  0  0
  142.4490   79.9960  222.0210 C   0  0  0  0  0  0  0  0  0  0  0  0
  141.9580   80.1900  223.2860 C   0  0  0  0  0  0  0  0  0  0  0  0
  142.3030   81.6580  224.1530 Cl  0  0  0  0  0  0  0  0  0  0  0  0
  141.1930   79.1970  223.8400 C   0  0  0  0  0  0  0  0  0  0  0  0
  140.9400   78.0450  223.1210 C   0  0  0  0  0  0  0  0  0  0  0  0
  139.5720   70.7080  223.5420 C   0  0  0  0  0  0  0  0  0  0  0  0
  139.1390   69.4140  223.4990 C   0  0  0  0  0  0  0  0  0  0  0  0
  139.2180   68.5850  224.5940 C   0  0  0  0  0  0  0  0  0  0  0  0
  139.7550   69.1060  225.7590 C   0  0  0  0  0  0  0  0  0  0  0  0
  139.8360   68.2830  226.8580 C   0  0  0  0  0  0  0  0  0  0  0  0
  140.3730   68.8140  228.0140 C   0  0  0  0  0  0  0  0  0  0  0  0
  140.7990   70.1230  228.0210 C   0  0  0  0  0  0  0  0  0  0  0  0
  140.7180   70.9510  226.9210 C   0  0  0  0  0  0  0  0  0  0  0  0
  140.1820   70.4220  225.7650 C   0  0  0  0  0  0  0  0  0  0  0  0
  140.0890   71.1890  224.6880 N   0  0  0  0  0  0  0  0  0  0  0  0
  139.2810   73.3450  223.4590 H   0  0  0  0  0  0  0  0  0  0  0  0
  140.1013   73.6253  220.6600 H   0  0  0  0  0  0  0  0  0  0  0  0
  138.3064   73.5434  220.7499 H   0  0  0  0  0  0  0  0  0  0  0  0
  138.5548   76.2932  219.2320 H   0  0  0  0  0  0  0  0  0  0  0  0
  138.0369   77.3811  220.5582 H   0  0  0  0  0  0  0  0  0  0  0  0
  139.0705   78.5492  218.5953 H   0  0  0  0  0  0  0  0  0  0  0  0
  139.9126   78.8189  220.1980 H   0  0  0  0  0  0  0  0  0  0  0  0
  140.8065   77.2491  217.8093 H   0  0  0  0  0  0  0  0  0  0  0  0
  141.6318   78.5776  218.7394 H   0  0  0  0  0  0  0  0  0  0  0  0
  141.5798   75.6871  219.1802 H   0  0  0  0  0  0  0  0  0  0  0  0
  142.7602   76.9711  219.6921 H   0  0  0  0  0  0  0  0  0  0  0  0
  141.7204   75.8730  221.6213 H   0  0  0  0  0  0  0  0  0  0  0  0
  142.6059   78.7125  220.2854 H   0  0  0  0  0  0  0  0  0  0  0  0
  143.0642   80.7838  221.5617 H   0  0  0  0  0  0  0  0  0  0  0  0
  140.7820   79.3169  224.8533 H   0  0  0  0  0  0  0  0  0  0  0  0
  140.3221   77.2633  223.5870 H   0  0  0  0  0  0  0  0  0  0  0  0
  138.7150   69.0232  222.5623 H   0  0  0  0  0  0  0  0  0  0  0  0
  138.8665   67.5438  224.5457 H   0  0  0  0  0  0  0  0  0  0  0  0
  139.4861   67.2409  226.8176 H   0  0  0  0  0  0  0  0  0  0  0  0
  140.4595   68.1970  228.9205 H   0  0  0  0  0  0  0  0  0  0  0  0
  141.2253   70.5289  228.9503 H   0  0  0  0  0  0  0  0  0  0  0  0
  141.0673   71.9932  226.9637 H   0  0  0  0  0  0  0  0  0  0  0  0
  1  2  2  0
  2  3  1  0
  3  4  1  0
  4  5  1  0
  5  6  2  0
  5  7  1  0
  7  8  1  0
  8  9  1  0
  9 10  1  0
 10 11  1  0
 11 12  1  0
 12 13  1  0
 13 14  2  0
 14 15  1  0
 15 16  2  0
 16 17  1  0
 16 18  1  0
 18 19  2  0
  2 20  1  0
 20 21  2  0
 21 22  1  0
 22 23  2  0
 23 24  1  0
 24 25  2  0
 25 26  1  0
 26 27  2  0
 27 28  1  0
 28 29  2  0
 12  7  1  0
 19 13  1  0
 29 20  1  0
 28 23  1  0
  3 30  1  0
  4 31  1  0
  4 32  1  0
  8 33  1  0
  8 34  1  0
  9 35  1  0
  9 36  1  0
 10 37  1  0
 10 38  1  0
 11 39  1  0
 11 40  1  0
 12 41  1  1
 14 42  1  0
 15 43  1  0
 18 44  1  0
 19 45  1  0
 21 46  1  0
 22 47  1  0
 24 48  1  0
 25 49  1  0
 26 50  1  0
 27 51  1  0
M  END
>  <smiles>  (61) 
O=C(NCC(=O)N1CCCCC1c1ccc(Cl)cc1)c1ccc2ccccc2n1

>  <score_type>  (61) 
oracle

>  <origin>  (61) 
autodockgpu

>  <m_score__min__energy>  (61) 
-9.2200000000000006

>  <m_primary>  (61) 
energy

>  <rmsd>  (61) 
1.5479149394885428

>  <m_score__min__rmsd>  (61) 
1.5479149394885428

>  <meeko>  (61) 
{"free_energy": -8.56, "intermolecular_energy": -10.05, "internal_energy": -1.68, "cluster_size": 24, "cluster_id": 2, "rank_in_cluster": 24}

>  <energy>  (61) 
-8.67

>  <cluster_rmsd>  (61) 
0.9

>  <cluster>  (61) 
1

$$$$

     RDKit          3D

 51 54  0  0  0  0  0  0  0  0999 V2000
  140.6710   71.8080  221.5220 O   0  0  0  0  0  0  0  0  0  0  0  0
  139.8580   72.0730  222.4690 C   0  0  0  0  0  0  0  0  0  0  0  0
  138.9090   73.1090  222.2830 N   0  0  0  0  0  0  0  0  0  0  0  0
  138.8570   73.8520  221.0490 C   0  0  0  0  0  0  0  0  0  0  0  0
  138.7770   75.3020  221.3380 C   0  0  0  0  0  0  0  0  0  0  0  0
  137.6840   75.8250  221.7050 O   0  0  0  0  0  0  0  0  0  0  0  0
  139.8870   76.1830  221.2270 N   0  0  0  0  0  0  0  0  0  0  0  0
  140.1410   77.0640  222.3480 C   0  0  0  0  0  0  0  0  0  0  0  0
  141.4090   77.8300  222.0870 C   0  0  0  0  0  0  0  0  0  0  0  0
  141.4460   78.5080  220.7540 C   0  0  0  0  0  0  0  0  0  0  0  0
  140.8570   77.6730  219.6720 C   0  0  0  0  0  0  0  0  0  0  0  0
  140.7490   76.2280  220.0600 C   0  0  1  0  0  0  0  0  0  0  0  0
  142.0260   75.5290  220.2270 C   0  0  0  0  0  0  0  0  0  0  0  0
  142.0040   74.2350  220.7060 C   0  0  0  0  0  0  0  0  0  0  0  0
  143.1930   73.5250  220.8680 C   0  0  0  0  0  0  0  0  0  0  0  0
  144.4130   74.0710  220.5650 C   0  0  0  0  0  0  0  0  0  0  0  0
  145.8730   73.1500  220.7830 Cl  0  0  0  0  0  0  0  0  0  0  0  0
  144.4440   75.3560  220.0890 C   0  0  0  0  0  0  0  0  0  0  0  0
  143.2650   76.0570  219.9290 C   0  0  0  0  0  0  0  0  0  0  0  0
  139.9210   71.3140  223.7160 C   0  0  0  0  0  0  0  0  0  0  0  0
  139.4700   70.0260  223.7650 C   0  0  0  0  0  0  0  0  0  0  0  0
  139.5150   69.2850  224.9230 C   0  0  0  0  0  0  0  0  0  0  0  0
  140.0370   69.8880  226.0540 C   0  0  0  0  0  0  0  0  0  0  0  0
  140.0850   69.1530  227.2150 C   0  0  0  0  0  0  0  0  0  0  0  0
  140.6080   69.7650  228.3370 C   0  0  0  0  0  0  0  0  0  0  0  0
  141.0530   71.0640  228.2500 C   0  0  0  0  0  0  0  0  0  0  0  0
  141.0060   71.8050  227.0880 C   0  0  0  0  0  0  0  0  0  0  0  0
  140.4840   71.1950  225.9660 C   0  0  0  0  0  0  0  0  0  0  0  0
  140.4240   71.8760  224.8310 N   0  0  0  0  0  0  0  0  0  0  0  0
  138.2600   73.2900  223.0970 H   0  0  0  0  0  0  0  0  0  0  0  0
  139.7636   73.6466  220.4609 H   0  0  0  0  0  0  0  0  0  0  0  0
  137.9673   73.5463  220.4789 H   0  0  0  0  0  0  0  0  0  0  0  0
  139.3023   77.7663  222.4634 H   0  0  0  0  0  0  0  0  0  0  0  0
  140.2449   76.4737  223.2704 H   0  0  0  0  0  0  0  0  0  0  0  0
  141.5171   78.5967  222.8683 H   0  0  0  0  0  0  0  0  0  0  0  0
  142.2305   77.0985  222.0953 H   0  0  0  0  0  0  0  0  0  0  0  0
  140.8798   79.4487  220.8211 H   0  0  0  0  0  0  0  0  0  0  0  0
  142.5011   78.6875  220.5001 H   0  0  0  0  0  0  0  0  0  0  0  0
  139.8509   78.0528  219.4405 H   0  0  0  0  0  0  0  0  0  0  0  0
  141.5226   77.7371  218.7986 H   0  0  0  0  0  0  0  0  0  0  0  0
  140.3091   75.6551  219.2304 H   0  0  0  0  0  0  0  0  0  0  0  0
  141.0444   73.7617  220.9611 H   0  0  0  0  0  0  0  0  0  0  0  0
  143.1505   72.4947  221.2509 H   0  0  0  0  0  0  0  0  0  0  0  0
  145.4050   75.8274  219.8353 H   0  0  0  0  0  0  0  0  0  0  0  0
  143.3164   77.0866  219.5452 H   0  0  0  0  0  0  0  0  0  0  0  0
  139.0593   69.5683  222.8530 H   0  0  0  0  0  0  0  0  0  0  0  0
  139.1485   68.2482  224.9492 H   0  0  0  0  0  0  0  0  0  0  0  0
  139.7203   68.1158  227.2488 H   0  0  0  0  0  0  0  0  0  0  0  0
  140.6682   69.2196  229.2904 H   0  0  0  0  0  0  0  0  0  0  0  0
  141.4673   71.5355  229.1534 H   0  0  0  0  0  0  0  0  0  0  0  0
  141.3706   72.8423  227.0568 H   0  0  0  0  0  0  0  0  0  0  0  0
  1  2  2  0
  2  3  1  0
  3  4  1  0
  4  5  1  0
  5  6  2  0
  5  7  1  0
  7  8  1  0
  8  9  1  0
  9 10  1  0
 10 11  1  0
 11 12  1  0
 12 13  1  0
 13 14  2  0
 14 15  1  0
 15 16  2  0
 16 17  1  0
 16 18  1  0
 18 19  2  0
  2 20  1  0
 20 21  2  0
 21 22  1  0
 22 23  2  0
 23 24  1  0
 24 25  2  0
 25 26  1  0
 26 27  2  0
 27 28  1  0
 28 29  2  0
 12  7  1  0
 19 13  1  0
 29 20  1  0
 28 23  1  0
  3 30  1  0
  4 31  1  0
  4 32  1  0
  8 33  1  0
  8 34  1  0
  9 35  1  0
  9 36  1  0
 10 37  1  0
 10 38  1  0
 11 39  1  0
 11 40  1  0
 12 41  1  6
 14 42  1  0
 15 43  1  0
 18 44  1  0
 19 45  1  0
 21 46  1  0
 22 47  1  0
 24 48  1  0
 25 49  1  0
 26 50  1  0
 27 51  1  0
M  END
>  <smiles>  (62) 
O=C(NCC(=O)N1CCCCC1c1ccc(Cl)cc1)c1ccc2ccccc2n1

>  <score_type>  (62) 
oracle

>  <origin>  (62) 
autodockgpu

>  <m_score__min__energy>  (62) 
-9.2200000000000006

>  <m_primary>  (62) 
energy

>  <rmsd>  (62) 
2.471289444180712

>  <m_score__min__rmsd>  (62) 
2.471289444180712

>  <meeko>  (62) 
{"free_energy": -8.88, "intermolecular_energy": -10.37, "internal_energy": -1.67, "cluster_size": 10, "cluster_id": 3, "rank_in_cluster": 1}

>  <energy>  (62) 
-8.67

>  <cluster_rmsd>  (62) 
0.89

>  <cluster>  (62) 
1

$$$$

     RDKit          3D

 51 54  0  0  0  0  0  0  0  0999 V2000
  138.6770   70.5580  221.6740 O   0  0  0  0  0  0  0  0  0  0  0  0
  139.1060   71.1000  222.7460 C   0  0  0  0  0  0  0  0  0  0  0  0
  139.3310   72.4990  222.7610 N   0  0  0  0  0  0  0  0  0  0  0  0
  139.0800   73.3010  221.5900 C   0  0  0  0  0  0  0  0  0  0  0  0
  139.8500   74.5630  221.6710 C   0  0  0  0  0  0  0  0  0  0  0  0
  141.1070   74.5420  221.8190 O   0  0  0  0  0  0  0  0  0  0  0  0
  139.2510   75.8510  221.5920 N   0  0  0  0  0  0  0  0  0  0  0  0
  138.0510   76.0650  222.3720 C   0  0  0  0  0  0  0  0  0  0  0  0
  137.6380   77.5060  222.2420 C   0  0  0  0  0  0  0  0  0  0  0  0
  137.5440   77.9870  220.8280 C   0  0  0  0  0  0  0  0  0  0  0  0
  138.6400   77.4570  219.9710 C   0  0  0  0  0  0  0  0  0  0  0  0
  139.7880   76.9240  220.7770 C   0  0  1  0  0  0  0  0  0  0  0  0
  140.5430   77.9320  221.5280 C   0  0  0  0  0  0  0  0  0  0  0  0
  141.0010   77.5980  222.7870 C   0  0  0  0  0  0  0  0  0  0  0  0
  141.7350   78.5190  223.5340 C   0  0  0  0  0  0  0  0  0  0  0  0
  142.0290   79.7700  223.0600 C   0  0  0  0  0  0  0  0  0  0  0  0
  142.9490   80.8880  224.0260 Cl  0  0  0  0  0  0  0  0  0  0  0  0
  141.5790   80.1090  221.8110 C   0  0  0  0  0  0  0  0  0  0  0  0
  140.8520   79.1960  221.0730 C   0  0  0  0  0  0  0  0  0  0  0  0
  139.3580   70.2770  223.9270 C   0  0  0  0  0  0  0  0  0  0  0  0
  138.9880   68.9620  223.9450 C   0  0  0  0  0  0  0  0  0  0  0  0
  139.2110   68.1600  225.0400 C   0  0  0  0  0  0  0  0  0  0  0  0
  139.8270   68.7300  226.1410 C   0  0  0  0  0  0  0  0  0  0  0  0
  140.0520   67.9350  227.2400 C   0  0  0  0  0  0  0  0  0  0  0  0
  140.6680   68.5140  228.3310 C   0  0  0  0  0  0  0  0  0  0  0  0
  141.0260   69.8420  228.2780 C   0  0  0  0  0  0  0  0  0  0  0  0
  140.8020   70.6420  227.1780 C   0  0  0  0  0  0  0  0  0  0  0  0
  140.1870   70.0650  226.0860 C   0  0  0  0  0  0  0  0  0  0  0  0
  139.9550   70.8050  225.0110 N   0  0  0  0  0  0  0  0  0  0  0  0
  139.6870   72.8980  223.6720 H   0  0  0  0  0  0  0  0  0  0  0  0
  139.3867   72.7432  220.6929 H   0  0  0  0  0  0  0  0  0  0  0  0
  138.0065   73.5340  221.5330 H   0  0  0  0  0  0  0  0  0  0  0  0
  137.2464   75.4148  221.9982 H   0  0  0  0  0  0  0  0  0  0  0  0
  138.2444   75.8257  223.4281 H   0  0  0  0  0  0  0  0  0  0  0  0
  136.6523   77.6273  222.7149 H   0  0  0  0  0  0  0  0  0  0  0  0
  138.4192   78.1064  222.7312 H   0  0  0  0  0  0  0  0  0  0  0  0
  136.5802   77.6628  220.4085 H   0  0  0  0  0  0  0  0  0  0  0  0
  137.6311   79.0835  220.8417 H   0  0  0  0  0  0  0  0  0  0  0  0
  138.2392   76.6448  219.3467 H   0  0  0  0  0  0  0  0  0  0  0  0
  139.0178   78.2877  219.3569 H   0  0  0  0  0  0  0  0  0  0  0  0
  140.5683   76.5430  220.1017 H   0  0  0  0  0  0  0  0  0  0  0  0
  140.7863   76.6023  223.2022 H   0  0  0  0  0  0  0  0  0  0  0  0
  142.0889   78.2318  224.5351 H   0  0  0  0  0  0  0  0  0  0  0  0
  141.7961   81.1050  221.3976 H   0  0  0  0  0  0  0  0  0  0  0  0
  140.5023   79.4919  220.0729 H   0  0  0  0  0  0  0  0  0  0  0  0
  138.4979   68.5325  223.0588 H   0  0  0  0  0  0  0  0  0  0  0  0
  138.9102   67.1019  225.0408 H   0  0  0  0  0  0  0  0  0  0  0  0
  139.7522   66.8767  227.2494 H   0  0  0  0  0  0  0  0  0  0  0  0
  140.8709   67.9198  229.2342 H   0  0  0  0  0  0  0  0  0  0  0  0
  141.5151   70.2870  229.1571 H   0  0  0  0  0  0  0  0  0  0  0  0
  141.1022   71.7002  227.1711 H   0  0  0  0  0  0  0  0  0  0  0  0
  1  2  2  0
  2  3  1  0
  3  4  1  0
  4  5  1  0
  5  6  2  0
  5  7  1  0
  7  8  1  0
  8  9  1  0
  9 10  1  0
 10 11  1  0
 11 12  1  0
 12 13  1  0
 13 14  2  0
 14 15  1  0
 15 16  2  0
 16 17  1  0
 16 18  1  0
 18 19  2  0
  2 20  1  0
 20 21  2  0
 21 22  1  0
 22 23  2  0
 23 24  1  0
 24 25  2  0
 25 26  1  0
 26 27  2  0
 27 28  1  0
 28 29  2  0
 12  7  1  0
 19 13  1  0
 29 20  1  0
 28 23  1  0
  3 30  1  0
  4 31  1  0
  4 32  1  0
  8 33  1  0
  8 34  1  0
  9 35  1  0
  9 36  1  0
 10 37  1  0
 10 38  1  0
 11 39  1  0
 11 40  1  0
 12 41  1  6
 14 42  1  0
 15 43  1  0
 18 44  1  0
 19 45  1  0
 21 46  1  0
 22 47  1  0
 24 48  1  0
 25 49  1  0
 26 50  1  0
 27 51  1  0
M  END
>  <smiles>  (63) 
O=C(NCC(=O)N1CCCCC1c1ccc(Cl)cc1)c1ccc2ccccc2n1

>  <score_type>  (63) 
oracle

>  <origin>  (63) 
autodockgpu

>  <m_score__min__energy>  (63) 
-9.2200000000000006

>  <m_primary>  (63) 
energy

>  <rmsd>  (63) 
2.4902404840554384

>  <m_score__min__rmsd>  (63) 
2.4902404840554384

>  <meeko>  (63) 
{"free_energy": -9.01, "intermolecular_energy": -10.5, "internal_energy": -1.67, "cluster_size": 24, "cluster_id": 2, "rank_in_cluster": 4}

>  <energy>  (63) 
-8.67

>  <cluster_rmsd>  (63) 
0.89

>  <cluster>  (63) 
1

$$$$

     RDKit          3D

 51 54  0  0  0  0  0  0  0  0999 V2000
  138.6230   72.2990  222.0990 O   0  0  0  0  0  0  0  0  0  0  0  0
  139.7740   72.0090  222.5660 C   0  0  0  0  0  0  0  0  0  0  0  0
  140.9250   72.4470  221.8650 N   0  0  0  0  0  0  0  0  0  0  0  0
  140.8040   73.2090  220.6470 C   0  0  0  0  0  0  0  0  0  0  0  0
  141.2010   74.6140  220.8920 C   0  0  0  0  0  0  0  0  0  0  0  0
  142.4210   74.9520  220.8610 O   0  0  0  0  0  0  0  0  0  0  0  0
  140.2700   75.6520  221.1700 N   0  0  0  0  0  0  0  0  0  0  0  0
  139.1730   75.3300  222.0570 C   0  0  0  0  0  0  0  0  0  0  0  0
  138.3710   76.5770  222.3120 C   0  0  0  0  0  0  0  0  0  0  0  0
  137.9600   77.2990  221.0680 C   0  0  0  0  0  0  0  0  0  0  0  0
  139.0330   77.3150  220.0360 C   0  0  0  0  0  0  0  0  0  0  0  0
  140.3810   76.9850  220.6080 C   0  0  1  0  0  0  0  0  0  0  0  0
  140.9270   77.9850  221.5290 C   0  0  0  0  0  0  0  0  0  0  0  0
  141.2020   79.2450  221.0350 C   0  0  0  0  0  0  0  0  0  0  0  0
  141.7100   80.2340  221.8780 C   0  0  0  0  0  0  0  0  0  0  0  0
  141.9550   80.0030  223.2060 C   0  0  0  0  0  0  0  0  0  0  0  0
  142.5910   81.2650  224.2210 Cl  0  0  0  0  0  0  0  0  0  0  0  0
  141.6860   78.7540  223.7040 C   0  0  0  0  0  0  0  0  0  0  0  0
  141.1820   77.7770  222.8680 C   0  0  0  0  0  0  0  0  0  0  0  0
  139.8840   71.2350  223.8000 C   0  0  0  0  0  0  0  0  0  0  0  0
  139.4850   69.9300  223.8370 C   0  0  0  0  0  0  0  0  0  0  0  0
  139.5760   69.1750  224.9830 C   0  0  0  0  0  0  0  0  0  0  0  0
  140.0880   69.7830  226.1160 C   0  0  0  0  0  0  0  0  0  0  0  0
  140.1810   69.0340  227.2670 C   0  0  0  0  0  0  0  0  0  0  0  0
  140.6930   69.6520  228.3900 C   0  0  0  0  0  0  0  0  0  0  0  0
  141.0850   70.9690  228.3160 C   0  0  0  0  0  0  0  0  0  0  0  0
  140.9930   71.7230  227.1650 C   0  0  0  0  0  0  0  0  0  0  0  0
  140.4810   71.1080  226.0410 C   0  0  0  0  0  0  0  0  0  0  0  0
  140.3780   71.8020  224.9170 N   0  0  0  0  0  0  0  0  0  0  0  0
  141.8530   72.1800  222.2920 H   0  0  0  0  0  0  0  0  0  0  0  0
  141.4585   72.7736  219.8775 H   0  0  0  0  0  0  0  0  0  0  0  0
  139.7591   73.1817  220.3042 H   0  0  0  0  0  0  0  0  0  0  0  0
  138.5320   74.5677  221.5901 H   0  0  0  0  0  0  0  0  0  0  0  0
  139.5646   74.9377  223.0071 H   0  0  0  0  0  0  0  0  0  0  0  0
  137.4628   76.2973  222.8661 H   0  0  0  0  0  0  0  0  0  0  0  0
  139.0181   77.2620  222.8794 H   0  0  0  0  0  0  0  0  0  0  0  0
  137.0739   76.8008  220.6476 H   0  0  0  0  0  0  0  0  0  0  0  0
  137.7457   78.3423  221.3429 H   0  0  0  0  0  0  0  0  0  0  0  0
  138.7878   76.5752  219.2597 H   0  0  0  0  0  0  0  0  0  0  0  0
  139.0844   78.3324  219.6209 H   0  0  0  0  0  0  0  0  0  0  0  0
  141.1376   77.0055  219.8098 H   0  0  0  0  0  0  0  0  0  0  0  0
  141.0200   79.4696  219.9737 H   0  0  0  0  0  0  0  0  0  0  0  0
  141.9205   81.2308  221.4632 H   0  0  0  0  0  0  0  0  0  0  0  0
  141.8709   78.5311  224.7652 H   0  0  0  0  0  0  0  0  0  0  0  0
  140.9736   76.7834  223.2915 H   0  0  0  0  0  0  0  0  0  0  0  0
  139.0792   69.4692  222.9243 H   0  0  0  0  0  0  0  0  0  0  0  0
  139.2528   68.1237  224.9985 H   0  0  0  0  0  0  0  0  0  0  0  0
  139.8594   67.9823  227.2910 H   0  0  0  0  0  0  0  0  0  0  0  0
  140.7868   69.0970  229.3351 H   0  0  0  0  0  0  0  0  0  0  0  0
  141.4923   71.4443  229.2205 H   0  0  0  0  0  0  0  0  0  0  0  0
  141.3154   72.7745  227.1438 H   0  0  0  0  0  0  0  0  0  0  0  0
  1  2  2  0
  2  3  1  0
  3  4  1  0
  4  5  1  0
  5  6  2  0
  5  7  1  0
  7  8  1  0
  8  9  1  0
  9 10  1  0
 10 11  1  0
 11 12  1  0
 12 13  1  0
 13 14  2  0
 14 15  1  0
 15 16  2  0
 16 17  1  0
 16 18  1  0
 18 19  2  0
  2 20  1  0
 20 21  2  0
 21 22  1  0
 22 23  2  0
 23 24  1  0
 24 25  2  0
 25 26  1  0
 26 27  2  0
 27 28  1  0
 28 29  2  0
 12  7  1  0
 19 13  1  0
 29 20  1  0
 28 23  1  0
  3 30  1  0
  4 31  1  0
  4 32  1  0
  8 33  1  0
  8 34  1  0
  9 35  1  0
  9 36  1  0
 10 37  1  0
 10 38  1  0
 11 39  1  0
 11 40  1  0
 12 41  1  6
 14 42  1  0
 15 43  1  0
 18 44  1  0
 19 45  1  0
 21 46  1  0
 22 47  1  0
 24 48  1  0
 25 49  1  0
 26 50  1  0
 27 51  1  0
M  END
>  <smiles>  (64) 
O=C(NCC(=O)N1CCCCC1c1ccc(Cl)cc1)c1ccc2ccccc2n1

>  <score_type>  (64) 
oracle

>  <origin>  (64) 
autodockgpu

>  <m_score__min__energy>  (64) 
-9.2200000000000006

>  <m_primary>  (64) 
energy

>  <rmsd>  (64) 
2.5515802009738993

>  <m_score__min__rmsd>  (64) 
2.5515802009738993

>  <meeko>  (64) 
{"free_energy": -8.68, "intermolecular_energy": -10.17, "internal_energy": -1.52, "cluster_size": 24, "cluster_id": 2, "rank_in_cluster": 20}

>  <energy>  (64) 
-8.66

>  <cluster_rmsd>  (64) 
0.89

>  <cluster>  (64) 
1

$$$$

     RDKit          3D

 51 54  0  0  0  0  0  0  0  0999 V2000
  140.4020   71.5650  221.3890 O   0  0  0  0  0  0  0  0  0  0  0  0
  139.6930   71.9190  222.3880 C   0  0  0  0  0  0  0  0  0  0  0  0
  138.7550   72.9690  222.2210 N   0  0  0  0  0  0  0  0  0  0  0  0
  138.6020   73.6290  220.9480 C   0  0  0  0  0  0  0  0  0  0  0  0
  138.4530   75.0870  221.1530 C   0  0  0  0  0  0  0  0  0  0  0  0
  137.3030   75.6140  221.2170 O   0  0  0  0  0  0  0  0  0  0  0  0
  139.5560   75.9740  221.2870 N   0  0  0  0  0  0  0  0  0  0  0  0
  139.7520   76.5850  222.5850 C   0  0  0  0  0  0  0  0  0  0  0  0
  141.0210   77.3940  222.5550 C   0  0  0  0  0  0  0  0  0  0  0  0
  141.1040   78.3510  221.4080 C   0  0  0  0  0  0  0  0  0  0  0  0
  140.5710   77.7740  220.1440 C   0  0  0  0  0  0  0  0  0  0  0  0
  140.4640   76.2780  220.1980 C   0  0  1  0  0  0  0  0  0  0  0  0
  141.7430   75.5640  220.2610 C   0  0  0  0  0  0  0  0  0  0  0  0
  141.7470   74.2810  220.7710 C   0  0  0  0  0  0  0  0  0  0  0  0
  142.9380   73.5570  220.8380 C   0  0  0  0  0  0  0  0  0  0  0  0
  144.1310   74.0770  220.4090 C   0  0  0  0  0  0  0  0  0  0  0  0
  145.5920   73.1380  220.5110 Cl  0  0  0  0  0  0  0  0  0  0  0  0
  144.1340   75.3500  219.9010 C   0  0  0  0  0  0  0  0  0  0  0  0
  142.9540   76.0650  219.8350 C   0  0  0  0  0  0  0  0  0  0  0  0
  139.8580   71.2440  223.6730 C   0  0  0  0  0  0  0  0  0  0  0  0
  139.4980   69.9350  223.8180 C   0  0  0  0  0  0  0  0  0  0  0  0
  139.6410   69.2700  225.0140 C   0  0  0  0  0  0  0  0  0  0  0  0
  140.1650   69.9760  226.0830 C   0  0  0  0  0  0  0  0  0  0  0  0
  140.3100   69.3180  227.2830 C   0  0  0  0  0  0  0  0  0  0  0  0
  140.8340   70.0320  228.3420 C   0  0  0  0  0  0  0  0  0  0  0  0
  141.1850   71.3500  228.1600 C   0  0  0  0  0  0  0  0  0  0  0  0
  141.0410   72.0120  226.9590 C   0  0  0  0  0  0  0  0  0  0  0  0
  140.5180   71.3010  225.8990 C   0  0  0  0  0  0  0  0  0  0  0  0
  140.3650   71.9060  224.7290 N   0  0  0  0  0  0  0  0  0  0  0  0
  138.1930   73.2250  223.0780 H   0  0  0  0  0  0  0  0  0  0  0  0
  139.4900   73.4364  220.3279 H   0  0  0  0  0  0  0  0  0  0  0  0
  137.7054   73.2401  220.4431 H   0  0  0  0  0  0  0  0  0  0  0  0
  138.9005   77.2418  222.8166 H   0  0  0  0  0  0  0  0  0  0  0  0
  139.8246   75.8052  223.3575 H   0  0  0  0  0  0  0  0  0  0  0  0
  141.0875   77.9685  223.4907 H   0  0  0  0  0  0  0  0  0  0  0  0
  141.8506   76.6815  222.4364 H   0  0  0  0  0  0  0  0  0  0  0  0
  140.5232   79.2513  221.6572 H   0  0  0  0  0  0  0  0  0  0  0  0
  142.1662   78.5866  221.2458 H   0  0  0  0  0  0  0  0  0  0  0  0
  139.5710   78.1931  219.9585 H   0  0  0  0  0  0  0  0  0  0  0  0
  141.2722   78.0310  219.3363 H   0  0  0  0  0  0  0  0  0  0  0  0
  140.0648   75.9006  219.2450 H   0  0  0  0  0  0  0  0  0  0  0  0
  140.8091   73.8285  221.1253 H   0  0  0  0  0  0  0  0  0  0  0  0
  142.9186   72.5365  221.2482 H   0  0  0  0  0  0  0  0  0  0  0  0
  145.0729   75.8007  219.5471 H   0  0  0  0  0  0  0  0  0  0  0  0
  142.9823   77.0842  219.4222 H   0  0  0  0  0  0  0  0  0  0  0  0
  139.0817   69.3966  222.9538 H   0  0  0  0  0  0  0  0  0  0  0  0
  139.3492   68.2144  225.1170 H   0  0  0  0  0  0  0  0  0  0  0  0
  140.0193   68.2629  227.3942 H   0  0  0  0  0  0  0  0  0  0  0  0
  140.9697   69.5517  229.3223 H   0  0  0  0  0  0  0  0  0  0  0  0
  141.6011   71.9030  229.0150 H   0  0  0  0  0  0  0  0  0  0  0  0
  141.3322   73.0672  226.8503 H   0  0  0  0  0  0  0  0  0  0  0  0
  1  2  2  0
  2  3  1  0
  3  4  1  0
  4  5  1  0
  5  6  2  0
  5  7  1  0
  7  8  1  0
  8  9  1  0
  9 10  1  0
 10 11  1  0
 11 12  1  0
 12 13  1  0
 13 14  2  0
 14 15  1  0
 15 16  2  0
 16 17  1  0
 16 18  1  0
 18 19  2  0
  2 20  1  0
 20 21  2  0
 21 22  1  0
 22 23  2  0
 23 24  1  0
 24 25  2  0
 25 26  1  0
 26 27  2  0
 27 28  1  0
 28 29  2  0
 12  7  1  0
 19 13  1  0
 29 20  1  0
 28 23  1  0
  3 30  1  0
  4 31  1  0
  4 32  1  0
  8 33  1  0
  8 34  1  0
  9 35  1  0
  9 36  1  0
 10 37  1  0
 10 38  1  0
 11 39  1  0
 11 40  1  0
 12 41  1  6
 14 42  1  0
 15 43  1  0
 18 44  1  0
 19 45  1  0
 21 46  1  0
 22 47  1  0
 24 48  1  0
 25 49  1  0
 26 50  1  0
 27 51  1  0
M  END
>  <smiles>  (65) 
O=C(NCC(=O)N1CCCCC1c1ccc(Cl)cc1)c1ccc2ccccc2n1

>  <score_type>  (65) 
oracle

>  <origin>  (65) 
autodockgpu

>  <m_score__min__energy>  (65) 
-9.2200000000000006

>  <m_primary>  (65) 
energy

>  <rmsd>  (65) 
2.553312339067267

>  <m_score__min__rmsd>  (65) 
2.553312339067267

>  <meeko>  (65) 
{"free_energy": -8.69, "intermolecular_energy": -10.19, "internal_energy": -1.81, "cluster_size": 10, "cluster_id": 3, "rank_in_cluster": 5}

>  <energy>  (65) 
-8.61

>  <cluster_rmsd>  (65) 
0.89

>  <cluster>  (65) 
1

$$$$

     RDKit          3D

 51 54  0  0  0  0  0  0  0  0999 V2000
  139.4720   71.0680  221.4510 O   0  0  0  0  0  0  0  0  0  0  0  0
  139.5690   71.6700  222.5710 C   0  0  0  0  0  0  0  0  0  0  0  0
  139.5090   73.0860  222.5930 N   0  0  0  0  0  0  0  0  0  0  0  0
  139.3420   73.8380  221.3750 C   0  0  0  0  0  0  0  0  0  0  0  0
  139.2450   75.2820  221.6860 C   0  0  0  0  0  0  0  0  0  0  0  0
  138.6380   75.6770  222.7250 O   0  0  0  0  0  0  0  0  0  0  0  0
  139.8070   76.2990  220.8650 N   0  0  0  0  0  0  0  0  0  0  0  0
  138.9140   76.9630  219.9390 C   0  0  0  0  0  0  0  0  0  0  0  0
  139.6650   78.0690  219.2490 C   0  0  0  0  0  0  0  0  0  0  0  0
  140.9640   77.6360  218.6450 C   0  0  0  0  0  0  0  0  0  0  0  0
  141.7030   76.6750  219.5080 C   0  0  0  0  0  0  0  0  0  0  0  0
  141.2060   76.6790  220.9240 C   0  0  1  0  0  0  0  0  0  0  0  0
  141.4650   77.9120  221.6720 C   0  0  0  0  0  0  0  0  0  0  0  0
  141.2440   77.9060  223.0350 C   0  0  0  0  0  0  0  0  0  0  0  0
  141.4890   79.0530  223.7900 C   0  0  0  0  0  0  0  0  0  0  0  0
  141.9520   80.2120  223.2250 C   0  0  0  0  0  0  0  0  0  0  0  0
  142.2440   81.6190  224.2060 Cl  0  0  0  0  0  0  0  0  0  0  0  0
  142.1730   80.2260  221.8720 C   0  0  0  0  0  0  0  0  0  0  0  0
  141.9300   79.0900  221.1260 C   0  0  0  0  0  0  0  0  0  0  0  0
  139.7390   70.8970  223.7990 C   0  0  0  0  0  0  0  0  0  0  0  0
  139.4160   69.5700  223.8320 C   0  0  0  0  0  0  0  0  0  0  0  0
  139.5640   68.8140  224.9710 C   0  0  0  0  0  0  0  0  0  0  0  0
  140.0560   69.4440  226.1020 C   0  0  0  0  0  0  0  0  0  0  0  0
  140.2060   68.6940  227.2460 C   0  0  0  0  0  0  0  0  0  0  0  0
  140.6970   69.3330  228.3660 C   0  0  0  0  0  0  0  0  0  0  0  0
  141.0120   70.6710  228.2970 C   0  0  0  0  0  0  0  0  0  0  0  0
  140.8620   71.4250  227.1530 C   0  0  0  0  0  0  0  0  0  0  0  0
  140.3720   70.7890  226.0310 C   0  0  0  0  0  0  0  0  0  0  0  0
  140.2150   71.4840  224.9130 N   0  0  0  0  0  0  0  0  0  0  0  0
  139.5950   73.5350  223.5460 H   0  0  0  0  0  0  0  0  0  0  0  0
  140.2059   73.6635  220.7168 H   0  0  0  0  0  0  0  0  0  0  0  0
  138.4200   73.5125  220.8710 H   0  0  0  0  0  0  0  0  0  0  0  0
  138.5516   76.2407  219.1927 H   0  0  0  0  0  0  0  0  0  0  0  0
  138.0533   77.3789  220.4833 H   0  0  0  0  0  0  0  0  0  0  0  0
  139.0282   78.4726  218.4480 H   0  0  0  0  0  0  0  0  0  0  0  0
  139.9047   78.8192  220.0169 H   0  0  0  0  0  0  0  0  0  0  0  0
  140.7598   77.1554  217.6769 H   0  0  0  0  0  0  0  0  0  0  0  0
  141.5925   78.5312  218.5283 H   0  0  0  0  0  0  0  0  0  0  0  0
  141.5821   75.6631  219.0940 H   0  0  0  0  0  0  0  0  0  0  0  0
  142.7595   76.9808  219.5224 H   0  0  0  0  0  0  0  0  0  0  0  0
  141.7797   75.9536  221.5196 H   0  0  0  0  0  0  0  0  0  0  0  0
  140.8738   76.9943  223.5267 H   0  0  0  0  0  0  0  0  0  0  0  0
  141.3045   79.0261  224.8741 H   0  0  0  0  0  0  0  0  0  0  0  0
  142.5426   81.1391  221.3825 H   0  0  0  0  0  0  0  0  0  0  0  0
  142.1165   79.1262  220.0425 H   0  0  0  0  0  0  0  0  0  0  0  0
  139.0262   69.0924  222.9210 H   0  0  0  0  0  0  0  0  0  0  0  0
  139.3008   67.7460  224.9834 H   0  0  0  0  0  0  0  0  0  0  0  0
  139.9444   67.6258  227.2668 H   0  0  0  0  0  0  0  0  0  0  0  0
  140.8355   68.7780  229.3056 H   0  0  0  0  0  0  0  0  0  0  0  0
  141.4029   71.1631  229.1998 H   0  0  0  0  0  0  0  0  0  0  0  0
  141.1231   72.4934  227.1352 H   0  0  0  0  0  0  0  0  0  0  0  0
  1  2  2  0
  2  3  1  0
  3  4  1  0
  4  5  1  0
  5  6  2  0
  5  7  1  0
  7  8  1  0
  8  9  1  0
  9 10  1  0
 10 11  1  0
 11 12  1  0
 12 13  1  0
 13 14  2  0
 14 15  1  0
 15 16  2  0
 16 17  1  0
 16 18  1  0
 18 19  2  0
  2 20  1  0
 20 21  2  0
 21 22  1  0
 22 23  2  0
 23 24  1  0
 24 25  2  0
 25 26  1  0
 26 27  2  0
 27 28  1  0
 28 29  2  0
 12  7  1  0
 19 13  1  0
 29 20  1  0
 28 23  1  0
  3 30  1  0
  4 31  1  0
  4 32  1  0
  8 33  1  0
  8 34  1  0
  9 35  1  0
  9 36  1  0
 10 37  1  0
 10 38  1  0
 11 39  1  0
 11 40  1  0
 12 41  1  1
 14 42  1  0
 15 43  1  0
 18 44  1  0
 19 45  1  0
 21 46  1  0
 22 47  1  0
 24 48  1  0
 25 49  1  0
 26 50  1  0
 27 51  1  0
M  END
>  <smiles>  (66) 
O=C(NCC(=O)N1CCCCC1c1ccc(Cl)cc1)c1ccc2ccccc2n1

>  <score_type>  (66) 
oracle

>  <origin>  (66) 
autodockgpu

>  <m_score__min__energy>  (66) 
-9.2200000000000006

>  <m_primary>  (66) 
energy

>  <rmsd>  (66) 
1.5754771040145903

>  <m_score__min__rmsd>  (66) 
1.5754771040145903

>  <meeko>  (66) 
{"free_energy": -8.9, "intermolecular_energy": -10.39, "internal_energy": -1.66, "cluster_size": 24, "cluster_id": 2, "rank_in_cluster": 10}

>  <energy>  (66) 
-8.6

>  <cluster_rmsd>  (66) 
0.91

>  <cluster>  (66) 
1

$$$$

     RDKit          3D

 51 54  0  0  0  0  0  0  0  0999 V2000
  138.2430   70.8820  221.9130 O   0  0  0  0  0  0  0  0  0  0  0  0
  138.9570   71.3250  222.8720 C   0  0  0  0  0  0  0  0  0  0  0  0
  139.4410   72.6550  222.8050 N   0  0  0  0  0  0  0  0  0  0  0  0
  139.1360   73.4970  221.6760 C   0  0  0  0  0  0  0  0  0  0  0  0
  140.1180   74.6030  221.5940 C   0  0  0  0  0  0  0  0  0  0  0  0
  141.3190   74.4250  221.9510 O   0  0  0  0  0  0  0  0  0  0  0  0
  139.7910   75.9040  221.1220 N   0  0  0  0  0  0  0  0  0  0  0  0
  138.4020   76.3020  221.2020 C   0  0  0  0  0  0  0  0  0  0  0  0
  138.2800   77.7360  220.7630 C   0  0  0  0  0  0  0  0  0  0  0  0
  138.9250   78.0240  219.4440 C   0  0  0  0  0  0  0  0  0  0  0  0
  140.2210   77.3110  219.2740 C   0  0  0  0  0  0  0  0  0  0  0  0
  140.7770   76.8190  220.5780 C   0  0  1  0  0  0  0  0  0  0  0  0
  141.2060   77.8670  221.5080 C   0  0  0  0  0  0  0  0  0  0  0  0
  141.7630   79.0160  220.9830 C   0  0  0  0  0  0  0  0  0  0  0  0
  142.1730   80.0470  221.8280 C   0  0  0  0  0  0  0  0  0  0  0  0
  142.0450   79.9660  223.1900 C   0  0  0  0  0  0  0  0  0  0  0  0
  142.5700   81.2760  224.2070 Cl  0  0  0  0  0  0  0  0  0  0  0  0
  141.4930   78.8290  223.7190 C   0  0  0  0  0  0  0  0  0  0  0  0
  141.0870   77.8090  222.8800 C   0  0  0  0  0  0  0  0  0  0  0  0
  139.2600   70.4620  224.0110 C   0  0  0  0  0  0  0  0  0  0  0  0
  138.9190   69.1400  223.9880 C   0  0  0  0  0  0  0  0  0  0  0  0
  139.1910   68.3010  225.0430 C   0  0  0  0  0  0  0  0  0  0  0  0
  139.8270   68.8400  226.1480 C   0  0  0  0  0  0  0  0  0  0  0  0
  140.1020   68.0080  227.2080 C   0  0  0  0  0  0  0  0  0  0  0  0
  140.7370   68.5570  228.3030 C   0  0  0  0  0  0  0  0  0  0  0  0
  141.0660   69.8930  228.2920 C   0  0  0  0  0  0  0  0  0  0  0  0
  140.7930   70.7310  227.2320 C   0  0  0  0  0  0  0  0  0  0  0  0
  140.1580   70.1840  226.1360 C   0  0  0  0  0  0  0  0  0  0  0  0
  139.8790   70.9610  225.0980 N   0  0  0  0  0  0  0  0  0  0  0  0
  140.0280   72.9730  223.6240 H   0  0  0  0  0  0  0  0  0  0  0  0
  139.1804   72.9002  220.7530 H   0  0  0  0  0  0  0  0  0  0  0  0
  138.1265   73.9165  221.7984 H   0  0  0  0  0  0  0  0  0  0  0  0
  137.7959   75.6616  220.5443 H   0  0  0  0  0  0  0  0  0  0  0  0
  138.0432   76.1971  222.2365 H   0  0  0  0  0  0  0  0  0  0  0  0
  137.2113   77.9852  220.6875 H   0  0  0  0  0  0  0  0  0  0  0  0
  138.8041   78.3452  221.5141 H   0  0  0  0  0  0  0  0  0  0  0  0
  138.2417   77.7096  218.6413 H   0  0  0  0  0  0  0  0  0  0  0  0
  139.1301   79.1039  219.4015 H   0  0  0  0  0  0  0  0  0  0  0  0
  140.0657   76.4492  218.6083 H   0  0  0  0  0  0  0  0  0  0  0  0
  140.9430   78.0233  218.8483 H   0  0  0  0  0  0  0  0  0  0  0  0
  141.7304   76.2997  220.4011 H   0  0  0  0  0  0  0  0  0  0  0  0
  141.8838   79.1187  219.8945 H   0  0  0  0  0  0  0  0  0  0  0  0
  142.6130   80.9538  221.3873 H   0  0  0  0  0  0  0  0  0  0  0  0
  141.3735   78.7286  224.8079 H   0  0  0  0  0  0  0  0  0  0  0  0
  140.6472   76.9063  223.3291 H   0  0  0  0  0  0  0  0  0  0  0  0
  138.4121   68.7345  223.1000 H   0  0  0  0  0  0  0  0  0  0  0  0
  138.9125   67.2373  225.0099 H   0  0  0  0  0  0  0  0  0  0  0  0
  139.8257   66.9435  227.1837 H   0  0  0  0  0  0  0  0  0  0  0  0
  140.9779   67.9328  229.1761 H   0  0  0  0  0  0  0  0  0  0  0  0
  141.5723   70.3135  229.1734 H   0  0  0  0  0  0  0  0  0  0  0  0
  141.0708   71.7950  227.2589 H   0  0  0  0  0  0  0  0  0  0  0  0
  1  2  2  0
  2  3  1  0
  3  4  1  0
  4  5  1  0
  5  6  2  0
  5  7  1  0
  7  8  1  0
  8  9  1  0
  9 10  1  0
 10 11  1  0
 11 12  1  0
 12 13  1  0
 13 14  2  0
 14 15  1  0
 15 16  2  0
 16 17  1  0
 16 18  1  0
 18 19  2  0
  2 20  1  0
 20 21  2  0
 21 22  1  0
 22 23  2  0
 23 24  1  0
 24 25  2  0
 25 26  1  0
 26 27  2  0
 27 28  1  0
 28 29  2  0
 12  7  1  0
 19 13  1  0
 29 20  1  0
 28 23  1  0
  3 30  1  0
  4 31  1  0
  4 32  1  0
  8 33  1  0
  8 34  1  0
  9 35  1  0
  9 36  1  0
 10 37  1  0
 10 38  1  0
 11 39  1  0
 11 40  1  0
 12 41  1  6
 14 42  1  0
 15 43  1  0
 18 44  1  0
 19 45  1  0
 21 46  1  0
 22 47  1  0
 24 48  1  0
 25 49  1  0
 26 50  1  0
 27 51  1  0
M  END
>  <smiles>  (67) 
O=C(NCC(=O)N1CCCCC1c1ccc(Cl)cc1)c1ccc2ccccc2n1

>  <score_type>  (67) 
oracle

>  <origin>  (67) 
autodockgpu

>  <m_score__min__energy>  (67) 
-9.2200000000000006

>  <m_primary>  (67) 
energy

>  <rmsd>  (67) 
1.8652321218507117

>  <m_score__min__rmsd>  (67) 
1.8652321218507117

>  <meeko>  (67) 
{"free_energy": -8.87, "intermolecular_energy": -10.37, "internal_energy": -1.82, "cluster_size": 24, "cluster_id": 2, "rank_in_cluster": 13}

>  <energy>  (67) 
-9.15

>  <cluster_rmsd>  (67) 
0.0

>  <cluster>  (67) 
2

$$$$

     RDKit          3D

 51 54  0  0  0  0  0  0  0  0999 V2000
  137.4440   76.2490  222.2350 O   0  0  0  0  0  0  0  0  0  0  0  0
  138.7060   76.3330  222.3970 C   0  0  0  0  0  0  0  0  0  0  0  0
  139.4930   75.1640  222.2480 N   0  0  0  0  0  0  0  0  0  0  0  0
  138.8840   73.8990  221.9190 C   0  0  0  0  0  0  0  0  0  0  0  0
  139.8130   72.7940  222.2440 C   0  0  0  0  0  0  0  0  0  0  0  0
  141.0590   73.0030  222.3250 O   0  0  0  0  0  0  0  0  0  0  0  0
  139.3860   71.4580  222.4800 N   0  0  0  0  0  0  0  0  0  0  0  0
  139.8860   70.4400  221.5800 C   0  0  0  0  0  0  0  0  0  0  0  0
  139.4150   69.0940  222.0580 C   0  0  0  0  0  0  0  0  0  0  0  0
  137.9420   69.0200  222.3090 C   0  0  0  0  0  0  0  0  0  0  0  0
  137.4090   70.2540  222.9490 C   0  0  0  0  0  0  0  0  0  0  0  0
  138.4920   71.0930  223.5620 C   0  0  1  0  0  0  0  0  0  0  0  0
  139.1600   70.4970  224.7230 C   0  0  0  0  0  0  0  0  0  0  0  0
  138.5760   69.3960  225.3170 C   0  0  0  0  0  0  0  0  0  0  0  0
  139.1820   68.7860  226.4150 C   0  0  0  0  0  0  0  0  0  0  0  0
  140.3610   69.2440  226.9420 C   0  0  0  0  0  0  0  0  0  0  0  0
  141.0830   68.4530  228.3140 Cl  0  0  0  0  0  0  0  0  0  0  0  0
  140.9480   70.3360  226.3580 C   0  0  0  0  0  0  0  0  0  0  0  0
  140.3460   70.9380  225.2700 C   0  0  0  0  0  0  0  0  0  0  0  0
  139.3130   77.6200  222.7310 C   0  0  0  0  0  0  0  0  0  0  0  0
  138.5290   78.6960  223.0350 C   0  0  0  0  0  0  0  0  0  0  0  0
  139.0680   79.9200  223.3540 C   0  0  0  0  0  0  0  0  0  0  0  0
  140.4480   80.0350  223.3570 C   0  0  0  0  0  0  0  0  0  0  0  0
  140.9950   81.2570  223.6750 C   0  0  0  0  0  0  0  0  0  0  0  0
  142.3710   81.3590  223.6750 C   0  0  0  0  0  0  0  0  0  0  0  0
  143.1290   80.2530  223.3640 C   0  0  0  0  0  0  0  0  0  0  0  0
  142.5850   79.0270  223.0450 C   0  0  0  0  0  0  0  0  0  0  0  0
  141.2100   78.9230  223.0440 C   0  0  0  0  0  0  0  0  0  0  0  0
  140.6520   77.7590  222.7420 N   0  0  0  0  0  0  0  0  0  0  0  0
  140.5320   75.2860  222.3930 H   0  0  0  0  0  0  0  0  0  0  0  0
  137.9569   73.7787  222.4986 H   0  0  0  0  0  0  0  0  0  0  0  0
  138.6552   73.8757  220.8433 H   0  0  0  0  0  0  0  0  0  0  0  0
  139.5054   70.6253  220.5647 H   0  0  0  0  0  0  0  0  0  0  0  0
  140.9856   70.4656  221.5620 H   0  0  0  0  0  0  0  0  0  0  0  0
  139.6741   68.3455  221.2947 H   0  0  0  0  0  0  0  0  0  0  0  0
  139.9123   68.9057  223.0209 H   0  0  0  0  0  0  0  0  0  0  0  0
  137.4277   68.8708  221.3482 H   0  0  0  0  0  0  0  0  0  0  0  0
  137.7626   68.1821  222.9987 H   0  0  0  0  0  0  0  0  0  0  0  0
  136.8884   70.8513  222.1860 H   0  0  0  0  0  0  0  0  0  0  0  0
  136.7260   69.9463  223.7545 H   0  0  0  0  0  0  0  0  0  0  0  0
  138.0509   71.9914  224.0183 H   0  0  0  0  0  0  0  0  0  0  0  0
  137.6292   68.9984  224.9227 H   0  0  0  0  0  0  0  0  0  0  0  0
  138.6985   67.9101  226.8721 H   0  0  0  0  0  0  0  0  0  0  0  0
  141.8949   70.7317  226.7540 H   0  0  0  0  0  0  0  0  0  0  0  0
  140.8372   71.8123  224.8179 H   0  0  0  0  0  0  0  0  0  0  0  0
  137.4352   78.5802  223.0244 H   0  0  0  0  0  0  0  0  0  0  0  0
  138.4251   80.7784  223.5985 H   0  0  0  0  0  0  0  0  0  0  0  0
  140.3589   82.1204  223.9201 H   0  0  0  0  0  0  0  0  0  0  0  0
  142.8573   82.3145  223.9211 H   0  0  0  0  0  0  0  0  0  0  0  0
  144.2245   80.3523  223.3703 H   0  0  0  0  0  0  0  0  0  0  0  0
  143.2232   78.1650  222.8007 H   0  0  0  0  0  0  0  0  0  0  0  0
  1  2  2  0
  2  3  1  0
  3  4  1  0
  4  5  1  0
  5  6  2  0
  5  7  1  0
  7  8  1  0
  8  9  1  0
  9 10  1  0
 10 11  1  0
 11 12  1  0
 12 13  1  0
 13 14  2  0
 14 15  1  0
 15 16  2  0
 16 17  1  0
 16 18  1  0
 18 19  2  0
  2 20  1  0
 20 21  2  0
 21 22  1  0
 22 23  2  0
 23 24  1  0
 24 25  2  0
 25 26  1  0
 26 27  2  0
 27 28  1  0
 28 29  2  0
 12  7  1  0
 19 13  1  0
 29 20  1  0
 28 23  1  0
  3 30  1  0
  4 31  1  0
  4 32  1  0
  8 33  1  0
  8 34  1  0
  9 35  1  0
  9 36  1  0
 10 37  1  0
 10 38  1  0
 11 39  1  0
 11 40  1  0
 12 41  1  1
 14 42  1  0
 15 43  1  0
 18 44  1  0
 19 45  1  0
 21 46  1  0
 22 47  1  0
 24 48  1  0
 25 49  1  0
 26 50  1  0
 27 51  1  0
M  END
>  <smiles>  (68) 
O=C(NCC(=O)N1CCCCC1c1ccc(Cl)cc1)c1ccc2ccccc2n1

>  <score_type>  (68) 
oracle

>  <origin>  (68) 
autodockgpu

>  <m_score__min__energy>  (68) 
-9.2200000000000006

>  <m_primary>  (68) 
energy

>  <rmsd>  (68) 
8.352329787501112

>  <m_score__min__rmsd>  (68) 
8.352329787501112

>  <meeko>  (68) 
{"free_energy": -8.67, "intermolecular_energy": -10.16, "internal_energy": -1.98, "cluster_size": 16, "cluster_id": 1, "rank_in_cluster": 13}

>  <energy>  (68) 
-9.07

>  <cluster_rmsd>  (68) 
0.19

>  <cluster>  (68) 
2

$$$$

     RDKit          3D

 51 54  0  0  0  0  0  0  0  0999 V2000
  141.4270   72.0340  221.7750 O   0  0  0  0  0  0  0  0  0  0  0  0
  140.4900   72.3110  222.5950 C   0  0  0  0  0  0  0  0  0  0  0  0
  139.6760   73.4430  222.3430 N   0  0  0  0  0  0  0  0  0  0  0  0
  139.8960   74.2700  221.1830 C   0  0  0  0  0  0  0  0  0  0  0  0
  138.9480   75.4060  221.1880 C   0  0  0  0  0  0  0  0  0  0  0  0
  137.8130   75.2950  221.7370 O   0  0  0  0  0  0  0  0  0  0  0  0
  139.2350   76.6670  220.5950 N   0  0  0  0  0  0  0  0  0  0  0  0
  138.1040   77.4880  220.2190 C   0  0  0  0  0  0  0  0  0  0  0  0
  138.6110   78.8130  219.7170 C   0  0  0  0  0  0  0  0  0  0  0  0
  139.6630   78.7000  218.6600 C   0  0  0  0  0  0  0  0  0  0  0  0
  140.6290   77.6000  218.9320 C   0  0  0  0  0  0  0  0  0  0  0  0
  140.5860   77.1410  220.3600 C   0  0  1  0  0  0  0  0  0  0  0  0
  141.0610   78.1190  221.3430 C   0  0  0  0  0  0  0  0  0  0  0  0
  141.7620   79.2160  220.8840 C   0  0  0  0  0  0  0  0  0  0  0  0
  142.2220   80.1810  221.7800 C   0  0  0  0  0  0  0  0  0  0  0  0
  142.0040   80.0830  223.1300 C   0  0  0  0  0  0  0  0  0  0  0  0
  142.5970   81.3090  224.2130 Cl  0  0  0  0  0  0  0  0  0  0  0  0
  141.3090   78.9960  223.5930 C   0  0  0  0  0  0  0  0  0  0  0  0
  140.8540   78.0430  222.7040 C   0  0  0  0  0  0  0  0  0  0  0  0
  140.2770   71.4660  223.7680 C   0  0  0  0  0  0  0  0  0  0  0  0
  139.6410   70.2640  223.6480 C   0  0  0  0  0  0  0  0  0  0  0  0
  139.4250   69.4450  224.7320 C   0  0  0  0  0  0  0  0  0  0  0  0
  139.8740   69.8800  225.9670 C   0  0  0  0  0  0  0  0  0  0  0  0
  139.6610   69.0680  227.0560 C   0  0  0  0  0  0  0  0  0  0  0  0
  140.1130   69.5120  228.2820 C   0  0  0  0  0  0  0  0  0  0  0  0
  140.7490   70.7300  228.3650 C   0  0  0  0  0  0  0  0  0  0  0  0
  140.9640   71.5470  227.2760 C   0  0  0  0  0  0  0  0  0  0  0  0
  140.5130   71.1050  226.0500 C   0  0  0  0  0  0  0  0  0  0  0  0
  140.7030   71.8650  224.9810 N   0  0  0  0  0  0  0  0  0  0  0  0
  138.9150   73.6300  223.0520 H   0  0  0  0  0  0  0  0  0  0  0  0
  140.9264   74.6546  221.1993 H   0  0  0  0  0  0  0  0  0  0  0  0
  139.7377   73.6699  220.2748 H   0  0  0  0  0  0  0  0  0  0  0  0
  137.5312   76.9866  219.4249 H   0  0  0  0  0  0  0  0  0  0  0  0
  137.4501   77.6440  221.0896 H   0  0  0  0  0  0  0  0  0  0  0  0
  137.7610   79.3736  219.3007 H   0  0  0  0  0  0  0  0  0  0  0  0
  139.0745   79.3224  220.5747 H   0  0  0  0  0  0  0  0  0  0  0  0
  139.1732   78.5084  217.6939 H   0  0  0  0  0  0  0  0  0  0  0  0
  140.2269   79.6444  218.6474 H   0  0  0  0  0  0  0  0  0  0  0  0
  140.3870   76.7480  218.2797 H   0  0  0  0  0  0  0  0  0  0  0  0
  141.6402   77.9850  218.7338 H   0  0  0  0  0  0  0  0  0  0  0  0
  141.3127   76.3289  220.5095 H   0  0  0  0  0  0  0  0  0  0  0  0
  141.9586   79.3296  219.8077 H   0  0  0  0  0  0  0  0  0  0  0  0
  142.7769   81.0476  221.3913 H   0  0  0  0  0  0  0  0  0  0  0  0
  141.1144   78.8834  224.6698 H   0  0  0  0  0  0  0  0  0  0  0  0
  140.2989   77.1803  223.1010 H   0  0  0  0  0  0  0  0  0  0  0  0
  139.2913   69.9412  222.6563 H   0  0  0  0  0  0  0  0  0  0  0  0
  138.9131   68.4777  224.6212 H   0  0  0  0  0  0  0  0  0  0  0  0
  139.1490   68.0998  226.9537 H   0  0  0  0  0  0  0  0  0  0  0  0
  139.9666   68.8990  229.1835 H   0  0  0  0  0  0  0  0  0  0  0  0
  141.1034   71.0682  229.3499 H   0  0  0  0  0  0  0  0  0  0  0  0
  141.4760   72.5149  227.3808 H   0  0  0  0  0  0  0  0  0  0  0  0
  1  2  2  0
  2  3  1  0
  3  4  1  0
  4  5  1  0
  5  6  2  0
  5  7  1  0
  7  8  1  0
  8  9  1  0
  9 10  1  0
 10 11  1  0
 11 12  1  0
 12 13  1  0
 13 14  2  0
 14 15  1  0
 15 16  2  0
 16 17  1  0
 16 18  1  0
 18 19  2  0
  2 20  1  0
 20 21  2  0
 21 22  1  0
 22 23  2  0
 23 24  1  0
 24 25  2  0
 25 26  1  0
 26 27  2  0
 27 28  1  0
 28 29  2  0
 12  7  1  0
 19 13  1  0
 29 20  1  0
 28 23  1  0
  3 30  1  0
  4 31  1  0
  4 32  1  0
  8 33  1  0
  8 34  1  0
  9 35  1  0
  9 36  1  0
 10 37  1  0
 10 38  1  0
 11 39  1  0
 11 40  1  0
 12 41  1  6
 14 42  1  0
 15 43  1  0
 18 44  1  0
 19 45  1  0
 21 46  1  0
 22 47  1  0
 24 48  1  0
 25 49  1  0
 26 50  1  0
 27 51  1  0
M  END
>  <smiles>  (69) 
O=C(NCC(=O)N1CCCCC1c1ccc(Cl)cc1)c1ccc2ccccc2n1

>  <score_type>  (69) 
oracle

>  <origin>  (69) 
autodockgpu

>  <m_score__min__energy>  (69) 
-9.2200000000000006

>  <m_primary>  (69) 
energy

>  <rmsd>  (69) 
2.0699104804705604

>  <m_score__min__rmsd>  (69) 
2.0699104804705604

>  <meeko>  (69) 
{"free_energy": -8.72, "intermolecular_energy": -10.21, "internal_energy": -1.65, "cluster_size": 24, "cluster_id": 2, "rank_in_cluster": 19}

>  <energy>  (69) 
-9.02

>  <cluster_rmsd>  (69) 
0.75

>  <cluster>  (69) 
2

$$$$

     RDKit          3D

 51 54  0  0  0  0  0  0  0  0999 V2000
  138.2320   70.8570  221.8630 O   0  0  0  0  0  0  0  0  0  0  0  0
  138.9300   71.3240  222.8230 C   0  0  0  0  0  0  0  0  0  0  0  0
  139.3800   72.6660  222.7510 N   0  0  0  0  0  0  0  0  0  0  0  0
  139.0590   73.4930  221.6150 C   0  0  0  0  0  0  0  0  0  0  0  0
  139.9540   74.6720  221.5830 C   0  0  0  0  0  0  0  0  0  0  0  0
  141.1550   74.5780  221.9710 O   0  0  0  0  0  0  0  0  0  0  0  0
  139.5410   75.9540  221.1270 N   0  0  0  0  0  0  0  0  0  0  0  0
  138.1660   76.3290  221.3810 C   0  0  0  0  0  0  0  0  0  0  0  0
  137.9590   77.7490  220.9280 C   0  0  0  0  0  0  0  0  0  0  0  0
  138.4180   78.0140  219.5300 C   0  0  0  0  0  0  0  0  0  0  0  0
  139.6950   77.3210  219.2070 C   0  0  0  0  0  0  0  0  0  0  0  0
  140.4280   76.8720  220.4370 C   0  0  1  0  0  0  0  0  0  0  0  0
  140.9530   77.9510  221.2770 C   0  0  0  0  0  0  0  0  0  0  0  0
  141.0010   77.7490  222.6430 C   0  0  0  0  0  0  0  0  0  0  0  0
  141.5060   78.7420  223.4820 C   0  0  0  0  0  0  0  0  0  0  0  0
  141.9670   79.9390  222.9980 C   0  0  0  0  0  0  0  0  0  0  0  0
  142.5890   81.1500  224.0810 Cl  0  0  0  0  0  0  0  0  0  0  0  0
  141.9230   80.1470  221.6440 C   0  0  0  0  0  0  0  0  0  0  0  0
  141.4230   79.1620  220.8150 C   0  0  0  0  0  0  0  0  0  0  0  0
  139.2500   70.4750  223.9690 C   0  0  0  0  0  0  0  0  0  0  0  0
  138.9350   69.1470  223.9550 C   0  0  0  0  0  0  0  0  0  0  0  0
  139.2230   68.3210  225.0170 C   0  0  0  0  0  0  0  0  0  0  0  0
  139.8470   68.8820  226.1180 C   0  0  0  0  0  0  0  0  0  0  0  0
  140.1380   68.0630  227.1840 C   0  0  0  0  0  0  0  0  0  0  0  0
  140.7610   68.6330  228.2760 C   0  0  0  0  0  0  0  0  0  0  0  0
  141.0630   69.9760  228.2550 C   0  0  0  0  0  0  0  0  0  0  0  0
  140.7730   70.8000  227.1880 C   0  0  0  0  0  0  0  0  0  0  0  0
  140.1510   70.2320  226.0960 C   0  0  0  0  0  0  0  0  0  0  0  0
  139.8570   70.9950  225.0520 N   0  0  0  0  0  0  0  0  0  0  0  0
  139.9550   73.0030  223.5700 H   0  0  0  0  0  0  0  0  0  0  0  0
  139.1894   72.9105  220.6910 H   0  0  0  0  0  0  0  0  0  0  0  0
  138.0156   73.8317  221.6960 H   0  0  0  0  0  0  0  0  0  0  0  0
  137.4919   75.6614  220.8244 H   0  0  0  0  0  0  0  0  0  0  0  0
  137.9479   76.2440  222.4558 H   0  0  0  0  0  0  0  0  0  0  0  0
  136.8849   77.9785  220.9888 H   0  0  0  0  0  0  0  0  0  0  0  0
  138.5660   78.3856  221.5885 H   0  0  0  0  0  0  0  0  0  0  0  0
  137.6419   77.6663  218.8323 H   0  0  0  0  0  0  0  0  0  0  0  0
  138.5924   79.0960  219.4355 H   0  0  0  0  0  0  0  0  0  0  0  0
  139.4721   76.4401  218.5871 H   0  0  0  0  0  0  0  0  0  0  0  0
  140.3395   78.0356  218.6741 H   0  0  0  0  0  0  0  0  0  0  0  0
  141.3605   76.3648  220.1485 H   0  0  0  0  0  0  0  0  0  0  0  0
  140.6397   76.8019  223.0702 H   0  0  0  0  0  0  0  0  0  0  0  0
  141.5354   78.5590  224.5663 H   0  0  0  0  0  0  0  0  0  0  0  0
  142.2846   81.0950  221.2191 H   0  0  0  0  0  0  0  0  0  0  0  0
  141.3985   79.3532  219.7320 H   0  0  0  0  0  0  0  0  0  0  0  0
  138.4368   68.7252  223.0696 H   0  0  0  0  0  0  0  0  0  0  0  0
  138.9663   67.2517  224.9920 H   0  0  0  0  0  0  0  0  0  0  0  0
  139.8836   66.9930  227.1670 H   0  0  0  0  0  0  0  0  0  0  0  0
  141.0136   68.0204  229.1540 H   0  0  0  0  0  0  0  0  0  0  0  0
  141.5604   70.4136  229.1331 H   0  0  0  0  0  0  0  0  0  0  0  0
  141.0281   71.8698  227.2071 H   0  0  0  0  0  0  0  0  0  0  0  0
  1  2  2  0
  2  3  1  0
  3  4  1  0
  4  5  1  0
  5  6  2  0
  5  7  1  0
  7  8  1  0
  8  9  1  0
  9 10  1  0
 10 11  1  0
 11 12  1  0
 12 13  1  0
 13 14  2  0
 14 15  1  0
 15 16  2  0
 16 17  1  0
 16 18  1  0
 18 19  2  0
  2 20  1  0
 20 21  2  0
 21 22  1  0
 22 23  2  0
 23 24  1  0
 24 25  2  0
 25 26  1  0
 26 27  2  0
 27 28  1  0
 28 29  2  0
 12  7  1  0
 19 13  1  0
 29 20  1  0
 28 23  1  0
  3 30  1  0
  4 31  1  0
  4 32  1  0
  8 33  1  0
  8 34  1  0
  9 35  1  0
  9 36  1  0
 10 37  1  0
 10 38  1  0
 11 39  1  0
 11 40  1  0
 12 41  1  6
 14 42  1  0
 15 43  1  0
 18 44  1  0
 19 45  1  0
 21 46  1  0
 22 47  1  0
 24 48  1  0
 25 49  1  0
 26 50  1  0
 27 51  1  0
M  END
>  <smiles>  (70) 
O=C(NCC(=O)N1CCCCC1c1ccc(Cl)cc1)c1ccc2ccccc2n1

>  <score_type>  (70) 
oracle

>  <origin>  (70) 
autodockgpu

>  <m_score__min__energy>  (70) 
-9.2200000000000006

>  <m_primary>  (70) 
energy

>  <rmsd>  (70) 
1.9696515328859843

>  <m_score__min__rmsd>  (70) 
1.9696515328859843

>  <meeko>  (70) 
{"free_energy": -8.85, "intermolecular_energy": -10.34, "internal_energy": -1.83, "cluster_size": 24, "cluster_id": 2, "rank_in_cluster": 16}

>  <energy>  (70) 
-9.01

>  <cluster_rmsd>  (70) 
0.97

>  <cluster>  (70) 
2

$$$$

     RDKit          3D

 51 54  0  0  0  0  0  0  0  0999 V2000
  140.2720   70.8380  221.5730 O   0  0  0  0  0  0  0  0  0  0  0  0
  139.7570   71.4830  222.5450 C   0  0  0  0  0  0  0  0  0  0  0  0
  138.9470   72.6110  222.2630 N   0  0  0  0  0  0  0  0  0  0  0  0
  138.7060   73.0280  220.9040 C   0  0  0  0  0  0  0  0  0  0  0  0
  138.4800   74.4900  220.8590 C   0  0  0  0  0  0  0  0  0  0  0  0
  137.3350   74.9560  220.5870 O   0  0  0  0  0  0  0  0  0  0  0  0
  139.5010   75.4470  221.1110 N   0  0  0  0  0  0  0  0  0  0  0  0
  139.5510   76.0200  222.4400 C   0  0  0  0  0  0  0  0  0  0  0  0
  140.7550   76.9160  222.5380 C   0  0  0  0  0  0  0  0  0  0  0  0
  140.8570   77.9200  221.4340 C   0  0  0  0  0  0  0  0  0  0  0  0
  140.4680   77.3570  220.1120 C   0  0  0  0  0  0  0  0  0  0  0  0
  140.4670   75.8560  220.1090 C   0  0  1  0  0  0  0  0  0  0  0  0
  141.7850   75.2320  220.2500 C   0  0  0  0  0  0  0  0  0  0  0  0
  141.8430   73.9260  220.6950 C   0  0  0  0  0  0  0  0  0  0  0  0
  143.0740   73.2850  220.8330 C   0  0  0  0  0  0  0  0  0  0  0  0
  144.2570   73.9110  220.5380 C   0  0  0  0  0  0  0  0  0  0  0  0
  145.7710   73.0740  220.7250 Cl  0  0  0  0  0  0  0  0  0  0  0  0
  144.2080   75.2080  220.0960 C   0  0  0  0  0  0  0  0  0  0  0  0
  142.9880   75.8400  219.9600 C   0  0  0  0  0  0  0  0  0  0  0  0
  140.0090   71.0520  223.9180 C   0  0  0  0  0  0  0  0  0  0  0  0
  140.6330   71.8850  224.8020 C   0  0  0  0  0  0  0  0  0  0  0  0
  140.8850   71.5100  226.1010 C   0  0  0  0  0  0  0  0  0  0  0  0
  140.4840   70.2450  226.4950 C   0  0  0  0  0  0  0  0  0  0  0  0
  140.7330   69.8620  227.7920 C   0  0  0  0  0  0  0  0  0  0  0  0
  140.3280   68.5990  228.1730 C   0  0  0  0  0  0  0  0  0  0  0  0
  139.7020   67.7860  227.2560 C   0  0  0  0  0  0  0  0  0  0  0  0
  139.4510   68.1660  225.9550 C   0  0  0  0  0  0  0  0  0  0  0  0
  139.8540   69.4280  225.5720 C   0  0  0  0  0  0  0  0  0  0  0  0
  139.6290   69.8270  224.3280 N   0  0  0  0  0  0  0  0  0  0  0  0
  138.5450   73.1110  223.1030 H   0  0  0  0  0  0  0  0  0  0  0  0
  139.5788   72.7745  220.2843 H   0  0  0  0  0  0  0  0  0  0  0  0
  137.8144   72.5114  220.5191 H   0  0  0  0  0  0  0  0  0  0  0  0
  138.6384   76.6059  222.6243 H   0  0  0  0  0  0  0  0  0  0  0  0
  139.6206   75.2181  223.1897 H   0  0  0  0  0  0  0  0  0  0  0  0
  140.7066   77.4572  223.4944 H   0  0  0  0  0  0  0  0  0  0  0  0
  141.6409   76.2684  222.4624 H   0  0  0  0  0  0  0  0  0  0  0  0
  140.1942   78.7669  221.6653 H   0  0  0  0  0  0  0  0  0  0  0  0
  141.9086   78.2354  221.3660 H   0  0  0  0  0  0  0  0  0  0  0  0
  139.4577   77.7117  219.8601 H   0  0  0  0  0  0  0  0  0  0  0  0
  141.2088   77.6941  219.3720 H   0  0  0  0  0  0  0  0  0  0  0  0
  140.1718   75.4881  219.1153 H   0  0  0  0  0  0  0  0  0  0  0  0
  140.9150   73.3893  220.9415 H   0  0  0  0  0  0  0  0  0  0  0  0
  143.0961   72.2447  221.1897 H   0  0  0  0  0  0  0  0  0  0  0  0
  145.1372   75.7431  219.8506 H   0  0  0  0  0  0  0  0  0  0  0  0
  142.9752   76.8802  219.6026 H   0  0  0  0  0  0  0  0  0  0  0  0
  140.9432   72.8852  224.4653 H   0  0  0  0  0  0  0  0  0  0  0  0
  141.3878   72.1918  226.8027 H   0  0  0  0  0  0  0  0  0  0  0  0
  141.2363   70.5373  228.4996 H   0  0  0  0  0  0  0  0  0  0  0  0
  140.5039   68.2455  229.1997 H   0  0  0  0  0  0  0  0  0  0  0  0
  139.3861   66.7826  227.5773 H   0  0  0  0  0  0  0  0  0  0  0  0
  138.9484   67.4884  225.2491 H   0  0  0  0  0  0  0  0  0  0  0  0
  1  2  2  0
  2  3  1  0
  3  4  1  0
  4  5  1  0
  5  6  2  0
  5  7  1  0
  7  8  1  0
  8  9  1  0
  9 10  1  0
 10 11  1  0
 11 12  1  0
 12 13  1  0
 13 14  2  0
 14 15  1  0
 15 16  2  0
 16 17  1  0
 16 18  1  0
 18 19  2  0
  2 20  1  0
 20 21  2  0
 21 22  1  0
 22 23  2  0
 23 24  1  0
 24 25  2  0
 25 26  1  0
 26 27  2  0
 27 28  1  0
 28 29  2  0
 12  7  1  0
 19 13  1  0
 29 20  1  0
 28 23  1  0
  3 30  1  0
  4 31  1  0
  4 32  1  0
  8 33  1  0
  8 34  1  0
  9 35  1  0
  9 36  1  0
 10 37  1  0
 10 38  1  0
 11 39  1  0
 11 40  1  0
 12 41  1  6
 14 42  1  0
 15 43  1  0
 18 44  1  0
 19 45  1  0
 21 46  1  0
 22 47  1  0
 24 48  1  0
 25 49  1  0
 26 50  1  0
 27 51  1  0
M  END
>  <smiles>  (71) 
O=C(NCC(=O)N1CCCCC1c1ccc(Cl)cc1)c1ccc2ccccc2n1

>  <score_type>  (71) 
oracle

>  <origin>  (71) 
autodockgpu

>  <m_score__min__energy>  (71) 
-9.2200000000000006

>  <m_primary>  (71) 
energy

>  <rmsd>  (71) 
3.271591687910486

>  <m_score__min__rmsd>  (71) 
3.271591687910486

>  <meeko>  (71) 
{"free_energy": -8.61, "intermolecular_energy": -10.1, "internal_energy": -1.76, "cluster_size": 10, "cluster_id": 3, "rank_in_cluster": 8}

>  <energy>  (71) 
-8.96

>  <cluster_rmsd>  (71) 
1.29

>  <cluster>  (71) 
2

$$$$

     RDKit          3D

 51 54  0  0  0  0  0  0  0  0999 V2000
  139.9740   71.1700  221.1260 O   0  0  0  0  0  0  0  0  0  0  0  0
  139.7000   71.6040  222.2940 C   0  0  0  0  0  0  0  0  0  0  0  0
  139.4190   72.9830  222.4620 N   0  0  0  0  0  0  0  0  0  0  0  0
  139.4420   73.8840  221.3370 C   0  0  0  0  0  0  0  0  0  0  0  0
  139.4700   75.2850  221.8160 C   0  0  0  0  0  0  0  0  0  0  0  0
  139.1850   75.5590  223.0180 O   0  0  0  0  0  0  0  0  0  0  0  0
  139.8090   76.3880  220.9850 N   0  0  0  0  0  0  0  0  0  0  0  0
  138.7230   77.0390  220.2840 C   0  0  0  0  0  0  0  0  0  0  0  0
  139.2660   78.2380  219.5540 C   0  0  0  0  0  0  0  0  0  0  0  0
  140.4560   77.9410  218.6990 C   0  0  0  0  0  0  0  0  0  0  0  0
  141.3990   76.9870  219.3440 C   0  0  0  0  0  0  0  0  0  0  0  0
  141.1690   76.8670  220.8220 C   0  0  1  0  0  0  0  0  0  0  0  0
  141.4830   78.0680  221.6000 C   0  0  0  0  0  0  0  0  0  0  0  0
  141.3690   78.0020  222.9750 C   0  0  0  0  0  0  0  0  0  0  0  0
  141.6700   79.1160  223.7590 C   0  0  0  0  0  0  0  0  0  0  0  0
  142.0840   80.3010  223.2100 C   0  0  0  0  0  0  0  0  0  0  0  0
  142.4490   81.6660  224.2260 Cl  0  0  0  0  0  0  0  0  0  0  0  0
  142.2000   80.3750  221.8460 C   0  0  0  0  0  0  0  0  0  0  0  0
  141.9010   79.2710  221.0720 C   0  0  0  0  0  0  0  0  0  0  0  0
  139.6820   70.6810  223.4270 C   0  0  0  0  0  0  0  0  0  0  0  0
  139.1720   69.4220  223.2850 C   0  0  0  0  0  0  0  0  0  0  0  0
  139.1400   68.5290  224.3310 C   0  0  0  0  0  0  0  0  0  0  0  0
  139.6450   68.9480  225.5500 C   0  0  0  0  0  0  0  0  0  0  0  0
  139.6150   68.0610  226.6010 C   0  0  0  0  0  0  0  0  0  0  0  0
  140.1220   68.4900  227.8120 C   0  0  0  0  0  0  0  0  0  0  0  0
  140.6270   69.7650  227.9180 C   0  0  0  0  0  0  0  0  0  0  0  0
  140.6580   70.6570  226.8670 C   0  0  0  0  0  0  0  0  0  0  0  0
  140.1530   70.2310  225.6560 C   0  0  0  0  0  0  0  0  0  0  0  0
  140.1660   71.0620  224.6230 N   0  0  0  0  0  0  0  0  0  0  0  0
  139.1990   73.2910  223.4480 H   0  0  0  0  0  0  0  0  0  0  0  0
  140.3383   73.6876  220.7303 H   0  0  0  0  0  0  0  0  0  0  0  0
  138.5398   73.7268  220.7276 H   0  0  0  0  0  0  0  0  0  0  0  0
  138.2759   76.3386  219.5632 H   0  0  0  0  0  0  0  0  0  0  0  0
  137.9520   77.3562  221.0017 H   0  0  0  0  0  0  0  0  0  0  0  0
  138.4699   78.6414  218.9110 H   0  0  0  0  0  0  0  0  0  0  0  0
  139.5953   78.9553  220.3202 H   0  0  0  0  0  0  0  0  0  0  0  0
  140.1086   77.5062  217.7502 H   0  0  0  0  0  0  0  0  0  0  0  0
  140.9955   78.8860  218.5381 H   0  0  0  0  0  0  0  0  0  0  0  0
  141.2685   75.9961  218.8845 H   0  0  0  0  0  0  0  0  0  0  0  0
  142.4191   77.3699  219.1931 H   0  0  0  0  0  0  0  0  0  0  0  0
  141.8851   76.1509  221.2514 H   0  0  0  0  0  0  0  0  0  0  0  0
  141.0398   77.0678  223.4535 H   0  0  0  0  0  0  0  0  0  0  0  0
  141.5719   79.0406  224.8520 H   0  0  0  0  0  0  0  0  0  0  0  0
  142.5300   81.3101  221.3699 H   0  0  0  0  0  0  0  0  0  0  0  0
  142.0014   79.3557  219.9799 H   0  0  0  0  0  0  0  0  0  0  0  0
  138.7756   69.1133  222.3065 H   0  0  0  0  0  0  0  0  0  0  0  0
  138.7275   67.5173  224.2032 H   0  0  0  0  0  0  0  0  0  0  0  0
  139.2028   67.0482  226.4815 H   0  0  0  0  0  0  0  0  0  0  0  0
  140.1219   67.8185  228.6833 H   0  0  0  0  0  0  0  0  0  0  0  0
  141.0263   70.0894  228.8903 H   0  0  0  0  0  0  0  0  0  0  0  0
  141.0697   71.6697  226.9895 H   0  0  0  0  0  0  0  0  0  0  0  0
  1  2  2  0
  2  3  1  0
  3  4  1  0
  4  5  1  0
  5  6  2  0
  5  7  1  0
  7  8  1  0
  8  9  1  0
  9 10  1  0
 10 11  1  0
 11 12  1  0
 12 13  1  0
 13 14  2  0
 14 15  1  0
 15 16  2  0
 16 17  1  0
 16 18  1  0
 18 19  2  0
  2 20  1  0
 20 21  2  0
 21 22  1  0
 22 23  2  0
 23 24  1  0
 24 25  2  0
 25 26  1  0
 26 27  2  0
 27 28  1  0
 28 29  2  0
 12  7  1  0
 19 13  1  0
 29 20  1  0
 28 23  1  0
  3 30  1  0
  4 31  1  0
  4 32  1  0
  8 33  1  0
  8 34  1  0
  9 35  1  0
  9 36  1  0
 10 37  1  0
 10 38  1  0
 11 39  1  0
 11 40  1  0
 12 41  1  1
 14 42  1  0
 15 43  1  0
 18 44  1  0
 19 45  1  0
 21 46  1  0
 22 47  1  0
 24 48  1  0
 25 49  1  0
 26 50  1  0
 27 51  1  0
M  END
>  <smiles>  (72) 
O=C(NCC(=O)N1CCCCC1c1ccc(Cl)cc1)c1ccc2ccccc2n1

>  <score_type>  (72) 
oracle

>  <origin>  (72) 
autodockgpu

>  <m_score__min__energy>  (72) 
-9.2200000000000006

>  <m_primary>  (72) 
energy

>  <rmsd>  (72) 
1.6183650837520593

>  <m_score__min__rmsd>  (72) 
1.6183650837520593

>  <meeko>  (72) 
{"free_energy": -8.58, "intermolecular_energy": -10.08, "internal_energy": -1.81, "cluster_size": 24, "cluster_id": 2, "rank_in_cluster": 23}

>  <energy>  (72) 
-8.95

>  <cluster_rmsd>  (72) 
1.07

>  <cluster>  (72) 
2

$$$$

     RDKit          3D

 51 54  0  0  0  0  0  0  0  0999 V2000
  140.3120   71.5610  221.3590 O   0  0  0  0  0  0  0  0  0  0  0  0
  139.6080   71.9170  222.3610 C   0  0  0  0  0  0  0  0  0  0  0  0
  138.6590   72.9560  222.1940 N   0  0  0  0  0  0  0  0  0  0  0  0
  138.4870   73.6030  220.9180 C   0  0  0  0  0  0  0  0  0  0  0  0
  138.3860   75.0680  221.1060 C   0  0  0  0  0  0  0  0  0  0  0  0
  137.2560   75.6390  221.1120 O   0  0  0  0  0  0  0  0  0  0  0  0
  139.5150   75.9130  221.2880 N   0  0  0  0  0  0  0  0  0  0  0  0
  139.7060   76.4780  222.6070 C   0  0  0  0  0  0  0  0  0  0  0  0
  141.0010   77.2430  222.6250 C   0  0  0  0  0  0  0  0  0  0  0  0
  141.1390   78.2300  221.5100 C   0  0  0  0  0  0  0  0  0  0  0  0
  140.6120   77.7110  220.2190 C   0  0  0  0  0  0  0  0  0  0  0  0
  140.4540   76.2180  220.2260 C   0  0  1  0  0  0  0  0  0  0  0  0
  141.7060   75.4590  220.2900 C   0  0  0  0  0  0  0  0  0  0  0  0
  142.8590   76.0650  219.8320 C   0  0  0  0  0  0  0  0  0  0  0  0
  144.0770   75.3880  219.8860 C   0  0  0  0  0  0  0  0  0  0  0  0
  144.1810   74.1160  220.3860 C   0  0  0  0  0  0  0  0  0  0  0  0
  145.7210   73.3080  220.4350 Cl  0  0  0  0  0  0  0  0  0  0  0  0
  143.0410   73.5080  220.8440 C   0  0  0  0  0  0  0  0  0  0  0  0
  141.8360   74.1810  220.7900 C   0  0  0  0  0  0  0  0  0  0  0  0
  139.7920   71.2540  223.6500 C   0  0  0  0  0  0  0  0  0  0  0  0
  139.4220   69.9510  223.8180 C   0  0  0  0  0  0  0  0  0  0  0  0
  139.5820   69.2980  225.0180 C   0  0  0  0  0  0  0  0  0  0  0  0
  140.1350   70.0100  226.0680 C   0  0  0  0  0  0  0  0  0  0  0  0
  140.2970   69.3640  227.2720 C   0  0  0  0  0  0  0  0  0  0  0  0
  140.8500   70.0840  228.3120 C   0  0  0  0  0  0  0  0  0  0  0  0
  141.2120   71.3960  228.1080 C   0  0  0  0  0  0  0  0  0  0  0  0
  141.0500   72.0460  226.9030 C   0  0  0  0  0  0  0  0  0  0  0  0
  140.4980   71.3290  225.8620 C   0  0  0  0  0  0  0  0  0  0  0  0
  140.3280   71.9230  224.6890 N   0  0  0  0  0  0  0  0  0  0  0  0
  138.1030   73.2130  223.0550 H   0  0  0  0  0  0  0  0  0  0  0  0
  139.3501   73.3764  220.2748 H   0  0  0  0  0  0  0  0  0  0  0  0
  137.5646   73.2338  220.4459 H   0  0  0  0  0  0  0  0  0  0  0  0
  138.8728   77.1564  222.8426 H   0  0  0  0  0  0  0  0  0  0  0  0
  139.7372   75.6736  223.3567 H   0  0  0  0  0  0  0  0  0  0  0  0
  141.0685   77.7867  223.5788 H   0  0  0  0  0  0  0  0  0  0  0  0
  141.8081   76.5061  222.5000 H   0  0  0  0  0  0  0  0  0  0  0  0
  140.5844   79.1420  221.7759 H   0  0  0  0  0  0  0  0  0  0  0  0
  142.2117   78.4328  221.3750 H   0  0  0  0  0  0  0  0  0  0  0  0
  139.6306   78.1695  220.0278 H   0  0  0  0  0  0  0  0  0  0  0  0
  141.3364   77.9686  219.4323 H   0  0  0  0  0  0  0  0  0  0  0  0
  140.0612   75.8829  219.2547 H   0  0  0  0  0  0  0  0  0  0  0  0
  142.8167   77.0853  219.4231 H   0  0  0  0  0  0  0  0  0  0  0  0
  144.9827   75.8906  219.5157 H   0  0  0  0  0  0  0  0  0  0  0  0
  143.0857   72.4879  221.2530 H   0  0  0  0  0  0  0  0  0  0  0  0
  140.9356   73.6720  221.1645 H   0  0  0  0  0  0  0  0  0  0  0  0
  138.9829   69.4070  222.9687 H   0  0  0  0  0  0  0  0  0  0  0  0
  139.2810   68.2469  225.1388 H   0  0  0  0  0  0  0  0  0  0  0  0
  139.9972   68.3135  227.4010 H   0  0  0  0  0  0  0  0  0  0  0  0
  141.0000   69.6133  229.2948 H   0  0  0  0  0  0  0  0  0  0  0  0
  141.6523   71.9536  228.9478 H   0  0  0  0  0  0  0  0  0  0  0  0
  141.3497   73.0968  226.7765 H   0  0  0  0  0  0  0  0  0  0  0  0
  1  2  2  0
  2  3  1  0
  3  4  1  0
  4  5  1  0
  5  6  2  0
  5  7  1  0
  7  8  1  0
  8  9  1  0
  9 10  1  0
 10 11  1  0
 11 12  1  0
 12 13  1  0
 13 14  2  0
 14 15  1  0
 15 16  2  0
 16 17  1  0
 16 18  1  0
 18 19  2  0
  2 20  1  0
 20 21  2  0
 21 22  1  0
 22 23  2  0
 23 24  1  0
 24 25  2  0
 25 26  1  0
 26 27  2  0
 27 28  1  0
 28 29  2  0
 12  7  1  0
 19 13  1  0
 29 20  1  0
 28 23  1  0
  3 30  1  0
  4 31  1  0
  4 32  1  0
  8 33  1  0
  8 34  1  0
  9 35  1  0
  9 36  1  0
 10 37  1  0
 10 38  1  0
 11 39  1  0
 11 40  1  0
 12 41  1  6
 14 42  1  0
 15 43  1  0
 18 44  1  0
 19 45  1  0
 21 46  1  0
 22 47  1  0
 24 48  1  0
 25 49  1  0
 26 50  1  0
 27 51  1  0
M  END
>  <smiles>  (73) 
O=C(NCC(=O)N1CCCCC1c1ccc(Cl)cc1)c1ccc2ccccc2n1

>  <score_type>  (73) 
oracle

>  <origin>  (73) 
autodockgpu

>  <m_score__min__energy>  (73) 
-9.2200000000000006

>  <m_primary>  (73) 
energy

>  <rmsd>  (73) 
2.5572724815404375

>  <m_score__min__rmsd>  (73) 
2.5572724815404375

>  <meeko>  (73) 
{"free_energy": -8.68, "intermolecular_energy": -10.17, "internal_energy": -1.83, "cluster_size": 10, "cluster_id": 3, "rank_in_cluster": 7}

>  <energy>  (73) 
-8.95

>  <cluster_rmsd>  (73) 
1.32

>  <cluster>  (73) 
2

$$$$

     RDKit          3D

 51 54  0  0  0  0  0  0  0  0999 V2000
  137.3260   76.1630  222.2870 O   0  0  0  0  0  0  0  0  0  0  0  0
  138.5930   76.2830  222.3590 C   0  0  0  0  0  0  0  0  0  0  0  0
  139.4020   75.1400  222.1390 N   0  0  0  0  0  0  0  0  0  0  0  0
  138.8080   73.8620  221.8380 C   0  0  0  0  0  0  0  0  0  0  0  0
  139.7030   72.7730  222.2910 C   0  0  0  0  0  0  0  0  0  0  0  0
  140.9340   72.9930  222.4910 O   0  0  0  0  0  0  0  0  0  0  0  0
  139.2590   71.4430  222.5280 N   0  0  0  0  0  0  0  0  0  0  0  0
  139.7330   70.4210  221.6180 C   0  0  0  0  0  0  0  0  0  0  0  0
  139.2470   69.0810  222.0970 C   0  0  0  0  0  0  0  0  0  0  0  0
  137.7760   69.0280  222.3640 C   0  0  0  0  0  0  0  0  0  0  0  0
  137.2690   70.2680  223.0140 C   0  0  0  0  0  0  0  0  0  0  0  0
  138.3710   71.0880  223.6180 C   0  0  1  0  0  0  0  0  0  0  0  0
  139.0420   70.4770  224.7690 C   0  0  0  0  0  0  0  0  0  0  0  0
  138.4420   69.3900  225.3720 C   0  0  0  0  0  0  0  0  0  0  0  0
  139.0500   68.7670  226.4620 C   0  0  0  0  0  0  0  0  0  0  0  0
  140.2470   69.1990  226.9720 C   0  0  0  0  0  0  0  0  0  0  0  0
  140.9710   68.3930  228.3330 Cl  0  0  0  0  0  0  0  0  0  0  0  0
  140.8490   70.2780  226.3780 C   0  0  0  0  0  0  0  0  0  0  0  0
  140.2450   70.8920  225.2990 C   0  0  0  0  0  0  0  0  0  0  0  0
  139.1840   77.5850  222.6660 C   0  0  0  0  0  0  0  0  0  0  0  0
  138.3860   78.6680  222.9020 C   0  0  0  0  0  0  0  0  0  0  0  0
  138.9100   79.9060  223.1940 C   0  0  0  0  0  0  0  0  0  0  0  0
  140.2880   80.0270  223.2400 C   0  0  0  0  0  0  0  0  0  0  0  0
  140.8190   81.2620  223.5300 C   0  0  0  0  0  0  0  0  0  0  0  0
  142.1950   81.3700  223.5730 C   0  0  0  0  0  0  0  0  0  0  0  0
  142.9670   80.2580  223.3290 C   0  0  0  0  0  0  0  0  0  0  0  0
  142.4390   79.0190  223.0380 C   0  0  0  0  0  0  0  0  0  0  0  0
  141.0640   78.9080  222.9940 C   0  0  0  0  0  0  0  0  0  0  0  0
  140.5210   77.7310  222.7170 N   0  0  0  0  0  0  0  0  0  0  0  0
  140.4440   75.2930  222.2110 H   0  0  0  0  0  0  0  0  0  0  0  0
  137.8406   73.7783  222.3549 H   0  0  0  0  0  0  0  0  0  0  0  0
  138.6566   73.7790  220.7516 H   0  0  0  0  0  0  0  0  0  0  0  0
  139.3433   70.6160  220.6080 H   0  0  0  0  0  0  0  0  0  0  0  0
  140.8325   70.4299  221.5866 H   0  0  0  0  0  0  0  0  0  0  0  0
  139.4865   68.3312  221.3286 H   0  0  0  0  0  0  0  0  0  0  0  0
  139.7518   68.8824  223.0539 H   0  0  0  0  0  0  0  0  0  0  0  0
  137.2489   68.8899  221.4085 H   0  0  0  0  0  0  0  0  0  0  0  0
  137.5915   68.1904  223.0527 H   0  0  0  0  0  0  0  0  0  0  0  0
  136.7495   70.8759  222.2587 H   0  0  0  0  0  0  0  0  0  0  0  0
  136.5902   69.9680  223.8259 H   0  0  0  0  0  0  0  0  0  0  0  0
  137.9487   71.9916  224.0820 H   0  0  0  0  0  0  0  0  0  0  0  0
  137.4809   69.0136  224.9916 H   0  0  0  0  0  0  0  0  0  0  0  0
  138.5536   67.9023  226.9267 H   0  0  0  0  0  0  0  0  0  0  0  0
  141.8099   70.6533  226.7598 H   0  0  0  0  0  0  0  0  0  0  0  0
  140.7487   71.7552  224.8394 H   0  0  0  0  0  0  0  0  0  0  0  0
  137.2936   78.5469  222.8573 H   0  0  0  0  0  0  0  0  0  0  0  0
  138.2563   80.7700  223.3844 H   0  0  0  0  0  0  0  0  0  0  0  0
  140.1721   82.1310  223.7205 H   0  0  0  0  0  0  0  0  0  0  0  0
  142.6693   82.3362  223.8002 H   0  0  0  0  0  0  0  0  0  0  0  0
  144.0613   80.3632  223.3682 H   0  0  0  0  0  0  0  0  0  0  0  0
  143.0884   78.1517  222.8480 H   0  0  0  0  0  0  0  0  0  0  0  0
  1  2  2  0
  2  3  1  0
  3  4  1  0
  4  5  1  0
  5  6  2  0
  5  7  1  0
  7  8  1  0
  8  9  1  0
  9 10  1  0
 10 11  1  0
 11 12  1  0
 12 13  1  0
 13 14  2  0
 14 15  1  0
 15 16  2  0
 16 17  1  0
 16 18  1  0
 18 19  2  0
  2 20  1  0
 20 21  2  0
 21 22  1  0
 22 23  2  0
 23 24  1  0
 24 25  2  0
 25 26  1  0
 26 27  2  0
 27 28  1  0
 28 29  2  0
 12  7  1  0
 19 13  1  0
 29 20  1  0
 28 23  1  0
  3 30  1  0
  4 31  1  0
  4 32  1  0
  8 33  1  0
  8 34  1  0
  9 35  1  0
  9 36  1  0
 10 37  1  0
 10 38  1  0
 11 39  1  0
 11 40  1  0
 12 41  1  1
 14 42  1  0
 15 43  1  0
 18 44  1  0
 19 45  1  0
 21 46  1  0
 22 47  1  0
 24 48  1  0
 25 49  1  0
 26 50  1  0
 27 51  1  0
M  END
>  <smiles>  (74) 
O=C(NCC(=O)N1CCCCC1c1ccc(Cl)cc1)c1ccc2ccccc2n1

>  <score_type>  (74) 
oracle

>  <origin>  (74) 
autodockgpu

>  <m_score__min__energy>  (74) 
-9.2200000000000006

>  <m_primary>  (74) 
energy

>  <rmsd>  (74) 
8.365500195063063

>  <m_score__min__rmsd>  (74) 
8.365500195063063

>  <meeko>  (74) 
{"free_energy": -8.61, "intermolecular_energy": -10.1, "internal_energy": -1.96, "cluster_size": 16, "cluster_id": 1, "rank_in_cluster": 15}

>  <energy>  (74) 
-8.95

>  <cluster_rmsd>  (74) 
1.37

>  <cluster>  (74) 
2

$$$$

     RDKit          3D

 51 54  0  0  0  0  0  0  0  0999 V2000
  140.0910   71.2010  221.2800 O   0  0  0  0  0  0  0  0  0  0  0  0
  139.6280   71.7680  222.3250 C   0  0  0  0  0  0  0  0  0  0  0  0
  138.9180   72.9860  222.1840 N   0  0  0  0  0  0  0  0  0  0  0  0
  138.7190   73.5790  220.8850 C   0  0  0  0  0  0  0  0  0  0  0  0
  138.5610   75.0450  221.0210 C   0  0  0  0  0  0  0  0  0  0  0  0
  137.4090   75.5670  221.0630 O   0  0  0  0  0  0  0  0  0  0  0  0
  139.6590   75.9440  221.1120 N   0  0  0  0  0  0  0  0  0  0  0  0
  139.8080   76.6760  222.3520 C   0  0  0  0  0  0  0  0  0  0  0  0
  141.0770   77.4820  222.2920 C   0  0  0  0  0  0  0  0  0  0  0  0
  141.2030   78.3260  221.0640 C   0  0  0  0  0  0  0  0  0  0  0  0
  140.7170   77.6310  219.8410 C   0  0  0  0  0  0  0  0  0  0  0  0
  140.6070   76.1470  220.0330 C   0  0  1  0  0  0  0  0  0  0  0  0
  141.8820   75.4450  220.2100 C   0  0  0  0  0  0  0  0  0  0  0  0
  141.8520   74.1480  220.6830 C   0  0  0  0  0  0  0  0  0  0  0  0
  143.0380   73.4360  220.8550 C   0  0  0  0  0  0  0  0  0  0  0  0
  144.2620   73.9810  220.5670 C   0  0  0  0  0  0  0  0  0  0  0  0
  145.7180   73.0560  220.7970 Cl  0  0  0  0  0  0  0  0  0  0  0  0
  144.3010   75.2680  220.0970 C   0  0  0  0  0  0  0  0  0  0  0  0
  143.1240   75.9710  219.9270 C   0  0  0  0  0  0  0  0  0  0  0  0
  139.8380   71.1570  223.6360 C   0  0  0  0  0  0  0  0  0  0  0  0
  139.5270   69.8440  223.8450 C   0  0  0  0  0  0  0  0  0  0  0  0
  139.7120   69.2400  225.0670 C   0  0  0  0  0  0  0  0  0  0  0  0
  140.2280   70.0100  226.0950 C   0  0  0  0  0  0  0  0  0  0  0  0
  140.4160   69.4130  227.3200 C   0  0  0  0  0  0  0  0  0  0  0  0
  140.9310   70.1910  228.3360 C   0  0  0  0  0  0  0  0  0  0  0  0
  141.2330   71.5100  228.0890 C   0  0  0  0  0  0  0  0  0  0  0  0
  141.0460   72.1130  226.8630 C   0  0  0  0  0  0  0  0  0  0  0  0
  140.5310   71.3370  225.8460 C   0  0  0  0  0  0  0  0  0  0  0  0
  140.3380   71.8830  224.6530 N   0  0  0  0  0  0  0  0  0  0  0  0
  138.5570   73.4150  223.0790 H   0  0  0  0  0  0  0  0  0  0  0  0
  139.5894   73.3632  220.2480 H   0  0  0  0  0  0  0  0  0  0  0  0
  137.8115   73.1570  220.4286 H   0  0  0  0  0  0  0  0  0  0  0  0
  138.9490   77.3493  222.4890 H   0  0  0  0  0  0  0  0  0  0  0  0
  139.8522   75.9731  223.1970 H   0  0  0  0  0  0  0  0  0  0  0  0
  141.1091   78.1428  223.1708 H   0  0  0  0  0  0  0  0  0  0  0  0
  141.9100   76.7638  222.2719 H   0  0  0  0  0  0  0  0  0  0  0  0
  140.6139   79.2442  221.2053 H   0  0  0  0  0  0  0  0  0  0  0  0
  142.2707   78.5479  220.9197 H   0  0  0  0  0  0  0  0  0  0  0  0
  139.7250   78.0280  219.5795 H   0  0  0  0  0  0  0  0  0  0  0  0
  141.4476   77.8125  219.0389 H   0  0  0  0  0  0  0  0  0  0  0  0
  140.2427   75.6808  219.1057 H   0  0  0  0  0  0  0  0  0  0  0  0
  140.8888   73.6750  220.9249 H   0  0  0  0  0  0  0  0  0  0  0  0
  142.9899   72.4044  221.2337 H   0  0  0  0  0  0  0  0  0  0  0  0
  145.2654   75.7391  219.8562 H   0  0  0  0  0  0  0  0  0  0  0  0
  143.1809   77.0017  219.5469 H   0  0  0  0  0  0  0  0  0  0  0  0
  139.1170   69.2527  223.0130 H   0  0  0  0  0  0  0  0  0  0  0  0
  139.4585   68.1809  225.2220 H   0  0  0  0  0  0  0  0  0  0  0  0
  140.1650   68.3545  227.4833 H   0  0  0  0  0  0  0  0  0  0  0  0
  141.0986   69.7606  229.3343 H   0  0  0  0  0  0  0  0  0  0  0  0
  141.6444   72.1143  228.9109 H   0  0  0  0  0  0  0  0  0  0  0  0
  141.2978   73.1717  226.7025 H   0  0  0  0  0  0  0  0  0  0  0  0
  1  2  2  0
  2  3  1  0
  3  4  1  0
  4  5  1  0
  5  6  2  0
  5  7  1  0
  7  8  1  0
  8  9  1  0
  9 10  1  0
 10 11  1  0
 11 12  1  0
 12 13  1  0
 13 14  2  0
 14 15  1  0
 15 16  2  0
 16 17  1  0
 16 18  1  0
 18 19  2  0
  2 20  1  0
 20 21  2  0
 21 22  1  0
 22 23  2  0
 23 24  1  0
 24 25  2  0
 25 26  1  0
 26 27  2  0
 27 28  1  0
 28 29  2  0
 12  7  1  0
 19 13  1  0
 29 20  1  0
 28 23  1  0
  3 30  1  0
  4 31  1  0
  4 32  1  0
  8 33  1  0
  8 34  1  0
  9 35  1  0
  9 36  1  0
 10 37  1  0
 10 38  1  0
 11 39  1  0
 11 40  1  0
 12 41  1  6
 14 42  1  0
 15 43  1  0
 18 44  1  0
 19 45  1  0
 21 46  1  0
 22 47  1  0
 24 48  1  0
 25 49  1  0
 26 50  1  0
 27 51  1  0
M  END
>  <smiles>  (75) 
O=C(NCC(=O)N1CCCCC1c1ccc(Cl)cc1)c1ccc2ccccc2n1

>  <score_type>  (75) 
oracle

>  <origin>  (75) 
autodockgpu

>  <m_score__min__energy>  (75) 
-9.2200000000000006

>  <m_primary>  (75) 
energy

>  <rmsd>  (75) 
2.4638871467225405

>  <m_score__min__rmsd>  (75) 
2.4638871467225405

>  <meeko>  (75) 
{"free_energy": -8.8, "intermolecular_energy": -10.29, "internal_energy": -1.8, "cluster_size": 10, "cluster_id": 3, "rank_in_cluster": 2}

>  <energy>  (75) 
-8.92

>  <cluster_rmsd>  (75) 
1.33

>  <cluster>  (75) 
2

$$$$

     RDKit          3D

 51 54  0  0  0  0  0  0  0  0999 V2000
  141.3810   72.3190  222.3800 O   0  0  0  0  0  0  0  0  0  0  0  0
  140.3430   72.1800  223.1080 C   0  0  0  0  0  0  0  0  0  0  0  0
  139.1420   72.8200  222.7140 N   0  0  0  0  0  0  0  0  0  0  0  0
  139.0870   73.6160  221.5130 C   0  0  0  0  0  0  0  0  0  0  0  0
  139.8280   74.8820  221.7160 C   0  0  0  0  0  0  0  0  0  0  0  0
  141.0760   74.8710  221.9240 O   0  0  0  0  0  0  0  0  0  0  0  0
  139.2080   76.1630  221.6920 N   0  0  0  0  0  0  0  0  0  0  0  0
  137.9810   76.3120  222.4450 C   0  0  0  0  0  0  0  0  0  0  0  0
  137.5470   77.7510  222.3850 C   0  0  0  0  0  0  0  0  0  0  0  0
  137.4860   78.3110  220.9990 C   0  0  0  0  0  0  0  0  0  0  0  0
  138.6170   77.8500  220.1480 C   0  0  0  0  0  0  0  0  0  0  0  0
  139.7500   77.2900  220.9570 C   0  0  1  0  0  0  0  0  0  0  0  0
  140.4640   78.2640  221.7870 C   0  0  0  0  0  0  0  0  0  0  0  0
  140.5570   79.5640  221.3320 C   0  0  0  0  0  0  0  0  0  0  0  0
  141.2140   80.5300  222.0940 C   0  0  0  0  0  0  0  0  0  0  0  0
  141.7860   80.2360  223.3040 C   0  0  0  0  0  0  0  0  0  0  0  0
  142.5970   81.4720  224.2220 Cl  0  0  0  0  0  0  0  0  0  0  0  0
  141.6980   78.9480  223.7640 C   0  0  0  0  0  0  0  0  0  0  0  0
  141.0460   77.9930  223.0070 C   0  0  0  0  0  0  0  0  0  0  0  0
  140.4100   71.3710  224.3230 C   0  0  0  0  0  0  0  0  0  0  0  0
  141.0190   71.8570  225.4450 C   0  0  0  0  0  0  0  0  0  0  0  0
  141.0990   71.1220  226.6040 C   0  0  0  0  0  0  0  0  0  0  0  0
  140.5390   69.8560  226.6030 C   0  0  0  0  0  0  0  0  0  0  0  0
  140.6160   69.1140  227.7590 C   0  0  0  0  0  0  0  0  0  0  0  0
  140.0530   67.8530  227.7460 C   0  0  0  0  0  0  0  0  0  0  0  0
  139.4480   67.3960  226.5980 C   0  0  0  0  0  0  0  0  0  0  0  0
  139.3690   68.1360  225.4380 C   0  0  0  0  0  0  0  0  0  0  0  0
  139.9300   69.3970  225.4480 C   0  0  0  0  0  0  0  0  0  0  0  0
  139.8740   70.1370  224.3500 N   0  0  0  0  0  0  0  0  0  0  0  0
  138.3120   72.6740  223.3510 H   0  0  0  0  0  0  0  0  0  0  0  0
  139.5416   73.0559  220.6825 H   0  0  0  0  0  0  0  0  0  0  0  0
  138.0373   73.8436  221.2758 H   0  0  0  0  0  0  0  0  0  0  0  0
  137.1998   75.6718  222.0093 H   0  0  0  0  0  0  0  0  0  0  0  0
  138.1461   76.0148  223.4911 H   0  0  0  0  0  0  0  0  0  0  0  0
  136.5459   77.8293  222.8341 H   0  0  0  0  0  0  0  0  0  0  0  0
  138.3030   78.3344  222.9309 H   0  0  0  0  0  0  0  0  0  0  0  0
  136.5415   77.9950  220.5320 H   0  0  0  0  0  0  0  0  0  0  0  0
  137.5515   79.4062  221.0777 H   0  0  0  0  0  0  0  0  0  0  0  0
  138.2503   77.0690  219.4657 H   0  0  0  0  0  0  0  0  0  0  0  0
  138.9980   78.7215  219.5954 H   0  0  0  0  0  0  0  0  0  0  0  0
  140.5569   76.9618  220.2853 H   0  0  0  0  0  0  0  0  0  0  0  0
  140.1112   79.8391  220.3647 H   0  0  0  0  0  0  0  0  0  0  0  0
  141.2749   81.5597  221.7118 H   0  0  0  0  0  0  0  0  0  0  0  0
  142.1444   78.6754  224.7317 H   0  0  0  0  0  0  0  0  0  0  0  0
  140.9886   76.9661  223.3972 H   0  0  0  0  0  0  0  0  0  0  0  0
  141.4579   72.8653  225.4204 H   0  0  0  0  0  0  0  0  0  0  0  0
  141.5910   71.5259  227.5011 H   0  0  0  0  0  0  0  0  0  0  0  0
  141.1075   69.5102  228.6598 H   0  0  0  0  0  0  0  0  0  0  0  0
  140.0880   67.2200  228.6450 H   0  0  0  0  0  0  0  0  0  0  0  0
  139.0050   66.3892  226.6064 H   0  0  0  0  0  0  0  0  0  0  0  0
  138.8776   67.7368  224.5385 H   0  0  0  0  0  0  0  0  0  0  0  0
  1  2  2  0
  2  3  1  0
  3  4  1  0
  4  5  1  0
  5  6  2  0
  5  7  1  0
  7  8  1  0
  8  9  1  0
  9 10  1  0
 10 11  1  0
 11 12  1  0
 12 13  1  0
 13 14  2  0
 14 15  1  0
 15 16  2  0
 16 17  1  0
 16 18  1  0
 18 19  2  0
  2 20  1  0
 20 21  2  0
 21 22  1  0
 22 23  2  0
 23 24  1  0
 24 25  2  0
 25 26  1  0
 26 27  2  0
 27 28  1  0
 28 29  2  0
 12  7  1  0
 19 13  1  0
 29 20  1  0
 28 23  1  0
  3 30  1  0
  4 31  1  0
  4 32  1  0
  8 33  1  0
  8 34  1  0
  9 35  1  0
  9 36  1  0
 10 37  1  0
 10 38  1  0
 11 39  1  0
 11 40  1  0
 12 41  1  6
 14 42  1  0
 15 43  1  0
 18 44  1  0
 19 45  1  0
 21 46  1  0
 22 47  1  0
 24 48  1  0
 25 49  1  0
 26 50  1  0
 27 51  1  0
M  END
>  <smiles>  (76) 
O=C(NCC(=O)N1CCCCC1c1ccc(Cl)cc1)c1ccc2ccccc2n1

>  <score_type>  (76) 
oracle

>  <origin>  (76) 
autodockgpu

>  <m_score__min__energy>  (76) 
-9.2200000000000006

>  <m_primary>  (76) 
energy

>  <rmsd>  (76) 
3.491606255465154

>  <m_score__min__rmsd>  (76) 
3.491606255465154

>  <meeko>  (76) 
{"free_energy": -9.07, "intermolecular_energy": -10.56, "internal_energy": -1.38, "cluster_size": 24, "cluster_id": 2, "rank_in_cluster": 2}

>  <energy>  (76) 
-8.9

>  <cluster_rmsd>  (76) 
1.38

>  <cluster>  (76) 
2

$$$$

     RDKit          3D

 51 54  0  0  0  0  0  0  0  0999 V2000
  137.4600   76.1650  222.2920 O   0  0  0  0  0  0  0  0  0  0  0  0
  138.7270   76.2940  222.3550 C   0  0  0  0  0  0  0  0  0  0  0  0
  139.5430   75.1710  222.0680 N   0  0  0  0  0  0  0  0  0  0  0  0
  138.9570   73.9040  221.7100 C   0  0  0  0  0  0  0  0  0  0  0  0
  139.8200   72.7990  222.1870 C   0  0  0  0  0  0  0  0  0  0  0  0
  141.0600   72.9800  222.3610 O   0  0  0  0  0  0  0  0  0  0  0  0
  139.3310   71.4950  222.4750 N   0  0  0  0  0  0  0  0  0  0  0  0
  139.7460   70.4280  221.5890 C   0  0  0  0  0  0  0  0  0  0  0  0
  139.2200   69.1220  222.1210 C   0  0  0  0  0  0  0  0  0  0  0  0
  137.7550   69.1340  222.4210 C   0  0  0  0  0  0  0  0  0  0  0  0
  137.3090   70.4120  223.0420 C   0  0  0  0  0  0  0  0  0  0  0  0
  138.4550   71.2080  223.5960 C   0  0  1  0  0  0  0  0  0  0  0  0
  139.1290   70.6080  224.7510 C   0  0  0  0  0  0  0  0  0  0  0  0
  138.5380   69.5180  225.3560 C   0  0  0  0  0  0  0  0  0  0  0  0
  139.1490   68.9050  226.4500 C   0  0  0  0  0  0  0  0  0  0  0  0
  140.3400   69.3500  226.9620 C   0  0  0  0  0  0  0  0  0  0  0  0
  141.0680   68.5560  228.3280 Cl  0  0  0  0  0  0  0  0  0  0  0  0
  140.9340   70.4320  226.3660 C   0  0  0  0  0  0  0  0  0  0  0  0
  140.3260   71.0370  225.2820 C   0  0  0  0  0  0  0  0  0  0  0  0
  139.3090   77.5830  222.7200 C   0  0  0  0  0  0  0  0  0  0  0  0
  138.5060   78.6310  223.0700 C   0  0  0  0  0  0  0  0  0  0  0  0
  139.0220   79.8570  223.4190 C   0  0  0  0  0  0  0  0  0  0  0  0
  140.3990   80.0040  223.4050 C   0  0  0  0  0  0  0  0  0  0  0  0
  140.9220   81.2280  223.7520 C   0  0  0  0  0  0  0  0  0  0  0  0
  142.2960   81.3610  223.7340 C   0  0  0  0  0  0  0  0  0  0  0  0
  143.0750   80.2840  223.3770 C   0  0  0  0  0  0  0  0  0  0  0  0
  142.5530   79.0570  223.0280 C   0  0  0  0  0  0  0  0  0  0  0  0
  141.1810   78.9200  223.0450 C   0  0  0  0  0  0  0  0  0  0  0  0
  140.6450   77.7540  222.7150 N   0  0  0  0  0  0  0  0  0  0  0  0
  140.5850   75.3300  222.1350 H   0  0  0  0  0  0  0  0  0  0  0  0
  137.9633   73.8173  222.1736 H   0  0  0  0  0  0  0  0  0  0  0  0
  138.8622   73.8441  220.6157 H   0  0  0  0  0  0  0  0  0  0  0  0
  139.3420   70.6061  220.5815 H   0  0  0  0  0  0  0  0  0  0  0  0
  140.8441   70.3938  221.5347 H   0  0  0  0  0  0  0  0  0  0  0  0
  139.4134   68.3402  221.3718 H   0  0  0  0  0  0  0  0  0  0  0  0
  139.7385   68.9337  223.0727 H   0  0  0  0  0  0  0  0  0  0  0  0
  137.2017   68.9865  221.4818 H   0  0  0  0  0  0  0  0  0  0  0  0
  137.5552   68.3261  223.1402 H   0  0  0  0  0  0  0  0  0  0  0  0
  136.7955   71.0155  222.2790 H   0  0  0  0  0  0  0  0  0  0  0  0
  136.6377   70.1634  223.8772 H   0  0  0  0  0  0  0  0  0  0  0  0
  138.0777   72.1408  224.0404 H   0  0  0  0  0  0  0  0  0  0  0  0
  137.5817   69.1310  224.9744 H   0  0  0  0  0  0  0  0  0  0  0  0
  138.6596   68.0373  226.9164 H   0  0  0  0  0  0  0  0  0  0  0  0
  141.8906   70.8173  226.7487 H   0  0  0  0  0  0  0  0  0  0  0  0
  140.8221   71.9036  224.8205 H   0  0  0  0  0  0  0  0  0  0  0  0
  137.4150   78.4903  223.0728 H   0  0  0  0  0  0  0  0  0  0  0  0
  138.3636   80.6923  223.6997 H   0  0  0  0  0  0  0  0  0  0  0  0
  140.2705   82.0685  224.0330 H   0  0  0  0  0  0  0  0  0  0  0  0
  142.7641   82.3195  224.0026 H   0  0  0  0  0  0  0  0  0  0  0  0
  144.1679   80.4086  223.3698 H   0  0  0  0  0  0  0  0  0  0  0  0
  143.2066   78.2182  222.7464 H   0  0  0  0  0  0  0  0  0  0  0  0
  1  2  2  0
  2  3  1  0
  3  4  1  0
  4  5  1  0
  5  6  2  0
  5  7  1  0
  7  8  1  0
  8  9  1  0
  9 10  1  0
 10 11  1  0
 11 12  1  0
 12 13  1  0
 13 14  2  0
 14 15  1  0
 15 16  2  0
 16 17  1  0
 16 18  1  0
 18 19  2  0
  2 20  1  0
 20 21  2  0
 21 22  1  0
 22 23  2  0
 23 24  1  0
 24 25  2  0
 25 26  1  0
 26 27  2  0
 27 28  1  0
 28 29  2  0
 12  7  1  0
 19 13  1  0
 29 20  1  0
 28 23  1  0
  3 30  1  0
  4 31  1  0
  4 32  1  0
  8 33  1  0
  8 34  1  0
  9 35  1  0
  9 36  1  0
 10 37  1  0
 10 38  1  0
 11 39  1  0
 11 40  1  0
 12 41  1  1
 14 42  1  0
 15 43  1  0
 18 44  1  0
 19 45  1  0
 21 46  1  0
 22 47  1  0
 24 48  1  0
 25 49  1  0
 26 50  1  0
 27 51  1  0
M  END
>  <smiles>  (77) 
O=C(NCC(=O)N1CCCCC1c1ccc(Cl)cc1)c1ccc2ccccc2n1

>  <score_type>  (77) 
oracle

>  <origin>  (77) 
autodockgpu

>  <m_score__min__energy>  (77) 
-9.2200000000000006

>  <m_primary>  (77) 
energy

>  <rmsd>  (77) 
8.328355964886393

>  <m_score__min__rmsd>  (77) 
8.328355964886393

>  <meeko>  (77) 
{"free_energy": -8.77, "intermolecular_energy": -10.26, "internal_energy": -1.89, "cluster_size": 16, "cluster_id": 1, "rank_in_cluster": 3}

>  <energy>  (77) 
-8.9

>  <cluster_rmsd>  (77) 
0.97

>  <cluster>  (77) 
2

$$$$

     RDKit          3D

 51 54  0  0  0  0  0  0  0  0999 V2000
  139.8730   71.0120  221.2540 O   0  0  0  0  0  0  0  0  0  0  0  0
  139.5480   71.6740  222.2950 C   0  0  0  0  0  0  0  0  0  0  0  0
  138.9570   72.9520  222.1350 N   0  0  0  0  0  0  0  0  0  0  0  0
  138.7230   73.4990  220.8230 C   0  0  0  0  0  0  0  0  0  0  0  0
  138.5700   74.9690  220.9110 C   0  0  0  0  0  0  0  0  0  0  0  0
  137.4280   75.5050  220.8060 O   0  0  0  0  0  0  0  0  0  0  0  0
  139.6620   75.8580  221.1140 N   0  0  0  0  0  0  0  0  0  0  0  0
  139.7750   76.4710  222.4210 C   0  0  0  0  0  0  0  0  0  0  0  0
  141.0430   77.2800  222.4690 C   0  0  0  0  0  0  0  0  0  0  0  0
  141.1980   78.2350  221.3290 C   0  0  0  0  0  0  0  0  0  0  0  0
  140.7460   77.6570  220.0340 C   0  0  0  0  0  0  0  0  0  0  0  0
  140.6370   76.1610  220.0840 C   0  0  1  0  0  0  0  0  0  0  0  0
  141.9090   75.4480  220.2280 C   0  0  0  0  0  0  0  0  0  0  0  0
  141.8780   74.1460  220.6880 C   0  0  0  0  0  0  0  0  0  0  0  0
  143.0620   73.4230  220.8290 C   0  0  0  0  0  0  0  0  0  0  0  0
  144.2850   73.9610  220.5230 C   0  0  0  0  0  0  0  0  0  0  0  0
  145.7370   73.0230  220.7140 Cl  0  0  0  0  0  0  0  0  0  0  0  0
  144.3240   75.2530  220.0650 C   0  0  0  0  0  0  0  0  0  0  0  0
  143.1500   75.9670  219.9260 C   0  0  0  0  0  0  0  0  0  0  0  0
  139.7910   71.1090  223.6210 C   0  0  0  0  0  0  0  0  0  0  0  0
  139.5000   69.8000  223.8790 C   0  0  0  0  0  0  0  0  0  0  0  0
  139.7170   69.2370  225.1150 C   0  0  0  0  0  0  0  0  0  0  0  0
  140.2450   70.0460  226.1070 C   0  0  0  0  0  0  0  0  0  0  0  0
  140.4630   69.4910  227.3460 C   0  0  0  0  0  0  0  0  0  0  0  0
  140.9900   70.3080  228.3270 C   0  0  0  0  0  0  0  0  0  0  0  0
  141.2710   71.6220  228.0310 C   0  0  0  0  0  0  0  0  0  0  0  0
  141.0530   72.1820  226.7900 C   0  0  0  0  0  0  0  0  0  0  0  0
  140.5270   71.3680  225.8090 C   0  0  0  0  0  0  0  0  0  0  0  0
  140.3030   71.8730  224.6030 N   0  0  0  0  0  0  0  0  0  0  0  0
  138.7080   73.4580  223.0280 H   0  0  0  0  0  0  0  0  0  0  0  0
  139.5754   73.2592  220.1703 H   0  0  0  0  0  0  0  0  0  0  0  0
  137.8027   73.0629  220.4072 H   0  0  0  0  0  0  0  0  0  0  0  0
  138.9104   77.1279  222.5973 H   0  0  0  0  0  0  0  0  0  0  0  0
  139.7984   75.6928  223.1981 H   0  0  0  0  0  0  0  0  0  0  0  0
  141.0508   77.8558  223.4062 H   0  0  0  0  0  0  0  0  0  0  0  0
  141.8782   76.5672  222.4031 H   0  0  0  0  0  0  0  0  0  0  0  0
  140.6025   79.1355  221.5401 H   0  0  0  0  0  0  0  0  0  0  0  0
  142.2684   78.4701  221.2339 H   0  0  0  0  0  0  0  0  0  0  0  0
  139.7595   78.0753  219.7853 H   0  0  0  0  0  0  0  0  0  0  0  0
  141.4958   77.9140  219.2713 H   0  0  0  0  0  0  0  0  0  0  0  0
  140.2991   75.7818  219.1083 H   0  0  0  0  0  0  0  0  0  0  0  0
  140.9161   73.6779  220.9440 H   0  0  0  0  0  0  0  0  0  0  0  0
  143.0129   72.3878  221.1976 H   0  0  0  0  0  0  0  0  0  0  0  0
  145.2870   75.7191  219.8092 H   0  0  0  0  0  0  0  0  0  0  0  0
  143.2080   77.0013  219.5559 H   0  0  0  0  0  0  0  0  0  0  0  0
  139.0799   69.1778  223.0750 H   0  0  0  0  0  0  0  0  0  0  0  0
  139.4793   68.1806  225.3088 H   0  0  0  0  0  0  0  0  0  0  0  0
  140.2265   68.4359  227.5483 H   0  0  0  0  0  0  0  0  0  0  0  0
  141.1832   69.9121  229.3349 H   0  0  0  0  0  0  0  0  0  0  0  0
  141.6907   72.2578  228.8244 H   0  0  0  0  0  0  0  0  0  0  0  0
  141.2896   73.2375  226.5902 H   0  0  0  0  0  0  0  0  0  0  0  0
  1  2  2  0
  2  3  1  0
  3  4  1  0
  4  5  1  0
  5  6  2  0
  5  7  1  0
  7  8  1  0
  8  9  1  0
  9 10  1  0
 10 11  1  0
 11 12  1  0
 12 13  1  0
 13 14  2  0
 14 15  1  0
 15 16  2  0
 16 17  1  0
 16 18  1  0
 18 19  2  0
  2 20  1  0
 20 21  2  0
 21 22  1  0
 22 23  2  0
 23 24  1  0
 24 25  2  0
 25 26  1  0
 26 27  2  0
 27 28  1  0
 28 29  2  0
 12  7  1  0
 19 13  1  0
 29 20  1  0
 28 23  1  0
  3 30  1  0
  4 31  1  0
  4 32  1  0
  8 33  1  0
  8 34  1  0
  9 35  1  0
  9 36  1  0
 10 37  1  0
 10 38  1  0
 11 39  1  0
 11 40  1  0
 12 41  1  6
 14 42  1  0
 15 43  1  0
 18 44  1  0
 19 45  1  0
 21 46  1  0
 22 47  1  0
 24 48  1  0
 25 49  1  0
 26 50  1  0
 27 51  1  0
M  END
>  <smiles>  (78) 
O=C(NCC(=O)N1CCCCC1c1ccc(Cl)cc1)c1ccc2ccccc2n1

>  <score_type>  (78) 
oracle

>  <origin>  (78) 
autodockgpu

>  <m_score__min__energy>  (78) 
-9.2200000000000006

>  <m_primary>  (78) 
energy

>  <rmsd>  (78) 
2.498371753033827

>  <m_score__min__rmsd>  (78) 
2.498371753033827

>  <meeko>  (78) 
{"free_energy": -8.69, "intermolecular_energy": -10.19, "internal_energy": -1.84, "cluster_size": 10, "cluster_id": 3, "rank_in_cluster": 6}

>  <energy>  (78) 
-8.9

>  <cluster_rmsd>  (78) 
1.14

>  <cluster>  (78) 
2

$$$$

     RDKit          3D

 51 54  0  0  0  0  0  0  0  0999 V2000
  137.5060   71.3200  222.5040 O   0  0  0  0  0  0  0  0  0  0  0  0
  138.6140   71.4980  223.1090 C   0  0  0  0  0  0  0  0  0  0  0  0
  139.4270   72.5980  222.7350 N   0  0  0  0  0  0  0  0  0  0  0  0
  139.0130   73.5020  221.6920 C   0  0  0  0  0  0  0  0  0  0  0  0
  139.9620   74.6350  221.6030 C   0  0  0  0  0  0  0  0  0  0  0  0
  141.1620   74.5000  221.9820 O   0  0  0  0  0  0  0  0  0  0  0  0
  139.6040   75.9170  221.1020 N   0  0  0  0  0  0  0  0  0  0  0  0
  138.2240   76.3230  221.2650 C   0  0  0  0  0  0  0  0  0  0  0  0
  138.0730   77.7380  220.7760 C   0  0  0  0  0  0  0  0  0  0  0  0
  138.6210   77.9680  219.4040 C   0  0  0  0  0  0  0  0  0  0  0  0
  139.9010   77.2450  219.1710 C   0  0  0  0  0  0  0  0  0  0  0  0
  140.5490   76.8040  220.4520 C   0  0  1  0  0  0  0  0  0  0  0  0
  141.0440   77.8890  221.3040 C   0  0  0  0  0  0  0  0  0  0  0  0
  140.9840   77.7200  222.6730 C   0  0  0  0  0  0  0  0  0  0  0  0
  141.4560   78.7180  223.5250 C   0  0  0  0  0  0  0  0  0  0  0  0
  141.9890   79.8880  223.0500 C   0  0  0  0  0  0  0  0  0  0  0  0
  142.5660   81.1070  224.1490 Cl  0  0  0  0  0  0  0  0  0  0  0  0
  142.0530   80.0630  221.6920 C   0  0  0  0  0  0  0  0  0  0  0  0
  141.5850   79.0720  220.8510 C   0  0  0  0  0  0  0  0  0  0  0  0
  139.0230   70.5750  224.1650 C   0  0  0  0  0  0  0  0  0  0  0  0
  138.7660   69.2380  224.0530 C   0  0  0  0  0  0  0  0  0  0  0  0
  139.1380   68.3430  225.0290 C   0  0  0  0  0  0  0  0  0  0  0  0
  139.7890   68.8410  226.1450 C   0  0  0  0  0  0  0  0  0  0  0  0
  140.1630   67.9510  227.1260 C   0  0  0  0  0  0  0  0  0  0  0  0
  140.8110   68.4590  228.2340 C   0  0  0  0  0  0  0  0  0  0  0  0
  141.0540   69.8110  228.3120 C   0  0  0  0  0  0  0  0  0  0  0  0
  140.6800   70.7060  227.3320 C   0  0  0  0  0  0  0  0  0  0  0  0
  140.0320   70.2010  226.2240 C   0  0  0  0  0  0  0  0  0  0  0  0
  139.6580   71.0320  225.2610 N   0  0  0  0  0  0  0  0  0  0  0  0
  140.3340   72.7010  223.2660 H   0  0  0  0  0  0  0  0  0  0  0  0
  138.9930   72.9664  220.7314 H   0  0  0  0  0  0  0  0  0  0  0  0
  138.0089   73.8871  221.9232 H   0  0  0  0  0  0  0  0  0  0  0  0
  137.5716   75.6582  220.6798 H   0  0  0  0  0  0  0  0  0  0  0  0
  137.9397   76.2622  222.3259 H   0  0  0  0  0  0  0  0  0  0  0  0
  137.0020   77.9888  220.7674 H   0  0  0  0  0  0  0  0  0  0  0  0
  138.6512   78.3754  221.4611 H   0  0  0  0  0  0  0  0  0  0  0  0
  137.8816   77.6222  218.6666 H   0  0  0  0  0  0  0  0  0  0  0  0
  138.8227   79.0445  219.3016 H   0  0  0  0  0  0  0  0  0  0  0  0
  139.6984   76.3575  218.5535 H   0  0  0  0  0  0  0  0  0  0  0  0
  140.5910   77.9373  218.6663 H   0  0  0  0  0  0  0  0  0  0  0  0
  141.4865   76.2731  220.2299 H   0  0  0  0  0  0  0  0  0  0  0  0
  140.5624   76.7949  223.0931 H   0  0  0  0  0  0  0  0  0  0  0  0
  141.3988   78.5613  224.6123 H   0  0  0  0  0  0  0  0  0  0  0  0
  142.4752   80.9886  221.2737 H   0  0  0  0  0  0  0  0  0  0  0  0
  141.6475   79.2358  219.7651 H   0  0  0  0  0  0  0  0  0  0  0  0
  138.2470   68.8667  223.1570 H   0  0  0  0  0  0  0  0  0  0  0  0
  138.9256   67.2686  224.9265 H   0  0  0  0  0  0  0  0  0  0  0  0
  139.9534   66.8754  227.0307 H   0  0  0  0  0  0  0  0  0  0  0  0
  141.1299   67.7895  229.0465 H   0  0  0  0  0  0  0  0  0  0  0  0
  141.5731   70.1976  229.2014 H   0  0  0  0  0  0  0  0  0  0  0  0
  140.8903   71.7813  227.4300 H   0  0  0  0  0  0  0  0  0  0  0  0
  1  2  2  0
  2  3  1  0
  3  4  1  0
  4  5  1  0
  5  6  2  0
  5  7  1  0
  7  8  1  0
  8  9  1  0
  9 10  1  0
 10 11  1  0
 11 12  1  0
 12 13  1  0
 13 14  2  0
 14 15  1  0
 15 16  2  0
 16 17  1  0
 16 18  1  0
 18 19  2  0
  2 20  1  0
 20 21  2  0
 21 22  1  0
 22 23  2  0
 23 24  1  0
 24 25  2  0
 25 26  1  0
 26 27  2  0
 27 28  1  0
 28 29  2  0
 12  7  1  0
 19 13  1  0
 29 20  1  0
 28 23  1  0
  3 30  1  0
  4 31  1  0
  4 32  1  0
  8 33  1  0
  8 34  1  0
  9 35  1  0
  9 36  1  0
 10 37  1  0
 10 38  1  0
 11 39  1  0
 11 40  1  0
 12 41  1  6
 14 42  1  0
 15 43  1  0
 18 44  1  0
 19 45  1  0
 21 46  1  0
 22 47  1  0
 24 48  1  0
 25 49  1  0
 26 50  1  0
 27 51  1  0
M  END
>  <smiles>  (79) 
O=C(NCC(=O)N1CCCCC1c1ccc(Cl)cc1)c1ccc2ccccc2n1

>  <score_type>  (79) 
oracle

>  <origin>  (79) 
autodockgpu

>  <m_score__min__energy>  (79) 
-9.2200000000000006

>  <m_primary>  (79) 
energy

>  <rmsd>  (79) 
1.9575028687862874

>  <m_score__min__rmsd>  (79) 
1.9575028687862874

>  <meeko>  (79) 
{"free_energy": -8.61, "intermolecular_energy": -10.1, "internal_energy": -1.88, "cluster_size": 24, "cluster_id": 2, "rank_in_cluster": 21}

>  <energy>  (79) 
-8.87

>  <cluster_rmsd>  (79) 
1.17

>  <cluster>  (79) 
2

$$$$

     RDKit          3D

 51 54  0  0  0  0  0  0  0  0999 V2000
  139.8400   70.9950  221.2660 O   0  0  0  0  0  0  0  0  0  0  0  0
  139.5300   71.6630  222.3080 C   0  0  0  0  0  0  0  0  0  0  0  0
  138.9340   72.9390  222.1470 N   0  0  0  0  0  0  0  0  0  0  0  0
  138.6810   73.4780  220.8340 C   0  0  0  0  0  0  0  0  0  0  0  0
  138.5650   74.9520  220.9100 C   0  0  0  0  0  0  0  0  0  0  0  0
  137.4510   75.5200  220.7130 O   0  0  0  0  0  0  0  0  0  0  0  0
  139.6620   75.8090  221.1990 N   0  0  0  0  0  0  0  0  0  0  0  0
  139.7640   76.3110  222.5530 C   0  0  0  0  0  0  0  0  0  0  0  0
  141.0380   77.1000  222.6850 C   0  0  0  0  0  0  0  0  0  0  0  0
  141.2180   78.1440  221.6290 C   0  0  0  0  0  0  0  0  0  0  0  0
  140.7780   77.6790  220.2850 C   0  0  0  0  0  0  0  0  0  0  0  0
  140.6540   76.1850  220.2100 C   0  0  1  0  0  0  0  0  0  0  0  0
  141.9170   75.4490  220.3110 C   0  0  0  0  0  0  0  0  0  0  0  0
  141.8750   74.1400  220.7480 C   0  0  0  0  0  0  0  0  0  0  0  0
  143.0500   73.3950  220.8470 C   0  0  0  0  0  0  0  0  0  0  0  0
  144.2740   73.9190  220.5230 C   0  0  0  0  0  0  0  0  0  0  0  0
  145.7150   72.9540  220.6620 Cl  0  0  0  0  0  0  0  0  0  0  0  0
  144.3240   75.2180  220.0890 C   0  0  0  0  0  0  0  0  0  0  0  0
  143.1590   75.9540  219.9900 C   0  0  0  0  0  0  0  0  0  0  0  0
  139.7920   71.1080  223.6330 C   0  0  0  0  0  0  0  0  0  0  0  0
  139.5220   69.7960  223.8990 C   0  0  0  0  0  0  0  0  0  0  0  0
  139.7570   69.2420  225.1360 C   0  0  0  0  0  0  0  0  0  0  0  0
  140.2820   70.0630  226.1200 C   0  0  0  0  0  0  0  0  0  0  0  0
  140.5200   69.5160  227.3590 C   0  0  0  0  0  0  0  0  0  0  0  0
  141.0430   70.3450  228.3320 C   0  0  0  0  0  0  0  0  0  0  0  0
  141.3030   71.6610  228.0280 C   0  0  0  0  0  0  0  0  0  0  0  0
  141.0660   72.2130  226.7870 C   0  0  0  0  0  0  0  0  0  0  0  0
  140.5430   71.3870  225.8130 C   0  0  0  0  0  0  0  0  0  0  0  0
  140.3020   71.8830  224.6080 N   0  0  0  0  0  0  0  0  0  0  0  0
  138.6970   73.4520  223.0400 H   0  0  0  0  0  0  0  0  0  0  0  0
  139.5114   73.2112  220.1637 H   0  0  0  0  0  0  0  0  0  0  0  0
  137.7410   73.0596  220.4449 H   0  0  0  0  0  0  0  0  0  0  0  0
  138.9033   76.9600  222.7721 H   0  0  0  0  0  0  0  0  0  0  0  0
  139.7706   75.4706  223.2627 H   0  0  0  0  0  0  0  0  0  0  0  0
  141.0372   77.5969  223.6664 H   0  0  0  0  0  0  0  0  0  0  0  0
  141.8678   76.3867  222.5727 H   0  0  0  0  0  0  0  0  0  0  0  0
  140.6286   79.0306  221.9057 H   0  0  0  0  0  0  0  0  0  0  0  0
  142.2918   78.3745  221.5673 H   0  0  0  0  0  0  0  0  0  0  0  0
  139.7990   78.1267  220.0591 H   0  0  0  0  0  0  0  0  0  0  0  0
  141.5406   77.9898  219.5557 H   0  0  0  0  0  0  0  0  0  0  0  0
  140.3260   75.8907  219.2021 H   0  0  0  0  0  0  0  0  0  0  0  0
  140.9117   73.6831  221.0190 H   0  0  0  0  0  0  0  0  0  0  0  0
  142.9923   72.3535  221.1963 H   0  0  0  0  0  0  0  0  0  0  0  0
  145.2887   75.6732  219.8203 H   0  0  0  0  0  0  0  0  0  0  0  0
  143.2257   76.9940  219.6378 H   0  0  0  0  0  0  0  0  0  0  0  0
  139.1046   69.1641  223.1012 H   0  0  0  0  0  0  0  0  0  0  0  0
  139.5356   68.1834  225.3367 H   0  0  0  0  0  0  0  0  0  0  0  0
  140.3021   68.4581  227.5673 H   0  0  0  0  0  0  0  0  0  0  0  0
  141.2496   69.9566  229.3402 H   0  0  0  0  0  0  0  0  0  0  0  0
  141.7212   72.3058  228.8149 H   0  0  0  0  0  0  0  0  0  0  0  0
  141.2853   73.2711  226.5812 H   0  0  0  0  0  0  0  0  0  0  0  0
  1  2  2  0
  2  3  1  0
  3  4  1  0
  4  5  1  0
  5  6  2  0
  5  7  1  0
  7  8  1  0
  8  9  1  0
  9 10  1  0
 10 11  1  0
 11 12  1  0
 12 13  1  0
 13 14  2  0
 14 15  1  0
 15 16  2  0
 16 17  1  0
 16 18  1  0
 18 19  2  0
  2 20  1  0
 20 21  2  0
 21 22  1  0
 22 23  2  0
 23 24  1  0
 24 25  2  0
 25 26  1  0
 26 27  2  0
 27 28  1  0
 28 29  2  0
 12  7  1  0
 19 13  1  0
 29 20  1  0
 28 23  1  0
  3 30  1  0
  4 31  1  0
  4 32  1  0
  8 33  1  0
  8 34  1  0
  9 35  1  0
  9 36  1  0
 10 37  1  0
 10 38  1  0
 11 39  1  0
 11 40  1  0
 12 41  1  6
 14 42  1  0
 15 43  1  0
 18 44  1  0
 19 45  1  0
 21 46  1  0
 22 47  1  0
 24 48  1  0
 25 49  1  0
 26 50  1  0
 27 51  1  0
M  END
>  <smiles>  (80) 
O=C(NCC(=O)N1CCCCC1c1ccc(Cl)cc1)c1ccc2ccccc2n1

>  <score_type>  (80) 
oracle

>  <origin>  (80) 
autodockgpu

>  <m_score__min__energy>  (80) 
-9.2200000000000006

>  <m_primary>  (80) 
energy

>  <rmsd>  (80) 
2.5588638098278143

>  <m_score__min__rmsd>  (80) 
2.5588638098278143

>  <meeko>  (80) 
{"free_energy": -8.6, "intermolecular_energy": -10.09, "internal_energy": -1.9, "cluster_size": 10, "cluster_id": 3, "rank_in_cluster": 9}

>  <energy>  (80) 
-8.86

>  <cluster_rmsd>  (80) 
1.31

>  <cluster>  (80) 
2

$$$$

     RDKit          3D

 51 54  0  0  0  0  0  0  0  0999 V2000
  140.1030   75.6060  220.3040 O   0  0  0  0  0  0  0  0  0  0  0  0
  139.7480   75.8220  221.5110 C   0  0  0  0  0  0  0  0  0  0  0  0
  139.1240   74.7770  222.2360 N   0  0  0  0  0  0  0  0  0  0  0  0
  138.8900   73.4910  221.6280 C   0  0  0  0  0  0  0  0  0  0  0  0
  139.6560   72.4480  222.3470 C   0  0  0  0  0  0  0  0  0  0  0  0
  140.8290   72.6830  222.7620 O   0  0  0  0  0  0  0  0  0  0  0  0
  139.1450   71.1480  222.6150 N   0  0  0  0  0  0  0  0  0  0  0  0
  139.5440   70.0880  221.7130 C   0  0  0  0  0  0  0  0  0  0  0  0
  138.9960   68.7830  222.2240 C   0  0  0  0  0  0  0  0  0  0  0  0
  137.5310   68.8150  222.5220 C   0  0  0  0  0  0  0  0  0  0  0  0
  137.1050   70.0910  223.1620 C   0  0  0  0  0  0  0  0  0  0  0  0
  138.2630   70.8590  223.7290 C   0  0  1  0  0  0  0  0  0  0  0  0
  138.9250   70.2310  224.8760 C   0  0  0  0  0  0  0  0  0  0  0  0
  139.9680   70.9080  225.4770 C   0  0  0  0  0  0  0  0  0  0  0  0
  140.6190   70.3570  226.5800 C   0  0  0  0  0  0  0  0  0  0  0  0
  140.2610   69.1430  227.1050 C   0  0  0  0  0  0  0  0  0  0  0  0
  141.1010   68.4920  228.4830 Cl  0  0  0  0  0  0  0  0  0  0  0  0
  139.2260   68.4650  226.5150 C   0  0  0  0  0  0  0  0  0  0  0  0
  138.5820   69.0130  225.4220 C   0  0  0  0  0  0  0  0  0  0  0  0
  139.9890   77.1290  222.1160 C   0  0  0  0  0  0  0  0  0  0  0  0
  138.9550   77.8490  222.6440 C   0  0  0  0  0  0  0  0  0  0  0  0
  139.1490   79.0820  223.2210 C   0  0  0  0  0  0  0  0  0  0  0  0
  140.4390   79.5830  223.2520 C   0  0  0  0  0  0  0  0  0  0  0  0
  140.6400   80.8170  223.8270 C   0  0  0  0  0  0  0  0  0  0  0  0
  141.9300   81.3060  223.8520 C   0  0  0  0  0  0  0  0  0  0  0  0
  142.9480   80.5530  223.3110 C   0  0  0  0  0  0  0  0  0  0  0  0
  142.7500   79.3170  222.7340 C   0  0  0  0  0  0  0  0  0  0  0  0
  141.4610   78.8260  222.7080 C   0  0  0  0  0  0  0  0  0  0  0  0
  141.2340   77.6410  222.1600 N   0  0  0  0  0  0  0  0  0  0  0  0
  138.8490   75.0070  223.2300 H   0  0  0  0  0  0  0  0  0  0  0  0
  137.8169   73.2543  221.6765 H   0  0  0  0  0  0  0  0  0  0  0  0
  139.2164   73.5216  220.5780 H   0  0  0  0  0  0  0  0  0  0  0  0
  139.1445   70.2882  220.7078 H   0  0  0  0  0  0  0  0  0  0  0  0
  140.6415   70.0367  221.6596 H   0  0  0  0  0  0  0  0  0  0  0  0
  139.1776   68.0096  221.4631 H   0  0  0  0  0  0  0  0  0  0  0  0
  139.5099   68.5713  223.1733 H   0  0  0  0  0  0  0  0  0  0  0  0
  136.9769   68.6911  221.5799 H   0  0  0  0  0  0  0  0  0  0  0  0
  137.3166   67.9997  223.2286 H   0  0  0  0  0  0  0  0  0  0  0  0
  136.6026   70.7144  222.4077 H   0  0  0  0  0  0  0  0  0  0  0  0
  136.4284   69.8411  223.9925 H   0  0  0  0  0  0  0  0  0  0  0  0
  137.9002   71.7913  224.1864 H   0  0  0  0  0  0  0  0  0  0  0  0
  140.2861   71.8850  225.0842 H   0  0  0  0  0  0  0  0  0  0  0  0
  141.4462   70.9146  227.0435 H   0  0  0  0  0  0  0  0  0  0  0  0
  138.9093   67.4885  226.9101 H   0  0  0  0  0  0  0  0  0  0  0  0
  137.7551   68.4494  224.9654 H   0  0  0  0  0  0  0  0  0  0  0  0
  137.9384   77.4305  222.6065 H   0  0  0  0  0  0  0  0  0  0  0  0
  138.3077   79.6509  223.6436 H   0  0  0  0  0  0  0  0  0  0  0  0
  139.8035   81.3920  224.2508 H   0  0  0  0  0  0  0  0  0  0  0  0
  142.1431   82.2879  224.2998 H   0  0  0  0  0  0  0  0  0  0  0  0
  143.9703   80.9581  223.3408 H   0  0  0  0  0  0  0  0  0  0  0  0
  143.5879   78.7439  222.3103 H   0  0  0  0  0  0  0  0  0  0  0  0
  1  2  2  0
  2  3  1  0
  3  4  1  0
  4  5  1  0
  5  6  2  0
  5  7  1  0
  7  8  1  0
  8  9  1  0
  9 10  1  0
 10 11  1  0
 11 12  1  0
 12 13  1  0
 13 14  2  0
 14 15  1  0
 15 16  2  0
 16 17  1  0
 16 18  1  0
 18 19  2  0
  2 20  1  0
 20 21  2  0
 21 22  1  0
 22 23  2  0
 23 24  1  0
 24 25  2  0
 25 26  1  0
 26 27  2  0
 27 28  1  0
 28 29  2  0
 12  7  1  0
 19 13  1  0
 29 20  1  0
 28 23  1  0
  3 30  1  0
  4 31  1  0
  4 32  1  0
  8 33  1  0
  8 34  1  0
  9 35  1  0
  9 36  1  0
 10 37  1  0
 10 38  1  0
 11 39  1  0
 11 40  1  0
 12 41  1  1
 14 42  1  0
 15 43  1  0
 18 44  1  0
 19 45  1  0
 21 46  1  0
 22 47  1  0
 24 48  1  0
 25 49  1  0
 26 50  1  0
 27 51  1  0
M  END
>  <smiles>  (81) 
O=C(NCC(=O)N1CCCCC1c1ccc(Cl)cc1)c1ccc2ccccc2n1

>  <score_type>  (81) 
oracle

>  <origin>  (81) 
autodockgpu

>  <m_score__min__energy>  (81) 
-9.2200000000000006

>  <m_primary>  (81) 
energy

>  <rmsd>  (81) 
8.271114072401762

>  <m_score__min__rmsd>  (81) 
8.271114072401762

>  <meeko>  (81) 
{"free_energy": -9.22, "intermolecular_energy": -10.71, "internal_energy": -1.24, "cluster_size": 16, "cluster_id": 1, "rank_in_cluster": 1}

>  <energy>  (81) 
-8.86

>  <cluster_rmsd>  (81) 
1.14

>  <cluster>  (81) 
2

$$$$

     RDKit          3D

 51 54  0  0  0  0  0  0  0  0999 V2000
  137.4180   76.2280  222.2480 O   0  0  0  0  0  0  0  0  0  0  0  0
  138.6810   76.3190  222.4060 C   0  0  0  0  0  0  0  0  0  0  0  0
  139.4730   75.1540  222.2580 N   0  0  0  0  0  0  0  0  0  0  0  0
  138.8700   73.8850  221.9340 C   0  0  0  0  0  0  0  0  0  0  0  0
  139.8070   72.7860  222.2580 C   0  0  0  0  0  0  0  0  0  0  0  0
  141.0520   73.0050  222.3400 O   0  0  0  0  0  0  0  0  0  0  0  0
  139.3900   71.4470  222.4910 N   0  0  0  0  0  0  0  0  0  0  0  0
  139.9040   70.4330  221.5940 C   0  0  0  0  0  0  0  0  0  0  0  0
  139.4410   69.0830  222.0690 C   0  0  0  0  0  0  0  0  0  0  0  0
  137.9670   68.9970  222.3120 C   0  0  0  0  0  0  0  0  0  0  0  0
  137.4200   70.2260  222.9480 C   0  0  0  0  0  0  0  0  0  0  0  0
  138.4930   71.0740  223.5680 C   0  0  1  0  0  0  0  0  0  0  0  0
  139.1590   70.4840  224.7320 C   0  0  0  0  0  0  0  0  0  0  0  0
  138.5720   69.3860  225.3310 C   0  0  0  0  0  0  0  0  0  0  0  0
  139.1770   68.7820  226.4330 C   0  0  0  0  0  0  0  0  0  0  0  0
  140.3550   69.2410  226.9600 C   0  0  0  0  0  0  0  0  0  0  0  0
  141.0750   68.4570  228.3360 Cl  0  0  0  0  0  0  0  0  0  0  0  0
  140.9440   70.3300  226.3710 C   0  0  0  0  0  0  0  0  0  0  0  0
  140.3440   70.9270  225.2790 C   0  0  0  0  0  0  0  0  0  0  0  0
  139.2810   77.6100  222.7350 C   0  0  0  0  0  0  0  0  0  0  0  0
  138.4920   78.6860  223.0260 C   0  0  0  0  0  0  0  0  0  0  0  0
  139.0250   79.9150  223.3400 C   0  0  0  0  0  0  0  0  0  0  0  0
  140.4040   80.0340  223.3520 C   0  0  0  0  0  0  0  0  0  0  0  0
  140.9450   81.2590  223.6640 C   0  0  0  0  0  0  0  0  0  0  0  0
  142.3210   81.3660  223.6730 C   0  0  0  0  0  0  0  0  0  0  0  0
  143.0850   80.2610  223.3750 C   0  0  0  0  0  0  0  0  0  0  0  0
  142.5470   79.0310  223.0610 C   0  0  0  0  0  0  0  0  0  0  0  0
  141.1710   78.9220  223.0520 C   0  0  0  0  0  0  0  0  0  0  0  0
  140.6190   77.7540  222.7540 N   0  0  0  0  0  0  0  0  0  0  0  0
  140.5120   75.2830  222.4000 H   0  0  0  0  0  0  0  0  0  0  0  0
  137.9458   73.7605  222.5174 H   0  0  0  0  0  0  0  0  0  0  0  0
  138.6371   73.8580  220.8593 H   0  0  0  0  0  0  0  0  0  0  0  0
  139.5283   70.6153  220.5764 H   0  0  0  0  0  0  0  0  0  0  0  0
  141.0034   70.4675  221.5829 H   0  0  0  0  0  0  0  0  0  0  0  0
  139.7102   68.3369  221.3069 H   0  0  0  0  0  0  0  0  0  0  0  0
  139.9345   68.8984  223.0346 H   0  0  0  0  0  0  0  0  0  0  0  0
  137.4593   68.8430  221.3484 H   0  0  0  0  0  0  0  0  0  0  0  0
  137.7910   68.1581  223.0014 H   0  0  0  0  0  0  0  0  0  0  0  0
  136.8995   70.8190  222.1816 H   0  0  0  0  0  0  0  0  0  0  0  0
  136.7342   69.9131  223.7491 H   0  0  0  0  0  0  0  0  0  0  0  0
  138.0417   71.9683  224.0225 H   0  0  0  0  0  0  0  0  0  0  0  0
  137.6252   68.9872  224.9378 H   0  0  0  0  0  0  0  0  0  0  0  0
  138.6924   67.9086  226.8939 H   0  0  0  0  0  0  0  0  0  0  0  0
  141.8907   70.7269  226.7663 H   0  0  0  0  0  0  0  0  0  0  0  0
  140.8363   71.7989  224.8237 H   0  0  0  0  0  0  0  0  0  0  0  0
  137.3986   78.5667  223.0089 H   0  0  0  0  0  0  0  0  0  0  0  0
  138.3777   80.7732  223.5734 H   0  0  0  0  0  0  0  0  0  0  0  0
  140.3045   82.1222  223.8979 H   0  0  0  0  0  0  0  0  0  0  0  0
  142.8021   82.3249  223.9160 H   0  0  0  0  0  0  0  0  0  0  0  0
  144.1801   80.3642  223.3879 H   0  0  0  0  0  0  0  0  0  0  0  0
  143.1897   78.1696  222.8267 H   0  0  0  0  0  0  0  0  0  0  0  0
  1  2  2  0
  2  3  1  0
  3  4  1  0
  4  5  1  0
  5  6  2  0
  5  7  1  0
  7  8  1  0
  8  9  1  0
  9 10  1  0
 10 11  1  0
 11 12  1  0
 12 13  1  0
 13 14  2  0
 14 15  1  0
 15 16  2  0
 16 17  1  0
 16 18  1  0
 18 19  2  0
  2 20  1  0
 20 21  2  0
 21 22  1  0
 22 23  2  0
 23 24  1  0
 24 25  2  0
 25 26  1  0
 26 27  2  0
 27 28  1  0
 28 29  2  0
 12  7  1  0
 19 13  1  0
 29 20  1  0
 28 23  1  0
  3 30  1  0
  4 31  1  0
  4 32  1  0
  8 33  1  0
  8 34  1  0
  9 35  1  0
  9 36  1  0
 10 37  1  0
 10 38  1  0
 11 39  1  0
 11 40  1  0
 12 41  1  1
 14 42  1  0
 15 43  1  0
 18 44  1  0
 19 45  1  0
 21 46  1  0
 22 47  1  0
 24 48  1  0
 25 49  1  0
 26 50  1  0
 27 51  1  0
M  END
>  <smiles>  (82) 
O=C(NCC(=O)N1CCCCC1c1ccc(Cl)cc1)c1ccc2ccccc2n1

>  <score_type>  (82) 
oracle

>  <origin>  (82) 
autodockgpu

>  <m_score__min__energy>  (82) 
-9.2200000000000006

>  <m_primary>  (82) 
energy

>  <rmsd>  (82) 
8.353945513880596

>  <m_score__min__rmsd>  (82) 
8.353945513880596

>  <meeko>  (82) 
{"free_energy": -8.67, "intermolecular_energy": -10.16, "internal_energy": -1.98, "cluster_size": 16, "cluster_id": 1, "rank_in_cluster": 12}

>  <energy>  (82) 
-8.85

>  <cluster_rmsd>  (82) 
1.13

>  <cluster>  (82) 
2

$$$$

     RDKit          3D

 51 54  0  0  0  0  0  0  0  0999 V2000
  137.5540   75.9090  222.5230 O   0  0  0  0  0  0  0  0  0  0  0  0
  138.8030   76.1330  222.3920 C   0  0  0  0  0  0  0  0  0  0  0  0
  139.6400   75.0870  221.9300 N   0  0  0  0  0  0  0  0  0  0  0  0
  139.0960   73.7900  221.6120 C   0  0  0  0  0  0  0  0  0  0  0  0
  139.8640   72.7380  222.3160 C   0  0  0  0  0  0  0  0  0  0  0  0
  141.0430   72.9620  222.7190 O   0  0  0  0  0  0  0  0  0  0  0  0
  139.3470   71.4400  222.5820 N   0  0  0  0  0  0  0  0  0  0  0  0
  139.7250   70.3840  221.6660 C   0  0  0  0  0  0  0  0  0  0  0  0
  139.1750   69.0790  222.1760 C   0  0  0  0  0  0  0  0  0  0  0  0
  137.7140   69.1190  222.4950 C   0  0  0  0  0  0  0  0  0  0  0  0
  137.3080   70.3930  223.1500 C   0  0  0  0  0  0  0  0  0  0  0  0
  138.4790   71.1480  223.7070 C   0  0  1  0  0  0  0  0  0  0  0  0
  139.1530   70.5070  224.8390 C   0  0  0  0  0  0  0  0  0  0  0  0
  138.5480   69.4110  225.4210 C   0  0  0  0  0  0  0  0  0  0  0  0
  139.1590   68.7590  226.4930 C   0  0  0  0  0  0  0  0  0  0  0  0
  140.3620   69.1700  227.0050 C   0  0  0  0  0  0  0  0  0  0  0  0
  141.0880   68.3280  228.3430 Cl  0  0  0  0  0  0  0  0  0  0  0  0
  140.9690   70.2570  226.4320 C   0  0  0  0  0  0  0  0  0  0  0  0
  140.3620   70.9010  225.3700 C   0  0  0  0  0  0  0  0  0  0  0  0
  139.3430   77.4520  222.7170 C   0  0  0  0  0  0  0  0  0  0  0  0
  138.5040   78.4910  223.0020 C   0  0  0  0  0  0  0  0  0  0  0  0
  138.9800   79.7440  223.3130 C   0  0  0  0  0  0  0  0  0  0  0  0
  140.3520   79.9260  223.3270 C   0  0  0  0  0  0  0  0  0  0  0  0
  140.8360   81.1760  223.6360 C   0  0  0  0  0  0  0  0  0  0  0  0
  142.2060   81.3450  223.6470 C   0  0  0  0  0  0  0  0  0  0  0  0
  143.0200   80.2750  223.3550 C   0  0  0  0  0  0  0  0  0  0  0  0
  142.5390   79.0210  223.0440 C   0  0  0  0  0  0  0  0  0  0  0  0
  141.1710   78.8490  223.0330 C   0  0  0  0  0  0  0  0  0  0  0  0
  140.6730   77.6560  222.7380 N   0  0  0  0  0  0  0  0  0  0  0  0
  140.6650   75.3240  221.8390 H   0  0  0  0  0  0  0  0  0  0  0  0
  138.0435   73.7477  221.9289 H   0  0  0  0  0  0  0  0  0  0  0  0
  139.1631   73.6240  220.5267 H   0  0  0  0  0  0  0  0  0  0  0  0
  139.3120   70.5946  220.6685 H   0  0  0  0  0  0  0  0  0  0  0  0
  140.8212   70.3253  221.5954 H   0  0  0  0  0  0  0  0  0  0  0  0
  139.3405   68.3097  221.4074 H   0  0  0  0  0  0  0  0  0  0  0  0
  139.7007   68.8573  223.1165 H   0  0  0  0  0  0  0  0  0  0  0  0
  137.1456   69.0063  221.5600 H   0  0  0  0  0  0  0  0  0  0  0  0
  137.5029   68.2997  223.1980 H   0  0  0  0  0  0  0  0  0  0  0  0
  136.8004   71.0260  222.4073 H   0  0  0  0  0  0  0  0  0  0  0  0
  136.6414   70.1418  223.9882 H   0  0  0  0  0  0  0  0  0  0  0  0
  138.1291   72.0785  224.1778 H   0  0  0  0  0  0  0  0  0  0  0  0
  137.5816   69.0506  225.0387 H   0  0  0  0  0  0  0  0  0  0  0  0
  138.6592   67.8876  226.9412 H   0  0  0  0  0  0  0  0  0  0  0  0
  141.9355   70.6156  226.8157 H   0  0  0  0  0  0  0  0  0  0  0  0
  140.8691   71.7708  224.9270 H   0  0  0  0  0  0  0  0  0  0  0  0
  137.4173   78.3215  222.9824 H   0  0  0  0  0  0  0  0  0  0  0  0
  138.2938   80.5725  223.5426 H   0  0  0  0  0  0  0  0  0  0  0  0
  140.1565   82.0100  223.8658 H   0  0  0  0  0  0  0  0  0  0  0  0
  142.6426   82.3257  223.8869 H   0  0  0  0  0  0  0  0  0  0  0  0
  144.1092   80.4277  223.3704 H   0  0  0  0  0  0  0  0  0  0  0  0
  143.2208   78.1891  222.8134 H   0  0  0  0  0  0  0  0  0  0  0  0
  1  2  2  0
  2  3  1  0
  3  4  1  0
  4  5  1  0
  5  6  2  0
  5  7  1  0
  7  8  1  0
  8  9  1  0
  9 10  1  0
 10 11  1  0
 11 12  1  0
 12 13  1  0
 13 14  2  0
 14 15  1  0
 15 16  2  0
 16 17  1  0
 16 18  1  0
 18 19  2  0
  2 20  1  0
 20 21  2  0
 21 22  1  0
 22 23  2  0
 23 24  1  0
 24 25  2  0
 25 26  1  0
 26 27  2  0
 27 28  1  0
 28 29  2  0
 12  7  1  0
 19 13  1  0
 29 20  1  0
 28 23  1  0
  3 30  1  0
  4 31  1  0
  4 32  1  0
  8 33  1  0
  8 34  1  0
  9 35  1  0
  9 36  1  0
 10 37  1  0
 10 38  1  0
 11 39  1  0
 11 40  1  0
 12 41  1  1
 14 42  1  0
 15 43  1  0
 18 44  1  0
 19 45  1  0
 21 46  1  0
 22 47  1  0
 24 48  1  0
 25 49  1  0
 26 50  1  0
 27 51  1  0
M  END
>  <smiles>  (83) 
O=C(NCC(=O)N1CCCCC1c1ccc(Cl)cc1)c1ccc2ccccc2n1

>  <score_type>  (83) 
oracle

>  <origin>  (83) 
autodockgpu

>  <m_score__min__energy>  (83) 
-9.2200000000000006

>  <m_primary>  (83) 
energy

>  <rmsd>  (83) 
8.31670578719782

>  <m_score__min__rmsd>  (83) 
8.31670578719782

>  <meeko>  (83) 
{"free_energy": -8.72, "intermolecular_energy": -10.21, "internal_energy": -1.77, "cluster_size": 16, "cluster_id": 1, "rank_in_cluster": 5}

>  <energy>  (83) 
-8.84

>  <cluster_rmsd>  (83) 
1.31

>  <cluster>  (83) 
2

$$$$

     RDKit          3D

 51 54  0  0  0  0  0  0  0  0999 V2000
  141.3660   72.0780  221.7440 O   0  0  0  0  0  0  0  0  0  0  0  0
  140.4390   72.3350  222.5820 C   0  0  0  0  0  0  0  0  0  0  0  0
  139.5950   73.4490  222.3460 N   0  0  0  0  0  0  0  0  0  0  0  0
  139.7760   74.2800  221.1830 C   0  0  0  0  0  0  0  0  0  0  0  0
  139.1610   75.6070  221.4130 C   0  0  0  0  0  0  0  0  0  0  0  0
  138.2800   75.7610  222.3090 O   0  0  0  0  0  0  0  0  0  0  0  0
  139.5050   76.7680  220.6660 N   0  0  0  0  0  0  0  0  0  0  0  0
  138.4140   77.5220  220.0870 C   0  0  0  0  0  0  0  0  0  0  0  0
  138.9700   78.7610  219.4390 C   0  0  0  0  0  0  0  0  0  0  0  0
  140.1000   78.4980  218.4960 C   0  0  0  0  0  0  0  0  0  0  0  0
  141.0320   77.4520  218.9990 C   0  0  0  0  0  0  0  0  0  0  0  0
  140.8740   77.2070  220.4720 C   0  0  1  0  0  0  0  0  0  0  0  0
  141.2800   78.3180  221.3360 C   0  0  0  0  0  0  0  0  0  0  0  0
  141.1050   78.1810  222.6990 C   0  0  0  0  0  0  0  0  0  0  0  0
  141.4890   79.2070  223.5620 C   0  0  0  0  0  0  0  0  0  0  0  0
  142.0460   80.3730  223.1050 C   0  0  0  0  0  0  0  0  0  0  0  0
  142.5100   81.6270  224.2170 Cl  0  0  0  0  0  0  0  0  0  0  0  0
  142.2220   80.5170  221.7530 C   0  0  0  0  0  0  0  0  0  0  0  0
  141.8410   79.4990  220.9000 C   0  0  0  0  0  0  0  0  0  0  0  0
  140.2660   71.4860  223.7580 C   0  0  0  0  0  0  0  0  0  0  0  0
  139.6380   70.2780  223.6540 C   0  0  0  0  0  0  0  0  0  0  0  0
  139.4590   69.4550  224.7410 C   0  0  0  0  0  0  0  0  0  0  0  0
  139.9400   69.8910  225.9640 C   0  0  0  0  0  0  0  0  0  0  0  0
  139.7650   69.0740  227.0570 C   0  0  0  0  0  0  0  0  0  0  0  0
  140.2490   69.5190  228.2700 C   0  0  0  0  0  0  0  0  0  0  0  0
  140.8770   70.7410  228.3380 C   0  0  0  0  0  0  0  0  0  0  0  0
  141.0540   71.5630  227.2460 C   0  0  0  0  0  0  0  0  0  0  0  0
  140.5710   71.1200  226.0320 C   0  0  0  0  0  0  0  0  0  0  0  0
  140.7240   71.8850  224.9600 N   0  0  0  0  0  0  0  0  0  0  0  0
  138.8440   73.6190  223.0690 H   0  0  0  0  0  0  0  0  0  0  0  0
  140.8512   74.4050  220.9875 H   0  0  0  0  0  0  0  0  0  0  0  0
  139.2944   73.8021  220.3171 H   0  0  0  0  0  0  0  0  0  0  0  0
  137.9006   76.9086  219.3319 H   0  0  0  0  0  0  0  0  0  0  0  0
  137.6954   77.8013  220.8716 H   0  0  0  0  0  0  0  0  0  0  0  0
  138.1600   79.2525  218.8801 H   0  0  0  0  0  0  0  0  0  0  0  0
  139.3694   79.3915  220.2471 H   0  0  0  0  0  0  0  0  0  0  0  0
  139.6853   78.1669  217.5325 H   0  0  0  0  0  0  0  0  0  0  0  0
  140.6717   79.4320  218.3914 H   0  0  0  0  0  0  0  0  0  0  0  0
  140.8333   76.5133  218.4612 H   0  0  0  0  0  0  0  0  0  0  0  0
  142.0591   77.8055  218.8254 H   0  0  0  0  0  0  0  0  0  0  0  0
  141.5801   76.4282  220.7958 H   0  0  0  0  0  0  0  0  0  0  0  0
  140.6614   77.2600  223.1051 H   0  0  0  0  0  0  0  0  0  0  0  0
  141.3401   79.0763  224.6440 H   0  0  0  0  0  0  0  0  0  0  0  0
  142.6648   81.4393  221.3489 H   0  0  0  0  0  0  0  0  0  0  0  0
  141.9929   79.6380  219.8194 H   0  0  0  0  0  0  0  0  0  0  0  0
  139.2642   69.9536  222.6716 H   0  0  0  0  0  0  0  0  0  0  0  0
  138.9514   68.4841  224.6424 H   0  0  0  0  0  0  0  0  0  0  0  0
  139.2580   68.1020  226.9672 H   0  0  0  0  0  0  0  0  0  0  0  0
  140.1338   68.9027  229.1738 H   0  0  0  0  0  0  0  0  0  0  0  0
  141.2571   71.0792  229.3132 H   0  0  0  0  0  0  0  0  0  0  0  0
  141.5609   72.5348  227.3388 H   0  0  0  0  0  0  0  0  0  0  0  0
  1  2  2  0
  2  3  1  0
  3  4  1  0
  4  5  1  0
  5  6  2  0
  5  7  1  0
  7  8  1  0
  8  9  1  0
  9 10  1  0
 10 11  1  0
 11 12  1  0
 12 13  1  0
 13 14  2  0
 14 15  1  0
 15 16  2  0
 16 17  1  0
 16 18  1  0
 18 19  2  0
  2 20  1  0
 20 21  2  0
 21 22  1  0
 22 23  2  0
 23 24  1  0
 24 25  2  0
 25 26  1  0
 26 27  2  0
 27 28  1  0
 28 29  2  0
 12  7  1  0
 19 13  1  0
 29 20  1  0
 28 23  1  0
  3 30  1  0
  4 31  1  0
  4 32  1  0
  8 33  1  0
  8 34  1  0
  9 35  1  0
  9 36  1  0
 10 37  1  0
 10 38  1  0
 11 39  1  0
 11 40  1  0
 12 41  1  1
 14 42  1  0
 15 43  1  0
 18 44  1  0
 19 45  1  0
 21 46  1  0
 22 47  1  0
 24 48  1  0
 25 49  1  0
 26 50  1  0
 27 51  1  0
M  END
>  <smiles>  (84) 
O=C(NCC(=O)N1CCCCC1c1ccc(Cl)cc1)c1ccc2ccccc2n1

>  <score_type>  (84) 
oracle

>  <origin>  (84) 
autodockgpu

>  <m_score__min__energy>  (84) 
-9.2200000000000006

>  <m_primary>  (84) 
energy

>  <rmsd>  (84) 
1.9534857631408094

>  <m_score__min__rmsd>  (84) 
1.9534857631408094

>  <meeko>  (84) 
{"free_energy": -8.96, "intermolecular_energy": -10.46, "internal_energy": -1.71, "cluster_size": 24, "cluster_id": 2, "rank_in_cluster": 5}

>  <energy>  (84) 
-8.82

>  <cluster_rmsd>  (84) 
1.16

>  <cluster>  (84) 
2

$$$$

     RDKit          3D

 51 54  0  0  0  0  0  0  0  0999 V2000
  137.5290   76.0400  222.2720 O   0  0  0  0  0  0  0  0  0  0  0  0
  138.7940   76.1960  222.3280 C   0  0  0  0  0  0  0  0  0  0  0  0
  139.6310   75.0940  222.0230 N   0  0  0  0  0  0  0  0  0  0  0  0
  139.0700   73.8180  221.6560 C   0  0  0  0  0  0  0  0  0  0  0  0
  139.8230   72.7290  222.3190 C   0  0  0  0  0  0  0  0  0  0  0  0
  141.0010   72.9240  222.7380 O   0  0  0  0  0  0  0  0  0  0  0  0
  139.2920   71.4260  222.5260 N   0  0  0  0  0  0  0  0  0  0  0  0
  139.7040   70.3950  221.5970 C   0  0  0  0  0  0  0  0  0  0  0  0
  139.1300   69.0790  222.0460 C   0  0  0  0  0  0  0  0  0  0  0  0
  137.6570   69.1160  222.3060 C   0  0  0  0  0  0  0  0  0  0  0  0
  137.2270   70.3720  222.9790 C   0  0  0  0  0  0  0  0  0  0  0  0
  138.3770   71.1060  223.6050 C   0  0  1  0  0  0  0  0  0  0  0  0
  139.0010   70.4300  224.7460 C   0  0  0  0  0  0  0  0  0  0  0  0
  140.0870   71.0360  225.3460 C   0  0  0  0  0  0  0  0  0  0  0  0
  140.7060   70.4370  226.4440 C   0  0  0  0  0  0  0  0  0  0  0  0
  140.2720   69.2460  226.9630 C   0  0  0  0  0  0  0  0  0  0  0  0
  141.0740   68.5340  228.3340 Cl  0  0  0  0  0  0  0  0  0  0  0  0
  139.1940   68.6390  226.3730 C   0  0  0  0  0  0  0  0  0  0  0  0
  138.5830   69.2340  225.2860 C   0  0  0  0  0  0  0  0  0  0  0  0
  139.3510   77.4940  222.7030 C   0  0  0  0  0  0  0  0  0  0  0  0
  138.5270   78.5280  223.0450 C   0  0  0  0  0  0  0  0  0  0  0  0
  139.0190   79.7610  223.4030 C   0  0  0  0  0  0  0  0  0  0  0  0
  140.3930   79.9300  223.4040 C   0  0  0  0  0  0  0  0  0  0  0  0
  140.8930   81.1620  223.7600 C   0  0  0  0  0  0  0  0  0  0  0  0
  142.2640   81.3180  223.7580 C   0  0  0  0  0  0  0  0  0  0  0  0
  143.0640   80.2540  223.4070 C   0  0  0  0  0  0  0  0  0  0  0  0
  142.5670   79.0190  223.0490 C   0  0  0  0  0  0  0  0  0  0  0  0
  141.1960   78.8600  223.0510 C   0  0  0  0  0  0  0  0  0  0  0  0
  140.6830   77.6860  222.7120 N   0  0  0  0  0  0  0  0  0  0  0  0
  140.6700   75.2750  222.0850 H   0  0  0  0  0  0  0  0  0  0  0  0
  138.0169   73.7780  221.9711 H   0  0  0  0  0  0  0  0  0  0  0  0
  139.1358   73.6928  220.5651 H   0  0  0  0  0  0  0  0  0  0  0  0
  139.3331   70.6355  220.5897 H   0  0  0  0  0  0  0  0  0  0  0  0
  140.8020   70.3337  221.5702 H   0  0  0  0  0  0  0  0  0  0  0  0
  139.3246   68.3313  221.2630 H   0  0  0  0  0  0  0  0  0  0  0  0
  139.6160   68.8282  223.0004 H   0  0  0  0  0  0  0  0  0  0  0  0
  137.1273   69.0315  221.3456 H   0  0  0  0  0  0  0  0  0  0  0  0
  137.4155   68.2784  222.9769 H   0  0  0  0  0  0  0  0  0  0  0  0
  136.7524   71.0277  222.2342 H   0  0  0  0  0  0  0  0  0  0  0  0
  136.5249   70.1004  223.7810 H   0  0  0  0  0  0  0  0  0  0  0  0
  138.0112   72.0248  224.0866 H   0  0  0  0  0  0  0  0  0  0  0  0
  140.4651   71.9932  224.9576 H   0  0  0  0  0  0  0  0  0  0  0  0
  141.5694   70.9369  226.9072 H   0  0  0  0  0  0  0  0  0  0  0  0
  138.8169   67.6822  226.7633 H   0  0  0  0  0  0  0  0  0  0  0  0
  137.7200   68.7274  224.8293 H   0  0  0  0  0  0  0  0  0  0  0  0
  137.4385   78.3699  223.0337 H   0  0  0  0  0  0  0  0  0  0  0  0
  138.3442   80.5847  223.6791 H   0  0  0  0  0  0  0  0  0  0  0  0
  140.2247   81.9911  224.0357 H   0  0  0  0  0  0  0  0  0  0  0  0
  142.7134   82.2833  224.0342 H   0  0  0  0  0  0  0  0  0  0  0  0
  144.1547   80.3965  223.4125 H   0  0  0  0  0  0  0  0  0  0  0  0
  143.2374   78.1920  222.7723 H   0  0  0  0  0  0  0  0  0  0  0  0
  1  2  2  0
  2  3  1  0
  3  4  1  0
  4  5  1  0
  5  6  2  0
  5  7  1  0
  7  8  1  0
  8  9  1  0
  9 10  1  0
 10 11  1  0
 11 12  1  0
 12 13  1  0
 13 14  2  0
 14 15  1  0
 15 16  2  0
 16 17  1  0
 16 18  1  0
 18 19  2  0
  2 20  1  0
 20 21  2  0
 21 22  1  0
 22 23  2  0
 23 24  1  0
 24 25  2  0
 25 26  1  0
 26 27  2  0
 27 28  1  0
 28 29  2  0
 12  7  1  0
 19 13  1  0
 29 20  1  0
 28 23  1  0
  3 30  1  0
  4 31  1  0
  4 32  1  0
  8 33  1  0
  8 34  1  0
  9 35  1  0
  9 36  1  0
 10 37  1  0
 10 38  1  0
 11 39  1  0
 11 40  1  0
 12 41  1  1
 14 42  1  0
 15 43  1  0
 18 44  1  0
 19 45  1  0
 21 46  1  0
 22 47  1  0
 24 48  1  0
 25 49  1  0
 26 50  1  0
 27 51  1  0
M  END
>  <smiles>  (85) 
O=C(NCC(=O)N1CCCCC1c1ccc(Cl)cc1)c1ccc2ccccc2n1

>  <score_type>  (85) 
oracle

>  <origin>  (85) 
autodockgpu

>  <m_score__min__energy>  (85) 
-9.2200000000000006

>  <m_primary>  (85) 
energy

>  <rmsd>  (85) 
8.30341242477805

>  <m_score__min__rmsd>  (85) 
8.30341242477805

>  <meeko>  (85) 
{"free_energy": -8.7, "intermolecular_energy": -10.19, "internal_energy": -1.87, "cluster_size": 16, "cluster_id": 1, "rank_in_cluster": 8}

>  <energy>  (85) 
-8.72

>  <cluster_rmsd>  (85) 
1.27

>  <cluster>  (85) 
2

$$$$

     RDKit          3D

 51 54  0  0  0  0  0  0  0  0999 V2000
  137.5130   76.0790  222.2840 O   0  0  0  0  0  0  0  0  0  0  0  0
  138.7780   76.2300  222.3430 C   0  0  0  0  0  0  0  0  0  0  0  0
  139.6130   75.1250  222.0430 N   0  0  0  0  0  0  0  0  0  0  0  0
  139.0480   73.8490  221.6780 C   0  0  0  0  0  0  0  0  0  0  0  0
  139.8290   72.7570  222.3020 C   0  0  0  0  0  0  0  0  0  0  0  0
  141.0180   72.9560  222.6890 O   0  0  0  0  0  0  0  0  0  0  0  0
  139.3160   71.4460  222.5050 N   0  0  0  0  0  0  0  0  0  0  0  0
  139.7530   70.4210  221.5810 C   0  0  0  0  0  0  0  0  0  0  0  0
  139.1930   69.0970  222.0260 C   0  0  0  0  0  0  0  0  0  0  0  0
  137.7180   69.1120  222.2700 C   0  0  0  0  0  0  0  0  0  0  0  0
  137.2620   70.3620  222.9380 C   0  0  0  0  0  0  0  0  0  0  0  0
  138.3940   71.1140  223.5750 C   0  0  1  0  0  0  0  0  0  0  0  0
  139.0170   70.4490  224.7220 C   0  0  0  0  0  0  0  0  0  0  0  0
  140.0980   71.0620  225.3230 C   0  0  0  0  0  0  0  0  0  0  0  0
  140.7150   70.4730  226.4270 C   0  0  0  0  0  0  0  0  0  0  0  0
  140.2840   69.2840  226.9530 C   0  0  0  0  0  0  0  0  0  0  0  0
  141.0830   68.5850  228.3310 Cl  0  0  0  0  0  0  0  0  0  0  0  0
  139.2110   68.6690  226.3620 C   0  0  0  0  0  0  0  0  0  0  0  0
  138.6010   69.2540  225.2700 C   0  0  0  0  0  0  0  0  0  0  0  0
  139.3390   77.5270  222.7150 C   0  0  0  0  0  0  0  0  0  0  0  0
  138.5180   78.5610  223.0630 C   0  0  0  0  0  0  0  0  0  0  0  0
  139.0140   79.7940  223.4190 C   0  0  0  0  0  0  0  0  0  0  0  0
  140.3880   79.9620  223.4120 C   0  0  0  0  0  0  0  0  0  0  0  0
  140.8910   81.1920  223.7660 C   0  0  0  0  0  0  0  0  0  0  0  0
  142.2630   81.3470  223.7560 C   0  0  0  0  0  0  0  0  0  0  0  0
  143.0590   80.2830  223.3990 C   0  0  0  0  0  0  0  0  0  0  0  0
  142.5590   79.0480  223.0440 C   0  0  0  0  0  0  0  0  0  0  0  0
  141.1880   78.8910  223.0530 C   0  0  0  0  0  0  0  0  0  0  0  0
  140.6710   77.7180  222.7170 N   0  0  0  0  0  0  0  0  0  0  0  0
  140.6520   75.3020  222.1070 H   0  0  0  0  0  0  0  0  0  0  0  0
  138.0060   73.7980  222.0267 H   0  0  0  0  0  0  0  0  0  0  0  0
  139.0789   73.7380  220.5840 H   0  0  0  0  0  0  0  0  0  0  0  0
  139.3892   70.6553  220.5697 H   0  0  0  0  0  0  0  0  0  0  0  0
  140.8520   70.3758  221.5649 H   0  0  0  0  0  0  0  0  0  0  0  0
  139.4071   68.3512  221.2463 H   0  0  0  0  0  0  0  0  0  0  0  0
  139.6721   68.8552  222.9862 H   0  0  0  0  0  0  0  0  0  0  0  0
  137.1999   69.0193  221.3041 H   0  0  0  0  0  0  0  0  0  0  0  0
  137.4819   68.2711  222.9387 H   0  0  0  0  0  0  0  0  0  0  0  0
  136.7848   71.0099  222.1880 H   0  0  0  0  0  0  0  0  0  0  0  0
  136.5562   70.0800  223.7332 H   0  0  0  0  0  0  0  0  0  0  0  0
  138.0085   72.0274  224.0516 H   0  0  0  0  0  0  0  0  0  0  0  0
  140.4742   72.0181  224.9301 H   0  0  0  0  0  0  0  0  0  0  0  0
  141.5748   70.9795  226.8897 H   0  0  0  0  0  0  0  0  0  0  0  0
  138.8371   67.7126  226.7563 H   0  0  0  0  0  0  0  0  0  0  0  0
  137.7407   68.7414  224.8148 H   0  0  0  0  0  0  0  0  0  0  0  0
  137.4293   78.4038  223.0586 H   0  0  0  0  0  0  0  0  0  0  0  0
  138.3417   80.6181  223.6996 H   0  0  0  0  0  0  0  0  0  0  0  0
  140.2252   82.0214  224.0467 H   0  0  0  0  0  0  0  0  0  0  0  0
  142.7151   82.3114  224.0307 H   0  0  0  0  0  0  0  0  0  0  0  0
  144.1498   80.4248  223.3967 H   0  0  0  0  0  0  0  0  0  0  0  0
  143.2271   78.2200  222.7645 H   0  0  0  0  0  0  0  0  0  0  0  0
  1  2  2  0
  2  3  1  0
  3  4  1  0
  4  5  1  0
  5  6  2  0
  5  7  1  0
  7  8  1  0
  8  9  1  0
  9 10  1  0
 10 11  1  0
 11 12  1  0
 12 13  1  0
 13 14  2  0
 14 15  1  0
 15 16  2  0
 16 17  1  0
 16 18  1  0
 18 19  2  0
  2 20  1  0
 20 21  2  0
 21 22  1  0
 22 23  2  0
 23 24  1  0
 24 25  2  0
 25 26  1  0
 26 27  2  0
 27 28  1  0
 28 29  2  0
 12  7  1  0
 19 13  1  0
 29 20  1  0
 28 23  1  0
  3 30  1  0
  4 31  1  0
  4 32  1  0
  8 33  1  0
  8 34  1  0
  9 35  1  0
  9 36  1  0
 10 37  1  0
 10 38  1  0
 11 39  1  0
 11 40  1  0
 12 41  1  1
 14 42  1  0
 15 43  1  0
 18 44  1  0
 19 45  1  0
 21 46  1  0
 22 47  1  0
 24 48  1  0
 25 49  1  0
 26 50  1  0
 27 51  1  0
M  END
>  <smiles>  (86) 
O=C(NCC(=O)N1CCCCC1c1ccc(Cl)cc1)c1ccc2ccccc2n1

>  <score_type>  (86) 
oracle

>  <origin>  (86) 
autodockgpu

>  <m_score__min__energy>  (86) 
-9.2200000000000006

>  <m_primary>  (86) 
energy

>  <rmsd>  (86) 
8.31051638034193

>  <m_score__min__rmsd>  (86) 
8.31051638034193

>  <meeko>  (86) 
{"free_energy": -8.7, "intermolecular_energy": -10.2, "internal_energy": -1.89, "cluster_size": 16, "cluster_id": 1, "rank_in_cluster": 7}

>  <energy>  (86) 
-8.68

>  <cluster_rmsd>  (86) 
1.34

>  <cluster>  (86) 
2

$$$$

     RDKit          3D

 51 54  0  0  0  0  0  0  0  0999 V2000
  137.4920   76.1880  222.2340 O   0  0  0  0  0  0  0  0  0  0  0  0
  138.7580   76.3140  222.3290 C   0  0  0  0  0  0  0  0  0  0  0  0
  139.5790   75.1900  222.0640 N   0  0  0  0  0  0  0  0  0  0  0  0
  139.0000   73.9240  221.6910 C   0  0  0  0  0  0  0  0  0  0  0  0
  139.8490   72.8170  222.1890 C   0  0  0  0  0  0  0  0  0  0  0  0
  141.0890   72.9920  222.3750 O   0  0  0  0  0  0  0  0  0  0  0  0
  139.3480   71.5200  222.4850 N   0  0  0  0  0  0  0  0  0  0  0  0
  139.7460   70.4450  221.6010 C   0  0  0  0  0  0  0  0  0  0  0  0
  139.2090   69.1470  222.1410 C   0  0  0  0  0  0  0  0  0  0  0  0
  137.7460   69.1770  222.4480 C   0  0  0  0  0  0  0  0  0  0  0  0
  137.3170   70.4610  223.0660 C   0  0  0  0  0  0  0  0  0  0  0  0
  138.4750   71.2470  223.6110 C   0  0  1  0  0  0  0  0  0  0  0  0
  139.1480   70.6440  224.7650 C   0  0  0  0  0  0  0  0  0  0  0  0
  138.5500   69.5600  225.3760 C   0  0  0  0  0  0  0  0  0  0  0  0
  139.1600   68.9450  226.4690 C   0  0  0  0  0  0  0  0  0  0  0  0
  140.3570   69.3810  226.9740 C   0  0  0  0  0  0  0  0  0  0  0  0
  141.0830   68.5840  228.3400 Cl  0  0  0  0  0  0  0  0  0  0  0  0
  140.9570   70.4570  226.3730 C   0  0  0  0  0  0  0  0  0  0  0  0
  140.3510   71.0640  225.2910 C   0  0  0  0  0  0  0  0  0  0  0  0
  139.3330   77.6030  222.7090 C   0  0  0  0  0  0  0  0  0  0  0  0
  138.5240   78.6450  223.0600 C   0  0  0  0  0  0  0  0  0  0  0  0
  139.0330   79.8710  223.4220 C   0  0  0  0  0  0  0  0  0  0  0  0
  140.4090   80.0220  223.4190 C   0  0  0  0  0  0  0  0  0  0  0  0
  140.9260   81.2450  223.7800 C   0  0  0  0  0  0  0  0  0  0  0  0
  142.2990   81.3830  223.7730 C   0  0  0  0  0  0  0  0  0  0  0  0
  143.0840   80.3120  223.4140 C   0  0  0  0  0  0  0  0  0  0  0  0
  142.5700   79.0850  223.0520 C   0  0  0  0  0  0  0  0  0  0  0  0
  141.1970   78.9440  223.0570 C   0  0  0  0  0  0  0  0  0  0  0  0
  140.6670   77.7780  222.7150 N   0  0  0  0  0  0  0  0  0  0  0  0
  140.6190   75.3470  222.1580 H   0  0  0  0  0  0  0  0  0  0  0  0
  137.9948   73.8389  222.1296 H   0  0  0  0  0  0  0  0  0  0  0  0
  138.9326   73.8647  220.5947 H   0  0  0  0  0  0  0  0  0  0  0  0
  139.3381   70.6236  220.5952 H   0  0  0  0  0  0  0  0  0  0  0  0
  140.8434   70.3985  221.5407 H   0  0  0  0  0  0  0  0  0  0  0  0
  139.3900   68.3600  221.3941 H   0  0  0  0  0  0  0  0  0  0  0  0
  139.7304   68.9564  223.0906 H   0  0  0  0  0  0  0  0  0  0  0  0
  137.1866   69.0323  221.5120 H   0  0  0  0  0  0  0  0  0  0  0  0
  137.5409   68.3742  223.1715 H   0  0  0  0  0  0  0  0  0  0  0  0
  136.8059   71.0671  222.3035 H   0  0  0  0  0  0  0  0  0  0  0  0
  136.6474   70.2229  223.9056 H   0  0  0  0  0  0  0  0  0  0  0  0
  138.1104   72.1859  224.0533 H   0  0  0  0  0  0  0  0  0  0  0  0
  137.5889   69.1800  224.9994 H   0  0  0  0  0  0  0  0  0  0  0  0
  138.6649   68.0832  226.9404 H   0  0  0  0  0  0  0  0  0  0  0  0
  141.9180   70.8356  226.7514 H   0  0  0  0  0  0  0  0  0  0  0  0
  140.8529   71.9252  224.8258 H   0  0  0  0  0  0  0  0  0  0  0  0
  137.4336   78.5003  223.0532 H   0  0  0  0  0  0  0  0  0  0  0  0
  138.3697   80.7020  223.7039 H   0  0  0  0  0  0  0  0  0  0  0  0
  140.2697   82.0810  224.0634 H   0  0  0  0  0  0  0  0  0  0  0  0
  142.7617   82.3411  224.0521 H   0  0  0  0  0  0  0  0  0  0  0  0
  144.1764   80.4410  223.4158 H   0  0  0  0  0  0  0  0  0  0  0  0
  143.2288   78.2505  222.7700 H   0  0  0  0  0  0  0  0  0  0  0  0
  1  2  2  0
  2  3  1  0
  3  4  1  0
  4  5  1  0
  5  6  2  0
  5  7  1  0
  7  8  1  0
  8  9  1  0
  9 10  1  0
 10 11  1  0
 11 12  1  0
 12 13  1  0
 13 14  2  0
 14 15  1  0
 15 16  2  0
 16 17  1  0
 16 18  1  0
 18 19  2  0
  2 20  1  0
 20 21  2  0
 21 22  1  0
 22 23  2  0
 23 24  1  0
 24 25  2  0
 25 26  1  0
 26 27  2  0
 27 28  1  0
 28 29  2  0
 12  7  1  0
 19 13  1  0
 29 20  1  0
 28 23  1  0
  3 30  1  0
  4 31  1  0
  4 32  1  0
  8 33  1  0
  8 34  1  0
  9 35  1  0
  9 36  1  0
 10 37  1  0
 10 38  1  0
 11 39  1  0
 11 40  1  0
 12 41  1  1
 14 42  1  0
 15 43  1  0
 18 44  1  0
 19 45  1  0
 21 46  1  0
 22 47  1  0
 24 48  1  0
 25 49  1  0
 26 50  1  0
 27 51  1  0
M  END
>  <smiles>  (87) 
O=C(NCC(=O)N1CCCCC1c1ccc(Cl)cc1)c1ccc2ccccc2n1

>  <score_type>  (87) 
oracle

>  <origin>  (87) 
autodockgpu

>  <m_score__min__energy>  (87) 
-9.2200000000000006

>  <m_primary>  (87) 
energy

>  <rmsd>  (87) 
8.329869447323224

>  <m_score__min__rmsd>  (87) 
8.329869447323224

>  <meeko>  (87) 
{"free_energy": -8.76, "intermolecular_energy": -10.25, "internal_energy": -1.89, "cluster_size": 16, "cluster_id": 1, "rank_in_cluster": 4}

>  <energy>  (87) 
-8.61

>  <cluster_rmsd>  (87) 
1.26

>  <cluster>  (87) 
2

$$$$

     RDKit          3D

 51 54  0  0  0  0  0  0  0  0999 V2000
  137.4100   76.2350  222.2280 O   0  0  0  0  0  0  0  0  0  0  0  0
  138.6720   76.3240  222.3950 C   0  0  0  0  0  0  0  0  0  0  0  0
  139.4620   75.1550  222.2620 N   0  0  0  0  0  0  0  0  0  0  0  0
  138.8570   73.8860  221.9430 C   0  0  0  0  0  0  0  0  0  0  0  0
  139.7980   72.7880  222.2580 C   0  0  0  0  0  0  0  0  0  0  0  0
  141.0420   73.0080  222.3340 O   0  0  0  0  0  0  0  0  0  0  0  0
  139.3850   71.4470  222.4900 N   0  0  0  0  0  0  0  0  0  0  0  0
  139.9020   70.4360  221.5920 C   0  0  0  0  0  0  0  0  0  0  0  0
  139.4420   69.0840  222.0660 C   0  0  0  0  0  0  0  0  0  0  0  0
  137.9690   68.9930  222.3080 C   0  0  0  0  0  0  0  0  0  0  0  0
  137.4180   70.2200  222.9450 C   0  0  0  0  0  0  0  0  0  0  0  0
  138.4870   71.0710  223.5660 C   0  0  1  0  0  0  0  0  0  0  0  0
  139.1550   70.4810  224.7300 C   0  0  0  0  0  0  0  0  0  0  0  0
  138.5560   69.3990  225.3450 C   0  0  0  0  0  0  0  0  0  0  0  0
  139.1610   68.7960  226.4480 C   0  0  0  0  0  0  0  0  0  0  0  0
  140.3510   69.2420  226.9590 C   0  0  0  0  0  0  0  0  0  0  0  0
  141.0700   68.4600  228.3370 Cl  0  0  0  0  0  0  0  0  0  0  0  0
  140.9520   70.3160  226.3540 C   0  0  0  0  0  0  0  0  0  0  0  0
  140.3510   70.9110  225.2620 C   0  0  0  0  0  0  0  0  0  0  0  0
  139.2730   77.6160  222.7190 C   0  0  0  0  0  0  0  0  0  0  0  0
  138.4850   78.6920  223.0120 C   0  0  0  0  0  0  0  0  0  0  0  0
  139.0200   79.9210  223.3220 C   0  0  0  0  0  0  0  0  0  0  0  0
  140.3990   80.0400  223.3260 C   0  0  0  0  0  0  0  0  0  0  0  0
  140.9410   81.2660  223.6340 C   0  0  0  0  0  0  0  0  0  0  0  0
  142.3180   81.3720  223.6360 C   0  0  0  0  0  0  0  0  0  0  0  0
  143.0800   80.2670  223.3350 C   0  0  0  0  0  0  0  0  0  0  0  0
  142.5410   79.0370  223.0260 C   0  0  0  0  0  0  0  0  0  0  0  0
  141.1650   78.9280  223.0240 C   0  0  0  0  0  0  0  0  0  0  0  0
  140.6110   77.7590  222.7310 N   0  0  0  0  0  0  0  0  0  0  0  0
  140.5000   75.2820  222.4100 H   0  0  0  0  0  0  0  0  0  0  0  0
  137.9383   73.7605  222.5348 H   0  0  0  0  0  0  0  0  0  0  0  0
  138.6139   73.8592  220.8705 H   0  0  0  0  0  0  0  0  0  0  0  0
  139.5261   70.6184  220.5745 H   0  0  0  0  0  0  0  0  0  0  0  0
  141.0013   70.4735  221.5808 H   0  0  0  0  0  0  0  0  0  0  0  0
  139.7139   68.3392  221.3035 H   0  0  0  0  0  0  0  0  0  0  0  0
  139.9351   68.9007  223.0320 H   0  0  0  0  0  0  0  0  0  0  0  0
  137.4623   68.8383  221.3440 H   0  0  0  0  0  0  0  0  0  0  0  0
  137.7952   68.1528  222.9964 H   0  0  0  0  0  0  0  0  0  0  0  0
  136.8958   70.8119  222.1788 H   0  0  0  0  0  0  0  0  0  0  0  0
  136.7333   69.9039  223.7458 H   0  0  0  0  0  0  0  0  0  0  0  0
  138.0318   71.9636  224.0200 H   0  0  0  0  0  0  0  0  0  0  0  0
  137.5995   69.0118  224.9641 H   0  0  0  0  0  0  0  0  0  0  0  0
  138.6668   67.9353  226.9223 H   0  0  0  0  0  0  0  0  0  0  0  0
  141.9084   70.7019  226.7367 H   0  0  0  0  0  0  0  0  0  0  0  0
  140.8522   71.7710  224.7937 H   0  0  0  0  0  0  0  0  0  0  0  0
  137.3915   78.5728  222.9998 H   0  0  0  0  0  0  0  0  0  0  0  0
  138.3741   80.7794  223.5585 H   0  0  0  0  0  0  0  0  0  0  0  0
  140.3018   82.1296  223.8699 H   0  0  0  0  0  0  0  0  0  0  0  0
  142.8008   82.3308  223.8760 H   0  0  0  0  0  0  0  0  0  0  0  0
  144.1751   80.3705  223.3413 H   0  0  0  0  0  0  0  0  0  0  0  0
  143.1826   78.1752  222.7900 H   0  0  0  0  0  0  0  0  0  0  0  0
  1  2  2  0
  2  3  1  0
  3  4  1  0
  4  5  1  0
  5  6  2  0
  5  7  1  0
  7  8  1  0
  8  9  1  0
  9 10  1  0
 10 11  1  0
 11 12  1  0
 12 13  1  0
 13 14  2  0
 14 15  1  0
 15 16  2  0
 16 17  1  0
 16 18  1  0
 18 19  2  0
  2 20  1  0
 20 21  2  0
 21 22  1  0
 22 23  2  0
 23 24  1  0
 24 25  2  0
 25 26  1  0
 26 27  2  0
 27 28  1  0
 28 29  2  0
 12  7  1  0
 19 13  1  0
 29 20  1  0
 28 23  1  0
  3 30  1  0
  4 31  1  0
  4 32  1  0
  8 33  1  0
  8 34  1  0
  9 35  1  0
  9 36  1  0
 10 37  1  0
 10 38  1  0
 11 39  1  0
 11 40  1  0
 12 41  1  1
 14 42  1  0
 15 43  1  0
 18 44  1  0
 19 45  1  0
 21 46  1  0
 22 47  1  0
 24 48  1  0
 25 49  1  0
 26 50  1  0
 27 51  1  0
M  END
>  <smiles>  (88) 
O=C(NCC(=O)N1CCCCC1c1ccc(Cl)cc1)c1ccc2ccccc2n1

>  <score_type>  (88) 
oracle

>  <origin>  (88) 
autodockgpu

>  <m_score__min__energy>  (88) 
-9.2200000000000006

>  <m_primary>  (88) 
energy

>  <rmsd>  (88) 
8.360891738619962

>  <m_score__min__rmsd>  (88) 
8.360891738619962

>  <meeko>  (88) 
{"free_energy": -8.66, "intermolecular_energy": -10.15, "internal_energy": -1.99, "cluster_size": 16, "cluster_id": 1, "rank_in_cluster": 14}

>  <energy>  (88) 
-8.59

>  <cluster_rmsd>  (88) 
1.15

>  <cluster>  (88) 
2

$$$$

     RDKit          3D

 51 54  0  0  0  0  0  0  0  0999 V2000
  141.5700   71.7460  221.9270 O   0  0  0  0  0  0  0  0  0  0  0  0
  140.6510   71.9930  222.7760 C   0  0  0  0  0  0  0  0  0  0  0  0
  139.9290   73.2070  222.6670 N   0  0  0  0  0  0  0  0  0  0  0  0
  140.2210   74.1500  221.6170 C   0  0  0  0  0  0  0  0  0  0  0  0
  139.2310   75.2500  221.6390 C   0  0  0  0  0  0  0  0  0  0  0  0
  138.1450   75.1250  222.2770 O   0  0  0  0  0  0  0  0  0  0  0  0
  139.4220   76.4880  220.9640 N   0  0  0  0  0  0  0  0  0  0  0  0
  138.2310   77.2050  220.5600 C   0  0  0  0  0  0  0  0  0  0  0  0
  138.6380   78.5270  219.9690 C   0  0  0  0  0  0  0  0  0  0  0  0
  139.6810   78.4210  218.9020 C   0  0  0  0  0  0  0  0  0  0  0  0
  140.7240   77.4080  219.2220 C   0  0  0  0  0  0  0  0  0  0  0  0
  140.7330   77.0370  220.6760 C   0  0  1  0  0  0  0  0  0  0  0  0
  141.1540   78.1040  221.5890 C   0  0  0  0  0  0  0  0  0  0  0  0
  141.8220   79.1890  221.0580 C   0  0  0  0  0  0  0  0  0  0  0  0
  142.2300   80.2360  221.8850 C   0  0  0  0  0  0  0  0  0  0  0  0
  141.9910   80.2320  223.2340 C   0  0  0  0  0  0  0  0  0  0  0  0
  142.5180   81.5590  224.2290 Cl  0  0  0  0  0  0  0  0  0  0  0  0
  141.3280   79.1590  223.7690 C   0  0  0  0  0  0  0  0  0  0  0  0
  140.9240   78.1240  222.9480 C   0  0  0  0  0  0  0  0  0  0  0  0
  140.3640   71.0300  223.8370 C   0  0  0  0  0  0  0  0  0  0  0  0
  139.6180   69.9160  223.5770 C   0  0  0  0  0  0  0  0  0  0  0  0
  139.3300   68.9900  224.5530 C   0  0  0  0  0  0  0  0  0  0  0  0
  139.8230   69.2220  225.8250 C   0  0  0  0  0  0  0  0  0  0  0  0
  139.5390   68.3010  226.8070 C   0  0  0  0  0  0  0  0  0  0  0  0
  140.0360   68.5430  228.0710 C   0  0  0  0  0  0  0  0  0  0  0  0
  140.7840   69.6750  228.2970 C   0  0  0  0  0  0  0  0  0  0  0  0
  141.0710   70.6010  227.3160 C   0  0  0  0  0  0  0  0  0  0  0  0
  140.5750   70.3610  226.0510 C   0  0  0  0  0  0  0  0  0  0  0  0
  140.8310   71.2300  225.0830 N   0  0  0  0  0  0  0  0  0  0  0  0
  139.1800   73.3640  223.3950 H   0  0  0  0  0  0  0  0  0  0  0  0
  141.2291   74.5634  221.7679 H   0  0  0  0  0  0  0  0  0  0  0  0
  140.1713   73.6371  220.6452 H   0  0  0  0  0  0  0  0  0  0  0  0
  137.6827   76.6174  219.8089 H   0  0  0  0  0  0  0  0  0  0  0  0
  137.5803   77.3697  221.4315 H   0  0  0  0  0  0  0  0  0  0  0  0
  137.7456   79.0011  219.5345 H   0  0  0  0  0  0  0  0  0  0  0  0
  139.0770   79.1191  220.7855 H   0  0  0  0  0  0  0  0  0  0  0  0
  139.1923   78.1379  217.9580 H   0  0  0  0  0  0  0  0  0  0  0  0
  140.1784   79.3989  218.8229 H   0  0  0  0  0  0  0  0  0  0  0  0
  140.5316   76.5027  218.6275 H   0  0  0  0  0  0  0  0  0  0  0  0
  141.7035   77.8471  218.9815 H   0  0  0  0  0  0  0  0  0  0  0  0
  141.5161   76.2871  220.8615 H   0  0  0  0  0  0  0  0  0  0  0  0
  142.0334   79.2283  219.9792 H   0  0  0  0  0  0  0  0  0  0  0  0
  142.7599   81.0911  221.4401 H   0  0  0  0  0  0  0  0  0  0  0  0
  141.1182   79.1218  224.8482 H   0  0  0  0  0  0  0  0  0  0  0  0
  140.3926   77.2740  223.4010 H   0  0  0  0  0  0  0  0  0  0  0  0
  139.2364   69.7544  222.5580 H   0  0  0  0  0  0  0  0  0  0  0  0
  138.7287   68.0963  224.3299 H   0  0  0  0  0  0  0  0  0  0  0  0
  138.9380   67.4051  226.5922 H   0  0  0  0  0  0  0  0  0  0  0  0
  139.8359   67.8371  228.8906 H   0  0  0  0  0  0  0  0  0  0  0  0
  141.1727   69.8505  229.3109 H   0  0  0  0  0  0  0  0  0  0  0  0
  141.6720   71.4962  227.5336 H   0  0  0  0  0  0  0  0  0  0  0  0
  1  2  2  0
  2  3  1  0
  3  4  1  0
  4  5  1  0
  5  6  2  0
  5  7  1  0
  7  8  1  0
  8  9  1  0
  9 10  1  0
 10 11  1  0
 11 12  1  0
 12 13  1  0
 13 14  2  0
 14 15  1  0
 15 16  2  0
 16 17  1  0
 16 18  1  0
 18 19  2  0
  2 20  1  0
 20 21  2  0
 21 22  1  0
 22 23  2  0
 23 24  1  0
 24 25  2  0
 25 26  1  0
 26 27  2  0
 27 28  1  0
 28 29  2  0
 12  7  1  0
 19 13  1  0
 29 20  1  0
 28 23  1  0
  3 30  1  0
  4 31  1  0
  4 32  1  0
  8 33  1  0
  8 34  1  0
  9 35  1  0
  9 36  1  0
 10 37  1  0
 10 38  1  0
 11 39  1  0
 11 40  1  0
 12 41  1  6
 14 42  1  0
 15 43  1  0
 18 44  1  0
 19 45  1  0
 21 46  1  0
 22 47  1  0
 24 48  1  0
 25 49  1  0
 26 50  1  0
 27 51  1  0
M  END
>  <smiles>  (89) 
O=C(NCC(=O)N1CCCCC1c1ccc(Cl)cc1)c1ccc2ccccc2n1

>  <score_type>  (89) 
oracle

>  <origin>  (89) 
autodockgpu

>  <m_score__min__energy>  (89) 
-9.2200000000000006

>  <m_primary>  (89) 
energy

>  <rmsd>  (89) 
2.083075452554841

>  <m_score__min__rmsd>  (89) 
2.083075452554841

>  <meeko>  (89) 
{"free_energy": -8.59, "intermolecular_energy": -10.08, "internal_energy": -1.72, "cluster_size": 24, "cluster_id": 2, "rank_in_cluster": 22}

>  <energy>  (89) 
-8.58

>  <cluster_rmsd>  (89) 
1.29

>  <cluster>  (89) 
2

$$$$

     RDKit          3D

 51 54  0  0  0  0  0  0  0  0999 V2000
  138.2560   70.7910  221.8310 O   0  0  0  0  0  0  0  0  0  0  0  0
  138.9350   71.2580  222.8040 C   0  0  0  0  0  0  0  0  0  0  0  0
  139.3680   72.6070  222.7500 N   0  0  0  0  0  0  0  0  0  0  0  0
  139.0500   73.4400  221.6180 C   0  0  0  0  0  0  0  0  0  0  0  0
  139.9670   74.6020  221.5760 C   0  0  0  0  0  0  0  0  0  0  0  0
  141.1620   74.4930  221.9780 O   0  0  0  0  0  0  0  0  0  0  0  0
  139.5820   75.8850  221.0960 N   0  0  0  0  0  0  0  0  0  0  0  0
  138.2050   76.2770  221.3050 C   0  0  0  0  0  0  0  0  0  0  0  0
  138.0260   77.6940  220.8330 C   0  0  0  0  0  0  0  0  0  0  0  0
  138.5290   77.9400  219.4460 C   0  0  0  0  0  0  0  0  0  0  0  0
  139.8070   77.2290  219.1670 C   0  0  0  0  0  0  0  0  0  0  0  0
  140.4990   76.7850  220.4230 C   0  0  1  0  0  0  0  0  0  0  0  0
  141.0120   77.8670  221.2680 C   0  0  0  0  0  0  0  0  0  0  0  0
  141.0280   77.6740  222.6350 C   0  0  0  0  0  0  0  0  0  0  0  0
  141.5200   78.6700  223.4790 C   0  0  0  0  0  0  0  0  0  0  0  0
  141.9980   79.8600  222.9980 C   0  0  0  0  0  0  0  0  0  0  0  0
  142.6020   81.0750  224.0870 Cl  0  0  0  0  0  0  0  0  0  0  0  0
  141.9860   80.0590  221.6420 C   0  0  0  0  0  0  0  0  0  0  0  0
  141.4990   79.0720  220.8080 C   0  0  0  0  0  0  0  0  0  0  0  0
  139.2520   70.4030  223.9460 C   0  0  0  0  0  0  0  0  0  0  0  0
  138.9290   69.0770  223.9280 C   0  0  0  0  0  0  0  0  0  0  0  0
  139.2140   68.2450  224.9860 C   0  0  0  0  0  0  0  0  0  0  0  0
  139.8440   68.7980  226.0870 C   0  0  0  0  0  0  0  0  0  0  0  0
  140.1320   67.9720  227.1500 C   0  0  0  0  0  0  0  0  0  0  0  0
  140.7610   68.5350  228.2420 C   0  0  0  0  0  0  0  0  0  0  0  0
  141.0700   69.8750  228.2260 C   0  0  0  0  0  0  0  0  0  0  0  0
  140.7840   70.7060  227.1630 C   0  0  0  0  0  0  0  0  0  0  0  0
  140.1560   70.1460  226.0700 C   0  0  0  0  0  0  0  0  0  0  0  0
  139.8650   70.9150  225.0300 N   0  0  0  0  0  0  0  0  0  0  0  0
  139.9280   72.9440  223.5800 H   0  0  0  0  0  0  0  0  0  0  0  0
  139.1589   72.8554  220.6926 H   0  0  0  0  0  0  0  0  0  0  0  0
  138.0142   73.7984  221.7108 H   0  0  0  0  0  0  0  0  0  0  0  0
  137.5407   75.6110  220.7349 H   0  0  0  0  0  0  0  0  0  0  0  0
  137.9547   76.2052  222.3737 H   0  0  0  0  0  0  0  0  0  0  0  0
  136.9530   77.9349  220.8599 H   0  0  0  0  0  0  0  0  0  0  0  0
  138.6194   78.3313  221.5051 H   0  0  0  0  0  0  0  0  0  0  0  0
  137.7696   77.5944  218.7292 H   0  0  0  0  0  0  0  0  0  0  0  0
  138.7189   79.0189  219.3464 H   0  0  0  0  0  0  0  0  0  0  0  0
  139.5919   76.3440  218.5501 H   0  0  0  0  0  0  0  0  0  0  0  0
  140.4748   77.9303  218.6453 H   0  0  0  0  0  0  0  0  0  0  0  0
  141.4337   76.2649  220.1666 H   0  0  0  0  0  0  0  0  0  0  0  0
  140.6516   76.7319  223.0601 H   0  0  0  0  0  0  0  0  0  0  0  0
  141.5242   78.4941  224.5648 H   0  0  0  0  0  0  0  0  0  0  0  0
  142.3631   81.0020  221.2194 H   0  0  0  0  0  0  0  0  0  0  0  0
  141.4996   79.2562  219.7235 H   0  0  0  0  0  0  0  0  0  0  0  0
  138.4264   68.6616  223.0421 H   0  0  0  0  0  0  0  0  0  0  0  0
  138.9503   67.1775  224.9577 H   0  0  0  0  0  0  0  0  0  0  0  0
  139.8707   66.9037  227.1298 H   0  0  0  0  0  0  0  0  0  0  0  0
  141.0128   67.9177  229.1169 H   0  0  0  0  0  0  0  0  0  0  0  0
  141.5707   70.3059  229.1056 H   0  0  0  0  0  0  0  0  0  0  0  0
  141.0465   71.7740  227.1860 H   0  0  0  0  0  0  0  0  0  0  0  0
  1  2  2  0
  2  3  1  0
  3  4  1  0
  4  5  1  0
  5  6  2  0
  5  7  1  0
  7  8  1  0
  8  9  1  0
  9 10  1  0
 10 11  1  0
 11 12  1  0
 12 13  1  0
 13 14  2  0
 14 15  1  0
 15 16  2  0
 16 17  1  0
 16 18  1  0
 18 19  2  0
  2 20  1  0
 20 21  2  0
 21 22  1  0
 22 23  2  0
 23 24  1  0
 24 25  2  0
 25 26  1  0
 26 27  2  0
 27 28  1  0
 28 29  2  0
 12  7  1  0
 19 13  1  0
 29 20  1  0
 28 23  1  0
  3 30  1  0
  4 31  1  0
  4 32  1  0
  8 33  1  0
  8 34  1  0
  9 35  1  0
  9 36  1  0
 10 37  1  0
 10 38  1  0
 11 39  1  0
 11 40  1  0
 12 41  1  6
 14 42  1  0
 15 43  1  0
 18 44  1  0
 19 45  1  0
 21 46  1  0
 22 47  1  0
 24 48  1  0
 25 49  1  0
 26 50  1  0
 27 51  1  0
M  END
>  <smiles>  (90) 
O=C(NCC(=O)N1CCCCC1c1ccc(Cl)cc1)c1ccc2ccccc2n1

>  <score_type>  (90) 
oracle

>  <origin>  (90) 
autodockgpu

>  <m_score__min__energy>  (90) 
-9.2200000000000006

>  <m_primary>  (90) 
energy

>  <rmsd>  (90) 
1.9201270833484336

>  <m_score__min__rmsd>  (90) 
1.9201270833484336

>  <meeko>  (90) 
{"free_energy": -8.82, "intermolecular_energy": -10.32, "internal_energy": -1.83, "cluster_size": 24, "cluster_id": 2, "rank_in_cluster": 18}

>  <energy>  (90) 
-8.56

>  <cluster_rmsd>  (90) 
1.39

>  <cluster>  (90) 
2

$$$$

     RDKit          3D

 51 54  0  0  0  0  0  0  0  0999 V2000
  137.4760   76.0180  222.3240 O   0  0  0  0  0  0  0  0  0  0  0  0
  138.7400   76.1890  222.3370 C   0  0  0  0  0  0  0  0  0  0  0  0
  139.5810   75.0930  222.0200 N   0  0  0  0  0  0  0  0  0  0  0  0
  139.0240   73.8060  221.6870 C   0  0  0  0  0  0  0  0  0  0  0  0
  139.8180   72.7340  222.3290 C   0  0  0  0  0  0  0  0  0  0  0  0
  141.0160   72.9430  222.6810 O   0  0  0  0  0  0  0  0  0  0  0  0
  139.3080   71.4320  222.5880 N   0  0  0  0  0  0  0  0  0  0  0  0
  139.6860   70.3830  221.6650 C   0  0  0  0  0  0  0  0  0  0  0  0
  139.1430   69.0740  222.1680 C   0  0  0  0  0  0  0  0  0  0  0  0
  137.6830   69.1060  222.4940 C   0  0  0  0  0  0  0  0  0  0  0  0
  137.2750   70.3730  223.1580 C   0  0  0  0  0  0  0  0  0  0  0  0
  138.4450   71.1300  223.7150 C   0  0  1  0  0  0  0  0  0  0  0  0
  139.1270   70.4840  224.8400 C   0  0  0  0  0  0  0  0  0  0  0  0
  138.5280   69.3830  225.4190 C   0  0  0  0  0  0  0  0  0  0  0  0
  139.1450   68.7260  226.4840 C   0  0  0  0  0  0  0  0  0  0  0  0
  140.3490   69.1380  226.9920 C   0  0  0  0  0  0  0  0  0  0  0  0
  141.0840   68.2900  228.3220 Cl  0  0  0  0  0  0  0  0  0  0  0  0
  140.9500   70.2300  226.4230 C   0  0  0  0  0  0  0  0  0  0  0  0
  140.3370   70.8790  225.3690 C   0  0  0  0  0  0  0  0  0  0  0  0
  139.2930   77.4990  222.6770 C   0  0  0  0  0  0  0  0  0  0  0  0
  138.4650   78.5460  222.9630 C   0  0  0  0  0  0  0  0  0  0  0  0
  138.9530   79.7910  223.2860 C   0  0  0  0  0  0  0  0  0  0  0  0
  140.3270   79.9560  223.3140 C   0  0  0  0  0  0  0  0  0  0  0  0
  140.8230   81.1980  223.6360 C   0  0  0  0  0  0  0  0  0  0  0  0
  142.1950   81.3500  223.6600 C   0  0  0  0  0  0  0  0  0  0  0  0
  142.9990   80.2720  223.3670 C   0  0  0  0  0  0  0  0  0  0  0  0
  142.5050   79.0260  223.0430 C   0  0  0  0  0  0  0  0  0  0  0  0
  141.1350   78.8720  223.0180 C   0  0  0  0  0  0  0  0  0  0  0  0
  140.6250   77.6870  222.7110 N   0  0  0  0  0  0  0  0  0  0  0  0
  140.6190   75.2870  222.0470 H   0  0  0  0  0  0  0  0  0  0  0  0
  137.9849   73.7544  222.0442 H   0  0  0  0  0  0  0  0  0  0  0  0
  139.0482   73.6715  220.5955 H   0  0  0  0  0  0  0  0  0  0  0  0
  139.2688   70.5982  220.6702 H   0  0  0  0  0  0  0  0  0  0  0  0
  140.7821   70.3284  221.5908 H   0  0  0  0  0  0  0  0  0  0  0  0
  139.3078   68.3106  221.3934 H   0  0  0  0  0  0  0  0  0  0  0  0
  139.6735   68.8482  223.1048 H   0  0  0  0  0  0  0  0  0  0  0  0
  137.1108   68.9966  221.5609 H   0  0  0  0  0  0  0  0  0  0  0  0
  137.4786   68.2816  223.1930 H   0  0  0  0  0  0  0  0  0  0  0  0
  136.7616   71.0084  222.4213 H   0  0  0  0  0  0  0  0  0  0  0  0
  136.6133   70.1135  223.9975 H   0  0  0  0  0  0  0  0  0  0  0  0
  138.0927   72.0562  224.1926 H   0  0  0  0  0  0  0  0  0  0  0  0
  137.5607   69.0225  225.0392 H   0  0  0  0  0  0  0  0  0  0  0  0
  138.6498   67.8506  226.9294 H   0  0  0  0  0  0  0  0  0  0  0  0
  141.9175   70.5886  226.8043 H   0  0  0  0  0  0  0  0  0  0  0  0
  140.8390   71.7539  224.9303 H   0  0  0  0  0  0  0  0  0  0  0  0
  137.3765   78.3897  222.9344 H   0  0  0  0  0  0  0  0  0  0  0  0
  138.2748   80.6264  223.5141 H   0  0  0  0  0  0  0  0  0  0  0  0
  140.1517   82.0385  223.8658 H   0  0  0  0  0  0  0  0  0  0  0  0
  142.6414   82.3235  223.9109 H   0  0  0  0  0  0  0  0  0  0  0  0
  144.0898   80.4113  223.3926 H   0  0  0  0  0  0  0  0  0  0  0  0
  143.1782   78.1869  222.8132 H   0  0  0  0  0  0  0  0  0  0  0  0
  1  2  2  0
  2  3  1  0
  3  4  1  0
  4  5  1  0
  5  6  2  0
  5  7  1  0
  7  8  1  0
  8  9  1  0
  9 10  1  0
 10 11  1  0
 11 12  1  0
 12 13  1  0
 13 14  2  0
 14 15  1  0
 15 16  2  0
 16 17  1  0
 16 18  1  0
 18 19  2  0
  2 20  1  0
 20 21  2  0
 21 22  1  0
 22 23  2  0
 23 24  1  0
 24 25  2  0
 25 26  1  0
 26 27  2  0
 27 28  1  0
 28 29  2  0
 12  7  1  0
 19 13  1  0
 29 20  1  0
 28 23  1  0
  3 30  1  0
  4 31  1  0
  4 32  1  0
  8 33  1  0
  8 34  1  0
  9 35  1  0
  9 36  1  0
 10 37  1  0
 10 38  1  0
 11 39  1  0
 11 40  1  0
 12 41  1  1
 14 42  1  0
 15 43  1  0
 18 44  1  0
 19 45  1  0
 21 46  1  0
 22 47  1  0
 24 48  1  0
 25 49  1  0
 26 50  1  0
 27 51  1  0
M  END
>  <smiles>  (91) 
O=C(NCC(=O)N1CCCCC1c1ccc(Cl)cc1)c1ccc2ccccc2n1

>  <score_type>  (91) 
oracle

>  <origin>  (91) 
autodockgpu

>  <m_score__min__energy>  (91) 
-9.2200000000000006

>  <m_primary>  (91) 
energy

>  <rmsd>  (91) 
8.334909854259775

>  <m_score__min__rmsd>  (91) 
8.334909854259775

>  <meeko>  (91) 
{"free_energy": -8.71, "intermolecular_energy": -10.2, "internal_energy": -1.84, "cluster_size": 16, "cluster_id": 1, "rank_in_cluster": 6}

>  <energy>  (91) 
-8.88

>  <cluster_rmsd>  (91) 
0.0

>  <cluster>  (91) 
3

$$$$

     RDKit          3D

 51 54  0  0  0  0  0  0  0  0999 V2000
  137.3780   76.1330  222.3530 O   0  0  0  0  0  0  0  0  0  0  0  0
  138.6460   76.2650  222.3820 C   0  0  0  0  0  0  0  0  0  0  0  0
  139.4570   75.1340  222.1110 N   0  0  0  0  0  0  0  0  0  0  0  0
  138.8640   73.8560  221.8070 C   0  0  0  0  0  0  0  0  0  0  0  0
  139.7770   72.7670  222.2240 C   0  0  0  0  0  0  0  0  0  0  0  0
  141.0130   72.9890  222.3810 O   0  0  0  0  0  0  0  0  0  0  0  0
  139.3440   71.4350  222.4690 N   0  0  0  0  0  0  0  0  0  0  0  0
  139.8290   70.4110  221.5690 C   0  0  0  0  0  0  0  0  0  0  0  0
  139.3530   69.0690  222.0580 C   0  0  0  0  0  0  0  0  0  0  0  0
  137.8820   69.0060  222.3210 C   0  0  0  0  0  0  0  0  0  0  0  0
  137.3630   70.2460  222.9600 C   0  0  0  0  0  0  0  0  0  0  0  0
  138.4560   71.0810  223.5610 C   0  0  1  0  0  0  0  0  0  0  0  0
  139.1300   70.4850  224.7180 C   0  0  0  0  0  0  0  0  0  0  0  0
  138.5310   69.4060  225.3360 C   0  0  0  0  0  0  0  0  0  0  0  0
  139.1420   68.7980  226.4330 C   0  0  0  0  0  0  0  0  0  0  0  0
  140.3390   69.2360  226.9350 C   0  0  0  0  0  0  0  0  0  0  0  0
  141.0660   68.4480  228.3050 Cl  0  0  0  0  0  0  0  0  0  0  0  0
  140.9400   70.3070  226.3260 C   0  0  0  0  0  0  0  0  0  0  0  0
  140.3330   70.9080  225.2400 C   0  0  0  0  0  0  0  0  0  0  0  0
  139.2350   77.5660  222.6920 C   0  0  0  0  0  0  0  0  0  0  0  0
  138.4370   78.6390  222.9650 C   0  0  0  0  0  0  0  0  0  0  0  0
  138.9590   79.8770  223.2620 C   0  0  0  0  0  0  0  0  0  0  0  0
  140.3370   80.0070  223.2740 C   0  0  0  0  0  0  0  0  0  0  0  0
  140.8670   81.2420  223.5680 C   0  0  0  0  0  0  0  0  0  0  0  0
  142.2430   81.3590  223.5780 C   0  0  0  0  0  0  0  0  0  0  0  0
  143.0160   80.2560  223.2980 C   0  0  0  0  0  0  0  0  0  0  0  0
  142.4890   79.0180  223.0020 C   0  0  0  0  0  0  0  0  0  0  0  0
  141.1150   78.8970  222.9920 C   0  0  0  0  0  0  0  0  0  0  0  0
  140.5720   77.7210  222.7110 N   0  0  0  0  0  0  0  0  0  0  0  0
  140.5000   75.2960  222.1490 H   0  0  0  0  0  0  0  0  0  0  0  0
  137.9098   73.7589  222.3457 H   0  0  0  0  0  0  0  0  0  0  0  0
  138.6870   73.7864  220.7236 H   0  0  0  0  0  0  0  0  0  0  0  0
  139.4402   70.5946  220.5565 H   0  0  0  0  0  0  0  0  0  0  0  0
  140.9285   70.4294  221.5402 H   0  0  0  0  0  0  0  0  0  0  0  0
  139.6011   68.3151  221.2964 H   0  0  0  0  0  0  0  0  0  0  0  0
  139.8569   68.8821  223.0177 H   0  0  0  0  0  0  0  0  0  0  0  0
  137.3589   68.8565  221.3650 H   0  0  0  0  0  0  0  0  0  0  0  0
  137.7023   68.1721  223.0155 H   0  0  0  0  0  0  0  0  0  0  0  0
  136.8402   70.8435  222.1986 H   0  0  0  0  0  0  0  0  0  0  0  0
  136.6851   69.9459  223.7726 H   0  0  0  0  0  0  0  0  0  0  0  0
  138.0245   71.9840  224.0174 H   0  0  0  0  0  0  0  0  0  0  0  0
  137.5693   69.0244  224.9626 H   0  0  0  0  0  0  0  0  0  0  0  0
  138.6467   67.9395  226.9101 H   0  0  0  0  0  0  0  0  0  0  0  0
  141.9021   70.6866  226.7006 H   0  0  0  0  0  0  0  0  0  0  0  0
  140.8347   71.7662  224.7691 H   0  0  0  0  0  0  0  0  0  0  0  0
  137.3447   78.5104  222.9471 H   0  0  0  0  0  0  0  0  0  0  0  0
  138.3043   80.7331  223.4821 H   0  0  0  0  0  0  0  0  0  0  0  0
  140.2193   82.1037  223.7868 H   0  0  0  0  0  0  0  0  0  0  0  0
  142.7164   82.3250  223.8077 H   0  0  0  0  0  0  0  0  0  0  0  0
  144.1102   80.3682  223.3111 H   0  0  0  0  0  0  0  0  0  0  0  0
  143.1393   78.1585  222.7820 H   0  0  0  0  0  0  0  0  0  0  0  0
  1  2  2  0
  2  3  1  0
  3  4  1  0
  4  5  1  0
  5  6  2  0
  5  7  1  0
  7  8  1  0
  8  9  1  0
  9 10  1  0
 10 11  1  0
 11 12  1  0
 12 13  1  0
 13 14  2  0
 14 15  1  0
 15 16  2  0
 16 17  1  0
 16 18  1  0
 18 19  2  0
  2 20  1  0
 20 21  2  0
 21 22  1  0
 22 23  2  0
 23 24  1  0
 24 25  2  0
 25 26  1  0
 26 27  2  0
 27 28  1  0
 28 29  2  0
 12  7  1  0
 19 13  1  0
 29 20  1  0
 28 23  1  0
  3 30  1  0
  4 31  1  0
  4 32  1  0
  8 33  1  0
  8 34  1  0
  9 35  1  0
  9 36  1  0
 10 37  1  0
 10 38  1  0
 11 39  1  0
 11 40  1  0
 12 41  1  1
 14 42  1  0
 15 43  1  0
 18 44  1  0
 19 45  1  0
 21 46  1  0
 22 47  1  0
 24 48  1  0
 25 49  1  0
 26 50  1  0
 27 51  1  0
M  END
>  <smiles>  (92) 
O=C(NCC(=O)N1CCCCC1c1ccc(Cl)cc1)c1ccc2ccccc2n1

>  <score_type>  (92) 
oracle

>  <origin>  (92) 
autodockgpu

>  <m_score__min__energy>  (92) 
-9.2200000000000006

>  <m_primary>  (92) 
energy

>  <rmsd>  (92) 
8.34768608685077

>  <m_score__min__rmsd>  (92) 
8.34768608685077

>  <meeko>  (92) 
{"free_energy": -8.67, "intermolecular_energy": -10.16, "internal_energy": -1.97, "cluster_size": 16, "cluster_id": 1, "rank_in_cluster": 11}

>  <energy>  (92) 
-8.8

>  <cluster_rmsd>  (92) 
0.38

>  <cluster>  (92) 
3

$$$$

     RDKit          3D

 51 54  0  0  0  0  0  0  0  0999 V2000
  140.1370   71.1500  221.3630 O   0  0  0  0  0  0  0  0  0  0  0  0
  139.9300   71.7170  222.4870 C   0  0  0  0  0  0  0  0  0  0  0  0
  139.6940   73.1140  222.5120 N   0  0  0  0  0  0  0  0  0  0  0  0
  139.6860   73.8860  221.2940 C   0  0  0  0  0  0  0  0  0  0  0  0
  139.3610   75.2980  221.5960 C   0  0  0  0  0  0  0  0  0  0  0  0
  138.6660   75.5950  222.6120 O   0  0  0  0  0  0  0  0  0  0  0  0
  139.7910   76.3890  220.7910 N   0  0  0  0  0  0  0  0  0  0  0  0
  138.7810   77.0550  219.9960 C   0  0  0  0  0  0  0  0  0  0  0  0
  139.4070   78.2380  219.3080 C   0  0  0  0  0  0  0  0  0  0  0  0
  140.6600   77.9120  218.5590 C   0  0  0  0  0  0  0  0  0  0  0  0
  141.5260   76.9440  219.2870 C   0  0  0  0  0  0  0  0  0  0  0  0
  141.1680   76.8400  220.7410 C   0  0  1  0  0  0  0  0  0  0  0  0
  141.4390   78.0410  221.5360 C   0  0  0  0  0  0  0  0  0  0  0  0
  141.2430   77.9760  222.9020 C   0  0  0  0  0  0  0  0  0  0  0  0
  141.5000   79.0890  223.7020 C   0  0  0  0  0  0  0  0  0  0  0  0
  141.9500   80.2730  223.1780 C   0  0  0  0  0  0  0  0  0  0  0  0
  142.2580   81.6370  224.2130 Cl  0  0  0  0  0  0  0  0  0  0  0  0
  142.1470   80.3450  221.8240 C   0  0  0  0  0  0  0  0  0  0  0  0
  141.8920   79.2410  221.0340 C   0  0  0  0  0  0  0  0  0  0  0  0
  139.9410   70.9250  223.7140 C   0  0  0  0  0  0  0  0  0  0  0  0
  139.5290   69.6230  223.7020 C   0  0  0  0  0  0  0  0  0  0  0  0
  139.5280   68.8510  224.8400 C   0  0  0  0  0  0  0  0  0  0  0  0
  139.9600   69.4380  226.0170 C   0  0  0  0  0  0  0  0  0  0  0  0
  139.9610   68.6720  227.1590 C   0  0  0  0  0  0  0  0  0  0  0  0
  140.3940   69.2680  228.3260 C   0  0  0  0  0  0  0  0  0  0  0  0
  140.8020   70.5820  228.3020 C   0  0  0  0  0  0  0  0  0  0  0  0
  140.8020   71.3530  227.1590 C   0  0  0  0  0  0  0  0  0  0  0  0
  140.3700   70.7590  225.9910 C   0  0  0  0  0  0  0  0  0  0  0  0
  140.3570   71.4710  224.8730 N   0  0  0  0  0  0  0  0  0  0  0  0
  139.5290   73.5360  223.4660 H   0  0  0  0  0  0  0  0  0  0  0  0
  140.6780   73.8328  220.8217 H   0  0  0  0  0  0  0  0  0  0  0  0
  138.9271   73.4774  220.6106 H   0  0  0  0  0  0  0  0  0  0  0  0
  138.3835   76.3577  219.2438 H   0  0  0  0  0  0  0  0  0  0  0  0
  137.9580   77.3918  220.6435 H   0  0  0  0  0  0  0  0  0  0  0  0
  138.6764   78.6514  218.5971 H   0  0  0  0  0  0  0  0  0  0  0  0
  139.6836   78.9549  220.0952 H   0  0  0  0  0  0  0  0  0  0  0  0
  140.3862   77.4776  217.5862 H   0  0  0  0  0  0  0  0  0  0  0  0
  141.2299   78.8453  218.4401 H   0  0  0  0  0  0  0  0  0  0  0  0
  141.4151   75.9525  218.8237 H   0  0  0  0  0  0  0  0  0  0  0  0
  142.5630   77.3049  219.2210 H   0  0  0  0  0  0  0  0  0  0  0  0
  141.8303   76.1131  221.2339 H   0  0  0  0  0  0  0  0  0  0  0  0
  140.8830   77.0431  223.3602 H   0  0  0  0  0  0  0  0  0  0  0  0
  141.3365   79.0144  224.7872 H   0  0  0  0  0  0  0  0  0  0  0  0
  142.5070   81.2789  221.3676 H   0  0  0  0  0  0  0  0  0  0  0  0
  142.0590   79.3243  219.9499 H   0  0  0  0  0  0  0  0  0  0  0  0
  139.1882   69.1791  222.7550 H   0  0  0  0  0  0  0  0  0  0  0  0
  139.1953   67.8028  224.8159 H   0  0  0  0  0  0  0  0  0  0  0  0
  139.6291   67.6234  227.1430 H   0  0  0  0  0  0  0  0  0  0  0  0
  140.4128   68.6980  229.2666 H   0  0  0  0  0  0  0  0  0  0  0  0
  141.1452   71.0400  229.2414 H   0  0  0  0  0  0  0  0  0  0  0  0
  141.1337   72.4016  227.1775 H   0  0  0  0  0  0  0  0  0  0  0  0
  1  2  2  0
  2  3  1  0
  3  4  1  0
  4  5  1  0
  5  6  2  0
  5  7  1  0
  7  8  1  0
  8  9  1  0
  9 10  1  0
 10 11  1  0
 11 12  1  0
 12 13  1  0
 13 14  2  0
 14 15  1  0
 15 16  2  0
 16 17  1  0
 16 18  1  0
 18 19  2  0
  2 20  1  0
 20 21  2  0
 21 22  1  0
 22 23  2  0
 23 24  1  0
 24 25  2  0
 25 26  1  0
 26 27  2  0
 27 28  1  0
 28 29  2  0
 12  7  1  0
 19 13  1  0
 29 20  1  0
 28 23  1  0
  3 30  1  0
  4 31  1  0
  4 32  1  0
  8 33  1  0
  8 34  1  0
  9 35  1  0
  9 36  1  0
 10 37  1  0
 10 38  1  0
 11 39  1  0
 11 40  1  0
 12 41  1  1
 14 42  1  0
 15 43  1  0
 18 44  1  0
 19 45  1  0
 21 46  1  0
 22 47  1  0
 24 48  1  0
 25 49  1  0
 26 50  1  0
 27 51  1  0
M  END
>  <smiles>  (93) 
O=C(NCC(=O)N1CCCCC1c1ccc(Cl)cc1)c1ccc2ccccc2n1

>  <score_type>  (93) 
oracle

>  <origin>  (93) 
autodockgpu

>  <m_score__min__energy>  (93) 
-9.2200000000000006

>  <m_primary>  (93) 
energy

>  <rmsd>  (93) 
1.6346834760152682

>  <m_score__min__rmsd>  (93) 
1.6346834760152682

>  <meeko>  (93) 
{"free_energy": -8.92, "intermolecular_energy": -10.41, "internal_energy": -1.75, "cluster_size": 24, "cluster_id": 2, "rank_in_cluster": 9}

>  <energy>  (93) 
-8.79

>  <cluster_rmsd>  (93) 
0.33

>  <cluster>  (93) 
3

$$$$

     RDKit          3D

 51 54  0  0  0  0  0  0  0  0999 V2000
  138.4430   70.7770  221.8040 O   0  0  0  0  0  0  0  0  0  0  0  0
  139.0470   71.2670  222.8150 C   0  0  0  0  0  0  0  0  0  0  0  0
  139.4350   72.6300  222.7830 N   0  0  0  0  0  0  0  0  0  0  0  0
  139.1550   73.4520  221.6320 C   0  0  0  0  0  0  0  0  0  0  0  0
  140.0360   74.6420  221.6390 C   0  0  0  0  0  0  0  0  0  0  0  0
  141.2550   74.5390  221.9630 O   0  0  0  0  0  0  0  0  0  0  0  0
  139.5880   75.9470  221.2930 N   0  0  0  0  0  0  0  0  0  0  0  0
  138.2120   76.2720  221.6010 C   0  0  0  0  0  0  0  0  0  0  0  0
  137.9660   77.7180  221.2640 C   0  0  0  0  0  0  0  0  0  0  0  0
  138.3910   78.1000  219.8810 C   0  0  0  0  0  0  0  0  0  0  0  0
  139.6740   77.4600  219.4810 C   0  0  0  0  0  0  0  0  0  0  0  0
  140.4420   76.9340  220.6580 C   0  0  1  0  0  0  0  0  0  0  0  0
  140.9630   77.9560  221.5700 C   0  0  0  0  0  0  0  0  0  0  0  0
  141.4320   79.1360  221.0260 C   0  0  0  0  0  0  0  0  0  0  0  0
  141.9250   80.1430  221.8550 C   0  0  0  0  0  0  0  0  0  0  0  0
  141.9650   80.0100  223.2180 C   0  0  0  0  0  0  0  0  0  0  0  0
  142.5890   81.2930  224.2150 Cl  0  0  0  0  0  0  0  0  0  0  0  0
  141.5010   78.8420  223.7660 C   0  0  0  0  0  0  0  0  0  0  0  0
  141.0130   77.8450  222.9430 C   0  0  0  0  0  0  0  0  0  0  0  0
  139.3260   70.4240  223.9750 C   0  0  0  0  0  0  0  0  0  0  0  0
  138.9960   69.0990  223.9620 C   0  0  0  0  0  0  0  0  0  0  0  0
  139.2460   68.2780  225.0380 C   0  0  0  0  0  0  0  0  0  0  0  0
  139.8480   68.8400  226.1500 C   0  0  0  0  0  0  0  0  0  0  0  0
  140.1000   68.0260  227.2300 C   0  0  0  0  0  0  0  0  0  0  0  0
  140.7000   68.5980  228.3340 C   0  0  0  0  0  0  0  0  0  0  0  0
  141.0190   69.9360  228.3110 C   0  0  0  0  0  0  0  0  0  0  0  0
  140.7670   70.7550  227.2310 C   0  0  0  0  0  0  0  0  0  0  0  0
  140.1670   70.1860  226.1270 C   0  0  0  0  0  0  0  0  0  0  0  0
  139.9110   70.9450  225.0700 N   0  0  0  0  0  0  0  0  0  0  0  0
  139.9330   72.9870  223.6430 H   0  0  0  0  0  0  0  0  0  0  0  0
  139.3342   72.8704  220.7157 H   0  0  0  0  0  0  0  0  0  0  0  0
  138.1048   73.7775  221.6651 H   0  0  0  0  0  0  0  0  0  0  0  0
  137.5402   75.6349  221.0071 H   0  0  0  0  0  0  0  0  0  0  0  0
  138.0186   76.1001  222.6701 H   0  0  0  0  0  0  0  0  0  0  0  0
  136.8889   77.9181  221.3628 H   0  0  0  0  0  0  0  0  0  0  0  0
  138.5727   78.3154  221.9605 H   0  0  0  0  0  0  0  0  0  0  0  0
  137.6074   77.7914  219.1734 H   0  0  0  0  0  0  0  0  0  0  0  0
  138.5427   79.1894  219.8672 H   0  0  0  0  0  0  0  0  0  0  0  0
  139.4547   76.6243  218.8002 H   0  0  0  0  0  0  0  0  0  0  0  0
  140.2931   78.2265  218.9919 H   0  0  0  0  0  0  0  0  0  0  0  0
  141.3781   76.4715  220.3117 H   0  0  0  0  0  0  0  0  0  0  0  0
  141.4165   79.2816  219.9358 H   0  0  0  0  0  0  0  0  0  0  0  0
  142.2937   81.0742  221.4000 H   0  0  0  0  0  0  0  0  0  0  0  0
  141.5172   78.6991  224.8566 H   0  0  0  0  0  0  0  0  0  0  0  0
  140.6464   76.9171  223.4063 H   0  0  0  0  0  0  0  0  0  0  0  0
  138.5170   68.6760  223.0666 H   0  0  0  0  0  0  0  0  0  0  0  0
  138.9765   67.2118  225.0148 H   0  0  0  0  0  0  0  0  0  0  0  0
  139.8333   66.9589  227.2145 H   0  0  0  0  0  0  0  0  0  0  0  0
  140.9209   67.9897  229.2235 H   0  0  0  0  0  0  0  0  0  0  0  0
  141.4990   70.3742  229.1985 H   0  0  0  0  0  0  0  0  0  0  0  0
  141.0343   71.8219  227.2490 H   0  0  0  0  0  0  0  0  0  0  0  0
  1  2  2  0
  2  3  1  0
  3  4  1  0
  4  5  1  0
  5  6  2  0
  5  7  1  0
  7  8  1  0
  8  9  1  0
  9 10  1  0
 10 11  1  0
 11 12  1  0
 12 13  1  0
 13 14  2  0
 14 15  1  0
 15 16  2  0
 16 17  1  0
 16 18  1  0
 18 19  2  0
  2 20  1  0
 20 21  2  0
 21 22  1  0
 22 23  2  0
 23 24  1  0
 24 25  2  0
 25 26  1  0
 26 27  2  0
 27 28  1  0
 28 29  2  0
 12  7  1  0
 19 13  1  0
 29 20  1  0
 28 23  1  0
  3 30  1  0
  4 31  1  0
  4 32  1  0
  8 33  1  0
  8 34  1  0
  9 35  1  0
  9 36  1  0
 10 37  1  0
 10 38  1  0
 11 39  1  0
 11 40  1  0
 12 41  1  6
 14 42  1  0
 15 43  1  0
 18 44  1  0
 19 45  1  0
 21 46  1  0
 22 47  1  0
 24 48  1  0
 25 49  1  0
 26 50  1  0
 27 51  1  0
M  END
>  <smiles>  (94) 
O=C(NCC(=O)N1CCCCC1c1ccc(Cl)cc1)c1ccc2ccccc2n1

>  <score_type>  (94) 
oracle

>  <origin>  (94) 
autodockgpu

>  <m_score__min__energy>  (94) 
-9.2200000000000006

>  <m_primary>  (94) 
energy

>  <rmsd>  (94) 
2.0695868971227496

>  <m_score__min__rmsd>  (94) 
2.0695868971227496

>  <meeko>  (94) 
{"free_energy": -8.95, "intermolecular_energy": -10.45, "internal_energy": -1.78, "cluster_size": 24, "cluster_id": 2, "rank_in_cluster": 6}

>  <energy>  (94) 
-8.79

>  <cluster_rmsd>  (94) 
0.34

>  <cluster>  (94) 
3

$$$$

     RDKit          3D

 51 54  0  0  0  0  0  0  0  0999 V2000
  140.7960   71.2440  221.5120 O   0  0  0  0  0  0  0  0  0  0  0  0
  140.0840   71.6590  222.4860 C   0  0  0  0  0  0  0  0  0  0  0  0
  139.3210   72.8410  222.3180 N   0  0  0  0  0  0  0  0  0  0  0  0
  139.3450   73.5660  221.0720 C   0  0  0  0  0  0  0  0  0  0  0  0
  140.0440   74.8580  221.2560 C   0  0  0  0  0  0  0  0  0  0  0  0
  141.3070   74.9210  221.1890 O   0  0  0  0  0  0  0  0  0  0  0  0
  139.3690   76.0830  221.5130 N   0  0  0  0  0  0  0  0  0  0  0  0
  138.2720   76.0420  222.4570 C   0  0  0  0  0  0  0  0  0  0  0  0
  137.7660   77.4430  222.6740 C   0  0  0  0  0  0  0  0  0  0  0  0
  137.4590   78.1810  221.4100 C   0  0  0  0  0  0  0  0  0  0  0  0
  138.4600   77.9210  220.3390 C   0  0  0  0  0  0  0  0  0  0  0  0
  139.7330   77.3350  220.8770 C   0  0  1  0  0  0  0  0  0  0  0  0
  140.5230   78.2340  221.7230 C   0  0  0  0  0  0  0  0  0  0  0  0
  140.7030   79.5360  221.3010 C   0  0  0  0  0  0  0  0  0  0  0  0
  141.4350   80.4320  222.0790 C   0  0  0  0  0  0  0  0  0  0  0  0
  141.9990   80.0670  223.2740 C   0  0  0  0  0  0  0  0  0  0  0  0
  142.9050   81.2170  224.2130 Cl  0  0  0  0  0  0  0  0  0  0  0  0
  141.8250   78.7760  223.7000 C   0  0  0  0  0  0  0  0  0  0  0  0
  141.0980   77.8900  222.9280 C   0  0  0  0  0  0  0  0  0  0  0  0
  140.0690   70.9160  223.7440 C   0  0  0  0  0  0  0  0  0  0  0  0
  139.5560   69.6520  223.7950 C   0  0  0  0  0  0  0  0  0  0  0  0
  139.5270   68.9260  224.9630 C   0  0  0  0  0  0  0  0  0  0  0  0
  140.0380   69.5210  226.1030 C   0  0  0  0  0  0  0  0  0  0  0  0
  140.0120   68.8010  227.2750 C   0  0  0  0  0  0  0  0  0  0  0  0
  140.5260   69.4050  228.4060 C   0  0  0  0  0  0  0  0  0  0  0  0
  141.0350   70.6810  228.3170 C   0  0  0  0  0  0  0  0  0  0  0  0
  141.0620   71.4050  227.1450 C   0  0  0  0  0  0  0  0  0  0  0  0
  140.5500   70.8040  226.0140 C   0  0  0  0  0  0  0  0  0  0  0  0
  140.5600   71.4710  224.8680 N   0  0  0  0  0  0  0  0  0  0  0  0
  138.7500   73.1430  223.1540 H   0  0  0  0  0  0  0  0  0  0  0  0
  139.8731   72.9701  220.3131 H   0  0  0  0  0  0  0  0  0  0  0  0
  138.3127   73.7556  220.7426 H   0  0  0  0  0  0  0  0  0  0  0  0
  137.4624   75.4145  222.0559 H   0  0  0  0  0  0  0  0  0  0  0  0
  138.6160   75.6169  223.4114 H   0  0  0  0  0  0  0  0  0  0  0  0
  136.8465   77.3895  223.2754 H   0  0  0  0  0  0  0  0  0  0  0  0
  138.5706   77.9975  223.1791 H   0  0  0  0  0  0  0  0  0  0  0  0
  136.4681   77.8669  221.0502 H   0  0  0  0  0  0  0  0  0  0  0  0
  137.4852   79.2570  221.6371 H   0  0  0  0  0  0  0  0  0  0  0  0
  138.0262   77.2176  219.6130 H   0  0  0  0  0  0  0  0  0  0  0  0
  138.7063   78.8843  219.8685 H   0  0  0  0  0  0  0  0  0  0  0  0
  140.4371   77.1580  220.0506 H   0  0  0  0  0  0  0  0  0  0  0  0
  140.2672   79.8679  220.3471 H   0  0  0  0  0  0  0  0  0  0  0  0
  141.5641   81.4646  221.7226 H   0  0  0  0  0  0  0  0  0  0  0  0
  142.2628   78.4461  224.6537 H   0  0  0  0  0  0  0  0  0  0  0  0
  140.9719   76.8599  223.2926 H   0  0  0  0  0  0  0  0  0  0  0  0
  139.1543   69.2011  222.8756 H   0  0  0  0  0  0  0  0  0  0  0  0
  139.1119   67.9077  224.9899 H   0  0  0  0  0  0  0  0  0  0  0  0
  139.5975   67.7827  227.3101 H   0  0  0  0  0  0  0  0  0  0  0  0
  140.5286   68.8717  229.3681 H   0  0  0  0  0  0  0  0  0  0  0  0
  141.4407   71.1461  229.2276 H   0  0  0  0  0  0  0  0  0  0  0  0
  141.4761   72.4236  227.1126 H   0  0  0  0  0  0  0  0  0  0  0  0
  1  2  2  0
  2  3  1  0
  3  4  1  0
  4  5  1  0
  5  6  2  0
  5  7  1  0
  7  8  1  0
  8  9  1  0
  9 10  1  0
 10 11  1  0
 11 12  1  0
 12 13  1  0
 13 14  2  0
 14 15  1  0
 15 16  2  0
 16 17  1  0
 16 18  1  0
 18 19  2  0
  2 20  1  0
 20 21  2  0
 21 22  1  0
 22 23  2  0
 23 24  1  0
 24 25  2  0
 25 26  1  0
 26 27  2  0
 27 28  1  0
 28 29  2  0
 12  7  1  0
 19 13  1  0
 29 20  1  0
 28 23  1  0
  3 30  1  0
  4 31  1  0
  4 32  1  0
  8 33  1  0
  8 34  1  0
  9 35  1  0
  9 36  1  0
 10 37  1  0
 10 38  1  0
 11 39  1  0
 11 40  1  0
 12 41  1  6
 14 42  1  0
 15 43  1  0
 18 44  1  0
 19 45  1  0
 21 46  1  0
 22 47  1  0
 24 48  1  0
 25 49  1  0
 26 50  1  0
 27 51  1  0
M  END
>  <smiles>  (95) 
O=C(NCC(=O)N1CCCCC1c1ccc(Cl)cc1)c1ccc2ccccc2n1

>  <score_type>  (95) 
oracle

>  <origin>  (95) 
autodockgpu

>  <m_score__min__energy>  (95) 
-9.2200000000000006

>  <m_primary>  (95) 
energy

>  <rmsd>  (95) 
2.6363217238969545

>  <m_score__min__rmsd>  (95) 
2.6363217238969545

>  <meeko>  (95) 
{"free_energy": -9.02, "intermolecular_energy": -10.51, "internal_energy": -1.43, "cluster_size": 24, "cluster_id": 2, "rank_in_cluster": 3}

>  <energy>  (95) 
-8.69

>  <cluster_rmsd>  (95) 
0.38

>  <cluster>  (95) 
3

$$$$

     RDKit          3D

 51 54  0  0  0  0  0  0  0  0999 V2000
  137.4890   76.1630  222.1570 O   0  0  0  0  0  0  0  0  0  0  0  0
  138.7500   76.2760  222.3180 C   0  0  0  0  0  0  0  0  0  0  0  0
  139.5680   75.1340  222.1300 N   0  0  0  0  0  0  0  0  0  0  0  0
  138.9930   73.8650  221.7620 C   0  0  0  0  0  0  0  0  0  0  0  0
  139.7930   72.7630  222.3430 C   0  0  0  0  0  0  0  0  0  0  0  0
  140.9870   72.9610  222.7120 O   0  0  0  0  0  0  0  0  0  0  0  0
  139.2920   71.4440  222.5220 N   0  0  0  0  0  0  0  0  0  0  0  0
  139.7420   70.4390  221.5830 C   0  0  0  0  0  0  0  0  0  0  0  0
  139.1950   69.1020  222.0030 C   0  0  0  0  0  0  0  0  0  0  0  0
  137.7190   69.0980  222.2450 C   0  0  0  0  0  0  0  0  0  0  0  0
  137.2500   70.3320  222.9330 C   0  0  0  0  0  0  0  0  0  0  0  0
  138.3730   71.0840  223.5850 C   0  0  1  0  0  0  0  0  0  0  0  0
  139.0000   70.4060  224.7220 C   0  0  0  0  0  0  0  0  0  0  0  0
  140.0730   71.0210  225.3370 C   0  0  0  0  0  0  0  0  0  0  0  0
  140.6930   70.4200  226.4320 C   0  0  0  0  0  0  0  0  0  0  0  0
  140.2750   69.2170  226.9360 C   0  0  0  0  0  0  0  0  0  0  0  0
  141.0790   68.5030  228.3030 Cl  0  0  0  0  0  0  0  0  0  0  0  0
  139.2110   68.6000  226.3310 C   0  0  0  0  0  0  0  0  0  0  0  0
  138.5970   69.1970  225.2470 C   0  0  0  0  0  0  0  0  0  0  0  0
  139.3210   77.5680  222.6920 C   0  0  0  0  0  0  0  0  0  0  0  0
  138.5080   78.6150  223.0190 C   0  0  0  0  0  0  0  0  0  0  0  0
  139.0150   79.8440  223.3760 C   0  0  0  0  0  0  0  0  0  0  0  0
  140.3910   79.9920  223.3930 C   0  0  0  0  0  0  0  0  0  0  0  0
  140.9040   81.2180  223.7480 C   0  0  0  0  0  0  0  0  0  0  0  0
  142.2780   81.3540  223.7610 C   0  0  0  0  0  0  0  0  0  0  0  0
  143.0660   80.2770  223.4250 C   0  0  0  0  0  0  0  0  0  0  0  0
  142.5550   79.0480  223.0690 C   0  0  0  0  0  0  0  0  0  0  0  0
  141.1830   78.9090  223.0550 C   0  0  0  0  0  0  0  0  0  0  0  0
  140.6560   77.7400  222.7170 N   0  0  0  0  0  0  0  0  0  0  0  0
  140.6030   75.2810  222.2760 H   0  0  0  0  0  0  0  0  0  0  0  0
  137.9623   73.8074  222.1420 H   0  0  0  0  0  0  0  0  0  0  0  0
  138.9903   73.7723  220.6659 H   0  0  0  0  0  0  0  0  0  0  0  0
  139.3789   70.6865  220.5746 H   0  0  0  0  0  0  0  0  0  0  0  0
  140.8414   70.4053  221.5706 H   0  0  0  0  0  0  0  0  0  0  0  0
  139.4176   68.3726  221.2103 H   0  0  0  0  0  0  0  0  0  0  0  0
  139.6753   68.8476  222.9594 H   0  0  0  0  0  0  0  0  0  0  0  0
  137.2032   69.0163  221.2769 H   0  0  0  0  0  0  0  0  0  0  0  0
  137.4902   68.2436  222.8990 H   0  0  0  0  0  0  0  0  0  0  0  0
  136.7681   70.9879  222.1930 H   0  0  0  0  0  0  0  0  0  0  0  0
  136.5456   70.0296  223.7219 H   0  0  0  0  0  0  0  0  0  0  0  0
  137.9787   71.9852  224.0774 H   0  0  0  0  0  0  0  0  0  0  0  0
  140.4396   71.9879  224.9619 H   0  0  0  0  0  0  0  0  0  0  0  0
  141.5453   70.9285  226.9063 H   0  0  0  0  0  0  0  0  0  0  0  0
  138.8472   67.6326  226.7074 H   0  0  0  0  0  0  0  0  0  0  0  0
  137.7445   68.6821  224.7799 H   0  0  0  0  0  0  0  0  0  0  0  0
  137.4175   78.4725  222.9965 H   0  0  0  0  0  0  0  0  0  0  0  0
  138.3495   80.6796  223.6387 H   0  0  0  0  0  0  0  0  0  0  0  0
  140.2447   82.0581  224.0115 H   0  0  0  0  0  0  0  0  0  0  0  0
  142.7383   82.3141  224.0373 H   0  0  0  0  0  0  0  0  0  0  0  0
  144.1586   80.4037  223.4415 H   0  0  0  0  0  0  0  0  0  0  0  0
  143.2164   78.2093  222.8059 H   0  0  0  0  0  0  0  0  0  0  0  0
  1  2  2  0
  2  3  1  0
  3  4  1  0
  4  5  1  0
  5  6  2  0
  5  7  1  0
  7  8  1  0
  8  9  1  0
  9 10  1  0
 10 11  1  0
 11 12  1  0
 12 13  1  0
 13 14  2  0
 14 15  1  0
 15 16  2  0
 16 17  1  0
 16 18  1  0
 18 19  2  0
  2 20  1  0
 20 21  2  0
 21 22  1  0
 22 23  2  0
 23 24  1  0
 24 25  2  0
 25 26  1  0
 26 27  2  0
 27 28  1  0
 28 29  2  0
 12  7  1  0
 19 13  1  0
 29 20  1  0
 28 23  1  0
  3 30  1  0
  4 31  1  0
  4 32  1  0
  8 33  1  0
  8 34  1  0
  9 35  1  0
  9 36  1  0
 10 37  1  0
 10 38  1  0
 11 39  1  0
 11 40  1  0
 12 41  1  1
 14 42  1  0
 15 43  1  0
 18 44  1  0
 19 45  1  0
 21 46  1  0
 22 47  1  0
 24 48  1  0
 25 49  1  0
 26 50  1  0
 27 51  1  0
M  END
>  <smiles>  (96) 
O=C(NCC(=O)N1CCCCC1c1ccc(Cl)cc1)c1ccc2ccccc2n1

>  <score_type>  (96) 
oracle

>  <origin>  (96) 
autodockgpu

>  <m_score__min__energy>  (96) 
-9.2200000000000006

>  <m_primary>  (96) 
energy

>  <rmsd>  (96) 
8.327062634265848

>  <m_score__min__rmsd>  (96) 
8.327062634265848

>  <meeko>  (96) 
{"free_energy": -8.68, "intermolecular_energy": -10.17, "internal_energy": -1.93, "cluster_size": 16, "cluster_id": 1, "rank_in_cluster": 9}

>  <energy>  (96) 
-8.69

>  <cluster_rmsd>  (96) 
0.49

>  <cluster>  (96) 
3

$$$$

     RDKit          3D

 51 54  0  0  0  0  0  0  0  0999 V2000
  140.1930   71.2970  221.3030 O   0  0  0  0  0  0  0  0  0  0  0  0
  139.6600   71.8070  222.3430 C   0  0  0  0  0  0  0  0  0  0  0  0
  138.8880   72.9880  222.2060 N   0  0  0  0  0  0  0  0  0  0  0  0
  138.7060   73.6060  220.9160 C   0  0  0  0  0  0  0  0  0  0  0  0
  138.5470   75.0690  221.0780 C   0  0  0  0  0  0  0  0  0  0  0  0
  137.3950   75.5850  221.1730 O   0  0  0  0  0  0  0  0  0  0  0  0
  139.6440   75.9720  221.1370 N   0  0  0  0  0  0  0  0  0  0  0  0
  139.8090   76.7260  222.3620 C   0  0  0  0  0  0  0  0  0  0  0  0
  141.0750   77.5340  222.2700 C   0  0  0  0  0  0  0  0  0  0  0  0
  141.1810   78.3560  221.0250 C   0  0  0  0  0  0  0  0  0  0  0  0
  140.6790   77.6390  219.8210 C   0  0  0  0  0  0  0  0  0  0  0  0
  140.5760   76.1580  220.0410 C   0  0  1  0  0  0  0  0  0  0  0  0
  141.8550   75.4630  220.2120 C   0  0  0  0  0  0  0  0  0  0  0  0
  141.8340   74.1680  220.6910 C   0  0  0  0  0  0  0  0  0  0  0  0
  143.0250   73.4610  220.8570 C   0  0  0  0  0  0  0  0  0  0  0  0
  144.2440   74.0100  220.5590 C   0  0  0  0  0  0  0  0  0  0  0  0
  145.7060   73.0930  220.7810 Cl  0  0  0  0  0  0  0  0  0  0  0  0
  144.2740   75.2950  220.0830 C   0  0  0  0  0  0  0  0  0  0  0  0
  143.0930   75.9930  219.9180 C   0  0  0  0  0  0  0  0  0  0  0  0
  139.8520   71.1720  223.6450 C   0  0  0  0  0  0  0  0  0  0  0  0
  139.5430   69.8540  223.8240 C   0  0  0  0  0  0  0  0  0  0  0  0
  139.7130   69.2260  225.0370 C   0  0  0  0  0  0  0  0  0  0  0  0
  140.2110   69.9780  226.0870 C   0  0  0  0  0  0  0  0  0  0  0  0
  140.3830   69.3580  227.3020 C   0  0  0  0  0  0  0  0  0  0  0  0
  140.8800   70.1180  228.3420 C   0  0  0  0  0  0  0  0  0  0  0  0
  141.1810   71.4430  228.1250 C   0  0  0  0  0  0  0  0  0  0  0  0
  141.0090   72.0690  226.9080 C   0  0  0  0  0  0  0  0  0  0  0  0
  140.5120   71.3110  225.8680 C   0  0  0  0  0  0  0  0  0  0  0  0
  140.3350   71.8800  224.6830 N   0  0  0  0  0  0  0  0  0  0  0  0
  138.4690   73.3700  223.0970 H   0  0  0  0  0  0  0  0  0  0  0  0
  139.5844   73.4018  220.2862 H   0  0  0  0  0  0  0  0  0  0  0  0
  137.8042   73.1935  220.4400 H   0  0  0  0  0  0  0  0  0  0  0  0
  138.9502   77.3995  222.4996 H   0  0  0  0  0  0  0  0  0  0  0  0
  139.8673   76.0379  223.2182 H   0  0  0  0  0  0  0  0  0  0  0  0
  141.1176   78.2106  223.1363 H   0  0  0  0  0  0  0  0  0  0  0  0
  141.9098   76.8179  222.2515 H   0  0  0  0  0  0  0  0  0  0  0  0
  140.5920   79.2753  221.1586 H   0  0  0  0  0  0  0  0  0  0  0  0
  142.2461   78.5767  220.8613 H   0  0  0  0  0  0  0  0  0  0  0  0
  139.6823   78.0290  219.5672 H   0  0  0  0  0  0  0  0  0  0  0  0
  141.3969   77.8086  219.0050 H   0  0  0  0  0  0  0  0  0  0  0  0
  140.1998   75.6741  219.1276 H   0  0  0  0  0  0  0  0  0  0  0  0
  140.8746   73.6922  220.9426 H   0  0  0  0  0  0  0  0  0  0  0  0
  142.9839   72.4303  221.2392 H   0  0  0  0  0  0  0  0  0  0  0  0
  145.2348   75.7688  219.8332 H   0  0  0  0  0  0  0  0  0  0  0  0
  143.1432   77.0222  219.5331 H   0  0  0  0  0  0  0  0  0  0  0  0
  139.1470   69.2778  222.9748 H   0  0  0  0  0  0  0  0  0  0  0  0
  139.4617   68.1631  225.1675 H   0  0  0  0  0  0  0  0  0  0  0  0
  140.1338   68.2956  227.4404 H   0  0  0  0  0  0  0  0  0  0  0  0
  141.0338   69.6687  229.3342 H   0  0  0  0  0  0  0  0  0  0  0  0
  141.5787   72.0326  228.9642 H   0  0  0  0  0  0  0  0  0  0  0  0
  141.2585   73.1317  226.7720 H   0  0  0  0  0  0  0  0  0  0  0  0
  1  2  2  0
  2  3  1  0
  3  4  1  0
  4  5  1  0
  5  6  2  0
  5  7  1  0
  7  8  1  0
  8  9  1  0
  9 10  1  0
 10 11  1  0
 11 12  1  0
 12 13  1  0
 13 14  2  0
 14 15  1  0
 15 16  2  0
 16 17  1  0
 16 18  1  0
 18 19  2  0
  2 20  1  0
 20 21  2  0
 21 22  1  0
 22 23  2  0
 23 24  1  0
 24 25  2  0
 25 26  1  0
 26 27  2  0
 27 28  1  0
 28 29  2  0
 12  7  1  0
 19 13  1  0
 29 20  1  0
 28 23  1  0
  3 30  1  0
  4 31  1  0
  4 32  1  0
  8 33  1  0
  8 34  1  0
  9 35  1  0
  9 36  1  0
 10 37  1  0
 10 38  1  0
 11 39  1  0
 11 40  1  0
 12 41  1  6
 14 42  1  0
 15 43  1  0
 18 44  1  0
 19 45  1  0
 21 46  1  0
 22 47  1  0
 24 48  1  0
 25 49  1  0
 26 50  1  0
 27 51  1  0
M  END
>  <smiles>  (97) 
O=C(NCC(=O)N1CCCCC1c1ccc(Cl)cc1)c1ccc2ccccc2n1

>  <score_type>  (97) 
oracle

>  <origin>  (97) 
autodockgpu

>  <m_score__min__energy>  (97) 
-9.2200000000000006

>  <m_primary>  (97) 
energy

>  <rmsd>  (97) 
2.4624535310024087

>  <m_score__min__rmsd>  (97) 
2.4624535310024087

>  <meeko>  (97) 
{"free_energy": -8.79, "intermolecular_energy": -10.28, "internal_energy": -1.79, "cluster_size": 10, "cluster_id": 3, "rank_in_cluster": 3}

>  <energy>  (97) 
-8.68

>  <cluster_rmsd>  (97) 
0.43

>  <cluster>  (97) 
3

$$$$

     RDKit          3D

 51 54  0  0  0  0  0  0  0  0999 V2000
  141.0910   71.6800  221.5270 O   0  0  0  0  0  0  0  0  0  0  0  0
  140.4080   72.1360  222.5030 C   0  0  0  0  0  0  0  0  0  0  0  0
  139.8000   73.4100  222.3740 N   0  0  0  0  0  0  0  0  0  0  0  0
  139.9460   74.1810  221.1650 C   0  0  0  0  0  0  0  0  0  0  0  0
  139.1740   75.4390  221.2750 C   0  0  0  0  0  0  0  0  0  0  0  0
  138.1630   75.5100  222.0330 O   0  0  0  0  0  0  0  0  0  0  0  0
  139.5030   76.6230  220.5580 N   0  0  0  0  0  0  0  0  0  0  0  0
  138.4010   77.3870  220.0120 C   0  0  0  0  0  0  0  0  0  0  0  0
  138.9430   78.6470  219.3930 C   0  0  0  0  0  0  0  0  0  0  0  0
  140.0650   78.4170  218.4310 C   0  0  0  0  0  0  0  0  0  0  0  0
  141.0080   77.3630  218.8940 C   0  0  0  0  0  0  0  0  0  0  0  0
  140.8670   77.0750  220.3610 C   0  0  1  0  0  0  0  0  0  0  0  0
  141.2770   78.1640  221.2510 C   0  0  0  0  0  0  0  0  0  0  0  0
  141.1230   77.9860  222.6120 C   0  0  0  0  0  0  0  0  0  0  0  0
  141.5110   78.9890  223.5000 C   0  0  0  0  0  0  0  0  0  0  0  0
  142.0510   80.1730  223.0690 C   0  0  0  0  0  0  0  0  0  0  0  0
  142.5220   81.3980  224.2120 Cl  0  0  0  0  0  0  0  0  0  0  0  0
  142.2080   80.3570  221.7200 C   0  0  0  0  0  0  0  0  0  0  0  0
  141.8230   79.3620  220.8430 C   0  0  0  0  0  0  0  0  0  0  0  0
  140.2670   71.3460  223.7240 C   0  0  0  0  0  0  0  0  0  0  0  0
  139.6880   70.1100  223.6850 C   0  0  0  0  0  0  0  0  0  0  0  0
  139.5410   69.3420  224.8160 C   0  0  0  0  0  0  0  0  0  0  0  0
  140.0010   69.8630  226.0130 C   0  0  0  0  0  0  0  0  0  0  0  0
  139.8570   69.1000  227.1490 C   0  0  0  0  0  0  0  0  0  0  0  0
  140.3200   69.6300  228.3360 C   0  0  0  0  0  0  0  0  0  0  0  0
  140.8980   70.8790  228.3380 C   0  0  0  0  0  0  0  0  0  0  0  0
  141.0440   71.6460  227.2020 C   0  0  0  0  0  0  0  0  0  0  0  0
  140.5830   71.1190  226.0140 C   0  0  0  0  0  0  0  0  0  0  0  0
  140.7060   71.8290  224.9010 N   0  0  0  0  0  0  0  0  0  0  0  0
  139.2460   73.7420  223.2100 H   0  0  0  0  0  0  0  0  0  0  0  0
  141.0089   74.4175  221.0091 H   0  0  0  0  0  0  0  0  0  0  0  0
  139.5671   73.5962  220.3139 H   0  0  0  0  0  0  0  0  0  0  0  0
  137.8828   76.7920  219.2455 H   0  0  0  0  0  0  0  0  0  0  0  0
  137.6896   77.6400  220.8119 H   0  0  0  0  0  0  0  0  0  0  0  0
  138.1244   79.1489  218.8564 H   0  0  0  0  0  0  0  0  0  0  0  0
  139.3472   79.2572  220.2141 H   0  0  0  0  0  0  0  0  0  0  0  0
  139.6420   78.1108  217.4629 H   0  0  0  0  0  0  0  0  0  0  0  0
  140.6304   79.3569  218.3473 H   0  0  0  0  0  0  0  0  0  0  0  0
  140.8090   76.4388  218.3316 H   0  0  0  0  0  0  0  0  0  0  0  0
  142.0311   77.7276  218.7200 H   0  0  0  0  0  0  0  0  0  0  0  0
  141.5800   76.2906  220.6549 H   0  0  0  0  0  0  0  0  0  0  0  0
  140.6927   77.0497  222.9970 H   0  0  0  0  0  0  0  0  0  0  0  0
  141.3796   78.8249  224.5797 H   0  0  0  0  0  0  0  0  0  0  0  0
  142.6391   81.2938  221.3372 H   0  0  0  0  0  0  0  0  0  0  0  0
  141.9589   79.5342  219.7651 H   0  0  0  0  0  0  0  0  0  0  0  0
  139.3292   69.7178  222.7220 H   0  0  0  0  0  0  0  0  0  0  0  0
  139.0736   68.3472  224.7710 H   0  0  0  0  0  0  0  0  0  0  0  0
  139.3902   68.1046  227.1123 H   0  0  0  0  0  0  0  0  0  0  0  0
  140.2280   69.0595  229.2720 H   0  0  0  0  0  0  0  0  0  0  0  0
  141.2614   71.2853  229.2934 H   0  0  0  0  0  0  0  0  0  0  0  0
  141.5108   72.6413  227.2416 H   0  0  0  0  0  0  0  0  0  0  0  0
  1  2  2  0
  2  3  1  0
  3  4  1  0
  4  5  1  0
  5  6  2  0
  5  7  1  0
  7  8  1  0
  8  9  1  0
  9 10  1  0
 10 11  1  0
 11 12  1  0
 12 13  1  0
 13 14  2  0
 14 15  1  0
 15 16  2  0
 16 17  1  0
 16 18  1  0
 18 19  2  0
  2 20  1  0
 20 21  2  0
 21 22  1  0
 22 23  2  0
 23 24  1  0
 24 25  2  0
 25 26  1  0
 26 27  2  0
 27 28  1  0
 28 29  2  0
 12  7  1  0
 19 13  1  0
 29 20  1  0
 28 23  1  0
  3 30  1  0
  4 31  1  0
  4 32  1  0
  8 33  1  0
  8 34  1  0
  9 35  1  0
  9 36  1  0
 10 37  1  0
 10 38  1  0
 11 39  1  0
 11 40  1  0
 12 41  1  1
 14 42  1  0
 15 43  1  0
 18 44  1  0
 19 45  1  0
 21 46  1  0
 22 47  1  0
 24 48  1  0
 25 49  1  0
 26 50  1  0
 27 51  1  0
M  END
>  <smiles>  (98) 
O=C(NCC(=O)N1CCCCC1c1ccc(Cl)cc1)c1ccc2ccccc2n1

>  <score_type>  (98) 
oracle

>  <origin>  (98) 
autodockgpu

>  <m_score__min__energy>  (98) 
-9.2200000000000006

>  <m_primary>  (98) 
energy

>  <rmsd>  (98) 
1.903955287628729

>  <m_score__min__rmsd>  (98) 
1.903955287628729

>  <meeko>  (98) 
{"free_energy": -8.84, "intermolecular_energy": -10.33, "internal_energy": -1.7, "cluster_size": 24, "cluster_id": 2, "rank_in_cluster": 17}

>  <energy>  (98) 
-8.61

>  <cluster_rmsd>  (98) 
0.9

>  <cluster>  (98) 
3

$$$$

     RDKit          3D

 51 54  0  0  0  0  0  0  0  0999 V2000
  138.5590   70.7180  221.7610 O   0  0  0  0  0  0  0  0  0  0  0  0
  139.0670   71.2350  222.8110 C   0  0  0  0  0  0  0  0  0  0  0  0
  139.3530   72.6230  222.8180 N   0  0  0  0  0  0  0  0  0  0  0  0
  139.0770   73.4410  221.6640 C   0  0  0  0  0  0  0  0  0  0  0  0
  140.0530   74.5520  221.5900 C   0  0  0  0  0  0  0  0  0  0  0  0
  141.2470   74.3850  221.9760 O   0  0  0  0  0  0  0  0  0  0  0  0
  139.7300   75.8450  221.0950 N   0  0  0  0  0  0  0  0  0  0  0  0
  138.3420   76.2500  221.1750 C   0  0  0  0  0  0  0  0  0  0  0  0
  138.2250   77.6760  220.7100 C   0  0  0  0  0  0  0  0  0  0  0  0
  138.8630   77.9360  219.3820 C   0  0  0  0  0  0  0  0  0  0  0  0
  140.1550   77.2150  219.2180 C   0  0  0  0  0  0  0  0  0  0  0  0
  140.7160   76.7450  220.5280 C   0  0  1  0  0  0  0  0  0  0  0  0
  141.1550   77.8090  221.4360 C   0  0  0  0  0  0  0  0  0  0  0  0
  141.6920   78.9550  220.8850 C   0  0  0  0  0  0  0  0  0  0  0  0
  142.1110   80.0000  221.7080 C   0  0  0  0  0  0  0  0  0  0  0  0
  142.0090   79.9360  223.0730 C   0  0  0  0  0  0  0  0  0  0  0  0
  142.5450   81.2640  224.0620 Cl  0  0  0  0  0  0  0  0  0  0  0  0
  141.4770   78.8020  223.6280 C   0  0  0  0  0  0  0  0  0  0  0  0
  141.0630   77.7680  222.8110 C   0  0  0  0  0  0  0  0  0  0  0  0
  139.3430   70.3960  223.9740 C   0  0  0  0  0  0  0  0  0  0  0  0
  138.9990   69.0740  223.9720 C   0  0  0  0  0  0  0  0  0  0  0  0
  139.2450   68.2570  225.0500 C   0  0  0  0  0  0  0  0  0  0  0  0
  139.8590   68.8190  226.1570 C   0  0  0  0  0  0  0  0  0  0  0  0
  140.1080   68.0080  227.2400 C   0  0  0  0  0  0  0  0  0  0  0  0
  140.7210   68.5800  228.3370 C   0  0  0  0  0  0  0  0  0  0  0  0
  141.0530   69.9150  228.3040 C   0  0  0  0  0  0  0  0  0  0  0  0
  140.8050   70.7300  227.2210 C   0  0  0  0  0  0  0  0  0  0  0  0
  140.1930   70.1610  226.1230 C   0  0  0  0  0  0  0  0  0  0  0  0
  139.9390   70.9160  225.0630 N   0  0  0  0  0  0  0  0  0  0  0  0
  139.7730   73.0020  223.7100 H   0  0  0  0  0  0  0  0  0  0  0  0
  139.1535   72.8269  220.7546 H   0  0  0  0  0  0  0  0  0  0  0  0
  138.0615   73.8554  221.7478 H   0  0  0  0  0  0  0  0  0  0  0  0
  137.7297   75.6003  220.5324 H   0  0  0  0  0  0  0  0  0  0  0  0
  137.9873   76.1652  222.2128 H   0  0  0  0  0  0  0  0  0  0  0  0
  137.1572   77.9296  220.6366 H   0  0  0  0  0  0  0  0  0  0  0  0
  138.7573   78.2961  221.4463 H   0  0  0  0  0  0  0  0  0  0  0  0
  138.1737   77.6089  218.5896 H   0  0  0  0  0  0  0  0  0  0  0  0
  139.0719   79.0140  219.3175 H   0  0  0  0  0  0  0  0  0  0  0  0
  139.9927   76.3417  218.5691 H   0  0  0  0  0  0  0  0  0  0  0  0
  140.8775   77.9163  218.7751 H   0  0  0  0  0  0  0  0  0  0  0  0
  141.6659   76.2180  220.3551 H   0  0  0  0  0  0  0  0  0  0  0  0
  141.7898   79.0443  219.7930 H   0  0  0  0  0  0  0  0  0  0  0  0
  142.5365   80.9036  221.2471 H   0  0  0  0  0  0  0  0  0  0  0  0
  141.3799   78.7153  224.7203 H   0  0  0  0  0  0  0  0  0  0  0  0
  140.6392   76.8679  223.2804 H   0  0  0  0  0  0  0  0  0  0  0  0
  138.5108   68.6507  223.0818 H   0  0  0  0  0  0  0  0  0  0  0  0
  138.9639   67.1937  225.0339 H   0  0  0  0  0  0  0  0  0  0  0  0
  139.8292   66.9439  227.2323 H   0  0  0  0  0  0  0  0  0  0  0  0
  140.9418   67.9746  229.2285 H   0  0  0  0  0  0  0  0  0  0  0  0
  141.5410   70.3537  229.1868 H   0  0  0  0  0  0  0  0  0  0  0  0
  141.0843   71.7939  227.2314 H   0  0  0  0  0  0  0  0  0  0  0  0
  1  2  2  0
  2  3  1  0
  3  4  1  0
  4  5  1  0
  5  6  2  0
  5  7  1  0
  7  8  1  0
  8  9  1  0
  9 10  1  0
 10 11  1  0
 11 12  1  0
 12 13  1  0
 13 14  2  0
 14 15  1  0
 15 16  2  0
 16 17  1  0
 16 18  1  0
 18 19  2  0
  2 20  1  0
 20 21  2  0
 21 22  1  0
 22 23  2  0
 23 24  1  0
 24 25  2  0
 25 26  1  0
 26 27  2  0
 27 28  1  0
 28 29  2  0
 12  7  1  0
 19 13  1  0
 29 20  1  0
 28 23  1  0
  3 30  1  0
  4 31  1  0
  4 32  1  0
  8 33  1  0
  8 34  1  0
  9 35  1  0
  9 36  1  0
 10 37  1  0
 10 38  1  0
 11 39  1  0
 11 40  1  0
 12 41  1  6
 14 42  1  0
 15 43  1  0
 18 44  1  0
 19 45  1  0
 21 46  1  0
 22 47  1  0
 24 48  1  0
 25 49  1  0
 26 50  1  0
 27 51  1  0
M  END
>  <smiles>  (99) 
O=C(NCC(=O)N1CCCCC1c1ccc(Cl)cc1)c1ccc2ccccc2n1

>  <score_type>  (99) 
oracle

>  <origin>  (99) 
autodockgpu

>  <m_score__min__energy>  (99) 
-9.2200000000000006

>  <m_primary>  (99) 
energy

>  <rmsd>  (99) 
1.8386951416947583

>  <m_score__min__rmsd>  (99) 
1.8386951416947583

>  <meeko>  (99) 
{"free_energy": -8.9, "intermolecular_energy": -10.39, "internal_energy": -1.77, "cluster_size": 24, "cluster_id": 2, "rank_in_cluster": 12}

>  <energy>  (99) 
-8.6

>  <cluster_rmsd>  (99) 
0.54

>  <cluster>  (99) 
3

$$$$

     RDKit          3D

 51 54  0  0  0  0  0  0  0  0999 V2000
  140.1620   71.0790  221.3980 O   0  0  0  0  0  0  0  0  0  0  0  0
  139.9730   71.6410  222.5270 C   0  0  0  0  0  0  0  0  0  0  0  0
  139.7770   73.0440  222.5680 N   0  0  0  0  0  0  0  0  0  0  0  0
  139.7890   73.8280  221.3580 C   0  0  0  0  0  0  0  0  0  0  0  0
  139.4300   75.2310  221.6640 C   0  0  0  0  0  0  0  0  0  0  0  0
  138.7560   75.5110  222.6990 O   0  0  0  0  0  0  0  0  0  0  0  0
  139.8030   76.3300  220.8430 N   0  0  0  0  0  0  0  0  0  0  0  0
  138.7490   76.9710  220.0850 C   0  0  0  0  0  0  0  0  0  0  0  0
  139.3210   78.1680  219.3750 C   0  0  0  0  0  0  0  0  0  0  0  0
  140.5530   77.8720  218.5810 C   0  0  0  0  0  0  0  0  0  0  0  0
  141.4680   76.9270  219.2770 C   0  0  0  0  0  0  0  0  0  0  0  0
  141.1670   76.8160  220.7430 C   0  0  1  0  0  0  0  0  0  0  0  0
  141.4360   78.0240  221.5280 C   0  0  0  0  0  0  0  0  0  0  0  0
  141.2560   77.9660  222.8960 C   0  0  0  0  0  0  0  0  0  0  0  0
  141.5130   79.0860  223.6860 C   0  0  0  0  0  0  0  0  0  0  0  0
  141.9460   80.2710  223.1500 C   0  0  0  0  0  0  0  0  0  0  0  0
  142.2550   81.6440  224.1720 Cl  0  0  0  0  0  0  0  0  0  0  0  0
  142.1270   80.3370  221.7930 C   0  0  0  0  0  0  0  0  0  0  0  0
  141.8720   79.2260  221.0120 C   0  0  0  0  0  0  0  0  0  0  0  0
  139.9630   70.8360  223.7470 C   0  0  0  0  0  0  0  0  0  0  0  0
  139.5100   69.5490  223.7230 C   0  0  0  0  0  0  0  0  0  0  0  0
  139.4880   68.7650  224.8530 C   0  0  0  0  0  0  0  0  0  0  0  0
  139.9430   69.3250  226.0340 C   0  0  0  0  0  0  0  0  0  0  0  0
  139.9240   68.5480  227.1690 C   0  0  0  0  0  0  0  0  0  0  0  0
  140.3810   69.1180  228.3400 C   0  0  0  0  0  0  0  0  0  0  0  0
  140.8310   70.4180  228.3270 C   0  0  0  0  0  0  0  0  0  0  0  0
  140.8520   71.2000  227.1920 C   0  0  0  0  0  0  0  0  0  0  0  0
  140.3960   70.6330  226.0200 C   0  0  0  0  0  0  0  0  0  0  0  0
  140.4010   71.3560  224.9090 N   0  0  0  0  0  0  0  0  0  0  0  0
  139.6260   73.4600  223.5270 H   0  0  0  0  0  0  0  0  0  0  0  0
  140.7947   73.7974  220.9134 H   0  0  0  0  0  0  0  0  0  0  0  0
  139.0569   73.4127  220.6498 H   0  0  0  0  0  0  0  0  0  0  0  0
  138.3414   76.2638  219.3477 H   0  0  0  0  0  0  0  0  0  0  0  0
  137.9421   77.2884  220.7618 H   0  0  0  0  0  0  0  0  0  0  0  0
  138.5553   78.5633  218.6913 H   0  0  0  0  0  0  0  0  0  0  0  0
  139.6089   78.8916  220.1518 H   0  0  0  0  0  0  0  0  0  0  0  0
  140.2546   77.4297  217.6191 H   0  0  0  0  0  0  0  0  0  0  0  0
  141.0950   78.8189  218.4408 H   0  0  0  0  0  0  0  0  0  0  0  0
  141.3644   75.9324  218.8186 H   0  0  0  0  0  0  0  0  0  0  0  0
  142.4926   77.3135  219.1728 H   0  0  0  0  0  0  0  0  0  0  0  0
  141.8659   76.1074  221.2113 H   0  0  0  0  0  0  0  0  0  0  0  0
  140.9087   77.0331  223.3641 H   0  0  0  0  0  0  0  0  0  0  0  0
  141.3636   79.0164  224.7736 H   0  0  0  0  0  0  0  0  0  0  0  0
  142.4741   81.2712  221.3273 H   0  0  0  0  0  0  0  0  0  0  0  0
  142.0243   79.3043  219.9254 H   0  0  0  0  0  0  0  0  0  0  0  0
  139.1521   69.1263  222.7726 H   0  0  0  0  0  0  0  0  0  0  0  0
  139.1214   67.7285  224.8191 H   0  0  0  0  0  0  0  0  0  0  0  0
  139.5582   67.5109  227.1443 H   0  0  0  0  0  0  0  0  0  0  0  0
  140.3854   68.5383  229.2748 H   0  0  0  0  0  0  0  0  0  0  0  0
  141.1921   70.8553  229.2695 H   0  0  0  0  0  0  0  0  0  0  0  0
  141.2185   72.2368  227.2198 H   0  0  0  0  0  0  0  0  0  0  0  0
  1  2  2  0
  2  3  1  0
  3  4  1  0
  4  5  1  0
  5  6  2  0
  5  7  1  0
  7  8  1  0
  8  9  1  0
  9 10  1  0
 10 11  1  0
 11 12  1  0
 12 13  1  0
 13 14  2  0
 14 15  1  0
 15 16  2  0
 16 17  1  0
 16 18  1  0
 18 19  2  0
  2 20  1  0
 20 21  2  0
 21 22  1  0
 22 23  2  0
 23 24  1  0
 24 25  2  0
 25 26  1  0
 26 27  2  0
 27 28  1  0
 28 29  2  0
 12  7  1  0
 19 13  1  0
 29 20  1  0
 28 23  1  0
  3 30  1  0
  4 31  1  0
  4 32  1  0
  8 33  1  0
  8 34  1  0
  9 35  1  0
  9 36  1  0
 10 37  1  0
 10 38  1  0
 11 39  1  0
 11 40  1  0
 12 41  1  1
 14 42  1  0
 15 43  1  0
 18 44  1  0
 19 45  1  0
 21 46  1  0
 22 47  1  0
 24 48  1  0
 25 49  1  0
 26 50  1  0
 27 51  1  0
M  END
>  <smiles>  (100) 
O=C(NCC(=O)N1CCCCC1c1ccc(Cl)cc1)c1ccc2ccccc2n1

>  <score_type>  (100) 
oracle

>  <origin>  (100) 
autodockgpu

>  <m_score__min__energy>  (100) 
-9.2200000000000006

>  <m_primary>  (100) 
energy

>  <rmsd>  (100) 
1.6442184795266954

>  <m_score__min__rmsd>  (100) 
1.6442184795266954

>  <meeko>  (100) 
{"free_energy": -8.86, "intermolecular_energy": -10.35, "internal_energy": -1.77, "cluster_size": 24, "cluster_id": 2, "rank_in_cluster": 14}

>  <energy>  (100) 
-8.54

>  <cluster_rmsd>  (100) 
0.81

>  <cluster>  (100) 
3

$$$$
